17M
     RDKit          2D

 21 24  0  0  0  0  0  0  0  0999 V2000
   -1.0267    1.0529    0.0000 C   0  0  0  0  0  0  0  0  0  0  0  0
   -0.6668    0.3105    0.0000 C   0  0  0  0  0  0  0  0  0  0  0  0
   -0.1350    0.9412    0.0000 C   0  0  0  0  0  0  0  0  0  0  0  0
    0.6771    0.7960    0.0000 C   0  0  0  0  0  0  0  0  0  0  0  0
    0.9574    0.0201    0.0000 C   0  0  0  0  0  0  0  0  0  0  0  0
    1.7696   -0.1251    0.0000 C   0  0  0  0  0  0  0  0  0  0  0  0
    2.3014    0.5056    0.0000 C   0  0  0  0  0  0  0  0  0  0  0  0
    3.1135    0.3603    0.0000 C   0  0  0  0  0  0  0  0  0  0  0  0
    3.3938   -0.4156    0.0000 C   0  0  0  0  0  0  0  0  0  0  0  0
    4.2059   -0.5608    0.0000 O   0  0  0  0  0  0  0  0  0  0  0  0
    2.8620   -1.0463    0.0000 C   0  0  0  0  0  0  0  0  0  0  0  0
    2.0499   -0.9011    0.0000 C   0  0  0  0  0  0  0  0  0  0  0  0
    1.5180   -1.5318    0.0000 C   0  0  0  0  0  0  0  0  0  0  0  0
    0.7059   -1.3866    0.0000 C   0  0  0  0  0  0  0  0  0  0  0  0
    0.4256   -0.6106    0.0000 C   0  0  0  0  0  0  0  0  0  0  0  0
   -0.3865   -0.4654    0.0000 C   0  0  0  0  0  0  0  0  0  0  0  0
   -1.0378   -0.9718    0.0000 C   0  0  0  0  0  0  0  0  0  0  0  0
   -1.7207   -0.5088    0.0000 C   0  0  0  0  0  0  0  0  0  0  0  0
   -1.4914    0.2837    0.0000 C   0  0  0  0  0  0  0  0  0  0  0  0
   -1.6128    1.0997    0.0000 C   0  0  0  0  0  0  0  0  0  0  0  0
   -2.2522    0.6026    0.0000 O   0  0  0  0  0  0  0  0  0  0  0  0
  2  1  1  6
  2  3  1  0
  2 16  1  0
  2 19  1  0
  3  4  1  0
  4  5  1  0
  5  6  2  0
  5 15  1  0
  6  7  1  0
  6 12  1  0
  7  8  2  0
  8  9  1  0
  9 10  1  0
  9 11  2  0
 11 12  1  0
 12 13  2  0
 13 14  1  0
 14 15  2  0
 15 16  1  0
 16 17  1  6
 17 18  1  0
 18 19  1  0
 19 20  1  6
 19 21  1  0
M  END
>  <DRUGBANK_ID>  (1) 
DB06871

>  <COMMON_NAME>  (1) 
17-METHYL-17-ALPHA-DIHYDROEQUILENIN

>  <UNII>  (1) 
ZP488KVU9Q

$$$$
