
     RDKit          2D

 22 21  0  0  0  0  0  0  0  0999 V2000
   -2.1433   -1.6522    0.0000 N   0  0  0  0  0  0  0  0  0  0  0  0
   -1.4290   -1.2397    0.0000 C   0  0  0  0  0  0  0  0  0  0  0  0
   -0.7145   -1.6522    0.0000 C   0  0  0  0  0  0  0  0  0  0  0  0
   -1.4290   -0.4147    0.0000 C   0  0  0  0  0  0  0  0  0  0  0  0
   -0.7145   -0.0023    0.0000 C   0  0  0  0  0  0  0  0  0  0  0  0
   -0.7145    0.8227    0.0000 C   0  0  0  0  0  0  0  0  0  0  0  0
    0.0000    1.2352    0.0000 N   0  0  0  0  0  0  0  0  0  0  0  0
    0.0000    2.0602    0.0000 C   0  0  0  0  0  0  0  0  0  0  0  0
    0.7144    2.4727    0.0000 N   0  0  0  0  0  0  0  0  0  0  0  0
   -0.7145    2.4727    0.0000 N   0  0  0  0  0  0  0  0  0  0  0  0
   -0.7145    3.2977    0.0000 N   0  0  0  0  0  0  0  0  0  0  0  0
   -0.0044    3.7148    0.0000 O   0  0  0  0  0  0  0  0  0  0  0  0
   -1.4333    3.7148    0.0000 O   0  0  0  0  0  0  0  0  0  0  0  0
   -0.7145   -2.4773    0.0000 O   0  0  0  0  0  0  0  0  0  0  0  0
    0.0000   -1.2397    0.0000 N   0  0  0  0  0  0  0  0  0  0  0  0
    0.7145   -1.6522    0.0000 C   0  0  0  0  0  0  0  0  0  0  0  0
    1.4288   -1.2397    0.0000 C   0  0  0  0  0  0  0  0  0  0  0  0
    2.1433   -1.6522    0.0000 N   0  0  0  0  0  0  0  0  0  0  0  0
    1.4288   -0.4147    0.0000 O   0  0  0  0  0  0  0  0  0  0  0  0
    0.7145   -2.4773    0.0000 C   0  0  0  0  0  0  0  0  0  0  0  0
    1.4288   -2.8897    0.0000 C   0  0  0  0  0  0  0  0  0  0  0  0
    1.4288   -3.7147    0.0000 N   0  0  0  0  0  0  0  0  0  0  0  0
  2  1  1  1
  2  4  1  0
  2  3  1  0
  3 15  1  0
  3 14  2  0
  4  5  1  0
  5  6  1  0
  6  7  1  0
  7  8  1  0
  8  9  2  0
  8 10  1  0
 10 11  1  0
 11 12  1  0
 11 13  2  0
 15 16  1  0
 16 17  1  0
 16 20  1  6
 17 18  1  0
 17 19  2  0
 20 21  1  0
 21 22  1  0
M  CHG  2  11   1  12  -1
M  END
>  <DRUGBANK_ID>  (1) 
DB01821

>  <SECONDARY_ACCESSION_NUMBERS>  (1) 
EXPT01252

>  <COMMON_NAME>  (1) 
L-N(omega)-Nitroarginine-2,4-L-diaminobutyric amide

$$$$
