
     RDKit          2D

 40 42  0  0  0  0  0  0  0  0999 V2000
    1.0717   -2.7536    0.0000 C   0  0  0  0  0  0  0  0  0  0  0  0
    1.0717   -3.5786    0.0000 C   0  0  0  0  0  0  0  0  0  0  0  0
   -0.3572   -2.7536    0.0000 O   0  0  0  0  0  0  0  0  0  0  0  0
    0.3572   -2.3411    0.0000 C   0  0  0  0  0  0  0  0  0  0  0  0
    0.3572   -3.9911    0.0000 C   0  0  0  0  0  0  0  0  0  0  0  0
   -0.3572   -3.5786    0.0000 C   0  0  0  0  0  0  0  0  0  0  0  0
   -1.5797   -0.6187    0.0000 C   0  0  0  0  0  0  0  0  0  0  0  0
   -2.4047   -0.6187    0.0000 C   0  0  0  0  0  0  0  0  0  0  0  0
   -1.0948    0.0487    0.0000 O   0  0  0  0  0  0  0  0  0  0  0  0
   -0.3101   -0.2062    0.0000 C   0  0  0  0  0  0  0  0  0  0  0  0
   -0.3101   -1.0312    0.0000 C   0  0  0  0  0  0  0  0  0  0  0  0
    0.3572    0.2786    0.0000 O   0  0  0  0  0  0  0  0  0  0  0  0
    1.0717    2.3411    0.0000 C   0  0  0  0  0  0  0  0  0  0  0  0
    1.7861    2.7536    0.0000 O   0  0  0  0  0  0  0  0  0  0  0  0
    0.3572    1.1036    0.0000 C   0  0  0  0  0  0  0  0  0  0  0  0
   -0.3572    2.3411    0.0000 C   0  0  0  0  0  0  0  0  0  0  0  0
   -1.0716    2.7536    0.0000 O   0  0  0  0  0  0  0  0  0  0  0  0
   -0.3572    1.5161    0.0000 C   0  0  0  0  0  0  0  0  0  0  0  0
    0.3572    2.7536    0.0000 C   0  0  0  0  0  0  0  0  0  0  0  0
    1.0717    1.5161    0.0000 C   0  0  0  0  0  0  0  0  0  0  0  0
    1.7861    1.1036    0.0000 O   0  0  0  0  0  0  0  0  0  0  0  0
   -1.0716    1.1036    0.0000 N   0  0  0  0  0  0  0  0  0  0  0  0
   -2.5006    1.1036    0.0000 N   0  0  0  0  0  0  0  0  0  0  0  0
   -1.7861    1.5161    0.0000 C   0  0  0  0  0  0  0  0  0  0  0  0
   -1.7861    2.3411    0.0000 N   0  0  0  0  0  0  0  0  0  0  0  0
    0.3572   -1.5161    0.0000 O   0  0  0  0  0  0  0  0  0  0  0  0
    0.3572   -4.8161    0.0000 O   0  0  0  0  0  0  0  0  0  0  0  0
    1.7861   -3.9911    0.0000 O   0  0  0  0  0  0  0  0  0  0  0  0
   -1.0716   -3.9911    0.0000 C   0  0  0  0  0  0  0  0  0  0  0  0
   -1.7861   -3.5786    0.0000 O   0  0  0  0  0  0  0  0  0  0  0  0
    2.5006   -2.7536    0.0000 C   0  0  0  0  0  0  0  0  0  0  0  0
    1.7861   -2.3411    0.0000 N   0  0  0  0  0  0  0  0  0  0  0  0
    0.3572    3.5786    0.0000 N   0  0  0  0  0  0  0  0  0  0  0  0
    1.7861    3.5786    0.0000 N   0  0  0  0  0  0  0  0  0  0  0  0
    1.0717    3.9911    0.0000 C   0  0  0  0  0  0  0  0  0  0  0  0
    1.0717    4.8161    0.0000 N   0  0  0  0  0  0  0  0  0  0  0  0
   -1.5073   -2.0006    0.0000 C   0  0  0  0  0  0  0  0  0  0  0  0
   -2.3323   -2.0006    0.0000 O   0  0  0  0  0  0  0  0  0  0  0  0
   -1.0948   -1.2861    0.0000 C   0  0  0  0  0  0  0  0  0  0  0  0
   -0.8812   -2.0830    0.0000 O   0  0  0  0  0  0  0  0  0  0  0  0
  1 32  1  1
  1  4  1  0
  2  1  1  0
  2 28  1  6
  3  4  1  0
  3  6  1  0
  4 26  1  1
  5  2  1  0
  5 27  1  1
  6  5  1  0
  6 29  1  6
  7 39  1  0
  7  8  1  6
  9  7  1  0
  9 10  1  0
 10 12  1  1
 11 10  1  0
 11 26  1  6
 13 14  1  6
 15 12  1  6
 15 20  1  0
 16 18  1  0
 16 17  1  6
 18 15  1  0
 18 22  1  1
 19 13  1  0
 19 16  1  0
 19 33  1  1
 20 13  1  0
 20 21  1  1
 22 24  1  0
 24 23  1  0
 24 25  2  0
 29 30  1  0
 32 31  1  0
 34 35  1  0
 35 33  1  0
 35 36  2  0
 37 38  1  0
 39 11  1  0
 39 37  1  0
 39 40  1  6
M  END
>  <DRUGBANK_ID>  (1) 
DB11512

>  <COMMON_NAME>  (1) 
Dihydrostreptomycin

>  <CAS_NUMBER>  (1) 
128-46-1

>  <UNII>  (1) 
P2I6R8W6UA

>  <SYNONYMS>  (1) 
DHMS; Dihidroestreptomicina; Dihydrostreptomycin; Dihydrostreptomycine; Dihydrostreptomycinum; DST; N,N'''-[(1R,2R,3S,4R,5R,6S)-4-({5-deoxy-2-O-[2-deoxy-2-(methylamino)-a-L-glucopyranosyl]-3-C-(hydroxymethyl)-a-L-lyxofuranosyl}oxy)-2,5,6-trihydroxycyclohexane-1,3-diyl]diguanidine; N,N'''-[(1R,2R,3S,4R,5R,6S)-4-({5-deoxy-2-O-[2-deoxy-2-(methylamino)-alpha-L-glucopyranosyl]-3-C-(hydroxymethyl)-alpha-L-lyxofuranosyl}oxy)-2,5,6-trihydroxycyclohexane-1,3-diyl]diguanidine; N,N'''-[(1R,2R,3S,4R,5R,6S)-4-({5-deoxy-2-O-[2-deoxy-2-(methylamino)-α-L-glucopyranosyl]-3-C-(hydroxymethyl)-α-L-lyxofuranosyl}oxy)-2,5,6-trihydroxycyclohexane-1,3-diyl]diguanidine

$$$$
