
     RDKit          2D

 30 31  0  0  0  0  0  0  0  0999 V2000
    4.2868    7.4250    0.0000 C   0  0  0  0  0  0  0  0  0  0  0  0
   10.7171    4.5375    0.0000 C   0  0  0  0  0  0  0  0  0  0  0  0
   16.4328    9.4875    0.0000 C   0  0  0  0  0  0  0  0  0  0  0  0
    5.0013    7.0125    0.0000 C   0  0  0  0  0  0  0  0  0  0  0  0
   11.4315    4.9500    0.0000 C   0  0  0  0  0  0  0  0  0  0  0  0
   16.4328    8.6625    0.0000 C   0  0  0  0  0  0  0  0  0  0  0  0
    5.7158    7.4250    0.0000 C   0  0  0  0  0  0  0  0  0  0  0  0
    6.4302    7.0125    0.0000 C   0  0  0  0  0  0  0  0  0  0  0  0
    7.1447    7.4250    0.0000 C   0  0  0  0  0  0  0  0  0  0  0  0
    7.8592    7.0125    0.0000 C   0  0  0  0  0  0  0  0  0  0  0  0
    8.5737    7.4250    0.0000 C   0  0  0  0  0  0  0  0  0  0  0  0
    9.2881    7.0125    0.0000 C   0  0  0  0  0  0  0  0  0  0  0  0
   10.0026    7.4250    0.0000 C   0  0  0  0  0  0  0  0  0  0  0  0
   10.7171    7.0125    0.0000 C   0  0  0  0  0  0  0  0  0  0  0  0
   12.8605    7.4250    0.0000 C   0  0  0  0  0  0  0  0  0  0  0  0
   12.8605    5.7750    0.0000 C   0  0  0  0  0  0  0  0  0  0  0  0
   15.0039    6.1875    0.0000 C   0  0  0  0  0  0  0  0  0  0  0  0
   13.5749    7.0125    0.0000 C   0  0  0  0  0  0  0  0  0  0  0  0
   15.0039    7.0125    0.0000 C   0  0  0  0  0  0  0  0  0  0  0  0
   13.5749    6.1875    0.0000 C   0  0  0  0  0  0  0  0  0  0  0  0
   12.1460    7.0125    0.0000 C   0  0  0  0  0  0  0  0  0  0  0  0
   12.1460    6.1875    0.0000 C   0  0  0  0  0  0  0  0  0  0  0  0
   14.2894    7.4250    0.0000 C   0  0  0  0  0  0  0  0  0  0  0  0
   15.7184    7.4250    0.0000 C   0  0  0  0  0  0  0  0  0  0  0  0
   14.2894    5.7750    0.0000 N   0  0  0  0  0  0  0  0  0  0  0  0
   14.2894    8.2500    0.0000 O   0  0  0  0  0  0  0  0  0  0  0  0
   16.4328    7.0125    0.0000 O   0  0  0  0  0  0  0  0  0  0  0  0
   11.4315    5.7750    0.0000 O   0  0  0  0  0  0  0  0  0  0  0  0
   15.7184    8.2500    0.0000 O   0  0  0  0  0  0  0  0  0  0  0  0
   11.4315    7.4250    0.0000 O   0  0  0  0  0  0  0  0  0  0  0  0
  4  1  1  0
  5  2  1  0
  6  3  1  0
  7  4  1  0
  8  7  1  0
  9  8  1  0
 10  9  1  0
 11 10  1  0
 12 11  1  0
 13 12  1  0
 14 13  1  0
 18 15  2  0
 19 17  2  0
 20 16  2  0
 20 18  1  0
 21 15  1  0
 22 16  1  0
 22 21  2  0
 23 18  1  0
 23 19  1  0
 24 19  1  0
 25 17  1  0
 25 20  1  0
 26 23  2  0
 27 24  2  0
 28  5  1  0
 28 22  1  0
 29  6  1  0
 29 24  1  0
 30 14  1  0
 30 21  1  0
M  END
>  <DRUGBANK_ID>  (1) 
DB11394

>  <COMMON_NAME>  (1) 
Decoquinate

>  <CAS_NUMBER>  (1) 
18507-89-6

>  <UNII>  (1) 
534I52PVWH

>  <SYNONYMS>  (1) 
Decoquinate; Decoquinato; Decoquinatum

$$$$
