294
     RDKit          2D

 30 32  0  0  0  0  0  0  0  0999 V2000
    2.0167    1.9813    0.0000 C   0  0  0  0  0  0  0  0  0  0  0  0
    0.4164    0.8742    0.0000 C   0  0  0  0  0  0  0  0  0  0  0  0
    1.1309    0.4617    0.0000 C   0  0  0  0  0  0  0  0  0  0  0  0
    1.1309   -0.3633    0.0000 C   0  0  0  0  0  0  0  0  0  0  0  0
    0.4164   -0.7758    0.0000 C   0  0  0  0  0  0  0  0  0  0  0  0
   -0.2981   -0.3633    0.0000 C   0  0  0  0  0  0  0  0  0  0  0  0
   -0.2981    0.4617    0.0000 C   0  0  0  0  0  0  0  0  0  0  0  0
   -0.2981   -2.0133    0.0000 C   0  0  0  0  0  0  0  0  0  0  0  0
   -0.2981   -2.8383    0.0000 C   0  0  0  0  0  0  0  0  0  0  0  0
   -1.0125   -3.2508    0.0000 C   0  0  0  0  0  0  0  0  0  0  0  0
   -1.7270   -2.8383    0.0000 C   0  0  0  0  0  0  0  0  0  0  0  0
   -1.7270   -2.0133    0.0000 C   0  0  0  0  0  0  0  0  0  0  0  0
   -1.0125   -1.6008    0.0000 C   0  0  0  0  0  0  0  0  0  0  0  0
   -2.4415   -3.2508    0.0000 C   0  0  0  0  0  0  0  0  0  0  0  0
    0.1796    3.6063    0.0000 O   0  0  0  0  0  0  0  0  0  0  0  0
    0.3229    2.7938    0.0000 N   0  0  0  0  0  0  0  0  0  0  0  0
    1.0982    2.5116    0.0000 C   0  0  0  0  0  0  0  0  0  0  0  0
    1.7301    3.0419    0.0000 O   0  0  0  0  0  0  0  0  0  0  0  0
    1.2414    1.6992    0.0000 C   0  0  0  0  0  0  0  0  0  0  0  0
    1.0982    0.8867    0.0000 C   0  0  0  0  0  0  0  0  0  0  0  0
    1.7301    0.3564    0.0000 C   0  0  0  0  0  0  0  0  0  0  0  0
    2.5054    0.6386    0.0000 O   0  0  0  0  0  0  0  0  0  0  0  0
    2.6486    1.4510    0.0000 C   0  0  0  0  0  0  0  0  0  0  0  0
    0.4164    1.6992    0.0000 S   0  0  0  0  0  0  0  0  0  0  0  0
    0.4164    2.5242    0.0000 O   0  0  0  0  0  0  0  0  0  0  0  0
   -0.4086    1.6992    0.0000 O   0  0  0  0  0  0  0  0  0  0  0  0
    0.4164   -1.6008    0.0000 O   0  0  0  0  0  0  0  0  0  0  0  0
   -3.1559   -3.6633    0.0000 F   0  0  0  0  0  0  0  0  0  0  0  0
   -2.8540   -2.5364    0.0000 F   0  0  0  0  0  0  0  0  0  0  0  0
   -2.0290   -3.9653    0.0000 F   0  0  0  0  0  0  0  0  0  0  0  0
  1 19  1  0
  1 23  1  0
  2  3  2  0
  2  7  1  0
  2 24  1  0
  3  4  1  0
  4  5  2  0
  5  6  1  0
  5 27  1  0
  6  7  2  0
  8  9  2  0
  8 13  1  0
  8 27  1  0
  9 10  1  0
 10 11  2  0
 11 12  1  0
 11 14  1  0
 12 13  2  0
 14 28  1  0
 14 29  1  0
 14 30  1  0
 15 16  1  0
 16 17  1  0
 17 18  2  0
 17 19  1  0
 19 20  1  0
 19 24  1  0
 20 21  1  0
 21 22  1  0
 22 23  1  0
 24 25  2  0
 24 26  2  0
M  END
>  <DRUGBANK_ID>  (1) 
DB06945

>  <COMMON_NAME>  (1) 
N-hydroxy-4-({4-[4-(trifluoromethyl)phenoxy]phenyl}sulfonyl)tetrahydro-2H-pyran-4-carboxamide

$$$$
