
     RDKit          2D

 11 12  0  0  0  0  0  0  0  0999 V2000
   11.8227   -9.7454    0.0000 C   0  0  0  0  0  0  0  0  0  0  0  0
   10.9977   -9.7454    0.0000 C   0  0  0  0  0  0  0  0  0  0  0  0
   10.5852   -9.0309    0.0000 C   0  0  0  0  0  0  0  0  0  0  0  0
   10.9977   -8.3164    0.0000 C   0  0  0  0  0  0  0  0  0  0  0  0
   11.8227   -8.3164    0.0000 C   0  0  0  0  0  0  0  0  0  0  0  0
   12.2352   -9.0309    0.0000 C   0  0  0  0  0  0  0  0  0  0  0  0
   13.0421   -8.8594    0.0000 C   0  0  0  0  0  0  0  0  0  0  0  0
   13.1284   -8.0389    0.0000 C   0  0  0  0  0  0  0  0  0  0  0  0
   12.3747   -7.7033    0.0000 N   0  0  0  0  0  0  0  0  0  0  0  0
   13.6552   -9.4115    0.0000 C   0  0  0  0  0  0  0  0  0  0  0  0
   14.4399   -9.1565    0.0000 O   0  0  0  0  0  0  0  0  0  0  0  0
  2  1  2  0
  3  2  1  0
  4  3  2  0
  5  4  1  0
  6  5  2  0
  6  1  1  0
  7  6  1  0
  8  7  2  0
  9  8  1  0
  9  5  1  0
 10  7  1  0
 11 10  1  0
M  END
>  <DRUGBANK_ID>  (1) 
DB12881

>  <COMMON_NAME>  (1) 
Indole-3-carbinol

>  <CAS_NUMBER>  (1) 
700-06-1

>  <UNII>  (1) 
C11E72455F

$$$$
