CC3
     RDKit          2D

 30 33  0  0  0  0  0  0  0  0999 V2000
    5.2519   -2.8351    0.0000 O   0  0  0  0  0  0  0  0  0  0  0  0
    4.5374   -3.2476    0.0000 C   0  0  0  0  0  0  0  0  0  0  0  0
    4.5374   -4.0726    0.0000 C   0  0  0  0  0  0  0  0  0  0  0  0
    4.9499   -4.7871    0.0000 C   0  0  0  0  0  0  0  0  0  0  0  0
    4.1249   -4.7871    0.0000 C   0  0  0  0  0  0  0  0  0  0  0  0
    3.8230   -2.8351    0.0000 N   0  0  0  0  0  0  0  0  0  0  0  0
    3.8230   -2.0101    0.0000 C   0  0  0  0  0  0  0  0  0  0  0  0
    3.1085   -1.5976    0.0000 C   0  0  0  0  0  0  0  0  0  0  0  0
    4.5374   -1.5976    0.0000 C   0  0  0  0  0  0  0  0  0  0  0  0
    4.5374   -0.7726    0.0000 C   0  0  0  0  0  0  0  0  0  0  0  0
    3.8230   -0.3601    0.0000 C   0  0  0  0  0  0  0  0  0  0  0  0
    3.1085   -0.7726    0.0000 C   0  0  0  0  0  0  0  0  0  0  0  0
    2.3940   -0.3601    0.0000 N   0  0  0  0  0  0  0  0  0  0  0  0
    1.6795   -0.7726    0.0000 C   0  0  0  0  0  0  0  0  0  0  0  0
    1.6795   -1.5976    0.0000 N   0  0  0  0  0  0  0  0  0  0  0  0
    0.9651   -2.0101    0.0000 C   0  0  0  0  0  0  0  0  0  0  0  0
    0.2506   -1.5976    0.0000 C   0  0  0  0  0  0  0  0  0  0  0  0
    0.9651   -0.3601    0.0000 N   0  0  0  0  0  0  0  0  0  0  0  0
    0.2506   -0.7726    0.0000 C   0  0  0  0  0  0  0  0  0  0  0  0
   -0.4639   -0.3601    0.0000 N   0  0  0  0  0  0  0  0  0  0  0  0
   -0.4639    0.4649    0.0000 C   0  0  0  0  0  0  0  0  0  0  0  0
   -1.1783    0.8774    0.0000 C   0  0  0  0  0  0  0  0  0  0  0  0
   -1.1783    1.7024    0.0000 C   0  0  0  0  0  0  0  0  0  0  0  0
   -1.8928    2.1149    0.0000 C   0  0  0  0  0  0  0  0  0  0  0  0
   -2.6073    2.5274    0.0000 F   0  0  0  0  0  0  0  0  0  0  0  0
   -1.4803    2.8293    0.0000 F   0  0  0  0  0  0  0  0  0  0  0  0
   -2.3053    1.4004    0.0000 F   0  0  0  0  0  0  0  0  0  0  0  0
   -0.4639    2.1149    0.0000 C   0  0  0  0  0  0  0  0  0  0  0  0
    0.2506    1.7024    0.0000 C   0  0  0  0  0  0  0  0  0  0  0  0
    0.2506    0.8774    0.0000 C   0  0  0  0  0  0  0  0  0  0  0  0
  1  2  2  0
  2  6  1  0
  2  3  1  0
  3  4  1  0
  3  5  1  0
  4  5  1  0
  6  7  1  0
  7  8  2  0
  7  9  1  0
  8 12  1  0
  9 10  2  0
 10 11  1  0
 11 12  2  0
 12 13  1  0
 13 14  1  0
 14 15  2  0
 14 18  1  0
 15 16  1  0
 16 17  2  0
 17 19  1  0
 18 19  2  0
 19 20  1  0
 20 21  1  0
 21 22  2  0
 21 30  1  0
 22 23  1  0
 23 24  1  0
 23 28  2  0
 24 25  1  0
 24 26  1  0
 24 27  1  0
 28 29  1  0
 29 30  2  0
M  END
>  <DRUGBANK_ID>  (1) 
DB07545

>  <COMMON_NAME>  (1) 
N-{3-[(4-{[3-(TRIFLUOROMETHYL)PHENYL]AMINO}PYRIMIDIN-2-YL)AMINO]PHENYL}CYCLOPROPANECARBOXAMIDE

>  <UNII>  (1) 
E9Q3ZU9CRL

$$$$
