
     RDKit          2D

 22 23  0  0  0  0  0  0  0  0999 V2000
   -1.1208    2.5884    0.0000 P   0  0  0  0  0  0  0  0  0  0  0  0
   -1.1208    3.4134    0.0000 O   0  0  0  0  0  0  0  0  0  0  0  0
   -1.9458    2.5884    0.0000 O   0  0  0  0  0  0  0  0  0  0  0  0
   -0.2958    2.5884    0.0000 O   0  0  0  0  0  0  0  0  0  0  0  0
   -1.1208    1.7634    0.0000 O   0  0  0  0  0  0  0  0  0  0  0  0
   -0.4063    1.3508    0.0000 C   0  0  0  0  0  0  0  0  0  0  0  0
   -0.4063    0.5259    0.0000 C   0  0  0  0  0  0  0  0  0  0  0  0
    0.2610    0.0409    0.0000 O   0  0  0  0  0  0  0  0  0  0  0  0
   -1.0737    0.0409    0.0000 C   0  0  0  0  0  0  0  0  0  0  0  0
   -1.8584    0.2958    0.0000 O   0  0  0  0  0  0  0  0  0  0  0  0
   -0.8188   -0.7436    0.0000 C   0  0  0  0  0  0  0  0  0  0  0  0
   -1.3037   -1.4111    0.0000 O   0  0  0  0  0  0  0  0  0  0  0  0
    0.0061   -0.7436    0.0000 C   0  0  0  0  0  0  0  0  0  0  0  0
    0.4910   -1.4111    0.0000 N   0  0  0  0  0  0  0  0  0  0  0  0
    0.1555   -2.1648    0.0000 C   0  0  0  0  0  0  0  0  0  0  0  0
   -0.6649   -2.2510    0.0000 O   0  0  0  0  0  0  0  0  0  0  0  0
    0.6404   -2.8322    0.0000 N   0  0  0  0  0  0  0  0  0  0  0  0
    1.4609   -2.7460    0.0000 C   0  0  0  0  0  0  0  0  0  0  0  0
    1.9458   -3.4134    0.0000 O   0  0  0  0  0  0  0  0  0  0  0  0
    1.7964   -1.9923    0.0000 C   0  0  0  0  0  0  0  0  0  0  0  0
    1.3115   -1.3249    0.0000 C   0  0  0  0  0  0  0  0  0  0  0  0
    1.6471   -0.5712    0.0000 O   0  0  0  0  0  0  0  0  0  0  0  0
  2  1  2  0
  3  1  1  0
  4  1  1  0
  5  1  1  0
  6  5  1  0
  7  6  1  1
  7  8  1  0
  9  7  1  0
  9 10  1  6
 11  9  1  0
 11 12  1  6
 13  8  1  0
 13 11  1  0
 13 14  1  1
 15 14  1  0
 15 16  2  0
 15 17  1  0
 18 17  1  0
 18 19  2  0
 18 20  1  0
 20 21  1  0
 21 14  1  0
 21 22  2  0
M  END
>  <DRUGBANK_ID>  (1) 
DB03668

>  <SECONDARY_ACCESSION_NUMBERS>  (1) 
EXPT00725

>  <COMMON_NAME>  (1) 
6-oxouridine 5'-phosphate

>  <SYNONYMS>  (1) 
5,6-dihydro-6-oxouridine 5'-monophosphate; 5,6-dihydro-6-oxouridine 5'-phosphate

$$$$
