6OC
     RDKit          2D

 22 21  0  0  0  0  0  0  0  0999 V2000
   -1.0981    3.8276    0.0000 C   0  0  0  0  0  0  0  0  0  0  0  0
   -1.8126    3.4151    0.0000 C   0  0  0  0  0  0  0  0  0  0  0  0
   -1.8126    2.5901    0.0000 C   0  0  0  0  0  0  0  0  0  0  0  0
   -2.5271    2.1776    0.0000 C   0  0  0  0  0  0  0  0  0  0  0  0
   -2.5271    1.3526    0.0000 C   0  0  0  0  0  0  0  0  0  0  0  0
   -3.2415    0.9401    0.0000 C   0  0  0  0  0  0  0  0  0  0  0  0
   -3.2415    0.1151    0.0000 C   0  0  0  0  0  0  0  0  0  0  0  0
   -2.5271   -0.2974    0.0000 C   0  0  0  0  0  0  0  0  0  0  0  0
   -2.5271   -1.1224    0.0000 C   0  0  0  0  0  0  0  0  0  0  0  0
   -1.8126   -1.5349    0.0000 C   0  0  0  0  0  0  0  0  0  0  0  0
   -1.0981   -1.1224    0.0000 C   0  0  0  0  0  0  0  0  0  0  0  0
   -0.3836   -1.5349    0.0000 C   0  0  0  0  0  0  0  0  0  0  0  0
    0.3308   -1.1224    0.0000 C   0  0  0  0  0  0  0  0  0  0  0  0
    0.3308   -0.2974    0.0000 O   0  0  0  0  0  0  0  0  0  0  0  0
    1.0453   -1.5349    0.0000 C   0  0  0  0  0  0  0  0  0  0  0  0
    1.7598   -1.1224    0.0000 C   0  0  0  0  0  0  0  0  0  0  0  0
    2.4742   -1.5349    0.0000 C   0  0  0  0  0  0  0  0  0  0  0  0
    3.1887   -1.1224    0.0000 C   0  0  0  0  0  0  0  0  0  0  0  0
    3.9032   -1.5349    0.0000 C   0  0  0  0  0  0  0  0  0  0  0  0
    4.6177   -1.1224    0.0000 O   0  0  0  0  0  0  0  0  0  0  0  0
    3.9032   -2.3599    0.0000 O   0  0  0  0  0  0  0  0  0  0  0  0
   -1.0981   -0.2974    0.0000 O   0  0  0  0  0  0  0  0  0  0  0  0
  1  2  1  0
  2  3  1  0
  3  4  1  0
  4  5  1  0
  5  6  1  0
  6  7  2  0
  7  8  1  0
  8  9  1  0
  9 10  2  0
 10 11  1  0
 11 12  1  0
 11 22  1  6
 12 13  1  0
 13 14  2  0
 13 15  1  0
 15 16  1  0
 16 17  1  0
 17 18  1  0
 18 19  1  0
 19 20  2  0
 19 21  1  0
M  END
>  <DRUGBANK_ID>  (1) 
DB07209

>  <COMMON_NAME>  (1) 
(8R,9Z,12Z)-8-hydroxy-6-oxooctadeca-9,12-dienoic acid

$$$$
