
     RDKit          2D

 16 16  0  0  0  0  0  0  0  0999 V2000
   -1.7834   -0.8248    0.0000 C   0  0  0  0  0  0  0  0  0  0  0  0
   -1.0690   -0.4123    0.0000 C   0  0  0  0  0  0  0  0  0  0  0  0
   -0.3545   -0.8248    0.0000 C   0  0  0  0  0  0  0  0  0  0  0  0
    0.3598   -0.4123    0.0000 C   0  0  0  0  0  0  0  0  0  0  0  0
   -1.7834   -1.6500    0.0000 F   0  0  0  0  0  0  0  0  0  0  0  0
   -2.4980   -0.4123    0.0000 F   0  0  0  0  0  0  0  0  0  0  0  0
    1.0743   -0.8248    0.0000 C   0  0  0  0  0  0  0  0  0  0  0  0
    1.7888    0.4125    0.0000 N   0  0  0  0  0  0  0  0  0  0  0  0
   -1.0690    0.4125    0.0000 C   0  0  0  0  0  0  0  0  0  0  0  0
    1.7888   -0.4123    0.0000 C   0  0  0  0  0  0  0  0  0  0  0  0
   -0.3545    0.8250    0.0000 C   0  0  0  0  0  0  0  0  0  0  0  0
    0.3598    0.4125    0.0000 C   0  0  0  0  0  0  0  0  0  0  0  0
    2.5034   -0.8248    0.0000 C   0  0  0  0  0  0  0  0  0  0  0  0
   -2.5034   -1.2442    0.0000 F   0  0  0  0  0  0  0  0  0  0  0  0
    1.0743    0.8250    0.0000 C   0  0  0  0  0  0  0  0  0  0  0  0
    1.0743    1.6500    0.0000 C   0  0  0  0  0  0  0  0  0  0  0  0
  1 14  1  0
  2  1  1  0
  3  2  2  0
  4  3  1  0
  5  1  1  0
  6  1  1  0
  7  4  1  0
  8 15  1  0
  9  2  1  0
 10  7  1  0
 10  8  1  0
 11  9  2  0
 12  4  2  0
 12 11  1  0
 13 10  1  0
 15 16  1  0
M  END
>  <DRUGBANK_ID>  (1) 
DB00574

>  <SECONDARY_ACCESSION_NUMBERS>  (1) 
APRD00319

>  <COMMON_NAME>  (1) 
Fenfluramine

>  <CAS_NUMBER>  (1) 
458-24-2

>  <UNII>  (1) 
2DS058H2CF

>  <SYNONYMS>  (1) 
(Â±)-fenfluramine; 1-(m-trifluoromethyl-phenyl)-2-ethylaminopropane; DL-Fenfluramine; Fenfluramina; Fenfluramine; Fenfluraminum

$$$$
