
     RDKit          2D

 23 25  0  0  0  0  0  0  0  0999 V2000
   -0.2945   -0.6085    0.0000 C   0  0  0  0  0  0  0  0  0  0  0  0
   -1.0191   -0.2173    0.0000 C   0  0  0  0  0  0  0  0  0  0  0  0
    2.4391   -0.6085    0.0000 N   0  0  0  0  0  0  0  0  0  0  0  0
    0.4250   -0.2173    0.0000 O   0  0  0  0  0  0  0  0  0  0  0  0
   -0.2945   -1.4200    0.0000 O   0  0  0  0  0  0  0  0  0  0  0  0
    1.1108   -0.6230    0.0000 C   0  0  0  0  0  0  0  0  0  0  0  0
   -1.7291   -0.6085    0.0000 C   0  0  0  0  0  0  0  0  0  0  0  0
    1.7774   -0.1303    0.0000 C   0  0  0  0  0  0  0  0  0  0  0  0
    2.1541   -1.3909    0.0000 C   0  0  0  0  0  0  0  0  0  0  0  0
   -1.4392    0.4975    0.0000 C   0  0  0  0  0  0  0  0  0  0  0  0
    1.3572   -1.3909    0.0000 C   0  0  0  0  0  0  0  0  0  0  0  0
   -0.6133    0.4975    0.0000 O   0  0  0  0  0  0  0  0  0  0  0  0
    3.1490   -0.1979    0.0000 C   0  0  0  0  0  0  0  0  0  0  0  0
    3.1490   -1.0239    0.0000 C   0  0  0  0  0  0  0  0  0  0  0  0
   -2.4391   -0.1883    0.0000 C   0  0  0  0  0  0  0  0  0  0  0  0
   -1.7291   -1.4200    0.0000 C   0  0  0  0  0  0  0  0  0  0  0  0
   -2.2314    0.7389    0.0000 C   0  0  0  0  0  0  0  0  0  0  0  0
   -0.9708    1.1834    0.0000 C   0  0  0  0  0  0  0  0  0  0  0  0
   -3.1490   -0.6085    0.0000 C   0  0  0  0  0  0  0  0  0  0  0  0
   -2.4391   -1.8401    0.0000 C   0  0  0  0  0  0  0  0  0  0  0  0
   -1.4682    1.8401    0.0000 C   0  0  0  0  0  0  0  0  0  0  0  0
   -2.2506    1.5648    0.0000 C   0  0  0  0  0  0  0  0  0  0  0  0
   -3.1490   -1.4200    0.0000 C   0  0  0  0  0  0  0  0  0  0  0  0
  2  1  1  0
  3  8  1  0
  3  9  1  0
  4  1  1  0
  5  1  2  0
  6  4  1  0
  7  2  1  0
  8  6  1  0
  9 11  1  0
 10  2  1  0
 11  6  1  0
 12  2  1  0
 13  3  1  0
 14  3  1  0
 15  7  2  0
 16  7  1  0
 17 10  1  0
 18 10  1  0
 19 15  1  0
 20 16  2  0
 20 23  1  0
 21 18  1  0
 22 17  1  0
 22 21  1  0
 23 19  2  0
M  CHG  1   3   1
M  END
>  <DRUGBANK_ID>  (1) 
DB00986

>  <SECONDARY_ACCESSION_NUMBERS>  (1) 
APRD01000; DB06583

>  <COMMON_NAME>  (1) 
Glycopyrronium

>  <CAS_NUMBER>  (1) 
740028-90-4

>  <UNII>  (1) 
A14FB57V1D

>  <SYNONYMS>  (1) 
Glicopirronio; Glycopyrrolate; Glycopyrrolate cation; Glycopyrrolate ion; Glycopyrronium; Glycopyrronium cation; Glycopyrronium ion

$$$$
