
     RDKit          2D

  9  0  0  0  0  0  0  0  0  0999 V2000
    0.0000    0.0000    0.0000 O   0  0  0  0  0  0  0  0  0  0  0  0
    3.3000    0.0000    0.0000 O   0  0  0  0  0  0  0  0  0  0  0  0
    6.6000    0.0000    0.0000 O   0  0  0  0  0  0  0  0  0  0  0  0
    0.0000   -1.6500    0.0000 O   0  0  0  0  0  0  0  0  0  0  0  0
    1.1196   -1.6500    0.0000 O   0  0  0  0  0  0  0  0  0  0  0  0
    2.2393   -1.6500    0.0000 O   0  0  0  0  0  0  0  0  0  0  0  0
    2.4750    0.0000    0.0000 Al  0  0  0  0  0 15  0  0  0  0  0  0
    5.7750    0.0000    0.0000 Al  0  0  0  0  0 15  0  0  0  0  0  0
    0.0000   -3.3000    0.0000 Cl  0  0  0  0  0  0  0  0  0  0  0  0
M  CHG  8   2  -1   3  -1   4  -1   5  -1   6  -1   7   3   8   3   9  -1
M  END
>  <DRUGBANK_ID>  (1) 
DB11573

>  <COMMON_NAME>  (1) 
Aluminum chlorohydrate

>  <CAS_NUMBER>  (1) 
12359-72-7

>  <UNII>  (1) 
HPN8MZW13M

>  <SYNONYMS>  (1) 
Alchlordrate; Aluminium chlorohydrate; Aluminum chlorhydrate; Aluminum chlorohydrate; Aluminum chlorohydrate dihydrate; Aluminum hydroxychloride

$$$$
