FCD
     RDKit          2D

 15 16  0  0  0  0  0  0  0  0999 V2000
    2.6414   -1.6396    0.0000 O   0  0  0  0  0  0  0  0  0  0  0  0
    2.3865   -2.4242    0.0000 C   0  0  0  0  0  0  0  0  0  0  0  0
    2.8714   -3.0916    0.0000 C   0  0  0  0  0  0  0  0  0  0  0  0
    2.5358   -3.8453    0.0000 O   0  0  0  0  0  0  0  0  0  0  0  0
    1.5615   -2.4242    0.0000 C   0  0  0  0  0  0  0  0  0  0  0  0
    1.3065   -1.6396    0.0000 C   0  0  0  0  0  0  0  0  0  0  0  0
    1.9740   -1.1547    0.0000 C   0  0  0  0  0  0  0  0  0  0  0  0
    3.6919   -3.0054    0.0000 O   0  0  0  0  0  0  0  0  0  0  0  0
    1.9740   -0.3297    0.0000 C   0  0  0  0  0  0  0  0  0  0  0  0
    1.2595    0.0828    0.0000 C   0  0  0  0  0  0  0  0  0  0  0  0
    1.2595    0.9078    0.0000 C   0  0  0  0  0  0  0  0  0  0  0  0
    1.9740    1.3203    0.0000 C   0  0  0  0  0  0  0  0  0  0  0  0
    2.6884    0.9078    0.0000 C   0  0  0  0  0  0  0  0  0  0  0  0
    2.6884    0.0828    0.0000 C   0  0  0  0  0  0  0  0  0  0  0  0
    3.4029   -0.3297    0.0000 Cl  0  0  0  0  0  0  0  0  0  0  0  0
  1  2  1  0
  1  7  1  0
  2  3  1  0
  2  5  2  0
  3  4  1  0
  3  8  2  0
  5  6  1  0
  6  7  2  0
  7  9  1  0
  9 10  2  0
  9 14  1  0
 10 11  1  0
 11 12  2  0
 12 13  1  0
 13 14  2  0
 14 15  1  0
M  END
>  <DRUGBANK_ID>  (1) 
DB02909

>  <SECONDARY_ACCESSION_NUMBERS>  (1) 
EXPT01402

>  <COMMON_NAME>  (1) 
5-(2-Chlorophenyl)Furan-2-Carboxylic Acid

>  <UNII>  (1) 
L5RCO4YA70

$$$$
