
     RDKit          2D

 15 16  0  0  0  0  0  0  0  0999 V2000
    0.7189   -0.7170    0.0000 N   0  0  0  0  0  0  0  0  0  0  0  0
   -0.1060   -0.7170    0.0000 C   0  0  0  0  0  0  0  0  0  0  0  0
   -0.3609    0.0675    0.0000 C   0  0  0  0  0  0  0  0  0  0  0  0
    0.3065    0.5525    0.0000 O   0  0  0  0  0  0  0  0  0  0  0  0
    0.9739    0.0675    0.0000 C   0  0  0  0  0  0  0  0  0  0  0  0
   -1.1455    0.3225    0.0000 C   0  0  0  0  0  0  0  0  0  0  0  0
   -1.7586   -0.2294    0.0000 C   0  0  0  0  0  0  0  0  0  0  0  0
   -2.5432    0.0254    0.0000 C   0  0  0  0  0  0  0  0  0  0  0  0
   -2.7147    0.8324    0.0000 C   0  0  0  0  0  0  0  0  0  0  0  0
   -2.1016    1.3844    0.0000 C   0  0  0  0  0  0  0  0  0  0  0  0
   -1.3170    1.1295    0.0000 C   0  0  0  0  0  0  0  0  0  0  0  0
   -0.5909   -1.3844    0.0000 O   0  0  0  0  0  0  0  0  0  0  0  0
    1.7585    0.3224    0.0000 N   0  0  0  0  0  0  0  0  0  0  0  0
    1.9301    1.1294    0.0000 C   0  0  0  0  0  0  0  0  0  0  0  0
    2.7147    1.3843    0.0000 C   0  0  0  0  0  0  0  0  0  0  0  0
  1  2  1  0
  2  3  1  0
  2 12  2  0
  3  4  1  0
  3  6  1  0
  4  5  1  0
  5  1  2  0
  5 13  1  0
  6  7  2  0
  7  8  1  0
  8  9  2  0
  9 10  1  0
 10 11  2  0
 11  6  1  0
 13 14  1  0
 14 15  1  0
M  END
>  <DRUGBANK_ID>  (1) 
DB13341

>  <COMMON_NAME>  (1) 
Fenozolone

>  <CAS_NUMBER>  (1) 
15302-16-6

>  <UNII>  (1) 
1NZI4LMU6G

>  <SYNONYMS>  (1) 
Fenozolona; Fenozolone; Fenozolonum

$$$$
