GS7
     RDKit          2D

 34 37  0  0  0  0  0  0  0  0999 V2000
   -0.8528    1.4669    0.0000 C   0  0  0  0  0  0  0  0  0  0  0  0
   -0.1383    1.0544    0.0000 N   0  0  0  0  0  0  0  0  0  0  0  0
   -1.5673    1.0544    0.0000 C   0  0  0  0  0  0  0  0  0  0  0  0
   -1.5673    0.2294    0.0000 C   0  0  0  0  0  0  0  0  0  0  0  0
   -2.3519   -0.0256    0.0000 N   0  0  0  0  0  0  0  0  0  0  0  0
   -2.8368    0.6419    0.0000 C   0  0  0  0  0  0  0  0  0  0  0  0
   -2.3519    1.3093    0.0000 C   0  0  0  0  0  0  0  0  0  0  0  0
   -0.8528   -0.1831    0.0000 N   0  0  0  0  0  0  0  0  0  0  0  0
   -0.1383    0.2294    0.0000 C   0  0  0  0  0  0  0  0  0  0  0  0
    0.5761   -0.1831    0.0000 N   0  0  0  0  0  0  0  0  0  0  0  0
    0.5761   -1.0081    0.0000 C   0  0  0  0  0  0  0  0  0  0  0  0
    1.2906   -1.4206    0.0000 C   0  0  0  0  0  0  0  0  0  0  0  0
    2.0051   -1.0081    0.0000 O   0  0  0  0  0  0  0  0  0  0  0  0
    2.7195   -1.4206    0.0000 C   0  0  0  0  0  0  0  0  0  0  0  0
   -0.1383   -1.4206    0.0000 C   0  0  0  0  0  0  0  0  0  0  0  0
   -0.1383   -2.2456    0.0000 C   0  0  0  0  0  0  0  0  0  0  0  0
    0.5761   -2.6581    0.0000 C   0  0  0  0  0  0  0  0  0  0  0  0
    1.2906   -2.2456    0.0000 C   0  0  0  0  0  0  0  0  0  0  0  0
    0.5761   -3.4831    0.0000 C   0  0  0  0  0  0  0  0  0  0  0  0
    1.2906   -3.8956    0.0000 S   0  0  0  0  0  0  0  0  0  0  0  0
    2.0051   -4.3081    0.0000 O   0  0  0  0  0  0  0  0  0  0  0  0
    1.7031   -3.1812    0.0000 O   0  0  0  0  0  0  0  0  0  0  0  0
    0.8781   -4.6101    0.0000 C   0  0  0  0  0  0  0  0  0  0  0  0
   -1.5673    3.5294    0.0000 O   0  0  0  0  0  0  0  0  0  0  0  0
   -0.8528    3.9419    0.0000 C   0  0  0  0  0  0  0  0  0  0  0  0
   -0.8528    4.7669    0.0000 N   0  0  0  0  0  0  0  0  0  0  0  0
   -0.1383    3.5294    0.0000 C   0  0  0  0  0  0  0  0  0  0  0  0
    0.5761    3.9419    0.0000 C   0  0  0  0  0  0  0  0  0  0  0  0
    0.5761    4.7669    0.0000 F   0  0  0  0  0  0  0  0  0  0  0  0
    1.2906    3.5294    0.0000 C   0  0  0  0  0  0  0  0  0  0  0  0
    1.2906    2.7044    0.0000 C   0  0  0  0  0  0  0  0  0  0  0  0
    0.5761    2.2919    0.0000 C   0  0  0  0  0  0  0  0  0  0  0  0
   -0.1383    2.7044    0.0000 C   0  0  0  0  0  0  0  0  0  0  0  0
   -0.8528    2.2919    0.0000 N   0  0  0  0  0  0  0  0  0  0  0  0
  1  2  2  0
  1  3  1  0
  1 34  1  0
  2  9  1  0
  3  4  2  0
  3  7  1  0
  4  5  1  0
  4  8  1  0
  5  6  1  0
  6  7  2  0
  8  9  2  0
  9 10  1  0
 10 11  1  0
 11 12  2  0
 11 15  1  0
 12 13  1  0
 12 18  1  0
 13 14  1  0
 15 16  2  0
 16 17  1  0
 17 18  2  0
 17 19  1  0
 19 20  1  0
 20 21  2  0
 20 22  2  0
 20 23  1  0
 24 25  2  0
 25 26  1  0
 25 27  1  0
 27 28  2  0
 27 33  1  0
 28 29  1  0
 28 30  1  0
 30 31  2  0
 31 32  1  0
 32 33  2  0
 33 34  1  0
M  END
>  <DRUGBANK_ID>  (1) 
DB07845

>  <COMMON_NAME>  (1) 
2-fluoro-6-{[2-({2-methoxy-4-[(methylsulfonyl)methyl]phenyl}amino)-7H-pyrrolo[2,3-d]pyrimidin-4-yl]amino}benzamide

$$$$
