
     RDKit          2D

  8  7  0  0  0  0  0  0  0  0999 V2000
    1.2481   -0.3602    0.0000 O   0  0  0  0  0  0  0  0  0  0  0  0
    0.4018    1.0808    0.0000 N   0  0  0  0  0  0  0  0  0  0  0  0
   -1.2481    1.0439    0.0000 N   0  0  0  0  0  0  0  0  0  0  0  0
   -1.2267   -0.3848    0.0000 C   0  0  0  0  0  0  0  0  0  0  0  0
   -0.8250    0.3481    0.0000 C   0  0  0  0  0  0  0  0  0  0  0  0
    0.0000    0.3481    0.0000 C   0  0  0  0  0  0  0  0  0  0  0  0
    0.4231   -0.3602    0.0000 C   0  0  0  0  0  0  0  0  0  0  0  0
    0.0214   -1.0808    0.0000 O   0  0  0  0  0  0  0  0  0  0  0  0
  5  3  1  0
  5  4  1  1
  6  2  1  6
  6  5  1  0
  6  7  1  0
  7  1  2  0
  7  8  1  0
M  END
>  <DRUGBANK_ID>  (1) 
DB04804

>  <COMMON_NAME>  (1) 
(2S)-2,3-Diaminobutanoic acid

>  <CAS_NUMBER>  (1) 
25023-80-7

>  <UNII>  (1) 
0CA9BP8DFV

>  <SYNONYMS>  (1) 
(2S,3R)-2,3-Diaminobutanoic acid; L-threo-2,3-diamino-butyric acid; L-Threo-alpha,beta-diaminobutyric acid

$$$$
