
     RDKit          2D

 20 19  0  0  0  0  0  0  0  0999 V2000
    2.3649   -2.7596    0.0000 O   0  0  0  0  0  0  0  0  0  0  0  0
    3.0793   -1.5221    0.0000 O   0  0  0  0  0  0  0  0  0  0  0  0
   -2.6364    1.7778    0.0000 O   0  0  0  0  0  0  0  0  0  0  0  0
   -1.9218    3.0153    0.0000 O   0  0  0  0  0  0  0  0  0  0  0  0
   -1.9218   -0.2846    0.0000 O   0  0  0  0  0  0  0  0  0  0  0  0
   -2.6364    0.9528    0.0000 O   0  0  0  0  0  0  0  0  0  0  0  0
   -0.4929    2.1903    0.0000 N   0  0  0  0  0  0  0  0  0  0  0  0
    0.2214    0.9528    0.0000 N   0  0  0  0  0  0  0  0  0  0  0  0
    0.9360   -1.9346    0.0000 N   0  0  0  0  0  0  0  0  0  0  0  0
    0.9360    2.1903    0.0000 N   0  0  0  0  0  0  0  0  0  0  0  0
    1.6504   -0.6971    0.0000 C   0  0  0  0  0  0  0  0  0  0  0  0
    0.9360   -0.2846    0.0000 C   0  0  0  0  0  0  0  0  0  0  0  0
    1.6504   -1.5221    0.0000 C   0  0  0  0  0  0  0  0  0  0  0  0
    0.9360    0.5403    0.0000 C   0  0  0  0  0  0  0  0  0  0  0  0
   -1.2074    1.7778    0.0000 C   0  0  0  0  0  0  0  0  0  0  0  0
   -1.2074    0.9528    0.0000 C   0  0  0  0  0  0  0  0  0  0  0  0
    0.2214    1.7778    0.0000 C   0  0  0  0  0  0  0  0  0  0  0  0
    2.3649   -1.9346    0.0000 C   0  0  0  0  0  0  0  0  0  0  0  0
   -1.9218    2.1903    0.0000 C   0  0  0  0  0  0  0  0  0  0  0  0
   -1.9218    0.5403    0.0000 C   0  0  0  0  0  0  0  0  0  0  0  0
  1 18  1  0
  2 18  2  0
  3 19  1  0
  4 19  2  0
  5 20  1  0
  6 20  2  0
  7 17  1  0
  8 14  1  0
  8 17  2  0
 10 17  1  0
 11 12  1  0
 11 13  1  0
 12 14  1  0
 13  9  1  1
 13 18  1  0
 15  7  1  0
 15 16  1  6
 15 19  1  0
 16 20  1  0
M  END
>  <DRUGBANK_ID>  (1) 
DB02267

>  <SECONDARY_ACCESSION_NUMBERS>  (1) 
EXPT00565

>  <COMMON_NAME>  (1) 
Argininosuccinate

$$$$
