
     RDKit          2D

 19 21  0  0  0  0  0  0  0  0999 V2000
    3.4479    2.8253    0.0000 C   0  0  0  0  0  0  0  0  0  0  0  0
    3.0808   -2.2457    0.0000 C   0  0  0  0  0  0  0  0  0  0  0  0
    3.8691   -2.0025    0.0000 C   0  0  0  0  0  0  0  0  0  0  0  0
    2.4760   -1.6845    0.0000 C   0  0  0  0  0  0  0  0  0  0  0  0
    4.0527   -1.1982    0.0000 C   0  0  0  0  0  0  0  0  0  0  0  0
    2.6596   -0.8802    0.0000 C   0  0  0  0  0  0  0  0  0  0  0  0
    1.5575    1.5066    0.0000 C   0  0  0  0  0  0  0  0  0  0  0  0
    2.2720    1.9191    0.0000 C   0  0  0  0  0  0  0  0  0  0  0  0
    4.7938    1.0941    0.0000 C   0  0  0  0  0  0  0  0  0  0  0  0
    4.4358    1.8374    0.0000 C   0  0  0  0  0  0  0  0  0  0  0  0
    2.2720    0.2691    0.0000 C   0  0  0  0  0  0  0  0  0  0  0  0
    3.4479   -0.6370    0.0000 C   0  0  0  0  0  0  0  0  0  0  0  0
    1.5575    0.6816    0.0000 C   0  0  0  0  0  0  0  0  0  0  0  0
    2.9865    0.6816    0.0000 C   0  0  0  0  0  0  0  0  0  0  0  0
    2.9865    1.5066    0.0000 C   0  0  0  0  0  0  0  0  0  0  0  0
    3.6315    0.1673    0.0000 C   0  0  0  0  0  0  0  0  0  0  0  0
    0.8431    0.2691    0.0000 Cl  0  0  0  0  0  0  0  0  0  0  0  0
    4.4358    0.3508    0.0000 N   0  0  0  0  0  0  0  0  0  0  0  0
    3.6315    2.0210    0.0000 N   0  0  0  0  0  0  0  0  0  0  0  0
  3  2  2  0
  4  2  1  0
  5  3  1  0
  6  4  2  0
  8  7  2  0
 10  9  1  0
 12  5  2  0
 12  6  1  0
 13  7  1  0
 13 11  2  0
 14 11  1  0
 15  8  1  0
 15 14  2  0
 16 12  1  0
 16 14  1  0
 17 13  1  0
 18  9  1  0
 18 16  2  0
 19  1  1  0
 19 10  1  0
 19 15  1  0
M  END
>  <DRUGBANK_ID>  (1) 
DB13437

>  <COMMON_NAME>  (1) 
Medazepam

>  <CAS_NUMBER>  (1) 
2898-12-6

>  <UNII>  (1) 
P0J3387W3S

>  <SYNONYMS>  (1) 
Medazepam

$$$$
