DZG
     RDKit          2D

 30 33  0  0  0  0  0  0  0  0999 V2000
   -4.6664    2.9675    0.0000 C   0  0  0  0  0  0  0  0  0  0  0  0
   -4.6664    2.1425    0.0000 O   0  0  0  0  0  0  0  0  0  0  0  0
   -3.9519    1.7300    0.0000 C   0  0  0  0  0  0  0  0  0  0  0  0
   -3.9519    0.9050    0.0000 C   0  0  0  0  0  0  0  0  0  0  0  0
   -3.2374    0.4925    0.0000 C   0  0  0  0  0  0  0  0  0  0  0  0
   -3.2374    2.1425    0.0000 C   0  0  0  0  0  0  0  0  0  0  0  0
   -2.5230    1.7300    0.0000 C   0  0  0  0  0  0  0  0  0  0  0  0
   -2.5230    0.9050    0.0000 C   0  0  0  0  0  0  0  0  0  0  0  0
   -1.8085    0.4925    0.0000 S   0  0  0  0  0  0  0  0  0  0  0  0
   -1.3960    1.2069    0.0000 O   0  0  0  0  0  0  0  0  0  0  0  0
   -2.2210   -0.2220    0.0000 O   0  0  0  0  0  0  0  0  0  0  0  0
   -1.0940    0.0800    0.0000 N   0  0  0  0  0  0  0  0  0  0  0  0
   -0.3795    0.4925    0.0000 C   0  0  0  0  0  0  0  0  0  0  0  0
    0.3349    0.0800    0.0000 C   0  0  0  0  0  0  0  0  0  0  0  0
   -1.0940   -0.7450    0.0000 C   0  0  0  0  0  0  0  0  0  0  0  0
   -0.3795   -1.1575    0.0000 C   0  0  0  0  0  0  0  0  0  0  0  0
    0.3349   -0.7450    0.0000 N   0  0  0  0  0  0  0  0  0  0  0  0
    1.0494   -1.1575    0.0000 S   0  0  0  0  0  0  0  0  0  0  0  0
    0.6369   -1.8720    0.0000 O   0  0  0  0  0  0  0  0  0  0  0  0
    1.4619   -0.4431    0.0000 O   0  0  0  0  0  0  0  0  0  0  0  0
    1.7639   -1.5700    0.0000 C   0  0  0  0  0  0  0  0  0  0  0  0
    2.4783   -1.1575    0.0000 C   0  0  0  0  0  0  0  0  0  0  0  0
    3.1928   -1.5700    0.0000 C   0  0  0  0  0  0  0  0  0  0  0  0
    3.9073   -1.1575    0.0000 O   0  0  0  0  0  0  0  0  0  0  0  0
    4.6218   -1.5700    0.0000 C   0  0  0  0  0  0  0  0  0  0  0  0
    4.6218   -2.3950    0.0000 C   0  0  0  0  0  0  0  0  0  0  0  0
    3.9073   -2.8075    0.0000 O   0  0  0  0  0  0  0  0  0  0  0  0
    3.1928   -2.3950    0.0000 C   0  0  0  0  0  0  0  0  0  0  0  0
    2.4783   -2.8075    0.0000 C   0  0  0  0  0  0  0  0  0  0  0  0
    1.7639   -2.3950    0.0000 C   0  0  0  0  0  0  0  0  0  0  0  0
  2  1  1  0
  2  3  1  0
  3  6  2  0
  4  3  1  0
  4  5  2  0
  5  8  1  0
  6  7  1  0
  8  7  2  0
  8  9  1  0
  9 12  1  0
  9 11  2  0
 10  9  2  0
 12 13  1  0
 13 14  1  0
 15 12  1  0
 15 16  1  0
 16 17  1  0
 17 14  1  0
 17 18  1  0
 18 19  2  0
 18 21  1  0
 20 18  2  0
 21 22  2  0
 22 23  1  0
 23 24  1  0
 24 25  1  0
 26 25  1  0
 27 26  1  0
 28 23  2  0
 28 27  1  0
 29 28  1  0
 30 21  1  0
 30 29  2  0
M  END
>  <DRUGBANK_ID>  (1) 
DB07697

>  <COMMON_NAME>  (1) 
1-(2,3-dihydro-1,4-benzodioxin-6-ylsulfonyl)-4-[(4-methoxyphenyl)sulfonyl]piperazine

$$$$
