
     RDKit          2D

 34 36  0  0  1  0  0  0  0  0999 V2000
   -1.4289   -6.3789    0.0000 C   0  0  0  0  0  0  0  0  0  0  0  0
   -1.0164   -5.6645    0.0000 O   0  0  0  0  0  0  0  0  0  0  0  0
   -1.4289   -4.9500    0.0000 C   0  0  0  0  0  0  0  0  0  0  0  0
   -2.2539   -4.9500    0.0000 O   0  0  0  0  0  0  0  0  0  0  0  0
   -1.0164   -4.2355    0.0000 C   0  0  0  0  0  0  0  0  0  0  0  0
   -1.4289   -3.5211    0.0000 C   0  0  0  0  0  0  0  0  0  0  0  0
   -2.2539   -3.5211    0.0000 C   0  0  0  0  0  0  0  0  0  0  0  0
   -2.6664   -4.2355    0.0000 C   0  0  0  0  0  0  0  0  0  0  0  0
   -3.4914   -4.2355    0.0000 C   0  0  0  0  0  0  0  0  0  0  0  0
   -3.9039   -3.5211    0.0000 C   0  0  0  0  0  0  0  0  0  0  0  0
   -3.4914   -2.8066    0.0000 C   0  0  0  0  0  0  0  0  0  0  0  0
   -2.6664   -2.8066    0.0000 C   0  0  0  0  0  0  0  0  0  0  0  0
   -3.9039   -2.0921    0.0000 C   0  0  0  0  0  0  0  0  0  0  0  0
   -4.7289   -2.0921    0.0000 N   0  0  0  0  0  0  0  0  0  0  0  0
   -3.4914   -1.3776    0.0000 N   0  0  0  0  0  0  0  0  0  0  0  0
   -0.1914   -4.2355    0.0000 C   0  0  0  0  0  0  0  0  0  0  0  0
    0.2211   -3.5211    0.0000 C   0  0  0  0  0  0  0  0  0  0  0  0
    0.2211   -4.9500    0.0000 N   0  0  0  0  0  0  0  0  0  0  0  0
    1.0461   -4.9500    0.0000 C   0  0  0  0  0  0  0  0  0  0  0  0
    1.4586   -5.6645    0.0000 O   0  0  0  0  0  0  0  0  0  0  0  0
    1.4586   -4.2355    0.0000 C   0  0  0  0  0  0  0  0  0  0  0  0
    1.0461   -3.5211    0.0000 C   0  0  0  0  0  0  0  0  0  0  0  0
    1.4586   -2.8066    0.0000 C   0  0  0  0  0  0  0  0  0  0  0  0
    2.2836   -2.8066    0.0000 C   0  0  0  0  0  0  0  0  0  0  0  0
    2.6961   -3.5211    0.0000 C   0  0  0  0  0  0  0  0  0  0  0  0
    2.2836   -4.2355    0.0000 C   0  0  0  0  0  0  0  0  0  0  0  0
    2.6961   -2.0921    0.0000 C   0  0  0  0  0  0  0  0  0  0  0  0
    2.2836   -1.3776    0.0000 C   0  0  0  0  0  0  0  0  0  0  0  0
    2.6961   -0.6632    0.0000 C   0  0  0  0  0  0  0  0  0  0  0  0
    3.5211   -0.6632    0.0000 C   0  0  0  0  0  0  0  0  0  0  0  0
    3.9336   -1.3776    0.0000 C   0  0  0  0  0  0  0  0  0  0  0  0
    4.7586   -1.3776    0.0000 C   0  0  0  0  0  0  0  0  0  0  0  0
    5.1711   -0.6632    0.0000 N   0  0  0  0  0  0  0  0  0  0  0  0
    3.5211   -2.0921    0.0000 C   0  0  0  0  0  0  0  0  0  0  0  0
  1  2  1  0
  2  3  1  0
  3  4  2  0
  3  5  1  0
  5  6  1  6
  5 16  1  0
  6  7  1  0
  7  8  2  0
  7 12  1  0
  8  9  1  0
  9 10  2  0
 10 11  1  0
 11 12  2  0
 11 13  1  0
 13 14  1  0
 13 15  2  0
 16 17  1  1
 16 18  1  0
 18 19  1  0
 19 20  2  0
 19 21  1  0
 21 22  2  0
 21 26  1  0
 22 23  1  0
 23 24  2  0
 24 25  1  0
 24 27  1  0
 25 26  2  0
 27 28  2  0
 27 34  1  0
 28 29  1  0
 29 30  2  0
 30 31  1  0
 31 32  1  0
 31 34  2  0
 32 33  1  0
M  END
>  <DRUGBANK_ID>  (1) 
DB04424

>  <SECONDARY_ACCESSION_NUMBERS>  (1) 
EXPT02814

>  <COMMON_NAME>  (1) 
RPR128515

$$$$
