
     RDKit          2D

 31 35  0  0  1  0  0  0  0  0999 V2000
   -2.3751   -1.6589    0.0000 C   0  0  0  0  0  0  0  0  0  0  0  0
   -2.3751   -2.4886    0.0000 C   0  0  0  0  0  0  0  0  0  0  0  0
   -3.0777   -2.9009    0.0000 C   0  0  0  0  0  0  0  0  0  0  0  0
   -3.7940   -2.4886    0.0000 C   0  0  0  0  0  0  0  0  0  0  0  0
   -3.7940   -1.6589    0.0000 C   0  0  0  0  0  0  0  0  0  0  0  0
   -3.0777   -1.2511    0.0000 C   0  0  0  0  0  0  0  0  0  0  0  0
   -4.5147   -2.9009    0.0000 O   0  0  0  0  0  0  0  0  0  0  0  0
   -1.6544   -2.9009    0.0000 C   0  0  0  0  0  0  0  0  0  0  0  0
   -0.9337   -2.4886    0.0000 C   0  0  0  0  0  0  0  0  0  0  0  0
   -0.9337   -1.6589    0.0000 C   0  0  0  0  0  0  0  0  0  0  0  0
   -0.2311   -1.2511    0.0000 C   0  0  0  0  0  0  0  0  0  0  0  0
    0.5576   -1.5004    0.0000 C   0  0  0  0  0  0  0  0  0  0  0  0
    1.0425   -0.8339    0.0000 C   0  0  0  0  0  0  0  0  0  0  0  0
    0.5576   -0.1723    0.0000 C   0  0  0  0  0  0  0  0  0  0  0  0
   -0.2311   -0.4260    0.0000 C   0  0  0  0  0  0  0  0  0  0  0  0
   -0.9337   -0.0136    0.0000 C   0  0  0  0  0  0  0  0  0  0  0  0
   -1.6544   -0.4260    0.0000 C   0  0  0  0  0  0  0  0  0  0  0  0
   -1.6544   -1.2511    0.0000 C   0  0  0  0  0  0  0  0  0  0  0  0
   -0.2311    0.3534    0.0000 C   0  0  0  0  0  0  0  0  0  0  0  0
    0.8157    0.6118    0.0000 O   0  0  0  0  0  0  0  0  0  0  0  0
    1.5865    0.6118    0.0000 C   0  0  0  0  0  0  0  0  0  0  0  0
    1.9536    0.0679    0.0000 O   0  0  0  0  0  0  0  0  0  0  0  0
    1.9536    1.3054    0.0000 C   0  0  0  0  0  0  0  0  0  0  0  0
    2.5747    1.3054    0.0000 C   0  0  0  0  0  0  0  0  0  0  0  0
    3.0959    1.6591    0.0000 C   0  0  0  0  0  0  0  0  0  0  0  0
    3.0959    2.4929    0.0000 C   0  0  0  0  0  0  0  0  0  0  0  0
    3.8121    2.9009    0.0000 C   0  0  0  0  0  0  0  0  0  0  0  0
    4.5147    2.4929    0.0000 C   0  0  0  0  0  0  0  0  0  0  0  0
    4.5147    1.6591    0.0000 C   0  0  0  0  0  0  0  0  0  0  0  0
    3.8121    1.2510    0.0000 C   0  0  0  0  0  0  0  0  0  0  0  0
   -2.3751   -0.8339    0.0000 C   0  0  0  0  0  0  0  0  0  0  0  0
  1 31  1  1
  2  1  1  0
  3  2  2  0
  3  4  1  0
  4  5  1  0
  5  6  1  0
  6  1  1  0
  7  4  2  0
  8  2  1  0
  9  8  1  0
 10  9  1  6
 10 18  1  0
 11 10  1  0
 11 12  1  1
 13 12  1  0
 14 13  1  0
 14 15  1  0
 14 20  1  1
 15 16  1  0
 15 19  1  1
 15 11  1  0
 16 17  1  0
 18 17  1  1
 18  1  1  0
 21 20  1  0
 22 21  2  0
 23 21  1  0
 24 23  1  0
 25 24  1  0
 26 25  2  0
 27 26  1  0
 28 27  2  0
 28 29  1  0
 29 30  2  0
 30 25  1  0
M  END
>  <DRUGBANK_ID>  (1) 
DB16003

>  <COMMON_NAME>  (1) 
Testosterone phenylpropionate

>  <CAS_NUMBER>  (1) 
1255-49-8

>  <UNII>  (1) 
8GN84GWX51

$$$$
