NS3
     RDKit          2D

 28 31  0  0  0  0  0  0  0  0999 V2000
   -3.0406    2.3116    0.0000 C   0  0  0  0  0  0  0  0  0  0  0  0
   -3.8476    2.4832    0.0000 C   0  0  0  0  0  0  0  0  0  0  0  0
   -4.2601    1.7686    0.0000 C   0  0  0  0  0  0  0  0  0  0  0  0
   -3.7080    1.1555    0.0000 C   0  0  0  0  0  0  0  0  0  0  0  0
   -2.9543    1.4911    0.0000 C   0  0  0  0  0  0  0  0  0  0  0  0
   -2.2398    1.0786    0.0000 C   0  0  0  0  0  0  0  0  0  0  0  0
   -1.5253    1.4911    0.0000 N   0  0  0  0  0  0  0  0  0  0  0  0
   -2.2398    0.2535    0.0000 N   0  0  0  0  0  0  0  0  0  0  0  0
   -1.5253   -0.1590    0.0000 S   0  0  0  0  0  0  0  0  0  0  0  0
   -0.9950   -0.7911    0.0000 O   0  0  0  0  0  0  0  0  0  0  0  0
   -2.0556   -0.7911    0.0000 O   0  0  0  0  0  0  0  0  0  0  0  0
   -0.8108    0.2535    0.0000 C   0  0  0  0  0  0  0  0  0  0  0  0
   -0.0962   -0.1590    0.0000 C   0  0  0  0  0  0  0  0  0  0  0  0
   -0.8108    1.0786    0.0000 C   0  0  0  0  0  0  0  0  0  0  0  0
   -0.0962    1.4911    0.0000 C   0  0  0  0  0  0  0  0  0  0  0  0
    0.6182    1.0786    0.0000 C   0  0  0  0  0  0  0  0  0  0  0  0
    1.3328    1.4911    0.0000 C   0  0  0  0  0  0  0  0  0  0  0  0
    0.6182    0.2535    0.0000 C   0  0  0  0  0  0  0  0  0  0  0  0
    1.3328   -0.1590    0.0000 S   0  0  0  0  0  0  0  0  0  0  0  0
    0.9203   -0.8736    0.0000 O   0  0  0  0  0  0  0  0  0  0  0  0
    1.7453    0.5554    0.0000 O   0  0  0  0  0  0  0  0  0  0  0  0
    2.0473   -0.5715    0.0000 N   0  0  0  0  0  0  0  0  0  0  0  0
    2.0473   -1.3966    0.0000 C   0  0  0  0  0  0  0  0  0  0  0  0
    2.7618   -1.8091    0.0000 C   0  0  0  0  0  0  0  0  0  0  0  0
    3.4763   -1.3966    0.0000 N   0  0  0  0  0  0  0  0  0  0  0  0
    4.1909   -1.8091    0.0000 C   0  0  0  0  0  0  0  0  0  0  0  0
    3.4763   -0.5715    0.0000 C   0  0  0  0  0  0  0  0  0  0  0  0
    2.7618   -0.1590    0.0000 C   0  0  0  0  0  0  0  0  0  0  0  0
  1  5  1  0
  1  2  1  0
  3  2  1  0
  3  4  1  0
  5  4  1  0
  6  5  1  1
  6  8  1  0
  7  6  1  0
  9  8  1  0
  9 11  2  0
 10  9  2  0
 12  9  1  0
 12 14  2  0
 13 12  1  0
 14  7  1  0
 15 14  1  0
 16 15  2  0
 17 16  1  0
 18 13  2  0
 18 16  1  0
 19 18  1  0
 19 20  2  0
 21 19  2  0
 22 19  1  0
 23 22  1  0
 24 23  1  0
 25 24  1  0
 25 27  1  0
 26 25  1  0
 27 28  1  0
 28 22  1  0
M  END
>  <DRUGBANK_ID>  (1) 
DB08303

>  <COMMON_NAME>  (1) 
(3S)-3-cyclopentyl-6-methyl-7-[(4-methylpiperazin-1-yl)sulfonyl]-3,4-dihydro-2H-1,2,4-benzothiadiazine 1,1-dioxide

$$$$
