
     RDKit          2D

 36 39  0  0  0  0  0  0  0  0999 V2000
   -2.8642    1.6555    0.0000 C   0  0  0  0  0  0  0  0  0  0  0  0
   -3.5860    1.2431    0.0000 C   0  0  0  0  0  0  0  0  0  0  0  0
   -3.5860    0.4181    0.0000 C   0  0  0  0  0  0  0  0  0  0  0  0
   -2.8642    0.0057    0.0000 C   0  0  0  0  0  0  0  0  0  0  0  0
   -2.1424    0.4181    0.0000 C   0  0  0  0  0  0  0  0  0  0  0  0
   -2.1424    1.2431    0.0000 C   0  0  0  0  0  0  0  0  0  0  0  0
   -2.8642    2.4804    0.0000 F   0  0  0  0  0  0  0  0  0  0  0  0
   -2.8642   -0.8305    0.0000 C   0  0  0  0  0  0  0  0  0  0  0  0
   -3.5860   -1.2431    0.0000 C   0  0  0  0  0  0  0  0  0  0  0  0
   -4.2964   -0.8305    0.0000 C   0  0  0  0  0  0  0  0  0  0  0  0
   -5.0066   -1.2431    0.0000 C   0  0  0  0  0  0  0  0  0  0  0  0
   -5.0066   -2.0679    0.0000 C   0  0  0  0  0  0  0  0  0  0  0  0
   -4.2964   -2.4804    0.0000 C   0  0  0  0  0  0  0  0  0  0  0  0
   -3.5860   -2.0679    0.0000 C   0  0  0  0  0  0  0  0  0  0  0  0
   -5.7284   -2.4804    0.0000 F   0  0  0  0  0  0  0  0  0  0  0  0
   -2.1424   -1.2431    0.0000 C   0  0  0  0  0  0  0  0  0  0  0  0
   -1.4321   -0.8305    0.0000 C   0  0  0  0  0  0  0  0  0  0  0  0
   -0.7103   -1.2431    0.0000 C   0  0  0  0  0  0  0  0  0  0  0  0
    0.7102    0.4181    0.0000 C   0  0  0  0  0  0  0  0  0  0  0  0
    0.0000    0.0057    0.0000 C   0  0  0  0  0  0  0  0  0  0  0  0
    0.7102   -1.2431    0.0000 C   0  0  0  0  0  0  0  0  0  0  0  0
    1.4320   -0.8305    0.0000 C   0  0  0  0  0  0  0  0  0  0  0  0
    0.0000   -0.8305    0.0000 N   0  0  0  0  0  0  0  0  0  0  0  0
    1.4320    0.0057    0.0000 N   0  0  0  0  0  0  0  0  0  0  0  0
    2.1538    0.4181    0.0000 C   0  0  0  0  0  0  0  0  0  0  0  0
    2.8642    0.0057    0.0000 C   0  0  0  0  0  0  0  0  0  0  0  0
    2.8642   -0.8305    0.0000 O   0  0  0  0  0  0  0  0  0  0  0  0
    3.5860    0.4181    0.0000 N   0  0  0  0  0  0  0  0  0  0  0  0
    4.2963    0.0057    0.0000 C   0  0  0  0  0  0  0  0  0  0  0  0
    5.0181    0.4181    0.0000 C   0  0  0  0  0  0  0  0  0  0  0  0
    4.2963   -0.8305    0.0000 C   0  0  0  0  0  0  0  0  0  0  0  0
    5.0181   -1.2431    0.0000 C   0  0  0  0  0  0  0  0  0  0  0  0
    5.7284   -0.8305    0.0000 C   0  0  0  0  0  0  0  0  0  0  0  0
    5.7284    0.0057    0.0000 C   0  0  0  0  0  0  0  0  0  0  0  0
    5.0181    1.2431    0.0000 C   0  0  0  0  0  0  0  0  0  0  0  0
    3.5860   -1.2431    0.0000 C   0  0  0  0  0  0  0  0  0  0  0  0
  1  2  2  0
  1  6  1  0
  1  7  1  0
  2  3  1  0
  3  4  2  0
  4  5  1  0
  4  8  1  0
  5  6  2  0
  8 16  1  0
  8  9  1  0
  9 14  1  0
  9 10  2  0
 10 11  1  0
 11 12  2  0
 12 13  1  0
 12 15  1  0
 13 14  2  0
 16 17  1  0
 17 18  1  0
 18 23  1  0
 19 20  1  0
 19 24  1  0
 20 23  1  0
 21 23  1  0
 21 22  1  0
 22 24  1  0
 24 25  1  0
 25 26  1  0
 26 28  1  0
 26 27  2  0
 28 29  1  0
 29 30  2  0
 29 31  1  0
 30 34  1  0
 30 35  1  0
 31 32  2  0
 31 36  1  0
 32 33  1  0
 33 34  2  0
M  END
>  <DRUGBANK_ID>  (1) 
DB13766

>  <COMMON_NAME>  (1) 
Lidoflazine

>  <CAS_NUMBER>  (1) 
3416-26-0

>  <UNII>  (1) 
J4ZHN3HBTE

>  <SYNONYMS>  (1) 
Lidoflazina; Lidoflazine; Lidoflazinum

$$$$
