4PI
     RDKit          2D

 22 24  0  0  0  0  0  0  0  0999 V2000
   -2.8194    0.7317    0.0000 C   0  0  0  0  0  0  0  0  0  0  0  0
   -3.5339    0.3192    0.0000 C   0  0  0  0  0  0  0  0  0  0  0  0
   -3.5339   -0.5058    0.0000 C   0  0  0  0  0  0  0  0  0  0  0  0
   -2.1049   -2.9808    0.0000 C   0  0  0  0  0  0  0  0  0  0  0  0
   -1.3904   -3.3933    0.0000 C   0  0  0  0  0  0  0  0  0  0  0  0
   -0.6760   -2.9808    0.0000 C   0  0  0  0  0  0  0  0  0  0  0  0
   -0.6760   -2.1558    0.0000 C   0  0  0  0  0  0  0  0  0  0  0  0
   -1.3904   -1.7433    0.0000 C   0  0  0  0  0  0  0  0  0  0  0  0
    0.7530   -2.9808    0.0000 C   0  0  0  0  0  0  0  0  0  0  0  0
    1.4674   -3.3933    0.0000 C   0  0  0  0  0  0  0  0  0  0  0  0
    2.1819   -2.1558    0.0000 C   0  0  0  0  0  0  0  0  0  0  0  0
   -2.8194    1.5567    0.0000 C   0  0  0  0  0  0  0  0  0  0  0  0
   -2.8194   -1.7433    0.0000 C   0  0  0  0  0  0  0  0  0  0  0  0
   -2.1049   -2.1558    0.0000 N   0  0  0  0  0  0  0  0  0  0  0  0
    2.1819   -2.9808    0.0000 C   0  0  0  0  0  0  0  0  0  0  0  0
    1.4674   -1.7433    0.0000 C   0  0  0  0  0  0  0  0  0  0  0  0
    0.7530   -2.1558    0.0000 C   0  0  0  0  0  0  0  0  0  0  0  0
   -3.5339   -2.1558    0.0000 O   0  0  0  0  0  0  0  0  0  0  0  0
    0.0385   -3.3933    0.0000 C   0  0  0  0  0  0  0  0  0  0  0  0
   -2.8194   -0.9183    0.0000 C   0  0  0  0  0  0  0  0  0  0  0  0
   -2.1049   -0.5058    0.0000 C   0  0  0  0  0  0  0  0  0  0  0  0
   -2.1049    0.3192    0.0000 C   0  0  0  0  0  0  0  0  0  0  0  0
  1 12  1  0
  1 22  2  0
  1  2  1  0
  2  3  2  0
  3 20  1  0
  4 14  1  0
  4  5  1  0
  5  6  1  0
  6  7  1  0
  6 19  1  0
  7  8  1  0
  8 14  1  0
  9 17  1  0
  9 19  1  0
  9 10  2  0
 10 15  1  0
 11 16  1  0
 11 15  2  0
 13 18  2  0
 13 20  1  0
 13 14  1  0
 16 17  2  0
 20 21  2  0
 21 22  1  0
M  END
>  <DRUGBANK_ID>  (1) 
DB07123

>  <COMMON_NAME>  (1) 
N-(4-METHYLBENZOYL)-4-BENZYLPIPERIDINE

$$$$
