
     RDKit          2D

 16 16  0  0  0  0  0  0  0  0999 V2000
    0.0000   -0.8250    0.0000 C   0  0  0  0  0  0  0  0  0  0  0  0
   -0.7144   -0.4124    0.0000 C   0  0  0  0  0  0  0  0  0  0  0  0
   -0.7144    0.4125    0.0000 C   0  0  0  0  0  0  0  0  0  0  0  0
    0.0000    0.8250    0.0000 C   0  0  0  0  0  0  0  0  0  0  0  0
    0.7144    0.4125    0.0000 C   0  0  0  0  0  0  0  0  0  0  0  0
    0.7144   -0.4124    0.0000 C   0  0  0  0  0  0  0  0  0  0  0  0
   -1.4289   -0.8250    0.0000 C   0  0  0  0  0  0  0  0  0  0  0  0
   -2.1434   -0.4124    0.0000 C   0  0  0  0  0  0  0  0  0  0  0  0
   -1.4289   -1.6500    0.0000 C   0  0  0  0  0  0  0  0  0  0  0  0
   -2.1400   -1.2319    0.0000 C   0  0  0  0  0  0  0  0  0  0  0  0
   -1.4288    0.8249    0.0000 O   0  0  0  0  0  0  0  0  0  0  0  0
    1.4289   -0.8249    0.0000 O   0  0  0  0  0  0  0  0  0  0  0  0
    1.4289    0.8250    0.0000 C   0  0  0  0  0  0  0  0  0  0  0  0
    2.1434    0.4124    0.0000 C   0  0  0  0  0  0  0  0  0  0  0  0
    1.4289    1.6500    0.0000 C   0  0  0  0  0  0  0  0  0  0  0  0
    2.1400    1.2319    0.0000 C   0  0  0  0  0  0  0  0  0  0  0  0
  2  1  2  0
  3  2  1  0
  3 11  1  0
  4  3  2  0
  5  4  1  0
  5 13  1  0
  6  1  1  0
  6  5  2  0
  6 12  1  0
  7  2  1  0
  7  8  1  0
  7  9  1  0
  7 10  1  0
 13 14  1  0
 13 15  1  0
 13 16  1  0
M  END
>  <DRUGBANK_ID>  (1) 
DB04638

>  <COMMON_NAME>  (1) 
2,5-di-tert-butylhydroquinone

>  <CAS_NUMBER>  (1) 
88-58-4

>  <UNII>  (1) 
26XK13B61B

>  <SYNONYMS>  (1) 
2,5-di-tert-butylbenzene-1,4-diol

$$$$
