
     RDKit          2D

 13 13  0  0  0  0  0  0  0  0999 V2000
    1.4289   -0.0000    0.0000 C   0  0  0  0  0  0  0  0  0  0  0  0
    0.0000   -0.0000    0.0000 C   0  0  0  0  0  0  0  0  0  0  0  0
    1.4289    0.8250    0.0000 C   0  0  0  0  0  0  0  0  0  0  0  0
    0.0000    0.8250    0.0000 C   0  0  0  0  0  0  0  0  0  0  0  0
    0.7145   -0.4125    0.0000 C   0  0  0  0  0  0  0  0  0  0  0  0
    0.7145    1.2375    0.0000 C   0  0  0  0  0  0  0  0  0  0  0  0
    0.7145   -1.2375    0.0000 As  0  0  0  0  0  5  0  0  0  0  0  0
    0.7145    2.0625    0.0000 N   0  0  0  0  0  0  0  0  0  0  0  0
    0.7145   -2.0625    0.0000 O   0  0  0  0  0  0  0  0  0  0  0  0
    1.5395   -1.2375    0.0000 O   0  0  0  0  0  0  0  0  0  0  0  0
   -0.1105   -1.2375    0.0000 O   0  0  0  0  0  0  0  0  0  0  0  0
   -0.0000    2.4750    0.0000 O   0  0  0  0  0  0  0  0  0  0  0  0
    1.4289    2.4750    0.0000 O   0  0  0  0  0  0  0  0  0  0  0  0
  3  1  2  0
  4  2  1  0
  5  1  1  0
  5  2  2  0
  6  3  1  0
  6  4  2  0
  7  5  1  0
  8  6  1  0
  9  7  1  0
 10  7  1  0
 11  7  2  0
 12  8  1  0
 13  8  2  0
M  CHG  2   8   1  12  -1
M  END
>  <DRUGBANK_ID>  (1) 
DB11437

>  <COMMON_NAME>  (1) 
Nitarsone

>  <CAS_NUMBER>  (1) 
98-72-6

>  <UNII>  (1) 
JP2EN8WORU

>  <SYNONYMS>  (1) 
(p-nitrophenyl)arsonic acid; 4-nitrobenzenearsonic acid; 4-nitrophenylarsonic acid; Nitarson; Nitarsone; Nitarsonum; p-nitrobenzenearsonic acid; p-nitrophenylarsonic acid

$$$$
