689
     RDKit          2D

 21 23  0  0  0  0  0  0  0  0999 V2000
    1.1084    1.3350    0.0000 C   0  0  0  0  0  0  0  0  0  0  0  0
    0.7105    0.5492    0.0000 C   0  0  0  0  0  0  0  0  0  0  0  0
    0.1607    0.1132    0.0000 C   0  0  0  0  0  0  0  0  0  0  0  0
   -0.5933   -0.0525    0.0000 C   0  0  0  0  0  0  0  0  0  0  0  0
   -0.8768    0.8605    0.0000 C   0  0  0  0  0  0  0  0  0  0  0  0
   -0.8852   -0.6894    0.0000 C   0  0  0  0  0  0  0  0  0  0  0  0
   -0.3807   -0.2651    0.0000 C   0  0  0  0  0  0  0  0  0  0  0  0
   -0.0998    0.6714    0.0000 C   0  0  0  0  0  0  0  0  0  0  0  0
    0.5793   -0.2544    0.0000 C   0  0  0  0  0  0  0  0  0  0  0  0
    1.4811    0.0719    0.0000 C   0  0  0  0  0  0  0  0  0  0  0  0
    2.2486    0.0923    0.0000 O   0  0  0  0  0  0  0  0  0  0  0  0
    0.6263   -1.2413    0.0000 C   0  0  0  0  0  0  0  0  0  0  0  0
   -0.1900   -1.4208    0.0000 O   0  0  0  0  0  0  0  0  0  0  0  0
    0.2221   -0.8399    0.0000 C   0  0  0  0  0  0  0  0  0  0  0  0
   -0.5716   -0.6148    0.0000 C   0  0  0  0  0  0  0  0  0  0  0  0
   -1.1633   -1.1896    0.0000 C   0  0  0  0  0  0  0  0  0  0  0  0
   -1.9570   -0.9645    0.0000 C   0  0  0  0  0  0  0  0  0  0  0  0
   -2.1590   -0.1646    0.0000 C   0  0  0  0  0  0  0  0  0  0  0  0
   -2.9527    0.0605    0.0000 O   0  0  0  0  0  0  0  0  0  0  0  0
   -1.5672    0.4102    0.0000 C   0  0  0  0  0  0  0  0  0  0  0  0
   -0.7735    0.1851    0.0000 C   0  0  0  0  0  0  0  0  0  0  0  0
  2  1  1  6
  2  3  1  0
  2  9  1  0
  3  4  1  6
  3 14  1  0
  4  5  1  0
  4  6  2  0
  6  7  1  0
  7  8  1  6
  7  9  1  0
  9 10  1  6
  9 12  1  0
 10 11  1  0
 12 13  1  0
 13 14  1  0
 14 15  1  1
 15 16  2  0
 15 21  1  0
 16 17  1  0
 17 18  2  0
 18 19  1  0
 18 20  1  0
 20 21  2  0
M  END
>  <DRUGBANK_ID>  (1) 
DB07195

>  <COMMON_NAME>  (1) 
4-[(1S,2S,5S)-5-(HYDROXYMETHYL)-6,8,9-TRIMETHYL-3-OXABICYCLO[3.3.1]NON-7-EN-2-YL]PHENOL

$$$$
