
     RDKit          2D

 37 40  0  0  0  0  0  0  0  0999 V2000
   -5.4935   -4.7333    0.0000 C   0  0  0  0  0  0  0  0  0  0  0  0
    5.4935    0.5198    0.0000 C   0  0  0  0  0  0  0  0  0  0  0  0
    4.5374   -0.5420    0.0000 C   0  0  0  0  0  0  0  0  0  0  0  0
   -0.4245    4.8196    0.0000 C   0  0  0  0  0  0  0  0  0  0  0  0
   -1.1390    3.5821    0.0000 C   0  0  0  0  0  0  0  0  0  0  0  0
   -4.6730   -4.8196    0.0000 C   0  0  0  0  0  0  0  0  0  0  0  0
   -2.8827   -3.5709    0.0000 C   0  0  0  0  0  0  0  0  0  0  0  0
   -2.0622   -3.6571    0.0000 C   0  0  0  0  0  0  0  0  0  0  0  0
   -0.7568   -3.0759    0.0000 C   0  0  0  0  0  0  0  0  0  0  0  0
   -1.9129   -2.2360    0.0000 C   0  0  0  0  0  0  0  0  0  0  0  0
   -0.2719   -2.4085    0.0000 C   0  0  0  0  0  0  0  0  0  0  0  0
   -1.4279   -1.5686    0.0000 C   0  0  0  0  0  0  0  0  0  0  0  0
    2.3550   -0.4999    0.0000 C   0  0  0  0  0  0  0  0  0  0  0  0
    1.9135    0.8590    0.0000 C   0  0  0  0  0  0  0  0  0  0  0  0
    1.0043    1.5196    0.0000 C   0  0  0  0  0  0  0  0  0  0  0  0
   -0.4245    1.5196    0.0000 C   0  0  0  0  0  0  0  0  0  0  0  0
    3.1396   -0.2449    0.0000 C   0  0  0  0  0  0  0  0  0  0  0  0
    2.6981    1.1140    0.0000 C   0  0  0  0  0  0  0  0  0  0  0  0
    1.0043    2.3446    0.0000 C   0  0  0  0  0  0  0  0  0  0  0  0
   -0.4245    2.3446    0.0000 C   0  0  0  0  0  0  0  0  0  0  0  0
   -3.3676   -4.2384    0.0000 C   0  0  0  0  0  0  0  0  0  0  0  0
    4.7089    0.2649    0.0000 C   0  0  0  0  0  0  0  0  0  0  0  0
   -0.4245    3.9946    0.0000 C   0  0  0  0  0  0  0  0  0  0  0  0
   -1.5773   -2.9897    0.0000 C   0  0  0  0  0  0  0  0  0  0  0  0
    1.7419    0.0521    0.0000 C   0  0  0  0  0  0  0  0  0  0  0  0
    0.2899    1.1071    0.0000 C   0  0  0  0  0  0  0  0  0  0  0  0
   -0.6075   -1.6548    0.0000 C   0  0  0  0  0  0  0  0  0  0  0  0
    3.3112    0.5619    0.0000 C   0  0  0  0  0  0  0  0  0  0  0  0
    0.2899    2.7571    0.0000 C   0  0  0  0  0  0  0  0  0  0  0  0
    0.9573   -0.2028    0.0000 C   0  0  0  0  0  0  0  0  0  0  0  0
    0.2899    0.2821    0.0000 C   0  0  0  0  0  0  0  0  0  0  0  0
   -0.1225   -0.9874    0.0000 C   0  0  0  0  0  0  0  0  0  0  0  0
    4.0958    0.8169    0.0000 N   0  0  0  0  0  0  0  0  0  0  0  0
    0.2899    3.5821    0.0000 N   0  0  0  0  0  0  0  0  0  0  0  0
    0.7024   -0.9874    0.0000 N   0  0  0  0  0  0  0  0  0  0  0  0
   -0.3775   -0.2028    0.0000 N   0  0  0  0  0  0  0  0  0  0  0  0
   -4.1881   -4.1521    0.0000 O   0  0  0  0  0  0  0  0  0  0  0  0
  6  1  1  0
  8  7  2  0
 11  9  2  0
 12 10  1  0
 17 13  2  0
 18 14  1  0
 19 15  2  0
 20 16  1  0
 21  7  1  0
 22  2  1  0
 22  3  1  0
 23  4  1  0
 23  5  1  0
 24  8  1  0
 24  9  1  0
 24 10  2  0
 25 13  1  0
 25 14  2  0
 26 15  1  0
 26 16  2  0
 27 11  1  0
 27 12  2  0
 28 17  1  0
 28 18  2  0
 29 19  1  0
 29 20  2  0
 30 25  1  0
 31 26  1  0
 31 30  2  0
 32 27  1  0
 33 22  1  0
 33 28  1  0
 34 23  1  0
 34 29  1  0
 35 30  1  0
 35 32  1  0
 36 31  1  0
 36 32  2  0
 37  6  1  0
 37 21  1  0
M  END
>  <DRUGBANK_ID>  (1) 
DB14069

>  <COMMON_NAME>  (1) 
ONT-093

>  <CAS_NUMBER>  (1) 
216227-54-2

>  <UNII>  (1) 
PK2WD2XC83

$$$$
