53U
     RDKit          2D

 26 28  0  0  0  0  0  0  0  0999 V2000
    2.1162   -0.7490    0.0000 C   0  0  0  0  0  0  0  0  0  0  0  0
    1.1601   -1.8109    0.0000 N   0  0  0  0  0  0  0  0  0  0  0  0
    1.3316   -1.0039    0.0000 C   0  0  0  0  0  0  0  0  0  0  0  0
    0.7185   -0.4519    0.0000 C   0  0  0  0  0  0  0  0  0  0  0  0
    0.8901    0.3551    0.0000 O   0  0  0  0  0  0  0  0  0  0  0  0
   -0.0661   -0.7068    0.0000 N   0  0  0  0  0  0  0  0  0  0  0  0
   -0.3210   -1.4914    0.0000 C   0  0  0  0  0  0  0  0  0  0  0  0
   -1.1460   -1.4914    0.0000 C   0  0  0  0  0  0  0  0  0  0  0  0
   -1.4010   -0.7068    0.0000 C   0  0  0  0  0  0  0  0  0  0  0  0
   -0.7335   -0.2219    0.0000 C   0  0  0  0  0  0  0  0  0  0  0  0
   -0.7335    0.6031    0.0000 C   0  0  0  0  0  0  0  0  0  0  0  0
   -1.4480    1.0156    0.0000 N   0  0  0  0  0  0  0  0  0  0  0  0
   -1.4480    1.8406    0.0000 C   0  0  0  0  0  0  0  0  0  0  0  0
   -2.1625    2.2531    0.0000 C   0  0  0  0  0  0  0  0  0  0  0  0
   -2.8769    1.8406    0.0000 C   0  0  0  0  0  0  0  0  0  0  0  0
   -3.5914    2.2531    0.0000 C   0  0  0  0  0  0  0  0  0  0  0  0
   -3.5914    3.0781    0.0000 C   0  0  0  0  0  0  0  0  0  0  0  0
   -2.8769    3.4906    0.0000 C   0  0  0  0  0  0  0  0  0  0  0  0
   -2.1625    3.0781    0.0000 C   0  0  0  0  0  0  0  0  0  0  0  0
   -0.0191    1.0156    0.0000 O   0  0  0  0  0  0  0  0  0  0  0  0
    2.7293   -1.3010    0.0000 C   0  0  0  0  0  0  0  0  0  0  0  0
    3.5140   -1.0461    0.0000 C   0  0  0  0  0  0  0  0  0  0  0  0
    4.1271   -1.5981    0.0000 C   0  0  0  0  0  0  0  0  0  0  0  0
    3.9555   -2.4051    0.0000 C   0  0  0  0  0  0  0  0  0  0  0  0
    3.1709   -2.6600    0.0000 C   0  0  0  0  0  0  0  0  0  0  0  0
    2.5578   -2.1080    0.0000 C   0  0  0  0  0  0  0  0  0  0  0  0
  1  3  1  0
  1 21  1  0
  3  2  1  1
  3  4  1  0
  4  5  2  0
  4  6  1  0
  6  7  1  0
  6 10  1  0
  7  8  1  0
  8  9  1  0
  9 10  1  0
 10 11  1  1
 11 12  1  0
 11 20  2  0
 12 13  1  0
 13 14  1  0
 14 15  2  0
 14 19  1  0
 15 16  1  0
 16 17  2  0
 17 18  1  0
 18 19  2  0
 21 22  2  0
 21 26  1  0
 22 23  1  0
 23 24  2  0
 24 25  1  0
 25 26  2  0
M  END
>  <DRUGBANK_ID>  (1) 
DB07143

>  <COMMON_NAME>  (1) 
D-phenylalanyl-N-benzyl-L-prolinamide

$$$$
