
     RDKit          2D

 28 30  0  0  0  0  0  0  0  0999 V2000
    2.0701   -2.7604    0.0000 C   0  0  0  0  0  0  0  0  0  0  0  0
    3.4990   -0.2854    0.0000 C   0  0  0  0  0  0  0  0  0  0  0  0
   -0.3984    0.7541    0.0000 C   0  0  0  0  0  0  0  0  0  0  0  0
   -5.5784   -2.1269    0.0000 C   0  0  0  0  0  0  0  0  0  0  0  0
   -5.1659   -2.8414    0.0000 C   0  0  0  0  0  0  0  0  0  0  0  0
    1.3556   -2.3479    0.0000 C   0  0  0  0  0  0  0  0  0  0  0  0
    2.7845    0.1271    0.0000 C   0  0  0  0  0  0  0  0  0  0  0  0
   -3.1034   -0.6979    0.0000 C   0  0  0  0  0  0  0  0  0  0  0  0
   -1.8659   -1.4124    0.0000 C   0  0  0  0  0  0  0  0  0  0  0  0
   -3.9284   -0.6979    0.0000 C   0  0  0  0  0  0  0  0  0  0  0  0
   -1.4534   -0.6979    0.0000 C   0  0  0  0  0  0  0  0  0  0  0  0
   -3.1034   -2.1269    0.0000 C   0  0  0  0  0  0  0  0  0  0  0  0
   -2.6909   -1.4124    0.0000 C   0  0  0  0  0  0  0  0  0  0  0  0
   -4.3409   -1.4124    0.0000 C   0  0  0  0  0  0  0  0  0  0  0  0
   -3.9284   -2.1269    0.0000 C   0  0  0  0  0  0  0  0  0  0  0  0
   -0.6284   -0.6979    0.0000 C   0  0  0  0  0  0  0  0  0  0  0  0
    0.6411   -0.2854    0.0000 C   0  0  0  0  0  0  0  0  0  0  0  0
    0.6411   -1.1104    0.0000 C   0  0  0  0  0  0  0  0  0  0  0  0
    1.3556    0.1271    0.0000 C   0  0  0  0  0  0  0  0  0  0  0  0
    2.0701   -1.1104    0.0000 C   0  0  0  0  0  0  0  0  0  0  0  0
   -0.1435   -1.3654    0.0000 N   0  0  0  0  0  0  0  0  0  0  0  0
   -0.1435   -0.0305    0.0000 N   0  0  0  0  0  0  0  0  0  0  0  0
    1.3556   -1.5229    0.0000 N   0  0  0  0  0  0  0  0  0  0  0  0
    2.0701   -0.2854    0.0000 N   0  0  0  0  0  0  0  0  0  0  0  0
    1.3556    0.9521    0.0000 O   0  0  0  0  0  0  0  0  0  0  0  0
    2.7845   -1.5229    0.0000 O   0  0  0  0  0  0  0  0  0  0  0  0
   -5.1659   -1.4124    0.0000 O   0  0  0  0  0  0  0  0  0  0  0  0
   -4.3409   -2.8414    0.0000 O   0  0  0  0  0  0  0  0  0  0  0  0
  6  1  1  0
  7  2  1  0
 10  8  2  0
 11  9  2  0
 13  8  1  0
 13  9  1  0
 13 12  2  0
 14 10  1  0
 15 12  1  0
 15 14  2  0
 16 11  1  0
 18 17  2  0
 19 17  1  0
 21 16  2  0
 21 18  1  0
 22  3  1  0
 22 16  1  0
 22 17  1  0
 23  6  1  0
 23 18  1  0
 23 20  1  0
 24  7  1  0
 24 19  1  0
 24 20  1  0
 25 19  2  0
 26 20  2  0
 27  4  1  0
 27 14  1  0
 28  5  1  0
 28 15  1  0
M  END
>  <DRUGBANK_ID>  (1) 
DB11757

>  <COMMON_NAME>  (1) 
Istradefylline

>  <CAS_NUMBER>  (1) 
155270-99-8

>  <UNII>  (1) 
2GZ0LIK7T4

>  <SYNONYMS>  (1) 
Istradefylline

$$$$
