693
     RDKit          2D

 34 37  0  0  0  0  0  0  0  0999 V2000
    3.6140    0.4249    0.0000 C   0  0  0  0  0  0  0  0  0  0  0  0
    3.6140   -0.4001    0.0000 C   0  0  0  0  0  0  0  0  0  0  0  0
    2.8995   -0.8126    0.0000 C   0  0  0  0  0  0  0  0  0  0  0  0
    2.1851   -0.4001    0.0000 C   0  0  0  0  0  0  0  0  0  0  0  0
    2.1851    0.4249    0.0000 C   0  0  0  0  0  0  0  0  0  0  0  0
    2.8995    0.8374    0.0000 C   0  0  0  0  0  0  0  0  0  0  0  0
    4.3285    0.8374    0.0000 C   0  0  0  0  0  0  0  0  0  0  0  0
    5.0429    0.4249    0.0000 N   0  0  0  0  0  0  0  0  0  0  0  0
    4.3285    1.6624    0.0000 N   0  0  0  0  0  0  0  0  0  0  0  0
    1.4004   -0.6551    0.0000 N   0  0  0  0  0  0  0  0  0  0  0  0
    1.4004    0.6798    0.0000 N   0  0  0  0  0  0  0  0  0  0  0  0
    0.9155    0.0124    0.0000 C   0  0  0  0  0  0  0  0  0  0  0  0
    0.0905    0.0124    0.0000 C   0  0  0  0  0  0  0  0  0  0  0  0
   -0.3220   -0.7021    0.0000 C   0  0  0  0  0  0  0  0  0  0  0  0
   -1.1470   -0.7021    0.0000 C   0  0  0  0  0  0  0  0  0  0  0  0
   -1.5595   -1.4166    0.0000 C   0  0  0  0  0  0  0  0  0  0  0  0
   -2.3845   -1.4166    0.0000 C   0  0  0  0  0  0  0  0  0  0  0  0
   -2.7970   -2.1310    0.0000 O   0  0  0  0  0  0  0  0  0  0  0  0
   -2.7970   -0.7021    0.0000 O   0  0  0  0  0  0  0  0  0  0  0  0
   -1.1470   -2.1310    0.0000 C   0  0  0  0  0  0  0  0  0  0  0  0
   -1.5595   -2.8455    0.0000 C   0  0  0  0  0  0  0  0  0  0  0  0
   -1.1470   -3.5600    0.0000 O   0  0  0  0  0  0  0  0  0  0  0  0
   -2.3845   -2.8455    0.0000 O   0  0  0  0  0  0  0  0  0  0  0  0
   -1.5595    0.0124    0.0000 C   0  0  0  0  0  0  0  0  0  0  0  0
   -1.1470    0.7269    0.0000 C   0  0  0  0  0  0  0  0  0  0  0  0
   -0.3220    0.7269    0.0000 C   0  0  0  0  0  0  0  0  0  0  0  0
    0.0905    1.4413    0.0000 O   0  0  0  0  0  0  0  0  0  0  0  0
   -1.5595    1.4413    0.0000 C   0  0  0  0  0  0  0  0  0  0  0  0
   -2.3845    1.4413    0.0000 C   0  0  0  0  0  0  0  0  0  0  0  0
   -2.7970    2.1558    0.0000 C   0  0  0  0  0  0  0  0  0  0  0  0
   -2.3845    2.8703    0.0000 C   0  0  0  0  0  0  0  0  0  0  0  0
   -1.5595    2.8703    0.0000 C   0  0  0  0  0  0  0  0  0  0  0  0
   -1.1470    2.1558    0.0000 C   0  0  0  0  0  0  0  0  0  0  0  0
   -2.7970    0.7269    0.0000 F   0  0  0  0  0  0  0  0  0  0  0  0
  1  2  2  0
  1  6  1  0
  1  7  1  0
  2  3  1  0
  3  4  2  0
  4  5  1  0
  4 10  1  0
  5  6  2  0
  5 11  1  0
  7  8  1  0
  7  9  2  0
 10 12  1  0
 11 12  2  0
 12 13  1  0
 13 14  2  0
 13 26  1  0
 14 15  1  0
 15 16  1  0
 15 24  2  0
 16 17  1  0
 16 20  1  1
 17 18  2  0
 17 19  1  0
 20 21  1  0
 21 22  2  0
 21 23  1  0
 24 25  1  0
 25 26  2  0
 25 28  1  0
 26 27  1  0
 28 29  2  0
 28 33  1  0
 29 30  1  0
 29 34  1  0
 30 31  2  0
 31 32  1  0
 32 33  2  0
M  CHG  4   9   1  19  -1  23  -1  27  -1
M  END
>  <DRUGBANK_ID>  (1) 
DB01741

>  <SECONDARY_ACCESSION_NUMBERS>  (1) 
EXPT00281

>  <COMMON_NAME>  (1) 
CRA_17693

$$$$
