
     RDKit          2D

 16 16  0  0  0  0  0  0  0  0999 V2000
    2.1434    0.4125    0.0000 C   0  0  0  0  0  0  0  0  0  0  0  0
    2.1434    1.2375    0.0000 O   0  0  0  0  0  0  0  0  0  0  0  0
    1.4289    0.0000    0.0000 C   0  0  0  0  0  0  0  0  0  0  0  0
    0.7145    0.4125    0.0000 C   0  0  0  0  0  0  0  0  0  0  0  0
    1.4289   -0.8250    0.0000 N   0  0  0  0  0  0  0  0  0  0  0  0
    0.0000    0.0000    0.0000 C   0  0  0  0  0  0  0  0  0  0  0  0
    0.0000   -0.8250    0.0000 C   0  0  0  0  0  0  0  0  0  0  0  0
   -0.7144    0.4125    0.0000 C   0  0  0  0  0  0  0  0  0  0  0  0
   -1.4288    0.0000    0.0000 C   0  0  0  0  0  0  0  0  0  0  0  0
   -1.4288   -0.8250    0.0000 C   0  0  0  0  0  0  0  0  0  0  0  0
   -0.7144   -1.2374    0.0000 C   0  0  0  0  0  0  0  0  0  0  0  0
   -2.1433   -1.2374    0.0000 O   0  0  0  0  0  0  0  0  0  0  0  0
    2.8579    0.0000    0.0000 O   0  0  0  0  0  0  0  0  0  0  0  0
   -2.8579    0.0000    0.0000 O   0  0  0  0  0  0  0  0  0  0  0  0
   -2.1433    1.2375    0.0000 O   0  0  0  0  0  0  0  0  0  0  0  0
   -2.1433    0.4125    0.0000 N   0  0  0  0  0  0  0  0  0  0  0  0
  1  2  2  0
  1  3  1  0
  3  4  1  0
  3  5  1  1
  4  6  1  0
  6  7  2  0
  6  8  1  0
  7 11  1  0
  8  9  2  0
  9 10  1  0
  9 16  1  0
 10 11  2  0
 10 12  1  0
 13  1  1  0
 14 16  1  0
 16 15  2  0
M  CHG  2  14  -1  16   1
M  END
>  <DRUGBANK_ID>  (1) 
DB03867

>  <SECONDARY_ACCESSION_NUMBERS>  (1) 
EXPT02352

>  <COMMON_NAME>  (1) 
3-nitro-L-tyrosine

>  <CAS_NUMBER>  (1) 
621-44-3

>  <UNII>  (1) 
7COY1HA6HK

>  <SYNONYMS>  (1) 
(2S)-2-amino-3-(4-hydroxy-3-nitrophenyl)propanoic acid; 3-Nitro-L-tyrosine; L-3-Nitrotyrosine

$$$$
