1512
     RDKit          2D

 22 26  0  0  1  0  0  0  0  0999 V2000
    1.9356    0.0458    0.0000 O   0  0  0  0  0  0  0  0  0  0  0  0
    4.4727   -1.4895    0.0000 O   0  0  0  0  0  0  0  0  0  0  0  0
    1.7349   -2.0838    0.0000 O   0  0  0  0  0  0  0  0  0  0  0  0
    1.7349    2.0838    0.0000 O   0  0  0  0  0  0  0  0  0  0  0  0
    5.3440   -0.8250    0.0000 N   0  0  0  0  0  0  0  0  0  0  0  0
    3.2006   -0.4125    0.0000 C   0  0  0  0  0  0  0  0  0  0  0  0
    3.9151   -0.8250    0.0000 C   0  0  0  0  0  0  0  0  0  0  0  0
    4.6296   -0.4125    0.0000 C   0  0  0  0  0  0  0  0  0  0  0  0
    2.4861   -0.8250    0.0000 C   0  0  0  0  0  0  0  0  0  0  0  0
    3.6773    0.1925    0.0000 C   0  0  0  0  0  0  0  0  0  0  0  0
    3.2006    0.4125    0.0000 C   0  0  0  0  0  0  0  0  0  0  0  0
    3.9151   -1.6501    0.0000 C   0  0  0  0  0  0  0  0  0  0  0  0
    2.4861   -1.6501    0.0000 C   0  0  0  0  0  0  0  0  0  0  0  0
    4.6296    0.4125    0.0000 C   0  0  0  0  0  0  0  0  0  0  0  0
    3.2006   -2.0625    0.0000 C   0  0  0  0  0  0  0  0  0  0  0  0
    4.8506    0.1925    0.0000 C   0  0  0  0  0  0  0  0  0  0  0  0
    3.9151    0.8250    0.0000 C   0  0  0  0  0  0  0  0  0  0  0  0
    2.4861    0.8250    0.0000 C   0  0  0  0  0  0  0  0  0  0  0  0
    5.9350   -1.4601    0.0000 C   0  0  0  0  0  0  0  0  0  0  0  0
    3.9151    1.6500    0.0000 C   0  0  0  0  0  0  0  0  0  0  0  0
    2.4861    1.6500    0.0000 C   0  0  0  0  0  0  0  0  0  0  0  0
    3.2006    2.0625    0.0000 C   0  0  0  0  0  0  0  0  0  0  0  0
  9  1  1  6
  1 18  1  0
  4 21  1  0
  5  8  1  0
  5 16  1  0
  5 19  1  0
  6  7  1  0
  6  9  1  0
  6 10  1  1
  6 11  1  0
  7  2  1  1
  7  8  1  0
  7 12  1  0
  8 14  1  1
  9 13  1  0
 10 16  1  0
 11 17  2  0
 11 18  1  0
 12 15  1  0
 13  3  1  6
 13 15  1  0
 14 17  1  0
 17 20  1  0
 18 21  2  0
 20 22  2  0
 21 22  1  0
M  END
>  <DRUGBANK_ID>  (1) 
DB01512

>  <COMMON_NAME>  (1) 
Hydromorphinol

>  <CAS_NUMBER>  (1) 
2183-56-4

>  <UNII>  (1) 
1O00P9X5C1

>  <SYNONYMS>  (1) 
Hydromorphinol

$$$$
