
     RDKit          2D

 16 16  0  0  0  0  0  0  0  0999 V2000
    3.0099   -0.3266    0.0000 C   0  0  0  0  0  0  0  0  0  0  0  0
    2.6095   -1.0981    0.0000 O   0  0  0  0  0  0  0  0  0  0  0  0
    2.1879   -0.3309    0.0000 C   0  0  0  0  0  0  0  0  0  0  0  0
    3.4147    0.3689    0.0000 C   0  0  0  0  0  0  0  0  0  0  0  0
    1.4670    0.0780    0.0000 C   0  0  0  0  0  0  0  0  0  0  0  0
    4.2493    0.3815    0.0000 O   0  0  0  0  0  0  0  0  0  0  0  0
    1.4670    0.9000    0.0000 O   0  0  0  0  0  0  0  0  0  0  0  0
   -2.8202    0.0780    0.0000 C   0  0  0  0  0  0  0  0  0  0  0  0
   -1.3868    0.0780    0.0000 C   0  0  0  0  0  0  0  0  0  0  0  0
   -3.5284   -0.3309    0.0000 C   0  0  0  0  0  0  0  0  0  0  0  0
    2.9889    1.0981    0.0000 N   0  0  0  0  0  0  0  0  0  0  0  0
   -0.6786   -0.3309    0.0000 C   0  0  0  0  0  0  0  0  0  0  0  0
   -2.0994   -0.3309    0.0000 C   0  0  0  0  0  0  0  0  0  0  0  0
    0.7588   -0.3309    0.0000 C   0  0  0  0  0  0  0  0  0  0  0  0
    0.0379    0.0780    0.0000 C   0  0  0  0  0  0  0  0  0  0  0  0
   -4.2493    0.0780    0.0000 C   0  0  0  0  0  0  0  0  0  0  0  0
  1  4  1  6
  2  1  1  0
  3  1  1  0
  3  5  1  6
  3  2  1  0
  6  4  2  0
  7  5  2  0
  8 13  1  0
  9 12  2  0
 10  8  2  0
 11  4  1  0
 12 15  1  0
 13  9  1  0
 14  5  1  0
 15 14  1  0
 16 10  1  0
M  END
>  <DRUGBANK_ID>  (1) 
DB01034

>  <SECONDARY_ACCESSION_NUMBERS>  (1) 
APRD00703

>  <COMMON_NAME>  (1) 
Cerulenin

>  <CAS_NUMBER>  (1) 
17397-89-6

>  <UNII>  (1) 
MF286Y830Q

>  <SYNONYMS>  (1) 
(2R,3S)-3-((4E,7E)-Nona-4,7-dienoyl)-oxirane-2-carboxylic acid amide; (2R,3S)-3-((4E,7E)-nona-4,7-dienoyl)oxirane-2-carboxamide; Cerulenin

$$$$
