CNQ
     RDKit          2D

 20 22  0  0  0  0  0  0  0  0999 V2000
   -2.2909   -1.1611    0.0000 C   0  0  0  0  0  0  0  0  0  0  0  0
   -1.5764   -1.5736    0.0000 C   0  0  0  0  0  0  0  0  0  0  0  0
   -0.8620   -1.1611    0.0000 C   0  0  0  0  0  0  0  0  0  0  0  0
   -0.8620   -0.3361    0.0000 C   0  0  0  0  0  0  0  0  0  0  0  0
   -1.5764    0.0764    0.0000 C   0  0  0  0  0  0  0  0  0  0  0  0
   -2.2909   -0.3361    0.0000 C   0  0  0  0  0  0  0  0  0  0  0  0
   -0.1475   -1.5736    0.0000 N   0  0  0  0  0  0  0  0  0  0  0  0
    0.5670   -1.1611    0.0000 C   0  0  0  0  0  0  0  0  0  0  0  0
    0.5670   -0.3361    0.0000 C   0  0  0  0  0  0  0  0  0  0  0  0
   -0.1475    0.0764    0.0000 N   0  0  0  0  0  0  0  0  0  0  0  0
   -1.5764    0.9014    0.0000 C   0  0  0  0  0  0  0  0  0  0  0  0
   -2.2909    1.3139    0.0000 N   0  0  0  0  0  0  0  0  0  0  0  0
   -0.8620    1.3139    0.0000 O   0  0  0  0  0  0  0  0  0  0  0  0
    1.2815    0.0764    0.0000 C   0  0  0  0  0  0  0  0  0  0  0  0
    1.2815    0.9014    0.0000 C   0  0  0  0  0  0  0  0  0  0  0  0
    1.9959    1.3139    0.0000 C   0  0  0  0  0  0  0  0  0  0  0  0
    2.7104    0.9014    0.0000 C   0  0  0  0  0  0  0  0  0  0  0  0
    2.7104    0.0764    0.0000 C   0  0  0  0  0  0  0  0  0  0  0  0
    1.9959   -0.3361    0.0000 C   0  0  0  0  0  0  0  0  0  0  0  0
    3.4249    1.3139    0.0000 Cl  0  0  0  0  0  0  0  0  0  0  0  0
  1  2  2  0
  1  6  1  0
  2  3  1  0
  3  4  2  0
  3  7  1  0
  4  5  1  0
  4 10  1  0
  5  6  2  0
  5 11  1  0
  7  8  2  0
  8  9  1  0
  9 10  2  0
  9 14  1  0
 11 12  1  0
 11 13  2  0
 14 15  2  0
 14 19  1  0
 15 16  1  0
 16 17  2  0
 17 18  1  0
 17 20  1  0
 18 19  2  0
M  END
>  <DRUGBANK_ID>  (1) 
DB03509

>  <SECONDARY_ACCESSION_NUMBERS>  (1) 
EXPT00973

>  <COMMON_NAME>  (1) 
2-(4-Chlorophenyl)-5-Quinoxalinecarboxamide

$$$$
