
     RDKit          2D

 37 41  0  0  0  0  0  0  0  0999 V2000
   -2.1949    3.2605    0.0000 C   0  0  0  0  0  0  0  0  0  0  0  0
   -2.9118    2.8480    0.0000 C   0  0  0  0  0  0  0  0  0  0  0  0
   -2.9118    2.0329    0.0000 C   0  0  0  0  0  0  0  0  0  0  0  0
   -2.1949    1.6204    0.0000 C   0  0  0  0  0  0  0  0  0  0  0  0
   -1.4878    2.8480    0.0000 C   0  0  0  0  0  0  0  0  0  0  0  0
   -2.1949    4.0854    0.0000 C   0  0  0  0  0  0  0  0  0  0  0  0
   -2.1949    4.9104    0.0000 F   0  0  0  0  0  0  0  0  0  0  0  0
   -1.3700    4.0854    0.0000 F   0  0  0  0  0  0  0  0  0  0  0  0
   -3.0199    4.0854    0.0000 F   0  0  0  0  0  0  0  0  0  0  0  0
   -1.4878    2.0329    0.0000 C   0  0  0  0  0  0  0  0  0  0  0  0
   -0.7709    1.6204    0.0000 C   0  0  0  0  0  0  0  0  0  0  0  0
   -0.6039    0.8151    0.0000 C   0  0  0  0  0  0  0  0  0  0  0  0
   -0.0539    2.0329    0.0000 N   0  0  0  0  0  0  0  0  0  0  0  0
    0.2210    0.7266    0.0000 N   0  0  0  0  0  0  0  0  0  0  0  0
    0.5548    1.4730    0.0000 C   0  0  0  0  0  0  0  0  0  0  0  0
    1.3798    1.4730    0.0000 C   0  0  0  0  0  0  0  0  0  0  0  0
    2.6172    2.1900    0.0000 C   0  0  0  0  0  0  0  0  0  0  0  0
    1.7923    2.1900    0.0000 C   0  0  0  0  0  0  0  0  0  0  0  0
    1.7923    0.7659    0.0000 C   0  0  0  0  0  0  0  0  0  0  0  0
    2.6172    0.7659    0.0000 C   0  0  0  0  0  0  0  0  0  0  0  0
    3.0199    1.4730    0.0000 N   0  0  0  0  0  0  0  0  0  0  0  0
    0.6334    0.0097    0.0000 C   0  0  0  0  0  0  0  0  0  0  0  0
   -1.1538    0.1963    0.0000 C   0  0  0  0  0  0  0  0  0  0  0  0
   -1.8610    0.6088    0.0000 C   0  0  0  0  0  0  0  0  0  0  0  0
   -2.5780    0.1963    0.0000 C   0  0  0  0  0  0  0  0  0  0  0  0
   -2.5780   -0.6285    0.0000 N   0  0  0  0  0  0  0  0  0  0  0  0
   -1.1538   -0.6285    0.0000 N   0  0  0  0  0  0  0  0  0  0  0  0
   -1.8610   -1.0311    0.0000 C   0  0  0  0  0  0  0  0  0  0  0  0
   -1.8610   -1.8560    0.0000 N   0  0  0  0  0  0  0  0  0  0  0  0
   -1.2816   -2.4453    0.0000 C   0  0  0  0  0  0  0  0  0  0  0  0
   -0.5646   -2.0329    0.0000 C   0  0  0  0  0  0  0  0  0  0  0  0
   -1.2816   -3.2604    0.0000 C   0  0  0  0  0  0  0  0  0  0  0  0
   -2.0083   -3.6533    0.0000 C   0  0  0  0  0  0  0  0  0  0  0  0
   -2.0378   -4.4782    0.0000 C   0  0  0  0  0  0  0  0  0  0  0  0
   -1.3307   -4.9104    0.0000 C   0  0  0  0  0  0  0  0  0  0  0  0
   -0.6039   -4.5175    0.0000 C   0  0  0  0  0  0  0  0  0  0  0  0
   -0.5843   -3.7024    0.0000 C   0  0  0  0  0  0  0  0  0  0  0  0
  1  2  2  0
  1  5  1  0
  1  6  1  0
  2  3  1  0
  3  4  2  0
  4 10  1  0
  5 10  2  0
  6  7  1  0
  6  9  1  0
  6  8  1  0
 10 11  1  0
 11 13  1  0
 11 12  2  0
 12 14  1  0
 12 23  1  0
 13 15  2  0
 14 15  1  0
 14 22  1  0
 15 16  1  0
 16 18  1  0
 16 19  1  0
 17 21  1  0
 17 18  1  0
 19 20  1  0
 20 21  1  0
 23 27  1  0
 23 24  2  0
 24 25  1  0
 25 26  2  0
 26 28  1  0
 27 28  2  0
 28 29  1  0
 29 30  1  0
 30 32  1  0
 30 31  1  1
 32 33  2  0
 32 37  1  0
 33 34  1  0
 34 35  2  0
 35 36  1  0
 36 37  2  0
M  END
>  <DRUGBANK_ID>  (1) 
DB01761

>  <SECONDARY_ACCESSION_NUMBERS>  (1) 
EXPT00004

>  <COMMON_NAME>  (1) 
4-[5-[2-(1-phenyl-ethylamino)-pyrimidin-4-yl]-1-methyl-4-(3-trifluoromethylphenyl)-1H-imidazol-2-yl]-piperidine

$$$$
