
     RDKit          2D

 28 30  0  0  0  0  0  0  0  0999 V2000
    0.7233   -1.6180    0.0000 C   0  0  0  0  0  0  0  0  0  0  0  0
   -4.7992    0.7511    0.0000 C   0  0  0  0  0  0  0  0  0  0  0  0
   -4.2051   -2.0443    0.0000 C   0  0  0  0  0  0  0  0  0  0  0  0
    0.0089   -1.2055    0.0000 C   0  0  0  0  0  0  0  0  0  0  0  0
   -2.1223    3.8254    0.0000 C   0  0  0  0  0  0  0  0  0  0  0  0
   -2.7354    3.2734    0.0000 C   0  0  0  0  0  0  0  0  0  0  0  0
   -1.3376    3.5705    0.0000 C   0  0  0  0  0  0  0  0  0  0  0  0
   -2.5638    2.4664    0.0000 C   0  0  0  0  0  0  0  0  0  0  0  0
   -1.1661    2.7635    0.0000 C   0  0  0  0  0  0  0  0  0  0  0  0
   -0.7056    0.0320    0.0000 C   0  0  0  0  0  0  0  0  0  0  0  0
   -1.4201   -0.3805    0.0000 C   0  0  0  0  0  0  0  0  0  0  0  0
    0.7233    0.0320    0.0000 C   0  0  0  0  0  0  0  0  0  0  0  0
    1.4378   -0.3805    0.0000 C   0  0  0  0  0  0  0  0  0  0  0  0
   -1.6077    1.4045    0.0000 C   0  0  0  0  0  0  0  0  0  0  0  0
   -1.7792    2.2115    0.0000 C   0  0  0  0  0  0  0  0  0  0  0  0
   -2.2208    0.8525    0.0000 C   0  0  0  0  0  0  0  0  0  0  0  0
   -2.8882   -0.3036    0.0000 C   0  0  0  0  0  0  0  0  0  0  0  0
   -3.4402    0.3095    0.0000 C   0  0  0  0  0  0  0  0  0  0  0  0
   -3.1432   -1.0882    0.0000 C   0  0  0  0  0  0  0  0  0  0  0  0
   -4.5022   -0.6466    0.0000 C   0  0  0  0  0  0  0  0  0  0  0  0
   -3.0277    1.0240    0.0000 N   0  0  0  0  0  0  0  0  0  0  0  0
   -4.2472    0.1380    0.0000 N   0  0  0  0  0  0  0  0  0  0  0  0
   -3.9501   -1.2597    0.0000 N   0  0  0  0  0  0  0  0  0  0  0  0
    0.0089   -0.3805    0.0000 N   0  0  0  0  0  0  0  0  0  0  0  0
   -2.1345    0.0320    0.0000 N   0  0  0  0  0  0  0  0  0  0  0  0
    2.1523    0.0320    0.0000 O   0  0  0  0  0  0  0  0  0  0  0  0
   -2.5911   -1.7013    0.0000 O   0  0  0  0  0  0  0  0  0  0  0  0
   -5.3091   -0.8181    0.0000 O   0  0  0  0  0  0  0  0  0  0  0  0
  4  1  1  0
  6  5  2  0
  7  5  1  0
  8  6  1  0
  9  7  2  0
 11 10  1  0
 13 12  1  0
 15  8  2  0
 15  9  1  0
 15 14  1  0
 16 14  1  0
 18 17  2  0
 19 17  1  0
 21 16  2  0
 21 18  1  0
 22  2  1  0
 22 18  1  0
 22 20  1  0
 23  3  1  0
 23 19  1  0
 23 20  1  0
 24  4  1  0
 24 10  1  0
 24 12  1  0
 25 11  1  0
 25 16  1  0
 25 17  1  0
 26 13  1  0
 27 19  2  0
 28 20  2  0
M  END
>  <DRUGBANK_ID>  (1) 
DB13203

>  <COMMON_NAME>  (1) 
Bamifylline

>  <CAS_NUMBER>  (1) 
2016-63-9

>  <UNII>  (1) 
ZTY15D026H

>  <SYNONYMS>  (1) 
Bamifilina; Bamifylline; Bamifyllinum

$$$$
