4NA
     RDKit          2D

 19 21  0  0  0  0  0  0  0  0999 V2000
   -2.1972   -1.0366    0.0000 C   0  0  0  0  0  0  0  0  0  0  0  0
   -1.4828   -1.4491    0.0000 C   0  0  0  0  0  0  0  0  0  0  0  0
   -0.7683   -1.0366    0.0000 C   0  0  0  0  0  0  0  0  0  0  0  0
   -0.7683   -0.2116    0.0000 C   0  0  0  0  0  0  0  0  0  0  0  0
   -1.4828    0.2009    0.0000 C   0  0  0  0  0  0  0  0  0  0  0  0
   -2.1972   -0.2116    0.0000 C   0  0  0  0  0  0  0  0  0  0  0  0
   -0.0538   -1.4491    0.0000 C   0  0  0  0  0  0  0  0  0  0  0  0
    0.6606   -1.0366    0.0000 C   0  0  0  0  0  0  0  0  0  0  0  0
    0.6606   -0.2116    0.0000 C   0  0  0  0  0  0  0  0  0  0  0  0
   -0.0538    0.2009    0.0000 C   0  0  0  0  0  0  0  0  0  0  0  0
    1.3751    0.2009    0.0000 C   0  0  0  0  0  0  0  0  0  0  0  0
    1.3751    1.0259    0.0000 C   0  0  0  0  0  0  0  0  0  0  0  0
    2.0896    1.4384    0.0000 C   0  0  0  0  0  0  0  0  0  0  0  0
    2.8040    1.0259    0.0000 C   0  0  0  0  0  0  0  0  0  0  0  0
    2.8040    0.2009    0.0000 C   0  0  0  0  0  0  0  0  0  0  0  0
    2.0896   -0.2116    0.0000 C   0  0  0  0  0  0  0  0  0  0  0  0
    3.5185    1.4384    0.0000 O   0  0  0  0  0  0  0  0  0  0  0  0
   -1.4828   -2.2741    0.0000 Cl  0  0  0  0  0  0  0  0  0  0  0  0
   -2.9117   -1.4491    0.0000 O   0  0  0  0  0  0  0  0  0  0  0  0
  1  2  2  0
  1  6  1  0
  1 19  1  0
  2  3  1  0
  2 18  1  0
  3  4  2  0
  3  7  1  0
  4  5  1  0
  4 10  1  0
  5  6  2  0
  7  8  2  0
  8  9  1  0
  9 10  2  0
  9 11  1  0
 11 12  2  0
 11 16  1  0
 12 13  1  0
 13 14  2  0
 14 15  1  0
 14 17  1  0
 15 16  2  0
M  END
>  <DRUGBANK_ID>  (1) 
DB07119

>  <COMMON_NAME>  (1) 
1-CHLORO-6-(4-HYDROXYPHENYL)-2-NAPHTHOL

$$$$
