
     RDKit          2D

 30 33  0  0  0  0  0  0  0  0999 V2000
   -5.0074    1.8620    0.0000 Cl  0  0  0  0  0  0  0  0  0  0  0  0
   -5.0074    1.0370    0.0000 C   0  0  0  0  0  0  0  0  0  0  0  0
   -4.2970    0.6245    0.0000 C   0  0  0  0  0  0  0  0  0  0  0  0
   -3.5751    1.0370    0.0000 Cl  0  0  0  0  0  0  0  0  0  0  0  0
   -4.2970   -0.2005    0.0000 C   0  0  0  0  0  0  0  0  0  0  0  0
   -5.0074   -0.6130    0.0000 C   0  0  0  0  0  0  0  0  0  0  0  0
   -5.7293   -0.2005    0.0000 C   0  0  0  0  0  0  0  0  0  0  0  0
   -5.7293    0.6245    0.0000 C   0  0  0  0  0  0  0  0  0  0  0  0
   -3.5751   -0.6130    0.0000 N   0  0  0  0  0  0  0  0  0  0  0  0
   -3.5751   -1.4495    0.0000 C   0  0  0  0  0  0  0  0  0  0  0  0
   -2.8532   -1.8620    0.0000 C   0  0  0  0  0  0  0  0  0  0  0  0
   -2.1428   -1.4495    0.0000 N   0  0  0  0  0  0  0  0  0  0  0  0
   -1.4209   -1.8620    0.0000 C   0  0  0  0  0  0  0  0  0  0  0  0
   -0.7104   -1.4495    0.0000 C   0  0  0  0  0  0  0  0  0  0  0  0
    0.0114   -1.8620    0.0000 C   0  0  0  0  0  0  0  0  0  0  0  0
    0.7333   -1.4495    0.0000 C   0  0  0  0  0  0  0  0  0  0  0  0
    1.4437   -1.8620    0.0000 O   0  0  0  0  0  0  0  0  0  0  0  0
    2.1656   -1.4495    0.0000 C   0  0  0  0  0  0  0  0  0  0  0  0
    2.1656   -0.6130    0.0000 C   0  0  0  0  0  0  0  0  0  0  0  0
    2.8761   -0.2119    0.0000 C   0  0  0  0  0  0  0  0  0  0  0  0
    3.5865   -0.6130    0.0000 C   0  0  0  0  0  0  0  0  0  0  0  0
    4.2970   -0.2119    0.0000 O   0  0  0  0  0  0  0  0  0  0  0  0
    5.0074   -0.6130    0.0000 C   0  0  0  0  0  0  0  0  0  0  0  0
    5.0074   -1.4495    0.0000 C   0  0  0  0  0  0  0  0  0  0  0  0
    5.7293   -1.8620    0.0000 O   0  0  0  0  0  0  0  0  0  0  0  0
    4.2970   -1.8620    0.0000 N   0  0  0  0  0  0  0  0  0  0  0  0
    3.5865   -1.4495    0.0000 C   0  0  0  0  0  0  0  0  0  0  0  0
    2.8761   -1.8620    0.0000 C   0  0  0  0  0  0  0  0  0  0  0  0
   -2.1428   -0.6245    0.0000 C   0  0  0  0  0  0  0  0  0  0  0  0
   -2.8647   -0.2005    0.0000 C   0  0  0  0  0  0  0  0  0  0  0  0
  1  2  1  0
  2  3  2  0
  2  8  1  0
  3  4  1  0
  3  5  1  0
  5  6  2  0
  5  9  1  0
  6  7  1  0
  7  8  2  0
  9 10  1  0
  9 30  1  0
 10 11  1  0
 11 12  1  0
 12 13  1  0
 12 29  1  0
 13 14  1  0
 14 15  1  0
 15 16  1  0
 16 17  1  0
 17 18  1  0
 18 19  2  0
 18 28  1  0
 19 20  1  0
 20 21  2  0
 21 22  1  0
 21 27  1  0
 22 23  1  0
 23 24  1  0
 24 25  2  0
 24 26  1  0
 26 27  1  0
 27 28  2  0
 29 30  1  0
M  END
>  <DRUGBANK_ID>  (1) 
DB09226

>  <COMMON_NAME>  (1) 
Brilaroxazine

>  <CAS_NUMBER>  (1) 
1239729-06-6

>  <UNII>  (1) 
X8L60BA01I

>  <SYNONYMS>  (1) 
6-(4-(4-(2,3-Dichlorophenyl)-piperazin-1-yl)-butoxy)-2H-benzo(b)(1,4)oxazin-3(4H)-one; Brilaroxazina; Brilaroxazine; Brilaroxazinum

$$$$
