
     RDKit          2D

 21 22  0  0  0  0  0  0  0  0999 V2000
   -1.4760    0.7940    0.0000 N   0  0  0  0  0  0  0  0  0  0  0  0
   -0.7615    0.3815    0.0000 C   0  0  0  0  0  0  0  0  0  0  0  0
   -0.0470    0.7940    0.0000 N   0  0  0  0  0  0  0  0  0  0  0  0
    0.6673    0.3815    0.0000 C   0  0  0  0  0  0  0  0  0  0  0  0
    1.3818    0.7940    0.0000 C   0  0  0  0  0  0  0  0  0  0  0  0
    1.3818    1.6190    0.0000 C   0  0  0  0  0  0  0  0  0  0  0  0
    2.0963    2.0315    0.0000 C   0  0  0  0  0  0  0  0  0  0  0  0
    2.8107    1.6190    0.0000 C   0  0  0  0  0  0  0  0  0  0  0  0
    2.8107    0.7940    0.0000 C   0  0  0  0  0  0  0  0  0  0  0  0
    2.0963    0.3815    0.0000 C   0  0  0  0  0  0  0  0  0  0  0  0
    3.5252    2.0315    0.0000 O   0  0  0  0  0  0  0  0  0  0  0  0
    4.2397    1.6190    0.0000 C   0  0  0  0  0  0  0  0  0  0  0  0
   -0.7615   -0.4434    0.0000 O   0  0  0  0  0  0  0  0  0  0  0  0
   -2.1904    0.3815    0.0000 C   0  0  0  0  0  0  0  0  0  0  0  0
   -2.2767   -0.4389    0.0000 S   0  0  0  0  0  0  0  0  0  0  0  0
   -3.0837   -0.6104    0.0000 C   0  0  0  0  0  0  0  0  0  0  0  0
   -3.4961    0.1039    0.0000 C   0  0  0  0  0  0  0  0  0  0  0  0
   -2.9441    0.7171    0.0000 N   0  0  0  0  0  0  0  0  0  0  0  0
   -3.4192   -1.3641    0.0000 N   0  0  0  0  0  0  0  0  0  0  0  0
   -2.9343   -2.0315    0.0000 O   0  0  0  0  0  0  0  0  0  0  0  0
   -4.2397   -1.4503    0.0000 O   0  0  0  0  0  0  0  0  0  0  0  0
  1  2  1  0
  1 14  1  0
  2  3  1  0
  2 13  2  0
  3  4  1  0
  4  5  1  0
  5  6  2  0
  5 10  1  0
  6  7  1  0
  7  8  2  0
  8 11  1  0
  9  8  1  0
 10  9  2  0
 11 12  1  0
 14 15  1  0
 14 18  2  0
 15 16  1  0
 16 17  2  0
 16 19  1  0
 18 17  1  0
 19 20  2  0
 19 21  1  0
M  CHG  2  19   1  21  -1
M  END
>  <DRUGBANK_ID>  (1) 
DB01950

>  <SECONDARY_ACCESSION_NUMBERS>  (1) 
EXPT03075

>  <COMMON_NAME>  (1) 
AR-AO-14418

>  <CAS_NUMBER>  (1) 
487021-52-3

>  <UNII>  (1) 
87KSH90Q6D

$$$$
