
     RDKit          2D

 23 26  0  0  1  0  0  0  0  0999 V2000
   -3.1733   -2.8257    0.0000 C   0  0  0  0  0  0  0  0  0  0  0  0
   -2.7387   -2.1244    0.0000 C   0  0  0  0  0  0  0  0  0  0  0  0
   -1.9141   -2.1502    0.0000 C   0  0  0  0  0  0  0  0  0  0  0  0
   -1.5241   -2.8772    0.0000 C   0  0  0  0  0  0  0  0  0  0  0  0
   -1.9587   -3.5784    0.0000 C   0  0  0  0  0  0  0  0  0  0  0  0
   -2.7833   -3.5527    0.0000 C   0  0  0  0  0  0  0  0  0  0  0  0
   -0.6995   -2.9030    0.0000 C   0  0  0  0  0  0  0  0  0  0  0  0
   -0.2649   -2.2017    0.0000 N   0  0  0  0  0  0  0  0  0  0  0  0
    0.5597   -2.2275    0.0000 C   0  0  0  0  0  0  0  0  0  0  0  0
    0.9943   -1.5262    0.0000 C   0  0  0  0  0  0  0  0  0  0  0  0
    0.6043   -0.7992    0.0000 C   0  0  0  0  0  0  0  0  0  0  0  0
    1.0390   -0.0980    0.0000 O   0  0  0  0  0  0  0  0  0  0  0  0
    1.8636   -0.1238    0.0000 C   0  0  0  0  0  0  0  0  0  0  0  0
    2.2982    0.5775    0.0000 C   0  0  0  0  0  0  0  0  0  0  0  0
    3.1228    0.5517    0.0000 C   0  0  0  0  0  0  0  0  0  0  0  0
    3.5127   -0.1753    0.0000 C   0  0  0  0  0  0  0  0  0  0  0  0
    3.0781   -0.8765    0.0000 C   0  0  0  0  0  0  0  0  0  0  0  0
    2.2535   -0.8508    0.0000 C   0  0  0  0  0  0  0  0  0  0  0  0
    1.8189   -1.5520    0.0000 O   0  0  0  0  0  0  0  0  0  0  0  0
    3.6108   -1.5066    0.0000 C   0  0  0  0  0  0  0  0  0  0  0  0
    4.3745   -1.1947    0.0000 C   0  0  0  0  0  0  0  0  0  0  0  0
    5.0758   -1.6293    0.0000 O   0  0  0  0  0  0  0  0  0  0  0  0
    4.3140   -0.3719    0.0000 N   0  0  0  0  0  0  0  0  0  0  0  0
  1  2  2  0
  1  6  1  0
  2  3  1  0
  3  4  2  0
  4  5  1  0
  4  7  1  0
  5  6  2  0
  7  8  1  0
  8  9  1  0
 10  9  1  1
 10 11  1  0
 10 19  1  0
 11 12  1  0
 12 13  1  0
 13 14  2  0
 13 18  1  0
 14 15  1  0
 15 16  2  0
 16 17  1  0
 16 23  1  0
 17 18  2  0
 17 20  1  0
 18 19  1  0
 20 21  1  0
 21 22  2  0
 21 23  1  0
M  END
>  <DRUGBANK_ID>  (1) 
DB06620

>  <COMMON_NAME>  (1) 
Aplindore

>  <CAS_NUMBER>  (1) 
189681-70-7

>  <UNII>  (1) 
Q5O76TA0ML

>  <SYNONYMS>  (1) 
Aplindore; Palindore

$$$$
