
     RDKit          2D

 24 26  0  0  1  0  0  0  0  0999 V2000
   -0.8846    1.5991    0.0000 N   0  0  0  0  0  0  0  0  0  0  0  0
   -0.0877    1.8126    0.0000 C   0  0  0  0  0  0  0  0  0  0  0  0
    0.4956    1.2293    0.0000 C   0  0  0  0  0  0  0  0  0  0  0  0
    1.2925    1.4428    0.0000 O   0  0  0  0  0  0  0  0  0  0  0  0
    0.2821    0.4324    0.0000 N   0  0  0  0  0  0  0  0  0  0  0  0
    0.8655   -0.1510    0.0000 C   0  0  0  0  0  0  0  0  0  0  0  0
    1.6905   -0.1510    0.0000 C   0  0  0  0  0  0  0  0  0  0  0  0
    2.4049    0.2615    0.0000 C   0  0  0  0  0  0  0  0  0  0  0  0
    3.1194   -0.1510    0.0000 C   0  0  0  0  0  0  0  0  0  0  0  0
    3.1194   -0.9760    0.0000 C   0  0  0  0  0  0  0  0  0  0  0  0
    3.8339   -1.3885    0.0000 Cl  0  0  0  0  0  0  0  0  0  0  0  0
    2.4049   -1.3885    0.0000 C   0  0  0  0  0  0  0  0  0  0  0  0
    1.6905   -0.9760    0.0000 N   0  0  0  0  0  0  0  0  0  0  0  0
    0.8655   -0.9760    0.0000 C   0  0  0  0  0  0  0  0  0  0  0  0
    0.2821   -1.5593    0.0000 O   0  0  0  0  0  0  0  0  0  0  0  0
    2.4049   -2.2135    0.0000 C   0  0  0  0  0  0  0  0  0  0  0  0
    1.6905   -2.6260    0.0000 O   0  0  0  0  0  0  0  0  0  0  0  0
    3.1194   -2.6260    0.0000 O   0  0  0  0  0  0  0  0  0  0  0  0
    0.1258    2.6095    0.0000 C   0  0  0  0  0  0  0  0  0  0  0  0
   -0.4576    3.1929    0.0000 C   0  0  0  0  0  0  0  0  0  0  0  0
   -0.2441    3.9898    0.0000 C   0  0  0  0  0  0  0  0  0  0  0  0
    0.5528    4.2033    0.0000 C   0  0  0  0  0  0  0  0  0  0  0  0
    1.1362    3.6199    0.0000 C   0  0  0  0  0  0  0  0  0  0  0  0
    0.9227    2.8230    0.0000 C   0  0  0  0  0  0  0  0  0  0  0  0
  2  1  1  6
  2  3  1  0
  2 19  1  0
  3  4  2  0
  3  5  1  0
  6  5  1  6
  6  7  1  0
  6 14  1  0
  7  8  1  1
  7 13  1  0
  8  9  1  0
  9 10  1  0
 10 11  1  0
 10 12  2  0
 12 13  1  0
 12 16  1  0
 13 14  1  0
 14 15  2  0
 16 17  1  0
 16 18  2  0
 19 20  2  0
 19 24  1  0
 20 21  1  0
 21 22  2  0
 22 23  1  0
 23 24  2  0
M  END
>  <DRUGBANK_ID>  (1) 
DB04293

>  <SECONDARY_ACCESSION_NUMBERS>  (1) 
EXPT02052

>  <COMMON_NAME>  (1) 
7-(2-Amino-2-Phenyl-Acetylamino)-3-Chloro-8-Oxo-1-Aza-Bicyclo[4.2.0]Oct-2-Ene-2-Carboxylic Acid

$$$$
