
     RDKit          2D

 25 26  0  0  0  0  0  0  0  0999 V2000
   -1.0717   -0.8250    0.0000 C   0  0  0  0  0  0  0  0  0  0  0  0
   -1.0717   -1.6500    0.0000 C   0  0  0  0  0  0  0  0  0  0  0  0
   -1.7862   -2.0625    0.0000 C   0  0  0  0  0  0  0  0  0  0  0  0
   -2.5006   -1.6500    0.0000 C   0  0  0  0  0  0  0  0  0  0  0  0
   -2.5006   -0.8250    0.0000 C   0  0  0  0  0  0  0  0  0  0  0  0
   -1.7862   -0.4125    0.0000 N   0  0  0  0  0  0  0  0  0  0  0  0
   -0.3572   -2.0625    0.0000 C   0  0  0  0  0  0  0  0  0  0  0  0
   -0.3572   -2.8875    0.0000 O   0  0  0  0  0  0  0  0  0  0  0  0
    0.3572   -1.6500    0.0000 N   0  0  0  0  0  0  0  0  0  0  0  0
   -3.2151   -0.4125    0.0000 O   0  0  0  0  0  0  0  0  0  0  0  0
   -3.2151   -2.0625    0.0000 C   0  0  0  0  0  0  0  0  0  0  0  0
   -1.7862    0.4125    0.0000 C   0  0  0  0  0  0  0  0  0  0  0  0
    1.0717   -2.0625    0.0000 O   0  0  0  0  0  0  0  0  0  0  0  0
    1.7862   -1.6500    0.0000 C   0  0  0  0  0  0  0  0  0  0  0  0
    2.5006   -2.0625    0.0000 C   0  0  0  0  0  0  0  0  0  0  0  0
    3.2151   -1.6500    0.0000 O   0  0  0  0  0  0  0  0  0  0  0  0
   -0.3572   -0.4125    0.0000 N   0  0  0  0  0  0  0  0  0  0  0  0
   -0.3572    0.4125    0.0000 C   0  0  0  0  0  0  0  0  0  0  0  0
    0.3572    0.8250    0.0000 C   0  0  0  0  0  0  0  0  0  0  0  0
    0.3572    1.6500    0.0000 C   0  0  0  0  0  0  0  0  0  0  0  0
   -0.3572    2.0625    0.0000 C   0  0  0  0  0  0  0  0  0  0  0  0
   -1.0717    1.6500    0.0000 C   0  0  0  0  0  0  0  0  0  0  0  0
   -1.0717    0.8250    0.0000 C   0  0  0  0  0  0  0  0  0  0  0  0
   -0.3572    2.8875    0.0000 I   0  0  0  0  0  0  0  0  0  0  0  0
    1.0717    0.4125    0.0000 F   0  0  0  0  0  0  0  0  0  0  0  0
  1  2  2  0
  1  6  1  0
  1 17  1  0
  2  3  1  0
  2  7  1  0
  3  4  2  0
  4  5  1  0
  4 11  1  0
  5  6  1  0
  5 10  2  0
  6 12  1  0
  7  8  2  0
  7  9  1  0
  9 13  1  0
 13 14  1  0
 14 15  1  0
 15 16  1  0
 17 18  1  0
 18 19  2  0
 18 23  1  0
 19 20  1  0
 19 25  1  0
 20 21  2  0
 21 22  1  0
 21 24  1  0
 22 23  2  0
M  END
>  <DRUGBANK_ID>  (1) 
DB06061

>  <COMMON_NAME>  (1) 
AZD-8330

>  <CAS_NUMBER>  (1) 
869357-68-6

>  <UNII>  (1) 
G4990BOZ66

$$$$
