
     RDKit          2D

 38 42  0  0  0  0  0  0  0  0999 V2000
    5.6091    0.6402    0.0000 C   0  0  0  0  0  0  0  0  0  0  0  0
    5.6091   -0.1848    0.0000 C   0  0  0  0  0  0  0  0  0  0  0  0
    6.2765   -0.6697    0.0000 N   0  0  0  0  0  0  0  0  0  0  0  0
    6.0216   -1.4544    0.0000 N   0  0  0  0  0  0  0  0  0  0  0  0
    5.1966   -1.4544    0.0000 N   0  0  0  0  0  0  0  0  0  0  0  0
    4.9416   -0.6697    0.0000 N   0  0  0  0  0  0  0  0  0  0  0  0
    4.1570   -0.4148    0.0000 N   0  0  0  0  0  0  0  0  0  0  0  0
    3.9855    0.3922    0.0000 C   0  0  0  0  0  0  0  0  0  0  0  0
    3.2009    0.6471    0.0000 C   0  0  0  0  0  0  0  0  0  0  0  0
    2.5878    0.0951    0.0000 C   0  0  0  0  0  0  0  0  0  0  0  0
    1.8031    0.3500    0.0000 C   0  0  0  0  0  0  0  0  0  0  0  0
    1.6316    1.1570    0.0000 C   0  0  0  0  0  0  0  0  0  0  0  0
    2.2447    1.7090    0.0000 C   0  0  0  0  0  0  0  0  0  0  0  0
    3.0293    1.4541    0.0000 C   0  0  0  0  0  0  0  0  0  0  0  0
    2.0732    2.5160    0.0000 C   0  0  0  0  0  0  0  0  0  0  0  0
    1.2886    2.7709    0.0000 C   0  0  0  0  0  0  0  0  0  0  0  0
    0.6755    2.2189    0.0000 C   0  0  0  0  0  0  0  0  0  0  0  0
   -0.1092    2.4738    0.0000 C   0  0  0  0  0  0  0  0  0  0  0  0
   -0.2807    3.2808    0.0000 C   0  0  0  0  0  0  0  0  0  0  0  0
    0.3324    3.8328    0.0000 C   0  0  0  0  0  0  0  0  0  0  0  0
    1.1170    3.5779    0.0000 C   0  0  0  0  0  0  0  0  0  0  0  0
   -1.0653    3.5357    0.0000 O   0  0  0  0  0  0  0  0  0  0  0  0
    2.6863    3.0680    0.0000 C   0  0  0  0  0  0  0  0  0  0  0  0
    2.5147    3.8750    0.0000 C   0  0  0  0  0  0  0  0  0  0  0  0
    3.1278    4.4270    0.0000 C   0  0  0  0  0  0  0  0  0  0  0  0
    3.9125    4.1721    0.0000 C   0  0  0  0  0  0  0  0  0  0  0  0
    4.0840    3.3651    0.0000 C   0  0  0  0  0  0  0  0  0  0  0  0
    3.4709    2.8131    0.0000 C   0  0  0  0  0  0  0  0  0  0  0  0
    3.6424    2.0061    0.0000 O   0  0  0  0  0  0  0  0  0  0  0  0
    2.9563    5.2340    0.0000 C   0  0  0  0  0  0  0  0  0  0  0  0
    2.1717    5.4889    0.0000 N   0  0  0  0  0  0  0  0  0  0  0  0
    2.0002    6.2959    0.0000 N   0  0  0  0  0  0  0  0  0  0  0  0
    1.2465    6.6315    0.0000 C   0  0  0  0  0  0  0  0  0  0  0  0
    1.3327    7.4519    0.0000 N   0  0  0  0  0  0  0  0  0  0  0  0
    2.1397    7.6235    0.0000 N   0  0  0  0  0  0  0  0  0  0  0  0
    2.5522    6.9090    0.0000 N   0  0  0  0  0  0  0  0  0  0  0  0
    0.5320    6.2190    0.0000 C   0  0  0  0  0  0  0  0  0  0  0  0
    0.8470    1.4119    0.0000 O   0  0  0  0  0  0  0  0  0  0  0  0
  1  2  1  0
  2  3  2  0
  2  6  1  0
  3  4  1  0
  4  5  2  0
  5  6  1  0
  7  6  1  0
  7  8  2  3
  8  9  1  0
  9 10  2  0
  9 14  1  0
 10 11  1  0
 11 12  2  0
 12 13  1  0
 12 38  1  0
 13 14  2  0
 13 15  1  0
 15 16  1  0
 15 23  1  0
 16 17  2  0
 16 21  1  0
 17 18  1  0
 18 19  2  0
 19 20  1  0
 19 22  1  0
 20 21  2  0
 23 24  2  0
 23 28  1  0
 24 25  1  0
 25 26  2  0
 26 27  1  0
 27 28  2  0
 28 29  1  0
 30 25  1  0
 30 31  2  3
 31 32  1  0
 32 33  1  0
 32 36  1  0
 33 34  2  0
 33 37  1  0
 34 35  1  0
 35 36  2  0
M  END
>  <DRUGBANK_ID>  (1) 
DB12195

>  <COMMON_NAME>  (1) 
VP-14637

>  <CAS_NUMBER>  (1) 
235106-62-4

>  <UNII>  (1) 
HCW4G0O030

$$$$
