
     RDKit          2D

 20 20  0  0  1  0  0  0  0  0999 V2000
   26.3045  -12.5709    0.0000 P   0  0  0  0  0  0  0  0  0  0  0  0
   29.8770  -12.9834    0.0000 P   0  0  0  0  0  0  0  0  0  0  0  0
   27.0191  -12.9834    0.0000 O   0  0  0  0  0  0  0  0  0  0  0  0
   29.8770  -13.8084    0.0000 O   0  0  0  0  0  0  0  0  0  0  0  0
   26.7170  -11.8564    0.0000 O   0  0  0  0  0  0  0  0  0  0  0  0
   25.5900  -12.1584    0.0000 O   0  0  0  0  0  0  0  0  0  0  0  0
   30.7020  -12.9834    0.0000 O   0  0  0  0  0  0  0  0  0  0  0  0
   29.8770  -12.1584    0.0000 O   0  0  0  0  0  0  0  0  0  0  0  0
   29.8770  -15.4584    0.0000 O   0  0  0  0  0  0  0  0  0  0  0  0
   27.0191  -15.4584    0.0000 O   0  0  0  0  0  0  0  0  0  0  0  0
   28.4480  -16.2835    0.0000 O   0  0  0  0  0  0  0  0  0  0  0  0
   28.4480  -13.8084    0.0000 O   0  0  0  0  0  0  0  0  0  0  0  0
   25.8920  -13.2853    0.0000 O   0  0  0  0  0  0  0  0  0  0  0  0
   29.0520  -12.9834    0.0000 O   0  0  0  0  0  0  0  0  0  0  0  0
   27.0191  -13.8084    0.0000 C   0  0  0  0  0  0  0  0  0  0  0  0
   29.1624  -14.2209    0.0000 C   0  0  0  0  0  0  0  0  0  0  0  0
   27.7335  -14.2209    0.0000 C   0  0  0  0  0  0  0  0  0  0  0  0
   29.1624  -15.0459    0.0000 C   0  0  0  0  0  0  0  0  0  0  0  0
   27.7335  -15.0459    0.0000 C   0  0  0  0  0  0  0  0  0  0  0  0
   28.4480  -15.4584    0.0000 C   0  0  0  0  0  0  0  0  0  0  0  0
  1  3  1  0
  1  5  1  0
  1  6  1  0
  1 13  2  0
  2  4  1  0
  2  7  1  0
  2  8  1  0
  2 14  2  0
  3 15  1  0
 12 16  1  0
 12 17  1  0
 16  4  1  6
 16 18  1  0
 17 15  1  1
 17 19  1  0
 18  9  1  6
 18 20  1  0
 19 10  1  6
 19 20  1  0
 20 11  1  1
M  END
>  <DRUGBANK_ID>  (1) 
DB02835

>  <SECONDARY_ACCESSION_NUMBERS>  (1) 
EXPT01519

>  <COMMON_NAME>  (1) 
Alpha-D-Glucose 1,6-Bisphosphate

>  <CAS_NUMBER>  (1) 
10139-18-1

>  <UNII>  (1) 
DRX17R6AM2

$$$$
