
     RDKit          2D

 30 34  0  0  0  0  0  0  0  0999 V2000
    5.6586   -3.4376    0.0000 C   0  0  0  0  0  0  0  0  0  0  0  0
    5.9136   -2.6530    0.0000 C   0  0  0  0  0  0  0  0  0  0  0  0
    5.3615   -2.0399    0.0000 C   0  0  0  0  0  0  0  0  0  0  0  0
    4.5546   -2.2114    0.0000 C   0  0  0  0  0  0  0  0  0  0  0  0
    4.2996   -2.9960    0.0000 C   0  0  0  0  0  0  0  0  0  0  0  0
    4.8517   -3.6091    0.0000 C   0  0  0  0  0  0  0  0  0  0  0  0
    3.4927   -3.1676    0.0000 C   0  0  0  0  0  0  0  0  0  0  0  0
    2.9406   -2.5545    0.0000 C   0  0  0  0  0  0  0  0  0  0  0  0
    3.1956   -1.7698    0.0000 C   0  0  0  0  0  0  0  0  0  0  0  0
    4.0025   -1.5983    0.0000 C   0  0  0  0  0  0  0  0  0  0  0  0
    4.2575   -0.8137    0.0000 C   0  0  0  0  0  0  0  0  0  0  0  0
    5.0645   -0.6422    0.0000 O   0  0  0  0  0  0  0  0  0  0  0  0
    3.7054   -0.2006    0.0000 N   0  0  0  0  0  0  0  0  0  0  0  0
    3.9604    0.5840    0.0000 C   0  0  0  0  0  0  0  0  0  0  0  0
    3.4084    1.1971    0.0000 C   0  0  0  0  0  0  0  0  0  0  0  0
    2.6014    1.0256    0.0000 C   0  0  0  0  0  0  0  0  0  0  0  0
    2.3464    0.2410    0.0000 C   0  0  0  0  0  0  0  0  0  0  0  0
    1.5214    0.2410    0.0000 C   0  0  0  0  0  0  0  0  0  0  0  0
    0.9694   -0.3721    0.0000 C   0  0  0  0  0  0  0  0  0  0  0  0
    0.1624   -0.2006    0.0000 C   0  0  0  0  0  0  0  0  0  0  0  0
   -0.0925    0.5840    0.0000 C   0  0  0  0  0  0  0  0  0  0  0  0
    0.4595    1.1971    0.0000 C   0  0  0  0  0  0  0  0  0  0  0  0
    1.2665    1.0256    0.0000 C   0  0  0  0  0  0  0  0  0  0  0  0
    1.9339    1.5105    0.0000 N   0  0  0  0  0  0  0  0  0  0  0  0
    1.9339    2.3355    0.0000 C   0  0  0  0  0  0  0  0  0  0  0  0
    2.6484    2.7480    0.0000 C   0  0  0  0  0  0  0  0  0  0  0  0
    2.6484    3.5730    0.0000 O   0  0  0  0  0  0  0  0  0  0  0  0
    3.3629    2.3355    0.0000 O   0  0  0  0  0  0  0  0  0  0  0  0
   -0.3896   -0.8137    0.0000 F   0  0  0  0  0  0  0  0  0  0  0  0
    2.8985   -0.3721    0.0000 C   0  0  0  0  0  0  0  0  0  0  0  0
  1  2  2  0
  1  6  1  0
  2  3  1  0
  3  4  2  0
  4  5  1  0
  4 10  1  0
  5  6  2  0
  5  7  1  0
  7  8  2  0
  8  9  1  0
  9 10  2  0
 10 11  1  0
 11 12  2  0
 11 13  1  0
 13 14  1  0
 13 30  1  0
 14 15  1  0
 15 16  1  0
 16 17  2  0
 16 24  1  0
 17 18  1  0
 17 30  1  0
 18 19  2  0
 18 23  1  0
 19 20  1  0
 20 21  2  0
 20 29  1  0
 21 22  1  0
 22 23  2  0
 23 24  1  0
 24 25  1  0
 25 26  1  0
 26 27  2  0
 26 28  1  0
M  END
>  <DRUGBANK_ID>  (1) 
DB12562

>  <COMMON_NAME>  (1) 
Setipiprant

>  <CAS_NUMBER>  (1) 
866460-33-5

>  <UNII>  (1) 
BHF20LA2GM

>  <SYNONYMS>  (1) 
Setipiprant

$$$$
