L0I
     RDKit          2D

 28 32  0  0  0  0  0  0  0  0999 V2000
   -3.3887   -1.3194    0.0000 O   0  0  0  0  0  0  0  0  0  0  0  0
   -2.5818   -1.4909    0.0000 C   0  0  0  0  0  0  0  0  0  0  0  0
   -2.3268   -2.2756    0.0000 N   0  0  0  0  0  0  0  0  0  0  0  0
   -2.8789   -2.8887    0.0000 C   0  0  0  0  0  0  0  0  0  0  0  0
   -3.6635   -3.1436    0.0000 C   0  0  0  0  0  0  0  0  0  0  0  0
   -3.0504   -3.6956    0.0000 C   0  0  0  0  0  0  0  0  0  0  0  0
   -2.0297   -0.8778    0.0000 N   0  0  0  0  0  0  0  0  0  0  0  0
   -2.2847   -0.0932    0.0000 C   0  0  0  0  0  0  0  0  0  0  0  0
   -3.0693    0.1617    0.0000 C   0  0  0  0  0  0  0  0  0  0  0  0
   -3.0693    0.9867    0.0000 N   0  0  0  0  0  0  0  0  0  0  0  0
   -2.2847    1.2417    0.0000 N   0  0  0  0  0  0  0  0  0  0  0  0
   -1.7997    0.5742    0.0000 C   0  0  0  0  0  0  0  0  0  0  0  0
   -0.9747    0.5742    0.0000 C   0  0  0  0  0  0  0  0  0  0  0  0
   -0.4898   -0.0932    0.0000 N   0  0  0  0  0  0  0  0  0  0  0  0
    0.2948    0.1617    0.0000 C   0  0  0  0  0  0  0  0  0  0  0  0
    1.0093   -0.2508    0.0000 C   0  0  0  0  0  0  0  0  0  0  0  0
    1.7237    0.1617    0.0000 C   0  0  0  0  0  0  0  0  0  0  0  0
    1.7237    0.9867    0.0000 C   0  0  0  0  0  0  0  0  0  0  0  0
    2.4382    1.3992    0.0000 C   0  0  0  0  0  0  0  0  0  0  0  0
    3.1527    0.9867    0.0000 N   0  0  0  0  0  0  0  0  0  0  0  0
    3.8672    1.3992    0.0000 C   0  0  0  0  0  0  0  0  0  0  0  0
    4.5816    0.9867    0.0000 C   0  0  0  0  0  0  0  0  0  0  0  0
    4.5816    0.1617    0.0000 O   0  0  0  0  0  0  0  0  0  0  0  0
    3.8672   -0.2508    0.0000 C   0  0  0  0  0  0  0  0  0  0  0  0
    3.1527    0.1617    0.0000 C   0  0  0  0  0  0  0  0  0  0  0  0
    1.0093    1.3992    0.0000 C   0  0  0  0  0  0  0  0  0  0  0  0
    0.2948    0.9867    0.0000 C   0  0  0  0  0  0  0  0  0  0  0  0
   -0.4898    1.2417    0.0000 N   0  0  0  0  0  0  0  0  0  0  0  0
  2  1  2  0
  2  7  1  0
  3  2  1  0
  4  3  1  0
  5  4  1  0
  5  6  1  0
  6  4  1  0
  7  8  1  0
  8  9  2  0
  9 10  1  0
 11 10  1  0
 12  8  1  0
 12 11  2  0
 13 12  1  0
 13 28  1  0
 14 13  2  0
 15 14  1  0
 15 27  2  0
 16 15  1  0
 17 16  2  0
 17 18  1  0
 18 26  2  0
 19 18  1  0
 20 19  1  0
 20 21  1  0
 22 21  1  0
 23 22  1  0
 24 23  1  0
 24 25  1  0
 25 20  1  0
 26 27  1  0
 27 28  1  0
M  CHG  1  20   1
M  END
>  <DRUGBANK_ID>  (1) 
DB08067

>  <COMMON_NAME>  (1) 
4-[(2-{4-[(CYCLOPROPYLCARBAMOYL)AMINO]-1H-PYRAZOL-3-YL}-1H-BENZIMIDAZOL-6-YL)METHYL]MORPHOLIN-4-IUM

$$$$
