
     RDKit          2D

 29 31  0  0  0  0  0  0  0  0999 V2000
    1.0827   -1.8075    0.0000 N   0  0  0  0  0  0  0  0  0  0  0  0
    0.4109   -1.3125    0.0000 C   0  0  0  0  0  0  0  0  0  0  0  0
    1.7545   -1.3125    0.0000 C   0  0  0  0  0  0  0  0  0  0  0  0
    0.6585   -0.5347    0.0000 C   0  0  0  0  0  0  0  0  0  0  0  0
    1.5069   -0.5347    0.0000 C   0  0  0  0  0  0  0  0  0  0  0  0
    1.9666    0.1369    0.0000 C   0  0  0  0  0  0  0  0  0  0  0  0
    2.8152    0.0662    0.0000 O   0  0  0  0  0  0  0  0  0  0  0  0
    1.6484    0.8794    0.0000 N   0  0  0  0  0  0  0  0  0  0  0  0
    2.1434    1.5511    0.0000 C   0  0  0  0  0  0  0  0  0  0  0  0
    1.7898    2.3290    0.0000 C   0  0  0  0  0  0  0  0  0  0  0  0
    2.2848    3.0008    0.0000 N   0  0  0  0  0  0  0  0  0  0  0  0
    3.0980    2.9301    0.0000 C   0  0  0  0  0  0  0  0  0  0  0  0
    3.5929    3.6017    0.0000 C   0  0  0  0  0  0  0  0  0  0  0  0
    1.9312    3.7432    0.0000 C   0  0  0  0  0  0  0  0  0  0  0  0
    1.1181    3.8493    0.0000 C   0  0  0  0  0  0  0  0  0  0  0  0
    2.5677   -1.5953    0.0000 C   0  0  0  0  0  0  0  0  0  0  0  0
    0.1988    0.1369    0.0000 C   0  0  0  0  0  0  0  0  0  0  0  0
   -0.3653   -1.5646    0.0000 C   0  0  0  0  0  0  0  0  0  0  0  0
   -0.6415   -3.7176    0.0000 N   0  0  0  0  0  0  0  0  0  0  0  0
   -0.1241   -3.0555    0.0000 C   0  0  0  0  0  0  0  0  0  0  0  0
   -1.4308   -3.4765    0.0000 C   0  0  0  0  0  0  0  0  0  0  0  0
   -1.4308   -2.6214    0.0000 C   0  0  0  0  0  0  0  0  0  0  0  0
   -0.6372   -2.3714    0.0000 C   0  0  0  0  0  0  0  0  0  0  0  0
   -2.1544   -3.8493    0.0000 C   0  0  0  0  0  0  0  0  0  0  0  0
   -2.1502   -2.2180    0.0000 C   0  0  0  0  0  0  0  0  0  0  0  0
   -2.8561   -2.6214    0.0000 C   0  0  0  0  0  0  0  0  0  0  0  0
   -2.8561   -3.4765    0.0000 C   0  0  0  0  0  0  0  0  0  0  0  0
   -3.5929   -2.1872    0.0000 Cl  0  0  0  0  0  0  0  0  0  0  0  0
    0.6827   -3.0423    0.0000 O   0  0  0  0  0  0  0  0  0  0  0  0
  2  1  1  0
  2 18  1  0
  3  1  1  0
  4  2  2  0
  5  3  2  0
  5  4  1  0
  6  5  1  0
  7  6  2  0
  8  6  1  0
  9  8  1  0
 10  9  1  0
 11 10  1  0
 12 11  1  0
 13 12  1  0
 14 11  1  0
 15 14  1  0
 16  3  1  0
 17  4  1  0
 20 19  1  0
 21 19  1  0
 22 21  2  0
 23 18  2  0
 23 20  1  0
 23 22  1  0
 24 21  1  0
 25 22  1  0
 26 25  2  0
 27 24  2  0
 27 26  1  0
 28 26  1  0
 29 20  2  0
M  END
>  <DRUGBANK_ID>  (1) 
DB08009

>  <COMMON_NAME>  (1) 
SU-11652

>  <CAS_NUMBER>  (1) 
326914-10-7

>  <UNII>  (1) 
1C7AZL970U

$$$$
