
     RDKit          2D

 35 38  0  0  0  0  0  0  0  0999 V2000
    0.3417    0.6046    0.0000 C   0  0  0  0  0  0  0  0  0  0  0  0
   -1.0777    0.6046    0.0000 C   0  0  0  0  0  0  0  0  0  0  0  0
    1.7875    0.6046    0.0000 C   0  0  0  0  0  0  0  0  0  0  0  0
   -0.3679    1.0252    0.0000 C   0  0  0  0  0  0  0  0  0  0  0  0
    1.0514    1.0252    0.0000 C   0  0  0  0  0  0  0  0  0  0  0  0
   -1.8137    1.0252    0.0000 C   0  0  0  0  0  0  0  0  0  0  0  0
    0.3417   -0.2102    0.0000 C   0  0  0  0  0  0  0  0  0  0  0  0
   -2.5235   -0.2102    0.0000 C   0  0  0  0  0  0  0  0  0  0  0  0
   -2.5235    0.6046    0.0000 C   0  0  0  0  0  0  0  0  0  0  0  0
    1.7875   -0.2102    0.0000 C   0  0  0  0  0  0  0  0  0  0  0  0
   -1.8137   -0.6308    0.0000 C   0  0  0  0  0  0  0  0  0  0  0  0
   -1.0777   -0.2102    0.0000 C   0  0  0  0  0  0  0  0  0  0  0  0
    1.0514   -0.6308    0.0000 C   0  0  0  0  0  0  0  0  0  0  0  0
   -0.3679   -0.6308    0.0000 C   0  0  0  0  0  0  0  0  0  0  0  0
    2.4972    1.0252    0.0000 C   0  0  0  0  0  0  0  0  0  0  0  0
   -3.2332   -0.6308    0.0000 C   0  0  0  0  0  0  0  0  0  0  0  0
   -3.2332    1.0252    0.0000 C   0  0  0  0  0  0  0  0  0  0  0  0
    1.0514    1.8400    0.0000 O   0  0  0  0  0  0  0  0  0  0  0  0
   -1.8137    1.8400    0.0000 O   0  0  0  0  0  0  0  0  0  0  0  0
    1.0514   -1.4457    0.0000 N   0  0  0  0  0  0  0  0  0  0  0  0
    3.2070    0.6309    0.0000 N   0  0  0  0  0  0  0  0  0  0  0  0
    0.3417    1.3406    0.0000 O   0  0  0  0  0  0  0  0  0  0  0  0
    2.4972    1.8663    0.0000 O   0  0  0  0  0  0  0  0  0  0  0  0
   -0.3679    1.8400    0.0000 O   0  0  0  0  0  0  0  0  0  0  0  0
    2.4972   -0.6308    0.0000 O   0  0  0  0  0  0  0  0  0  0  0  0
   -3.9430   -0.2102    0.0000 C   0  0  0  0  0  0  0  0  0  0  0  0
   -3.9430    0.6046    0.0000 C   0  0  0  0  0  0  0  0  0  0  0  0
    3.2070   -0.2102    0.0000 C   0  0  0  0  0  0  0  0  0  0  0  0
   -3.2332   -1.4457    0.0000 Cl  0  0  0  0  0  0  0  0  0  0  0  0
   -3.2332    1.8400    0.0000 O   0  0  0  0  0  0  0  0  0  0  0  0
    3.9430   -0.6308    0.0000 O   0  0  0  0  0  0  0  0  0  0  0  0
    1.7875   -1.8663    0.0000 C   0  0  0  0  0  0  0  0  0  0  0  0
    0.3417   -1.8663    0.0000 C   0  0  0  0  0  0  0  0  0  0  0  0
   -2.2165   -1.3418    0.0000 C   0  0  0  0  0  0  0  0  0  0  0  0
   -1.4015   -1.3418    0.0000 O   0  0  0  0  0  0  0  0  0  0  0  0
  1 22  1  1
  4  1  1  0
  4  2  2  0
  5  1  1  0
  5  3  1  0
  6  2  1  0
  7  1  1  0
  9  6  1  0
  9  8  2  0
 10  3  2  0
 11  8  1  0
 11 34  1  1
 11 35  1  0
 12  2  1  0
 12 11  1  0
 13  7  1  0
 13 10  1  0
 13 20  1  1
  7 14  1  6
 12 14  1  6
 15  3  1  0
 16  8  1  0
 17  9  1  0
 18  5  2  0
 19  6  2  0
 21 15  1  0
 23 15  2  0
 24  4  1  0
 25 10  1  0
 26 16  2  0
 27 17  2  0
 27 26  1  0
 28 21  1  0
 29 16  1  0
 30 17  1  0
 31 28  1  0
 32 20  1  0
 33 20  1  0
M  END
>  <DRUGBANK_ID>  (1) 
DB00453

>  <SECONDARY_ACCESSION_NUMBERS>  (1) 
APRD00343

>  <COMMON_NAME>  (1) 
Clomocycline

>  <CAS_NUMBER>  (1) 
1181-54-0

>  <UNII>  (1) 
YP0241BU76

>  <SYNONYMS>  (1) 
Chlormethylenecycline; Clomociclina; Clomocyclina; Clomocycline; Clomocyclinum

$$$$
