
     RDKit          2D

 23 24  0  0  0  0  0  0  0  0999 V2000
    0.3572   -1.0312    0.0000 P   0  0  0  0  0  0  0  0  0  0  0  0
   -0.3572   -1.4437    0.0000 O   0  0  0  0  0  0  0  0  0  0  0  0
    0.7697   -1.7457    0.0000 O   0  0  0  0  0  0  0  0  0  0  0  0
   -0.0552   -0.3168    0.0000 O   0  0  0  0  0  0  0  0  0  0  0  0
    2.5007    2.6813    0.0000 O   0  0  0  0  0  0  0  0  0  0  0  0
    1.0716    2.6813    0.0000 N   0  0  0  0  0  0  0  0  0  0  0  0
   -0.3572   -2.2687    0.0000 C   0  0  0  0  0  0  0  0  0  0  0  0
    1.0716   -0.6187    0.0000 C   0  0  0  0  0  0  0  0  0  0  0  0
    1.0716    0.2062    0.0000 C   0  0  0  0  0  0  0  0  0  0  0  0
   -1.0716   -2.6813    0.0000 C   0  0  0  0  0  0  0  0  0  0  0  0
    0.3572   -2.6813    0.0000 C   0  0  0  0  0  0  0  0  0  0  0  0
    0.3572    0.6187    0.0000 C   0  0  0  0  0  0  0  0  0  0  0  0
    1.7862    0.6187    0.0000 C   0  0  0  0  0  0  0  0  0  0  0  0
   -1.0716   -3.5063    0.0000 C   0  0  0  0  0  0  0  0  0  0  0  0
   -1.7862   -2.2687    0.0000 C   0  0  0  0  0  0  0  0  0  0  0  0
    1.0716    1.8562    0.0000 C   0  0  0  0  0  0  0  0  0  0  0  0
    0.3572    1.4437    0.0000 C   0  0  0  0  0  0  0  0  0  0  0  0
    1.7862    1.4437    0.0000 C   0  0  0  0  0  0  0  0  0  0  0  0
   -1.7862   -3.9188    0.0000 C   0  0  0  0  0  0  0  0  0  0  0  0
   -2.5007   -2.6813    0.0000 C   0  0  0  0  0  0  0  0  0  0  0  0
   -2.5007   -3.5063    0.0000 C   0  0  0  0  0  0  0  0  0  0  0  0
    1.7862    3.0938    0.0000 C   0  0  0  0  0  0  0  0  0  0  0  0
    1.7862    3.9188    0.0000 C   0  0  0  0  0  0  0  0  0  0  0  0
  1  2  1  0
  1  3  1  0
  1  4  2  0
  1  8  1  0
  5 22  2  0
  6 16  1  0
  6 22  1  0
  7  2  1  0
  7 10  1  0
  7 11  1  1
  8  9  1  0
  9 12  2  0
  9 13  1  0
 10 14  2  0
 10 15  1  0
 12 17  1  0
 13 18  2  0
 14 19  1  0
 15 20  2  0
 16 17  2  0
 16 18  1  0
 19 21  2  0
 20 21  1  0
 22 23  1  0
M  CHG  1   3  -1
M  END
>  <DRUGBANK_ID>  (1) 
DB08545

>  <COMMON_NAME>  (1) 
(1S)-1-Phenylethyl (4-acetamidobenzyl)phosphonate

$$$$
