
     RDKit          2D

 38 41  0  0  1  0  0  0  0  0999 V2000
   -4.7261    4.8709    0.0000 N   0  0  0  0  0  0  0  0  0  0  0  0
   -4.0116    5.2834    0.0000 C   0  0  0  0  0  0  0  0  0  0  0  0
   -3.2971    4.8709    0.0000 C   0  0  0  0  0  0  0  0  0  0  0  0
   -2.5827    5.2834    0.0000 C   0  0  0  0  0  0  0  0  0  0  0  0
   -1.8682    4.8709    0.0000 C   0  0  0  0  0  0  0  0  0  0  0  0
   -1.1537    5.2834    0.0000 C   0  0  0  0  0  0  0  0  0  0  0  0
   -1.1537    6.1084    0.0000 N   0  0  0  0  0  0  0  0  0  0  0  0
   -0.4393    4.8709    0.0000 C   0  0  0  0  0  0  0  0  0  0  0  0
   -0.4393    4.0459    0.0000 O   0  0  0  0  0  0  0  0  0  0  0  0
    0.2752    5.2834    0.0000 N   0  0  0  0  0  0  0  0  0  0  0  0
    0.2752    6.1084    0.0000 C   0  0  0  0  0  0  0  0  0  0  0  0
   -0.4393    6.5209    0.0000 C   0  0  0  0  0  0  0  0  0  0  0  0
   -0.4393    7.3459    0.0000 C   0  0  0  0  0  0  0  0  0  0  0  0
    0.2752    7.7584    0.0000 C   0  0  0  0  0  0  0  0  0  0  0  0
    0.9897    7.3459    0.0000 C   0  0  0  0  0  0  0  0  0  0  0  0
    0.9897    6.5209    0.0000 C   0  0  0  0  0  0  0  0  0  0  0  0
    0.2752    8.5834    0.0000 C   0  0  0  0  0  0  0  0  0  0  0  0
   -0.4393    8.9959    0.0000 O   0  0  0  0  0  0  0  0  0  0  0  0
    0.9897    8.9959    0.0000 C   0  0  0  0  0  0  0  0  0  0  0  0
    0.9897    9.8209    0.0000 N   0  0  0  0  0  0  0  0  0  0  0  0
    1.6571   10.3058    0.0000 C   0  0  0  0  0  0  0  0  0  0  0  0
    1.4022   11.0904    0.0000 N   0  0  0  0  0  0  0  0  0  0  0  0
    0.5772   11.0904    0.0000 C   0  0  0  0  0  0  0  0  0  0  0  0
    0.3222   10.3058    0.0000 C   0  0  0  0  0  0  0  0  0  0  0  0
   -0.4847   10.1343    0.0000 C   0  0  0  0  0  0  0  0  0  0  0  0
   -1.0368   10.7474    0.0000 C   0  0  0  0  0  0  0  0  0  0  0  0
   -0.7818   11.5320    0.0000 C   0  0  0  0  0  0  0  0  0  0  0  0
    0.0252   11.7035    0.0000 C   0  0  0  0  0  0  0  0  0  0  0  0
    2.4417   10.0509    0.0000 C   0  0  0  0  0  0  0  0  0  0  0  0
    3.1092   10.5358    0.0000 N   0  0  0  0  0  0  0  0  0  0  0  0
    3.7766   10.0509    0.0000 O   0  0  0  0  0  0  0  0  0  0  0  0
    3.5217    9.2662    0.0000 N   0  0  0  0  0  0  0  0  0  0  0  0
    2.6967    9.2662    0.0000 C   0  0  0  0  0  0  0  0  0  0  0  0
    2.2118    8.5988    0.0000 N   0  0  0  0  0  0  0  0  0  0  0  0
    2.5473    7.8451    0.0000 C   0  0  0  0  0  0  0  0  0  0  0  0
    3.3678    7.7589    0.0000 C   0  0  0  0  0  0  0  0  0  0  0  0
    3.8527    8.4263    0.0000 C   0  0  0  0  0  0  0  0  0  0  0  0
    4.3376    9.0938    0.0000 N   0  0  0  0  0  0  0  0  0  0  0  0
  1  2  1  0
  2  3  1  0
  3  4  1  0
  4  5  1  0
  6  5  1  0
  6  7  1  6
  6  8  1  0
  8  9  2  0
  8 10  1  0
 10 11  1  0
 11 12  2  0
 11 16  1  0
 12 13  1  0
 13 14  2  0
 14 15  1  0
 14 17  1  0
 15 16  2  0
 17 18  2  0
 17 19  1  0
 19 20  1  0
 20 21  1  0
 20 24  1  0
 21 22  2  0
 21 29  1  0
 22 23  1  0
 23 24  2  0
 23 28  1  0
 24 25  1  0
 25 26  2  0
 26 27  1  0
 27 28  2  0
 29 30  2  0
 29 33  1  0
 30 31  1  0
 31 32  1  0
 32 33  2  0
 33 34  1  0
 34 35  1  0
 35 36  1  0
 36 37  1  0
 37 38  3  0
M  END
>  <DRUGBANK_ID>  (1) 
DB15224

>  <COMMON_NAME>  (1) 
Lisavanbulin

>  <CAS_NUMBER>  (1) 
1263384-43-5

>  <UNII>  (1) 
5PT0QP06X5

>  <SYNONYMS>  (1) 
Lisavanbulin

$$$$
