
     RDKit          2D

 36 37  0  0  1  0  0  0  0  0999 V2000
   -2.3138   -2.9749    0.0000 C   0  0  0  0  0  0  0  0  0  0  0  0
   -2.3138   -3.7999    0.0000 C   0  0  0  0  0  0  0  0  0  0  0  0
   -1.5994   -4.2124    0.0000 C   0  0  0  0  0  0  0  0  0  0  0  0
   -1.5994   -5.0374    0.0000 C   0  0  0  0  0  0  0  0  0  0  0  0
   -0.8849   -5.4499    0.0000 C   0  0  0  0  0  0  0  0  0  0  0  0
   -0.8849   -6.2749    0.0000 C   0  0  0  0  0  0  0  0  0  0  0  0
   -0.1704   -6.6874    0.0000 C   0  0  0  0  0  0  0  0  0  0  0  0
   -0.1704   -7.5124    0.0000 C   0  0  0  0  0  0  0  0  0  0  0  0
    0.5441   -7.9249    0.0000 C   0  0  0  0  0  0  0  0  0  0  0  0
    0.5441   -8.7499    0.0000 C   0  0  0  0  0  0  0  0  0  0  0  0
    1.2585   -9.1624    0.0000 C   0  0  0  0  0  0  0  0  0  0  0  0
    1.9730   -8.7499    0.0000 C   0  0  0  0  0  0  0  0  0  0  0  0
    2.6875   -9.1624    0.0000 C   0  0  0  0  0  0  0  0  0  0  0  0
    3.4019   -8.7499    0.0000 C   0  0  0  0  0  0  0  0  0  0  0  0
    4.1164   -9.1624    0.0000 C   0  0  0  0  0  0  0  0  0  0  0  0
    4.8309   -8.7499    0.0000 C   0  0  0  0  0  0  0  0  0  0  0  0
    5.5454   -9.1624    0.0000 C   0  0  0  0  0  0  0  0  0  0  0  0
    6.2598   -8.7499    0.0000 C   0  0  0  0  0  0  0  0  0  0  0  0
    6.2598   -7.9249    0.0000 O   0  0  0  0  0  0  0  0  0  0  0  0
    6.9743   -9.1624    0.0000 O   0  0  0  0  0  0  0  0  0  0  0  0
    7.6888   -8.7499    0.0000 C   0  0  0  0  0  0  0  0  0  0  0  0
    8.4032   -9.1624    0.0000 C   0  0  0  0  0  0  0  0  0  0  0  0
    9.1569   -8.8269    0.0000 O   0  0  0  0  0  0  0  0  0  0  0  0
    9.7089   -9.4400    0.0000 C   0  0  0  0  0  0  0  0  0  0  0  0
    9.2964  -10.1544    0.0000 C   0  0  0  0  0  0  0  0  0  0  0  0
    9.6320  -10.9081    0.0000 O   0  0  0  0  0  0  0  0  0  0  0  0
    8.4895   -9.9829    0.0000 C   0  0  0  0  0  0  0  0  0  0  0  0
    7.8764  -10.5349    0.0000 O   0  0  0  0  0  0  0  0  0  0  0  0
   10.5294   -9.3537    0.0000 N   0  0  0  0  0  0  0  0  0  0  0  0
   10.9419   -8.6393    0.0000 C   0  0  0  0  0  0  0  0  0  0  0  0
   11.7489   -8.8108    0.0000 N   0  0  0  0  0  0  0  0  0  0  0  0
   11.8351   -9.6313    0.0000 C   0  0  0  0  0  0  0  0  0  0  0  0
   11.0815   -9.9668    0.0000 N   0  0  0  0  0  0  0  0  0  0  0  0
   12.5496  -10.0438    0.0000 C   0  0  0  0  0  0  0  0  0  0  0  0
   13.2641   -9.6313    0.0000 N   0  0  0  0  0  0  0  0  0  0  0  0
   12.5496  -10.8688    0.0000 O   0  0  0  0  0  0  0  0  0  0  0  0
  1  2  1  0
  2  3  1  0
  3  4  1  0
  4  5  1  0
  5  6  1  0
  6  7  1  0
  7  8  1  0
  8  9  1  0
  9 10  2  0
 10 11  1  0
 11 12  1  0
 12 13  1  0
 13 14  1  0
 14 15  1  0
 15 16  1  0
 16 17  1  0
 17 18  1  0
 18 19  2  0
 18 20  1  0
 20 21  1  0
 22 21  1  1
 22 23  1  0
 24 23  1  0
 24 29  1  1
 25 24  1  0
 25 26  1  6
 25 27  1  0
 27 22  1  0
 27 28  1  6
 29 30  1  0
 29 33  1  0
 30 31  2  0
 31 32  1  0
 32 33  2  0
 32 34  1  0
 34 35  1  0
 34 36  2  0
M  END
>  <DRUGBANK_ID>  (1) 
DB17193

>  <COMMON_NAME>  (1) 
Ribavirin elaidate

>  <CAS_NUMBER>  (1) 
1352921-29-9

>  <UNII>  (1) 
4LU13X0I13

>  <SYNONYMS>  (1) 
1h-1,2,4-triazole-3-carboxamide, 1-(5-o-((9e)-1-oxo-9-octadecen-1-yl)-.beta.-d-ribofuranosyl)-; Ribavirin-5'-elaidic acid ester

$$$$
