
     RDKit          2D

 42 45  0  0  1  0  0  0  0  0999 V2000
    2.4150   -4.6666    0.0000 C   0  0  0  0  0  0  0  0  0  0  0  0
    2.1689   -3.8791    0.0000 C   0  0  0  0  0  0  0  0  0  0  0  0
    1.3638   -3.6986    0.0000 C   0  0  0  0  0  0  0  0  0  0  0  0
    0.8050   -4.3055    0.0000 C   0  0  0  0  0  0  0  0  0  0  0  0
    0.0000   -4.1250    0.0000 O   0  0  0  0  0  0  0  0  0  0  0  0
   -0.5588   -4.7319    0.0000 C   0  0  0  0  0  0  0  0  0  0  0  0
   -0.3127   -5.5193    0.0000 C   0  0  0  0  0  0  0  0  0  0  0  0
   -0.8715   -6.1262    0.0000 C   0  0  0  0  0  0  0  0  0  0  0  0
   -0.6253   -6.9136    0.0000 C   0  0  0  0  0  0  0  0  0  0  0  0
   -1.1842   -7.5205    0.0000 C   0  0  0  0  0  0  0  0  0  0  0  0
   -0.9380   -8.3079    0.0000 O   0  0  0  0  0  0  0  0  0  0  0  0
   -1.9892   -7.3400    0.0000 O   0  0  0  0  0  0  0  0  0  0  0  0
   -1.6765   -5.9457    0.0000 C   0  0  0  0  0  0  0  0  0  0  0  0
   -1.9227   -5.1583    0.0000 C   0  0  0  0  0  0  0  0  0  0  0  0
   -1.3638   -4.5514    0.0000 C   0  0  0  0  0  0  0  0  0  0  0  0
    2.7277   -3.2722    0.0000 N   0  0  0  0  0  0  0  0  0  0  0  0
    3.0548   -4.0296    0.0000 C   0  0  0  0  0  0  0  0  0  0  0  0
    3.8743   -4.1250    0.0000 C   0  0  0  0  0  0  0  0  0  0  0  0
    4.2014   -4.8824    0.0000 C   0  0  0  0  0  0  0  0  0  0  0  0
    5.0209   -4.9778    0.0000 C   0  0  0  0  0  0  0  0  0  0  0  0
    5.3480   -5.7351    0.0000 C   0  0  0  0  0  0  0  0  0  0  0  0
    4.8557   -6.3971    0.0000 C   0  0  0  0  0  0  0  0  0  0  0  0
    4.0362   -6.3017    0.0000 C   0  0  0  0  0  0  0  0  0  0  0  0
    3.7091   -5.5444    0.0000 C   0  0  0  0  0  0  0  0  0  0  0  0
    4.3666   -3.4630    0.0000 C   0  0  0  0  0  0  0  0  0  0  0  0
    4.0395   -2.7056    0.0000 C   0  0  0  0  0  0  0  0  0  0  0  0
    4.5318   -2.0437    0.0000 C   0  0  0  0  0  0  0  0  0  0  0  0
    5.3513   -2.1390    0.0000 C   0  0  0  0  0  0  0  0  0  0  0  0
    5.6784   -2.8964    0.0000 C   0  0  0  0  0  0  0  0  0  0  0  0
    5.1861   -3.5584    0.0000 C   0  0  0  0  0  0  0  0  0  0  0  0
    2.4815   -2.4848    0.0000 C   0  0  0  0  0  0  0  0  0  0  0  0
    3.0404   -1.8779    0.0000 C   0  0  0  0  0  0  0  0  0  0  0  0
    2.7942   -1.0905    0.0000 C   0  0  0  0  0  0  0  0  0  0  0  0
    1.9892   -0.9100    0.0000 Cl  0  0  0  0  0  0  0  0  0  0  0  0
    3.3530   -0.4836    0.0000 C   0  0  0  0  0  0  0  0  0  0  0  0
    4.1580   -0.6641    0.0000 C   0  0  0  0  0  0  0  0  0  0  0  0
    4.4042   -1.4516    0.0000 C   0  0  0  0  0  0  0  0  0  0  0  0
    3.8454   -2.0584    0.0000 C   0  0  0  0  0  0  0  0  0  0  0  0
    3.1069    0.3038    0.0000 C   0  0  0  0  0  0  0  0  0  0  0  0
    2.8607    1.0912    0.0000 F   0  0  0  0  0  0  0  0  0  0  0  0
    3.8943    0.5500    0.0000 F   0  0  0  0  0  0  0  0  0  0  0  0
    2.3194    0.0576    0.0000 F   0  0  0  0  0  0  0  0  0  0  0  0
  2  1  1  6
  2  3  1  0
  2 16  1  0
  3  4  1  0
  4  5  1  0
  5  6  1  0
  6  7  2  0
  6 15  1  0
  7  8  1  0
  8  9  1  0
  8 13  2  0
  9 10  1  0
 10 11  1  0
 10 12  2  0
 13 14  1  0
 14 15  2  0
 16 17  1  0
 16 31  1  0
 17 18  1  0
 18 19  1  0
 18 25  1  0
 19 20  2  0
 19 24  1  0
 20 21  1  0
 21 22  2  0
 22 23  1  0
 23 24  2  0
 25 26  2  0
 25 30  1  0
 26 27  1  0
 27 28  2  0
 28 29  1  0
 29 30  2  0
 31 32  1  0
 32 33  2  0
 32 38  1  0
 33 34  1  0
 33 35  1  0
 35 36  2  0
 35 39  1  0
 36 37  1  0
 37 38  2  0
 39 40  1  0
 39 41  1  0
 39 42  1  0
M  END
>  <DRUGBANK_ID>  (1) 
DB17146

>  <COMMON_NAME>  (1) 
Abequolixron

>  <CAS_NUMBER>  (1) 
610318-54-2

>  <UNII>  (1) 
Q26B92650V

>  <SYNONYMS>  (1) 
(3-((3r)-3-(((2-chloro-3-(trifluoromethyl)phenyl)methyl)(2,2- diphenylethyl)amino)butoxy)phenyl)acetic acid; 2-(3-((3r)-3-(((2-chloro-3-(trifluoromethyl)phenyl)methyl)(2,2-diphenylethyl)amino)butoxy)phenyl)acetic acid; 2-{3-[(3R)-3-({[2-chloro-3-(trifluoromethyl)phenyl]methyl}(2,2-diphenylethyl)amino)butoxy]phenyl}acetic acid; Benzeneacetic acid, 3-((3r)-3-(((2-chloro-3-(trifluoromethyl)phenyl)methyl)(2,2-diphenylethyl)amino)butoxy)-

$$$$
