
     RDKit          2D

 30 33  0  0  0  0  0  0  0  0999 V2000
    2.7512   -6.6616    0.0000 C   0  0  0  0  0  0  0  0  0  0  0  0
    2.7512   -7.4866    0.0000 N   0  0  0  0  0  0  0  0  0  0  0  0
    3.4186   -7.9715    0.0000 C   0  0  0  0  0  0  0  0  0  0  0  0
    3.1637   -8.7562    0.0000 C   0  0  0  0  0  0  0  0  0  0  0  0
    3.6486   -9.4236    0.0000 C   0  0  0  0  0  0  0  0  0  0  0  0
    3.3130  -10.1773    0.0000 N   0  0  0  0  0  0  0  0  0  0  0  0
    3.7980  -10.8447    0.0000 C   0  0  0  0  0  0  0  0  0  0  0  0
    3.4624  -11.5984    0.0000 C   0  0  0  0  0  0  0  0  0  0  0  0
    2.6419  -11.6846    0.0000 C   0  0  0  0  0  0  0  0  0  0  0  0
    2.1570  -11.0172    0.0000 C   0  0  0  0  0  0  0  0  0  0  0  0
    2.4926  -10.2635    0.0000 C   0  0  0  0  0  0  0  0  0  0  0  0
    2.3064  -12.4383    0.0000 C   0  0  0  0  0  0  0  0  0  0  0  0
    2.7913  -13.1057    0.0000 C   0  0  0  0  0  0  0  0  0  0  0  0
    2.4557  -13.8594    0.0000 C   0  0  0  0  0  0  0  0  0  0  0  0
    1.6353  -13.9456    0.0000 C   0  0  0  0  0  0  0  0  0  0  0  0
    1.1503  -13.2782    0.0000 C   0  0  0  0  0  0  0  0  0  0  0  0
    1.4859  -12.5245    0.0000 C   0  0  0  0  0  0  0  0  0  0  0  0
    1.2997  -14.6993    0.0000 C   0  0  0  0  0  0  0  0  0  0  0  0
    0.4792  -14.7856    0.0000 O   0  0  0  0  0  0  0  0  0  0  0  0
    1.7846  -15.3668    0.0000 N   0  0  0  0  0  0  0  0  0  0  0  0
    1.4491  -16.1204    0.0000 C   0  0  0  0  0  0  0  0  0  0  0  0
    1.9340  -16.7879    0.0000 C   0  0  0  0  0  0  0  0  0  0  0  0
    1.5984  -17.5415    0.0000 C   0  0  0  0  0  0  0  0  0  0  0  0
    0.7779  -17.6278    0.0000 C   0  0  0  0  0  0  0  0  0  0  0  0
    0.2930  -16.9603    0.0000 C   0  0  0  0  0  0  0  0  0  0  0  0
    0.6286  -16.2067    0.0000 C   0  0  0  0  0  0  0  0  0  0  0  0
    0.1437  -15.5392    0.0000 N   0  0  0  0  0  0  0  0  0  0  0  0
    2.3387   -8.7562    0.0000 C   0  0  0  0  0  0  0  0  0  0  0  0
    1.8538   -9.4236    0.0000 C   0  0  0  0  0  0  0  0  0  0  0  0
    2.0837   -7.9715    0.0000 N   0  0  0  0  0  0  0  0  0  0  0  0
  1  2  1  0
  2  3  1  0
  2 30  1  0
  3  4  2  0
  4  5  1  0
  4 28  1  0
  5  6  1  0
  6  7  1  0
  6 11  1  0
  7  8  1  0
  8  9  1  0
  9 10  1  0
  9 12  1  0
 10 11  1  0
 12 13  2  0
 12 17  1  0
 13 14  1  0
 14 15  2  0
 15 16  1  0
 15 18  1  0
 16 17  2  0
 18 19  2  0
 18 20  1  0
 20 21  1  0
 21 22  2  0
 21 26  1  0
 22 23  1  0
 23 24  2  0
 24 25  1  0
 25 26  2  0
 26 27  1  0
 28 29  1  0
 28 30  2  0
M  END
>  <DRUGBANK_ID>  (1) 
DB16182

>  <COMMON_NAME>  (1) 
CXD101

>  <CAS_NUMBER>  (1) 
934828-12-3

>  <UNII>  (1) 
5TNV87ICD2

>  <SYNONYMS>  (1) 
Hdac inhibitor cxd101; Hdac-in-4

$$$$
