
     RDKit          2D

 35 38  0  0  1  0  0  0  0  0999 V2000
    3.7674    6.2230    0.0000 C   0  0  0  0  0  0  0  0  0  0  0  0
    3.4318    5.4693    0.0000 C   0  0  0  0  0  0  0  0  0  0  0  0
    2.6114    5.3831    0.0000 O   0  0  0  0  0  0  0  0  0  0  0  0
    3.9168    4.8019    0.0000 N   0  0  0  0  0  0  0  0  0  0  0  0
    4.7372    4.8881    0.0000 C   0  0  0  0  0  0  0  0  0  0  0  0
    5.0728    5.6418    0.0000 C   0  0  0  0  0  0  0  0  0  0  0  0
    5.8933    5.7280    0.0000 C   0  0  0  0  0  0  0  0  0  0  0  0
    6.3782    5.0606    0.0000 C   0  0  0  0  0  0  0  0  0  0  0  0
    6.0426    4.3069    0.0000 C   0  0  0  0  0  0  0  0  0  0  0  0
    5.2222    4.2207    0.0000 C   0  0  0  0  0  0  0  0  0  0  0  0
    4.8866    3.4670    0.0000 N   0  0  0  0  0  0  0  0  0  0  0  0
    5.2991    2.7525    0.0000 C   0  0  0  0  0  0  0  0  0  0  0  0
    4.7471    2.1394    0.0000 C   0  0  0  0  0  0  0  0  0  0  0  0
    3.9934    2.4750    0.0000 C   0  0  0  0  0  0  0  0  0  0  0  0
    3.2789    2.0625    0.0000 N   0  0  0  0  0  0  0  0  0  0  0  0
    3.2789    1.2375    0.0000 C   0  0  0  0  0  0  0  0  0  0  0  0
    3.9934    0.8250    0.0000 N   0  0  0  0  0  0  0  0  0  0  0  0
    3.9934    0.0000    0.0000 C   0  0  0  0  0  0  0  0  0  0  0  0
    3.2789   -0.4125    0.0000 N   0  0  0  0  0  0  0  0  0  0  0  0
    2.5645    0.0000    0.0000 C   0  0  0  0  0  0  0  0  0  0  0  0
    1.7798   -0.2549    0.0000 C   0  0  0  0  0  0  0  0  0  0  0  0
    1.2949    0.4125    0.0000 C   0  0  0  0  0  0  0  0  0  0  0  0
    1.7798    1.0799    0.0000 N   0  0  0  0  0  0  0  0  0  0  0  0
    2.5645    0.8250    0.0000 N   0  0  0  0  0  0  0  0  0  0  0  0
    0.4699    0.4125    0.0000 C   0  0  0  0  0  0  0  0  0  0  0  0
   -0.3551    0.4125    0.0000 C   0  0  0  0  0  0  0  0  0  0  0  0
    0.4699   -0.4125    0.0000 C   0  0  0  0  0  0  0  0  0  0  0  0
    0.4699    1.2375    0.0000 C   0  0  0  0  0  0  0  0  0  0  0  0
    4.0796    3.2955    0.0000 C   0  0  0  0  0  0  0  0  0  0  0  0
    3.4665    3.8475    0.0000 O   0  0  0  0  0  0  0  0  0  0  0  0
    6.2288    6.4817    0.0000 N   0  0  0  0  0  0  0  0  0  0  0  0
    5.7439    7.1491    0.0000 C   0  0  0  0  0  0  0  0  0  0  0  0
    5.2590    7.8166    0.0000 C   0  0  0  0  0  0  0  0  0  0  0  0
    6.4114    7.6341    0.0000 C   0  0  0  0  0  0  0  0  0  0  0  0
    5.0765    6.6642    0.0000 C   0  0  0  0  0  0  0  0  0  0  0  0
  1  2  1  0
  2  3  2  0
  2  4  1  0
  5  4  1  6
  5  6  1  0
  5 10  1  0
  7  6  1  0
  7  8  1  0
  7 31  1  6
  8  9  1  0
 10  9  1  0
 10 11  1  6
 11 12  1  0
 11 29  1  0
 12 13  1  0
 14 13  1  0
 14 15  1  6
 14 29  1  0
 15 16  1  0
 16 17  2  0
 16 24  1  0
 17 18  1  0
 18 19  2  0
 19 20  1  0
 20 21  2  0
 20 24  1  0
 21 22  1  0
 22 23  2  0
 22 25  1  0
 23 24  1  0
 25 26  1  0
 25 27  1  0
 25 28  1  0
 29 30  2  0
 31 32  1  0
 32 33  1  0
 32 34  1  0
 32 35  1  0
M  END
>  <DRUGBANK_ID>  (1) 
DB16240

>  <COMMON_NAME>  (1) 
BMS-813160

>  <CAS_NUMBER>  (1) 
1286279-29-5

>  <UNII>  (1) 
83U7957287

$$$$
