
     RDKit          2D

 33 36  0  0  0  0  0  0  0  0999 V2000
    5.8714   -0.4706    0.0000 C   0  0  0  0  0  0  0  0  0  0  0  0
    5.0645   -0.6422    0.0000 S   0  0  0  0  0  0  0  0  0  0  0  0
    4.8929    0.1648    0.0000 O   0  0  0  0  0  0  0  0  0  0  0  0
    5.2360   -1.4491    0.0000 O   0  0  0  0  0  0  0  0  0  0  0  0
    4.2575   -0.8137    0.0000 N   0  0  0  0  0  0  0  0  0  0  0  0
    3.7054   -0.2006    0.0000 C   0  0  0  0  0  0  0  0  0  0  0  0
    3.9604    0.5840    0.0000 C   0  0  0  0  0  0  0  0  0  0  0  0
    3.4084    1.1971    0.0000 C   0  0  0  0  0  0  0  0  0  0  0  0
    2.6014    1.0256    0.0000 C   0  0  0  0  0  0  0  0  0  0  0  0
    2.3464    0.2410    0.0000 C   0  0  0  0  0  0  0  0  0  0  0  0
    2.8985   -0.3721    0.0000 C   0  0  0  0  0  0  0  0  0  0  0  0
    1.5214    0.2410    0.0000 C   0  0  0  0  0  0  0  0  0  0  0  0
    0.9694   -0.3721    0.0000 C   0  0  0  0  0  0  0  0  0  0  0  0
    0.1624   -0.2006    0.0000 C   0  0  0  0  0  0  0  0  0  0  0  0
   -0.0925    0.5840    0.0000 C   0  0  0  0  0  0  0  0  0  0  0  0
    0.4595    1.1971    0.0000 C   0  0  0  0  0  0  0  0  0  0  0  0
    1.2665    1.0256    0.0000 C   0  0  0  0  0  0  0  0  0  0  0  0
    1.9339    1.5105    0.0000 O   0  0  0  0  0  0  0  0  0  0  0  0
    0.2046    1.9817    0.0000 O   0  0  0  0  0  0  0  0  0  0  0  0
   -0.6024    2.1533    0.0000 C   0  0  0  0  0  0  0  0  0  0  0  0
   -1.1544    1.5402    0.0000 F   0  0  0  0  0  0  0  0  0  0  0  0
   -0.8573    2.9379    0.0000 F   0  0  0  0  0  0  0  0  0  0  0  0
    1.2243   -1.1567    0.0000 C   0  0  0  0  0  0  0  0  0  0  0  0
    0.6723   -1.7698    0.0000 O   0  0  0  0  0  0  0  0  0  0  0  0
    2.0313   -1.3283    0.0000 N   0  0  0  0  0  0  0  0  0  0  0  0
    2.2863   -2.1129    0.0000 C   0  0  0  0  0  0  0  0  0  0  0  0
    3.0932   -2.2844    0.0000 C   0  0  0  0  0  0  0  0  0  0  0  0
    3.3482   -3.0690    0.0000 C   0  0  0  0  0  0  0  0  0  0  0  0
    2.7961   -3.6821    0.0000 N   0  0  0  0  0  0  0  0  0  0  0  0
    1.9892   -3.5106    0.0000 C   0  0  0  0  0  0  0  0  0  0  0  0
    1.7342   -2.7260    0.0000 C   0  0  0  0  0  0  0  0  0  0  0  0
    0.9273   -2.5545    0.0000 Cl  0  0  0  0  0  0  0  0  0  0  0  0
    3.6453   -1.6713    0.0000 Cl  0  0  0  0  0  0  0  0  0  0  0  0
  1  2  1  0
  2  3  2  0
  2  4  2  0
  2  5  1  0
  5  6  1  0
  6  7  2  0
  6 11  1  0
  7  8  1  0
  8  9  2  0
  9 10  1  0
  9 18  1  0
 10 11  2  0
 10 12  1  0
 12 13  2  0
 12 17  1  0
 13 14  1  0
 13 23  1  0
 14 15  2  0
 15 16  1  0
 16 17  2  0
 16 19  1  0
 17 18  1  0
 19 20  1  0
 20 21  1  0
 20 22  1  0
 23 24  2  0
 23 25  1  0
 25 26  1  0
 26 27  2  0
 26 31  1  0
 27 28  1  0
 27 33  1  0
 28 29  2  0
 29 30  1  0
 30 31  2  0
 31 32  1  0
M  END
>  <DRUGBANK_ID>  (1) 
DB12375

>  <COMMON_NAME>  (1) 
Oglemilast

>  <CAS_NUMBER>  (1) 
778576-62-8

>  <UNII>  (1) 
67GXQ6WCC6

>  <SYNONYMS>  (1) 
Oglemilast

$$$$
