OVA
     RDKit          2D

 21 22  0  0  0  0  0  0  0  0999 V2000
   -1.6475    2.0271    0.0000 C   0  0  0  0  0  0  0  0  0  0  0  0
   -0.8305    1.9123    0.0000 C   0  0  0  0  0  0  0  0  0  0  0  0
   -0.5215    1.1473    0.0000 C   0  0  0  0  0  0  0  0  0  0  0  0
   -1.0294    0.4972    0.0000 C   0  0  0  0  0  0  0  0  0  0  0  0
   -1.8464    0.6120    0.0000 C   0  0  0  0  0  0  0  0  0  0  0  0
   -2.1554    1.3770    0.0000 C   0  0  0  0  0  0  0  0  0  0  0  0
   -1.9896   -0.2004    0.0000 O   0  0  0  0  0  0  0  0  0  0  0  0
   -2.6000    0.2765    0.0000 C   0  0  0  0  0  0  0  0  0  0  0  0
   -0.3974   -0.0331    0.0000 C   0  0  0  0  0  0  0  0  0  0  0  0
    0.0151   -0.7476    0.0000 C   0  0  0  0  0  0  0  0  0  0  0  0
    0.7296   -1.1601    0.0000 C   0  0  0  0  0  0  0  0  0  0  0  0
    1.4440   -0.7476    0.0000 C   0  0  0  0  0  0  0  0  0  0  0  0
    2.1585   -1.1601    0.0000 C   0  0  0  0  0  0  0  0  0  0  0  0
    0.2346    0.4972    0.0000 C   0  0  0  0  0  0  0  0  0  0  0  0
   -0.8099   -0.7476    0.0000 O   0  0  0  0  0  0  0  0  0  0  0  0
    2.8730   -0.7476    0.0000 C   0  0  0  0  0  0  0  0  0  0  0  0
    2.1585   -1.9851    0.0000 C   0  0  0  0  0  0  0  0  0  0  0  0
    0.2955    1.0325    0.0000 O   0  0  0  0  0  0  0  0  0  0  0  0
    0.6046    0.2676    0.0000 C   0  0  0  0  0  0  0  0  0  0  0  0
   -0.3226    2.5624    0.0000 O   0  0  0  0  0  0  0  0  0  0  0  0
   -1.1156   -0.3233    0.0000 O   0  0  0  0  0  0  0  0  0  0  0  0
  1  2  1  0
  1  6  1  0
  2  3  1  0
  2 20  2  0
  3  4  1  0
  3 18  1  1
  4  5  1  0
  4 21  1  1
  5  6  1  0
  5  7  1  0
  5  8  1  1
  9  4  1  0
  9 10  1  0
  9 14  1  1
  9 15  1  0
 10 11  1  1
 10 15  1  0
 11 12  1  0
 12 13  2  3
 13 16  1  0
 13 17  1  0
 18 19  1  0
M  END
>  <DRUGBANK_ID>  (1) 
DB04324

>  <SECONDARY_ACCESSION_NUMBERS>  (1) 
EXPT02454

>  <COMMON_NAME>  (1) 
Ovalicin

$$$$
