
     RDKit          2D

 21 23  0  0  0  0  0  0  0  0999 V2000
   -0.3470    0.3917    0.0000 C   0  0  0  0  0  0  0  0  0  0  0  0
    0.2979   -0.1226    0.0000 C   0  0  0  0  0  0  0  0  0  0  0  0
   -0.3470    1.2167    0.0000 C   0  0  0  0  0  0  0  0  0  0  0  0
   -1.1316    0.1367    0.0000 C   0  0  0  0  0  0  0  0  0  0  0  0
    0.1143   -0.9269    0.0000 C   0  0  0  0  0  0  0  0  0  0  0  0
    1.1022    0.0609    0.0000 N   0  0  0  0  0  0  0  0  0  0  0  0
   -1.1316    1.4716    0.0000 N   0  0  0  0  0  0  0  0  0  0  0  0
    0.2979    1.7312    0.0000 N   0  0  0  0  0  0  0  0  0  0  0  0
   -1.6166    0.8042    0.0000 N   0  0  0  0  0  0  0  0  0  0  0  0
   -1.3866   -0.6478    0.0000 C   0  0  0  0  0  0  0  0  0  0  0  0
    0.7191   -1.4880    0.0000 C   0  0  0  0  0  0  0  0  0  0  0  0
   -0.6739   -1.1701    0.0000 C   0  0  0  0  0  0  0  0  0  0  0  0
    1.4602    0.8042    0.0000 C   0  0  0  0  0  0  0  0  0  0  0  0
   -1.3866    2.2563    0.0000 C   0  0  0  0  0  0  0  0  0  0  0  0
    1.1022    1.5475    0.0000 C   0  0  0  0  0  0  0  0  0  0  0  0
    0.1143    2.5355    0.0000 C   0  0  0  0  0  0  0  0  0  0  0  0
    0.5355   -2.2923    0.0000 C   0  0  0  0  0  0  0  0  0  0  0  0
    1.5074   -1.2449    0.0000 F   0  0  0  0  0  0  0  0  0  0  0  0
   -0.8575   -1.9744    0.0000 C   0  0  0  0  0  0  0  0  0  0  0  0
    1.6166    2.1926    0.0000 O   0  0  0  0  0  0  0  0  0  0  0  0
   -0.2527   -2.5355    0.0000 C   0  0  0  0  0  0  0  0  0  0  0  0
  1  2  1  0
  1  3  2  0
  1  4  1  0
  2  5  1  0
  2  6  2  0
  3  7  1  0
  3  8  1  0
  4  9  2  0
  4 10  1  0
  5 11  2  0
  5 12  1  0
  6 13  1  0
  7 14  1  0
  7  9  1  0
  8 15  1  0
  8 16  1  0
 11 17  1  0
 11 18  1  0
 12 19  2  0
 13 15  1  0
 15 20  2  0
 17 21  2  0
 19 21  1  0
M  END
>  <DRUGBANK_ID>  (1) 
DB11555

>  <COMMON_NAME>  (1) 
Zolazepam

>  <CAS_NUMBER>  (1) 
31352-82-6

>  <UNII>  (1) 
G1R474U58U

>  <SYNONYMS>  (1) 
Zolazepam; Zolazepamum

$$$$
