
     RDKit          2D

 28 31  0  0  0  0  0  0  0  0999 V2000
    3.5724    0.1202    0.0000 C   0  0  0  0  0  0  0  0  0  0  0  0
    4.3825   -0.0357    0.0000 N   0  0  0  0  0  0  0  0  0  0  0  0
    4.9226    0.5880    0.0000 C   0  0  0  0  0  0  0  0  0  0  0  0
    5.7327    0.4321    0.0000 C   0  0  0  0  0  0  0  0  0  0  0  0
    6.2728    1.0557    0.0000 C   0  0  0  0  0  0  0  0  0  0  0  0
    7.0829    0.8998    0.0000 C   0  0  0  0  0  0  0  0  0  0  0  0
    7.3530    0.1202    0.0000 C   0  0  0  0  0  0  0  0  0  0  0  0
    6.8129   -0.5034    0.0000 O   0  0  0  0  0  0  0  0  0  0  0  0
    7.0829   -1.2829    0.0000 C   0  0  0  0  0  0  0  0  0  0  0  0
    6.5428   -1.9066    0.0000 C   0  0  0  0  0  0  0  0  0  0  0  0
    6.8129   -2.6861    0.0000 C   0  0  0  0  0  0  0  0  0  0  0  0
    7.6230   -2.8421    0.0000 C   0  0  0  0  0  0  0  0  0  0  0  0
    8.1631   -2.2184    0.0000 C   0  0  0  0  0  0  0  0  0  0  0  0
    7.8931   -1.4389    0.0000 C   0  0  0  0  0  0  0  0  0  0  0  0
    6.2728   -3.3098    0.0000 C   0  0  0  0  0  0  0  0  0  0  0  0
    6.5428   -4.0893    0.0000 C   0  0  0  0  0  0  0  0  0  0  0  0
    6.0028   -4.7130    0.0000 C   0  0  0  0  0  0  0  0  0  0  0  0
    5.1926   -4.5571    0.0000 N   0  0  0  0  0  0  0  0  0  0  0  0
    4.9226   -3.7775    0.0000 C   0  0  0  0  0  0  0  0  0  0  0  0
    4.1124   -3.6216    0.0000 N   0  0  0  0  0  0  0  0  0  0  0  0
    3.8424   -2.8421    0.0000 C   0  0  0  0  0  0  0  0  0  0  0  0
    3.0323   -2.6861    0.0000 C   0  0  0  0  0  0  0  0  0  0  0  0
    2.7622   -1.9066    0.0000 C   0  0  0  0  0  0  0  0  0  0  0  0
    3.3023   -1.2829    0.0000 C   0  0  0  0  0  0  0  0  0  0  0  0
    4.1124   -1.4389    0.0000 C   0  0  0  0  0  0  0  0  0  0  0  0
    4.6525   -0.8152    0.0000 C   0  0  0  0  0  0  0  0  0  0  0  0
    4.3825   -2.2184    0.0000 C   0  0  0  0  0  0  0  0  0  0  0  0
    5.4627   -3.1539    0.0000 N   0  0  0  0  0  0  0  0  0  0  0  0
  1  2  1  0
  2  3  1  0
  2 26  1  0
  3  4  1  0
  4  5  2  0
  5  6  1  0
  6  7  1  0
  7  8  1  0
  8  9  1  0
  9 10  1  0
  9 14  2  0
 10 11  2  0
 11 12  1  0
 11 15  1  0
 12 13  2  0
 13 14  1  0
 15 16  1  0
 15 28  2  0
 16 17  2  0
 17 18  1  0
 18 19  2  0
 19 20  1  0
 19 28  1  0
 20 21  1  0
 21 22  1  0
 21 27  2  0
 22 23  2  0
 23 24  1  0
 24 25  2  0
 25 26  1  0
 25 27  1  0
M  END
>  <DRUGBANK_ID>  (1) 
DB16656

>  <COMMON_NAME>  (1) 
Zotiraciclib

>  <CAS_NUMBER>  (1) 
1204918-72-8

>  <UNII>  (1) 
40D08182TT

$$$$
