
     RDKit          2D

 23 24  0  0  0  0  0  0  0  0999 V2000
    3.7806    0.7462    0.0000 O   0  0  0  0  0  0  0  0  0  0  0  0
    3.1132    1.2311    0.0000 C   0  0  0  0  0  0  0  0  0  0  0  0
    2.4458    0.7462    0.0000 C   0  0  0  0  0  0  0  0  0  0  0  0
    2.7007   -0.0384    0.0000 C   0  0  0  0  0  0  0  0  0  0  0  0
    3.5257   -0.0384    0.0000 C   0  0  0  0  0  0  0  0  0  0  0  0
    3.1132    2.0561    0.0000 C   0  0  0  0  0  0  0  0  0  0  0  0
    1.6611    1.0011    0.0000 C   0  0  0  0  0  0  0  0  0  0  0  0
    1.4896    1.8081    0.0000 S   0  0  0  0  0  0  0  0  0  0  0  0
    1.0480    0.4491    0.0000 N   0  0  0  0  0  0  0  0  0  0  0  0
    0.2634    0.7040    0.0000 C   0  0  0  0  0  0  0  0  0  0  0  0
   -0.3496    0.1520    0.0000 C   0  0  0  0  0  0  0  0  0  0  0  0
   -1.1343    0.4069    0.0000 C   0  0  0  0  0  0  0  0  0  0  0  0
   -1.3057    1.2139    0.0000 C   0  0  0  0  0  0  0  0  0  0  0  0
   -0.6927    1.7659    0.0000 C   0  0  0  0  0  0  0  0  0  0  0  0
    0.0919    1.5110    0.0000 C   0  0  0  0  0  0  0  0  0  0  0  0
   -2.0903    1.4688    0.0000 Cl  0  0  0  0  0  0  0  0  0  0  0  0
   -1.7473   -0.1450    0.0000 C   0  0  0  0  0  0  0  0  0  0  0  0
   -2.5319    0.1098    0.0000 N   0  0  0  0  0  0  0  0  0  0  0  0
   -3.1451   -0.4421    0.0000 O   0  0  0  0  0  0  0  0  0  0  0  0
   -2.9736   -1.2491    0.0000 C   0  0  0  0  0  0  0  0  0  0  0  0
   -2.8021   -2.0561    0.0000 C   0  0  0  0  0  0  0  0  0  0  0  0
   -3.7806   -1.4206    0.0000 C   0  0  0  0  0  0  0  0  0  0  0  0
   -2.1666   -1.0776    0.0000 C   0  0  0  0  0  0  0  0  0  0  0  0
  2  1  1  0
  2  3  2  0
  2  6  1  0
  4  3  1  0
  4  5  2  0
  5  1  1  0
  7  3  1  0
  7  8  2  0
  7  9  1  0
 10  9  1  0
 10 11  2  0
 10 15  1  0
 11 12  1  0
 12 13  2  0
 12 17  1  0
 13 14  1  0
 13 16  1  0
 14 15  2  0
 17 18  2  0
 18 19  1  0
 20 19  1  0
 20 21  1  0
 20 22  1  0
 20 23  1  0
M  END
>  <DRUGBANK_ID>  (1) 
DB08680

>  <COMMON_NAME>  (1) 
N-{3-[(E)-(tert-butoxyimino)methyl]-4-chlorophenyl}-2-methylfuran-3-carbimidothioic acid

>  <CAS_NUMBER>  (1) 
172998-57-1

>  <UNII>  (1) 
9ES58KV6YB

$$$$
