1593
     RDKit          2D

  1  0  0  0  0  0  0  0  0  0999 V2000
    2.0000    0.0000    0.0000 Zn  0  0  0  0  0 15  0  0  0  0  0  0
M  END
>  <DRUGBANK_ID>  (1) 
DB01593

>  <COMMON_NAME>  (1) 
Zinc

>  <CAS_NUMBER>  (1) 
7440-66-6

>  <UNII>  (1) 
J41CSQ7QDS

>  <SYNONYMS>  (1) 
Zinc, chelated; Zinc, elemental; Zincum metallicum; Zn

$$$$
