
     RDKit          2D

 38 43  0  0  0  0  0  0  0  0999 V2000
   -2.4134   -1.1344    0.0000 C   0  0  0  0  0  0  0  0  0  0  0  0
   -2.4134   -1.9595    0.0000 C   0  0  0  0  0  0  0  0  0  0  0  0
   -1.7120   -2.3721    0.0000 C   0  0  0  0  0  0  0  0  0  0  0  0
   -0.9694   -1.9595    0.0000 C   0  0  0  0  0  0  0  0  0  0  0  0
   -0.9694   -1.1344    0.0000 C   0  0  0  0  0  0  0  0  0  0  0  0
   -1.7120   -0.7220    0.0000 C   0  0  0  0  0  0  0  0  0  0  0  0
   -0.2681   -2.3721    0.0000 C   0  0  0  0  0  0  0  0  0  0  0  0
    0.4332   -1.9595    0.0000 C   0  0  0  0  0  0  0  0  0  0  0  0
    0.4332   -1.1344    0.0000 C   0  0  0  0  0  0  0  0  0  0  0  0
   -0.2681   -0.7220    0.0000 C   0  0  0  0  0  0  0  0  0  0  0  0
    1.1757   -0.7220    0.0000 C   0  0  0  0  0  0  0  0  0  0  0  0
    1.1757    0.1031    0.0000 C   0  0  0  0  0  0  0  0  0  0  0  0
    0.4332    0.5157    0.0000 C   0  0  0  0  0  0  0  0  0  0  0  0
   -0.2681    0.1031    0.0000 C   0  0  0  0  0  0  0  0  0  0  0  0
    2.5784   -0.7220    0.0000 C   0  0  0  0  0  0  0  0  0  0  0  0
    2.5784    0.1031    0.0000 C   0  0  0  0  0  0  0  0  0  0  0  0
    1.8770    0.5157    0.0000 C   0  0  0  0  0  0  0  0  0  0  0  0
   -3.1147   -2.3721    0.0000 O   0  0  0  0  0  0  0  0  0  0  0  0
   -3.1147   -0.7220    0.0000 N   0  0  0  0  0  0  0  0  0  0  0  0
   -0.9694   -0.3093    0.0000 C   0  0  0  0  0  0  0  0  0  0  0  0
    1.1757    0.9281    0.0000 C   0  0  0  0  0  0  0  0  0  0  0  0
    3.2797    0.5157    0.0000 N   0  0  0  0  0  0  0  0  0  0  0  0
    1.8770    1.5470    0.0000 O   0  0  0  0  0  0  0  0  0  0  0  0
    3.2797    1.3407    0.0000 C   0  0  0  0  0  0  0  0  0  0  0  0
    1.1757    1.9595    0.0000 C   0  0  0  0  0  0  0  0  0  0  0  0
    0.4744    1.5470    0.0000 C   0  0  0  0  0  0  0  0  0  0  0  0
    1.1757    2.7846    0.0000 O   0  0  0  0  0  0  0  0  0  0  0  0
    4.0636    0.2680    0.0000 C   0  0  0  0  0  0  0  0  0  0  0  0
    4.5587    0.9281    0.0000 C   0  0  0  0  0  0  0  0  0  0  0  0
    4.0636    1.5882    0.0000 C   0  0  0  0  0  0  0  0  0  0  0  0
    3.2797   -0.3093    0.0000 C   0  0  0  0  0  0  0  0  0  0  0  0
    3.9811   -0.7220    0.0000 C   0  0  0  0  0  0  0  0  0  0  0  0
    3.9811   -1.5470    0.0000 C   0  0  0  0  0  0  0  0  0  0  0  0
   -3.1147    0.1031    0.0000 C   0  0  0  0  0  0  0  0  0  0  0  0
   -3.8573    0.5157    0.0000 C   0  0  0  0  0  0  0  0  0  0  0  0
   -4.5587    0.1031    0.0000 O   0  0  0  0  0  0  0  0  0  0  0  0
   -4.5587   -0.7220    0.0000 C   0  0  0  0  0  0  0  0  0  0  0  0
   -3.8573   -1.1344    0.0000 C   0  0  0  0  0  0  0  0  0  0  0  0
  1  2  1  0
  1  6  1  0
  1 19  1  1
  2  3  1  0
  2 18  1  6
  4  3  1  1
  4  5  1  0
  4  7  1  0
  5  6  1  0
  5 10  1  0
  5 20  1  1
  7  8  1  0
  9  8  1  6
  9 10  1  0
  9 11  1  0
 10 14  1  1
 11 12  1  0
 11 15  1  1
 12 13  1  0
 12 17  1  0
 12 21  1  1
 13 14  1  0
 15 16  1  0
 16 17  1  0
 16 22  1  1
 17 23  1  1
 19 34  1  0
 19 38  1  0
 22 24  1  0
 22 28  1  0
 22 31  1  0
 23 25  1  0
 24 30  1  0
 25 26  1  0
 25 27  2  0
 28 29  1  0
 29 30  1  0
 31 32  1  0
 32 33  2  0
 34 35  1  0
 35 36  1  0
 36 37  1  0
 37 38  1  0
M  CHG  1  22   1
M  END
>  <DRUGBANK_ID>  (1) 
DB00728

>  <SECONDARY_ACCESSION_NUMBERS>  (1) 
APRD01221

>  <COMMON_NAME>  (1) 
Rocuronium

>  <CAS_NUMBER>  (1) 
143558-00-3

>  <UNII>  (1) 
WRE554RFEZ

>  <SYNONYMS>  (1) 
Rocuronio; Rocuronium

$$$$
