PS0
     RDKit          2D

 12 12  0  0  0  0  0  0  0  0999 V2000
   -0.4858    0.9907    0.0000 N   0  0  0  0  0  0  0  0  0  0  0  0
    0.2287    0.5782    0.0000 C   0  0  0  0  0  0  0  0  0  0  0  0
    0.9431    0.9907    0.0000 C   0  0  0  0  0  0  0  0  0  0  0  0
    0.9431    1.8157    0.0000 O   0  0  0  0  0  0  0  0  0  0  0  0
    0.2287   -0.2468    0.0000 C   0  0  0  0  0  0  0  0  0  0  0  0
   -0.4858   -0.6593    0.0000 C   0  0  0  0  0  0  0  0  0  0  0  0
   -0.4858   -1.4843    0.0000 C   0  0  0  0  0  0  0  0  0  0  0  0
   -1.2003   -0.2468    0.0000 C   0  0  0  0  0  0  0  0  0  0  0  0
   -1.2003   -1.8968    0.0000 C   0  0  0  0  0  0  0  0  0  0  0  0
   -1.9148   -0.6593    0.0000 C   0  0  0  0  0  0  0  0  0  0  0  0
   -1.9148   -1.4843    0.0000 C   0  0  0  0  0  0  0  0  0  0  0  0
    1.6576    0.5782    0.0000 C   0  0  0  0  0  0  0  0  0  0  0  0
  2  1  1  6
  2  3  1  0
  2  5  1  0
  3  4  1  0
  3 12  1  1
  5  6  1  0
  6  7  2  0
  6  8  1  0
  7  9  1  0
  8 10  2  0
  9 11  2  0
 10 11  1  0
M  END
>  <DRUGBANK_ID>  (1) 
DB08428

>  <COMMON_NAME>  (1) 
3(S)-AMINO-4-PHENYL-BUTAN-2(S)-OL

$$$$
