
     RDKit          2D

 22 20  0  0  0  0  0  0  0  0999 V2000
   -1.0765    1.5502    0.0000 C   0  0  0  0  0  0  0  0  0  0  0  0
   -0.3711    1.9661    0.0000 C   0  0  0  0  0  0  0  0  0  0  0  0
   -1.7962    1.9661    0.0000 C   0  0  0  0  0  0  0  0  0  0  0  0
    0.3412    1.5502    0.0000 C   0  0  0  0  0  0  0  0  0  0  0  0
   -2.5088    1.5502    0.0000 N   0  0  0  0  0  0  0  0  0  0  0  0
    1.0575    1.9661    0.0000 C   0  0  0  0  0  0  0  0  0  0  0  0
    0.3412    0.7328    0.0000 N   0  0  0  0  0  0  0  0  0  0  0  0
   -3.2248    1.9661    0.0000 C   0  0  0  0  0  0  0  0  0  0  0  0
    1.7807    1.5502    0.0000 O   0  0  0  0  0  0  0  0  0  0  0  0
    1.0575    2.8089    0.0000 O   0  0  0  0  0  0  0  0  0  0  0  0
   -3.9374    1.5502    0.0000 N   0  0  0  0  0  0  0  0  0  0  0  0
   -3.2248    2.8089    0.0000 N   0  0  0  0  0  0  0  0  0  0  0  0
    1.7939   -1.5714    0.0000 C   0  0  0  0  0  0  0  0  0  0  0  0
    2.5084   -1.9839    0.0000 C   0  0  0  0  0  0  0  0  0  0  0  0
    1.0795   -1.9839    0.0000 C   0  0  0  0  0  0  0  0  0  0  0  0
    3.2228   -1.5714    0.0000 C   0  0  0  0  0  0  0  0  0  0  0  0
    2.5084   -2.8089    0.0000 N   0  0  0  0  0  0  0  0  0  0  0  0
    0.3649   -1.5714    0.0000 C   0  0  0  0  0  0  0  0  0  0  0  0
    3.9374   -1.9839    0.0000 O   0  0  0  0  0  0  0  0  0  0  0  0
    3.2228   -0.7464    0.0000 O   0  0  0  0  0  0  0  0  0  0  0  0
   -0.3494   -1.9839    0.0000 O   0  0  0  0  0  0  0  0  0  0  0  0
    0.3649   -0.7464    0.0000 O   0  0  0  0  0  0  0  0  0  0  0  0
  1  2  1  0
  1  3  1  0
  2  4  1  0
  3  5  1  0
  4  7  1  1
  4  6  1  0
  5  8  1  0
  6  9  1  0
  6 10  2  0
  8 11  1  0
  8 12  2  0
 13 14  1  0
 13 15  1  0
 14 16  1  0
 14 17  1  1
 15 18  1  0
 16 19  1  0
 16 20  2  0
 18 21  1  0
 18 22  2  0
M  END
>  <DRUGBANK_ID>  (1) 
DB13207

>  <COMMON_NAME>  (1) 
Arginine glutamate

>  <CAS_NUMBER>  (1) 
4320-30-3

>  <UNII>  (1) 
TU1X77K34Q

>  <SYNONYMS>  (1) 
2-amino-5-(diaminomethylideneamino)pentanoic acid; 2-amino-5-guanidino-pentanoic acid; 2-aminoglutaric acid; Arginine glutamate; L-Arginine L-glutamate

$$$$
