
     RDKit          2D

 14 14  0  0  0  0  0  0  0  0999 V2000
    1.4289   -0.0000    0.0000 C   0  0  0  0  0  0  0  0  0  0  0  0
    1.4289    0.8250    0.0000 C   0  0  0  0  0  0  0  0  0  0  0  0
    0.0000   -0.0000    0.0000 C   0  0  0  0  0  0  0  0  0  0  0  0
    0.7145   -0.4125    0.0000 C   0  0  0  0  0  0  0  0  0  0  0  0
    0.0000    0.8250    0.0000 C   0  0  0  0  0  0  0  0  0  0  0  0
    0.7145    1.2375    0.0000 C   0  0  0  0  0  0  0  0  0  0  0  0
    0.7145   -1.2375    0.0000 As  0  0  0  0  0  5  0  0  0  0  0  0
   -0.7145    1.2375    0.0000 N   0  0  0  0  0  0  0  0  0  0  0  0
    0.7145    2.0625    0.0000 O   0  0  0  0  0  0  0  0  0  0  0  0
    0.7145   -2.0625    0.0000 O   0  0  0  0  0  0  0  0  0  0  0  0
   -0.1105   -1.2375    0.0000 O   0  0  0  0  0  0  0  0  0  0  0  0
    1.5395   -1.2375    0.0000 O   0  0  0  0  0  0  0  0  0  0  0  0
   -0.7145    2.0625    0.0000 O   0  0  0  0  0  0  0  0  0  0  0  0
   -1.4289    0.8250    0.0000 O   0  0  0  0  0  0  0  0  0  0  0  0
  2  1  2  0
  4  1  1  0
  4  3  2  0
  5  3  1  0
  6  2  1  0
  6  5  2  0
  7  4  1  0
  8  5  1  0
  9  6  1  0
 10  7  1  0
 11  7  1  0
 12  7  2  0
 13  8  1  0
 14  8  2  0
M  CHG  2   8   1  13  -1
M  END
>  <DRUGBANK_ID>  (1) 
DB11458

>  <COMMON_NAME>  (1) 
Roxarsone

>  <CAS_NUMBER>  (1) 
121-19-7

>  <UNII>  (1) 
H5GU9YQL7L

>  <SYNONYMS>  (1) 
2-nitro-1-hydroxybenzene-4-arsonic acid; 3-nitro-4-hydroxybenzenearsonic acid; 3-nitro-4-hydroxyphenylarsonic acid; 4-hydroxy-3-nitrobenzenearsonic acid; 4-hydroxy-3-nitrophenylarsonic acid; Roxarson; Roxarsone; Roxarsonum

$$$$
