
     RDKit          2D

 29 31  0  0  0  0  0  0  0  0999 V2000
   -1.4269    1.4420    0.0000 C   0  0  0  0  0  0  0  0  0  0  0  0
   -2.8534    2.2671    0.0000 C   0  0  0  0  0  0  0  0  0  0  0  0
   -2.8543    1.4404    0.0000 C   0  0  0  0  0  0  0  0  0  0  0  0
   -2.1413    1.0262    0.0000 C   0  0  0  0  0  0  0  0  0  0  0  0
   -1.4263    2.2696    0.0000 C   0  0  0  0  0  0  0  0  0  0  0  0
   -2.1426    2.6783    0.0000 C   0  0  0  0  0  0  0  0  0  0  0  0
   -0.7134    2.6849    0.0000 F   0  0  0  0  0  0  0  0  0  0  0  0
   -0.7118    1.0306    0.0000 N   0  0  0  0  0  0  0  0  0  0  0  0
    0.0020    1.4441    0.0000 C   0  0  0  0  0  0  0  0  0  0  0  0
    0.0008    2.2691    0.0000 O   0  0  0  0  0  0  0  0  0  0  0  0
    0.7171    1.0326    0.0000 N   0  0  0  0  0  0  0  0  0  0  0  0
   -0.7106    0.2055    0.0000 C   0  0  0  0  0  0  0  0  0  0  0  0
   -1.4251   -0.2075    0.0000 C   0  0  0  0  0  0  0  0  0  0  0  0
   -1.4258   -1.0289    0.0000 C   0  0  0  0  0  0  0  0  0  0  0  0
   -0.7126   -1.4443    0.0000 C   0  0  0  0  0  0  0  0  0  0  0  0
    0.0031   -1.0320    0.0000 C   0  0  0  0  0  0  0  0  0  0  0  0
    0.0055   -0.2044    0.0000 N   0  0  0  0  0  0  0  0  0  0  0  0
   -0.7145   -2.2692    0.0000 C   0  0  0  0  0  0  0  0  0  0  0  0
   -1.4300   -2.6802    0.0000 N   0  0  0  0  0  0  0  0  0  0  0  0
   -0.0010   -2.6835    0.0000 O   0  0  0  0  0  0  0  0  0  0  0  0
   -2.1410    0.2012    0.0000 F   0  0  0  0  0  0  0  0  0  0  0  0
    0.7167   -1.4459    0.0000 C   0  0  0  0  0  0  0  0  0  0  0  0
    0.7109   -2.2692    0.0000 C   0  0  0  0  0  0  0  0  0  0  0  0
    1.4238   -2.6830    0.0000 C   0  0  0  0  0  0  0  0  0  0  0  0
    2.1400   -2.2719    0.0000 C   0  0  0  0  0  0  0  0  0  0  0  0
    2.1391   -1.4425    0.0000 C   0  0  0  0  0  0  0  0  0  0  0  0
    1.4256   -1.0325    0.0000 C   0  0  0  0  0  0  0  0  0  0  0  0
    1.4230   -0.2074    0.0000 F   0  0  0  0  0  0  0  0  0  0  0  0
    2.8543   -2.6849    0.0000 F   0  0  0  0  0  0  0  0  0  0  0  0
  1  8  1  0
  1  5  1  0
  2  3  2  0
  3  4  1  0
  4  1  2  0
  4 21  1  0
  5  6  2  0
  5  7  1  0
  6  2  1  0
  8  9  1  0
  8 12  1  0
  9 10  2  0
  9 11  1  0
 12 17  1  0
 12 13  2  0
 13 14  1  0
 14 15  2  0
 15 16  1  0
 15 18  1  0
 16 17  2  0
 16 22  1  0
 18 19  1  0
 18 20  2  0
 22 23  2  0
 23 24  1  0
 24 25  2  0
 25 26  1  0
 25 29  1  0
 26 27  2  0
 27 22  1  0
 27 28  1  0
M  END
>  <DRUGBANK_ID>  (1) 
DB05470

>  <COMMON_NAME>  (1) 
VX-702

>  <CAS_NUMBER>  (1) 
745833-23-2

>  <UNII>  (1) 
527E7SK68P

$$$$
