
     RDKit          2D

 23 23  0  0  0  0  0  0  0  0999 V2000
   -1.4214   -1.1581    0.0000 C   0  0  0  0  0  0  0  0  0  0  0  0
   -2.1345   -0.7526    0.0000 C   0  0  0  0  0  0  0  0  0  0  0  0
   -2.8570   -1.1581    0.0000 N   0  0  0  0  0  0  0  0  0  0  0  0
   -2.8570   -1.9831    0.0000 C   0  0  0  0  0  0  0  0  0  0  0  0
   -2.1345   -2.3886    0.0000 N   0  0  0  0  0  0  0  0  0  0  0  0
   -1.4214   -1.9831    0.0000 C   0  0  0  0  0  0  0  0  0  0  0  0
   -0.5780   -2.5423    0.0000 C   0  0  0  0  0  0  0  0  0  0  0  0
   -3.5701   -2.3886    0.0000 O   0  0  0  0  0  0  0  0  0  0  0  0
   -2.1345    0.0768    0.0000 O   0  0  0  0  0  0  0  0  0  0  0  0
   -0.7084   -0.7526    0.0000 C   0  0  0  0  0  0  0  0  0  0  0  0
   -0.0139   -1.1581    0.0000 C   0  0  0  0  0  0  0  0  0  0  0  0
    0.7084   -0.7526    0.0000 C   0  0  0  0  0  0  0  0  0  0  0  0
    1.4215   -1.1581    0.0000 N   0  0  0  0  0  0  0  0  0  0  0  0
    2.1252   -0.7526    0.0000 C   0  0  0  0  0  0  0  0  0  0  0  0
    2.1252    0.0768    0.0000 C   0  0  0  0  0  0  0  0  0  0  0  0
    2.8429    0.4870    0.0000 S   0  0  0  0  0  0  0  0  0  0  0  0
    3.5701    0.0768    0.0000 O   0  0  0  0  0  0  0  0  0  0  0  0
    2.8429    1.3072    0.0000 C   0  0  0  0  0  0  0  0  0  0  0  0
    3.5701    1.7221    0.0000 S   0  0  0  0  0  0  0  0  0  0  0  0
    3.5701    2.5423    0.0000 C   0  0  0  0  0  0  0  0  0  0  0  0
    2.8429   -1.1581    0.0000 C   0  0  0  0  0  0  0  0  0  0  0  0
    3.5701   -0.7526    0.0000 O   0  0  0  0  0  0  0  0  0  0  0  0
    0.7084    0.0768    0.0000 O   0  0  0  0  0  0  0  0  0  0  0  0
  2  1  1  0
  3  2  1  0
  4  3  1  0
  4  5  1  0
  5  6  1  0
  6  1  2  0
  7  6  1  0
  8  4  2  0
  9  2  2  0
 10  1  1  0
 11 10  2  0
 12 11  1  0
 13 12  1  0
 14 13  1  0
 14 21  1  6
 15 14  1  0
 16 15  1  0
 16 17  1  6
 18 16  1  0
 19 18  1  0
 20 19  1  0
 22 21  1  0
 23 12  2  0
M  CHG  2  16   1  17  -1
M  END
>  <DRUGBANK_ID>  (1) 
DB04222

>  <SECONDARY_ACCESSION_NUMBERS>  (1) 
EXPT02949

>  <COMMON_NAME>  (1) 
Sparsomycin

>  <CAS_NUMBER>  (1) 
1404-64-4

>  <UNII>  (1) 
6C940P63E7

>  <SYNONYMS>  (1) 
Esparsomicina; Sparsomycin; Sparsomycine; Sparsomycinum

$$$$
