
     RDKit          2D

 30 33  0  0  0  0  0  0  0  0999 V2000
   -2.8508    1.6445    0.0000 C   0  0  0  0  0  0  0  0  0  0  0  0
   -2.8520    0.8172    0.0000 C   0  0  0  0  0  0  0  0  0  0  0  0
   -2.1372    0.4042    0.0000 C   0  0  0  0  0  0  0  0  0  0  0  0
   -2.1390    2.0573    0.0000 C   0  0  0  0  0  0  0  0  0  0  0  0
   -2.1414    2.8823    0.0000 O   0  0  0  0  0  0  0  0  0  0  0  0
   -1.4235    1.6482    0.0000 C   0  0  0  0  0  0  0  0  0  0  0  0
   -1.4247    0.8197    0.0000 C   0  0  0  0  0  0  0  0  0  0  0  0
   -0.7117    0.4066    0.0000 C   0  0  0  0  0  0  0  0  0  0  0  0
   -0.7094    2.0637    0.0000 C   0  0  0  0  0  0  0  0  0  0  0  0
   -0.7094    2.8887    0.0000 O   0  0  0  0  0  0  0  0  0  0  0  0
    0.0080    1.6462    0.0000 C   0  0  0  0  0  0  0  0  0  0  0  0
    0.0064    0.8213    0.0000 C   0  0  0  0  0  0  0  0  0  0  0  0
    0.7187    0.4092    0.0000 C   0  0  0  0  0  0  0  0  0  0  0  0
    1.4332    0.8209    0.0000 C   0  0  0  0  0  0  0  0  0  0  0  0
    1.4309    1.6489    0.0000 C   0  0  0  0  0  0  0  0  0  0  0  0
    0.7180    2.0572    0.0000 C   0  0  0  0  0  0  0  0  0  0  0  0
    0.7160    2.8822    0.0000 O   0  0  0  0  0  0  0  0  0  0  0  0
    2.1482    0.4089    0.0000 C   0  0  0  0  0  0  0  0  0  0  0  0
    2.8622    0.8222    0.0000 O   0  0  0  0  0  0  0  0  0  0  0  0
   -0.7123   -0.4182    0.0000 C   0  0  0  0  0  0  0  0  0  0  0  0
   -1.4306   -0.8254    0.0000 O   0  0  0  0  0  0  0  0  0  0  0  0
   -1.4332   -1.6468    0.0000 C   0  0  0  0  0  0  0  0  0  0  0  0
   -0.7209   -2.0637    0.0000 C   0  0  0  0  0  0  0  0  0  0  0  0
   -0.0043   -1.6529    0.0000 C   0  0  0  0  0  0  0  0  0  0  0  0
    0.0000   -0.8253    0.0000 C   0  0  0  0  0  0  0  0  0  0  0  0
   -2.1496   -2.0561    0.0000 C   0  0  0  0  0  0  0  0  0  0  0  0
   -2.8622   -1.6404    0.0000 O   0  0  0  0  0  0  0  0  0  0  0  0
   -0.7246   -2.8887    0.0000 O   0  0  0  0  0  0  0  0  0  0  0  0
    0.7084   -2.0684    0.0000 O   0  0  0  0  0  0  0  0  0  0  0  0
    0.7145   -0.4130    0.0000 O   0  0  0  0  0  0  0  0  0  0  0  0
  1  2  2  0
  2  3  1  0
  3  7  2  0
  4  1  1  0
  4  5  1  0
  6  4  2  0
  6  9  1  0
  6  7  1  0
  7  8  1  0
  8 12  1  0
  9 10  2  0
 11  9  1  0
 11 12  2  0
 12 13  1  0
 13 14  2  0
 14 15  1  0
 14 18  1  0
 15 16  2  0
 16 11  1  0
 16 17  1  0
 18 19  1  0
 20  8  1  1
 20 21  1  0
 20 25  1  0
 21 22  1  0
 22 23  1  0
 22 26  1  1
 23 24  1  0
 23 28  1  6
 24 25  1  0
 24 29  1  1
 25 30  1  6
 26 27  1  0
M  END
>  <DRUGBANK_ID>  (1) 
DB15477

>  <COMMON_NAME>  (1) 
Alloin

>  <CAS_NUMBER>  (1) 
8015-61-0

>  <UNII>  (1) 
W41H6S09F4

>  <SYNONYMS>  (1) 
Aloin; Aloin, Cape; Aloin, curaco

$$$$
