
     RDKit          2D

 27 30  0  0  0  0  0  0  0  0999 V2000
   -2.3857   -1.3433    0.0000 C   0  0  0  0  0  0  0  0  0  0  0  0
   -2.3857   -0.5183    0.0000 C   0  0  0  0  0  0  0  0  0  0  0  0
   -1.6712   -0.1058    0.0000 C   0  0  0  0  0  0  0  0  0  0  0  0
   -1.6712   -1.7558    0.0000 C   0  0  0  0  0  0  0  0  0  0  0  0
   -0.9567   -1.3433    0.0000 C   0  0  0  0  0  0  0  0  0  0  0  0
   -0.2423   -1.7558    0.0000 C   0  0  0  0  0  0  0  0  0  0  0  0
    0.4721   -1.3433    0.0000 C   0  0  0  0  0  0  0  0  0  0  0  0
    0.4721   -0.5183    0.0000 C   0  0  0  0  0  0  0  0  0  0  0  0
    1.1866   -0.1058    0.0000 C   0  0  0  0  0  0  0  0  0  0  0  0
    1.9712   -0.3607    0.0000 C   0  0  0  0  0  0  0  0  0  0  0  0
    2.4561    0.3066    0.0000 C   0  0  0  0  0  0  0  0  0  0  0  0
    1.9712    0.9740    0.0000 C   0  0  0  0  0  0  0  0  0  0  0  0
    1.7137    2.0216    0.0000 C   0  0  0  0  0  0  0  0  0  0  0  0
    2.3033    2.5808    0.0000 C   0  0  0  0  0  0  0  0  0  0  0  0
    1.1866    0.7191    0.0000 C   0  0  0  0  0  0  0  0  0  0  0  0
    1.1866    1.5441    0.0000 C   0  0  0  0  0  0  0  0  0  0  0  0
    0.4721    1.1316    0.0000 C   0  0  0  0  0  0  0  0  0  0  0  0
   -0.2423    0.7191    0.0000 C   0  0  0  0  0  0  0  0  0  0  0  0
   -0.2423   -0.1058    0.0000 C   0  0  0  0  0  0  0  0  0  0  0  0
   -0.9567   -0.5183    0.0000 C   0  0  0  0  0  0  0  0  0  0  0  0
   -0.9567    0.3066    0.0000 C   0  0  0  0  0  0  0  0  0  0  0  0
   -3.1001   -1.7558    0.0000 O   0  0  0  0  0  0  0  0  0  0  0  0
   -0.9567    1.1316    0.0000 O   0  0  0  0  0  0  0  0  0  0  0  0
    0.9168    2.2352    0.0000 O   0  0  0  0  0  0  0  0  0  0  0  0
    3.1001    2.3673    0.0000 O   0  0  0  0  0  0  0  0  0  0  0  0
    2.7189    1.3227    0.0000 O   0  0  0  0  0  0  0  0  0  0  0  0
   -0.2423   -2.5808    0.0000 Cl  0  0  0  0  0  0  0  0  0  0  0  0
  1  2  1  0
  1  4  1  0
  1 22  2  0
  2  3  2  0
  3 20  1  0
  4  5  2  0
  5  6  1  0
  5 20  1  0
  6  7  1  0
  6 27  1  6
  8  7  1  6
  8  9  1  0
  8 19  1  0
  9 10  1  1
  9 15  1  0
 10 11  1  0
 11 12  1  0
 12 13  1  0
 12 15  1  0
 12 26  1  6
 13 14  1  0
 13 24  2  0
 14 25  1  0
 15 16  1  1
 15 17  1  0
 17 18  1  0
 19 18  1  1
 18 23  2  0
 19 20  1  0
 20 21  1  1
M  END
>  <DRUGBANK_ID>  (1) 
DB15970

>  <COMMON_NAME>  (1) 
Chloroprednisone

>  <CAS_NUMBER>  (1) 
52080-57-6

>  <UNII>  (1) 
564IBO56IP

>  <SYNONYMS>  (1) 
Chloroprednisone; Chloroprednisonum; Cloroprednisona

$$$$
