BAI
     RDKit          2D

 22 25  0  0  0  0  0  0  0  0999 V2000
   -0.5212   -1.7438    0.0000 C   0  0  0  0  0  0  0  0  0  0  0  0
   -1.2357   -1.3313    0.0000 C   0  0  0  0  0  0  0  0  0  0  0  0
   -1.2357   -0.5063    0.0000 C   0  0  0  0  0  0  0  0  0  0  0  0
   -0.5212   -0.0938    0.0000 C   0  0  0  0  0  0  0  0  0  0  0  0
    0.1933   -0.5063    0.0000 C   0  0  0  0  0  0  0  0  0  0  0  0
    0.1933   -1.3313    0.0000 C   0  0  0  0  0  0  0  0  0  0  0  0
   -0.5212   -2.5688    0.0000 C   0  0  0  0  0  0  0  0  0  0  0  0
    0.4708    0.7994    0.0000 C   0  0  0  0  0  0  0  0  0  0  0  0
    0.8833    1.5139    0.0000 C   0  0  0  0  0  0  0  0  0  0  0  0
   -1.2357   -2.9813    0.0000 N   0  0  0  0  0  0  0  0  0  0  0  0
    0.1933   -2.9813    0.0000 N   0  0  0  0  0  0  0  0  0  0  0  0
   -0.3497    0.7132    0.0000 N   0  0  0  0  0  0  0  0  0  0  0  0
    0.8064    0.0457    0.0000 N   0  0  0  0  0  0  0  0  0  0  0  0
    4.4068    1.9264    0.0000 C   0  0  0  0  0  0  0  0  0  0  0  0
    4.4068    1.1014    0.0000 C   0  0  0  0  0  0  0  0  0  0  0  0
    3.6923    0.6889    0.0000 C   0  0  0  0  0  0  0  0  0  0  0  0
    2.9778    1.1014    0.0000 C   0  0  0  0  0  0  0  0  0  0  0  0
    2.9778    1.9264    0.0000 C   0  0  0  0  0  0  0  0  0  0  0  0
    3.6923    2.3389    0.0000 C   0  0  0  0  0  0  0  0  0  0  0  0
    1.7083    1.5139    0.0000 C   0  0  0  0  0  0  0  0  0  0  0  0
    2.1932    0.8464    0.0000 N   0  0  0  0  0  0  0  0  0  0  0  0
    2.1932    2.1813    0.0000 N   0  0  0  0  0  0  0  0  0  0  0  0
  1  2  2  0
  1  6  1  0
  1  7  1  0
  2  3  1  0
  3  4  2  0
  4  5  1  0
  4 12  1  0
  5  6  2  0
  5 13  1  0
  7 10  1  0
  7 11  2  0
  8  9  1  0
  8 12  1  0
  8 13  2  0
  9 20  1  0
 14 15  2  0
 14 19  1  0
 15 16  1  0
 16 17  2  0
 17 18  1  0
 17 21  1  0
 18 19  2  0
 18 22  1  0
 20 21  1  0
 20 22  2  0
M  END
>  <DRUGBANK_ID>  (1) 
DB01767

>  <SECONDARY_ACCESSION_NUMBERS>  (1) 
EXPT00622

>  <COMMON_NAME>  (1) 
Hemi-Babim

$$$$
