
     RDKit          2D

 41 45  0  0  0  0  0  0  0  0999 V2000
    3.0003   -1.9701    0.0000 Cl  0  0  0  0  0  0  0  0  0  0  0  0
    3.3438   -1.2200    0.0000 C   0  0  0  0  0  0  0  0  0  0  0  0
    2.8738   -0.5422    0.0000 C   0  0  0  0  0  0  0  0  0  0  0  0
    2.0514   -0.6235    0.0000 C   0  0  0  0  0  0  0  0  0  0  0  0
    1.2561   -0.8314    0.0000 N   0  0  0  0  0  0  0  0  0  0  0  0
    1.1838   -1.6538    0.0000 C   0  0  0  0  0  0  0  0  0  0  0  0
    0.4428   -1.9972    0.0000 C   0  0  0  0  0  0  0  0  0  0  0  0
    0.3614   -2.8196    0.0000 C   0  0  0  0  0  0  0  0  0  0  0  0
   -0.3886   -3.1721    0.0000 F   0  0  0  0  0  0  0  0  0  0  0  0
    1.0302   -3.2986    0.0000 C   0  0  0  0  0  0  0  0  0  0  0  0
    1.7803   -2.9461    0.0000 N   0  0  0  0  0  0  0  0  0  0  0  0
    1.8616   -2.1328    0.0000 C   0  0  0  0  0  0  0  0  0  0  0  0
    0.5783   -0.3615    0.0000 C   0  0  0  0  0  0  0  0  0  0  0  0
   -0.1626   -0.7049    0.0000 C   0  0  0  0  0  0  0  0  0  0  0  0
   -0.9850   -0.8043    0.0000 N   0  0  0  0  0  0  0  0  0  0  0  0
   -1.5454   -0.2078    0.0000 C   0  0  0  0  0  0  0  0  0  0  0  0
   -1.3013    0.5874    0.0000 N   0  0  0  0  0  0  0  0  0  0  0  0
   -1.8616    1.1929    0.0000 C   0  0  0  0  0  0  0  0  0  0  0  0
   -2.6660    1.0121    0.0000 C   0  0  0  0  0  0  0  0  0  0  0  0
   -2.9100    0.2168    0.0000 C   0  0  0  0  0  0  0  0  0  0  0  0
   -3.7234    0.0361    0.0000 C   0  0  0  0  0  0  0  0  0  0  0  0
   -4.5186   -0.1536    0.0000 N   0  0  0  0  0  0  0  0  0  0  0  0
   -2.3497   -0.3886    0.0000 C   0  0  0  0  0  0  0  0  0  0  0  0
   -1.1387   -1.6086    0.0000 C   0  0  0  0  0  0  0  0  0  0  0  0
   -0.4247   -2.0153    0.0000 C   0  0  0  0  0  0  0  0  0  0  0  0
    0.1807   -1.4549    0.0000 C   0  0  0  0  0  0  0  0  0  0  0  0
   -1.8887   -1.9610    0.0000 O   0  0  0  0  0  0  0  0  0  0  0  0
    0.6506    0.4609    0.0000 O   0  0  0  0  0  0  0  0  0  0  0  0
    1.9791    0.1987    0.0000 C   0  0  0  0  0  0  0  0  0  0  0  0
    2.6569    0.6777    0.0000 N   0  0  0  0  0  0  0  0  0  0  0  0
    2.5846    1.4911    0.0000 C   0  0  0  0  0  0  0  0  0  0  0  0
    1.9520    2.0243    0.0000 C   0  0  0  0  0  0  0  0  0  0  0  0
    2.4761    2.6569    0.0000 C   0  0  0  0  0  0  0  0  0  0  0  0
    1.8435    3.1901    0.0000 F   0  0  0  0  0  0  0  0  0  0  0  0
    3.0094    3.2986    0.0000 F   0  0  0  0  0  0  0  0  0  0  0  0
    3.1088    2.1328    0.0000 C   0  0  0  0  0  0  0  0  0  0  0  0
    1.2380    0.5422    0.0000 O   0  0  0  0  0  0  0  0  0  0  0  0
    3.2263    0.2078    0.0000 C   0  0  0  0  0  0  0  0  0  0  0  0
    4.0487    0.2801    0.0000 C   0  0  0  0  0  0  0  0  0  0  0  0
    4.5186   -0.3976    0.0000 C   0  0  0  0  0  0  0  0  0  0  0  0
    4.1752   -1.1477    0.0000 C   0  0  0  0  0  0  0  0  0  0  0  0
  1  2  1  0
  2  3  2  0
  2 41  1  0
  3  4  1  0
  3 38  1  0
  4  5  1  0
  4 29  1  6
  5  6  1  0
  5 13  1  0
  6  7  2  0
  6 12  1  0
  7  8  1  0
  8  9  1  0
  8 10  2  0
 10 11  1  0
 11 12  2  0
 14 13  1  6
 13 28  2  0
 14 15  1  0
 14 26  1  0
 15 16  1  0
 15 24  1  0
 16 17  2  0
 16 23  1  0
 17 18  1  0
 18 19  2  0
 19 20  1  0
 20 21  1  0
 20 23  2  0
 21 22  3  0
 24 25  1  0
 24 27  2  0
 25 26  1  0
 29 30  1  0
 29 37  2  0
 30 31  1  0
 31 32  1  0
 31 36  1  0
 32 33  1  0
 33 34  1  0
 33 35  1  0
 33 36  1  0
 38 39  2  0
 39 40  1  0
 40 41  2  0
M  END
>  <DRUGBANK_ID>  (1) 
DB14568

>  <COMMON_NAME>  (1) 
Ivosidenib

>  <CAS_NUMBER>  (1) 
1448347-49-6

>  <UNII>  (1) 
Q2PCN8MAM6

>  <SYNONYMS>  (1) 
Ivosidenib

$$$$
