
     RDKit          2D

 31 35  0  0  0  0  0  0  0  0999 V2000
    0.0797   -0.0140    0.0000 C   0  0  0  0  0  0  0  0  0  0  0  0
    0.7942   -0.4264    0.0000 C   0  0  0  0  0  0  0  0  0  0  0  0
    0.7942    1.2235    0.0000 C   0  0  0  0  0  0  0  0  0  0  0  0
   -0.6347    1.2235    0.0000 O   0  0  0  0  0  0  0  0  0  0  0  0
   -0.6347    2.0484    0.0000 C   0  0  0  0  0  0  0  0  0  0  0  0
   -1.3492    2.4609    0.0000 O   0  0  0  0  0  0  0  0  0  0  0  0
    0.0797    2.4609    0.0000 C   0  0  0  0  0  0  0  0  0  0  0  0
    2.2933    1.0659    0.0000 C   0  0  0  0  0  0  0  0  0  0  0  0
    2.7782    0.3984    0.0000 C   0  0  0  0  0  0  0  0  0  0  0  0
    2.2933   -0.2689    0.0000 C   0  0  0  0  0  0  0  0  0  0  0  0
    2.5482    1.8505    0.0000 O   0  0  0  0  0  0  0  0  0  0  0  0
    0.7942   -1.2514    0.0000 C   0  0  0  0  0  0  0  0  0  0  0  0
    0.0797   -1.6640    0.0000 C   0  0  0  0  0  0  0  0  0  0  0  0
   -0.6347   -1.2514    0.0000 C   0  0  0  0  0  0  0  0  0  0  0  0
   -1.3492   -1.6640    0.0000 C   0  0  0  0  0  0  0  0  0  0  0  0
   -2.0637   -1.2514    0.0000 C   0  0  0  0  0  0  0  0  0  0  0  0
   -2.0637   -0.4264    0.0000 O   0  0  0  0  0  0  0  0  0  0  0  0
   -1.3492    0.8110    0.0000 C   0  0  0  0  0  0  0  0  0  0  0  0
   -2.0637    1.2235    0.0000 O   0  0  0  0  0  0  0  0  0  0  0  0
   -2.0637    2.0484    0.0000 C   0  0  0  0  0  0  0  0  0  0  0  0
   -2.7781   -1.6640    0.0000 O   0  0  0  0  0  0  0  0  0  0  0  0
   -1.1356   -2.4609    0.0000 C   0  0  0  0  0  0  0  0  0  0  0  0
   -0.1338   -2.4609    0.0000 O   0  0  0  0  0  0  0  0  0  0  0  0
    1.5086   -1.6640    0.0000 O   0  0  0  0  0  0  0  0  0  0  0  0
   -1.3492   -0.0140    0.0000 C   0  0  0  0  0  0  0  0  0  0  0  0
   -0.6347   -0.4264    0.0000 C   0  0  0  0  0  0  0  0  0  0  0  0
   -0.6347    0.3984    0.0000 C   0  0  0  0  0  0  0  0  0  0  0  0
    0.0797    0.8110    0.0000 C   0  0  0  0  0  0  0  0  0  0  0  0
    1.5086    0.8110    0.0000 C   0  0  0  0  0  0  0  0  0  0  0  0
    1.5039    1.6232    0.0000 C   0  0  0  0  0  0  0  0  0  0  0  0
    1.5086   -0.0140    0.0000 C   0  0  0  0  0  0  0  0  0  0  0  0
  1  2  2  0
  1 28  1  0
  2 12  1  0
  2 31  1  0
  4  5  1  0
  5  6  2  0
  5  7  1  0
  8  9  1  0
  8 11  2  0
 10  9  1  0
 12 24  2  0
 13 12  1  0
 13 23  1  0
 14 13  2  0
 14 15  1  0
 15 16  1  0
 15 22  2  0
 16 21  2  0
 17 16  1  0
 17 25  1  0
 18 19  1  0
 19 20  1  0
 23 22  1  0
 25 18  1  6
 25 26  1  0
 26 14  1  0
 26  1  1  0
 26 27  1  1
 28  3  1  0
 28  4  1  6
 29  3  1  0
 29  8  1  0
 29 30  1  1
 31 29  1  0
 31 10  1  1
M  END
>  <DRUGBANK_ID>  (1) 
DB08059

>  <COMMON_NAME>  (1) 
Wortmannin

>  <CAS_NUMBER>  (1) 
19545-26-7

>  <UNII>  (1) 
XVA4O219QW

>  <SYNONYMS>  (1) 
Wartmannin

$$$$
