
     RDKit          2D

 26 27  0  0  0  0  0  0  0  0999 V2000
   -0.7144   -0.2062    0.0000 O   0  0  0  0  0  0  0  0  0  0  0  0
    1.4290    0.2062    0.0000 O   0  0  0  0  0  0  0  0  0  0  0  0
    0.0000   -1.4437    0.0000 O   0  0  0  0  0  0  0  0  0  0  0  0
   -0.7144    1.4437    0.0000 O   0  0  0  0  0  0  0  0  0  0  0  0
   -2.1434   -1.0312    0.0000 O   0  0  0  0  0  0  0  0  0  0  0  0
   -2.1434   -2.6813    0.0000 O   0  0  0  0  0  0  0  0  0  0  0  0
   -0.7144   -3.5063    0.0000 O   0  0  0  0  0  0  0  0  0  0  0  0
    2.1434    1.4437    0.0000 O   0  0  0  0  0  0  0  0  0  0  0  0
    1.4290   -1.4437    0.0000 O   0  0  0  0  0  0  0  0  0  0  0  0
    0.7144   -3.5063    0.0000 O   0  0  0  0  0  0  0  0  0  0  0  0
    2.1434    2.2687    0.0000 O   0  0  0  0  0  0  0  0  0  0  0  0
    0.7144    2.2687    0.0000 N   0  0  0  0  0  0  0  0  0  0  0  0
    0.0000    0.2062    0.0000 C   0  0  0  0  0  0  0  0  0  0  0  0
    0.0000    1.0312    0.0000 C   0  0  0  0  0  0  0  0  0  0  0  0
    0.7144    1.4437    0.0000 C   0  0  0  0  0  0  0  0  0  0  0  0
    0.7144   -0.2062    0.0000 C   0  0  0  0  0  0  0  0  0  0  0  0
   -0.7144   -1.0312    0.0000 C   0  0  0  0  0  0  0  0  0  0  0  0
   -1.4289   -1.4437    0.0000 C   0  0  0  0  0  0  0  0  0  0  0  0
   -1.4289   -2.2687    0.0000 C   0  0  0  0  0  0  0  0  0  0  0  0
   -0.7144   -2.6813    0.0000 C   0  0  0  0  0  0  0  0  0  0  0  0
    1.4290    1.0312    0.0000 C   0  0  0  0  0  0  0  0  0  0  0  0
    0.0000   -2.2687    0.0000 C   0  0  0  0  0  0  0  0  0  0  0  0
    0.7144   -1.0312    0.0000 C   0  0  0  0  0  0  0  0  0  0  0  0
    0.7144   -2.6813    0.0000 C   0  0  0  0  0  0  0  0  0  0  0  0
    1.4290    2.6813    0.0000 C   0  0  0  0  0  0  0  0  0  0  0  0
    1.4290    3.5063    0.0000 C   0  0  0  0  0  0  0  0  0  0  0  0
  2 16  1  0
  2 21  1  0
  3 17  1  0
  3 22  1  0
  9 23  1  0
 10 24  1  0
 11 25  2  0
 12 25  1  0
 13  1  1  1
 13 14  1  0
 13 16  1  0
 14  4  1  6
 14 15  1  0
 15 12  1  1
 15 21  1  0
 16 23  1  6
 17  1  1  6
 17 18  1  0
 18  5  1  1
 18 19  1  0
 19  6  1  6
 19 20  1  0
 20  7  1  6
 20 22  1  0
 21  8  1  1
 22 24  1  6
 25 26  1  0
M  END
>  <DRUGBANK_ID>  (1) 
DB03618

>  <SECONDARY_ACCESSION_NUMBERS>  (1) 
EXPT02354

>  <COMMON_NAME>  (1) 
2-(acetylamino)-2-deoxy-4-O-beta-D-galactopyranosyl-alpha-D-glucopyranose

$$$$
