
     RDKit          2D

 24 26  0  0  0  0  0  0  0  0999 V2000
   -1.6029    2.0923    0.0000 C   0  0  0  0  0  0  0  0  0  0  0  0
   -2.3174    1.6798    0.0000 N   0  0  0  0  0  0  0  0  0  0  0  0
   -1.6030    0.4424    0.0000 N   0  0  0  0  0  0  0  0  0  0  0  0
   -0.8885    0.8548    0.0000 C   0  0  0  0  0  0  0  0  0  0  0  0
   -0.8885    1.6798    0.0000 C   0  0  0  0  0  0  0  0  0  0  0  0
   -0.1039    1.9348    0.0000 N   0  0  0  0  0  0  0  0  0  0  0  0
    0.3809    1.2673    0.0000 C   0  0  0  0  0  0  0  0  0  0  0  0
   -0.1039    0.5998    0.0000 N   0  0  0  0  0  0  0  0  0  0  0  0
    0.1509   -0.1849    0.0000 C   0  0  0  0  0  0  0  0  0  0  0  0
   -0.3339   -0.8521    0.0000 O   0  0  0  0  0  0  0  0  0  0  0  0
    0.1509   -1.5198    0.0000 C   0  0  0  0  0  0  0  0  0  0  0  0
   -0.1040   -2.3043    0.0000 C   0  0  0  0  0  0  0  0  0  0  0  0
    0.4479   -2.9174    0.0000 O   0  0  0  0  0  0  0  0  0  0  0  0
    0.9354   -1.2648    0.0000 C   0  0  0  0  0  0  0  0  0  0  0  0
    1.6029   -1.7498    0.0000 O   0  0  0  0  0  0  0  0  0  0  0  0
    0.9356   -0.4397    0.0000 C   0  0  0  0  0  0  0  0  0  0  0  0
    1.6029    0.0450    0.0000 O   0  0  0  0  0  0  0  0  0  0  0  0
   -2.3175    0.8548    0.0000 C   0  0  0  0  0  0  0  0  0  0  0  0
   -3.0320    0.4424    0.0000 N   0  0  0  0  0  0  0  0  0  0  0  0
   -1.6029    2.9173    0.0000 O   0  0  0  0  0  0  0  0  0  0  0  0
    2.3175   -0.3673    0.0000 P   0  0  0  0  0  0  0  0  0  0  0  0
    3.0320    0.0450    0.0000 O   0  0  0  0  0  0  0  0  0  0  0  0
    2.3175   -1.1924    0.0000 O   0  0  0  0  0  0  0  0  0  0  0  0
    2.3175    0.4576    0.0000 O   0  0  0  0  0  0  0  0  0  0  0  0
  1  2  1  0
  1  5  1  0
  2 18  1  0
  3  4  1  0
  4  5  2  0
  4  8  1  0
  5  6  1  0
  6  7  2  0
  7  8  1  0
  9  8  1  1
  9 10  1  0
  9 16  1  0
 10 11  1  0
 11 12  1  1
 11 14  1  0
 12 13  1  0
 14 15  1  6
 14 16  1  0
 16 17  1  6
 17 21  1  0
 18  3  2  0
 18 19  1  0
 20  1  2  0
 21 22  1  0
 21 23  2  0
 21 24  1  0
M  END
>  <DRUGBANK_ID>  (1) 
DB01937

>  <SECONDARY_ACCESSION_NUMBERS>  (1) 
EXPT00121

>  <COMMON_NAME>  (1) 
Guanosine-2'-monophosphate

>  <CAS_NUMBER>  (1) 
130-50-7

>  <SYNONYMS>  (1) 
2'-GMP; 2'-guanylic acid; 2'-O-phosphoguanosine; Guanosine 2'-phosphate

$$$$
