
     RDKit          2D

 17 18  0  0  1  0  0  0  0  0999 V2000
    2.5559    5.2520    0.0000 C   0  0  0  0  0  0  0  0  0  0  0  0
    1.8414    5.6645    0.0000 C   0  0  0  0  0  0  0  0  0  0  0  0
    0.4125    8.9645    0.0000 C   0  0  0  0  0  0  0  0  0  0  0  0
    2.9684    3.7125    0.0000 C   0  0  0  0  0  0  0  0  0  0  0  0
    2.5559    4.4270    0.0000 C   0  0  0  0  0  0  0  0  0  0  0  0
    0.4125    8.1395    0.0000 C   0  0  0  0  0  0  0  0  0  0  0  0
   -0.3020    7.7270    0.0000 C   0  0  0  0  0  0  0  0  0  0  0  0
   -0.3020    6.9020    0.0000 C   0  0  0  0  0  0  0  0  0  0  0  0
    0.4125    6.4895    0.0000 C   0  0  0  0  0  0  0  0  0  0  0  0
    1.1270    6.9020    0.0000 C   0  0  0  0  0  0  0  0  0  0  0  0
   -0.3020    9.3770    0.0000 O   0  0  0  0  0  0  0  0  0  0  0  0
   -1.0164    8.1395    0.0000 O   0  0  0  0  0  0  0  0  0  0  0  0
   -1.0164    6.4895    0.0000 O   0  0  0  0  0  0  0  0  0  0  0  0
    0.4125    5.6645    0.0000 O   0  0  0  0  0  0  0  0  0  0  0  0
    1.8414    6.4895    0.0000 O   0  0  0  0  0  0  0  0  0  0  0  0
    2.1434    3.7125    0.0000 O   0  0  0  0  0  0  0  0  0  0  0  0
    1.1270    7.7270    0.0000 O   0  0  0  0  0  0  0  0  0  0  0  0
  2  1  1  0
  5  1  1  1
  5  4  1  0
  6  3  1  1
  7  6  1  0
  7 12  1  6
  8  7  1  0
  8 13  1  1
  9  8  1  0
  9 14  1  6
 10  9  1  0
 10 15  1  6
 11  3  1  0
 15  2  1  0
 16  4  1  0
 16  5  1  0
 17  6  1  0
 17 10  1  0
M  END
>  <DRUGBANK_ID>  (1) 
DB02645

>  <SECONDARY_ACCESSION_NUMBERS>  (1) 
EXPT01323

>  <COMMON_NAME>  (1) 
3,4-Epoxybutyl-Alpha-D-Glucopyranoside

$$$$
