BL4
     RDKit          2D

 22 25  0  0  0  0  0  0  0  0999 V2000
   -0.4442   -1.9965    0.0000 O   0  0  0  0  0  0  0  0  0  0  0  0
   -0.4442   -1.1715    0.0000 C   0  0  0  0  0  0  0  0  0  0  0  0
    0.2703   -0.7590    0.0000 C   0  0  0  0  0  0  0  0  0  0  0  0
    0.3566   -1.5795    0.0000 O   0  0  0  0  0  0  0  0  0  0  0  0
    1.0549   -1.0140    0.0000 C   0  0  0  0  0  0  0  0  0  0  0  0
    1.5399   -0.3465    0.0000 C   0  0  0  0  0  0  0  0  0  0  0  0
    1.0549    0.3209    0.0000 N   0  0  0  0  0  0  0  0  0  0  0  0
    1.3099    1.1055    0.0000 C   0  0  0  0  0  0  0  0  0  0  0  0
    2.1168    1.2770    0.0000 C   0  0  0  0  0  0  0  0  0  0  0  0
    2.3718    2.0617    0.0000 C   0  0  0  0  0  0  0  0  0  0  0  0
    1.8198    2.6748    0.0000 C   0  0  0  0  0  0  0  0  0  0  0  0
    1.0128    2.5032    0.0000 C   0  0  0  0  0  0  0  0  0  0  0  0
    0.7578    1.7186    0.0000 C   0  0  0  0  0  0  0  0  0  0  0  0
    0.2703    0.0660    0.0000 C   0  0  0  0  0  0  0  0  0  0  0  0
   -0.4442    0.4785    0.0000 N   0  0  0  0  0  0  0  0  0  0  0  0
   -1.1586    0.0660    0.0000 C   0  0  0  0  0  0  0  0  0  0  0  0
   -1.1586   -0.7590    0.0000 C   0  0  0  0  0  0  0  0  0  0  0  0
   -1.8731    0.4785    0.0000 C   0  0  0  0  0  0  0  0  0  0  0  0
   -2.5876    0.0660    0.0000 C   0  0  0  0  0  0  0  0  0  0  0  0
   -2.5876   -0.7590    0.0000 C   0  0  0  0  0  0  0  0  0  0  0  0
   -1.8731   -1.1715    0.0000 C   0  0  0  0  0  0  0  0  0  0  0  0
   -1.8731   -1.9965    0.0000 C   0  0  0  0  0  0  0  0  0  0  0  0
  2  1  2  0
  3  2  1  0
  3  5  1  0
  3  4  1  6
  6  5  1  0
  7  6  1  0
  7 14  1  0
  8  7  1  0
  9  8  2  0
 10  9  1  0
 11 10  2  0
 11 12  1  0
 12 13  2  0
 13  8  1  0
 14  3  1  0
 15 14  2  0
 15 16  1  0
 16 17  2  0
 17  2  1  0
 17 21  1  0
 18 16  1  0
 18 19  2  0
 19 20  1  0
 20 21  2  0
 21 22  1  0
M  END
>  <DRUGBANK_ID>  (1) 
DB07468

>  <COMMON_NAME>  (1) 
(3aS)-3a-hydroxy-5-methyl-1-phenyl-1,2,3,3a-tetrahydro-4H-pyrrolo[2,3-b]quinolin-4-one

$$$$
