
     RDKit          2D

  5  4  0  0  0  0  0  0  0  0999 V2000
    2.0625   -0.7145    0.0000 C   0  0  0  0  0  0  0  0  0  0  0  0
    1.2375   -0.7145    0.0000 C   0  0  0  0  0  0  0  0  0  0  0  0
    0.8250   -1.4289    0.0000 O   0  0  0  0  0  0  0  0  0  0  0  0
    0.8250    0.0000    0.0000 O   0  0  0  0  0  0  0  0  0  0  0  0
    0.0000    0.0000    0.0000 Hg  0  0  0  0  0  1  0  0  0  0  0  0
  1  2  1  0
  2  3  2  0
  2  4  1  0
  4  5  1  0
M  CHG  1   5   1
M  END
>  <DRUGBANK_ID>  (1) 
DB02176

>  <SECONDARY_ACCESSION_NUMBERS>  (1) 
EXPT02104

>  <COMMON_NAME>  (1) 
Mercury Acetate Ion

$$$$
