
     RDKit          2D

 36 40  0  0  0  0  0  0  0  0999 V2000
   -1.0717    5.1562    0.0000 C   0  0  0  0  0  0  0  0  0  0  0  0
   -3.2151    1.4437    0.0000 C   0  0  0  0  0  0  0  0  0  0  0  0
   -1.7861    4.7437    0.0000 C   0  0  0  0  0  0  0  0  0  0  0  0
   -0.3572    4.7437    0.0000 C   0  0  0  0  0  0  0  0  0  0  0  0
   -2.5006    1.0312    0.0000 C   0  0  0  0  0  0  0  0  0  0  0  0
   -3.2151    2.2687    0.0000 C   0  0  0  0  0  0  0  0  0  0  0  0
    0.3572   -4.7437    0.0000 C   0  0  0  0  0  0  0  0  0  0  0  0
    3.2151   -3.9187    0.0000 C   0  0  0  0  0  0  0  0  0  0  0  0
   -1.7861    3.9187    0.0000 C   0  0  0  0  0  0  0  0  0  0  0  0
   -0.3572    3.9187    0.0000 C   0  0  0  0  0  0  0  0  0  0  0  0
   -1.7861    1.4437    0.0000 C   0  0  0  0  0  0  0  0  0  0  0  0
   -2.5006    2.6812    0.0000 C   0  0  0  0  0  0  0  0  0  0  0  0
    2.5006   -3.5062    0.0000 C   0  0  0  0  0  0  0  0  0  0  0  0
    1.0717   -5.1562    0.0000 C   0  0  0  0  0  0  0  0  0  0  0  0
    0.3572   -3.9187    0.0000 C   0  0  0  0  0  0  0  0  0  0  0  0
    3.2151   -4.7437    0.0000 C   0  0  0  0  0  0  0  0  0  0  0  0
    0.3572    0.2062    0.0000 C   0  0  0  0  0  0  0  0  0  0  0  0
   -1.0717    0.2062    0.0000 C   0  0  0  0  0  0  0  0  0  0  0  0
    0.3572    1.0312    0.0000 C   0  0  0  0  0  0  0  0  0  0  0  0
   -1.0717    1.0312    0.0000 C   0  0  0  0  0  0  0  0  0  0  0  0
   -0.3572   -1.0312    0.0000 C   0  0  0  0  0  0  0  0  0  0  0  0
    0.3572   -2.2687    0.0000 C   0  0  0  0  0  0  0  0  0  0  0  0
   -1.0717    3.5062    0.0000 C   0  0  0  0  0  0  0  0  0  0  0  0
   -1.7861    2.2687    0.0000 C   0  0  0  0  0  0  0  0  0  0  0  0
    0.3572   -1.4437    0.0000 C   0  0  0  0  0  0  0  0  0  0  0  0
    1.7861   -3.9187    0.0000 C   0  0  0  0  0  0  0  0  0  0  0  0
    1.7861   -4.7437    0.0000 C   0  0  0  0  0  0  0  0  0  0  0  0
    1.0717   -3.5062    0.0000 C   0  0  0  0  0  0  0  0  0  0  0  0
   -1.0717    2.6812    0.0000 C   0  0  0  0  0  0  0  0  0  0  0  0
   -0.3572    2.2687    0.0000 C   0  0  0  0  0  0  0  0  0  0  0  0
    2.5006   -5.1562    0.0000 N   0  0  0  0  0  0  0  0  0  0  0  0
   -0.3572   -0.2062    0.0000 N   0  0  0  0  0  0  0  0  0  0  0  0
   -0.3572    1.4437    0.0000 N   0  0  0  0  0  0  0  0  0  0  0  0
    1.0717   -1.0312    0.0000 O   0  0  0  0  0  0  0  0  0  0  0  0
    0.3572    2.6812    0.0000 O   0  0  0  0  0  0  0  0  0  0  0  0
    1.0717   -2.6812    0.0000 O   0  0  0  0  0  0  0  0  0  0  0  0
  3  1  2  0
  4  1  1  0
  5  2  2  0
  6  2  1  0
  9  3  1  0
 10  4  2  0
 11  5  1  0
 12  6  2  0
 13  8  2  0
 14  7  2  0
 15  7  1  0
 16  8  1  0
 19 17  1  0
 20 18  1  0
 23  9  2  0
 23 10  1  0
 24 11  2  0
 24 12  1  0
 25 21  1  0
 25 22  1  0
 26 13  1  0
 27 14  1  0
 27 26  2  0
 28 15  2  0
 28 26  1  0
 29 23  1  0
 29 24  1  0
 30 29  1  0
 31 16  2  0
 31 27  1  0
 32 17  1  0
 32 18  1  0
 32 21  1  0
 33 19  1  0
 33 20  1  0
 33 30  1  0
 34 25  1  0
 35 30  2  0
 36 22  1  0
 36 28  1  0
M  END
>  <DRUGBANK_ID>  (1) 
DB14067

>  <COMMON_NAME>  (1) 
Dofequidar

>  <CAS_NUMBER>  (1) 
129716-58-1

>  <UNII>  (1) 
0BJK6B565B

>  <SYNONYMS>  (1) 
Dofequidar

$$$$
