
     RDKit          2D

 29 31  0  0  1  0  0  0  0  0999 V2000
   -0.1434   -0.2174    0.0000 C   0  0  0  0  0  0  0  0  0  0  0  0
   -0.9677   -0.3968    0.0000 C   0  0  0  0  0  0  0  0  0  0  0  0
    0.4839   -0.7115    0.0000 C   0  0  0  0  0  0  0  0  0  0  0  0
    1.2022   -0.2902    0.0000 C   0  0  0  0  0  0  0  0  0  0  0  0
   -1.6029    0.1310    0.0000 C   0  0  0  0  0  0  0  0  0  0  0  0
    1.9252   -0.7115    0.0000 C   0  0  0  0  0  0  0  0  0  0  0  0
    0.2030    0.5215    0.0000 C   0  0  0  0  0  0  0  0  0  0  0  0
    0.4839   -1.5314    0.0000 C   0  0  0  0  0  0  0  0  0  0  0  0
   -1.6029    0.9430    0.0000 C   0  0  0  0  0  0  0  0  0  0  0  0
   -1.3194   -1.1334    0.0000 C   0  0  0  0  0  0  0  0  0  0  0  0
    1.9252   -1.5314    0.0000 C   0  0  0  0  0  0  0  0  0  0  0  0
   -0.1434    1.2867    0.0000 C   0  0  0  0  0  0  0  0  0  0  0  0
   -0.9468    1.4739    0.0000 C   0  0  0  0  0  0  0  0  0  0  0  0
    1.2022   -1.9531    0.0000 C   0  0  0  0  0  0  0  0  0  0  0  0
   -2.5473   -1.8356    0.0000 C   0  0  0  0  0  0  0  0  0  0  0  0
   -2.1390   -1.1334    0.0000 N   0  0  0  0  0  0  0  0  0  0  0  0
   -0.1434   -2.0545    0.0000 C   0  0  0  0  0  0  0  0  0  0  0  0
   -2.3575    1.2867    0.0000 O   0  0  0  0  0  0  0  0  0  0  0  0
   -0.9677   -1.8668    0.0000 C   0  0  0  0  0  0  0  0  0  0  0  0
   -3.3644   -1.8330    0.0000 O   0  0  0  0  0  0  0  0  0  0  0  0
    1.2022    0.5215    0.0000 O   0  0  0  0  0  0  0  0  0  0  0  0
    2.6383   -0.2902    0.0000 O   0  0  0  0  0  0  0  0  0  0  0  0
   -2.1468   -2.5460    0.0000 C   0  0  0  0  0  0  0  0  0  0  0  0
    2.7059   -1.8356    0.0000 O   0  0  0  0  0  0  0  0  0  0  0  0
   -1.1269    2.2859    0.0000 O   0  0  0  0  0  0  0  0  0  0  0  0
    1.9044    0.9430    0.0000 C   0  0  0  0  0  0  0  0  0  0  0  0
    3.3644   -0.7428    0.0000 C   0  0  0  0  0  0  0  0  0  0  0  0
    3.3644   -1.5626    0.0000 C   0  0  0  0  0  0  0  0  0  0  0  0
   -1.9123    2.5460    0.0000 C   0  0  0  0  0  0  0  0  0  0  0  0
  2  1  1  0
  3  1  1  0
  4  3  2  0
  5  2  2  0
  6  4  1  0
  6 11  2  0
  7  1  2  0
  8  3  1  0
  9  5  1  0
 10  2  1  0
 10 16  1  6
 11 14  1  0
 12  7  1  0
 13 12  2  0
 13  9  1  0
 14  8  2  0
 15 16  1  0
 17  8  1  0
 18  9  2  0
 19 10  1  0
 19 17  1  0
 20 15  2  0
 21  4  1  0
 22  6  1  0
 23 15  1  0
 24 11  1  0
 25 13  1  0
 26 21  1  0
 27 22  1  0
 28 24  1  0
 29 25  1  0
M  END
>  <DRUGBANK_ID>  (1) 
DB01394

>  <COMMON_NAME>  (1) 
Colchicine

>  <CAS_NUMBER>  (1) 
64-86-8

>  <UNII>  (1) 
SML2Y3J35T

>  <SYNONYMS>  (1) 
Colchicin; Colchicina; Colchicine; Colchicinum

$$$$
