
     RDKit          2D

 32 35  0  0  0  0  0  0  0  0999 V2000
   -0.0145    0.4270    0.0000 C   0  0  0  0  0  0  0  0  0  0  0  0
    0.7328    0.6843    0.0000 C   0  0  0  0  0  0  0  0  0  0  0  0
   -2.1790   -0.7812    0.0000 C   0  0  0  0  0  0  0  0  0  0  0  0
   -0.7134   -0.7861    0.0000 C   0  0  0  0  0  0  0  0  0  0  0  0
   -0.0145   -0.3736    0.0000 C   0  0  0  0  0  0  0  0  0  0  0  0
   -1.4364   -0.3930    0.0000 C   0  0  0  0  0  0  0  0  0  0  0  0
   -2.1790   -1.6111    0.0000 C   0  0  0  0  0  0  0  0  0  0  0  0
   -0.7134    0.8444    0.0000 C   0  0  0  0  0  0  0  0  0  0  0  0
   -1.4364    0.4270    0.0000 C   0  0  0  0  0  0  0  0  0  0  0  0
   -2.8923   -0.3494    0.0000 C   0  0  0  0  0  0  0  0  0  0  0  0
    0.7328    1.6160    0.0000 C   0  0  0  0  0  0  0  0  0  0  0  0
   -2.9069   -2.0091    0.0000 C   0  0  0  0  0  0  0  0  0  0  0  0
    1.4996    1.0337    0.0000 O   0  0  0  0  0  0  0  0  0  0  0  0
    2.2033    0.6114    0.0000 C   0  0  0  0  0  0  0  0  0  0  0  0
    1.1938    0.0145    0.0000 C   0  0  0  0  0  0  0  0  0  0  0  0
    0.7620   -0.6114    0.0000 C   0  0  0  0  0  0  0  0  0  0  0  0
   -0.7134   -1.6160    0.0000 C   0  0  0  0  0  0  0  0  0  0  0  0
   -3.6348   -0.7812    0.0000 C   0  0  0  0  0  0  0  0  0  0  0  0
   -3.6348   -1.5674    0.0000 C   0  0  0  0  0  0  0  0  0  0  0  0
   -1.4510   -2.0382    0.0000 C   0  0  0  0  0  0  0  0  0  0  0  0
    1.4462    2.0382    0.0000 O   0  0  0  0  0  0  0  0  0  0  0  0
    2.2033   -0.2038    0.0000 O   0  0  0  0  0  0  0  0  0  0  0  0
    0.0339    2.0382    0.0000 O   0  0  0  0  0  0  0  0  0  0  0  0
   -4.3531   -1.9508    0.0000 O   0  0  0  0  0  0  0  0  0  0  0  0
   -0.0145    1.2520    0.0000 C   0  0  0  0  0  0  0  0  0  0  0  0
    2.1596    1.6160    0.0000 C   0  0  0  0  0  0  0  0  0  0  0  0
   -2.1547    0.8444    0.0000 O   0  0  0  0  0  0  0  0  0  0  0  0
    2.9021    1.0337    0.0000 O   0  0  0  0  0  0  0  0  0  0  0  0
   -2.1790    0.0049    0.0000 C   0  0  0  0  0  0  0  0  0  0  0  0
    2.8293    2.0382    0.0000 Cl  0  0  0  0  0  0  0  0  0  0  0  0
    3.6543    0.6114    0.0000 C   0  0  0  0  0  0  0  0  0  0  0  0
    4.3531    1.0337    0.0000 C   0  0  0  0  0  0  0  0  0  0  0  0
  1 25  1  1
  2  1  1  0
  2 11  1  0
  2 13  1  6
  3  6  1  0
  3 29  1  1
  4  5  1  0
  5  1  1  0
  6  9  1  1
  6  4  1  0
  7  3  1  0
  7 20  1  0
  8  1  1  0
  9  8  1  0
  9 27  1  1
 10  3  1  0
 12  7  2  0
 14 13  1  0
 15  2  1  0
  5 16  1  1
 16 15  1  0
  4 17  1  6
 18 10  2  0
 19 18  1  0
 19 12  1  0
 20 17  1  0
 21 11  1  0
 22 14  2  0
 23 11  2  0
 24 19  2  0
 26 21  1  0
 28 14  1  0
 30 26  1  0
 31 28  1  0
 32 31  1  0
M  END
>  <DRUGBANK_ID>  (1) 
DB14596

>  <SECONDARY_ACCESSION_NUMBERS>  (1) 
DBSALT000930

>  <COMMON_NAME>  (1) 
Loteprednol etabonate

>  <CAS_NUMBER>  (1) 
82034-46-6

>  <UNII>  (1) 
YEH1EZ96K6

>  <SYNONYMS>  (1) 
Loteprednol etabonate

$$$$
