
     RDKit          2D

 22 25  0  0  0  0  0  0  0  0999 V2000
   -1.9916   -1.2731    0.0000 N   0  0  0  0  0  0  0  0  0  0  0  0
    0.7230   -0.6210    0.0000 C   0  0  0  0  0  0  0  0  0  0  0  0
    0.0177   -1.8586    0.0000 C   0  0  0  0  0  0  0  0  0  0  0  0
   -1.4061   -1.8586    0.0000 C   0  0  0  0  0  0  0  0  0  0  0  0
   -0.6919   -2.2711    0.0000 C   0  0  0  0  0  0  0  0  0  0  0  0
    0.0177   -1.0335    0.0000 C   0  0  0  0  0  0  0  0  0  0  0  0
    1.4416   -1.8586    0.0000 N   0  0  0  0  0  0  0  0  0  0  0  0
    1.4416   -1.0335    0.0000 C   0  0  0  0  0  0  0  0  0  0  0  0
    0.7230    3.4909    0.0000 N   0  0  0  0  0  0  0  0  0  0  0  0
    0.7230    2.6658    0.0000 C   0  0  0  0  0  0  0  0  0  0  0  0
    0.7230    0.2040    0.0000 C   0  0  0  0  0  0  0  0  0  0  0  0
    0.7230   -2.2711    0.0000 C   0  0  0  0  0  0  0  0  0  0  0  0
   -1.4638   -3.4909    0.0000 C   0  0  0  0  0  0  0  0  0  0  0  0
   -0.6919   -3.0962    0.0000 C   0  0  0  0  0  0  0  0  0  0  0  0
   -2.1158   -2.2312    0.0000 C   0  0  0  0  0  0  0  0  0  0  0  0
    1.4416    0.6077    0.0000 C   0  0  0  0  0  0  0  0  0  0  0  0
    0.0177    0.6077    0.0000 C   0  0  0  0  0  0  0  0  0  0  0  0
    0.7230    1.8453    0.0000 C   0  0  0  0  0  0  0  0  0  0  0  0
    2.1557   -0.6165    0.0000 F   0  0  0  0  0  0  0  0  0  0  0  0
   -2.1557   -3.0563    0.0000 C   0  0  0  0  0  0  0  0  0  0  0  0
    1.4416    1.4327    0.0000 C   0  0  0  0  0  0  0  0  0  0  0  0
    0.0177    1.4327    0.0000 C   0  0  0  0  0  0  0  0  0  0  0  0
  2  6  2  0
  2  8  1  0
  3  5  1  0
  4  1  1  0
  5  4  1  0
  6  3  1  0
  7 12  1  0
  8  7  2  0
  9 10  3  0
 10 18  1  0
 11  2  1  0
 12  3  2  0
 13  1  1  0
 14 13  1  0
 14  5  1  0
 15  4  1  0
 16 11  2  0
 17 11  1  0
 18 22  1  0
 18 21  2  0
 19  8  1  0
 20 13  1  0
 20 15  1  0
 21 16  1  0
 22 17  2  0
M  END
>  <DRUGBANK_ID>  (1) 
DB14029

>  <COMMON_NAME>  (1) 
Furafylline

>  <CAS_NUMBER>  (1) 
80288-49-9

>  <UNII>  (1) 
C2087G0XX3

>  <SYNONYMS>  (1) 
Furafilina; Furafylline; Furafyllinum

$$$$
