
     RDKit          2D

 30 34  0  0  1  0  0  0  0  0999 V2000
    3.9297    1.3118    0.0000 C   0  0  0  0  0  0  0  0  0  0  0  0
    3.5848    2.0612    0.0000 C   0  0  0  0  0  0  0  0  0  0  0  0
    2.7633    2.1372    0.0000 C   0  0  0  0  0  0  0  0  0  0  0  0
    2.2867    1.4638    0.0000 C   0  0  0  0  0  0  0  0  0  0  0  0
    2.6316    0.7144    0.0000 C   0  0  0  0  0  0  0  0  0  0  0  0
    3.4531    0.6384    0.0000 C   0  0  0  0  0  0  0  0  0  0  0  0
    1.9599   -0.0391    0.0000 C   0  0  0  0  0  0  0  0  0  0  0  0
    2.6316   -0.7146    0.0000 C   0  0  0  0  0  0  0  0  0  0  0  0
    3.5133   -0.3924    0.0000 C   0  0  0  0  0  0  0  0  0  0  0  0
    4.0313   -1.0024    0.0000 C   0  0  0  0  0  0  0  0  0  0  0  0
    3.8651   -1.8105    0.0000 C   0  0  0  0  0  0  0  0  0  0  0  0
    3.0822   -2.0706    0.0000 C   0  0  0  0  0  0  0  0  0  0  0  0
    2.4654   -1.5227    0.0000 C   0  0  0  0  0  0  0  0  0  0  0  0
    1.7280   -2.0263    0.0000 Cl  0  0  0  0  0  0  0  0  0  0  0  0
    1.3941   -0.0001    0.0000 N   0  0  0  0  0  0  0  0  0  0  0  0
    1.1624    0.9268    0.0000 C   0  0  0  0  0  0  0  0  0  0  0  0
    0.5174    0.4124    0.0000 C   0  0  0  0  0  0  0  0  0  0  0  0
    0.5174   -0.4126    0.0000 C   0  0  0  0  0  0  0  0  0  0  0  0
    1.1624   -0.9270    0.0000 C   0  0  0  0  0  0  0  0  0  0  0  0
    1.9667   -0.7434    0.0000 C   0  0  0  0  0  0  0  0  0  0  0  0
    2.3247   -0.0001    0.0000 C   0  0  0  0  0  0  0  0  0  0  0  0
    1.9667    0.7432    0.0000 C   0  0  0  0  0  0  0  0  0  0  0  0
    3.0597    0.3744    0.0000 C   0  0  0  0  0  0  0  0  0  0  0  0
    3.1029    1.1983    0.0000 N   0  0  0  0  0  0  0  0  0  0  0  0
    3.8380    1.5729    0.0000 C   0  0  0  0  0  0  0  0  0  0  0  0
    4.5299    1.1235    0.0000 C   0  0  0  0  0  0  0  0  0  0  0  0
    4.4867    0.2997    0.0000 C   0  0  0  0  0  0  0  0  0  0  0  0
    3.7517   -0.0749    0.0000 N   0  0  0  0  0  0  0  0  0  0  0  0
    3.1099   -0.5808    0.0000 O   0  0  0  0  0  0  0  0  0  0  0  0
    1.4547    1.8719    0.0000 Cl  0  0  0  0  0  0  0  0  0  0  0  0
  1  2  2  0
  1  6  1  0
  2  3  1  0
  3  4  2  0
  4  5  1  0
  4 30  1  0
  5  6  2  0
  5  7  1  0
  7  8  1  0
  7 15  1  0
  8  9  2  0
  8 13  1  0
  9 10  1  0
 10 11  2  0
 11 12  1  0
 12 13  2  0
 13 14  1  0
 16 15  1  0
 16 17  1  6
 16 22  1  0
 17 18  1  0
 19 18  1  6
 19 15  1  0
 19 20  1  0
 20 21  1  0
 21 22  1  0
 21 23  1  0
 21 29  1  1
 23 24  2  0
 23 28  1  0
 24 25  1  0
 25 26  2  0
 26 27  1  0
 27 28  2  0
M  END
>  <DRUGBANK_ID>  (1) 
DB12782

>  <COMMON_NAME>  (1) 
SCH-486757

>  <CAS_NUMBER>  (1) 
524019-25-8

>  <UNII>  (1) 
2HV668N62T

$$$$
