
     RDKit          2D

 20 21  0  0  0  0  0  0  0  0999 V2000
   -1.1148   -0.4973    0.0000 C   0  0  0  0  0  0  0  0  0  0  0  0
   -1.8293   -0.0848    0.0000 C   0  0  0  0  0  0  0  0  0  0  0  0
   -1.5472    0.6903    0.0000 C   0  0  0  0  0  0  0  0  0  0  0  0
   -0.9151    1.2207    0.0000 C   0  0  0  0  0  0  0  0  0  0  0  0
   -2.3597    0.5471    0.0000 C   0  0  0  0  0  0  0  0  0  0  0  0
   -2.6418    1.3224    0.0000 Cl  0  0  0  0  0  0  0  0  0  0  0  0
   -3.0741    0.1346    0.0000 Cl  0  0  0  0  0  0  0  0  0  0  0  0
   -2.3597   -0.7169    0.0000 C   0  0  0  0  0  0  0  0  0  0  0  0
   -3.1722   -0.5735    0.0000 C   0  0  0  0  0  0  0  0  0  0  0  0
   -1.1148   -1.3224    0.0000 O   0  0  0  0  0  0  0  0  0  0  0  0
   -0.4003   -0.0848    0.0000 N   0  0  0  0  0  0  0  0  0  0  0  0
    0.3141   -0.4973    0.0000 C   0  0  0  0  0  0  0  0  0  0  0  0
    1.0287   -0.0848    0.0000 C   0  0  0  0  0  0  0  0  0  0  0  0
    1.7431   -0.4973    0.0000 C   0  0  0  0  0  0  0  0  0  0  0  0
    2.4577   -0.0848    0.0000 C   0  0  0  0  0  0  0  0  0  0  0  0
    2.4577    0.7401    0.0000 C   0  0  0  0  0  0  0  0  0  0  0  0
    3.1722    1.1527    0.0000 Cl  0  0  0  0  0  0  0  0  0  0  0  0
    1.7431    1.1527    0.0000 C   0  0  0  0  0  0  0  0  0  0  0  0
    1.0287    0.7401    0.0000 C   0  0  0  0  0  0  0  0  0  0  0  0
    0.3141   -1.3224    0.0000 C   0  0  0  0  0  0  0  0  0  0  0  0
  1 10  2  0
  1 11  1  0
  2  1  1  0
  2  3  1  0
  2  5  1  0
  2  8  1  6
  3  4  1  6
  5  3  1  0
  5  6  1  0
  5  7  1  0
  8  9  1  0
 11 12  1  0
 12 13  1  0
 12 20  1  1
 13 14  2  0
 13 19  1  0
 14 15  1  0
 15 16  2  0
 16 17  1  0
 18 16  1  0
 19 18  2  0
M  END
>  <DRUGBANK_ID>  (1) 
DB02946

>  <SECONDARY_ACCESSION_NUMBERS>  (1) 
EXPT01898

>  <COMMON_NAME>  (1) 
Carpropamide

>  <CAS_NUMBER>  (1) 
127640-90-8

>  <UNII>  (1) 
4748U7LZ6E

>  <SYNONYMS>  (1) 
(1S,3R)-2,2-dichloro-N-[(1R)-1-(4-chlorophenyl)ethyl]-1-ethyl-3-methylcyclopropanecarboxamide

$$$$
