
     RDKit          2D

 32 35  0  0  0  0  0  0  0  0999 V2000
   -1.1046   -0.4002    0.0000 N   0  0  0  0  0  0  0  0  0  0  0  0
   -0.4278    0.0714    0.0000 C   0  0  0  0  0  0  0  0  0  0  0  0
   -0.6672    0.8610    0.0000 C   0  0  0  0  0  0  0  0  0  0  0  0
   -1.4923    0.8772    0.0000 C   0  0  0  0  0  0  0  0  0  0  0  0
   -1.7624    0.0977    0.0000 N   0  0  0  0  0  0  0  0  0  0  0  0
    1.0473   -2.4687    0.0000 C   0  0  0  0  0  0  0  0  0  0  0  0
    1.0461   -3.2956    0.0000 C   0  0  0  0  0  0  0  0  0  0  0  0
    1.7606   -3.7085    0.0000 C   0  0  0  0  0  0  0  0  0  0  0  0
    2.4768   -3.2953    0.0000 C   0  0  0  0  0  0  0  0  0  0  0  0
    2.4739   -2.4651    0.0000 C   0  0  0  0  0  0  0  0  0  0  0  0
    1.7588   -2.0561    0.0000 C   0  0  0  0  0  0  0  0  0  0  0  0
    3.1916   -3.7065    0.0000 Cl  0  0  0  0  0  0  0  0  0  0  0  0
    0.3281   -2.0521    0.0000 S   0  0  0  0  0  0  0  0  0  0  0  0
   -0.3881   -1.6398    0.0000 N   0  0  0  0  0  0  0  0  0  0  0  0
    0.7363   -1.3359    0.0000 O   0  0  0  0  0  0  0  0  0  0  0  0
   -0.0883   -2.7643    0.0000 O   0  0  0  0  0  0  0  0  0  0  0  0
   -1.1046   -1.2276    0.0000 C   0  0  0  0  0  0  0  0  0  0  0  0
   -1.8182   -1.6409    0.0000 N   0  0  0  0  0  0  0  0  0  0  0  0
   -2.5330   -1.2295    0.0000 C   0  0  0  0  0  0  0  0  0  0  0  0
   -1.9638    1.5534    0.0000 C   0  0  0  0  0  0  0  0  0  0  0  0
   -0.1691    1.5189    0.0000 C   0  0  0  0  0  0  0  0  0  0  0  0
    0.6538    1.5298    0.0000 C   0  0  0  0  0  0  0  0  0  0  0  0
    1.0521    2.2511    0.0000 C   0  0  0  0  0  0  0  0  0  0  0  0
    0.6260    2.9581    0.0000 C   0  0  0  0  0  0  0  0  0  0  0  0
   -0.2026    2.9395    0.0000 C   0  0  0  0  0  0  0  0  0  0  0  0
   -0.5972    2.2178    0.0000 C   0  0  0  0  0  0  0  0  0  0  0  0
   -1.5422    2.2625    0.0000 C   0  0  0  0  0  0  0  0  0  0  0  0
   -1.9460    2.9807    0.0000 C   0  0  0  0  0  0  0  0  0  0  0  0
   -2.7714    2.9903    0.0000 C   0  0  0  0  0  0  0  0  0  0  0  0
   -3.1915    2.2757    0.0000 C   0  0  0  0  0  0  0  0  0  0  0  0
   -2.7855    1.5603    0.0000 C   0  0  0  0  0  0  0  0  0  0  0  0
   -3.1768    3.7085    0.0000 Cl  0  0  0  0  0  0  0  0  0  0  0  0
  1  2  1  0
  2  3  1  0
  3  4  1  0
  3 21  1  1
  4  5  2  0
  4 20  1  0
  5  1  1  0
  6 13  1  0
  6  7  2  0
  7  8  1  0
  8  9  2  0
  9 10  1  0
  9 12  1  0
 10 11  2  0
 11  6  1  0
 13 16  2  0
 13 14  1  0
 13 15  2  0
 14 17  2  3
 17  1  1  0
 17 18  1  0
 18 19  1  0
 20 27  2  0
 21 22  2  0
 22 23  1  0
 23 24  2  0
 24 25  1  0
 25 26  2  0
 26 21  1  0
 27 28  1  0
 28 29  2  0
 29 30  1  0
 29 32  1  0
 30 31  2  0
 31 20  1  0
M  END
>  <DRUGBANK_ID>  (1) 
DB12649

>  <COMMON_NAME>  (1) 
Ibipinabant

>  <CAS_NUMBER>  (1) 
464213-10-3

>  <UNII>  (1) 
O5CSC6WH1T

>  <SYNONYMS>  (1) 
Ibipinabant; Ibipinabantum

$$$$
