
     RDKit          2D

 38 42  0  0  1  0  0  0  0  0999 V2000
    1.4521    1.0550    0.0000 C   0  0  0  0  0  0  0  0  0  0  0  0
    0.6674    1.3099    0.0000 C   0  0  0  0  0  0  0  0  0  0  0  0
    0.0000    0.8250    0.0000 C   0  0  0  0  0  0  0  0  0  0  0  0
   -0.6674    1.3099    0.0000 C   0  0  0  0  0  0  0  0  0  0  0  0
   -0.4125    2.0945    0.0000 C   0  0  0  0  0  0  0  0  0  0  0  0
    0.4125    2.0945    0.0000 S   0  0  0  0  0  0  0  0  0  0  0  0
   -0.8974    2.7620    0.0000 C   0  0  0  0  0  0  0  0  0  0  0  0
   -1.7179    2.6757    0.0000 O   0  0  0  0  0  0  0  0  0  0  0  0
   -0.5619    3.5157    0.0000 C   0  0  0  0  0  0  0  0  0  0  0  0
   -1.0468    4.1831    0.0000 C   0  0  0  0  0  0  0  0  0  0  0  0
   -1.8673    4.0969    0.0000 N   0  0  0  0  0  0  0  0  0  0  0  0
   -2.3522    4.7643    0.0000 C   0  0  0  0  0  0  0  0  0  0  0  0
   -3.1772    4.7643    0.0000 C   0  0  0  0  0  0  0  0  0  0  0  0
   -3.4321    5.5489    0.0000 C   0  0  0  0  0  0  0  0  0  0  0  0
   -4.2168    5.8039    0.0000 O   0  0  0  0  0  0  0  0  0  0  0  0
   -2.7647    6.0338    0.0000 C   0  0  0  0  0  0  0  0  0  0  0  0
   -2.7647    6.8588    0.0000 C   0  0  0  0  0  0  0  0  0  0  0  0
   -3.4792    7.2713    0.0000 O   0  0  0  0  0  0  0  0  0  0  0  0
   -3.4792    8.0963    0.0000 S   0  0  0  0  0  0  0  0  0  0  0  0
   -3.4792    8.9213    0.0000 N   0  0  0  0  0  0  0  0  0  0  0  0
   -4.3042    8.0963    0.0000 O   0  0  0  0  0  0  0  0  0  0  0  0
   -2.6542    8.0963    0.0000 O   0  0  0  0  0  0  0  0  0  0  0  0
   -2.0973    5.5489    0.0000 C   0  0  0  0  0  0  0  0  0  0  0  0
   -0.7112    4.9368    0.0000 N   0  0  0  0  0  0  0  0  0  0  0  0
    0.1093    5.0230    0.0000 C   0  0  0  0  0  0  0  0  0  0  0  0
    0.5942    4.3556    0.0000 N   0  0  0  0  0  0  0  0  0  0  0  0
    0.2586    3.6019    0.0000 C   0  0  0  0  0  0  0  0  0  0  0  0
    0.0000   -0.0000    0.0000 C   0  0  0  0  0  0  0  0  0  0  0  0
   -0.7145   -0.4125    0.0000 N   0  0  0  0  0  0  0  0  0  0  0  0
   -0.7145   -1.2375    0.0000 C   0  0  0  0  0  0  0  0  0  0  0  0
    0.0000   -1.6500    0.0000 C   0  0  0  0  0  0  0  0  0  0  0  0
    0.7145   -1.2375    0.0000 C   0  0  0  0  0  0  0  0  0  0  0  0
    0.7145   -0.4125    0.0000 C   0  0  0  0  0  0  0  0  0  0  0  0
    1.4289   -0.0000    0.0000 C   0  0  0  0  0  0  0  0  0  0  0  0
    2.1434   -0.4125    0.0000 C   0  0  0  0  0  0  0  0  0  0  0  0
    2.8579   -0.0000    0.0000 Cl  0  0  0  0  0  0  0  0  0  0  0  0
    2.1434   -1.2375    0.0000 C   0  0  0  0  0  0  0  0  0  0  0  0
    1.4289   -1.6500    0.0000 C   0  0  0  0  0  0  0  0  0  0  0  0
  1  2  1  0
  2  3  2  0
  2  6  1  0
  3  4  1  0
  4  5  2  0
  5  6  1  0
  5  7  1  0
  7  8  2  0
  7  9  1  0
  9 10  1  0
  9 27  2  0
 10 11  1  0
 10 24  2  0
 12 11  1  1
 12 13  1  0
 12 23  1  0
 14 13  1  0
 14 15  1  6
 14 16  1  0
 16 17  1  1
 16 23  1  0
 17 18  1  0
 18 19  1  0
 19 20  1  0
 19 21  2  0
 19 22  2  0
 24 25  1  0
 25 26  2  0
 26 27  1  0
 28  3  1  1
 28 29  1  0
 28 33  1  0
 29 30  1  0
 30 31  1  0
 31 32  1  0
 32 33  2  0
 32 38  1  0
 33 34  1  0
 34 35  2  0
 35 36  1  0
 35 37  1  0
 37 38  2  0
M  END
>  <DRUGBANK_ID>  (1) 
DB16406

>  <COMMON_NAME>  (1) 
Subasumstat

>  <CAS_NUMBER>  (1) 
1858276-04-6

>  <UNII>  (1) 
XQ43H3V6M1

>  <SYNONYMS>  (1) 
Subasumstat

$$$$
