
     RDKit          2D

 32 35  0  0  0  0  0  0  0  0999 V2000
    6.2102    6.0604    0.0000 C   0  0  0  0  0  0  0  0  0  0  0  0
    5.4957    5.6479    0.0000 N   0  0  0  0  0  0  0  0  0  0  0  0
    5.4957    4.8229    0.0000 C   0  0  0  0  0  0  0  0  0  0  0  0
    4.7812    4.4104    0.0000 C   0  0  0  0  0  0  0  0  0  0  0  0
    4.7812    3.5854    0.0000 C   0  0  0  0  0  0  0  0  0  0  0  0
    4.0668    3.1729    0.0000 C   0  0  0  0  0  0  0  0  0  0  0  0
    4.0668    2.3479    0.0000 O   0  0  0  0  0  0  0  0  0  0  0  0
    3.3523    1.9354    0.0000 C   0  0  0  0  0  0  0  0  0  0  0  0
    3.3523    1.1104    0.0000 C   0  0  0  0  0  0  0  0  0  0  0  0
    2.6378    0.6979    0.0000 C   0  0  0  0  0  0  0  0  0  0  0  0
    1.9233    1.1104    0.0000 C   0  0  0  0  0  0  0  0  0  0  0  0
    1.1387    0.8555    0.0000 N   0  0  0  0  0  0  0  0  0  0  0  0
    0.6538    1.5229    0.0000 C   0  0  0  0  0  0  0  0  0  0  0  0
    1.1387    2.1904    0.0000 C   0  0  0  0  0  0  0  0  0  0  0  0
    1.9233    1.9354    0.0000 C   0  0  0  0  0  0  0  0  0  0  0  0
    2.6378    2.3479    0.0000 C   0  0  0  0  0  0  0  0  0  0  0  0
    0.8838    0.0709    0.0000 C   0  0  0  0  0  0  0  0  0  0  0  0
    1.4358   -0.5422    0.0000 O   0  0  0  0  0  0  0  0  0  0  0  0
    0.0768   -0.1006    0.0000 N   0  0  0  0  0  0  0  0  0  0  0  0
   -0.1781   -0.8853    0.0000 C   0  0  0  0  0  0  0  0  0  0  0  0
    0.3068   -1.5527    0.0000 N   0  0  0  0  0  0  0  0  0  0  0  0
   -0.1781   -2.2201    0.0000 N   0  0  0  0  0  0  0  0  0  0  0  0
    0.0768   -3.0048    0.0000 C   0  0  0  0  0  0  0  0  0  0  0  0
   -0.9628   -1.9652    0.0000 C   0  0  0  0  0  0  0  0  0  0  0  0
   -0.9628   -1.1402    0.0000 C   0  0  0  0  0  0  0  0  0  0  0  0
   -1.6302   -2.4501    0.0000 C   0  0  0  0  0  0  0  0  0  0  0  0
   -2.2976   -2.9351    0.0000 F   0  0  0  0  0  0  0  0  0  0  0  0
   -2.1151   -1.7827    0.0000 F   0  0  0  0  0  0  0  0  0  0  0  0
   -1.1453   -3.1176    0.0000 F   0  0  0  0  0  0  0  0  0  0  0  0
    3.3523    3.5854    0.0000 N   0  0  0  0  0  0  0  0  0  0  0  0
    3.3523    4.4104    0.0000 C   0  0  0  0  0  0  0  0  0  0  0  0
    4.0668    4.8229    0.0000 N   0  0  0  0  0  0  0  0  0  0  0  0
  1  2  1  0
  2  3  1  0
  3  4  1  0
  4  5  2  0
  4 32  1  0
  5  6  1  0
  6  7  1  0
  6 30  2  0
  7  8  1  0
  8  9  2  0
  8 16  1  0
  9 10  1  0
 10 11  2  0
 11 12  1  0
 11 15  1  0
 12 13  1  0
 12 17  1  0
 13 14  2  0
 14 15  1  0
 15 16  2  0
 17 18  2  0
 17 19  1  0
 19 20  1  0
 20 21  2  0
 20 25  1  0
 21 22  1  0
 22 23  1  0
 22 24  1  0
 24 25  2  0
 24 26  1  0
 26 27  1  0
 26 28  1  0
 26 29  1  0
 30 31  1  0
 31 32  2  0
M  END
>  <DRUGBANK_ID>  (1) 
DB16081

>  <COMMON_NAME>  (1) 
Acrizanib

>  <CAS_NUMBER>  (1) 
1229453-99-9

>  <UNII>  (1) 
F2CB8801I3

>  <SYNONYMS>  (1) 
Acrizanib

$$$$
