
     RDKit          2D

 12 13  0  0  0  0  0  0  0  0999 V2000
   -0.3572    0.0000    0.0000 C   0  0  0  0  0  0  0  0  0  0  0  0
   -0.3572   -0.8250    0.0000 C   0  0  0  0  0  0  0  0  0  0  0  0
   -1.0716    0.4126    0.0000 C   0  0  0  0  0  0  0  0  0  0  0  0
   -1.0716   -1.2376    0.0000 C   0  0  0  0  0  0  0  0  0  0  0  0
    0.3571   -1.2376    0.0000 C   0  0  0  0  0  0  0  0  0  0  0  0
   -1.7861    0.0000    0.0000 C   0  0  0  0  0  0  0  0  0  0  0  0
   -1.7861   -0.8249    0.0000 C   0  0  0  0  0  0  0  0  0  0  0  0
    1.0716   -0.8250    0.0000 C   0  0  0  0  0  0  0  0  0  0  0  0
    0.3571    0.4126    0.0000 C   0  0  0  0  0  0  0  0  0  0  0  0
    0.3571    1.2376    0.0000 O   0  0  0  0  0  0  0  0  0  0  0  0
    1.0716    0.0000    0.0000 C   0  0  0  0  0  0  0  0  0  0  0  0
    1.7861    0.4126    0.0000 O   0  0  0  0  0  0  0  0  0  0  0  0
  1  2  1  0
  1  3  2  0
  1  9  1  0
  2  4  2  0
  2  5  1  0
  3  6  1  0
  4  7  1  0
  5  8  2  0
  6  7  2  0
  9 11  2  0
  9 10  1  0
 11  8  1  0
 11 12  1  0
M  END
>  <DRUGBANK_ID>  (1) 
DB07610

>  <COMMON_NAME>  (1) 
1,2-Dihydroxynaphthalene

>  <CAS_NUMBER>  (1) 
574-00-5

>  <UNII>  (1) 
2R5017T335

>  <SYNONYMS>  (1) 
1,2-Naphthalenediol; 1,2-naphthohydroquinone; beta-Naphthohydroquinone; Naphthalene-1,2-diol; Î²-naphthohydroquinone

$$$$
