8PC
     RDKit          2D

 23 25  0  0  0  0  0  0  0  0999 V2000
   -0.8212    4.0413    0.0000 Cl  0  0  0  0  0  0  0  0  0  0  0  0
   -0.8212    3.2163    0.0000 C   0  0  0  0  0  0  0  0  0  0  0  0
   -1.5356    2.8038    0.0000 C   0  0  0  0  0  0  0  0  0  0  0  0
   -1.5356    1.9788    0.0000 C   0  0  0  0  0  0  0  0  0  0  0  0
   -2.2501    1.5663    0.0000 Cl  0  0  0  0  0  0  0  0  0  0  0  0
   -0.8212    1.5663    0.0000 C   0  0  0  0  0  0  0  0  0  0  0  0
   -0.1067    1.9788    0.0000 C   0  0  0  0  0  0  0  0  0  0  0  0
   -0.1067    2.8038    0.0000 C   0  0  0  0  0  0  0  0  0  0  0  0
   -0.8212    0.7413    0.0000 O   0  0  0  0  0  0  0  0  0  0  0  0
   -0.1067    0.3288    0.0000 C   0  0  0  0  0  0  0  0  0  0  0  0
   -0.1067   -0.4962    0.0000 C   0  0  0  0  0  0  0  0  0  0  0  0
    0.6078   -0.9087    0.0000 C   0  0  0  0  0  0  0  0  0  0  0  0
    1.3223   -0.4962    0.0000 C   0  0  0  0  0  0  0  0  0  0  0  0
    1.3223    0.3288    0.0000 C   0  0  0  0  0  0  0  0  0  0  0  0
    0.6078    0.7413    0.0000 C   0  0  0  0  0  0  0  0  0  0  0  0
    0.6078    1.5663    0.0000 O   0  0  0  0  0  0  0  0  0  0  0  0
    2.0367   -0.9087    0.0000 C   0  0  0  0  0  0  0  0  0  0  0  0
    2.0367   -1.7337    0.0000 C   0  0  0  0  0  0  0  0  0  0  0  0
    2.7512   -2.1462    0.0000 N   0  0  0  0  0  0  0  0  0  0  0  0
    2.7512   -2.9712    0.0000 C   0  0  0  0  0  0  0  0  0  0  0  0
    2.0367   -3.3837    0.0000 C   0  0  0  0  0  0  0  0  0  0  0  0
    1.3223   -2.9712    0.0000 C   0  0  0  0  0  0  0  0  0  0  0  0
    1.3223   -2.1462    0.0000 C   0  0  0  0  0  0  0  0  0  0  0  0
  1  2  1  0
  2  8  2  0
  2  3  1  0
  3  4  2  0
  4  6  1  0
  4  5  1  0
  6  7  2  0
  6  9  1  0
  7  8  1  0
  9 10  1  0
 10 15  1  0
 10 11  2  0
 11 12  1  0
 12 13  2  0
 13 14  1  0
 13 17  1  0
 14 15  2  0
 15 16  1  0
 17 18  1  0
 18 19  2  0
 18 23  1  0
 19 20  1  0
 20 21  2  0
 21 22  1  0
 22 23  2  0
M  END
>  <DRUGBANK_ID>  (1) 
DB07287

>  <COMMON_NAME>  (1) 
2-(2,4-DICHLOROPHENOXY)-5-(PYRIDIN-2-YLMETHYL)PHENOL

$$$$
