KCP
     RDKit          2D

 23 24  0  0  0  0  0  0  0  0999 V2000
   -1.6668    0.4742    0.0000 S   0  0  0  0  0  0  0  0  0  0  0  0
   -2.0793    1.1887    0.0000 C   0  0  0  0  0  0  0  0  0  0  0  0
   -1.6668    1.9031    0.0000 C   0  0  0  0  0  0  0  0  0  0  0  0
   -2.0793    2.6176    0.0000 C   0  0  0  0  0  0  0  0  0  0  0  0
   -0.8418    1.9031    0.0000 C   0  0  0  0  0  0  0  0  0  0  0  0
   -0.4293    2.6176    0.0000 C   0  0  0  0  0  0  0  0  0  0  0  0
    0.3957    2.6176    0.0000 O   0  0  0  0  0  0  0  0  0  0  0  0
   -0.8418    3.3321    0.0000 O   0  0  0  0  0  0  0  0  0  0  0  0
   -0.4293    1.1887    0.0000 N   0  0  0  0  0  0  0  0  0  0  0  0
   -0.8418    0.4742    0.0000 C   0  0  0  0  0  0  0  0  0  0  0  0
   -0.4293   -0.2403    0.0000 C   0  0  0  0  0  0  0  0  0  0  0  0
   -0.8418   -0.9548    0.0000 C   0  0  0  0  0  0  0  0  0  0  0  0
   -0.4293   -1.6692    0.0000 O   0  0  0  0  0  0  0  0  0  0  0  0
   -1.6668   -0.9548    0.0000 O   0  0  0  0  0  0  0  0  0  0  0  0
    0.3957   -0.2403    0.0000 N   0  0  0  0  0  0  0  0  0  0  0  0
    0.8082   -0.9548    0.0000 C   0  0  0  0  0  0  0  0  0  0  0  0
    0.3957   -1.6692    0.0000 O   0  0  0  0  0  0  0  0  0  0  0  0
    1.6332   -0.9548    0.0000 C   0  0  0  0  0  0  0  0  0  0  0  0
    2.0457   -1.6692    0.0000 C   0  0  0  0  0  0  0  0  0  0  0  0
    2.8661   -1.7555    0.0000 C   0  0  0  0  0  0  0  0  0  0  0  0
    3.0377   -2.5624    0.0000 C   0  0  0  0  0  0  0  0  0  0  0  0
    2.3232   -2.9749    0.0000 C   0  0  0  0  0  0  0  0  0  0  0  0
    1.7101   -2.4229    0.0000 S   0  0  0  0  0  0  0  0  0  0  0  0
  1  2  1  0
  1 10  1  0
  2  3  1  0
  3  4  1  0
  3  5  2  0
  5  6  1  0
  5  9  1  0
  6  7  1  0
  6  8  2  0
 10  9  1  6
 10 11  1  0
 11 12  1  0
 11 15  1  6
 12 13  2  0
 12 14  1  0
 15 16  1  0
 16 17  2  0
 16 18  1  0
 18 19  1  0
 19 20  2  0
 19 23  1  0
 20 21  1  0
 21 22  2  0
 22 23  1  0
M  END
>  <DRUGBANK_ID>  (1) 
DB02247

>  <SECONDARY_ACCESSION_NUMBERS>  (1) 
EXPT01964; EXPT00890

>  <COMMON_NAME>  (1) 
Hydrolyzed Cephalothin

$$$$
