
     RDKit          2D

 27 31  0  0  0  0  0  0  0  0999 V2000
    2.1551    2.3346    0.0000 S   0  0  0  0  0  0  0  0  0  0  0  0
    1.3347    2.4208    0.0000 C   0  0  0  0  0  0  0  0  0  0  0  0
    0.9991    1.6672    0.0000 N   0  0  0  0  0  0  0  0  0  0  0  0
    1.6122    1.1151    0.0000 C   0  0  0  0  0  0  0  0  0  0  0  0
    2.3267    1.5276    0.0000 C   0  0  0  0  0  0  0  0  0  0  0  0
    1.6122    0.2901    0.0000 C   0  0  0  0  0  0  0  0  0  0  0  0
    2.3267   -0.1224    0.0000 C   0  0  0  0  0  0  0  0  0  0  0  0
    3.0412    0.2901    0.0000 C   0  0  0  0  0  0  0  0  0  0  0  0
    3.0412    1.1151    0.0000 C   0  0  0  0  0  0  0  0  0  0  0  0
    0.9222    3.1353    0.0000 O   0  0  0  0  0  0  0  0  0  0  0  0
    0.1922    1.4956    0.0000 C   0  0  0  0  0  0  0  0  0  0  0  0
   -0.0628    0.7110    0.0000 C   0  0  0  0  0  0  0  0  0  0  0  0
    0.4892    0.0978    0.0000 C   0  0  0  0  0  0  0  0  0  0  0  0
    0.2343   -0.6867    0.0000 C   0  0  0  0  0  0  0  0  0  0  0  0
   -0.5727   -0.8582    0.0000 C   0  0  0  0  0  0  0  0  0  0  0  0
   -1.1247   -0.2451    0.0000 C   0  0  0  0  0  0  0  0  0  0  0  0
   -0.8698    0.5395    0.0000 C   0  0  0  0  0  0  0  0  0  0  0  0
   -2.3267   -3.1353    0.0000 C   0  0  0  0  0  0  0  0  0  0  0  0
   -1.6122   -2.7228    0.0000 C   0  0  0  0  0  0  0  0  0  0  0  0
   -1.6122   -1.8978    0.0000 C   0  0  0  0  0  0  0  0  0  0  0  0
   -2.3267   -1.4853    0.0000 C   0  0  0  0  0  0  0  0  0  0  0  0
   -3.0412   -1.8978    0.0000 C   0  0  0  0  0  0  0  0  0  0  0  0
   -3.0412   -2.7228    0.0000 N   0  0  0  0  0  0  0  0  0  0  0  0
   -0.3427   -2.3102    0.0000 C   0  0  0  0  0  0  0  0  0  0  0  0
   -0.8276   -2.9777    0.0000 N   0  0  0  0  0  0  0  0  0  0  0  0
   -0.8276   -1.6429    0.0000 N   0  0  0  0  0  0  0  0  0  0  0  0
    0.4823   -2.3102    0.0000 C   0  0  0  0  0  0  0  0  0  0  0  0
  1  2  1  0
  1  5  1  0
  2  3  1  0
  2 10  2  0
  3  4  1  0
  3 11  1  0
  4  5  2  0
  6  7  2  0
  6  4  1  0
  7  8  1  0
  8  9  2  0
  9  5  1  0
 11 12  1  0
 12 13  2  0
 12 17  1  0
 13 14  1  0
 14 15  2  0
 15 16  1  0
 15 26  1  0
 16 17  2  0
 18 19  2  0
 18 23  1  0
 19 20  1  0
 20 21  2  0
 21 22  1  0
 22 23  2  0
 24 25  2  0
 24 26  1  0
 24 27  1  0
 25 19  1  0
 26 20  1  0
M  END
>  <DRUGBANK_ID>  (1) 
DB07578

>  <COMMON_NAME>  (1) 
CP-94707

>  <CAS_NUMBER>  (1) 
343250-05-5

>  <UNII>  (1) 
YGC6408B5O

$$$$
