
     RDKit          2D

  3  2  0  0  0  0  0  0  0  0999 V2000
   -0.4125    0.7145    0.0000 C   0  0  0  0  0  0  0  0  0  0  0  0
    1.0164    0.7145    0.0000 N   0  0  0  0  0  0  0  0  0  0  0  0
    0.3020    0.3020    0.0000 O   0  0  0  0  0  0  0  0  0  0  0  0
  3  1  1  0
  3  2  1  0
M  END
>  <DRUGBANK_ID>  (1) 
DB06328

>  <COMMON_NAME>  (1) 
Methoxyamine

>  <CAS_NUMBER>  (1) 
67-62-9

>  <UNII>  (1) 
9TZH4WY30J

$$$$
