
     RDKit          2D

 12 12  0  0  0  0  0  0  0  0999 V2000
   -1.4289   -1.2374    0.0000 C   0  0  0  0  0  0  0  0  0  0  0  0
   -0.7144   -0.8250    0.0000 C   0  0  0  0  0  0  0  0  0  0  0  0
   -0.7144    0.0000    0.0000 N   0  0  0  0  0  0  0  0  0  0  0  0
   -2.1434   -0.8250    0.0000 O   0  0  0  0  0  0  0  0  0  0  0  0
   -2.1434    0.0000    0.0000 C   0  0  0  0  0  0  0  0  0  0  0  0
   -1.4289    0.4125    0.0000 C   0  0  0  0  0  0  0  0  0  0  0  0
    0.7144    0.0000    0.0000 C   0  0  0  0  0  0  0  0  0  0  0  0
    0.0000    0.4125    0.0000 C   0  0  0  0  0  0  0  0  0  0  0  0
    1.4289    1.2374    0.0000 O   0  0  0  0  0  0  0  0  0  0  0  0
    2.1434    0.0000    0.0000 O   0  0  0  0  0  0  0  0  0  0  0  0
    1.4289    0.4125    0.0000 S   0  0  0  0  0  0  0  0  0  0  0  0
    2.1434    0.8250    0.0000 O   0  0  0  0  0  0  0  0  0  0  0  0
  1  4  1  0
  2  1  1  0
  3  2  1  0
  3  6  1  0
  4  5  1  0
  5  6  1  0
  7  8  1  0
  8  3  1  0
 11  7  1  0
 11  9  2  0
 11 10  2  0
 11 12  1  0
M  END
>  <DRUGBANK_ID>  (1) 
DB03814

>  <SECONDARY_ACCESSION_NUMBERS>  (1) 
EXPT02154

>  <COMMON_NAME>  (1) 
2-(N-morpholino)ethanesulfonic acid

>  <CAS_NUMBER>  (1) 
4432-31-9

>  <UNII>  (1) 
2GNK67Q0C4

>  <SYNONYMS>  (1) 
2-(4-morpholinyl)ethanesulfonic acid; 2-(morpholin-4-yl)ethanesulfonic acid; 2-(N-morpholino)ethanesulfonic acid; 2-morpholinoethanesulphonic acid; 4-morpholineethanesulfonic acid; 4-morpholinethanesulfonic acid; MES

$$$$
