
     RDKit          2D

 11 10  0  0  0  0  0  0  0  0999 V2000
   -2.5006   -0.0553    0.0000 O   0  0  0  0  0  0  0  0  0  0  0  0
   -1.7862   -0.4677    0.0000 N   0  0  0  0  0  0  0  0  0  0  0  0
   -1.0717   -0.0553    0.0000 C   0  0  0  0  0  0  0  0  0  0  0  0
   -1.0717    0.7696    0.0000 O   0  0  0  0  0  0  0  0  0  0  0  0
   -0.3571   -0.4677    0.0000 C   0  0  0  0  0  0  0  0  0  0  0  0
    0.3570   -0.0553    0.0000 C   0  0  0  0  0  0  0  0  0  0  0  0
    1.0717   -0.4677    0.0000 C   0  0  0  0  0  0  0  0  0  0  0  0
    1.7860   -0.0553    0.0000 P   0  0  0  0  0  0  0  0  0  0  0  0
    2.5007    0.3571    0.0000 O   0  0  0  0  0  0  0  0  0  0  0  0
    2.1986   -0.7696    0.0000 O   0  0  0  0  0  0  0  0  0  0  0  0
    1.3737    0.6591    0.0000 O   0  0  0  0  0  0  0  0  0  0  0  0
  1  2  1  0
  2  3  1  0
  3  4  2  0
  3  5  1  0
  5  6  1  0
  6  7  1  0
  7  8  1  0
  8  9  1  0
  8 10  1  0
  8 11  2  0
M  END
>  <DRUGBANK_ID>  (1) 
DB01695

>  <SECONDARY_ACCESSION_NUMBERS>  (1) 
EXPT00226

>  <COMMON_NAME>  (1) 
N-Hydroxy-4-phosphonobutanamide

>  <CAS_NUMBER>  (1) 
146086-80-8

>  <UNII>  (1) 
6Y7ZLE6WCN

>  <SYNONYMS>  (1) 
4PBH; N-hydroxy-4-phosphono-butanamide

$$$$
