
     RDKit          2D

 29 31  0  0  0  0  0  0  0  0999 V2000
    1.4358   -2.7631    0.0000 C   0  0  0  0  0  0  0  0  0  0  0  0
    0.8838   -2.1500    0.0000 C   0  0  0  0  0  0  0  0  0  0  0  0
    1.1387   -1.3654    0.0000 N   0  0  0  0  0  0  0  0  0  0  0  0
    0.6538   -0.6979    0.0000 C   0  0  0  0  0  0  0  0  0  0  0  0
   -0.1712   -0.6979    0.0000 O   0  0  0  0  0  0  0  0  0  0  0  0
    1.1387   -0.0305    0.0000 C   0  0  0  0  0  0  0  0  0  0  0  0
    1.4743    0.7232    0.0000 C   0  0  0  0  0  0  0  0  0  0  0  0
    0.9894    1.3906    0.0000 C   0  0  0  0  0  0  0  0  0  0  0  0
    0.1689    1.3044    0.0000 C   0  0  0  0  0  0  0  0  0  0  0  0
   -0.3160    1.9718    0.0000 C   0  0  0  0  0  0  0  0  0  0  0  0
    0.0195    2.7255    0.0000 C   0  0  0  0  0  0  0  0  0  0  0  0
    0.8400    2.8117    0.0000 C   0  0  0  0  0  0  0  0  0  0  0  0
    1.1755    3.5654    0.0000 O   0  0  0  0  0  0  0  0  0  0  0  0
    0.6906    4.2328    0.0000 C   0  0  0  0  0  0  0  0  0  0  0  0
    1.3249    2.1443    0.0000 C   0  0  0  0  0  0  0  0  0  0  0  0
    2.1454    2.2305    0.0000 O   0  0  0  0  0  0  0  0  0  0  0  0
    0.4243    0.3820    0.0000 O   0  0  0  0  0  0  0  0  0  0  0  0
   -0.2902   -0.0305    0.0000 C   0  0  0  0  0  0  0  0  0  0  0  0
   -0.5452   -0.8151    0.0000 O   0  0  0  0  0  0  0  0  0  0  0  0
   -1.0047    0.3820    0.0000 N   0  0  0  0  0  0  0  0  0  0  0  0
   -1.7192   -0.0305    0.0000 C   0  0  0  0  0  0  0  0  0  0  0  0
   -1.0047    1.2070    0.0000 C   0  0  0  0  0  0  0  0  0  0  0  0
    1.9233   -0.2854    0.0000 C   0  0  0  0  0  0  0  0  0  0  0  0
    2.6378    0.1271    0.0000 C   0  0  0  0  0  0  0  0  0  0  0  0
    3.3523   -0.2854    0.0000 C   0  0  0  0  0  0  0  0  0  0  0  0
    4.0668    0.1271    0.0000 Cl  0  0  0  0  0  0  0  0  0  0  0  0
    3.3523   -1.1104    0.0000 C   0  0  0  0  0  0  0  0  0  0  0  0
    2.6378   -1.5229    0.0000 C   0  0  0  0  0  0  0  0  0  0  0  0
    1.9233   -1.1104    0.0000 C   0  0  0  0  0  0  0  0  0  0  0  0
  1  2  1  0
  2  3  1  0
  3  4  1  0
  3 29  1  0
  4  5  2  0
  4  6  1  0
  6  7  1  0
  6 17  1  0
  6 23  1  0
  7  8  1  0
  8  9  2  0
  8 15  1  0
  9 10  1  0
 10 11  2  0
 11 12  1  0
 12 13  1  0
 12 15  2  0
 13 14  1  0
 15 16  1  0
 17 18  1  0
 18 19  2  0
 18 20  1  0
 20 21  1  0
 20 22  1  0
 23 24  2  0
 23 29  1  0
 24 25  1  0
 25 26  1  0
 25 27  2  0
 27 28  1  0
 28 29  2  0
M  END
>  <DRUGBANK_ID>  (1) 
DB18005

>  <COMMON_NAME>  (1) 
MC-16

>  <CAS_NUMBER>  (1) 
2036329-47-0

>  <UNII>  (1) 
9P2K5CXC5F

>  <SYNONYMS>  (1) 
(+)-5-chloro-1-ethyl-3-(2-hydroxy-3-methoxybenzyl)-2-oxoindolin-3-yl dimethylcarbamate

$$$$
