1537
     RDKit          2D

 14 14  0  0  0  0  0  0  0  0999 V2000
    3.7935   -2.3967    0.0000 Br  0  0  0  0  0  0  0  0  0  0  0  0
    2.3645    0.0784    0.0000 O   0  0  0  0  0  0  0  0  0  0  0  0
    5.2224   -1.5717    0.0000 O   0  0  0  0  0  0  0  0  0  0  0  0
    4.5080    2.1409    0.0000 N   0  0  0  0  0  0  0  0  0  0  0  0
    3.7935    0.0784    0.0000 C   0  0  0  0  0  0  0  0  0  0  0  0
    3.7935    0.9034    0.0000 C   0  0  0  0  0  0  0  0  0  0  0  0
    3.0791   -0.3341    0.0000 C   0  0  0  0  0  0  0  0  0  0  0  0
    4.5080    1.3159    0.0000 C   0  0  0  0  0  0  0  0  0  0  0  0
    4.5080   -0.3341    0.0000 C   0  0  0  0  0  0  0  0  0  0  0  0
    4.5080   -1.1592    0.0000 C   0  0  0  0  0  0  0  0  0  0  0  0
    3.0791   -1.1592    0.0000 C   0  0  0  0  0  0  0  0  0  0  0  0
    3.7935   -1.5717    0.0000 C   0  0  0  0  0  0  0  0  0  0  0  0
    1.6500   -0.3341    0.0000 C   0  0  0  0  0  0  0  0  0  0  0  0
    5.9370   -1.1592    0.0000 C   0  0  0  0  0  0  0  0  0  0  0  0
  1 12  1  0
  2  7  1  0
  2 13  1  0
  3 10  1  0
  3 14  1  0
  4  8  1  0
  5  6  1  0
  5  7  2  0
  5  9  1  0
  6  8  1  0
  7 11  1  0
  9 10  2  0
 10 12  1  0
 11 12  2  0
M  END
>  <DRUGBANK_ID>  (1) 
DB01537

>  <COMMON_NAME>  (1) 
4-Bromo-2,5-dimethoxyphenethylamine

>  <CAS_NUMBER>  (1) 
66142-81-2

>  <UNII>  (1) 
V77772N32H

>  <SYNONYMS>  (1) 
2C-B

$$$$
