
     RDKit          2D

 20 21  0  0  0  0  0  0  0  0999 V2000
   -1.3222    8.0652    0.0000 C   0  0  0  0  0  0  0  0  0  0  0  0
   -1.3222    7.2402    0.0000 C   0  0  0  0  0  0  0  0  0  0  0  0
   -2.0367    6.8277    0.0000 C   0  0  0  0  0  0  0  0  0  0  0  0
   -2.7512    7.2402    0.0000 C   0  0  0  0  0  0  0  0  0  0  0  0
   -2.7512    8.0652    0.0000 C   0  0  0  0  0  0  0  0  0  0  0  0
   -2.0367    8.4777    0.0000 C   0  0  0  0  0  0  0  0  0  0  0  0
   -2.0367    9.3027    0.0000 Cl  0  0  0  0  0  0  0  0  0  0  0  0
   -3.4656    6.8277    0.0000 Cl  0  0  0  0  0  0  0  0  0  0  0  0
   -2.0367    6.0027    0.0000 C   0  0  0  0  0  0  0  0  0  0  0  0
   -1.3222    5.5902    0.0000 O   0  0  0  0  0  0  0  0  0  0  0  0
   -2.7512    5.5902    0.0000 N   0  0  0  0  0  0  0  0  0  0  0  0
   -2.7512    4.7652    0.0000 S   0  0  0  0  0  0  0  0  0  0  0  0
   -3.5762    4.7652    0.0000 O   0  0  0  0  0  0  0  0  0  0  0  0
   -1.9262    4.7652    0.0000 O   0  0  0  0  0  0  0  0  0  0  0  0
   -2.7512    3.9402    0.0000 C   0  0  0  0  0  0  0  0  0  0  0  0
   -2.0837    3.4553    0.0000 C   0  0  0  0  0  0  0  0  0  0  0  0
   -2.3387    2.6706    0.0000 C   0  0  0  0  0  0  0  0  0  0  0  0
   -3.1637    2.6706    0.0000 C   0  0  0  0  0  0  0  0  0  0  0  0
   -3.4186    3.4553    0.0000 S   0  0  0  0  0  0  0  0  0  0  0  0
   -3.6486    2.0032    0.0000 Br  0  0  0  0  0  0  0  0  0  0  0  0
  1  2  2  0
  1  6  1  0
  2  3  1  0
  3  4  2  0
  3  9  1  0
  4  5  1  0
  4  8  1  0
  5  6  2  0
  6  7  1  0
  9 10  2  0
  9 11  1  0
 11 12  1  0
 12 13  2  0
 12 14  2  0
 12 15  1  0
 15 16  2  0
 15 19  1  0
 16 17  1  0
 17 18  2  0
 18 19  1  0
 18 20  1  0
M  END
>  <DRUGBANK_ID>  (1) 
DB11941

>  <COMMON_NAME>  (1) 
Tasisulam

>  <CAS_NUMBER>  (1) 
519055-62-0

>  <UNII>  (1) 
1YC4W9MSLJ

>  <SYNONYMS>  (1) 
LY573636; Tasisulam

$$$$
