
     RDKit          2D

 17 18  0  0  1  0  0  0  0  0999 V2000
    1.9239   -1.4901    0.0000 C   0  0  0  0  0  0  0  0  0  0  0  0
    1.6689   -2.2748    0.0000 N   0  0  0  0  0  0  0  0  0  0  0  0
    0.8439   -2.2748    0.0000 C   0  0  0  0  0  0  0  0  0  0  0  0
    0.5890   -1.4901    0.0000 N   0  0  0  0  0  0  0  0  0  0  0  0
    1.2564   -1.0052    0.0000 N   0  0  0  0  0  0  0  0  0  0  0  0
    1.2564   -0.1802    0.0000 C   0  0  0  0  0  0  0  0  0  0  0  0
    0.5890    0.3047    0.0000 C   0  0  0  0  0  0  0  0  0  0  0  0
    0.8439    1.0893    0.0000 C   0  0  0  0  0  0  0  0  0  0  0  0
    1.6689    1.0893    0.0000 C   0  0  0  0  0  0  0  0  0  0  0  0
    1.9239    0.3047    0.0000 O   0  0  0  0  0  0  0  0  0  0  0  0
    2.1538    1.7568    0.0000 C   0  0  0  0  0  0  0  0  0  0  0  0
    1.8183    2.5104    0.0000 O   0  0  0  0  0  0  0  0  0  0  0  0
    0.3590    1.7568    0.0000 O   0  0  0  0  0  0  0  0  0  0  0  0
   -0.1956    0.0498    0.0000 O   0  0  0  0  0  0  0  0  0  0  0  0
    0.3590   -2.9422    0.0000 C   0  0  0  0  0  0  0  0  0  0  0  0
    0.6946   -3.6959    0.0000 N   0  0  0  0  0  0  0  0  0  0  0  0
   -0.4615   -2.8560    0.0000 N   0  0  0  0  0  0  0  0  0  0  0  0
  1  2  2  0
  1  5  1  0
  2  3  1  0
  3  4  2  0
  3 15  1  0
  4  5  1  0
  6  5  1  1
  6  7  1  0
  6 10  1  0
  7  8  1  0
  7 14  1  6
  8  9  1  0
  8 13  1  6
  9 10  1  0
  9 11  1  1
 11 12  1  0
 15 16  2  0
 15 17  1  0
M  END
>  <DRUGBANK_ID>  (1) 
DB06408

>  <COMMON_NAME>  (1) 
Taribavirin

>  <CAS_NUMBER>  (1) 
119567-79-2

>  <UNII>  (1) 
R3B1994K2E

>  <SYNONYMS>  (1) 
Ribavirin amidine; Taribavirin; Viramidine

$$$$
