
     RDKit          2D

 17 18  0  0  0  0  0  0  0  0999 V2000
   -1.4266    1.2344    0.0000 N   0  0  0  0  0  0  0  0  0  0  0  0
   -1.4266    0.4129    0.0000 C   0  0  0  0  0  0  0  0  0  0  0  0
   -2.1376    0.0024    0.0000 N   0  0  0  0  0  0  0  0  0  0  0  0
   -2.1376   -0.8236    0.0000 C   0  0  0  0  0  0  0  0  0  0  0  0
   -2.8532   -1.2343    0.0000 N   0  0  0  0  0  0  0  0  0  0  0  0
   -1.4266   -1.2343    0.0000 N   0  0  0  0  0  0  0  0  0  0  0  0
   -0.7110   -0.8236    0.0000 C   0  0  0  0  0  0  0  0  0  0  0  0
    0.0000   -1.2343    0.0000 N   0  0  0  0  0  0  0  0  0  0  0  0
    0.7155   -0.8236    0.0000 C   0  0  0  0  0  0  0  0  0  0  0  0
    0.7155    0.0024    0.0000 C   0  0  0  0  0  0  0  0  0  0  0  0
    1.4265    0.4129    0.0000 C   0  0  0  0  0  0  0  0  0  0  0  0
    1.4265    1.2344    0.0000 O   0  0  0  0  0  0  0  0  0  0  0  0
    2.1421    0.0024    0.0000 C   0  0  0  0  0  0  0  0  0  0  0  0
    2.1421   -0.8236    0.0000 C   0  0  0  0  0  0  0  0  0  0  0  0
    2.8532    0.4129    0.0000 O   0  0  0  0  0  0  0  0  0  0  0  0
    0.0000    0.4129    0.0000 N   0  0  0  0  0  0  0  0  0  0  0  0
   -0.7110    0.0024    0.0000 C   0  0  0  0  0  0  0  0  0  0  0  0
  1  2  1  0
  2  3  2  0
  2 17  1  0
  3  4  1  0
  4  5  1  0
  4  6  2  0
  7  6  1  0
  7  8  1  0
  8  9  1  0
 10  9  1  1
 10 11  1  0
 11 12  1  1
 11 13  1  0
 13 14  1  1
 13 15  1  0
 16 10  1  0
 17 16  1  0
 17  7  2  0
M  END
>  <DRUGBANK_ID>  (1) 
DB12575

>  <COMMON_NAME>  (1) 
Ronopterin

>  <CAS_NUMBER>  (1) 
185243-78-1

>  <UNII>  (1) 
1D1Z87AY23

>  <SYNONYMS>  (1) 
Ronopterin

$$$$
