
     RDKit          2D

 15 16  0  0  1  0  0  0  0  0999 V2000
    1.9239    2.7489    0.0000 C   0  0  0  0  0  0  0  0  0  0  0  0
   -1.7605    4.4559    0.0000 C   0  0  0  0  0  0  0  0  0  0  0  0
    0.8439    1.9642    0.0000 C   0  0  0  0  0  0  0  0  0  0  0  0
   -1.2756    3.7884    0.0000 C   0  0  0  0  0  0  0  0  0  0  0  0
    1.2564    3.2338    0.0000 C   0  0  0  0  0  0  0  0  0  0  0  0
   -1.5305    3.0038    0.0000 C   0  0  0  0  0  0  0  0  0  0  0  0
   -0.8631    2.5189    0.0000 C   0  0  0  0  0  0  0  0  0  0  0  0
   -0.1956    3.0038    0.0000 C   0  0  0  0  0  0  0  0  0  0  0  0
    1.2564    4.0588    0.0000 N   0  0  0  0  0  0  0  0  0  0  0  0
    1.6689    1.9642    0.0000 N   0  0  0  0  0  0  0  0  0  0  0  0
    0.5890    2.7489    0.0000 N   0  0  0  0  0  0  0  0  0  0  0  0
   -2.5810    4.3696    0.0000 O   0  0  0  0  0  0  0  0  0  0  0  0
   -2.3151    2.7489    0.0000 O   0  0  0  0  0  0  0  0  0  0  0  0
   -0.8631    1.6939    0.0000 O   0  0  0  0  0  0  0  0  0  0  0  0
   -0.4506    3.7884    0.0000 O   0  0  0  0  0  0  0  0  0  0  0  0
  4  2  1  1
  5  1  2  0
  6  4  1  0
  6 13  1  6
  7  6  1  0
  7 14  1  6
  8  7  1  0
  8 11  1  1
  9  5  1  0
 10  1  1  0
 10  3  2  0
 11  3  1  0
 11  5  1  0
 12  2  1  0
 15  4  1  0
 15  8  1  0
M  END
>  <DRUGBANK_ID>  (1) 
DB04568

>  <SECONDARY_ACCESSION_NUMBERS>  (1) 
EXPT00477

>  <COMMON_NAME>  (1) 
5-Aminoimidazole Ribonucleoside

$$$$
