3B6
     RDKit          2D

 25 26  0  0  0  0  0  0  0  0999 V2000
   -1.6739   -0.0310    0.0000 C   0  0  0  0  0  0  0  0  0  0  0  0
   -2.3884    0.3815    0.0000 C   0  0  0  0  0  0  0  0  0  0  0  0
   -3.1028   -0.0310    0.0000 I   0  0  0  0  0  0  0  0  0  0  0  0
   -2.3884    1.2065    0.0000 C   0  0  0  0  0  0  0  0  0  0  0  0
   -3.1028    1.6190    0.0000 C   0  0  0  0  0  0  0  0  0  0  0  0
   -3.8173    2.0315    0.0000 N   0  0  0  0  0  0  0  0  0  0  0  0
   -1.6739    1.6190    0.0000 C   0  0  0  0  0  0  0  0  0  0  0  0
   -0.9594    1.2065    0.0000 C   0  0  0  0  0  0  0  0  0  0  0  0
   -0.9594    0.3815    0.0000 C   0  0  0  0  0  0  0  0  0  0  0  0
   -0.2449   -0.0310    0.0000 N   0  0  0  0  0  0  0  0  0  0  0  0
    0.4695    0.3815    0.0000 C   0  0  0  0  0  0  0  0  0  0  0  0
    0.4695    1.2065    0.0000 O   0  0  0  0  0  0  0  0  0  0  0  0
    1.1840   -0.0310    0.0000 C   0  0  0  0  0  0  0  0  0  0  0  0
    0.7715   -0.7455    0.0000 O   0  0  0  0  0  0  0  0  0  0  0  0
    1.5965    0.6835    0.0000 C   0  0  0  0  0  0  0  0  0  0  0  0
    1.8985   -0.4435    0.0000 C   0  0  0  0  0  0  0  0  0  0  0  0
    2.6129   -0.0310    0.0000 O   0  0  0  0  0  0  0  0  0  0  0  0
    3.3274   -0.4435    0.0000 C   0  0  0  0  0  0  0  0  0  0  0  0
    4.0419   -0.0310    0.0000 C   0  0  0  0  0  0  0  0  0  0  0  0
    4.7564   -0.4435    0.0000 C   0  0  0  0  0  0  0  0  0  0  0  0
    4.7564   -1.2685    0.0000 C   0  0  0  0  0  0  0  0  0  0  0  0
    5.4708   -1.6810    0.0000 C   0  0  0  0  0  0  0  0  0  0  0  0
    6.1853   -2.0935    0.0000 N   0  0  0  0  0  0  0  0  0  0  0  0
    4.0419   -1.6810    0.0000 C   0  0  0  0  0  0  0  0  0  0  0  0
    3.3274   -1.2685    0.0000 C   0  0  0  0  0  0  0  0  0  0  0  0
  1  2  2  0
  1  9  1  0
  2  3  1  0
  2  4  1  0
  4  5  1  0
  4  7  2  0
  5  6  3  0
  7  8  1  0
  8  9  2  0
  9 10  1  0
 10 11  1  0
 11 12  2  0
 13 11  1  0
 13 14  1  0
 13 15  1  1
 13 16  1  0
 16 17  1  0
 17 18  1  0
 18 19  2  0
 18 25  1  0
 19 20  1  0
 20 21  2  0
 21 22  1  0
 21 24  1  0
 22 23  3  0
 24 25  2  0
M  END
>  <DRUGBANK_ID>  (1) 
DB07039

>  <COMMON_NAME>  (1) 
(2S)-N-(4-cyano-3-iodophenyl)-3-(4-cyanophenoxy)-2-hydroxy-2-methylpropanamide

$$$$
