
     RDKit          2D

 25 31  0  0  0  0  0  0  0  0999 V2000
   -0.1837    0.6327    0.0000 C   0  0  0  0  0  0  0  0  0  0  0  0
    0.1975   -0.0711    0.0000 C   0  0  0  0  0  0  0  0  0  0  0  0
    0.2287    1.3393    0.0000 C   0  0  0  0  0  0  0  0  0  0  0  0
   -1.1069    0.4112    0.0000 C   0  0  0  0  0  0  0  0  0  0  0  0
   -0.9982    0.8228    0.0000 C   0  0  0  0  0  0  0  0  0  0  0  0
    1.0228   -0.0861    0.0000 C   0  0  0  0  0  0  0  0  0  0  0  0
   -0.2057   -0.7747    0.0000 N   0  0  0  0  0  0  0  0  0  0  0  0
    0.0193    2.0783    0.0000 N   0  0  0  0  0  0  0  0  0  0  0  0
    1.0530    1.3415    0.0000 C   0  0  0  0  0  0  0  0  0  0  0  0
   -1.1069   -0.5184    0.0000 C   0  0  0  0  0  0  0  0  0  0  0  0
   -1.9004    0.8901    0.0000 C   0  0  0  0  0  0  0  0  0  0  0  0
   -1.0561    1.7658    0.0000 C   0  0  0  0  0  0  0  0  0  0  0  0
    1.4462    0.6200    0.0000 C   0  0  0  0  0  0  0  0  0  0  0  0
    1.4332   -0.7956    0.0000 C   0  0  0  0  0  0  0  0  0  0  0  0
    0.1864   -1.4904    0.0000 C   0  0  0  0  0  0  0  0  0  0  0  0
    1.5341    2.1972    0.0000 C   0  0  0  0  0  0  0  0  0  0  0  0
   -1.9316   -0.9714    0.0000 C   0  0  0  0  0  0  0  0  0  0  0  0
   -2.7232    0.4339    0.0000 C   0  0  0  0  0  0  0  0  0  0  0  0
    2.1757    0.7382    0.0000 C   0  0  0  0  0  0  0  0  0  0  0  0
    1.0045   -1.5005    0.0000 C   0  0  0  0  0  0  0  0  0  0  0  0
    2.1538   -0.9339    0.0000 O   0  0  0  0  0  0  0  0  0  0  0  0
   -0.2346   -2.1972    0.0000 O   0  0  0  0  0  0  0  0  0  0  0  0
   -2.7272   -0.5002    0.0000 C   0  0  0  0  0  0  0  0  0  0  0  0
    2.7272    0.2696    0.0000 C   0  0  0  0  0  0  0  0  0  0  0  0
    2.7210   -0.4661    0.0000 C   0  0  0  0  0  0  0  0  0  0  0  0
  1  2  1  0
  1  3  1  0
  1  4  1  0
  1  5  1  1
  2  6  1  0
  2  7  1  6
  3  8  1  0
  3  9  1  1
  4 10  2  0
  4 11  1  0
  5 12  1  0
  6 13  1  0
  6 14  1  1
  7 15  1  0
  7 10  1  0
  8 16  1  0
  8 12  1  0
 13  9  1  1
 10 17  1  0
 11 18  2  0
 13 19  1  0
 14 20  1  1
 14 21  1  0
 15 22  2  0
 15 20  1  0
 16 19  1  0
 17 23  2  0
 18 23  1  0
 19 24  2  0
 21 25  1  0
 24 25  1  0
M  END
>  <DRUGBANK_ID>  (1) 
DB15954

>  <COMMON_NAME>  (1) 
Strychnine

>  <CAS_NUMBER>  (1) 
57-24-9

>  <UNII>  (1) 
H9Y79VD43J

>  <SYNONYMS>  (1) 
Stricnina; Strychnidin-10-one; Strychnin

$$$$
