UC4
     RDKit          2D

 23 24  0  0  0  0  0  0  0  0999 V2000
    3.0050    0.3238    0.0000 Cl  0  0  0  0  0  0  0  0  0  0  0  0
    1.5761    0.3238    0.0000 C   0  0  0  0  0  0  0  0  0  0  0  0
    2.2906   -0.0887    0.0000 C   0  0  0  0  0  0  0  0  0  0  0  0
    2.2906   -0.9137    0.0000 C   0  0  0  0  0  0  0  0  0  0  0  0
    1.5761   -1.3262    0.0000 C   0  0  0  0  0  0  0  0  0  0  0  0
    0.8616   -0.9137    0.0000 C   0  0  0  0  0  0  0  0  0  0  0  0
    0.8616   -0.0887    0.0000 C   0  0  0  0  0  0  0  0  0  0  0  0
    0.8616    1.5613    0.0000 O   0  0  0  0  0  0  0  0  0  0  0  0
    1.5761    1.1488    0.0000 C   0  0  0  0  0  0  0  0  0  0  0  0
    2.2906    1.5613    0.0000 O   0  0  0  0  0  0  0  0  0  0  0  0
    2.2906    2.3863    0.0000 C   0  0  0  0  0  0  0  0  0  0  0  0
    3.0050    2.7988    0.0000 C   0  0  0  0  0  0  0  0  0  0  0  0
    1.5761    2.7988    0.0000 C   0  0  0  0  0  0  0  0  0  0  0  0
   -2.7107   -1.3262    0.0000 O   0  0  0  0  0  0  0  0  0  0  0  0
   -1.9963   -0.9137    0.0000 C   0  0  0  0  0  0  0  0  0  0  0  0
   -1.2818   -1.3262    0.0000 C   0  0  0  0  0  0  0  0  0  0  0  0
   -1.2818   -2.1512    0.0000 S   0  0  0  0  0  0  0  0  0  0  0  0
   -1.9963   -2.5637    0.0000 C   0  0  0  0  0  0  0  0  0  0  0  0
   -2.7107   -2.1512    0.0000 C   0  0  0  0  0  0  0  0  0  0  0  0
   -1.9963   -0.0887    0.0000 C   0  0  0  0  0  0  0  0  0  0  0  0
   -0.5673   -0.0887    0.0000 O   0  0  0  0  0  0  0  0  0  0  0  0
   -0.5673   -0.9137    0.0000 C   0  0  0  0  0  0  0  0  0  0  0  0
    0.1471   -1.3262    0.0000 N   0  0  0  0  0  0  0  0  0  0  0  0
  1  3  1  0
  2  3  2  0
  2  7  1  0
  2  9  1  0
  3  4  1  0
  4  5  2  0
  5  6  1  0
  6  7  2  0
  6 23  1  0
  8  9  2  0
  9 10  1  0
 10 11  1  0
 11 12  1  0
 11 13  1  0
 14 15  1  0
 14 19  1  0
 15 16  2  0
 15 20  1  0
 16 17  1  0
 16 22  1  0
 17 18  1  0
 18 19  1  0
 21 22  2  0
 22 23  1  0
M  END
>  <DRUGBANK_ID>  (1) 
DB08682

>  <COMMON_NAME>  (1) 
1-METHYL ETHYL 1-CHLORO-5-[[(5,6DIHYDRO-2-METHYL-1,4-OXATHIIN-3-YL)CARBONYL]AMINO]BENZOATE

>  <UNII>  (1) 
IJ5WR6SKU5

$$$$
