
     RDKit          2D

 38 41  0  0  0  0  0  0  0  0999 V2000
    6.3235   -2.1241    0.0000 C   0  0  0  0  0  0  0  0  0  0  0  0
    6.3235   -2.9491    0.0000 C   0  0  0  0  0  0  0  0  0  0  0  0
    6.9910   -3.4340    0.0000 C   0  0  0  0  0  0  0  0  0  0  0  0
    6.7360   -4.2187    0.0000 C   0  0  0  0  0  0  0  0  0  0  0  0
    7.2210   -4.8861    0.0000 O   0  0  0  0  0  0  0  0  0  0  0  0
    5.9110   -4.2187    0.0000 N   0  0  0  0  0  0  0  0  0  0  0  0
    5.6561   -3.4340    0.0000 N   0  0  0  0  0  0  0  0  0  0  0  0
    4.8715   -3.1791    0.0000 C   0  0  0  0  0  0  0  0  0  0  0  0
    5.4261   -4.8861    0.0000 C   0  0  0  0  0  0  0  0  0  0  0  0
    5.7617   -5.6398    0.0000 C   0  0  0  0  0  0  0  0  0  0  0  0
    5.2767   -6.3072    0.0000 C   0  0  0  0  0  0  0  0  0  0  0  0
    4.4563   -6.2210    0.0000 C   0  0  0  0  0  0  0  0  0  0  0  0
    4.1207   -5.4673    0.0000 C   0  0  0  0  0  0  0  0  0  0  0  0
    4.6056   -4.7999    0.0000 C   0  0  0  0  0  0  0  0  0  0  0  0
    7.7756   -3.1791    0.0000 C   0  0  0  0  0  0  0  0  0  0  0  0
    7.9471   -2.3721    0.0000 N   0  0  0  0  0  0  0  0  0  0  0  0
    8.7317   -2.1172    0.0000 C   0  0  0  0  0  0  0  0  0  0  0  0
    8.9033   -1.3102    0.0000 C   0  0  0  0  0  0  0  0  0  0  0  0
    9.6879   -1.0553    0.0000 C   0  0  0  0  0  0  0  0  0  0  0  0
   10.3010   -1.6073    0.0000 C   0  0  0  0  0  0  0  0  0  0  0  0
   10.1295   -2.4143    0.0000 C   0  0  0  0  0  0  0  0  0  0  0  0
    9.3448   -2.6692    0.0000 C   0  0  0  0  0  0  0  0  0  0  0  0
   11.0856   -1.3524    0.0000 S   0  0  0  0  0  0  0  0  0  0  0  0
   11.3405   -2.1370    0.0000 O   0  0  0  0  0  0  0  0  0  0  0  0
   10.8307   -0.5677    0.0000 O   0  0  0  0  0  0  0  0  0  0  0  0
   11.8702   -1.0974    0.0000 N   0  0  0  0  0  0  0  0  0  0  0  0
   12.4833   -1.6495    0.0000 C   0  0  0  0  0  0  0  0  0  0  0  0
   13.2679   -1.3945    0.0000 C   0  0  0  0  0  0  0  0  0  0  0  0
   13.8810   -1.9465    0.0000 C   0  0  0  0  0  0  0  0  0  0  0  0
   13.7095   -2.7535    0.0000 C   0  0  0  0  0  0  0  0  0  0  0  0
   12.9249   -3.0085    0.0000 N   0  0  0  0  0  0  0  0  0  0  0  0
   12.3118   -2.4564    0.0000 N   0  0  0  0  0  0  0  0  0  0  0  0
   14.3226   -3.3056    0.0000 O   0  0  0  0  0  0  0  0  0  0  0  0
   15.1072   -3.0506    0.0000 C   0  0  0  0  0  0  0  0  0  0  0  0
    8.3887   -3.7311    0.0000 S   0  0  0  0  0  0  0  0  0  0  0  0
    9.0018   -4.2832    0.0000 O   0  0  0  0  0  0  0  0  0  0  0  0
    8.9407   -3.1180    0.0000 O   0  0  0  0  0  0  0  0  0  0  0  0
    7.8367   -4.3442    0.0000 O   0  0  0  0  0  0  0  0  0  0  0  0
  1  2  1  0
  2  3  2  0
  2  7  1  0
  3  4  1  0
  3 15  1  0
  4  5  2  0
  4  6  1  0
  6  7  1  0
  6  9  1  0
  7  8  1  0
  9 10  2  0
  9 14  1  0
 10 11  1  0
 11 12  2  0
 12 13  1  0
 13 14  2  0
 15 16  1  0
 15 35  1  0
 16 17  1  0
 17 18  2  0
 17 22  1  0
 18 19  1  0
 19 20  2  0
 20 21  1  0
 20 23  1  0
 21 22  2  0
 23 24  2  0
 23 25  2  0
 23 26  1  0
 26 27  1  0
 27 28  2  0
 27 32  1  0
 28 29  1  0
 29 30  2  0
 30 31  1  0
 30 33  1  0
 31 32  2  0
 33 34  1  0
 35 36  2  0
 35 37  2  0
 35 38  1  0
M  END
>  <DRUGBANK_ID>  (1) 
DB13556

>  <COMMON_NAME>  (1) 
Sulfamazone

>  <CAS_NUMBER>  (1) 
65761-24-2

>  <UNII>  (1) 
D7B8U8VA9J

>  <SYNONYMS>  (1) 
Sulfamazone

$$$$
