
     RDKit          2D

 33 37  0  0  1  0  0  0  0  0999 V2000
   -4.0767   -3.1495    0.0000 C   0  0  0  0  0  0  0  0  0  0  0  0
   -3.2697   -2.9779    0.0000 C   0  0  0  0  0  0  0  0  0  0  0  0
   -2.7177   -3.5910    0.0000 O   0  0  0  0  0  0  0  0  0  0  0  0
   -3.0148   -2.1933    0.0000 N   0  0  0  0  0  0  0  0  0  0  0  0
   -3.4997   -1.5259    0.0000 C   0  0  0  0  0  0  0  0  0  0  0  0
   -3.0148   -0.8584    0.0000 C   0  0  0  0  0  0  0  0  0  0  0  0
   -3.7293   -0.4459    0.0000 F   0  0  0  0  0  0  0  0  0  0  0  0
   -2.6792   -0.1048    0.0000 F   0  0  0  0  0  0  0  0  0  0  0  0
   -2.2302   -1.1134    0.0000 C   0  0  0  0  0  0  0  0  0  0  0  0
   -1.5157   -0.7009    0.0000 C   0  0  0  0  0  0  0  0  0  0  0  0
   -1.5157    0.1240    0.0000 S   0  0  0  0  0  0  0  0  0  0  0  0
   -0.8012    0.5365    0.0000 C   0  0  0  0  0  0  0  0  0  0  0  0
   -0.8012    1.3615    0.0000 N   0  0  0  0  0  0  0  0  0  0  0  0
   -0.0868    1.7740    0.0000 C   0  0  0  0  0  0  0  0  0  0  0  0
    0.6276    1.3615    0.0000 C   0  0  0  0  0  0  0  0  0  0  0  0
    0.6276    0.5365    0.0000 N   0  0  0  0  0  0  0  0  0  0  0  0
   -0.0868    0.1240    0.0000 C   0  0  0  0  0  0  0  0  0  0  0  0
   -0.0868   -0.7009    0.0000 N   0  0  0  0  0  0  0  0  0  0  0  0
    1.3421    1.7740    0.0000 N   0  0  0  0  0  0  0  0  0  0  0  0
    1.3421    2.5990    0.0000 C   0  0  0  0  0  0  0  0  0  0  0  0
    2.0565    3.0115    0.0000 C   0  0  0  0  0  0  0  0  0  0  0  0
    2.7710    2.5990    0.0000 C   0  0  0  0  0  0  0  0  0  0  0  0
    2.8572    3.4195    0.0000 C   0  0  0  0  0  0  0  0  0  0  0  0
    3.6642    3.5910    0.0000 O   0  0  0  0  0  0  0  0  0  0  0  0
    4.0767    2.8766    0.0000 C   0  0  0  0  0  0  0  0  0  0  0  0
    3.5247    2.2635    0.0000 C   0  0  0  0  0  0  0  0  0  0  0  0
    3.6962    1.4565    0.0000 N   0  0  0  0  0  0  0  0  0  0  0  0
    2.7710    1.7740    0.0000 C   0  0  0  0  0  0  0  0  0  0  0  0
    2.0565    1.3615    0.0000 C   0  0  0  0  0  0  0  0  0  0  0  0
   -0.8012   -1.1134    0.0000 C   0  0  0  0  0  0  0  0  0  0  0  0
   -0.8012   -1.9384    0.0000 C   0  0  0  0  0  0  0  0  0  0  0  0
   -1.5157   -2.3509    0.0000 C   0  0  0  0  0  0  0  0  0  0  0  0
   -2.2302   -1.9384    0.0000 C   0  0  0  0  0  0  0  0  0  0  0  0
  1  2  1  0
  2  3  2  0
  2  4  1  0
  4  5  1  0
  4 33  1  0
  5  6  1  0
  6  7  1  0
  6  8  1  0
  6  9  1  0
  9 10  2  0
  9 33  1  0
 10 11  1  0
 10 30  1  0
 11 12  1  0
 12 13  2  0
 12 17  1  0
 13 14  1  0
 14 15  2  0
 15 16  1  0
 15 19  1  0
 16 17  2  0
 17 18  1  0
 19 20  1  0
 19 29  1  0
 20 21  1  0
 21 22  1  0
 22 23  1  0
 22 28  1  0
 23 24  1  0
 24 25  1  0
 26 22  1  0
 26 25  1  0
 26 27  1  1
 28 29  1  0
 30 31  2  0
 31 32  1  0
 32 33  2  0
M  END
>  <DRUGBANK_ID>  (1) 
DB17131

>  <COMMON_NAME>  (1) 
JAB-3068

>  <UNII>  (1) 
V6Q7413SA8

>  <SYNONYMS>  (1) 
JAB3068

$$$$
