
     RDKit          2D

  9  9  0  0  0  0  0  0  0  0999 V2000
   -2.3866    3.1232    0.0000 N   0  0  0  0  0  0  0  0  0  0  0  0
   -3.1011    2.7107    0.0000 C   0  0  0  0  0  0  0  0  0  0  0  0
   -3.1011    1.8857    0.0000 C   0  0  0  0  0  0  0  0  0  0  0  0
   -2.3866    1.4732    0.0000 C   0  0  0  0  0  0  0  0  0  0  0  0
   -1.6721    1.8857    0.0000 C   0  0  0  0  0  0  0  0  0  0  0  0
   -1.6721    2.7107    0.0000 C   0  0  0  0  0  0  0  0  0  0  0  0
   -0.9577    1.4732    0.0000 C   0  0  0  0  0  0  0  0  0  0  0  0
   -0.2432    1.8857    0.0000 O   0  0  0  0  0  0  0  0  0  0  0  0
   -0.9577    0.6482    0.0000 O   0  0  0  0  0  0  0  0  0  0  0  0
  1  2  1  0
  1  6  1  0
  2  3  1  0
  3  4  1  0
  4  5  2  0
  5  6  1  0
  5  7  1  0
  7  8  1  0
  7  9  2  0
M  END
>  <DRUGBANK_ID>  (1) 
DB08848

>  <COMMON_NAME>  (1) 
Guvacine

>  <CAS_NUMBER>  (1) 
498-96-4

>  <UNII>  (1) 
41538P325K

$$$$
