T1D
     RDKit          2D

 22 24  0  0  0  0  0  0  0  0999 V2000
    3.8400    0.3831    0.0000 O   0  0  0  0  0  0  0  0  0  0  0  0
    3.0554    0.1282    0.0000 C   0  0  0  0  0  0  0  0  0  0  0  0
    2.8004   -0.6565    0.0000 N   0  0  0  0  0  0  0  0  0  0  0  0
    1.9754   -0.6565    0.0000 S   0  0  0  0  0  0  0  0  0  0  0  0
    2.0617   -1.4769    0.0000 O   0  0  0  0  0  0  0  0  0  0  0  0
    1.1684   -0.8280    0.0000 O   0  0  0  0  0  0  0  0  0  0  0  0
    1.7205    0.1282    0.0000 N   0  0  0  0  0  0  0  0  0  0  0  0
    2.3879    0.6131    0.0000 C   0  0  0  0  0  0  0  0  0  0  0  0
    0.9359    0.3831    0.0000 C   0  0  0  0  0  0  0  0  0  0  0  0
    0.3228   -0.1689    0.0000 C   0  0  0  0  0  0  0  0  0  0  0  0
   -0.4619    0.0860    0.0000 C   0  0  0  0  0  0  0  0  0  0  0  0
   -0.6334    0.8930    0.0000 C   0  0  0  0  0  0  0  0  0  0  0  0
   -0.0203    1.4450    0.0000 C   0  0  0  0  0  0  0  0  0  0  0  0
    0.7643    1.1901    0.0000 C   0  0  0  0  0  0  0  0  0  0  0  0
    1.3774    1.7421    0.0000 O   0  0  0  0  0  0  0  0  0  0  0  0
    1.2059    2.5491    0.0000 C   0  0  0  0  0  0  0  0  0  0  0  0
   -1.0750   -0.4660    0.0000 C   0  0  0  0  0  0  0  0  0  0  0  0
   -0.9034   -1.2730    0.0000 C   0  0  0  0  0  0  0  0  0  0  0  0
   -1.5165   -1.8250    0.0000 C   0  0  0  0  0  0  0  0  0  0  0  0
   -2.3011   -1.5701    0.0000 C   0  0  0  0  0  0  0  0  0  0  0  0
   -2.4727   -0.7631    0.0000 C   0  0  0  0  0  0  0  0  0  0  0  0
   -1.8596   -0.2111    0.0000 C   0  0  0  0  0  0  0  0  0  0  0  0
  1  2  2  0
  2  3  1  0
  2  8  1  0
  3  4  1  0
  4  5  2  0
  4  6  2  0
  4  7  1  0
  7  8  1  0
  7  9  1  0
  9 10  2  0
  9 14  1  0
 10 11  1  0
 11 12  2  0
 11 17  1  0
 12 13  1  0
 13 14  2  0
 14 15  1  0
 15 16  1  0
 17 18  2  0
 17 22  1  0
 18 19  1  0
 19 20  2  0
 20 21  1  0
 21 22  2  0
M  END
>  <DRUGBANK_ID>  (1) 
DB08591

>  <COMMON_NAME>  (1) 
5-(4-METHOXYBIPHENYL-3-YL)-1,2,5-THIADIAZOLIDIN-3-ONE 1,1-DIOXIDE

$$$$
