
     RDKit          2D

 20 22  0  0  0  0  0  0  0  0999 V2000
    1.4058    0.8060    0.0000 N   0  0  0  0  0  0  0  0  0  0  0  0
    0.6908    1.2151    0.0000 C   0  0  0  0  0  0  0  0  0  0  0  0
    1.4162   -1.0088    0.0000 C   0  0  0  0  0  0  0  0  0  0  0  0
    2.1242    1.2220    0.0000 C   0  0  0  0  0  0  0  0  0  0  0  0
    0.6874    2.0469    0.0000 C   0  0  0  0  0  0  0  0  0  0  0  0
   -0.0240    0.8060    0.0000 C   0  0  0  0  0  0  0  0  0  0  0  0
    0.3884   -0.4348    0.0000 O   0  0  0  0  0  0  0  0  0  0  0  0
    1.0174   -1.7891    0.0000 C   0  0  0  0  0  0  0  0  0  0  0  0
    2.1209    2.0538    0.0000 N   0  0  0  0  0  0  0  0  0  0  0  0
   -0.0275    2.4559    0.0000 C   0  0  0  0  0  0  0  0  0  0  0  0
   -0.7355    1.2185    0.0000 C   0  0  0  0  0  0  0  0  0  0  0  0
   -0.6393   -1.0088    0.0000 C   0  0  0  0  0  0  0  0  0  0  0  0
   -0.2577   -1.7891    0.0000 C   0  0  0  0  0  0  0  0  0  0  0  0
    1.2375   -2.4559    0.0000 O   0  0  0  0  0  0  0  0  0  0  0  0
   -0.7355    2.0435    0.0000 C   0  0  0  0  0  0  0  0  0  0  0  0
   -1.4505    0.8095    0.0000 Cl  0  0  0  0  0  0  0  0  0  0  0  0
   -1.2511   -0.4898    0.0000 C   0  0  0  0  0  0  0  0  0  0  0  0
   -0.5396   -2.4559    0.0000 O   0  0  0  0  0  0  0  0  0  0  0  0
   -1.4470    2.4559    0.0000 Cl  0  0  0  0  0  0  0  0  0  0  0  0
   -2.1242   -0.8610    0.0000 O   0  0  0  0  0  0  0  0  0  0  0  0
  1  2  1  0
  1  4  1  0
  2  5  2  0
  2  6  1  0
  3  1  1  1
  3  7  1  0
  3  8  1  0
  4  9  2  0
  5 10  1  0
  5  9  1  0
  6 11  2  0
  7 12  1  0
  8 13  1  0
  8 14  1  6
 10 15  2  0
 11 16  1  0
 11 15  1  0
 12 17  1  1
 12 13  1  0
 13 18  1  6
 15 19  1  0
 17 20  1  0
M  END
>  <DRUGBANK_ID>  (1) 
DB08473

>  <COMMON_NAME>  (1) 
Dichlororibofuranosylbenzimidazole

>  <CAS_NUMBER>  (1) 
53-85-0

>  <UNII>  (1) 
8153319T3Q

>  <SYNONYMS>  (1) 
5,6-dichloro-1-beta-D-ribofuranosyl-1H-benzimidazole

$$$$
