
     RDKit          2D

  6  5  0  0  1  0  0  0  0  0999 V2000
   -0.4125   -2.1434    0.0000 C   0  0  0  0  0  0  0  0  0  0  0  0
   -0.4125    0.7145    0.0000 C   0  0  0  0  0  0  0  0  0  0  0  0
   -0.4125   -0.7145    0.0000 C   0  0  0  0  0  0  0  0  0  0  0  0
    0.8250    0.0000    0.0000 O   0  0  0  0  0  0  0  0  0  0  0  0
    0.0000   -1.4289    0.0000 S   0  0  0  0  0  0  0  0  0  0  0  0
    0.0000    0.0000    0.0000 S   0  0  0  0  0  0  0  0  0  0  0  0
  5  1  1  0
  5  3  1  0
  6  2  1  0
  6  3  1  0
  6  4  2  0
M  END
>  <DRUGBANK_ID>  (1) 
DB02311

>  <SECONDARY_ACCESSION_NUMBERS>  (1) 
EXPT01278

>  <COMMON_NAME>  (1) 
Methyl Methylsulfinylmethyl Sulfide

>  <CAS_NUMBER>  (1) 
33577-16-1

$$$$
