
     RDKit          2D

 20 22  0  0  0  0  0  0  0  0999 V2000
   -0.1769    1.4923    0.0000 C   0  0  0  0  0  0  0  0  0  0  0  0
   -0.1769    0.6672    0.0000 C   0  0  0  0  0  0  0  0  0  0  0  0
    1.0926    1.0797    0.0000 C   0  0  0  0  0  0  0  0  0  0  0  0
   -0.8913    1.9048    0.0000 C   0  0  0  0  0  0  0  0  0  0  0  0
   -0.8913    2.7297    0.0000 O   0  0  0  0  0  0  0  0  0  0  0  0
   -1.6058    1.4923    0.0000 N   0  0  0  0  0  0  0  0  0  0  0  0
   -0.8913    0.2548    0.0000 N   0  0  0  0  0  0  0  0  0  0  0  0
    0.6077    1.7472    0.0000 N   0  0  0  0  0  0  0  0  0  0  0  0
    0.6077    0.4124    0.0000 C   0  0  0  0  0  0  0  0  0  0  0  0
    0.8212   -0.3845    0.0000 C   0  0  0  0  0  0  0  0  0  0  0  0
    0.3363   -1.0518    0.0000 N   0  0  0  0  0  0  0  0  0  0  0  0
    0.8212   -1.7193    0.0000 C   0  0  0  0  0  0  0  0  0  0  0  0
    0.6077   -2.5162    0.0000 C   0  0  0  0  0  0  0  0  0  0  0  0
   -0.1891   -2.7298    0.0000 O   0  0  0  0  0  0  0  0  0  0  0  0
    1.6058   -0.6394    0.0000 C   0  0  0  0  0  0  0  0  0  0  0  0
    2.3203   -0.2269    0.0000 O   0  0  0  0  0  0  0  0  0  0  0  0
    1.6058   -1.4644    0.0000 C   0  0  0  0  0  0  0  0  0  0  0  0
    2.3203   -1.8769    0.0000 O   0  0  0  0  0  0  0  0  0  0  0  0
   -1.6058    0.6672    0.0000 C   0  0  0  0  0  0  0  0  0  0  0  0
   -2.3203    0.2548    0.0000 N   0  0  0  0  0  0  0  0  0  0  0  0
  1  2  2  0
  2  9  1  0
  4  6  1  0
  4  1  1  0
  4  5  2  0
  6 19  1  0
  7  2  1  0
  8  1  1  0
  8  3  1  0
  9  3  2  0
 10  9  1  1
 10 11  1  0
 12 17  1  0
 12 11  1  0
 12 13  1  1
 13 14  1  0
 15 10  1  0
 15 16  1  6
 17 15  1  0
 17 18  1  6
 19  7  2  0
 19 20  1  0
M  END
>  <DRUGBANK_ID>  (1) 
DB02230

>  <SECONDARY_ACCESSION_NUMBERS>  (1) 
EXPT01868

>  <COMMON_NAME>  (1) 
Immucillin-G

>  <UNII>  (1) 
XLM0Q9H891

>  <SYNONYMS>  (1) 
(1S)-1,4-dideoxy-1,4-imino-1-(9-deazaguanin-9-yl)-D-ribitol

$$$$
