
     RDKit          2D

 27 27  0  0  0  0  0  0  0  0999 V2000
   -1.7308    3.9187    0.0000 P   0  0  0  0  0  0  0  0  0  0  0  0
   -1.7308   -1.8562    0.0000 O   0  0  0  0  0  0  0  0  0  0  0  0
   -0.3019   -3.5062    0.0000 O   0  0  0  0  0  0  0  0  0  0  0  0
   -2.4454   -3.0937    0.0000 O   0  0  0  0  0  0  0  0  0  0  0  0
   -2.4454   -4.7437    0.0000 O   0  0  0  0  0  0  0  0  0  0  0  0
   -1.7308    4.7437    0.0000 O   0  0  0  0  0  0  0  0  0  0  0  0
   -2.5558    3.9187    0.0000 O   0  0  0  0  0  0  0  0  0  0  0  0
    1.1269    1.4437    0.0000 O   0  0  0  0  0  0  0  0  0  0  0  0
   -0.9058    3.9187    0.0000 O   0  0  0  0  0  0  0  0  0  0  0  0
    2.5558   -1.0312    0.0000 O   0  0  0  0  0  0  0  0  0  0  0  0
   -0.3019   -1.0312    0.0000 N   0  0  0  0  0  0  0  0  0  0  0  0
    1.1269   -1.0312    0.0000 N   0  0  0  0  0  0  0  0  0  0  0  0
    1.8414    0.2062    0.0000 N   0  0  0  0  0  0  0  0  0  0  0  0
   -1.0164   -2.2687    0.0000 C   0  0  0  0  0  0  0  0  0  0  0  0
   -1.0164   -3.0937    0.0000 C   0  0  0  0  0  0  0  0  0  0  0  0
   -0.3019    1.4437    0.0000 C   0  0  0  0  0  0  0  0  0  0  0  0
   -0.3019    0.6187    0.0000 C   0  0  0  0  0  0  0  0  0  0  0  0
   -1.0164    1.8562    0.0000 C   0  0  0  0  0  0  0  0  0  0  0  0
   -0.3019   -1.8562    0.0000 C   0  0  0  0  0  0  0  0  0  0  0  0
    0.4124    0.2062    0.0000 C   0  0  0  0  0  0  0  0  0  0  0  0
   -1.7308   -3.5062    0.0000 C   0  0  0  0  0  0  0  0  0  0  0  0
   -1.0164    2.6812    0.0000 C   0  0  0  0  0  0  0  0  0  0  0  0
    0.4124   -0.6187    0.0000 C   0  0  0  0  0  0  0  0  0  0  0  0
   -1.7308    3.0937    0.0000 C   0  0  0  0  0  0  0  0  0  0  0  0
   -1.7308   -4.3312    0.0000 C   0  0  0  0  0  0  0  0  0  0  0  0
    1.1269    0.6187    0.0000 C   0  0  0  0  0  0  0  0  0  0  0  0
    1.8414   -0.6187    0.0000 C   0  0  0  0  0  0  0  0  0  0  0  0
  1  6  1  0
  1  7  1  0
  1  9  2  0
  1 24  1  0
  5 25  1  0
  8 26  2  0
 10 27  2  0
 11 19  1  0
 11 23  1  0
 12 23  1  0
 12 27  1  0
 13 26  1  0
 13 27  1  0
 14  2  1  1
 14 15  1  0
 14 19  1  0
 15  3  1  6
 15 21  1  0
 16 17  1  0
 16 18  1  0
 17 20  1  0
 18 22  1  0
 20 23  2  0
 20 26  1  0
 21  4  1  1
 21 25  1  0
 22 24  1  0
M  END
>  <DRUGBANK_ID>  (1) 
DB04266

>  <SECONDARY_ACCESSION_NUMBERS>  (1) 
EXPT01888

>  <COMMON_NAME>  (1) 
5-(6-D-ribitylamino-2,4-dihydroxypyrimidin-5-yl)-1-pentyl-phosphonic acid

$$$$
