
     RDKit          2D

 24 26  0  0  0  0  0  0  0  0999 V2000
    2.8876    2.3241    0.0000 O   0  0  0  0  0  0  0  0  0  0  0  0
    1.6500    1.6096    0.0000 O   0  0  0  0  0  0  0  0  0  0  0  0
    3.3001   -0.0404    0.0000 N   0  0  0  0  0  0  0  0  0  0  0  0
    3.3001    1.6096    0.0000 C   0  0  0  0  0  0  0  0  0  0  0  0
    2.5856    1.1971    0.0000 C   0  0  0  0  0  0  0  0  0  0  0  0
    4.0145    1.1971    0.0000 C   0  0  0  0  0  0  0  0  0  0  0  0
    2.5856    0.3721    0.0000 C   0  0  0  0  0  0  0  0  0  0  0  0
    4.0145    0.3721    0.0000 C   0  0  0  0  0  0  0  0  0  0  0  0
    3.7126    2.3241    0.0000 C   0  0  0  0  0  0  0  0  0  0  0  0
    3.3001   -0.8654    0.0000 C   0  0  0  0  0  0  0  0  0  0  0  0
    2.5856   -1.2780    0.0000 C   0  0  0  0  0  0  0  0  0  0  0  0
    3.3001    3.0385    0.0000 C   0  0  0  0  0  0  0  0  0  0  0  0
    4.5376    2.3241    0.0000 C   0  0  0  0  0  0  0  0  0  0  0  0
    2.0625    2.3241    0.0000 C   0  0  0  0  0  0  0  0  0  0  0  0
    2.5856   -2.1030    0.0000 C   0  0  0  0  0  0  0  0  0  0  0  0
    3.7126    3.7530    0.0000 C   0  0  0  0  0  0  0  0  0  0  0  0
    4.9501    3.0385    0.0000 C   0  0  0  0  0  0  0  0  0  0  0  0
    4.5376    3.7530    0.0000 C   0  0  0  0  0  0  0  0  0  0  0  0
    1.6500    3.0385    0.0000 C   0  0  0  0  0  0  0  0  0  0  0  0
    3.3001   -2.5155    0.0000 C   0  0  0  0  0  0  0  0  0  0  0  0
    1.8711   -2.5155    0.0000 C   0  0  0  0  0  0  0  0  0  0  0  0
    3.3001   -3.3405    0.0000 C   0  0  0  0  0  0  0  0  0  0  0  0
    1.8711   -3.3405    0.0000 C   0  0  0  0  0  0  0  0  0  0  0  0
    2.5856   -3.7530    0.0000 C   0  0  0  0  0  0  0  0  0  0  0  0
  1  4  1  0
  1 14  1  0
  2 14  2  0
  3  7  1  0
  3  8  1  0
  3 10  1  0
  4  5  1  0
  4  6  1  0
  4  9  1  0
  5  7  1  0
  6  8  1  0
  9 12  2  0
  9 13  1  0
 10 11  1  0
 11 15  1  0
 12 16  1  0
 13 17  2  0
 14 19  1  0
 15 20  2  0
 15 21  1  0
 16 18  2  0
 17 18  1  0
 20 22  1  0
 21 23  2  0
 22 24  2  0
 23 24  1  0
M  END
>  <DRUGBANK_ID>  (1) 
DB01562

>  <COMMON_NAME>  (1) 
1-(2-Phenylethyl)-4-phenyl-4-acetoxypiperidine

>  <CAS_NUMBER>  (1) 
64-52-8

>  <UNII>  (1) 
T6LN72I828

>  <SYNONYMS>  (1) 
1-(2-Phenethyl)-4-phenyl-4-acetoxypiperidine; 1-Phenethyl-4-phenyl-4-piperidinol acetate (ester); PEPAP

$$$$
