
     RDKit          2D

 28 29  0  0  0  0  0  0  0  0999 V2000
    0.1744   -3.0889    0.0000 C   0  0  0  0  0  0  0  0  0  0  0  0
    0.7145   -3.7125    0.0000 C   0  0  0  0  0  0  0  0  0  0  0  0
    1.5246   -3.5566    0.0000 O   0  0  0  0  0  0  0  0  0  0  0  0
    2.0647   -4.1802    0.0000 C   0  0  0  0  0  0  0  0  0  0  0  0
    2.8748   -4.0243    0.0000 C   0  0  0  0  0  0  0  0  0  0  0  0
    3.4149   -4.6480    0.0000 N   0  0  0  0  0  0  0  0  0  0  0  0
    3.1449   -5.4275    0.0000 C   0  0  0  0  0  0  0  0  0  0  0  0
    2.3347   -5.5834    0.0000 C   0  0  0  0  0  0  0  0  0  0  0  0
    2.0647   -6.3630    0.0000 C   0  0  0  0  0  0  0  0  0  0  0  0
    1.2546   -6.5189    0.0000 C   0  0  0  0  0  0  0  0  0  0  0  0
    0.7145   -5.8952    0.0000 C   0  0  0  0  0  0  0  0  0  0  0  0
    0.9845   -5.1157    0.0000 C   0  0  0  0  0  0  0  0  0  0  0  0
    1.7946   -4.9598    0.0000 C   0  0  0  0  0  0  0  0  0  0  0  0
   -0.0957   -6.0512    0.0000 O   0  0  0  0  0  0  0  0  0  0  0  0
   -0.3657   -6.8307    0.0000 C   0  0  0  0  0  0  0  0  0  0  0  0
    0.1744   -7.4543    0.0000 C   0  0  0  0  0  0  0  0  0  0  0  0
   -0.0957   -8.2339    0.0000 C   0  0  0  0  0  0  0  0  0  0  0  0
   -0.9058   -8.3898    0.0000 C   0  0  0  0  0  0  0  0  0  0  0  0
   -1.4459   -7.7662    0.0000 C   0  0  0  0  0  0  0  0  0  0  0  0
   -1.1758   -6.9866    0.0000 C   0  0  0  0  0  0  0  0  0  0  0  0
   -1.1758   -9.1694    0.0000 N   0  0  0  0  0  0  0  0  0  0  0  0
   -0.6358   -9.7930    0.0000 O   0  0  0  0  0  0  0  0  0  0  0  0
   -1.9860   -9.3253    0.0000 O   0  0  0  0  0  0  0  0  0  0  0  0
    4.2251   -4.4921    0.0000 C   0  0  0  0  0  0  0  0  0  0  0  0
    4.7651   -5.1157    0.0000 O   0  0  0  0  0  0  0  0  0  0  0  0
    4.4951   -3.7125    0.0000 C   0  0  0  0  0  0  0  0  0  0  0  0
    3.9550   -3.0889    0.0000 Cl  0  0  0  0  0  0  0  0  0  0  0  0
    5.3052   -3.5566    0.0000 Cl  0  0  0  0  0  0  0  0  0  0  0  0
  1  2  1  0
  2  3  1  0
  3  4  1  0
  4  5  1  0
  5  6  1  0
  6  7  1  0
  6 24  1  0
  7  8  1  0
  8  9  2  0
  8 13  1  0
  9 10  1  0
 10 11  2  0
 11 12  1  0
 11 14  1  0
 12 13  2  0
 14 15  1  0
 15 16  2  0
 15 20  1  0
 16 17  1  0
 17 18  2  0
 18 19  1  0
 18 21  1  0
 19 20  2  0
 21 22  2  0
 21 23  1  0
 24 25  2  0
 24 26  1  0
 26 27  1  0
 26 28  1  0
M  CHG  2  21   1  23  -1
M  END
>  <DRUGBANK_ID>  (1) 
DB13258

>  <COMMON_NAME>  (1) 
Etofamide

>  <CAS_NUMBER>  (1) 
25287-60-9

>  <UNII>  (1) 
03F36JH21U

>  <SYNONYMS>  (1) 
Etofamide

$$$$
