DRF
     RDKit          2D

 31 34  0  0  0  0  0  0  0  0999 V2000
    1.6621   -0.8615    0.0000 O   0  0  0  0  0  0  0  0  0  0  0  0
    2.3766   -1.2740    0.0000 C   0  0  0  0  0  0  0  0  0  0  0  0
    3.0911   -0.8615    0.0000 O   0  0  0  0  0  0  0  0  0  0  0  0
    2.3766   -2.0990    0.0000 C   0  0  0  0  0  0  0  0  0  0  0  0
    3.0911   -2.5115    0.0000 O   0  0  0  0  0  0  0  0  0  0  0  0
    3.8056   -2.0990    0.0000 C   0  0  0  0  0  0  0  0  0  0  0  0
    4.5200   -2.5115    0.0000 C   0  0  0  0  0  0  0  0  0  0  0  0
    1.6621   -2.5115    0.0000 C   0  0  0  0  0  0  0  0  0  0  0  0
    0.9477   -2.0990    0.0000 C   0  0  0  0  0  0  0  0  0  0  0  0
    0.2332   -2.5115    0.0000 C   0  0  0  0  0  0  0  0  0  0  0  0
   -0.4813   -2.0990    0.0000 C   0  0  0  0  0  0  0  0  0  0  0  0
   -0.4813   -1.2740    0.0000 C   0  0  0  0  0  0  0  0  0  0  0  0
   -1.1957   -0.8615    0.0000 O   0  0  0  0  0  0  0  0  0  0  0  0
   -1.1957   -0.0365    0.0000 C   0  0  0  0  0  0  0  0  0  0  0  0
   -1.9102    0.3760    0.0000 C   0  0  0  0  0  0  0  0  0  0  0  0
   -1.9102    1.2010    0.0000 N   0  0  0  0  0  0  0  0  0  0  0  0
   -1.1957    1.6135    0.0000 C   0  0  0  0  0  0  0  0  0  0  0  0
   -1.1957    2.4385    0.0000 C   0  0  0  0  0  0  0  0  0  0  0  0
   -1.9102    2.8510    0.0000 O   0  0  0  0  0  0  0  0  0  0  0  0
   -2.6247    2.4385    0.0000 C   0  0  0  0  0  0  0  0  0  0  0  0
   -2.6247    1.6135    0.0000 C   0  0  0  0  0  0  0  0  0  0  0  0
   -3.3392    1.2010    0.0000 C   0  0  0  0  0  0  0  0  0  0  0  0
   -4.0536    1.6135    0.0000 C   0  0  0  0  0  0  0  0  0  0  0  0
   -4.0536    2.4385    0.0000 C   0  0  0  0  0  0  0  0  0  0  0  0
   -3.3392    2.8510    0.0000 C   0  0  0  0  0  0  0  0  0  0  0  0
   -0.4813    2.8510    0.0000 C   0  0  0  0  0  0  0  0  0  0  0  0
    0.2332    2.4385    0.0000 C   0  0  0  0  0  0  0  0  0  0  0  0
    0.2332    1.6135    0.0000 C   0  0  0  0  0  0  0  0  0  0  0  0
   -0.4813    1.2010    0.0000 C   0  0  0  0  0  0  0  0  0  0  0  0
    0.2332   -0.8615    0.0000 C   0  0  0  0  0  0  0  0  0  0  0  0
    0.9477   -1.2740    0.0000 C   0  0  0  0  0  0  0  0  0  0  0  0
  1  2  1  0
  2  3  2  0
  2  4  1  0
  4  5  1  0
  4  8  1  1
  5  6  1  0
  6  7  1  0
  8  9  1  0
  9 10  2  0
  9 31  1  0
 10 11  1  0
 11 12  2  0
 12 13  1  0
 12 30  1  0
 13 14  1  0
 14 15  1  0
 15 16  1  0
 16 17  1  0
 16 21  1  0
 17 18  2  0
 17 29  1  0
 18 19  1  0
 18 26  1  0
 19 20  1  0
 20 21  2  0
 20 25  1  0
 21 22  1  0
 22 23  2  0
 23 24  1  0
 24 25  2  0
 26 27  2  0
 27 28  1  0
 28 29  2  0
 30 31  2  0
M  END
>  <DRUGBANK_ID>  (1) 
DB07675

>  <COMMON_NAME>  (1) 
(2S)-2-ETHOXY-3-{4-[2-(10H-PHENOXAZIN-10-YL)ETHOXY]PHENYL}PROPANOIC ACID

$$$$
