
     RDKit          2D

  3  2  0  0  0  0  0  0  0  0999 V2000
    2.9013   -2.9288    0.0000 N   0  0  0  0  0  0  0  0  0  0  0  0
    3.7263   -2.9288    0.0000 O   0  0  0  0  0  0  0  0  0  0  0  0
    2.4888   -2.2143    0.0000 O   0  0  0  0  0  0  0  0  0  0  0  0
  2  1  1  0
  3  1  2  0
M  CHG  1   2  -1
M  END
>  <DRUGBANK_ID>  (1) 
DB12529

>  <COMMON_NAME>  (1) 
Nitrite

>  <CAS_NUMBER>  (1) 
14797-65-0

>  <UNII>  (1) 
J39976L608

>  <SYNONYMS>  (1) 
Nitrite anion; Nitrite ion

$$$$
