578
     RDKit          2D

 31 32  0  0  0  0  0  0  0  0999 V2000
   -4.5931    0.6060    0.0000 C   0  0  0  0  0  0  0  0  0  0  0  0
   -5.3391    0.2537    0.0000 C   0  0  0  0  0  0  0  0  0  0  0  0
   -5.4069   -0.5686    0.0000 C   0  0  0  0  0  0  0  0  0  0  0  0
   -4.7287   -1.0384    0.0000 C   0  0  0  0  0  0  0  0  0  0  0  0
   -3.9828   -0.6860    0.0000 C   0  0  0  0  0  0  0  0  0  0  0  0
   -3.9150    0.1362    0.0000 C   0  0  0  0  0  0  0  0  0  0  0  0
   -3.1690    0.4886    0.0000 C   0  0  0  0  0  0  0  0  0  0  0  0
   -2.4909    0.0187    0.0000 O   0  0  0  0  0  0  0  0  0  0  0  0
   -1.7449    0.3711    0.0000 C   0  0  0  0  0  0  0  0  0  0  0  0
   -1.6771    1.1933    0.0000 O   0  0  0  0  0  0  0  0  0  0  0  0
   -1.0667   -0.0987    0.0000 N   0  0  0  0  0  0  0  0  0  0  0  0
   -0.3208    0.2537    0.0000 C   0  0  0  0  0  0  0  0  0  0  0  0
   -0.2530    1.0759    0.0000 C   0  0  0  0  0  0  0  0  0  0  0  0
   -0.9311    1.5457    0.0000 C   0  0  0  0  0  0  0  0  0  0  0  0
    0.4930    1.4282    0.0000 C   0  0  0  0  0  0  0  0  0  0  0  0
    0.3574   -0.2162    0.0000 P   0  0  0  0  0  0  0  0  0  0  0  0
   -0.1125   -0.8943    0.0000 O   0  0  0  0  0  0  0  0  0  0  0  0
    0.8272    0.4620    0.0000 O   0  0  0  0  0  0  0  0  0  0  0  0
    1.0355   -0.6860    0.0000 O   0  0  0  0  0  0  0  0  0  0  0  0
    1.7815   -0.3336    0.0000 C   0  0  0  0  0  0  0  0  0  0  0  0
    1.8493    0.4886    0.0000 C   0  0  0  0  0  0  0  0  0  0  0  0
    1.1711    0.9584    0.0000 O   0  0  0  0  0  0  0  0  0  0  0  0
    2.5952    0.8409    0.0000 O   0  0  0  0  0  0  0  0  0  0  0  0
    2.4596   -0.8035    0.0000 C   0  0  0  0  0  0  0  0  0  0  0  0
    3.2056   -0.4511    0.0000 C   0  0  0  0  0  0  0  0  0  0  0  0
    2.3918   -1.6257    0.0000 C   0  0  0  0  0  0  0  0  0  0  0  0
    3.0699   -2.0955    0.0000 C   0  0  0  0  0  0  0  0  0  0  0  0
    3.8159   -1.7431    0.0000 C   0  0  0  0  0  0  0  0  0  0  0  0
    3.8837   -0.9209    0.0000 C   0  0  0  0  0  0  0  0  0  0  0  0
    4.6297   -0.5686    0.0000 C   0  0  0  0  0  0  0  0  0  0  0  0
    4.6975    0.2537    0.0000 N   0  0  0  0  0  0  0  0  0  0  0  0
  1  6  2  0
  1  2  1  0
  2  3  2  0
  3  4  1  0
  4  5  2  0
  5  6  1  0
  6  7  1  0
  7  8  1  0
  8  9  1  0
  9 11  1  0
  9 10  2  0
 12 11  1  1
 12 13  1  0
 12 16  1  0
 13 15  1  0
 13 14  1  0
 16 17  2  0
 16 19  1  0
 16 18  1  0
 20 19  1  6
 20 24  1  0
 20 21  1  0
 21 22  2  0
 21 23  1  0
 24 25  2  0
 24 26  1  0
 25 29  1  0
 26 27  2  0
 27 28  1  0
 28 29  2  0
 29 30  1  0
 30 31  1  0
M  END
>  <DRUGBANK_ID>  (1) 
DB07157

>  <COMMON_NAME>  (1) 
(5R,6S,8S)-8-[3-(AMINOMETHYL)PHENYL]-6-HYDROXY-5-ISOPROPYL-3-OXO-1-PHENYL-2,7-DIOXA-4-AZA-6-PHOSPHANONAN-9-OIC ACID 6-OXIDE

$$$$
