
     RDKit          2D

 26 29  0  0  0  0  0  0  0  0999 V2000
   -1.7805    2.8186    0.0000 C   0  0  0  0  0  0  0  0  0  0  0  0
   -0.9959    2.5637    0.0000 C   0  0  0  0  0  0  0  0  0  0  0  0
   -1.7805    3.6436    0.0000 C   0  0  0  0  0  0  0  0  0  0  0  0
   -2.4950    2.4061    0.0000 C   0  0  0  0  0  0  0  0  0  0  0  0
   -0.5110    3.2311    0.0000 C   0  0  0  0  0  0  0  0  0  0  0  0
   -0.7409    1.7791    0.0000 C   0  0  0  0  0  0  0  0  0  0  0  0
   -0.9959    3.8985    0.0000 N   0  0  0  0  0  0  0  0  0  0  0  0
   -2.4950    4.0561    0.0000 C   0  0  0  0  0  0  0  0  0  0  0  0
   -3.2094    2.8186    0.0000 C   0  0  0  0  0  0  0  0  0  0  0  0
    0.0659    1.6076    0.0000 C   0  0  0  0  0  0  0  0  0  0  0  0
   -3.2094    3.6436    0.0000 C   0  0  0  0  0  0  0  0  0  0  0  0
    0.3208    0.8229    0.0000 N   0  0  0  0  0  0  0  0  0  0  0  0
   -0.2311    0.2099    0.0000 C   0  0  0  0  0  0  0  0  0  0  0  0
    1.1278    0.6514    0.0000 C   0  0  0  0  0  0  0  0  0  0  0  0
    0.0237   -0.5746    0.0000 C   0  0  0  0  0  0  0  0  0  0  0  0
    1.3827   -0.1331    0.0000 C   0  0  0  0  0  0  0  0  0  0  0  0
    0.8306   -0.7462    0.0000 C   0  0  0  0  0  0  0  0  0  0  0  0
    1.0856   -1.5308    0.0000 N   0  0  0  0  0  0  0  0  0  0  0  0
    1.8926   -1.7023    0.0000 C   0  0  0  0  0  0  0  0  0  0  0  0
    2.1475   -2.4869    0.0000 C   0  0  0  0  0  0  0  0  0  0  0  0
    2.4446   -1.0892    0.0000 O   0  0  0  0  0  0  0  0  0  0  0  0
    1.5955   -3.0999    0.0000 C   0  0  0  0  0  0  0  0  0  0  0  0
    2.9544   -2.6584    0.0000 C   0  0  0  0  0  0  0  0  0  0  0  0
    1.8504   -3.8846    0.0000 C   0  0  0  0  0  0  0  0  0  0  0  0
    3.2094   -3.4430    0.0000 C   0  0  0  0  0  0  0  0  0  0  0  0
    2.6574   -4.0561    0.0000 C   0  0  0  0  0  0  0  0  0  0  0  0
  1  2  1  0
  1  3  1  0
  1  4  2  0
  2  5  2  0
  2  6  1  0
  3  7  1  0
  3  8  2  0
  4  9  1  0
  5  7  1  0
  6 10  1  0
  8 11  1  0
  9 11  2  0
 10 12  1  0
 12 13  1  0
 12 14  1  0
 13 15  1  0
 14 16  1  0
 15 17  1  0
 16 17  1  0
 17 18  1  0
 18 19  1  0
 19 20  1  0
 19 21  2  0
 20 22  2  0
 20 23  1  0
 22 24  1  0
 23 25  2  0
 24 26  2  0
 25 26  1  0
M  END
>  <DRUGBANK_ID>  (1) 
DB08950

>  <COMMON_NAME>  (1) 
Indoramin

>  <CAS_NUMBER>  (1) 
26844-12-2

>  <UNII>  (1) 
0Z802HMY7H

>  <SYNONYMS>  (1) 
Indoramin; Indoramina; Indoramine; Indoraminum

$$$$
