RBS
     RDKit          2D

 22 24  0  0  0  0  0  0  0  0999 V2000
   -1.6561   -1.3577    0.0000 O   0  0  0  0  0  0  0  0  0  0  0  0
   -1.6561   -0.5327    0.0000 C   0  0  0  0  0  0  0  0  0  0  0  0
   -2.3706   -0.1202    0.0000 C   0  0  0  0  0  0  0  0  0  0  0  0
   -3.0851   -0.5327    0.0000 C   0  0  0  0  0  0  0  0  0  0  0  0
   -0.9416   -0.1202    0.0000 N   0  0  0  0  0  0  0  0  0  0  0  0
   -0.2272   -0.5327    0.0000 C   0  0  0  0  0  0  0  0  0  0  0  0
    0.4873   -0.1202    0.0000 C   0  0  0  0  0  0  0  0  0  0  0  0
   -0.2272   -1.3577    0.0000 C   0  0  0  0  0  0  0  0  0  0  0  0
    0.4873   -1.7702    0.0000 C   0  0  0  0  0  0  0  0  0  0  0  0
    1.2018   -1.3577    0.0000 C   0  0  0  0  0  0  0  0  0  0  0  0
    1.2018   -0.5327    0.0000 C   0  0  0  0  0  0  0  0  0  0  0  0
    1.9162   -0.1202    0.0000 C   0  0  0  0  0  0  0  0  0  0  0  0
    2.6307   -0.5327    0.0000 N   0  0  0  0  0  0  0  0  0  0  0  0
    2.6307   -1.3577    0.0000 C   0  0  0  0  0  0  0  0  0  0  0  0
    1.9162   -1.7702    0.0000 N   0  0  0  0  0  0  0  0  0  0  0  0
    1.9162    0.7048    0.0000 N   0  0  0  0  0  0  0  0  0  0  0  0
    2.6307    1.1173    0.0000 C   0  0  0  0  0  0  0  0  0  0  0  0
    3.3452    0.7048    0.0000 C   0  0  0  0  0  0  0  0  0  0  0  0
    2.6307    1.9423    0.0000 C   0  0  0  0  0  0  0  0  0  0  0  0
    3.3452    2.3548    0.0000 C   0  0  0  0  0  0  0  0  0  0  0  0
    4.0597    1.9423    0.0000 C   0  0  0  0  0  0  0  0  0  0  0  0
    4.0597    1.1173    0.0000 C   0  0  0  0  0  0  0  0  0  0  0  0
  1  2  2  0
  2  3  1  0
  2  5  1  0
  3  4  2  0
  5  6  1  0
  6  8  2  0
  6  7  1  0
  7 11  2  0
  8  9  1  0
  9 10  2  0
 10 11  1  0
 10 15  1  0
 11 12  1  0
 12 16  1  0
 12 13  2  0
 13 14  1  0
 14 15  2  0
 16 17  1  0
 17 19  1  0
 17 18  2  0
 18 22  1  0
 19 20  2  0
 20 21  1  0
 21 22  2  0
M  END
>  <DRUGBANK_ID>  (1) 
DB08462

>  <COMMON_NAME>  (1) 
N-(4-PHENYLAMINO-QUINAZOLIN-6-YL)-ACRYLAMIDE

$$$$
