
     RDKit          2D

 22 25  0  0  0  0  0  0  0  0999 V2000
    2.4702    1.8057    0.0000 N   0  0  0  0  0  0  0  0  0  0  0  0
    1.6649    1.6328    0.0000 C   0  0  0  0  0  0  0  0  0  0  0  0
    1.4080    0.8473    0.0000 C   0  0  0  0  0  0  0  0  0  0  0  0
    1.8922    0.1803    0.0000 C   0  0  0  0  0  0  0  0  0  0  0  0
    1.4080   -0.4866    0.0000 N   0  0  0  0  0  0  0  0  0  0  0  0
    0.6225   -0.2296    0.0000 C   0  0  0  0  0  0  0  0  0  0  0  0
    0.6225    0.5953    0.0000 N   0  0  0  0  0  0  0  0  0  0  0  0
   -0.0197    1.1091    0.0000 C   0  0  0  0  0  0  0  0  0  0  0  0
   -0.8250    0.9263    0.0000 C   0  0  0  0  0  0  0  0  0  0  0  0
   -1.1807    0.1803    0.0000 C   0  0  0  0  0  0  0  0  0  0  0  0
   -0.8250   -0.5607    0.0000 C   0  0  0  0  0  0  0  0  0  0  0  0
   -1.2894   -1.2425    0.0000 C   0  0  0  0  0  0  0  0  0  0  0  0
   -2.1145   -1.1832    0.0000 C   0  0  0  0  0  0  0  0  0  0  0  0
   -2.4702   -0.4372    0.0000 C   0  0  0  0  0  0  0  0  0  0  0  0
   -2.0058    0.2445    0.0000 C   0  0  0  0  0  0  0  0  0  0  0  0
   -0.0197   -0.7435    0.0000 C   0  0  0  0  0  0  0  0  0  0  0  0
   -0.6521   -1.1980    0.0000 C   0  0  0  0  0  0  0  0  0  0  0  0
   -0.4643   -2.0034    0.0000 C   0  0  0  0  0  0  0  0  0  0  0  0
    0.3211   -2.2455    0.0000 N   0  0  0  0  0  0  0  0  0  0  0  0
    0.9239   -1.6822    0.0000 C   0  0  0  0  0  0  0  0  0  0  0  0
    0.7411   -0.8818    0.0000 C   0  0  0  0  0  0  0  0  0  0  0  0
    1.1115    2.2455    0.0000 O   0  0  0  0  0  0  0  0  0  0  0  0
  1  2  1  0
  2  3  1  0
  2 22  2  0
  3  4  2  0
  3  7  1  0
  4  5  1  0
  5  6  2  0
  6  7  1  0
  6 16  1  0
  7  8  1  0
  8  9  1  0
  9 10  1  0
 10 11  2  0
 10 15  1  0
 11 12  1  0
 11 16  1  0
 12 13  2  0
 13 14  1  0
 14 15  2  0
 16 17  1  0
 16 21  1  0
 17 18  1  0
 18 19  1  0
 19 20  1  0
 20 21  1  0
M  END
>  <DRUGBANK_ID>  (1) 
DB05738

>  <COMMON_NAME>  (1) 
Vapitadine

>  <CAS_NUMBER>  (1) 
793655-64-8

>  <UNII>  (1) 
Z5014VUX83

>  <SYNONYMS>  (1) 
Vapitadina; Vapitadine; Vapitadinum

$$$$
