
     RDKit          2D

 34 38  0  0  0  0  0  0  0  0999 V2000
   -4.1491  -10.3213    0.0000 C   0  0  0  0  0  0  0  0  0  0  0  0
   -4.1492   -9.4963    0.0000 N   0  0  0  0  0  0  0  0  0  0  0  0
   -4.8637   -9.0838    0.0000 C   0  0  0  0  0  0  0  0  0  0  0  0
   -3.4347   -9.0837    0.0000 C   0  0  0  0  0  0  0  0  0  0  0  0
   -2.7202   -9.4962    0.0000 C   0  0  0  0  0  0  0  0  0  0  0  0
   -2.0058   -9.0837    0.0000 C   0  0  0  0  0  0  0  0  0  0  0  0
   -2.0058   -8.2587    0.0000 C   0  0  0  0  0  0  0  0  0  0  0  0
   -2.7203   -7.8462    0.0000 C   0  0  0  0  0  0  0  0  0  0  0  0
   -3.4348   -8.2587    0.0000 C   0  0  0  0  0  0  0  0  0  0  0  0
   -4.1493   -7.8463    0.0000 C   0  0  0  0  0  0  0  0  0  0  0  0
   -4.1493   -7.0213    0.0000 C   0  0  0  0  0  0  0  0  0  0  0  0
   -3.4349   -6.6087    0.0000 C   0  0  0  0  0  0  0  0  0  0  0  0
   -2.7204   -7.0212    0.0000 C   0  0  0  0  0  0  0  0  0  0  0  0
   -2.0059   -6.6087    0.0000 S   0  0  0  0  0  0  0  0  0  0  0  0
   -1.5934   -7.3231    0.0000 O   0  0  0  0  0  0  0  0  0  0  0  0
   -2.4185   -5.8942    0.0000 O   0  0  0  0  0  0  0  0  0  0  0  0
   -1.2915   -6.1961    0.0000 N   0  0  0  0  0  0  0  0  0  0  0  0
   -1.2915   -5.3711    0.0000 C   0  0  0  0  0  0  0  0  0  0  0  0
   -0.5771   -4.9586    0.0000 C   0  0  0  0  0  0  0  0  0  0  0  0
   -0.5771   -4.1336    0.0000 C   0  0  0  0  0  0  0  0  0  0  0  0
    0.1373   -3.7210    0.0000 C   0  0  0  0  0  0  0  0  0  0  0  0
    0.1373   -2.8960    0.0000 N   0  0  0  0  0  0  0  0  0  0  0  0
    0.8517   -2.4835    0.0000 C   0  0  0  0  0  0  0  0  0  0  0  0
    1.5662   -2.8960    0.0000 O   0  0  0  0  0  0  0  0  0  0  0  0
    0.8517   -1.6585    0.0000 C   0  0  0  0  0  0  0  0  0  0  0  0
    0.1163   -2.0322    0.0000 C   0  0  0  0  0  0  0  0  0  0  0  0
    0.5657   -1.2419    0.0000 C   0  0  0  0  0  0  0  0  0  0  0  0
    1.3012   -1.6156    0.0000 C   0  0  0  0  0  0  0  0  0  0  0  0
    2.0368   -1.2419    0.0000 C   0  0  0  0  0  0  0  0  0  0  0  0
    2.0368   -0.4945    0.0000 C   0  0  0  0  0  0  0  0  0  0  0  0
    1.3012   -0.1208    0.0000 C   0  0  0  0  0  0  0  0  0  0  0  0
    0.5657   -0.4945    0.0000 C   0  0  0  0  0  0  0  0  0  0  0  0
    0.8517   -0.9111    0.0000 C   0  0  0  0  0  0  0  0  0  0  0  0
    1.5873   -2.0322    0.0000 C   0  0  0  0  0  0  0  0  0  0  0  0
  1  2  1  0
  2  3  1  0
  2  4  1  0
  4  5  2  0
  4  9  1  0
  5  6  1  0
  6  7  2  0
  7  8  1  0
  8  9  2  0
  8 13  1  0
  9 10  1  0
 10 11  2  0
 11 12  1  0
 12 13  2  0
 13 14  1  0
 14 15  2  0
 14 16  2  0
 14 17  1  0
 17 18  1  0
 18 19  1  0
 19 20  1  0
 20 21  1  0
 21 22  1  0
 22 23  1  0
 23 24  2  0
 25 23  1  6
 25 26  1  0
 25 34  1  0
 25 33  1  0
 27 26  1  6
 27 28  1  0
 27 32  1  0
 29 28  1  1
 29 34  1  0
 29 30  1  0
 31 30  1  1
 31 32  1  0
 31 33  1  0
M  END
>  <DRUGBANK_ID>  (1) 
DB04032

>  <SECONDARY_ACCESSION_NUMBERS>  (1) 
EXPT01125

>  <COMMON_NAME>  (1) 
Adamantane-1-Carboxylic Acid-5-Dimethylamino-Naphthalene-1-Sulfonylamino-Butyl-Amide

$$$$
