
     RDKit          2D

  6  5  0  0  0  0  0  0  0  0999 V2000
   -1.4289   -0.6187    0.0000 N   0  0  0  0  0  0  0  0  0  0  0  0
   -0.7145   -0.2062    0.0000 C   0  0  0  0  0  0  0  0  0  0  0  0
    0.0000   -0.6187    0.0000 C   0  0  0  0  0  0  0  0  0  0  0  0
    1.4289   -0.6187    0.0000 O   0  0  0  0  0  0  0  0  0  0  0  0
    0.7145   -0.2062    0.0000 C   0  0  0  0  0  0  0  0  0  0  0  0
    0.7145    0.6187    0.0000 O   0  0  0  0  0  0  0  0  0  0  0  0
  2  1  1  0
  3  2  1  0
  3  5  1  0
  4  5  1  0
  5  6  2  0
M  END
>  <DRUGBANK_ID>  (1) 
DB03107

>  <SECONDARY_ACCESSION_NUMBERS>  (1) 
EXPT00624

>  <COMMON_NAME>  (1) 
beta-Alanine

>  <CAS_NUMBER>  (1) 
107-95-9

>  <UNII>  (1) 
11P2JDE17B

>  <SYNONYMS>  (1) 
3-aminopropanoic acid; 3-aminopropionic acid; beta-Alanine; β-alanine; β-aminopropionic acid; ω-aminopropionic acid

$$$$
