HF1
     RDKit          2D

 17 17  0  0  0  0  0  0  0  0999 V2000
    2.9508   -0.0571    0.0000 P   0  0  0  0  0  0  0  0  0  0  0  0
    3.6652    0.3554    0.0000 O   0  0  0  0  0  0  0  0  0  0  0  0
    2.5383    0.6574    0.0000 O   0  0  0  0  0  0  0  0  0  0  0  0
    3.3633   -0.7716    0.0000 O   0  0  0  0  0  0  0  0  0  0  0  0
    1.5218   -0.0571    0.0000 C   0  0  0  0  0  0  0  0  0  0  0  0
    0.0929   -0.0571    0.0000 C   0  0  0  0  0  0  0  0  0  0  0  0
   -1.3361    0.7679    0.0000 C   0  0  0  0  0  0  0  0  0  0  0  0
   -1.3361   -0.0571    0.0000 C   0  0  0  0  0  0  0  0  0  0  0  0
   -2.0505   -0.4696    0.0000 C   0  0  0  0  0  0  0  0  0  0  0  0
   -2.0505   -1.2946    0.0000 O   0  0  0  0  0  0  0  0  0  0  0  0
   -2.7650   -0.0571    0.0000 C   0  0  0  0  0  0  0  0  0  0  0  0
   -2.7650    0.7679    0.0000 C   0  0  0  0  0  0  0  0  0  0  0  0
   -2.0505    1.1804    0.0000 C   0  0  0  0  0  0  0  0  0  0  0  0
   -2.0505    2.0054    0.0000 F   0  0  0  0  0  0  0  0  0  0  0  0
   -0.6216   -0.4696    0.0000 S   0  0  0  0  0  0  0  0  0  0  0  0
    0.8074   -0.4696    0.0000 C   0  0  0  0  0  0  0  0  0  0  0  0
    2.2363   -0.4696    0.0000 C   0  0  0  0  0  0  0  0  0  0  0  0
  1  2  2  0
  1  3  1  0
  1  4  1  0
  1 17  1  0
  5 16  1  0
  5 17  2  0
  6 15  1  0
  6 16  1  0
  7  8  2  0
  7 13  1  0
  8  9  1  0
  8 15  1  0
  9 10  1  0
  9 11  2  0
 11 12  1  0
 12 13  2  0
 13 14  1  0
M  END
>  <DRUGBANK_ID>  (1) 
DB07894

>  <COMMON_NAME>  (1) 
4-(2-HYDROXY-4-FLUOROPHENYLTHIO)-BUTYLPHOSPHONIC ACID

$$$$
