CK8
     RDKit          2D

 23 25  0  0  0  0  0  0  0  0999 V2000
   -2.5206    1.3703    0.0000 C   0  0  0  0  0  0  0  0  0  0  0  0
   -1.8061    1.7828    0.0000 N   0  0  0  0  0  0  0  0  0  0  0  0
   -1.0916    1.3703    0.0000 C   0  0  0  0  0  0  0  0  0  0  0  0
   -1.0916    0.5453    0.0000 N   0  0  0  0  0  0  0  0  0  0  0  0
   -1.8061    0.1328    0.0000 C   0  0  0  0  0  0  0  0  0  0  0  0
   -2.5206    0.5453    0.0000 C   0  0  0  0  0  0  0  0  0  0  0  0
   -1.8061   -0.6922    0.0000 C   0  0  0  0  0  0  0  0  0  0  0  0
   -1.1387   -1.1771    0.0000 C   0  0  0  0  0  0  0  0  0  0  0  0
   -1.3936   -1.9617    0.0000 N   0  0  0  0  0  0  0  0  0  0  0  0
   -2.2186   -1.9617    0.0000 C   0  0  0  0  0  0  0  0  0  0  0  0
   -2.4735   -1.1771    0.0000 S   0  0  0  0  0  0  0  0  0  0  0  0
   -0.3540   -0.9222    0.0000 C   0  0  0  0  0  0  0  0  0  0  0  0
   -2.7035   -2.6292    0.0000 C   0  0  0  0  0  0  0  0  0  0  0  0
   -0.3772    1.7828    0.0000 N   0  0  0  0  0  0  0  0  0  0  0  0
    0.3373    1.3703    0.0000 C   0  0  0  0  0  0  0  0  0  0  0  0
    1.0518    1.7828    0.0000 C   0  0  0  0  0  0  0  0  0  0  0  0
    1.7663    1.3703    0.0000 C   0  0  0  0  0  0  0  0  0  0  0  0
    1.7663    0.5453    0.0000 C   0  0  0  0  0  0  0  0  0  0  0  0
    1.0518    0.1328    0.0000 C   0  0  0  0  0  0  0  0  0  0  0  0
    0.3373    0.5453    0.0000 C   0  0  0  0  0  0  0  0  0  0  0  0
    2.4807    0.1328    0.0000 N   0  0  0  0  0  0  0  0  0  0  0  0
    3.1952    0.5453    0.0000 C   0  0  0  0  0  0  0  0  0  0  0  0
    2.4807   -0.6922    0.0000 C   0  0  0  0  0  0  0  0  0  0  0  0
  1  2  2  0
  1  6  1  0
  2  3  1  0
  3  4  2  0
  3 14  1  0
  4  5  1  0
  5  6  2  0
  5  7  1  0
  7  8  2  0
  7 11  1  0
  8  9  1  0
  8 12  1  0
  9 10  2  0
 10 11  1  0
 10 13  1  0
 14 15  1  0
 15 16  2  0
 15 20  1  0
 16 17  1  0
 17 18  2  0
 18 19  1  0
 18 21  1  0
 19 20  2  0
 21 22  1  0
 21 23  1  0
M  END
>  <DRUGBANK_ID>  (1) 
DB07562

>  <COMMON_NAME>  (1) 
N-[4-(2,4-DIMETHYL-THIAZOL-5-YL)-PYRIMIDIN-2-YL]-N',N'-DIMETHYL-BENZENE-1,4-DIAMINE

$$$$
