4831
     RDKit          2D

 20 21  0  0  0  0  0  0  0  0999 V2000
    1.6500    1.2035    0.0000 Cl  0  0  0  0  0  0  0  0  0  0  0  0
    1.6500   -0.4465    0.0000 Cl  0  0  0  0  0  0  0  0  0  0  0  0
    3.8797    3.2615    0.0000 S   0  0  0  0  0  0  0  0  0  0  0  0
    3.0790   -1.2715    0.0000 O   0  0  0  0  0  0  0  0  0  0  0  0
    2.3645    2.4410    0.0000 O   0  0  0  0  0  0  0  0  0  0  0  0
    4.5080   -2.9215    0.0000 O   0  0  0  0  0  0  0  0  0  0  0  0
    3.0790   -2.9215    0.0000 O   0  0  0  0  0  0  0  0  0  0  0  0
    3.0790    1.2035    0.0000 C   0  0  0  0  0  0  0  0  0  0  0  0
    3.0790   -0.4465    0.0000 C   0  0  0  0  0  0  0  0  0  0  0  0
    2.3645    0.7910    0.0000 C   0  0  0  0  0  0  0  0  0  0  0  0
    3.7935    0.7910    0.0000 C   0  0  0  0  0  0  0  0  0  0  0  0
    3.0790    2.0285    0.0000 C   0  0  0  0  0  0  0  0  0  0  0  0
    2.3645   -0.0340    0.0000 C   0  0  0  0  0  0  0  0  0  0  0  0
    3.7935   -0.0340    0.0000 C   0  0  0  0  0  0  0  0  0  0  0  0
    3.7935    2.4410    0.0000 C   0  0  0  0  0  0  0  0  0  0  0  0
    4.5471    2.1054    0.0000 C   0  0  0  0  0  0  0  0  0  0  0  0
    3.7935   -1.6840    0.0000 C   0  0  0  0  0  0  0  0  0  0  0  0
    5.0992    2.7186    0.0000 C   0  0  0  0  0  0  0  0  0  0  0  0
    4.6867    3.4330    0.0000 C   0  0  0  0  0  0  0  0  0  0  0  0
    3.7935   -2.5090    0.0000 C   0  0  0  0  0  0  0  0  0  0  0  0
  1 10  1  0
  2 13  1  0
  3 15  1  0
  3 19  1  0
  4  9  1  0
  4 17  1  0
  5 12  2  0
  6 20  1  0
  7 20  2  0
  8 10  2  0
  8 11  1  0
  8 12  1  0
  9 13  2  0
  9 14  1  0
 10 13  1  0
 11 14  2  0
 12 15  1  0
 15 16  2  0
 16 18  1  0
 17 20  1  0
 18 19  2  0
M  END
>  <DRUGBANK_ID>  (1) 
DB04831

>  <COMMON_NAME>  (1) 
Tienilic acid

>  <CAS_NUMBER>  (1) 
40180-04-9

>  <UNII>  (1) 
HC95205SY4

>  <SYNONYMS>  (1) 
(2,3-Dichloro-4-(2-thenoyl)phenoxy)acetic acid; (2,3-Dichloro-4-(2-thiophenecarbonyl)phenoxy)acetic acid; 4-(2-Theonyl)-2,3-dichlorphenoxyessigsäure; 4-(2-Thienylketo)-2,3-dichlorophenoxyacetic acid; Acide tiénilique; ácido tienilico; Acidum tienilicum; Thienylic acid; Ticrynafen; Tienilic acid; Tienilico acido

$$$$
