TYB
     RDKit          2D

 12 12  0  0  0  0  0  0  0  0999 V2000
    0.0933    1.2458    0.0000 N   0  0  0  0  0  0  0  0  0  0  0  0
    0.8077    0.8333    0.0000 C   0  0  0  0  0  0  0  0  0  0  0  0
    1.5222    1.2458    0.0000 C   0  0  0  0  0  0  0  0  0  0  0  0
    1.5222    2.0708    0.0000 O   0  0  0  0  0  0  0  0  0  0  0  0
    0.8077    0.0083    0.0000 C   0  0  0  0  0  0  0  0  0  0  0  0
    0.0933   -0.4042    0.0000 C   0  0  0  0  0  0  0  0  0  0  0  0
    0.0933   -1.2292    0.0000 C   0  0  0  0  0  0  0  0  0  0  0  0
   -0.6212    0.0083    0.0000 C   0  0  0  0  0  0  0  0  0  0  0  0
   -0.6212   -1.6417    0.0000 C   0  0  0  0  0  0  0  0  0  0  0  0
   -1.3357   -0.4042    0.0000 C   0  0  0  0  0  0  0  0  0  0  0  0
   -1.3357   -1.2292    0.0000 C   0  0  0  0  0  0  0  0  0  0  0  0
   -2.0501   -1.6417    0.0000 O   0  0  0  0  0  0  0  0  0  0  0  0
  2  1  1  6
  2  3  1  0
  2  5  1  0
  3  4  2  0
  5  6  1  0
  6  7  2  0
  6  8  1  0
  7  9  1  0
  8 10  2  0
  9 11  2  0
 10 11  1  0
 11 12  1  0
M  END
>  <DRUGBANK_ID>  (1) 
DB03978

>  <SECONDARY_ACCESSION_NUMBERS>  (1) 
EXPT03134

>  <COMMON_NAME>  (1) 
Tyrosinal

$$$$
