L23
     RDKit          2D

 22 24  0  0  0  0  0  0  0  0999 V2000
   -0.5957    2.9452    0.0000 Cl  0  0  0  0  0  0  0  0  0  0  0  0
    0.1188    2.5327    0.0000 C   0  0  0  0  0  0  0  0  0  0  0  0
    0.8332    2.9452    0.0000 C   0  0  0  0  0  0  0  0  0  0  0  0
    1.5477    2.5327    0.0000 C   0  0  0  0  0  0  0  0  0  0  0  0
    1.5477    1.7077    0.0000 C   0  0  0  0  0  0  0  0  0  0  0  0
    0.8332    1.2952    0.0000 C   0  0  0  0  0  0  0  0  0  0  0  0
    0.8332    0.4702    0.0000 Cl  0  0  0  0  0  0  0  0  0  0  0  0
    0.1188    1.7077    0.0000 C   0  0  0  0  0  0  0  0  0  0  0  0
   -0.5957    1.2952    0.0000 C   0  0  0  0  0  0  0  0  0  0  0  0
   -0.5957    0.4702    0.0000 N   0  0  0  0  0  0  0  0  0  0  0  0
    0.0717   -0.0147    0.0000 C   0  0  0  0  0  0  0  0  0  0  0  0
   -1.2631   -0.0147    0.0000 C   0  0  0  0  0  0  0  0  0  0  0  0
   -2.0478    0.2402    0.0000 C   0  0  0  0  0  0  0  0  0  0  0  0
   -1.0082   -0.7993    0.0000 N   0  0  0  0  0  0  0  0  0  0  0  0
   -0.1832   -0.7993    0.0000 C   0  0  0  0  0  0  0  0  0  0  0  0
    0.3017   -1.4668    0.0000 C   0  0  0  0  0  0  0  0  0  0  0  0
    1.1222   -1.3805    0.0000 C   0  0  0  0  0  0  0  0  0  0  0  0
    1.6071   -2.0480    0.0000 C   0  0  0  0  0  0  0  0  0  0  0  0
    1.2716   -2.8017    0.0000 N   0  0  0  0  0  0  0  0  0  0  0  0
    0.4511   -2.8879    0.0000 C   0  0  0  0  0  0  0  0  0  0  0  0
   -0.0338   -2.2205    0.0000 N   0  0  0  0  0  0  0  0  0  0  0  0
    0.1155   -3.6416    0.0000 N   0  0  0  0  0  0  0  0  0  0  0  0
  1  2  1  0
  2  3  2  0
  2  8  1  0
  3  4  1  0
  4  5  2  0
  5  6  1  0
  6  7  1  0
  6  8  2  0
  8  9  1  0
  9 10  1  0
 10 11  1  0
 10 12  1  0
 11 15  2  0
 12 13  1  0
 12 14  2  0
 14 15  1  0
 15 16  1  0
 16 17  2  0
 16 21  1  0
 17 18  1  0
 18 19  2  0
 19 20  1  0
 20 21  2  0
 20 22  1  0
M  END
>  <DRUGBANK_ID>  (1) 
DB08076

>  <COMMON_NAME>  (1) 
4-[1-(2,6-dichlorobenzyl)-2-methyl-1H-imidazol-4-yl]pyrimidin-2-amine

$$$$
