
     RDKit          2D

 17 19  0  0  0  0  0  0  0  0999 V2000
    0.7327   -1.6500    0.0000 O   0  0  0  0  0  0  0  0  0  0  0  0
    0.7327    1.6500    0.0000 O   0  0  0  0  0  0  0  0  0  0  0  0
    1.4471   -0.4124    0.0000 N   0  0  0  0  0  0  0  0  0  0  0  0
    0.0180    0.4124    0.0000 N   0  0  0  0  0  0  0  0  0  0  0  0
   -2.1646   -0.7480    0.0000 N   0  0  0  0  0  0  0  0  0  0  0  0
   -2.3040    0.5795    0.0000 N   0  0  0  0  0  0  0  0  0  0  0  0
    1.4471    0.4124    0.0000 C   0  0  0  0  0  0  0  0  0  0  0  0
    0.0180   -0.4124    0.0000 C   0  0  0  0  0  0  0  0  0  0  0  0
    0.7327   -0.8250    0.0000 C   0  0  0  0  0  0  0  0  0  0  0  0
    0.7327    0.8250    0.0000 C   0  0  0  0  0  0  0  0  0  0  0  0
   -0.6964   -0.8250    0.0000 C   0  0  0  0  0  0  0  0  0  0  0  0
   -1.4108   -0.4124    0.0000 C   0  0  0  0  0  0  0  0  0  0  0  0
   -1.4970    0.4079    0.0000 C   0  0  0  0  0  0  0  0  0  0  0  0
   -2.7165   -0.1350    0.0000 C   0  0  0  0  0  0  0  0  0  0  0  0
    2.2317   -0.6673    0.0000 C   0  0  0  0  0  0  0  0  0  0  0  0
    2.7165    0.0000    0.0000 C   0  0  0  0  0  0  0  0  0  0  0  0
    2.2318    0.6673    0.0000 C   0  0  0  0  0  0  0  0  0  0  0  0
  1  9  2  0
  2 10  2  0
  3  9  1  0
  3 15  1  0
  3  7  1  0
  4  8  1  0
  4 10  1  0
  5 12  1  0
  5 14  1  0
  6 13  1  0
  6 14  2  0
  7 10  1  0
  7 17  1  6
  8  9  1  0
  8 11  1  6
 11 12  1  0
 12 13  2  0
 15 16  1  0
 16 17  1  0
M  END
>  <DRUGBANK_ID>  (1) 
DB02414

>  <SECONDARY_ACCESSION_NUMBERS>  (1) 
EXPT00911

>  <COMMON_NAME>  (1) 
Cyclo(his-pro)

>  <CAS_NUMBER>  (1) 
53109-32-3

>  <UNII>  (1) 
Q10817UXVT

>  <SYNONYMS>  (1) 
(3S,8aS)-3-(1H-Imidazol-4-ylmethyl)hexahydropyrrolo[1,2-a]pyrazine-1,4-dione; cyclo(histidyl-prolyl); cyclo(L-His-L-Pro); Histidyl-proline diketopiperazine; Histidyl-proline-diketopiperazine

$$$$
