
     RDKit          2D

 11 12  0  0  0  0  0  0  0  0999 V2000
   -0.3244    0.8370    0.0000 C   0  0  0  0  0  0  0  0  0  0  0  0
   -0.3244    0.0120    0.0000 C   0  0  0  0  0  0  0  0  0  0  0  0
    0.4337    1.1132    0.0000 O   0  0  0  0  0  0  0  0  0  0  0  0
   -1.0567    1.2337    0.0000 C   0  0  0  0  0  0  0  0  0  0  0  0
    0.4727   -0.2178    0.0000 C   0  0  0  0  0  0  0  0  0  0  0  0
   -1.0326   -0.4069    0.0000 C   0  0  0  0  0  0  0  0  0  0  0  0
    0.9380    0.4421    0.0000 C   0  0  0  0  0  0  0  0  0  0  0  0
   -1.7649    0.8166    0.0000 C   0  0  0  0  0  0  0  0  0  0  0  0
   -1.7649   -0.0083    0.0000 O   0  0  0  0  0  0  0  0  0  0  0  0
   -1.0326   -1.2337    0.0000 O   0  0  0  0  0  0  0  0  0  0  0  0
    1.7649    0.4421    0.0000 O   0  0  0  0  0  0  0  0  0  0  0  0
  1  2  1  0
  1  3  1  0
  1  4  2  0
  2  5  2  0
  2  6  1  0
  3  7  1  0
  4  8  1  0
  5  7  1  0
  6  9  1  0
  6 10  1  0
  7 11  2  0
  8  9  1  0
M  END
>  <DRUGBANK_ID>  (1) 
DB15586

>  <COMMON_NAME>  (1) 
Patulin

>  <CAS_NUMBER>  (1) 
149-29-1

>  <UNII>  (1) 
95X2BV4W8R

>  <SYNONYMS>  (1) 
Clavacin; Clavatin; Claviformin; Expansine; Mycoin C3; Patulin; Patuline

$$$$
