
     RDKit          2D

 25 27  0  0  0  0  0  0  0  0999 V2000
   -0.7125    2.5124    0.0000 C   0  0  0  0  0  0  0  0  0  0  0  0
   -1.4700    2.0999    0.0000 C   0  0  0  0  0  0  0  0  0  0  0  0
   -2.1825    2.5124    0.0000 C   0  0  0  0  0  0  0  0  0  0  0  0
   -0.7125    3.3374    0.0000 O   0  0  0  0  0  0  0  0  0  0  0  0
    0.0000    2.0999    0.0000 N   0  0  0  0  0  0  0  0  0  0  0  0
    1.4324    3.7499    0.0000 C   0  0  0  0  0  0  0  0  0  0  0  0
    2.1825    3.3374    0.0000 C   0  0  0  0  0  0  0  0  0  0  0  0
    2.1825    2.5124    0.0000 C   0  0  0  0  0  0  0  0  0  0  0  0
    1.4699    2.0999    0.0000 C   0  0  0  0  0  0  0  0  0  0  0  0
    0.7124    2.5124    0.0000 C   0  0  0  0  0  0  0  0  0  0  0  0
    0.7124    3.3374    0.0000 C   0  0  0  0  0  0  0  0  0  0  0  0
    0.0000   -0.3675    0.0000 N   0  0  0  0  0  0  0  0  0  0  0  0
    0.7124    0.0000    0.0000 C   0  0  0  0  0  0  0  0  0  0  0  0
   -0.7125    0.0000    0.0000 C   0  0  0  0  0  0  0  0  0  0  0  0
    0.7124    0.8624    0.0000 C   0  0  0  0  0  0  0  0  0  0  0  0
   -0.7125    0.8624    0.0000 C   0  0  0  0  0  0  0  0  0  0  0  0
    0.0000    1.2750    0.0000 C   0  0  0  0  0  0  0  0  0  0  0  0
    0.0000   -1.2374    0.0000 C   0  0  0  0  0  0  0  0  0  0  0  0
    0.7124   -1.6499    0.0000 C   0  0  0  0  0  0  0  0  0  0  0  0
    1.4324   -1.2374    0.0000 O   0  0  0  0  0  0  0  0  0  0  0  0
    0.0450   -2.9699    0.0000 S   0  0  0  0  0  0  0  0  0  0  0  0
    0.3075   -3.7499    0.0000 C   0  0  0  0  0  0  0  0  0  0  0  0
    0.7124   -2.4749    0.0000 C   0  0  0  0  0  0  0  0  0  0  0  0
    1.3874   -2.9699    0.0000 C   0  0  0  0  0  0  0  0  0  0  0  0
    1.1250   -3.7499    0.0000 C   0  0  0  0  0  0  0  0  0  0  0  0
  1  2  1  0
  1  5  1  0
  1  4  2  0
  2  3  1  0
  5 10  1  0
  5 17  1  0
  6 11  2  0
  6  7  1  0
  7  8  2  0
  8  9  1  0
  9 10  2  0
 10 11  1  0
 12 13  1  0
 12 14  1  0
 12 18  1  0
 13 15  1  0
 14 16  1  0
 15 17  1  0
 16 17  1  0
 18 19  1  0
 19 20  1  0
 19 23  1  0
 21 22  1  0
 21 23  1  0
 22 25  2  0
 23 24  2  0
 24 25  1  0
M  END
>  <DRUGBANK_ID>  (1) 
DB09170

>  <COMMON_NAME>  (1) 
Î²-Hydroxythiofentanyl

>  <CAS_NUMBER>  (1) 
1474-34-6

>  <UNII>  (1) 
MG6JW60TUG

>  <SYNONYMS>  (1) 
beta-Hydroxythiofentanyl

$$$$
