PU4
     RDKit          2D

 23 25  0  0  0  0  0  0  0  0999 V2000
    1.3877    3.5210    0.0000 C   0  0  0  0  0  0  0  0  0  0  0  0
    0.8356    2.9079    0.0000 C   0  0  0  0  0  0  0  0  0  0  0  0
    1.0906    2.1233    0.0000 C   0  0  0  0  0  0  0  0  0  0  0  0
    0.5386    1.5102    0.0000 C   0  0  0  0  0  0  0  0  0  0  0  0
    0.7935    0.7256    0.0000 N   0  0  0  0  0  0  0  0  0  0  0  0
    1.5781    0.4706    0.0000 C   0  0  0  0  0  0  0  0  0  0  0  0
    2.2926    0.8831    0.0000 N   0  0  0  0  0  0  0  0  0  0  0  0
    3.0071    0.4706    0.0000 C   0  0  0  0  0  0  0  0  0  0  0  0
    3.0071   -0.3544    0.0000 N   0  0  0  0  0  0  0  0  0  0  0  0
    1.5781   -0.3544    0.0000 C   0  0  0  0  0  0  0  0  0  0  0  0
    2.2926   -0.7669    0.0000 C   0  0  0  0  0  0  0  0  0  0  0  0
    2.2926   -1.5919    0.0000 N   0  0  0  0  0  0  0  0  0  0  0  0
    0.7935   -0.6093    0.0000 N   0  0  0  0  0  0  0  0  0  0  0  0
    0.3086    0.0581    0.0000 C   0  0  0  0  0  0  0  0  0  0  0  0
   -0.5164    0.0581    0.0000 C   0  0  0  0  0  0  0  0  0  0  0  0
   -0.9289   -0.6564    0.0000 C   0  0  0  0  0  0  0  0  0  0  0  0
   -0.5164   -1.3708    0.0000 C   0  0  0  0  0  0  0  0  0  0  0  0
   -0.9289   -2.0853    0.0000 C   0  0  0  0  0  0  0  0  0  0  0  0
   -1.7539   -0.6564    0.0000 C   0  0  0  0  0  0  0  0  0  0  0  0
   -2.1664   -1.3708    0.0000 C   0  0  0  0  0  0  0  0  0  0  0  0
   -1.7539   -2.0853    0.0000 C   0  0  0  0  0  0  0  0  0  0  0  0
   -2.1664   -2.7998    0.0000 O   0  0  0  0  0  0  0  0  0  0  0  0
   -1.7539   -3.5142    0.0000 C   0  0  0  0  0  0  0  0  0  0  0  0
  1  2  1  0
  2  3  1  0
  3  4  1  0
  4  5  1  0
  5  6  1  0
  5 14  1  0
  6  7  2  0
  6 10  1  0
  7  8  1  0
  8  9  2  0
  9 11  1  0
 10 11  2  0
 10 13  1  0
 11 12  1  0
 13 14  2  0
 14 15  1  0
 15 16  1  0
 16 17  2  0
 16 19  1  0
 17 18  1  0
 18 21  2  0
 19 20  2  0
 20 21  1  0
 21 22  1  0
 22 23  1  0
M  END
>  <DRUGBANK_ID>  (1) 
DB03899

>  <SECONDARY_ACCESSION_NUMBERS>  (1) 
EXPT02695

>  <COMMON_NAME>  (1) 
9-Butyl-8-(4-Methoxybenzyl)-9h-Purin-6-Amine

$$$$
