
     RDKit          2D

 19 22  0  0  0  0  0  0  0  0999 V2000
    0.3877   -0.6404    0.0000 C   0  0  0  0  0  0  0  0  0  0  0  0
   -0.4121   -0.6306    0.0000 C   0  0  0  0  0  0  0  0  0  0  0  0
    0.3728    0.7973    0.0000 C   0  0  0  0  0  0  0  0  0  0  0  0
    0.7999    0.0908    0.0000 C   0  0  0  0  0  0  0  0  0  0  0  0
    0.3826    1.7100    0.0000 N   0  0  0  0  0  0  0  0  0  0  0  0
   -0.8488    0.0759    0.0000 C   0  0  0  0  0  0  0  0  0  0  0  0
   -0.4366    0.7973    0.0000 C   0  0  0  0  0  0  0  0  0  0  0  0
   -0.1716   -0.2331    0.0000 C   0  0  0  0  0  0  0  0  0  0  0  0
   -0.1716    1.2979    0.0000 C   0  0  0  0  0  0  0  0  0  0  0  0
   -0.8341   -1.3469    0.0000 C   0  0  0  0  0  0  0  0  0  0  0  0
   -1.6585    0.0759    0.0000 C   0  0  0  0  0  0  0  0  0  0  0  0
   -1.6438   -1.3469    0.0000 C   0  0  0  0  0  0  0  0  0  0  0  0
    0.8145   -1.3224    0.0000 C   0  0  0  0  0  0  0  0  0  0  0  0
   -2.0609   -0.6306    0.0000 C   0  0  0  0  0  0  0  0  0  0  0  0
    1.0059    2.0535    0.0000 C   0  0  0  0  0  0  0  0  0  0  0  0
    1.6243    0.0908    0.0000 C   0  0  0  0  0  0  0  0  0  0  0  0
   -2.0412   -2.0535    0.0000 O   0  0  0  0  0  0  0  0  0  0  0  0
    1.6487   -1.3224    0.0000 C   0  0  0  0  0  0  0  0  0  0  0  0
    2.0609   -0.6012    0.0000 C   0  0  0  0  0  0  0  0  0  0  0  0
  1  2  1  0
  1  8  1  6
  3  4  1  0
  3  5  1  0
  4  1  1  0
  5  9  1  0
  6  2  2  0
  6  7  1  0
  3  7  1  6
  9  8  1  0
 10  2  1  0
 11  6  1  0
 11 14  2  0
 12 10  2  0
 13  1  1  0
 14 12  1  0
 15  5  1  0
  4 16  1  1
 16 19  1  0
 17 12  1  0
 18 13  1  0
 19 18  1  0
M  END
>  <DRUGBANK_ID>  (1) 
DB14682

>  <COMMON_NAME>  (1) 
Dextrorphan

>  <CAS_NUMBER>  (1) 
125-73-5

>  <UNII>  (1) 
04B7QNO9WS

>  <SYNONYMS>  (1) 
(+)-dextrorphan; (+)-N-methylmorphinan-3-ol; d-3-hydroxy-N-methylmorphinan; Dextro-dromoran; Dextrorphan; Dextrorphane; Dextrorphanum; Levorphanol D-form

$$$$
