
     RDKit          2D

 35 38  0  0  0  0  0  0  0  0999 V2000
   -2.6874   -4.2616    0.0000 Cl  0  0  0  0  0  0  0  0  0  0  0  0
   -1.4499    0.9607    0.0000 O   0  0  0  0  0  0  0  0  0  0  0  0
   -0.6249   -2.1181    0.0000 O   0  0  0  0  0  0  0  0  0  0  0  0
   -0.8163    1.6752    0.0000 O   0  0  0  0  0  0  0  0  0  0  0  0
   -1.0374    0.2463    0.0000 N   0  0  0  0  0  0  0  0  0  0  0  0
   -0.6322    2.7197    0.0000 N   0  0  0  0  0  0  0  0  0  0  0  0
   -1.0374   -1.4037    0.0000 C   0  0  0  0  0  0  0  0  0  0  0  0
   -0.3229   -0.1661    0.0000 C   0  0  0  0  0  0  0  0  0  0  0  0
   -1.7519   -0.1661    0.0000 C   0  0  0  0  0  0  0  0  0  0  0  0
   -0.3229   -0.9912    0.0000 C   0  0  0  0  0  0  0  0  0  0  0  0
   -1.7519   -0.9912    0.0000 C   0  0  0  0  0  0  0  0  0  0  0  0
   -0.6249    0.9607    0.0000 C   0  0  0  0  0  0  0  0  0  0  0  0
    0.2000    0.9607    0.0000 C   0  0  0  0  0  0  0  0  0  0  0  0
    0.6125    1.6752    0.0000 C   0  0  0  0  0  0  0  0  0  0  0  0
   -1.4499   -2.1181    0.0000 C   0  0  0  0  0  0  0  0  0  0  0  0
    1.0250    2.3897    0.0000 C   0  0  0  0  0  0  0  0  0  0  0  0
    1.3270    1.2627    0.0000 C   0  0  0  0  0  0  0  0  0  0  0  0
   -0.1018    2.0877    0.0000 C   0  0  0  0  0  0  0  0  0  0  0  0
   -2.2749   -2.1181    0.0000 C   0  0  0  0  0  0  0  0  0  0  0  0
   -1.0374   -2.8327    0.0000 C   0  0  0  0  0  0  0  0  0  0  0  0
    1.3270    0.4377    0.0000 C   0  0  0  0  0  0  0  0  0  0  0  0
    1.8501    2.3897    0.0000 C   0  0  0  0  0  0  0  0  0  0  0  0
    2.0415    1.6752    0.0000 C   0  0  0  0  0  0  0  0  0  0  0  0
    0.6125    3.1042    0.0000 C   0  0  0  0  0  0  0  0  0  0  0  0
   -2.6874   -2.8327    0.0000 C   0  0  0  0  0  0  0  0  0  0  0  0
   -1.4499   -3.5472    0.0000 C   0  0  0  0  0  0  0  0  0  0  0  0
   -2.2749   -3.5472    0.0000 C   0  0  0  0  0  0  0  0  0  0  0  0
    2.2626    3.1042    0.0000 C   0  0  0  0  0  0  0  0  0  0  0  0
    2.0415    0.0252    0.0000 C   0  0  0  0  0  0  0  0  0  0  0  0
    1.0250    3.8187    0.0000 C   0  0  0  0  0  0  0  0  0  0  0  0
    2.7560    1.2627    0.0000 C   0  0  0  0  0  0  0  0  0  0  0  0
   -1.4446    2.5764    0.0000 C   0  0  0  0  0  0  0  0  0  0  0  0
   -0.3500    3.4950    0.0000 C   0  0  0  0  0  0  0  0  0  0  0  0
    1.8501    3.8187    0.0000 C   0  0  0  0  0  0  0  0  0  0  0  0
    2.7560    0.4377    0.0000 C   0  0  0  0  0  0  0  0  0  0  0  0
  1 27  1  0
  2  5  1  0
  3  7  1  0
  4 18  2  0
  5  8  1  0
  5  9  1  0
  5 12  1  0
  6 18  1  0
  6 32  1  0
  6 33  1  0
  7 10  1  0
  7 11  1  0
  7 15  1  0
  8 10  1  0
  9 11  1  0
 12 13  1  0
 13 14  1  0
 14 16  1  0
 14 17  1  0
 14 18  1  0
 15 19  2  0
 15 20  1  0
 16 22  2  0
 16 24  1  0
 17 21  2  0
 17 23  1  0
 19 25  1  0
 20 26  2  0
 21 29  1  0
 22 28  1  0
 23 31  2  0
 24 30  2  0
 25 27  2  0
 26 27  1  0
 28 34  2  0
 29 35  2  0
 30 34  1  0
 31 35  1  0
M  CHG  2   2  -1   5   1
M  END
>  <DRUGBANK_ID>  (1) 
DB14661

>  <SECONDARY_ACCESSION_NUMBERS>  (1) 
DBSALT001714

>  <COMMON_NAME>  (1) 
Loperamide oxide

>  <CAS_NUMBER>  (1) 
106900-12-3

>  <UNII>  (1) 
NG66S4H2RL

>  <SYNONYMS>  (1) 
Loperamide oxide; Loperamide oxide anhydrous

$$$$
