
     RDKit          2D

 13 12  0  0  0  0  0  0  0  0999 V2000
    2.1435    0.4127    0.0000 O   0  0  0  0  0  0  0  0  0  0  0  0
    1.4289    0.8251    0.0000 C   0  0  0  0  0  0  0  0  0  0  0  0
    0.7143    0.4125    0.0000 C   0  0  0  0  0  0  0  0  0  0  0  0
   -0.0001    0.8249    0.0000 C   0  0  0  0  0  0  0  0  0  0  0  0
    0.7144   -0.4125    0.0000 C   0  0  0  0  0  0  0  0  0  0  0  0
    0.0000   -0.8250    0.0000 C   0  0  0  0  0  0  0  0  0  0  0  0
   -0.7146    0.4124    0.0000 C   0  0  0  0  0  0  0  0  0  0  0  0
   -0.7145   -0.4126    0.0000 C   0  0  0  0  0  0  0  0  0  0  0  0
   -1.4291    0.8247    0.0000 C   0  0  0  0  0  0  0  0  0  0  0  0
   -2.1435    0.4122    0.0000 C   0  0  0  0  0  0  0  0  0  0  0  0
   -1.4289   -0.8251    0.0000 C   0  0  0  0  0  0  0  0  0  0  0  0
   -2.1434   -0.4127    0.0000 C   0  0  0  0  0  0  0  0  0  0  0  0
    1.4290   -0.8249    0.0000 C   0  0  0  0  0  0  0  0  0  0  0  0
  1  2  1  0
  3  2  1  0
  4  3  1  0
  5 13  1  0
  6  5  1  0
  7  4  1  0
  8  6  1  0
  9  7  1  0
 10  9  1  0
 11  8  1  0
 12 10  1  0
 12 11  1  0
M  END
>  <DRUGBANK_ID>  (1) 
DB06894

>  <COMMON_NAME>  (1) 
1-Dodecanol

>  <CAS_NUMBER>  (1) 
112-53-8

>  <UNII>  (1) 
178A96NLP2

>  <SYNONYMS>  (1) 
Dodecan-1-ol; Dodecanol; Dodecyl alcohol; Dodecylalcohol; Lauroyl alcohol; Lauryl alcohol; Undecyl carbinol

$$$$
