XX4
     RDKit          2D

 31 34  0  0  0  0  0  0  0  0999 V2000
   -2.0848   -0.9602    0.0000 C   0  0  0  0  0  0  0  0  0  0  0  0
   -2.0848   -0.1352    0.0000 N   0  0  0  0  0  0  0  0  0  0  0  0
   -1.3703    0.2773    0.0000 C   0  0  0  0  0  0  0  0  0  0  0  0
   -1.3703    1.1023    0.0000 O   0  0  0  0  0  0  0  0  0  0  0  0
   -0.6559   -0.1352    0.0000 C   0  0  0  0  0  0  0  0  0  0  0  0
    0.0586    0.2773    0.0000 C   0  0  0  0  0  0  0  0  0  0  0  0
    0.7731   -0.1352    0.0000 N   0  0  0  0  0  0  0  0  0  0  0  0
    1.4876    0.2773    0.0000 C   0  0  0  0  0  0  0  0  0  0  0  0
    2.2020   -0.1352    0.0000 C   0  0  0  0  0  0  0  0  0  0  0  0
    2.9165    0.2773    0.0000 C   0  0  0  0  0  0  0  0  0  0  0  0
    3.6310   -0.1352    0.0000 C   0  0  0  0  0  0  0  0  0  0  0  0
    4.3454    0.2773    0.0000 C   0  0  0  0  0  0  0  0  0  0  0  0
    4.3454    1.1023    0.0000 O   0  0  0  0  0  0  0  0  0  0  0  0
    5.0599   -0.1352    0.0000 C   0  0  0  0  0  0  0  0  0  0  0  0
    5.7744    0.2773    0.0000 C   0  0  0  0  0  0  0  0  0  0  0  0
    6.4889   -0.1352    0.0000 C   0  0  0  0  0  0  0  0  0  0  0  0
    6.4889   -0.9602    0.0000 C   0  0  0  0  0  0  0  0  0  0  0  0
    5.7744   -1.3727    0.0000 C   0  0  0  0  0  0  0  0  0  0  0  0
    5.0599   -0.9602    0.0000 C   0  0  0  0  0  0  0  0  0  0  0  0
    3.6310   -0.9602    0.0000 C   0  0  0  0  0  0  0  0  0  0  0  0
    2.9165   -1.3727    0.0000 C   0  0  0  0  0  0  0  0  0  0  0  0
    2.2020   -0.9602    0.0000 C   0  0  0  0  0  0  0  0  0  0  0  0
    1.4876   -1.3727    0.0000 N   0  0  0  0  0  0  0  0  0  0  0  0
    0.7731   -0.9602    0.0000 C   0  0  0  0  0  0  0  0  0  0  0  0
    0.0586   -1.3727    0.0000 N   0  0  0  0  0  0  0  0  0  0  0  0
   -2.7993    0.2773    0.0000 C   0  0  0  0  0  0  0  0  0  0  0  0
   -3.5137   -0.1352    0.0000 C   0  0  0  0  0  0  0  0  0  0  0  0
   -4.2282    0.2773    0.0000 C   0  0  0  0  0  0  0  0  0  0  0  0
   -4.2282    1.1023    0.0000 C   0  0  0  0  0  0  0  0  0  0  0  0
   -3.5137    1.5148    0.0000 C   0  0  0  0  0  0  0  0  0  0  0  0
   -2.7993    1.1023    0.0000 C   0  0  0  0  0  0  0  0  0  0  0  0
  1  2  1  0
  2 26  1  0
  2  3  1  0
  3  4  2  0
  3  5  1  0
  5  6  1  0
  6  7  1  0
  7 24  1  0
  7  8  1  0
  8  9  1  0
  9 10  2  0
  9 22  1  0
 10 11  1  0
 11 12  1  0
 11 20  2  0
 12 14  1  0
 12 13  2  0
 14 15  2  0
 14 19  1  0
 15 16  1  0
 16 17  2  0
 17 18  1  0
 18 19  2  0
 20 21  1  0
 21 22  2  0
 22 23  1  0
 23 24  2  0
 24 25  1  0
 26 27  1  0
 26 31  1  0
 27 28  1  0
 28 29  1  0
 29 30  1  0
 30 31  1  0
M  END
>  <DRUGBANK_ID>  (1) 
DB08749

>  <COMMON_NAME>  (1) 
3-(2-AMINO-6-BENZOYLQUINAZOLIN-3(4H)-YL)-N-CYCLOHEXYL-N-METHYLPROPANAMIDE

$$$$
