
     RDKit          2D

 12 12  0  0  0  0  0  0  0  0999 V2000
   -1.6672    0.3781    0.0000 C   0  0  0  0  0  0  0  0  0  0  0  0
   -1.2394   -0.3287    0.0000 N   0  0  0  0  0  0  0  0  0  0  0  0
   -0.4160   -0.3287    0.0000 C   0  0  0  0  0  0  0  0  0  0  0  0
   -0.0087   -1.0853    0.0000 C   0  0  0  0  0  0  0  0  0  0  0  0
    0.8146   -1.0766    0.0000 C   0  0  0  0  0  0  0  0  0  0  0  0
    1.2394   -0.3608    0.0000 C   0  0  0  0  0  0  0  0  0  0  0  0
    0.8322    0.3434    0.0000 C   0  0  0  0  0  0  0  0  0  0  0  0
    0.0000    0.3434    0.0000 C   0  0  0  0  0  0  0  0  0  0  0  0
    2.0629   -0.3608    0.0000 O   0  0  0  0  0  0  0  0  0  0  0  0
    2.4907    0.3434    0.0000 C   0  0  0  0  0  0  0  0  0  0  0  0
   -2.4907    0.3781    0.0000 O   0  0  0  0  0  0  0  0  0  0  0  0
   -1.2423    1.0853    0.0000 C   0  0  0  0  0  0  0  0  0  0  0  0
  2  1  1  0
  3  2  1  0
  4  3  2  0
  5  4  1  0
  5  6  2  0
  6  7  1  0
  7  8  2  0
  8  3  1  0
  9  6  1  0
 10  9  1  0
 11  1  2  0
 12  1  1  0
M  ISO  1  10  13
M  END
>  <DRUGBANK_ID>  (1) 
DB15885

>  <COMMON_NAME>  (1) 
Methacetin methoxy-C-13

>  <CAS_NUMBER>  (1) 
72156-70-8

>  <UNII>  (1) 
6RR3G0X81D

>  <SYNONYMS>  (1) 
Methacetin C-13; Methacetin methoxy-C-13; Methacetin, C-13; p-Acetanisidine C-13

$$$$
