
     RDKit          2D

 23 25  0  0  0  0  0  0  0  0999 V2000
    0.4124    1.2375    0.0000 C   0  0  0  0  0  0  0  0  0  0  0  0
    0.4124    0.4125    0.0000 C   0  0  0  0  0  0  0  0  0  0  0  0
    1.1269    1.6500    0.0000 N   0  0  0  0  0  0  0  0  0  0  0  0
   -0.3019    1.6500    0.0000 C   0  0  0  0  0  0  0  0  0  0  0  0
   -0.3019    0.0000    0.0000 C   0  0  0  0  0  0  0  0  0  0  0  0
    1.1269    0.0000    0.0000 C   0  0  0  0  0  0  0  0  0  0  0  0
    1.5394    2.3645    0.0000 C   0  0  0  0  0  0  0  0  0  0  0  0
    1.9520    1.6500    0.0000 C   0  0  0  0  0  0  0  0  0  0  0  0
   -1.0164    1.2375    0.0000 C   0  0  0  0  0  0  0  0  0  0  0  0
   -0.3019    2.4750    0.0000 O   0  0  0  0  0  0  0  0  0  0  0  0
   -1.0164    0.4125    0.0000 C   0  0  0  0  0  0  0  0  0  0  0  0
   -0.3019   -0.8249    0.0000 O   0  0  0  0  0  0  0  0  0  0  0  0
    1.1269   -0.8249    0.0000 C   0  0  0  0  0  0  0  0  0  0  0  0
    1.8414    0.4125    0.0000 O   0  0  0  0  0  0  0  0  0  0  0  0
   -1.7309    1.6500    0.0000 C   0  0  0  0  0  0  0  0  0  0  0  0
   -1.7309    0.0000    0.0000 N   0  0  0  0  0  0  0  0  0  0  0  0
    1.8414   -1.2374    0.0000 O   0  0  0  0  0  0  0  0  0  0  0  0
    2.5559    0.0000    0.0000 C   0  0  0  0  0  0  0  0  0  0  0  0
   -2.1434   -0.7144    0.0000 C   0  0  0  0  0  0  0  0  0  0  0  0
   -2.5559    0.0000    0.0000 C   0  0  0  0  0  0  0  0  0  0  0  0
    1.8414   -2.0625    0.0000 C   0  0  0  0  0  0  0  0  0  0  0  0
    2.5559   -2.4749    0.0000 N   0  0  0  0  0  0  0  0  0  0  0  0
    1.1269   -2.4749    0.0000 O   0  0  0  0  0  0  0  0  0  0  0  0
  1  2  2  0
  1  3  1  0
  1  4  1  0
  2  5  1  0
  2  6  1  0
  3  7  1  0
  3  8  1  0
  4  9  1  0
  4 10  2  0
  5 11  1  0
  5 12  2  0
  6 13  1  0
  6 14  1  0
  7  8  1  0
  9 15  1  0
  9 11  2  0
 11 16  1  0
 13 17  1  0
 14 18  1  0
 16 19  1  0
 16 20  1  0
 17 21  1  0
 19 20  1  0
 21 22  1  0
 21 23  2  0
M  END
>  <DRUGBANK_ID>  (1) 
DB13677

>  <COMMON_NAME>  (1) 
Carboquone

>  <CAS_NUMBER>  (1) 
24279-91-2

>  <UNII>  (1) 
1CB0HBT12C

>  <SYNONYMS>  (1) 
Carboquona; Carboquone; Carboquonum

$$$$
