
     RDKit          2D

 21 23  0  0  0  0  0  0  0  0999 V2000
   -1.8659    0.8085    0.0000 C   0  0  0  0  0  0  0  0  0  0  0  0
    3.4990    4.4104    0.0000 C   0  0  0  0  0  0  0  0  0  0  0  0
    2.7845    4.8229    0.0000 C   0  0  0  0  0  0  0  0  0  0  0  0
    3.4990    3.5854    0.0000 C   0  0  0  0  0  0  0  0  0  0  0  0
    1.3556    0.6979    0.0000 C   0  0  0  0  0  0  0  0  0  0  0  0
    1.3556    2.3479    0.0000 C   0  0  0  0  0  0  0  0  0  0  0  0
    2.0701    4.4104    0.0000 C   0  0  0  0  0  0  0  0  0  0  0  0
    2.0701    1.1104    0.0000 C   0  0  0  0  0  0  0  0  0  0  0  0
    0.6411    1.1104    0.0000 C   0  0  0  0  0  0  0  0  0  0  0  0
    0.6411    1.9354    0.0000 C   0  0  0  0  0  0  0  0  0  0  0  0
    2.7845    3.1729    0.0000 C   0  0  0  0  0  0  0  0  0  0  0  0
    2.0701    1.9354    0.0000 C   0  0  0  0  0  0  0  0  0  0  0  0
    2.0701    3.5854    0.0000 C   0  0  0  0  0  0  0  0  0  0  0  0
   -0.6284    1.5229    0.0000 C   0  0  0  0  0  0  0  0  0  0  0  0
    1.3556    4.8229    0.0000 Cl  0  0  0  0  0  0  0  0  0  0  0  0
    2.7845    0.6979    0.0000 Cl  0  0  0  0  0  0  0  0  0  0  0  0
    1.3556    3.1729    0.0000 Cl  0  0  0  0  0  0  0  0  0  0  0  0
   -0.1435    0.8555    0.0000 N   0  0  0  0  0  0  0  0  0  0  0  0
   -0.1435    2.1904    0.0000 N   0  0  0  0  0  0  0  0  0  0  0  0
    2.7845    2.3479    0.0000 O   0  0  0  0  0  0  0  0  0  0  0  0
   -1.4534    1.5229    0.0000 S   0  0  0  0  0  0  0  0  0  0  0  0
  3  2  2  0
  4  2  1  0
  7  3  1  0
  8  5  2  0
  9  5  1  0
 10  6  1  0
 10  9  2  0
 11  4  2  0
 12  6  2  0
 12  8  1  0
 13  7  2  0
 13 11  1  0
 15  7  1  0
 16  8  1  0
 17 13  1  0
 18  9  1  0
 18 14  1  0
 19 10  1  0
 19 14  2  0
 20 11  1  0
 20 12  1  0
 21  1  1  0
 21 14  1  0
M  END
>  <DRUGBANK_ID>  (1) 
DB12245

>  <COMMON_NAME>  (1) 
Triclabendazole

>  <CAS_NUMBER>  (1) 
68786-66-3

>  <UNII>  (1) 
4784C8E03O

>  <SYNONYMS>  (1) 
Triclabendazole

$$$$
