
     RDKit          2D

 24 28  0  0  1  0  0  0  0  0999 V2000
    1.6375   -0.1348    0.0000 O   0  0  0  0  0  0  0  0  0  0  0  0
    3.9656   -1.6359    0.0000 N   0  0  0  0  0  0  0  0  0  0  0  0
    2.8713    2.0345    0.0000 N   0  0  0  0  0  0  0  0  0  0  0  0
    3.1418    3.3313    0.0000 N   0  0  0  0  0  0  0  0  0  0  0  0
    3.7126   -0.8572    0.0000 C   0  0  0  0  0  0  0  0  0  0  0  0
    2.8768    0.6165    0.0000 C   0  0  0  0  0  0  0  0  0  0  0  0
    2.8938   -0.8572    0.0000 C   0  0  0  0  0  0  0  0  0  0  0  0
    4.1504   -0.1253    0.0000 C   0  0  0  0  0  0  0  0  0  0  0  0
    3.3032   -2.1171    0.0000 C   0  0  0  0  0  0  0  0  0  0  0  0
    3.7296    0.6165    0.0000 C   0  0  0  0  0  0  0  0  0  0  0  0
    2.6409   -1.6359    0.0000 C   0  0  0  0  0  0  0  0  0  0  0  0
    4.7498   -1.9707    0.0000 C   0  0  0  0  0  0  0  0  0  0  0  0
    2.4561   -0.1253    0.0000 C   0  0  0  0  0  0  0  0  0  0  0  0
    3.3792   -2.9664    0.0000 C   0  0  0  0  0  0  0  0  0  0  0  0
    4.8456   -2.8181    0.0000 C   0  0  0  0  0  0  0  0  0  0  0  0
    4.1556   -3.3193    0.0000 C   0  0  0  0  0  0  0  0  0  0  0  0
    2.4647    1.3240    0.0000 C   0  0  0  0  0  0  0  0  0  0  0  0
    1.9398   -2.0705    0.0000 C   0  0  0  0  0  0  0  0  0  0  0  0
    2.6395   -3.3313    0.0000 C   0  0  0  0  0  0  0  0  0  0  0  0
    1.9390   -2.8955    0.0000 C   0  0  0  0  0  0  0  0  0  0  0  0
    2.5354    2.7812    0.0000 C   0  0  0  0  0  0  0  0  0  0  0  0
    3.6852    2.1233    0.0000 C   0  0  0  0  0  0  0  0  0  0  0  0
    3.8524    2.9247    0.0000 C   0  0  0  0  0  0  0  0  0  0  0  0
    1.7340    2.9483    0.0000 C   0  0  0  0  0  0  0  0  0  0  0  0
  1 13  2  0
  2  5  1  0
  2  9  1  0
  2 12  1  0
  3 17  1  0
  3 21  1  0
  3 22  1  0
  4 21  2  0
  4 23  1  0
  5  7  2  0
  5  8  1  0
  6 10  1  0
  6 13  1  0
  6 17  1  1
  7 11  1  0
  7 13  1  0
  8 10  1  0
  9 11  2  0
  9 14  1  0
 11 18  1  0
 12 15  1  0
 14 16  1  0
 14 19  2  0
 15 16  1  0
 18 20  2  0
 19 20  1  0
 21 24  1  0
 22 23  2  0
M  END
>  <DRUGBANK_ID>  (1) 
DB04885

>  <COMMON_NAME>  (1) 
Cilansetron

>  <CAS_NUMBER>  (1) 
120635-74-7

>  <UNII>  (1) 
2J6DQ1U5B5

>  <SYNONYMS>  (1) 
Cilansetron

$$$$
