
     RDKit          2D

 37 39  0  0  1  0  0  0  0  0999 V2000
    3.5078   -1.0595    0.0000 C   0  0  0  0  0  0  0  0  0  0  0  0
    4.1511    0.2800    0.0000 N   0  0  0  0  0  0  0  0  0  0  0  0
    2.8343   -0.5676    0.0000 O   0  0  0  0  0  0  0  0  0  0  0  0
    3.2657   -1.8277    0.0000 C   0  0  0  0  0  0  0  0  0  0  0  0
    3.4434    0.7039    0.0000 C   0  0  0  0  0  0  0  0  0  0  0  0
    4.8776    0.7039    0.0000 C   0  0  0  0  0  0  0  0  0  0  0  0
    2.1759   -1.0444    0.0000 C   0  0  0  0  0  0  0  0  0  0  0  0
    2.4407   -1.8277    0.0000 C   0  0  0  0  0  0  0  0  0  0  0  0
    3.7499   -2.4937    0.0000 O   0  0  0  0  0  0  0  0  0  0  0  0
    3.4434    1.5363    0.0000 N   0  0  0  0  0  0  0  0  0  0  0  0
    2.7283    0.2952    0.0000 O   0  0  0  0  0  0  0  0  0  0  0  0
    4.8776    1.5363    0.0000 C   0  0  0  0  0  0  0  0  0  0  0  0
    1.3926   -0.7946    0.0000 C   0  0  0  0  0  0  0  0  0  0  0  0
    1.9601   -2.4975    0.0000 O   0  0  0  0  0  0  0  0  0  0  0  0
    4.1548    1.9488    0.0000 C   0  0  0  0  0  0  0  0  0  0  0  0
    1.2184    0.0113    0.0000 O   0  0  0  0  0  0  0  0  0  0  0  0
    4.1511    2.7699    0.0000 O   0  0  0  0  0  0  0  0  0  0  0  0
    0.3935    0.0113    0.0000 P   0  0  0  0  0  0  0  0  0  0  0  0
   -0.4314    0.0113    0.0000 O   0  0  0  0  0  0  0  0  0  0  0  0
    0.3935    0.8363    0.0000 O   0  0  0  0  0  0  0  0  0  0  0  0
    0.3898   -0.8097    0.0000 O   0  0  0  0  0  0  0  0  0  0  0  0
   -1.2525    0.0113    0.0000 P   0  0  0  0  0  0  0  0  0  0  0  0
   -2.0774    0.0151    0.0000 O   0  0  0  0  0  0  0  0  0  0  0  0
   -1.2525    0.8363    0.0000 O   0  0  0  0  0  0  0  0  0  0  0  0
   -1.2525   -0.8097    0.0000 O   0  0  0  0  0  0  0  0  0  0  0  0
   -2.8986    0.0151    0.0000 C   0  0  0  0  0  0  0  0  0  0  0  0
   -3.3110    0.7341    0.0000 O   0  0  0  0  0  0  0  0  0  0  0  0
   -3.3110   -0.7076    0.0000 C   0  0  0  0  0  0  0  0  0  0  0  0
   -4.1435    0.7266    0.0000 C   0  0  0  0  0  0  0  0  0  0  0  0
   -4.1360   -0.7114    0.0000 C   0  0  0  0  0  0  0  0  0  0  0  0
   -2.8986   -1.4190    0.0000 O   0  0  0  0  0  0  0  0  0  0  0  0
   -4.5598    0.0037    0.0000 C   0  0  0  0  0  0  0  0  0  0  0  0
   -4.5598    1.4379    0.0000 C   0  0  0  0  0  0  0  0  0  0  0  0
   -4.5408   -1.4266    0.0000 O   0  0  0  0  0  0  0  0  0  0  0  0
   -5.3808    0.0000    0.0000 O   0  0  0  0  0  0  0  0  0  0  0  0
   -4.1548    2.1531    0.0000 O   0  0  0  0  0  0  0  0  0  0  0  0
   -5.3847    1.4304    0.0000 O   0  0  0  0  0  0  0  0  0  0  0  0
  1  2  1  1
  1  3  1  0
  1  4  1  0
  2  5  1  0
  2  6  1  0
  3  7  1  0
  4  8  1  0
  4  9  1  6
  5 10  1  0
  5 11  2  0
  6 12  2  0
  7 13  1  1
  7  8  1  0
  8 14  1  6
 10 15  1  0
 12 15  1  0
 13 16  1  0
 15 17  2  0
 16 18  1  0
 18 19  1  0
 18 20  1  0
 18 21  2  0
 19 22  1  0
 22 23  1  0
 22 24  1  0
 22 25  2  0
 26 23  1  6
 26 27  1  0
 26 28  1  0
 27 29  1  0
 28 30  1  0
 28 31  1  6
 29 32  1  0
 29 33  1  1
 30 34  1  1
 30 32  1  0
 32 35  1  6
 33 36  1  0
 33 37  2  0
M  END
>  <DRUGBANK_ID>  (1) 
DB03041

>  <SECONDARY_ACCESSION_NUMBERS>  (1) 
EXPT03177

>  <COMMON_NAME>  (1) 
UDP-alpha-D-glucuronic acid

>  <CAS_NUMBER>  (1) 
2616-64-0

>  <UNII>  (1) 
04SZC4MEFQ

>  <SYNONYMS>  (1) 
UDP-alpha-D-glucuronate; UDP-D-glucuronate; UDP-glucuronate; UDP-Glucuronic Acid; UDPglucuronate; uridine diphosphate glucuronic acid; Uridine-5'-diphosphate-glucuronic acid

$$$$
