5BP
     RDKit          2D

 19 22  0  0  0  0  0  0  0  0999 V2000
   -0.4636    2.1865    0.0000 N   0  0  0  0  0  0  0  0  0  0  0  0
    0.3210    1.1065    0.0000 C   0  0  0  0  0  0  0  0  0  0  0  0
    1.0355    0.6940    0.0000 C   0  0  0  0  0  0  0  0  0  0  0  0
    1.7499    1.1065    0.0000 C   0  0  0  0  0  0  0  0  0  0  0  0
    1.7499    1.9315    0.0000 C   0  0  0  0  0  0  0  0  0  0  0  0
   -0.7186    0.0670    0.0000 C   0  0  0  0  0  0  0  0  0  0  0  0
   -1.5256   -0.1046    0.0000 C   0  0  0  0  0  0  0  0  0  0  0  0
    0.9375   -1.7723    0.0000 C   0  0  0  0  0  0  0  0  0  0  0  0
   -0.9486    1.5190    0.0000 C   0  0  0  0  0  0  0  0  0  0  0  0
   -0.4636    0.8516    0.0000 C   0  0  0  0  0  0  0  0  0  0  0  0
    1.0355    2.3440    0.0000 N   0  0  0  0  0  0  0  0  0  0  0  0
    0.3210    1.9315    0.0000 N   0  0  0  0  0  0  0  0  0  0  0  0
   -0.1665   -0.5461    0.0000 N   0  0  0  0  0  0  0  0  0  0  0  0
   -0.4215   -1.3307    0.0000 C   0  0  0  0  0  0  0  0  0  0  0  0
   -1.2285   -1.5023    0.0000 N   0  0  0  0  0  0  0  0  0  0  0  0
   -1.7805   -0.8892    0.0000 C   0  0  0  0  0  0  0  0  0  0  0  0
    0.1305   -1.9438    0.0000 N   0  0  0  0  0  0  0  0  0  0  0  0
    1.7221   -2.0272    0.0000 C   0  0  0  0  0  0  0  0  0  0  0  0
    1.5506   -1.2203    0.0000 C   0  0  0  0  0  0  0  0  0  0  0  0
  1 12  1  0
  2 12  1  0
  2  3  1  0
  3  4  2  0
  4  5  1  0
  6 13  1  0
  6 10  1  0
  7  6  2  0
  8 19  1  0
  8 18  1  0
  9  1  2  0
  9 10  1  0
 10  2  2  0
 11  5  2  0
 12 11  1  0
 14 13  2  0
 14 17  1  0
 15 14  1  0
 16  7  1  0
 16 15  2  0
 17  8  1  0
 19 18  1  0
M  END
>  <DRUGBANK_ID>  (1) 
DB07164

>  <COMMON_NAME>  (1) 
N-cyclopropyl-4-pyrazolo[1,5-b]pyridazin-3-ylpyrimidin-2-amine

$$$$
