
     RDKit          2D

 28 30  0  0  1  0  0  0  0  0999 V2000
    0.0000    2.7224    0.0000 N   0  0  0  0  0  0  0  0  0  0  0  0
    0.7145    2.3099    0.0000 C   0  0  0  0  0  0  0  0  0  0  0  0
    0.7145    1.4849    0.0000 C   0  0  0  0  0  0  0  0  0  0  0  0
    0.0000    1.0724    0.0000 C   0  0  0  0  0  0  0  0  0  0  0  0
   -0.7144    1.4849    0.0000 C   0  0  0  0  0  0  0  0  0  0  0  0
   -1.4288    1.0724    0.0000 C   0  0  0  0  0  0  0  0  0  0  0  0
   -2.1433    1.4849    0.0000 N   0  0  0  0  0  0  0  0  0  0  0  0
   -2.1433    2.3099    0.0000 C   0  0  0  0  0  0  0  0  0  0  0  0
   -1.4288    2.7224    0.0000 C   0  0  0  0  0  0  0  0  0  0  0  0
   -0.7144    2.3099    0.0000 C   0  0  0  0  0  0  0  0  0  0  0  0
    1.4289    1.0724    0.0000 C   0  0  0  0  0  0  0  0  0  0  0  0
    1.4289    0.2474    0.0000 O   0  0  0  0  0  0  0  0  0  0  0  0
    2.1433    1.4849    0.0000 N   0  0  0  0  0  0  0  0  0  0  0  0
   -1.4288    3.5475    0.0000 C   0  0  0  0  0  0  0  0  0  0  0  0
    1.4289    2.7224    0.0000 C   0  0  0  0  0  0  0  0  0  0  0  0
   -1.4288    0.2474    0.0000 O   0  0  0  0  0  0  0  0  0  0  0  0
   -2.1433   -0.1650    0.0000 C   0  0  0  0  0  0  0  0  0  0  0  0
   -2.1433   -0.9899    0.0000 C   0  0  0  0  0  0  0  0  0  0  0  0
    0.0000   -0.2475    0.0000 C   0  0  0  0  0  0  0  0  0  0  0  0
    0.7145   -0.6600    0.0000 C   0  0  0  0  0  0  0  0  0  0  0  0
    0.7145   -1.4850    0.0000 C   0  0  0  0  0  0  0  0  0  0  0  0
    0.0000   -1.8975    0.0000 C   0  0  0  0  0  0  0  0  0  0  0  0
   -0.7144   -1.4850    0.0000 C   0  0  0  0  0  0  0  0  0  0  0  0
   -0.7144   -0.6600    0.0000 C   0  0  0  0  0  0  0  0  0  0  0  0
    1.4289   -0.2475    0.0000 O   0  0  0  0  0  0  0  0  0  0  0  0
    2.1433   -0.6600    0.0000 C   0  0  0  0  0  0  0  0  0  0  0  0
    0.0000   -2.7224    0.0000 C   0  0  0  0  0  0  0  0  0  0  0  0
    0.0000   -3.5475    0.0000 N   0  0  0  0  0  0  0  0  0  0  0  0
  1  2  1  0
  1 10  1  0
  2  3  2  0
  2 15  1  0
  3  4  1  0
  3 11  1  0
  4  5  1  0
  4 19  1  1
  5  6  1  0
  5 10  2  0
  6  7  2  0
  6 16  1  0
  7  8  1  0
  8  9  2  0
  9 10  1  0
  9 14  1  0
 11 12  2  0
 11 13  1  0
 16 17  1  0
 17 18  1  0
 19 20  2  0
 19 24  1  0
 20 21  1  0
 20 25  1  0
 21 22  2  0
 22 23  1  0
 22 27  1  0
 23 24  2  0
 25 26  1  0
 27 28  3  0
M  END
>  <DRUGBANK_ID>  (1) 
DB16165

>  <COMMON_NAME>  (1) 
Finerenone

>  <CAS_NUMBER>  (1) 
1050477-31-0

>  <UNII>  (1) 
DE2O63YV8R

>  <SYNONYMS>  (1) 
Finerenone

$$$$
