SMG
     RDKit          2D

 16 15  0  0  0  0  0  0  0  0999 V2000
   -3.6435   -0.0156    0.0000 O   0  0  0  0  0  0  0  0  0  0  0  0
   -2.9290   -1.2531    0.0000 O   0  0  0  0  0  0  0  0  0  0  0  0
   -2.9290   -0.4281    0.0000 C   0  0  0  0  0  0  0  0  0  0  0  0
   -2.2145   -0.0156    0.0000 C   0  0  0  0  0  0  0  0  0  0  0  0
   -1.5000   -0.4281    0.0000 C   0  0  0  0  0  0  0  0  0  0  0  0
   -0.7856    0.8094    0.0000 O   0  0  0  0  0  0  0  0  0  0  0  0
   -0.7856   -0.0156    0.0000 C   0  0  0  0  0  0  0  0  0  0  0  0
   -0.0711   -0.4281    0.0000 N   0  0  0  0  0  0  0  0  0  0  0  0
    1.3578    1.2219    0.0000 O   0  0  0  0  0  0  0  0  0  0  0  0
   -0.0711    1.2219    0.0000 O   0  0  0  0  0  0  0  0  0  0  0  0
    0.6434    0.8094    0.0000 C   0  0  0  0  0  0  0  0  0  0  0  0
    0.6434   -0.0156    0.0000 C   0  0  0  0  0  0  0  0  0  0  0  0
    1.3578   -0.4281    0.0000 C   0  0  0  0  0  0  0  0  0  0  0  0
    2.0723   -0.0156    0.0000 C   0  0  0  0  0  0  0  0  0  0  0  0
    2.7868   -0.4281    0.0000 S   0  0  0  0  0  0  0  0  0  0  0  0
    3.5013   -0.0156    0.0000 C   0  0  0  0  0  0  0  0  0  0  0  0
  1  3  1  0
  2  3  2  0
  3  4  1  0
  4  5  1  0
  5  7  1  0
  6  7  2  0
  7  8  1  0
  9 11  2  0
 10 11  1  0
 11 12  1  0
 12  8  1  0
 12 13  1  1
 13 14  1  0
 14 15  1  0
 15 16  1  0
M  END
>  <DRUGBANK_ID>  (1) 
DB04511

>  <SECONDARY_ACCESSION_NUMBERS>  (1) 
EXPT02922

>  <COMMON_NAME>  (1) 
N-Succinyl Methionine

$$$$
