MRA
     RDKit          2D

 25 26  0  0  0  0  0  0  0  0999 V2000
   -2.1880   -2.2391    0.0000 C   0  0  0  0  0  0  0  0  0  0  0  0
   -1.4735   -1.8266    0.0000 C   0  0  0  0  0  0  0  0  0  0  0  0
   -1.4735   -1.0016    0.0000 C   0  0  0  0  0  0  0  0  0  0  0  0
   -2.1880   -0.5891    0.0000 C   0  0  0  0  0  0  0  0  0  0  0  0
   -2.9024   -1.0016    0.0000 C   0  0  0  0  0  0  0  0  0  0  0  0
   -2.9024   -1.8266    0.0000 C   0  0  0  0  0  0  0  0  0  0  0  0
   -3.6169   -2.2391    0.0000 C   0  0  0  0  0  0  0  0  0  0  0  0
   -4.3314   -2.6516    0.0000 C   0  0  0  0  0  0  0  0  0  0  0  0
   -0.7590   -0.5891    0.0000 N   0  0  0  0  0  0  0  0  0  0  0  0
   -0.7590    0.2359    0.0000 C   0  0  0  0  0  0  0  0  0  0  0  0
   -0.0446    0.6484    0.0000 C   0  0  0  0  0  0  0  0  0  0  0  0
   -0.0446    1.4734    0.0000 C   0  0  0  0  0  0  0  0  0  0  0  0
   -0.7590    1.8859    0.0000 C   0  0  0  0  0  0  0  0  0  0  0  0
   -1.4735    1.4734    0.0000 C   0  0  0  0  0  0  0  0  0  0  0  0
   -1.4735    0.6484    0.0000 C   0  0  0  0  0  0  0  0  0  0  0  0
   -2.1880    0.2359    0.0000 F   0  0  0  0  0  0  0  0  0  0  0  0
   -2.1880    1.8859    0.0000 F   0  0  0  0  0  0  0  0  0  0  0  0
    0.6699    0.2359    0.0000 C   0  0  0  0  0  0  0  0  0  0  0  0
    0.6699   -0.5891    0.0000 O   0  0  0  0  0  0  0  0  0  0  0  0
    1.3844    0.6484    0.0000 N   0  0  0  0  0  0  0  0  0  0  0  0
    2.0989    0.2359    0.0000 O   0  0  0  0  0  0  0  0  0  0  0  0
    2.8133    0.6484    0.0000 C   0  0  0  0  0  0  0  0  0  0  0  0
    3.5278    0.2359    0.0000 C   0  0  0  0  0  0  0  0  0  0  0  0
    4.2423    0.6484    0.0000 O   0  0  0  0  0  0  0  0  0  0  0  0
   -0.7590   -2.2391    0.0000 F   0  0  0  0  0  0  0  0  0  0  0  0
  1  2  2  0
  1  6  1  0
  2 25  1  0
  2  3  1  0
  3  9  1  0
  3  4  2  0
  4  5  1  0
  5  6  2  0
  6  7  1  0
  7  8  3  0
  9 10  1  0
 10 15  1  0
 10 11  2  0
 11 18  1  0
 11 12  1  0
 12 13  2  0
 13 14  1  0
 14 15  2  0
 14 17  1  0
 15 16  1  0
 18 19  2  0
 18 20  1  0
 20 21  1  0
 21 22  1  0
 22 23  1  0
 23 24  1  0
M  END
>  <DRUGBANK_ID>  (1) 
DB08208

>  <COMMON_NAME>  (1) 
2-[(4-ETHYNYL-2-FLUOROPHENYL)AMINO]-3,4-DIFLUORO-N-(2-HYDROXYETHOXY)BENZAMIDE

$$$$
