
     RDKit          2D

 31 34  0  0  0  0  0  0  0  0999 V2000
    1.4289    4.7437    0.0000 C   0  0  0  0  0  0  0  0  0  0  0  0
    0.0000   -5.1562    0.0000 C   0  0  0  0  0  0  0  0  0  0  0  0
    2.1434   -1.4437    0.0000 C   0  0  0  0  0  0  0  0  0  0  0  0
    0.7144    5.1562    0.0000 C   0  0  0  0  0  0  0  0  0  0  0  0
    1.4289    3.9187    0.0000 C   0  0  0  0  0  0  0  0  0  0  0  0
    0.7144   -4.7437    0.0000 C   0  0  0  0  0  0  0  0  0  0  0  0
   -0.7144   -4.7437    0.0000 C   0  0  0  0  0  0  0  0  0  0  0  0
    1.4289   -1.0312    0.0000 C   0  0  0  0  0  0  0  0  0  0  0  0
    2.1434   -2.2687    0.0000 C   0  0  0  0  0  0  0  0  0  0  0  0
   -0.7144    2.6812    0.0000 C   0  0  0  0  0  0  0  0  0  0  0  0
    0.0000    4.7437    0.0000 C   0  0  0  0  0  0  0  0  0  0  0  0
    0.7144    3.5062    0.0000 C   0  0  0  0  0  0  0  0  0  0  0  0
   -0.7144    3.5062    0.0000 C   0  0  0  0  0  0  0  0  0  0  0  0
    0.7144   -3.9187    0.0000 C   0  0  0  0  0  0  0  0  0  0  0  0
   -0.7144   -3.9187    0.0000 C   0  0  0  0  0  0  0  0  0  0  0  0
    0.7144   -1.4437    0.0000 C   0  0  0  0  0  0  0  0  0  0  0  0
    1.4289   -2.6812    0.0000 C   0  0  0  0  0  0  0  0  0  0  0  0
   -1.4289    2.2687    0.0000 C   0  0  0  0  0  0  0  0  0  0  0  0
   -2.1434    1.0312    0.0000 C   0  0  0  0  0  0  0  0  0  0  0  0
   -0.7144    1.0312    0.0000 C   0  0  0  0  0  0  0  0  0  0  0  0
   -2.1434    0.2062    0.0000 C   0  0  0  0  0  0  0  0  0  0  0  0
   -0.7144    0.2062    0.0000 C   0  0  0  0  0  0  0  0  0  0  0  0
   -1.4289   -1.0312    0.0000 C   0  0  0  0  0  0  0  0  0  0  0  0
   -0.7144   -1.4437    0.0000 C   0  0  0  0  0  0  0  0  0  0  0  0
    0.0000    3.9187    0.0000 C   0  0  0  0  0  0  0  0  0  0  0  0
    0.0000   -3.5062    0.0000 C   0  0  0  0  0  0  0  0  0  0  0  0
    0.7144   -2.2687    0.0000 C   0  0  0  0  0  0  0  0  0  0  0  0
    0.0000   -2.6812    0.0000 C   0  0  0  0  0  0  0  0  0  0  0  0
   -1.4289    1.4437    0.0000 N   0  0  0  0  0  0  0  0  0  0  0  0
   -1.4289   -0.2062    0.0000 N   0  0  0  0  0  0  0  0  0  0  0  0
   -0.7144   -2.2687    0.0000 O   0  0  0  0  0  0  0  0  0  0  0  0
  4  1  2  0
  5  1  1  0
  6  2  2  0
  7  2  1  0
  8  3  2  0
  9  3  1  0
 11  4  1  0
 12  5  2  0
 13 10  2  0
 14  6  1  0
 15  7  2  0
 16  8  1  0
 17  9  2  0
 18 10  1  0
 21 19  1  0
 22 20  1  0
 24 23  1  0
 25 11  2  0
 25 12  1  0
 25 13  1  0
 26 14  2  0
 26 15  1  0
 27 16  2  0
 27 17  1  0
 28 26  1  0
 28 27  1  0
 29 18  1  0
 29 19  1  0
 29 20  1  0
 30 21  1  0
 30 22  1  0
 30 23  1  0
 31 24  1  0
 31 28  1  0
M  END
>  <DRUGBANK_ID>  (1) 
DB17027

>  <COMMON_NAME>  (1) 
GBR-12783

>  <CAS_NUMBER>  (1) 
145428-33-7

>  <UNII>  (1) 
96Y892TJ2A

$$$$
