OAC
     RDKit          2D

 13 13  0  0  0  0  0  0  0  0999 V2000
    1.3377    2.0397    0.0000 O   0  0  0  0  0  0  0  0  0  0  0  0
    1.3377    1.2147    0.0000 C   0  0  0  0  0  0  0  0  0  0  0  0
    0.6232    0.8022    0.0000 C   0  0  0  0  0  0  0  0  0  0  0  0
    0.6232   -0.0228    0.0000 C   0  0  0  0  0  0  0  0  0  0  0  0
   -0.0912    1.2147    0.0000 C   0  0  0  0  0  0  0  0  0  0  0  0
   -0.0912   -0.4353    0.0000 C   0  0  0  0  0  0  0  0  0  0  0  0
   -0.0912   -1.2603    0.0000 C   0  0  0  0  0  0  0  0  0  0  0  0
   -0.8057   -1.6728    0.0000 C   0  0  0  0  0  0  0  0  0  0  0  0
   -1.5202   -1.2603    0.0000 C   0  0  0  0  0  0  0  0  0  0  0  0
   -1.5202   -0.4353    0.0000 C   0  0  0  0  0  0  0  0  0  0  0  0
   -0.8057   -0.0228    0.0000 C   0  0  0  0  0  0  0  0  0  0  0  0
   -0.8057    0.8022    0.0000 O   0  0  0  0  0  0  0  0  0  0  0  0
    2.0522    0.8022    0.0000 O   0  0  0  0  0  0  0  0  0  0  0  0
  1  2  2  0
  2  3  1  0
  2 13  1  0
  3  4  1  0
  3  5  1  1
  4  6  1  0
  6  7  2  0
  6 11  1  0
  7  8  1  0
  8  9  2  0
  9 10  1  0
 10 11  2  0
 11 12  1  0
M  END
>  <DRUGBANK_ID>  (1) 
DB01662

>  <SECONDARY_ACCESSION_NUMBERS>  (1) 
EXPT02407

>  <COMMON_NAME>  (1) 
Trans-O-Hydroxy-Alpha-Methyl Cinnamate

$$$$
