
     RDKit          2D

 35 40  0  0  1  0  0  0  0  0999 V2000
    9.6804    4.9115    0.0000 C   0  0  0  0  0  0  0  0  0  0  0  0
    8.9555    4.5175    0.0000 C   0  0  0  0  0  0  0  0  0  0  0  0
    8.2519    4.9482    0.0000 C   0  0  0  0  0  0  0  0  0  0  0  0
    7.5271    4.5542    0.0000 C   0  0  0  0  0  0  0  0  0  0  0  0
    7.5058    3.7295    0.0000 C   0  0  0  0  0  0  0  0  0  0  0  0
    6.7149    3.4948    0.0000 C   0  0  0  0  0  0  0  0  0  0  0  0
    6.2473    4.1745    0.0000 C   0  0  0  0  0  0  0  0  0  0  0  0
    6.7493    4.8293    0.0000 O   0  0  0  0  0  0  0  0  0  0  0  0
    5.8704    3.4407    0.0000 C   0  0  0  0  0  0  0  0  0  0  0  0
    5.0616    3.2779    0.0000 C   0  0  0  0  0  0  0  0  0  0  0  0
    4.4300    3.8087    0.0000 C   0  0  0  0  0  0  0  0  0  0  0  0
    3.6391    3.5740    0.0000 C   0  0  0  0  0  0  0  0  0  0  0  0
    3.2843    2.8292    0.0000 C   0  0  0  0  0  0  0  0  0  0  0  0
    2.4619    2.7641    0.0000 C   0  0  0  0  0  0  0  0  0  0  0  0
    1.9943    3.4438    0.0000 C   0  0  0  0  0  0  0  0  0  0  0  0
    1.1718    3.3787    0.0000 C   0  0  0  0  0  0  0  0  0  0  0  0
    0.7042    4.0584    0.0000 C   0  0  0  0  0  0  0  0  0  0  0  0
    1.0591    4.8032    0.0000 C   0  0  0  0  0  0  0  0  0  0  0  0
    1.8815    4.8683    0.0000 C   0  0  0  0  0  0  0  0  0  0  0  0
    2.3491    4.1886    0.0000 C   0  0  0  0  0  0  0  0  0  0  0  0
    3.1715    4.2537    0.0000 C   0  0  0  0  0  0  0  0  0  0  0  0
    3.6735    4.9084    0.0000 C   0  0  0  0  0  0  0  0  0  0  0  0
    4.4513    4.6334    0.0000 C   0  0  0  0  0  0  0  0  0  0  0  0
    5.1093    5.1310    0.0000 C   0  0  0  0  0  0  0  0  0  0  0  0
    5.9086    4.9268    0.0000 C   0  0  0  0  0  0  0  0  0  0  0  0
    4.9465    5.9398    0.0000 C   0  0  0  0  0  0  0  0  0  0  0  0
    2.7039    4.9334    0.0000 C   0  0  0  0  0  0  0  0  0  0  0  0
   -0.1182    3.9933    0.0000 N   0  0  0  0  0  0  0  0  0  0  0  0
   -0.4730    3.2485    0.0000 S   0  0  0  0  0  0  0  0  0  0  0  0
   -0.8279    2.5037    0.0000 O   0  0  0  0  0  0  0  0  0  0  0  0
   -1.2178    3.6033    0.0000 O   0  0  0  0  0  0  0  0  0  0  0  0
    0.2718    2.8937    0.0000 C   0  0  0  0  0  0  0  0  0  0  0  0
    6.4399    2.7170    0.0000 C   0  0  0  0  0  0  0  0  0  0  0  0
    8.2095    3.2988    0.0000 N   0  0  0  0  0  0  0  0  0  0  0  0
    8.9343    3.6928    0.0000 C   0  0  0  0  0  0  0  0  0  0  0  0
  2  1  1  6
  2  3  1  0
  2 35  1  0
  4  3  1  6
  4  5  1  0
  4  8  1  0
  5  6  1  0
  5 34  1  1
  6  7  1  0
  6 33  1  1
  7  8  1  0
  7  9  1  1
  7 25  1  0
  9 10  1  0
 11 10  1  1
 11 12  1  0
 11 23  1  0
 12 13  1  6
 12 21  1  0
 13 14  1  0
 15 14  1  6
 15 16  1  0
 15 20  1  0
 16 17  1  0
 17 18  1  0
 17 28  1  6
 18 19  1  0
 19 20  1  0
 20 21  1  0
 20 27  1  1
 21 22  1  1
 22 23  1  0
 23 24  2  0
 24 25  1  0
 24 26  1  0
 28 29  1  0
 29 30  2  0
 29 31  2  0
 29 32  1  0
 34 35  1  0
M  END
>  <DRUGBANK_ID>  (1) 
DB12655

>  <SECONDARY_ACCESSION_NUMBERS>  (1) 
DB05922

>  <COMMON_NAME>  (1) 
Patidegib

>  <CAS_NUMBER>  (1) 
1037210-93-7

>  <UNII>  (1) 
JT96FPU35X

>  <SYNONYMS>  (1) 
Patidegib; Saridegib

$$$$
