
     RDKit          2D

 28 31  0  0  0  0  0  0  0  0999 V2000
    2.0890   -3.8051    0.0000 O   0  0  0  0  0  0  0  0  0  0  0  0
    2.7021   -3.2530    0.0000 C   0  0  0  0  0  0  0  0  0  0  0  0
    3.4867   -3.5080    0.0000 O   0  0  0  0  0  0  0  0  0  0  0  0
    2.5306   -2.4461    0.0000 C   0  0  0  0  0  0  0  0  0  0  0  0
    3.1437   -1.8940    0.0000 C   0  0  0  0  0  0  0  0  0  0  0  0
    2.9721   -1.0871    0.0000 C   0  0  0  0  0  0  0  0  0  0  0  0
    3.5852   -0.5350    0.0000 C   0  0  0  0  0  0  0  0  0  0  0  0
    4.3922   -0.7066    0.0000 C   0  0  0  0  0  0  0  0  0  0  0  0
    4.8047    0.0079    0.0000 C   0  0  0  0  0  0  0  0  0  0  0  0
    4.2527    0.6210    0.0000 C   0  0  0  0  0  0  0  0  0  0  0  0
    4.5076    1.4056    0.0000 C   0  0  0  0  0  0  0  0  0  0  0  0
    5.3146    1.5771    0.0000 C   0  0  0  0  0  0  0  0  0  0  0  0
    5.8666    0.9641    0.0000 C   0  0  0  0  0  0  0  0  0  0  0  0
    6.6736    1.1356    0.0000 Cl  0  0  0  0  0  0  0  0  0  0  0  0
    5.6117    0.1794    0.0000 C   0  0  0  0  0  0  0  0  0  0  0  0
    3.4990    0.2854    0.0000 N   0  0  0  0  0  0  0  0  0  0  0  0
    2.7845    0.6979    0.0000 S   0  0  0  0  0  0  0  0  0  0  0  0
    3.1970    1.4124    0.0000 O   0  0  0  0  0  0  0  0  0  0  0  0
    2.3720   -0.0165    0.0000 O   0  0  0  0  0  0  0  0  0  0  0  0
    2.0701    1.1104    0.0000 C   0  0  0  0  0  0  0  0  0  0  0  0
    1.3556    0.6979    0.0000 C   0  0  0  0  0  0  0  0  0  0  0  0
    0.6411    1.1104    0.0000 C   0  0  0  0  0  0  0  0  0  0  0  0
    0.6411    1.9354    0.0000 C   0  0  0  0  0  0  0  0  0  0  0  0
    1.3556    2.3479    0.0000 C   0  0  0  0  0  0  0  0  0  0  0  0
    2.0701    1.9354    0.0000 C   0  0  0  0  0  0  0  0  0  0  0  0
   -0.1435    2.1904    0.0000 N   0  0  0  0  0  0  0  0  0  0  0  0
   -0.6284    1.5229    0.0000 C   0  0  0  0  0  0  0  0  0  0  0  0
   -0.1435    0.8555    0.0000 S   0  0  0  0  0  0  0  0  0  0  0  0
  1  2  1  0
  2  3  2  0
  2  4  1  0
  4  5  1  0
  5  6  1  0
  6  7  1  0
  7  8  2  0
  7 16  1  0
  8  9  1  0
  9 10  2  0
  9 15  1  0
 10 11  1  0
 10 16  1  0
 11 12  2  0
 12 13  1  0
 13 14  1  0
 13 15  2  0
 16 17  1  0
 17 18  2  0
 17 19  2  0
 17 20  1  0
 20 21  2  0
 20 25  1  0
 21 22  1  0
 22 23  2  0
 22 28  1  0
 23 24  1  0
 23 26  1  0
 24 25  2  0
 26 27  2  0
 27 28  1  0
M  END
>  <DRUGBANK_ID>  (1) 
DB14801

>  <COMMON_NAME>  (1) 
Lanifibranor

>  <CAS_NUMBER>  (1) 
927961-18-0

>  <UNII>  (1) 
28Q8AG0PYL

>  <SYNONYMS>  (1) 
Lanifibranor

$$$$
