MO9
     RDKit          2D

 31 32  0  0  0  0  0  0  0  0999 V2000
   -2.4096    2.1428    0.0000 C   0  0  0  0  0  0  0  0  0  0  0  0
   -2.1396    1.3632    0.0000 C   0  0  0  0  0  0  0  0  0  0  0  0
   -2.6797    0.7396    0.0000 C   0  0  0  0  0  0  0  0  0  0  0  0
   -3.4898    0.8955    0.0000 C   0  0  0  0  0  0  0  0  0  0  0  0
   -3.7599    1.6751    0.0000 C   0  0  0  0  0  0  0  0  0  0  0  0
   -3.2198    2.2987    0.0000 C   0  0  0  0  0  0  0  0  0  0  0  0
   -1.3295    1.2073    0.0000 C   0  0  0  0  0  0  0  0  0  0  0  0
   -0.7894   -0.3518    0.0000 C   0  0  0  0  0  0  0  0  0  0  0  0
    0.0208   -0.5077    0.0000 C   0  0  0  0  0  0  0  0  0  0  0  0
    0.5608    0.1160    0.0000 C   0  0  0  0  0  0  0  0  0  0  0  0
   -1.0594    0.4278    0.0000 S   0  0  0  0  0  0  0  0  0  0  0  0
    0.2908   -1.2872    0.0000 O   0  0  0  0  0  0  0  0  0  0  0  0
   -0.2799    0.6978    0.0000 O   0  0  0  0  0  0  0  0  0  0  0  0
   -1.8390    0.1577    0.0000 O   0  0  0  0  0  0  0  0  0  0  0  0
    1.3710   -0.0399    0.0000 N   0  0  0  0  0  0  0  0  0  0  0  0
    0.2908    0.8955    0.0000 O   0  0  0  0  0  0  0  0  0  0  0  0
    1.9111    0.5837    0.0000 C   0  0  0  0  0  0  0  0  0  0  0  0
    2.7212    0.4278    0.0000 C   0  0  0  0  0  0  0  0  0  0  0  0
    1.1009   -1.4431    0.0000 C   0  0  0  0  0  0  0  0  0  0  0  0
    1.3710   -2.2227    0.0000 N   0  0  0  0  0  0  0  0  0  0  0  0
    1.6410   -0.8195    0.0000 O   0  0  0  0  0  0  0  0  0  0  0  0
    2.1811   -2.3786    0.0000 C   0  0  0  0  0  0  0  0  0  0  0  0
    2.4512   -3.1582    0.0000 C   0  0  0  0  0  0  0  0  0  0  0  0
    1.9111   -3.7818    0.0000 O   0  0  0  0  0  0  0  0  0  0  0  0
    1.1009   -3.6259    0.0000 C   0  0  0  0  0  0  0  0  0  0  0  0
    0.8309   -2.8463    0.0000 C   0  0  0  0  0  0  0  0  0  0  0  0
   -1.8696    2.7664    0.0000 O   0  0  0  0  0  0  0  0  0  0  0  0
   -2.1396    3.5460    0.0000 C   0  0  0  0  0  0  0  0  0  0  0  0
   -2.9497    3.7019    0.0000 F   0  0  0  0  0  0  0  0  0  0  0  0
   -1.5995    4.1696    0.0000 F   0  0  0  0  0  0  0  0  0  0  0  0
    3.5313    0.2719    0.0000 N   0  0  0  0  0  0  0  0  0  0  0  0
  1  2  2  0
  1  6  1  0
  1 27  1  0
  2  3  1  0
  2  7  1  0
  3  4  2  0
  4  5  1  0
  5  6  2  0
  7 11  1  0
  9  8  1  1
  8 11  1  0
  9 10  1  0
  9 12  1  0
 10 15  1  0
 10 16  2  0
 11 13  2  0
 11 14  2  0
 12 19  1  0
 15 17  1  0
 17 18  1  0
 18 31  3  0
 19 20  1  0
 19 21  2  0
 20 22  1  0
 20 26  1  0
 22 23  1  0
 23 24  1  0
 24 25  1  0
 25 26  1  0
 27 28  1  0
 28 29  1  0
 28 30  1  0
M  END
>  <DRUGBANK_ID>  (1) 
DB08195

>  <COMMON_NAME>  (1) 
(1R)-2-[(CYANOMETHYL)AMINO]-1-({[2-(DIFLUOROMETHOXY)BENZYL]SULFONYL}METHYL)-2-OXOETHYL MORPHOLINE-4-CARBOXYLATE

$$$$
