H25
     RDKit          2D

 33 36  0  0  0  0  0  0  0  0999 V2000
    5.5331   35.0227    0.0000 F   0  0  0  0  0  0  0  0  0  0  0  0
    6.3177   35.2777    0.0000 C   0  0  0  0  0  0  0  0  0  0  0  0
    6.4892   36.0847    0.0000 C   0  0  0  0  0  0  0  0  0  0  0  0
    7.2739   36.3396    0.0000 C   0  0  0  0  0  0  0  0  0  0  0  0
    7.4454   37.1466    0.0000 N   0  0  0  0  0  0  0  0  0  0  0  0
    6.8323   37.6986    0.0000 C   0  0  0  0  0  0  0  0  0  0  0  0
    7.0038   38.5056    0.0000 C   0  0  0  0  0  0  0  0  0  0  0  0
    7.7884   38.7605    0.0000 C   0  0  0  0  0  0  0  0  0  0  0  0
    8.4015   38.2085    0.0000 C   0  0  0  0  0  0  0  0  0  0  0  0
    8.2300   37.4015    0.0000 C   0  0  0  0  0  0  0  0  0  0  0  0
    8.8431   36.8495    0.0000 O   0  0  0  0  0  0  0  0  0  0  0  0
    7.8870   35.7876    0.0000 C   0  0  0  0  0  0  0  0  0  0  0  0
    7.7154   34.9806    0.0000 C   0  0  0  0  0  0  0  0  0  0  0  0
    6.9308   34.7256    0.0000 C   0  0  0  0  0  0  0  0  0  0  0  0
    6.7593   33.9187    0.0000 N   0  0  0  0  0  0  0  0  0  0  0  0
    5.9747   33.6637    0.0000 C   0  0  0  0  0  0  0  0  0  0  0  0
    5.3616   34.2158    0.0000 O   0  0  0  0  0  0  0  0  0  0  0  0
    5.8031   32.8568    0.0000 C   0  0  0  0  0  0  0  0  0  0  0  0
    5.0185   32.6018    0.0000 N   0  0  0  0  0  0  0  0  0  0  0  0
    4.3511   33.0867    0.0000 C   0  0  0  0  0  0  0  0  0  0  0  0
    3.6836   32.6018    0.0000 C   0  0  0  0  0  0  0  0  0  0  0  0
    2.8990   32.8568    0.0000 O   0  0  0  0  0  0  0  0  0  0  0  0
    4.7636   31.8172    0.0000 C   0  0  0  0  0  0  0  0  0  0  0  0
    3.9386   31.8172    0.0000 C   0  0  0  0  0  0  0  0  0  0  0  0
    3.4537   31.1498    0.0000 N   0  0  0  0  0  0  0  0  0  0  0  0
    2.6332   31.2360    0.0000 C   0  0  0  0  0  0  0  0  0  0  0  0
    2.2976   31.9897    0.0000 O   0  0  0  0  0  0  0  0  0  0  0  0
    2.1482   30.5686    0.0000 C   0  0  0  0  0  0  0  0  0  0  0  0
    2.4032   29.7839    0.0000 C   0  0  0  0  0  0  0  0  0  0  0  0
    1.7357   29.2990    0.0000 C   0  0  0  0  0  0  0  0  0  0  0  0
    1.3232   30.5686    0.0000 S   0  0  0  0  0  0  0  0  0  0  0  0
    1.0683   29.7839    0.0000 C   0  0  0  0  0  0  0  0  0  0  0  0
    0.2837   29.5290    0.0000 Cl  0  0  0  0  0  0  0  0  0  0  0  0
  1  2  1  0
  2  3  2  0
  2 14  1  0
  3  4  1  0
  4  5  1  0
  4 12  2  0
  5  6  1  0
  5 10  1  0
  6  7  2  0
  7  8  1  0
  8  9  2  0
  9 10  1  0
 10 11  2  0
 12 13  1  0
 13 14  2  0
 14 15  1  0
 15 16  1  0
 16 17  2  0
 16 18  1  0
 18 19  1  0
 19 23  1  0
 19 20  1  0
 21 20  1  0
 21 22  1  1
 21 24  1  0
 23 24  1  0
 24 25  1  6
 25 26  1  0
 26 27  2  0
 26 28  1  0
 28 29  2  0
 28 31  1  0
 29 30  1  0
 30 32  2  0
 31 32  1  0
 32 33  1  0
M  END
>  <DRUGBANK_ID>  (1) 
DB07875

>  <COMMON_NAME>  (1) 
5-Chloro-thiophene-2-carboxylic acid ((3S,4S)-1-{[2-fluoro-4-(2-oxo-2H-pyridin-1-yl)-phenylcarbamoyl]-methyl}-4-hydroxy-pyrrolidin-3-yl)-amide

$$$$
