
     RDKit          2D

 24 26  0  0  0  0  0  0  0  0999 V2000
    1.4534   -0.4314    0.0000 C   0  0  0  0  0  0  0  0  0  0  0  0
    1.4534    0.3933    0.0000 C   0  0  0  0  0  0  0  0  0  0  0  0
    0.7388   -0.8437    0.0000 C   0  0  0  0  0  0  0  0  0  0  0  0
    2.1716   -0.8437    0.0000 C   0  0  0  0  0  0  0  0  0  0  0  0
    2.1682    0.8091    0.0000 C   0  0  0  0  0  0  0  0  0  0  0  0
    0.7421    0.8091    0.0000 O   0  0  0  0  0  0  0  0  0  0  0  0
    0.7388   -1.6684    0.0000 C   0  0  0  0  0  0  0  0  0  0  0  0
    0.0170   -0.4314    0.0000 Cl  0  0  0  0  0  0  0  0  0  0  0  0
    2.1716   -1.6684    0.0000 C   0  0  0  0  0  0  0  0  0  0  0  0
    2.1656    1.6343    0.0000 N   0  0  0  0  0  0  0  0  0  0  0  0
    0.0275    0.3933    0.0000 C   0  0  0  0  0  0  0  0  0  0  0  0
    1.4534   -2.0842    0.0000 C   0  0  0  0  0  0  0  0  0  0  0  0
    2.8316    2.1215    0.0000 C   0  0  0  0  0  0  0  0  0  0  0  0
    1.4963    2.1172    0.0000 C   0  0  0  0  0  0  0  0  0  0  0  0
   -0.6838    0.8091    0.0000 C   0  0  0  0  0  0  0  0  0  0  0  0
    1.4465   -2.9056    0.0000 Cl  0  0  0  0  0  0  0  0  0  0  0  0
    2.5741    2.9056    0.0000 C   0  0  0  0  0  0  0  0  0  0  0  0
    1.7487    2.9030    0.0000 N   0  0  0  0  0  0  0  0  0  0  0  0
   -1.3951    0.3933    0.0000 C   0  0  0  0  0  0  0  0  0  0  0  0
   -0.6838    1.6338    0.0000 C   0  0  0  0  0  0  0  0  0  0  0  0
   -2.1134    0.8091    0.0000 C   0  0  0  0  0  0  0  0  0  0  0  0
   -1.3951    2.0462    0.0000 C   0  0  0  0  0  0  0  0  0  0  0  0
   -2.1134    1.6338    0.0000 C   0  0  0  0  0  0  0  0  0  0  0  0
   -2.8316    2.0462    0.0000 Cl  0  0  0  0  0  0  0  0  0  0  0  0
  1  2  1  0
  1  3  2  0
  1  4  1  0
  2  5  1  6
  2  6  1  0
  3  7  1  0
  3  8  1  0
  4  9  2  0
  5 10  1  0
  6 11  1  0
  7 12  2  0
  9 12  1  0
 10 13  1  0
 10 14  1  0
 11 15  1  0
 12 16  1  0
 13 17  2  0
 14 18  2  0
 15 19  2  0
 15 20  1  0
 17 18  1  0
 19 21  1  0
 20 22  2  0
 21 23  2  0
 22 23  1  0
 23 24  1  0
M  END
>  <DRUGBANK_ID>  (1) 
DB07705

>  <COMMON_NAME>  (1) 
(S)-econazole

>  <CAS_NUMBER>  (1) 
73094-37-8

>  <UNII>  (1) 
E3VE9L071S

>  <SYNONYMS>  (1) 
(+)-Econazole

$$$$
