
     RDKit          2D

 40 44  0  0  0  0  0  0  0  0999 V2000
    2.4965    0.0000    0.0000 C   0  0  0  0  0  0  0  0  0  0  0  0
    1.7786   -0.4071    0.0000 N   0  0  0  0  0  0  0  0  0  0  0  0
    1.0714    0.0000    0.0000 C   0  0  0  0  0  0  0  0  0  0  0  0
    0.3535   -0.4071    0.0000 C   0  0  0  0  0  0  0  0  0  0  0  0
    0.3535   -1.2321    0.0000 C   0  0  0  0  0  0  0  0  0  0  0  0
   -0.3535   -1.6501    0.0000 C   0  0  0  0  0  0  0  0  0  0  0  0
   -1.0714   -1.2321    0.0000 C   0  0  0  0  0  0  0  0  0  0  0  0
   -1.7894   -1.6501    0.0000 N   0  0  0  0  0  0  0  0  0  0  0  0
   -2.4965   -1.2321    0.0000 C   0  0  0  0  0  0  0  0  0  0  0  0
   -3.2145   -1.6501    0.0000 C   0  0  0  0  0  0  0  0  0  0  0  0
   -3.9323   -1.2321    0.0000 C   0  0  0  0  0  0  0  0  0  0  0  0
   -3.9323   -0.4071    0.0000 C   0  0  0  0  0  0  0  0  0  0  0  0
   -4.6502    0.0000    0.0000 C   0  0  0  0  0  0  0  0  0  0  0  0
   -4.6502    0.8249    0.0000 C   0  0  0  0  0  0  0  0  0  0  0  0
   -3.9323    1.2429    0.0000 C   0  0  0  0  0  0  0  0  0  0  0  0
   -3.9323    2.0679    0.0000 C   0  0  0  0  0  0  0  0  0  0  0  0
   -3.2145    2.4751    0.0000 F   0  0  0  0  0  0  0  0  0  0  0  0
   -4.6502    2.4751    0.0000 F   0  0  0  0  0  0  0  0  0  0  0  0
   -3.9323    2.8822    0.0000 F   0  0  0  0  0  0  0  0  0  0  0  0
   -3.2145    0.8249    0.0000 C   0  0  0  0  0  0  0  0  0  0  0  0
   -3.2145    0.0000    0.0000 C   0  0  0  0  0  0  0  0  0  0  0  0
   -4.6502   -1.6501    0.0000 C   0  0  0  0  0  0  0  0  0  0  0  0
   -5.3573   -1.2321    0.0000 O   0  0  0  0  0  0  0  0  0  0  0  0
   -5.3573   -0.4071    0.0000 C   0  0  0  0  0  0  0  0  0  0  0  0
   -4.6502   -2.4751    0.0000 C   0  0  0  0  0  0  0  0  0  0  0  0
   -3.9323   -2.8822    0.0000 C   0  0  0  0  0  0  0  0  0  0  0  0
   -3.2145   -2.4751    0.0000 C   0  0  0  0  0  0  0  0  0  0  0  0
   -2.4965   -0.4071    0.0000 O   0  0  0  0  0  0  0  0  0  0  0  0
   -1.0714   -0.4071    0.0000 C   0  0  0  0  0  0  0  0  0  0  0  0
   -0.3535    0.0000    0.0000 C   0  0  0  0  0  0  0  0  0  0  0  0
    1.0714   -1.6501    0.0000 C   0  0  0  0  0  0  0  0  0  0  0  0
    1.7786   -1.2321    0.0000 C   0  0  0  0  0  0  0  0  0  0  0  0
    3.2145   -0.4071    0.0000 O   0  0  0  0  0  0  0  0  0  0  0  0
    3.9323    0.0000    0.0000 C   0  0  0  0  0  0  0  0  0  0  0  0
    4.6395   -0.4071    0.0000 C   0  0  0  0  0  0  0  0  0  0  0  0
    5.3573    0.0000    0.0000 C   0  0  0  0  0  0  0  0  0  0  0  0
    5.3573    0.8249    0.0000 C   0  0  0  0  0  0  0  0  0  0  0  0
    4.6395    1.2429    0.0000 C   0  0  0  0  0  0  0  0  0  0  0  0
    3.9323    0.8249    0.0000 C   0  0  0  0  0  0  0  0  0  0  0  0
    2.4965    0.8249    0.0000 O   0  0  0  0  0  0  0  0  0  0  0  0
  1  2  1  0
  1 33  1  0
  1 40  2  0
  2  3  1  0
  2 32  1  0
  3  4  1  0
  4  5  2  0
  4 30  1  0
  5  6  1  0
  5 31  1  0
  6  7  2  0
  7  8  1  0
  7 29  1  0
  8  9  1  0
  9 10  1  0
  9 28  2  0
 10 11  1  0
 10 27  2  0
 11 12  1  0
 11 22  2  0
 12 13  2  0
 12 21  1  0
 13 14  1  0
 14 15  2  0
 15 16  1  0
 15 20  1  0
 16 17  1  0
 16 18  1  0
 16 19  1  0
 20 21  2  0
 22 23  1  0
 22 25  1  0
 23 24  1  0
 25 26  2  0
 26 27  1  0
 29 30  2  0
 31 32  1  0
 33 34  1  0
 34 35  2  0
 34 39  1  0
 35 36  1  0
 36 37  2  0
 37 38  1  0
 38 39  2  0
M  END
>  <DRUGBANK_ID>  (1) 
DB05678

>  <COMMON_NAME>  (1) 
SLx-4090

>  <CAS_NUMBER>  (1) 
913541-47-6

>  <UNII>  (1) 
F84YQX13FV

$$$$
