TTL
     RDKit          2D

 12 13  0  0  0  0  0  0  0  0999 V2000
   -0.2795    1.5632    0.0000 O   0  0  0  0  0  0  0  0  0  0  0  0
   -0.2795    0.7382    0.0000 C   0  0  0  0  0  0  0  0  0  0  0  0
    0.4350    0.3257    0.0000 C   0  0  0  0  0  0  0  0  0  0  0  0
    1.1495    0.7382    0.0000 C   0  0  0  0  0  0  0  0  0  0  0  0
    1.8639    0.3257    0.0000 C   0  0  0  0  0  0  0  0  0  0  0  0
    1.8639   -0.4993    0.0000 C   0  0  0  0  0  0  0  0  0  0  0  0
    1.1495   -0.9118    0.0000 C   0  0  0  0  0  0  0  0  0  0  0  0
    0.4350   -0.4993    0.0000 C   0  0  0  0  0  0  0  0  0  0  0  0
   -0.2795   -0.9118    0.0000 C   0  0  0  0  0  0  0  0  0  0  0  0
   -0.9939   -0.4993    0.0000 C   0  0  0  0  0  0  0  0  0  0  0  0
   -0.9939    0.3257    0.0000 C   0  0  0  0  0  0  0  0  0  0  0  0
   -1.7084    0.7382    0.0000 N   0  0  0  0  0  0  0  0  0  0  0  0
  2  1  1  1
  2  3  1  0
  2 11  1  0
  3  4  1  0
  3  8  2  0
  4  5  2  0
  5  6  1  0
  6  7  2  0
  7  8  1  0
  8  9  1  0
  9 10  1  0
 10 11  1  0
 11 12  1  6
M  END
>  <DRUGBANK_ID>  (1) 
DB08654

>  <COMMON_NAME>  (1) 
TRANS-(1S,2S)-2-AMINO-1,2,3,4-TETRAHYDRONAPHTHALEN-1-OL

$$$$
