
     RDKit          2D

 21 22  0  0  0  0  0  0  0  0999 V2000
    1.7863   -2.2689    0.0000 Cl  0  0  0  0  0  0  0  0  0  0  0  0
   -0.3571    1.4438    0.0000 O   0  0  0  0  0  0  0  0  0  0  0  0
   -0.3571    0.6186    0.0000 O   0  0  0  0  0  0  0  0  0  0  0  0
   -1.0717   -0.6187    0.0000 O   0  0  0  0  0  0  0  0  0  0  0  0
    1.0717    3.0939    0.0000 N   0  0  0  0  0  0  0  0  0  0  0  0
    1.0717    0.6186    0.0000 N   0  0  0  0  0  0  0  0  0  0  0  0
    0.3572   -3.0939    0.0000 N   0  0  0  0  0  0  0  0  0  0  0  0
    1.0717    1.4438    0.0000 C   0  0  0  0  0  0  0  0  0  0  0  0
    0.3572    1.8563    0.0000 C   0  0  0  0  0  0  0  0  0  0  0  0
    1.7863    1.8563    0.0000 C   0  0  0  0  0  0  0  0  0  0  0  0
    0.3572    2.6814    0.0000 C   0  0  0  0  0  0  0  0  0  0  0  0
    1.7863    2.6814    0.0000 C   0  0  0  0  0  0  0  0  0  0  0  0
    0.3572    0.2061    0.0000 C   0  0  0  0  0  0  0  0  0  0  0  0
   -1.0717    1.8563    0.0000 C   0  0  0  0  0  0  0  0  0  0  0  0
    0.3572   -0.6187    0.0000 C   0  0  0  0  0  0  0  0  0  0  0  0
   -0.3571   -1.0313    0.0000 C   0  0  0  0  0  0  0  0  0  0  0  0
    1.0717   -1.0313    0.0000 C   0  0  0  0  0  0  0  0  0  0  0  0
   -0.3571   -1.8563    0.0000 C   0  0  0  0  0  0  0  0  0  0  0  0
    1.0717   -1.8563    0.0000 C   0  0  0  0  0  0  0  0  0  0  0  0
    0.3572   -2.2689    0.0000 C   0  0  0  0  0  0  0  0  0  0  0  0
   -1.7863   -1.0313    0.0000 C   0  0  0  0  0  0  0  0  0  0  0  0
  1 19  1  0
  2 14  1  0
  3 13  2  0
  4 16  1  0
  4 21  1  0
  5 11  1  0
  5 12  1  0
  6 13  1  0
  7 20  1  0
  8  6  1  1
  8  9  1  0
  8 10  1  0
  9  2  1  1
  9 11  1  0
 10 12  1  0
 13 15  1  0
 15 16  2  0
 15 17  1  0
 16 18  1  0
 17 19  2  0
 18 20  2  0
 19 20  1  0
M  END
>  <DRUGBANK_ID>  (1) 
DB06422

>  <COMMON_NAME>  (1) 
Ticalopride

>  <CAS_NUMBER>  (1) 
202590-69-0

>  <UNII>  (1) 
QNG273A81O

>  <SYNONYMS>  (1) 
Norcisapride; Ticalopride

$$$$
