
     RDKit          2D

 19 21  0  0  0  0  0  0  0  0999 V2000
   -0.7103   -0.6215    0.0000 C   0  0  0  0  0  0  0  0  0  0  0  0
   -0.7103    0.2020    0.0000 C   0  0  0  0  0  0  0  0  0  0  0  0
    0.0000   -1.0410    0.0000 C   0  0  0  0  0  0  0  0  0  0  0  0
   -1.4645   -1.0410    0.0000 C   0  0  0  0  0  0  0  0  0  0  0  0
    0.0000    0.6215    0.0000 O   0  0  0  0  0  0  0  0  0  0  0  0
   -1.4645    0.6215    0.0000 C   0  0  0  0  0  0  0  0  0  0  0  0
    0.7103   -0.6215    0.0000 C   0  0  0  0  0  0  0  0  0  0  0  0
    0.0000   -1.8776    0.0000 O   0  0  0  0  0  0  0  0  0  0  0  0
   -2.1749   -0.6215    0.0000 C   0  0  0  0  0  0  0  0  0  0  0  0
   -1.4645   -1.8776    0.0000 O   0  0  0  0  0  0  0  0  0  0  0  0
    0.7103    0.2020    0.0000 C   0  0  0  0  0  0  0  0  0  0  0  0
   -2.1749    0.2020    0.0000 C   0  0  0  0  0  0  0  0  0  0  0  0
    1.4645    0.6215    0.0000 C   0  0  0  0  0  0  0  0  0  0  0  0
   -2.8827    0.6215    0.0000 O   0  0  0  0  0  0  0  0  0  0  0  0
    2.1749    0.2020    0.0000 C   0  0  0  0  0  0  0  0  0  0  0  0
    1.4645    1.4581    0.0000 C   0  0  0  0  0  0  0  0  0  0  0  0
    2.8827    0.6215    0.0000 C   0  0  0  0  0  0  0  0  0  0  0  0
    2.1749    1.8776    0.0000 C   0  0  0  0  0  0  0  0  0  0  0  0
    2.8827    1.4581    0.0000 C   0  0  0  0  0  0  0  0  0  0  0  0
  1  2  2  0
  1  3  1  0
  1  4  1  0
  2  5  1  0
  2  6  1  0
  3  7  1  0
  3  8  2  0
  4  9  2  0
  4 10  1  0
  5 11  1  0
  6 12  2  0
  7 11  2  0
  9 12  1  0
 11 13  1  0
 12 14  1  0
 13 15  2  0
 13 16  1  0
 15 17  1  0
 16 18  2  0
 17 19  2  0
 18 19  1  0
M  END
>  <DRUGBANK_ID>  (1) 
DB15581

>  <COMMON_NAME>  (1) 
Chrysin

>  <CAS_NUMBER>  (1) 
480-40-0

>  <UNII>  (1) 
3CN01F5ZJ5

>  <SYNONYMS>  (1) 
5,7-dihydroxyflavone; Galangin flavanone

$$$$
