
     RDKit          2D

 25 26  0  0  0  0  0  0  0  0999 V2000
    0.8641    1.2895    0.0000 C   0  0  0  0  0  0  0  0  0  0  0  0
    1.5786    0.8770    0.0000 N   0  0  0  0  0  0  0  0  0  0  0  0
    2.2885    1.2847    0.0000 C   0  0  0  0  0  0  0  0  0  0  0  0
    2.2909    2.1110    0.0000 C   0  0  0  0  0  0  0  0  0  0  0  0
    1.5764    2.5234    0.0000 C   0  0  0  0  0  0  0  0  0  0  0  0
    0.8595    2.1097    0.0000 N   0  0  0  0  0  0  0  0  0  0  0  0
    1.5918   -0.2159    0.0000 C   0  0  0  0  0  0  0  0  0  0  0  0
    1.3746   -1.0149    0.0000 C   0  0  0  0  0  0  0  0  0  0  0  0
    2.1092   -1.3852    0.0000 C   0  0  0  0  0  0  0  0  0  0  0  0
    0.2562   -0.2855    0.0000 C   0  0  0  0  0  0  0  0  0  0  0  0
   -0.4785    0.0875    0.0000 C   0  0  0  0  0  0  0  0  0  0  0  0
   -1.1672   -0.3602    0.0000 O   0  0  0  0  0  0  0  0  0  0  0  0
    0.5506   -1.0583    0.0000 C   0  0  0  0  0  0  0  0  0  0  0  0
    0.1777   -1.7930    0.0000 O   0  0  0  0  0  0  0  0  0  0  0  0
   -0.6433   -1.8361    0.0000 C   0  0  0  0  0  0  0  0  0  0  0  0
   -1.0182   -2.5710    0.0000 C   0  0  0  0  0  0  0  0  0  0  0  0
    0.8978    0.2311    0.0000 O   0  0  0  0  0  0  0  0  0  0  0  0
   -1.8421   -2.6135    0.0000 C   0  0  0  0  0  0  0  0  0  0  0  0
   -0.5694   -3.2631    0.0000 N   0  0  0  0  0  0  0  0  0  0  0  0
    1.4148   -1.8390    0.0000 O   0  0  0  0  0  0  0  0  0  0  0  0
    0.1508    0.8750    0.0000 O   0  0  0  0  0  0  0  0  0  0  0  0
    1.5764    3.3484    0.0000 N   0  0  0  0  0  0  0  0  0  0  0  0
   -1.0923   -1.1441    0.0000 O   0  0  0  0  0  0  0  0  0  0  0  0
   -2.2170   -3.3484    0.0000 C   0  0  0  0  0  0  0  0  0  0  0  0
   -2.2909   -1.9214    0.0000 C   0  0  0  0  0  0  0  0  0  0  0  0
  1  2  1  0
  1  6  1  0
  1 21  2  0
  2  3  1  0
  3  4  2  0
  4  5  1  0
  5 22  1  0
  5  6  2  0
  7  2  1  1
  7 17  1  0
  8  7  1  0
  8  9  1  1
  8 20  1  0
 10 13  1  0
 10 11  1  1
 11 12  1  0
 13 14  1  6
 13  8  1  0
 14 15  1  0
 15 16  1  0
 15 23  2  0
 16 18  1  0
 16 19  1  1
 17 10  1  0
 18 24  1  0
 18 25  1  0
M  END
>  <DRUGBANK_ID>  (1) 
DB13920

>  <COMMON_NAME>  (1) 
Valopicitabine

>  <CAS_NUMBER>  (1) 
640281-90-9

>  <UNII>  (1) 
I2T0B5G94M

>  <SYNONYMS>  (1) 
2'-C-methylcytidine 3'-O-L-valinyl ester; Valopicitabina; Valopicitabine

$$$$
