
     RDKit          2D

 27 30  0  0  1  0  0  0  0  0999 V2000
    0.3824   -3.5719    0.0000 C   0  0  0  0  0  0  0  0  0  0  0  0
   -0.2850   -3.0870    0.0000 C   0  0  0  0  0  0  0  0  0  0  0  0
   -0.1988   -2.2665    0.0000 C   0  0  0  0  0  0  0  0  0  0  0  0
    0.5549   -1.9309    0.0000 C   0  0  0  0  0  0  0  0  0  0  0  0
    1.2223   -2.4158    0.0000 C   0  0  0  0  0  0  0  0  0  0  0  0
    1.1361   -3.2363    0.0000 C   0  0  0  0  0  0  0  0  0  0  0  0
    1.8035   -3.7212    0.0000 N   0  0  0  0  0  0  0  0  0  0  0  0
    1.7173   -4.5417    0.0000 C   0  0  0  0  0  0  0  0  0  0  0  0
    0.9636   -4.8773    0.0000 O   0  0  0  0  0  0  0  0  0  0  0  0
    2.3847   -5.0267    0.0000 C   0  0  0  0  0  0  0  0  0  0  0  0
    3.1384   -4.6911    0.0000 C   0  0  0  0  0  0  0  0  0  0  0  0
    3.8058   -5.1760    0.0000 C   0  0  0  0  0  0  0  0  0  0  0  0
    3.7196   -5.9965    0.0000 C   0  0  0  0  0  0  0  0  0  0  0  0
    2.9659   -6.3321    0.0000 C   0  0  0  0  0  0  0  0  0  0  0  0
    2.2985   -5.8471    0.0000 N   0  0  0  0  0  0  0  0  0  0  0  0
    4.3870   -6.4814    0.0000 F   0  0  0  0  0  0  0  0  0  0  0  0
    0.6411   -1.1104    0.0000 C   0  0  0  0  0  0  0  0  0  0  0  0
   -0.1435   -1.3654    0.0000 C   0  0  0  0  0  0  0  0  0  0  0  0
   -0.6284   -0.6979    0.0000 O   0  0  0  0  0  0  0  0  0  0  0  0
   -0.1435   -0.0305    0.0000 C   0  0  0  0  0  0  0  0  0  0  0  0
    0.6411   -0.2854    0.0000 C   0  0  0  0  0  0  0  0  0  0  0  0
    1.3556    0.1271    0.0000 C   0  0  0  0  0  0  0  0  0  0  0  0
    2.0701   -0.2854    0.0000 S   0  0  0  0  0  0  0  0  0  0  0  0
    2.0701   -1.1104    0.0000 C   0  0  0  0  0  0  0  0  0  0  0  0
    1.3556   -1.5229    0.0000 N   0  0  0  0  0  0  0  0  0  0  0  0
    2.7845   -1.5229    0.0000 N   0  0  0  0  0  0  0  0  0  0  0  0
   -0.8662   -1.7816    0.0000 F   0  0  0  0  0  0  0  0  0  0  0  0
  1  2  2  0
  1  6  1  0
  2  3  1  0
  3  4  2  0
  3 27  1  0
  4  5  1  0
  5  6  2  0
  6  7  1  0
  7  8  1  0
  8  9  2  0
  8 10  1  0
 10 11  2  0
 10 15  1  0
 11 12  1  0
 12 13  2  0
 13 14  1  0
 13 16  1  0
 14 15  2  0
 17  4  1  6
 17 18  1  0
 17 21  1  0
 17 25  1  0
 18 19  1  0
 19 20  1  0
 21 20  1  1
 21 22  1  0
 22 23  1  0
 23 24  1  0
 24 25  2  0
 24 26  1  0
M  END
>  <DRUGBANK_ID>  (1) 
DB12547

>  <COMMON_NAME>  (1) 
LY-2886721

>  <CAS_NUMBER>  (1) 
1262036-50-9

>  <UNII>  (1) 
2CQ62IWB67

$$$$
