
     RDKit          2D

 24 23  0  0  0  0  0  0  0  0999 V2000
    2.4874    1.4437    0.0000 C   0  0  0  0  0  0  0  0  0  0  0  0
    1.7862    1.0312    0.0000 C   0  0  0  0  0  0  0  0  0  0  0  0
    1.0848    1.4437    0.0000 C   0  0  0  0  0  0  0  0  0  0  0  0
    0.3704    1.0312    0.0000 C   0  0  0  0  0  0  0  0  0  0  0  0
    0.3704    0.2062    0.0000 C   0  0  0  0  0  0  0  0  0  0  0  0
    1.0848   -0.2062    0.0000 C   0  0  0  0  0  0  0  0  0  0  0  0
    1.0848   -1.0312    0.0000 C   0  0  0  0  0  0  0  0  0  0  0  0
    0.3704   -1.4437    0.0000 C   0  0  0  0  0  0  0  0  0  0  0  0
    0.3704   -2.2688    0.0000 C   0  0  0  0  0  0  0  0  0  0  0  0
   -0.3440   -2.6813    0.0000 C   0  0  0  0  0  0  0  0  0  0  0  0
   -1.0585   -2.2688    0.0000 C   0  0  0  0  0  0  0  0  0  0  0  0
   -1.7730   -2.6813    0.0000 C   0  0  0  0  0  0  0  0  0  0  0  0
   -2.4875   -2.2688    0.0000 C   0  0  0  0  0  0  0  0  0  0  0  0
   -2.4875   -1.4437    0.0000 C   0  0  0  0  0  0  0  0  0  0  0  0
   -3.2020   -1.0312    0.0000 C   0  0  0  0  0  0  0  0  0  0  0  0
   -3.2020   -0.2062    0.0000 C   0  0  0  0  0  0  0  0  0  0  0  0
   -2.4874    0.2062    0.0000 C   0  0  0  0  0  0  0  0  0  0  0  0
   -2.4874    1.0312    0.0000 C   0  0  0  0  0  0  0  0  0  0  0  0
    3.2052    1.0370    0.0000 C   0  0  0  0  0  0  0  0  0  0  0  0
    3.9163    1.4553    0.0000 O   0  0  0  0  0  0  0  0  0  0  0  0
    3.2119    0.2119    0.0000 O   0  0  0  0  0  0  0  0  0  0  0  0
   -3.2019    1.4437    0.0000 C   0  0  0  0  0  0  0  0  0  0  0  0
   -3.2019    2.2688    0.0000 C   0  0  0  0  0  0  0  0  0  0  0  0
   -3.9163    2.6813    0.0000 C   0  0  0  0  0  0  0  0  0  0  0  0
  1  2  1  0
  1 19  1  0
  2  3  1  0
  3  4  2  0
  4  5  1  0
  5  6  1  0
  6  7  2  0
  7  8  1  0
  8  9  1  0
  9 10  2  0
 10 11  1  0
 11 12  1  0
 12 13  2  0
 13 14  1  0
 14 15  1  0
 15 16  2  0
 16 17  1  0
 17 18  1  0
 18 22  1  0
 20 19  1  0
 21 19  2  0
 22 23  1  0
 23 24  1  0
M  END
>  <DRUGBANK_ID>  (1) 
DB14088

>  <COMMON_NAME>  (1) 
Osbond acid

>  <CAS_NUMBER>  (1) 
25182-74-5

>  <UNII>  (1) 
7S686LQT6T

>  <SYNONYMS>  (1) 
(All-Z)-4,7,10,13,16-docosapentaenoic acid; 4Z,7Z,10Z,13Z,16Z-docosapentaenoic acid; all-cis-docosa-4,7,10,13,16-pentaenoic acid; Docosapentaenoic acid (22n-6)

$$$$
