
     RDKit          2D

 23 23  0  0  0  0  0  0  0  0999 V2000
   -0.3995    0.0962    0.0000 N   0  0  0  0  0  0  0  0  0  0  0  0
    0.3541    0.4318    0.0000 C   0  0  0  0  0  0  0  0  0  0  0  0
   -1.1140    0.5087    0.0000 C   0  0  0  0  0  0  0  0  0  0  0  0
   -0.3132   -0.7242    0.0000 C   0  0  0  0  0  0  0  0  0  0  0  0
    0.9062   -0.1812    0.0000 C   0  0  0  0  0  0  0  0  0  0  0  0
    0.5256    1.2388    0.0000 C   0  0  0  0  0  0  0  0  0  0  0  0
   -1.8285    0.0962    0.0000 C   0  0  0  0  0  0  0  0  0  0  0  0
    0.4936   -0.8959    0.0000 S   0  0  0  0  0  0  0  0  0  0  0  0
    1.7267   -0.0950    0.0000 C   0  0  0  0  0  0  0  0  0  0  0  0
   -1.8285   -0.7287    0.0000 C   0  0  0  0  0  0  0  0  0  0  0  0
   -2.5431    0.5087    0.0000 C   0  0  0  0  0  0  0  0  0  0  0  0
    2.0623    0.6586    0.0000 C   0  0  0  0  0  0  0  0  0  0  0  0
   -2.5431   -1.1414    0.0000 N   0  0  0  0  0  0  0  0  0  0  0  0
   -1.1140   -1.1414    0.0000 N   0  0  0  0  0  0  0  0  0  0  0  0
   -3.2575    0.0962    0.0000 N   0  0  0  0  0  0  0  0  0  0  0  0
    2.8829    0.7448    0.0000 O   0  0  0  0  0  0  0  0  0  0  0  0
   -3.2575   -0.7287    0.0000 C   0  0  0  0  0  0  0  0  0  0  0  0
    3.2184    1.4986    0.0000 P   0  0  0  0  0  0  0  0  0  0  0  0
   -3.9721   -1.1414    0.0000 C   0  0  0  0  0  0  0  0  0  0  0  0
    3.5540    2.2522    0.0000 O   0  0  0  0  0  0  0  0  0  0  0  0
    3.9721    1.1630    0.0000 O   0  0  0  0  0  0  0  0  0  0  0  0
    2.4648    1.8342    0.0000 O   0  0  0  0  0  0  0  0  0  0  0  0
    0.7112   -2.2522    0.0000 Cl  0  0  0  0  0  0  0  0  0  0  0  0
  1  2  1  0
  1  3  1  0
  1  4  2  0
  2  5  2  0
  2  6  1  0
  3  7  1  0
  4  8  1  0
  5  9  1  0
  5  8  1  0
  7 10  2  0
  7 11  1  0
  9 12  1  0
 10 13  1  0
 10 14  1  0
 11 15  2  0
 12 16  1  0
 13 17  2  0
 15 17  1  0
 16 18  1  0
 17 19  1  0
 18 20  1  0
 18 21  1  0
 18 22  2  0
M  CHG  2   1   1  23  -1
M  END
>  <DRUGBANK_ID>  (1) 
DB16023

>  <COMMON_NAME>  (1) 
Monophosphothiamine

>  <CAS_NUMBER>  (1) 
532-40-1

>  <UNII>  (1) 
P712T71Q3T

>  <SYNONYMS>  (1) 
Monofosfotiamina; Monophosphothiamine; Thiamine monophosphate; Vitamin B1 monophosphate; Vitamin B1 phosphate

$$$$
