
     RDKit          2D

 21 23  0  0  1  0  0  0  0  0999 V2000
    5.0171   -1.8127    0.0000 S   0  0  0  0  0  0  0  0  0  0  0  0
    6.0585    0.5529    0.0000 O   0  0  0  0  0  0  0  0  0  0  0  0
    3.9646    0.9691    0.0000 O   0  0  0  0  0  0  0  0  0  0  0  0
    5.0221    2.4193    0.0000 O   0  0  0  0  0  0  0  0  0  0  0  0
    7.4813    1.5248    0.0000 O   0  0  0  0  0  0  0  0  0  0  0  0
    6.3236   -1.1488    0.0000 O   0  0  0  0  0  0  0  0  0  0  0  0
    3.5220   -2.7989    0.0000 O   0  0  0  0  0  0  0  0  0  0  0  0
    5.0171   -0.4849    0.0000 N   0  0  0  0  0  0  0  0  0  0  0  0
    3.5220   -0.3238    0.0000 N   0  0  0  0  0  0  0  0  0  0  0  0
    2.8075   -1.5613    0.0000 N   0  0  0  0  0  0  0  0  0  0  0  0
    2.0930   -0.3238    0.0000 N   0  0  0  0  0  0  0  0  0  0  0  0
    5.2734    0.2993    0.0000 C   0  0  0  0  0  0  0  0  0  0  0  0
    4.7896    0.9676    0.0000 C   0  0  0  0  0  0  0  0  0  0  0  0
    5.2757    1.6342    0.0000 C   0  0  0  0  0  0  0  0  0  0  0  0
    6.0599    1.3779    0.0000 C   0  0  0  0  0  0  0  0  0  0  0  0
    6.7282    1.8617    0.0000 C   0  0  0  0  0  0  0  0  0  0  0  0
    4.2365   -0.7363    0.0000 C   0  0  0  0  0  0  0  0  0  0  0  0
    5.4986   -1.1488    0.0000 C   0  0  0  0  0  0  0  0  0  0  0  0
    4.2365   -1.5613    0.0000 C   0  0  0  0  0  0  0  0  0  0  0  0
    3.5220   -1.9739    0.0000 C   0  0  0  0  0  0  0  0  0  0  0  0
    2.8075   -0.7363    0.0000 C   0  0  0  0  0  0  0  0  0  0  0  0
  1 18  1  0
  1 19  1  0
  2 12  1  0
  2 15  1  0
  5 16  1  0
  6 18  2  0
  7 20  2  0
  8 17  1  0
  8 18  1  0
  9 17  1  0
  9 21  1  0
 10 20  1  0
 10 21  2  0
 11 21  1  0
 12  8  1  1
 12 13  1  0
 13  3  1  6
 13 14  1  0
 14  4  1  6
 14 15  1  0
 15 16  1  1
 17 19  2  0
 19 20  1  0
M  END
>  <DRUGBANK_ID>  (1) 
DB04860

>  <COMMON_NAME>  (1) 
Isatoribine

>  <CAS_NUMBER>  (1) 
122970-40-5

>  <UNII>  (1) 
2DNT962H92

>  <SYNONYMS>  (1) 
7-Deaza-7-thia-8-oxoguanosine; 7-Thia-8-oxoguanosine; 7-TOG; Isatoribine

$$$$
