
     RDKit          2D

 15 17  0  0  0  0  0  0  0  0999 V2000
    0.7145   -1.2375    0.0000 C   0  0  0  0  0  0  0  0  0  0  0  0
    0.7145   -0.4125    0.0000 C   0  0  0  0  0  0  0  0  0  0  0  0
    1.4289    0.0000    0.0000 C   0  0  0  0  0  0  0  0  0  0  0  0
    1.4289    0.8250    0.0000 C   0  0  0  0  0  0  0  0  0  0  0  0
    0.7615    1.3099    0.0000 N   0  0  0  0  0  0  0  0  0  0  0  0
    1.0164    2.0945    0.0000 C   0  0  0  0  0  0  0  0  0  0  0  0
    1.8414    2.0945    0.0000 C   0  0  0  0  0  0  0  0  0  0  0  0
    2.0964    1.3099    0.0000 N   0  0  0  0  0  0  0  0  0  0  0  0
    2.1434   -0.4125    0.0000 C   0  0  0  0  0  0  0  0  0  0  0  0
    2.8579    0.0000    0.0000 C   0  0  0  0  0  0  0  0  0  0  0  0
    3.5724   -0.4125    0.0000 C   0  0  0  0  0  0  0  0  0  0  0  0
    3.5724   -1.2375    0.0000 C   0  0  0  0  0  0  0  0  0  0  0  0
    2.8579   -1.6500    0.0000 C   0  0  0  0  0  0  0  0  0  0  0  0
    2.1434   -1.2375    0.0000 C   0  0  0  0  0  0  0  0  0  0  0  0
    1.4289   -1.6500    0.0000 C   0  0  0  0  0  0  0  0  0  0  0  0
  1  2  1  0
  1 15  1  0
  2  3  1  0
  3  4  1  0
  3  9  1  0
  4  5  2  0
  4  8  1  0
  5  6  1  0
  6  7  1  0
  7  8  1  0
  9 10  1  0
  9 14  2  0
 10 11  2  0
 11 12  1  0
 12 13  2  0
 13 14  1  0
 14 15  1  0
M  END
>  <DRUGBANK_ID>  (1) 
DB06764

>  <COMMON_NAME>  (1) 
Tetryzoline

>  <CAS_NUMBER>  (1) 
84-22-0

>  <UNII>  (1) 
S9U025Y077

>  <SYNONYMS>  (1) 
(RS)-2-(1,2,3,4-tetrahydronaphthalen-1-yl)-4,5-dihydro-1H-imidazole; 2-(1,2,3,4-Tetrahydro-1-naphthyl)-2-imidazoline; 2-Tetralin-1-yl-4,5-dihydro-1H-imidazole; 4,5-dihydro-2-(1,2,3,4-tetrahydro-1-naphthalenyl)-1H-imidazole; Tetrahydrozoline; Tetrizolina; Tetryzolin; Tetryzolina; TÃ©tryzoline; Tetryzoline; Tetryzolinum

$$$$
