
     RDKit          2D

 39 43  0  0  0  0  0  0  0  0999 V2000
   -1.5356    7.2402    0.0000 C   0  0  0  0  0  0  0  0  0  0  0  0
   -0.8212    6.8277    0.0000 C   0  0  0  0  0  0  0  0  0  0  0  0
   -0.1067    7.2402    0.0000 C   0  0  0  0  0  0  0  0  0  0  0  0
    0.6078    6.8277    0.0000 C   0  0  0  0  0  0  0  0  0  0  0  0
    0.6078    6.0027    0.0000 C   0  0  0  0  0  0  0  0  0  0  0  0
   -0.1067    5.5902    0.0000 C   0  0  0  0  0  0  0  0  0  0  0  0
   -0.8212    6.0027    0.0000 C   0  0  0  0  0  0  0  0  0  0  0  0
   -1.5356    5.5902    0.0000 N   0  0  0  0  0  0  0  0  0  0  0  0
   -2.2501    6.0027    0.0000 C   0  0  0  0  0  0  0  0  0  0  0  0
   -2.9646    5.5902    0.0000 N   0  0  0  0  0  0  0  0  0  0  0  0
   -3.6791    6.0027    0.0000 C   0  0  0  0  0  0  0  0  0  0  0  0
   -3.6791    6.8277    0.0000 C   0  0  0  0  0  0  0  0  0  0  0  0
   -2.9646    7.2402    0.0000 C   0  0  0  0  0  0  0  0  0  0  0  0
   -2.2501    6.8277    0.0000 N   0  0  0  0  0  0  0  0  0  0  0  0
   -2.9646    8.0652    0.0000 C   0  0  0  0  0  0  0  0  0  0  0  0
   -3.6791    8.4777    0.0000 C   0  0  0  0  0  0  0  0  0  0  0  0
   -3.6791    9.3027    0.0000 N   0  0  0  0  0  0  0  0  0  0  0  0
   -2.9646    9.7152    0.0000 C   0  0  0  0  0  0  0  0  0  0  0  0
   -2.2501    9.3027    0.0000 C   0  0  0  0  0  0  0  0  0  0  0  0
   -2.2501    8.4777    0.0000 N   0  0  0  0  0  0  0  0  0  0  0  0
    1.3222    5.5902    0.0000 C   0  0  0  0  0  0  0  0  0  0  0  0
    2.0367    6.0027    0.0000 O   0  0  0  0  0  0  0  0  0  0  0  0
    1.3222    4.7652    0.0000 N   0  0  0  0  0  0  0  0  0  0  0  0
    2.0367    4.3527    0.0000 C   0  0  0  0  0  0  0  0  0  0  0  0
    2.7512    4.7652    0.0000 C   0  0  0  0  0  0  0  0  0  0  0  0
    3.4656    4.3527    0.0000 C   0  0  0  0  0  0  0  0  0  0  0  0
    3.4656    3.5277    0.0000 C   0  0  0  0  0  0  0  0  0  0  0  0
    2.7512    3.1152    0.0000 C   0  0  0  0  0  0  0  0  0  0  0  0
    2.0367    3.5277    0.0000 C   0  0  0  0  0  0  0  0  0  0  0  0
    2.7512    2.2902    0.0000 N   0  0  0  0  0  0  0  0  0  0  0  0
    3.4186    1.8053    0.0000 C   0  0  0  0  0  0  0  0  0  0  0  0
    3.1637    1.0206    0.0000 C   0  0  0  0  0  0  0  0  0  0  0  0
    2.3387    1.0206    0.0000 N   0  0  0  0  0  0  0  0  0  0  0  0
    2.0837    1.8053    0.0000 C   0  0  0  0  0  0  0  0  0  0  0  0
    3.6486    0.3532    0.0000 C   0  0  0  0  0  0  0  0  0  0  0  0
    4.1801    4.7652    0.0000 C   0  0  0  0  0  0  0  0  0  0  0  0
    4.8946    5.1777    0.0000 F   0  0  0  0  0  0  0  0  0  0  0  0
    4.5926    4.0507    0.0000 F   0  0  0  0  0  0  0  0  0  0  0  0
    3.7676    5.4797    0.0000 F   0  0  0  0  0  0  0  0  0  0  0  0
  1  2  1  0
  2  3  2  0
  2  7  1  0
  3  4  1  0
  4  5  2  0
  5  6  1  0
  5 21  1  0
  6  7  2  0
  7  8  1  0
  8  9  1  0
  9 10  2  0
  9 14  1  0
 10 11  1  0
 11 12  2  0
 12 13  1  0
 13 14  2  0
 13 15  1  0
 15 16  2  0
 15 20  1  0
 16 17  1  0
 17 18  2  0
 18 19  1  0
 19 20  2  0
 21 22  2  0
 21 23  1  0
 23 24  1  0
 24 25  2  0
 24 29  1  0
 25 26  1  0
 26 27  2  0
 26 36  1  0
 27 28  1  0
 28 29  2  0
 28 30  1  0
 30 31  1  0
 30 34  1  0
 31 32  2  0
 32 33  1  0
 32 35  1  0
 33 34  2  0
 36 37  1  0
 36 38  1  0
 36 39  1  0
M  END
>  <DRUGBANK_ID>  (1) 
DB12323

>  <COMMON_NAME>  (1) 
Radotinib

>  <CAS_NUMBER>  (1) 
926037-48-1

>  <UNII>  (1) 
I284LJY110

>  <SYNONYMS>  (1) 
Radotinib

$$$$
