P28
     RDKit          2D

 29 30  0  0  0  0  0  0  0  0999 V2000
    2.8634   -2.3852    0.0000 C   0  0  0  0  0  0  0  0  0  0  0  0
    2.1489   -2.7977    0.0000 C   0  0  0  0  0  0  0  0  0  0  0  0
    1.4344   -2.3852    0.0000 C   0  0  0  0  0  0  0  0  0  0  0  0
    1.4344   -1.5602    0.0000 C   0  0  0  0  0  0  0  0  0  0  0  0
    2.1489   -1.1477    0.0000 C   0  0  0  0  0  0  0  0  0  0  0  0
    2.8634   -1.5602    0.0000 C   0  0  0  0  0  0  0  0  0  0  0  0
    3.5778   -2.7977    0.0000 C   0  0  0  0  0  0  0  0  0  0  0  0
    4.2923   -2.3852    0.0000 C   0  0  0  0  0  0  0  0  0  0  0  0
    4.2923   -1.5602    0.0000 C   0  0  0  0  0  0  0  0  0  0  0  0
    3.5778   -1.1477    0.0000 O   0  0  0  0  0  0  0  0  0  0  0  0
    5.0068   -1.1477    0.0000 O   0  0  0  0  0  0  0  0  0  0  0  0
    5.0068   -2.7977    0.0000 N   0  0  0  0  0  0  0  0  0  0  0  0
    5.7213   -2.3852    0.0000 C   0  0  0  0  0  0  0  0  0  0  0  0
    6.4357   -2.7977    0.0000 C   0  0  0  0  0  0  0  0  0  0  0  0
    5.7213   -1.5602    0.0000 O   0  0  0  0  0  0  0  0  0  0  0  0
    0.7200   -1.1477    0.0000 O   0  0  0  0  0  0  0  0  0  0  0  0
    0.7200   -0.3227    0.0000 C   0  0  0  0  0  0  0  0  0  0  0  0
    0.0055    0.0898    0.0000 C   0  0  0  0  0  0  0  0  0  0  0  0
    0.0055    0.9148    0.0000 C   0  0  0  0  0  0  0  0  0  0  0  0
   -0.7090    1.3273    0.0000 N   0  0  0  0  0  0  0  0  0  0  0  0
   -1.4235    0.9148    0.0000 O   0  0  0  0  0  0  0  0  0  0  0  0
   -0.7090    2.1523    0.0000 O   0  0  0  0  0  0  0  0  0  0  0  0
    0.7200    1.3273    0.0000 C   0  0  0  0  0  0  0  0  0  0  0  0
    0.7200    2.1523    0.0000 O   0  0  0  0  0  0  0  0  0  0  0  0
    1.4344    0.9148    0.0000 C   0  0  0  0  0  0  0  0  0  0  0  0
    2.1489    1.3273    0.0000 N   0  0  0  0  0  0  0  0  0  0  0  0
    2.8634    0.9148    0.0000 O   0  0  0  0  0  0  0  0  0  0  0  0
    2.1489    2.1523    0.0000 O   0  0  0  0  0  0  0  0  0  0  0  0
    1.4344    0.0898    0.0000 C   0  0  0  0  0  0  0  0  0  0  0  0
  1  2  2  0
  1  6  1  0
  1  7  1  0
  2  3  1  0
  3  4  2  0
  4  5  1  0
  4 16  1  0
  5  6  2  0
  8  7  1  1
  8  9  1  0
  8 12  1  0
  9 10  2  0
  9 11  1  0
 12 13  1  0
 13 14  1  0
 13 15  2  0
 16 17  1  0
 17 18  2  0
 17 29  1  0
 18 19  1  0
 19 20  1  0
 19 23  2  0
 20 21  2  0
 20 22  1  0
 23 24  1  0
 23 25  1  0
 25 26  1  0
 25 29  2  0
 26 27  2  0
 26 28  1  0
M  CHG  4  20   1  22  -1  26   1  28  -1
M  END
>  <DRUGBANK_ID>  (1) 
DB03239

>  <SECONDARY_ACCESSION_NUMBERS>  (1) 
EXPT02474

>  <COMMON_NAME>  (1) 
3',5'-Dinitro-N-Acetyl-L-Thyronine

$$$$
