
     RDKit          2D

 28 31  0  0  0  0  0  0  0  0999 V2000
   -0.0955    0.7149    0.0000 N   0  0  0  0  0  0  0  0  0  0  0  0
    0.7328    0.7149    0.0000 C   0  0  0  0  0  0  0  0  0  0  0  0
    1.1448    0.0000    0.0000 O   0  0  0  0  0  0  0  0  0  0  0  0
    1.1448    1.4298    0.0000 N   0  0  0  0  0  0  0  0  0  0  0  0
    1.9687    1.4298    0.0000 C   0  0  0  0  0  0  0  0  0  0  0  0
    2.3802    2.1448    0.0000 C   0  0  0  0  0  0  0  0  0  0  0  0
    3.2041    2.1448    0.0000 C   0  0  0  0  0  0  0  0  0  0  0  0
    3.6160    1.4298    0.0000 C   0  0  0  0  0  0  0  0  0  0  0  0
    3.2041    0.7149    0.0000 C   0  0  0  0  0  0  0  0  0  0  0  0
    2.3802    0.7149    0.0000 C   0  0  0  0  0  0  0  0  0  0  0  0
    4.4398    1.4298    0.0000 C   0  0  0  0  0  0  0  0  0  0  0  0
    5.2683    1.4298    0.0000 N   0  0  0  0  0  0  0  0  0  0  0  0
   -0.5074    0.0000    0.0000 C   0  0  0  0  0  0  0  0  0  0  0  0
   -1.3312    0.0000    0.0000 C   0  0  0  0  0  0  0  0  0  0  0  0
   -1.7432   -0.7150    0.0000 C   0  0  0  0  0  0  0  0  0  0  0  0
   -1.3312   -1.4299    0.0000 N   0  0  0  0  0  0  0  0  0  0  0  0
   -0.5074   -1.4299    0.0000 C   0  0  0  0  0  0  0  0  0  0  0  0
   -0.0955   -0.7150    0.0000 C   0  0  0  0  0  0  0  0  0  0  0  0
   -1.7432   -2.1448    0.0000 C   0  0  0  0  0  0  0  0  0  0  0  0
   -2.5670   -0.7150    0.0000 C   0  0  0  0  0  0  0  0  0  0  0  0
   -3.0546   -0.0476    0.0000 N   0  0  0  0  0  0  0  0  0  0  0  0
   -3.8384   -0.3029    0.0000 C   0  0  0  0  0  0  0  0  0  0  0  0
   -3.8384   -1.1268    0.0000 C   0  0  0  0  0  0  0  0  0  0  0  0
   -3.0546   -1.3821    0.0000 N   0  0  0  0  0  0  0  0  0  0  0  0
   -4.5532   -1.5388    0.0000 C   0  0  0  0  0  0  0  0  0  0  0  0
   -5.2683   -1.1268    0.0000 C   0  0  0  0  0  0  0  0  0  0  0  0
   -5.2683   -0.3029    0.0000 C   0  0  0  0  0  0  0  0  0  0  0  0
   -4.5532    0.1087    0.0000 C   0  0  0  0  0  0  0  0  0  0  0  0
  1  2  1  0
  2  3  2  0
  2  4  1  0
  4  5  1  0
  5  6  2  0
  5 10  1  0
  6  7  1  0
  7  8  2  0
  8  9  1  0
  8 11  1  0
  9 10  2  0
 11 12  3  0
 13  1  1  6
 13 18  1  0
 14 13  1  0
 15 14  1  0
 15 20  1  1
 16 15  1  0
 16 17  1  0
 16 19  1  0
 18 17  1  0
 20 21  1  0
 20 24  2  0
 21 22  1  0
 22 23  2  0
 22 28  1  0
 23 24  1  0
 23 25  1  0
 25 26  2  0
 26 27  1  0
 27 28  2  0
M  END
>  <DRUGBANK_ID>  (1) 
DB11978

>  <COMMON_NAME>  (1) 
Glasdegib

>  <CAS_NUMBER>  (1) 
1095173-27-5

>  <UNII>  (1) 
K673DMO5H9

>  <SYNONYMS>  (1) 
Glasdegib

$$$$
