922
     RDKit          2D

 21 22  0  0  1  0  0  0  0  0999 V2000
    9.5092   -2.0130    0.0000 O   0  0  0  0  0  0  0  0  0  0  0  0
    7.3658   -1.6005    0.0000 N   0  0  0  0  0  0  0  0  0  0  0  0
    8.0802   -2.0130    0.0000 N   0  0  0  0  0  0  0  0  0  0  0  0
    4.5079    0.8745    0.0000 N   0  0  0  0  0  0  0  0  0  0  0  0
    3.7934    0.4620    0.0000 N   0  0  0  0  0  0  0  0  0  0  0  0
    3.0790    2.5245    0.0000 N   0  0  0  0  0  0  0  0  0  0  0  0
    1.6500    0.0495    0.0000 N   0  0  0  0  0  0  0  0  0  0  0  0
    8.0802   -0.3630    0.0000 C   0  0  0  0  0  0  0  0  0  0  0  0
    8.7947   -0.7755    0.0000 C   0  0  0  0  0  0  0  0  0  0  0  0
    7.3658   -0.7755    0.0000 C   0  0  0  0  0  0  0  0  0  0  0  0
    8.0802    0.4620    0.0000 C   0  0  0  0  0  0  0  0  0  0  0  0
    6.6513   -0.3630    0.0000 C   0  0  0  0  0  0  0  0  0  0  0  0
    8.7947   -1.6005    0.0000 C   0  0  0  0  0  0  0  0  0  0  0  0
    5.9369   -0.7755    0.0000 C   0  0  0  0  0  0  0  0  0  0  0  0
    6.6513    0.4620    0.0000 C   0  0  0  0  0  0  0  0  0  0  0  0
    5.2223   -0.3630    0.0000 C   0  0  0  0  0  0  0  0  0  0  0  0
    5.9369    0.8745    0.0000 C   0  0  0  0  0  0  0  0  0  0  0  0
    5.2223    0.4620    0.0000 C   0  0  0  0  0  0  0  0  0  0  0  0
    3.0790    0.8745    0.0000 C   0  0  0  0  0  0  0  0  0  0  0  0
    3.0790    1.6995    0.0000 C   0  0  0  0  0  0  0  0  0  0  0  0
    2.3644    0.4620    0.0000 C   0  0  0  0  0  0  0  0  0  0  0  0
  1 13  2  0
  2  3  1  0
  2 10  2  0
  3 13  1  0
  4  5  1  0
  4 18  1  0
  5 19  2  3
  6 20  3  0
  7 21  3  0
  8  9  1  0
  8 10  1  0
  8 11  1  6
  9 13  1  0
 10 12  1  0
 12 14  2  0
 12 15  1  0
 14 16  1  0
 15 17  2  0
 16 18  2  0
 17 18  1  0
 19 20  1  0
 19 21  1  0
M  END
>  <DRUGBANK_ID>  (1) 
DB00922

>  <SECONDARY_ACCESSION_NUMBERS>  (1) 
APRD01296

>  <COMMON_NAME>  (1) 
Levosimendan

>  <CAS_NUMBER>  (1) 
141505-33-1

>  <UNII>  (1) 
C6T4514L4E

>  <SYNONYMS>  (1) 
Lévosimendan; Levosimendan; Levosimendán; Levosimendanum

$$$$
