
     RDKit          2D

 11 11  0  0  0  0  0  0  0  0999 V2000
    1.0716   -0.2204    0.0000 P   0  0  0  0  0  0  0  0  0  0  0  0
    1.0716    0.6046    0.0000 O   0  0  0  0  0  0  0  0  0  0  0  0
    1.7862   -0.6329    0.0000 O   0  0  0  0  0  0  0  0  0  0  0  0
    0.3572   -0.6329    0.0000 O   0  0  0  0  0  0  0  0  0  0  0  0
    0.8582   -1.0172    0.0000 O   0  0  0  0  0  0  0  0  0  0  0  0
   -0.3571   -0.2204    0.0000 C   0  0  0  0  0  0  0  0  0  0  0  0
   -1.0716    1.0172    0.0000 C   0  0  0  0  0  0  0  0  0  0  0  0
   -1.7861    0.6046    0.0000 C   0  0  0  0  0  0  0  0  0  0  0  0
   -1.7861   -0.2204    0.0000 C   0  0  0  0  0  0  0  0  0  0  0  0
   -1.0716   -0.6329    0.0000 C   0  0  0  0  0  0  0  0  0  0  0  0
   -0.3571    0.6046    0.0000 C   0  0  0  0  0  0  0  0  0  0  0  0
  1  2  2  0
  1  3  1  0
  1  4  1  0
  1  5  1  0
  4  6  1  0
  6 11  2  0
  7  8  2  0
  7 11  1  0
  8  9  1  0
  9 10  2  0
 10  6  1  0
M  END
>  <DRUGBANK_ID>  (1) 
DB03298

>  <SECONDARY_ACCESSION_NUMBERS>  (1) 
EXPT01775

>  <COMMON_NAME>  (1) 
Phenylphosphate

>  <CAS_NUMBER>  (1) 
701-64-4

>  <UNII>  (1) 
75M88J863E

>  <SYNONYMS>  (1) 
Monophenylphosphate; Phenolic phosphate; Phenyl phosphate; Phenylphosphoric acid; Phosphoric acid, monophenyl ester

$$$$
