
     RDKit          2D

 19 21  0  0  0  0  0  0  0  0999 V2000
    1.9452   -0.1649    0.0000 O   0  0  0  0  0  0  0  0  0  0  0  0
    1.9483    1.6298    0.0000 O   0  0  0  0  0  0  0  0  0  0  0  0
    0.7954    2.7995    0.0000 O   0  0  0  0  0  0  0  0  0  0  0  0
    0.0098    0.7358    0.0000 N   0  0  0  0  0  0  0  0  0  0  0  0
    0.2373   -2.0444    0.0000 N   0  0  0  0  0  0  0  0  0  0  0  0
   -1.2578   -0.5555    0.0000 N   0  0  0  0  0  0  0  0  0  0  0  0
   -1.9722   -1.7930    0.0000 N   0  0  0  0  0  0  0  0  0  0  0  0
   -1.2578   -3.0305    0.0000 N   0  0  0  0  0  0  0  0  0  0  0  0
    0.4935    0.0674    0.0000 C   0  0  0  0  0  0  0  0  0  0  0  0
    1.2786    0.3210    0.0000 C   0  0  0  0  0  0  0  0  0  0  0  0
    0.4958    1.4024    0.0000 C   0  0  0  0  0  0  0  0  0  0  0  0
    1.2800    1.1460    0.0000 C   0  0  0  0  0  0  0  0  0  0  0  0
    0.2373   -0.7166    0.0000 C   0  0  0  0  0  0  0  0  0  0  0  0
    0.2423    2.1873    0.0000 C   0  0  0  0  0  0  0  0  0  0  0  0
   -0.5433   -0.9680    0.0000 C   0  0  0  0  0  0  0  0  0  0  0  0
    0.7187   -1.3805    0.0000 C   0  0  0  0  0  0  0  0  0  0  0  0
   -0.5433   -1.7930    0.0000 C   0  0  0  0  0  0  0  0  0  0  0  0
   -1.2578   -2.2055    0.0000 C   0  0  0  0  0  0  0  0  0  0  0  0
   -1.9722   -0.9680    0.0000 C   0  0  0  0  0  0  0  0  0  0  0  0
  3 14  1  0
  4  9  1  0
  4 11  1  0
  5 16  1  0
  5 17  1  0
  6 15  1  0
  6 19  2  0
  7 18  2  0
  7 19  1  0
  8 18  1  0
  9 10  1  0
  9 13  1  6
 10  1  1  1
 10 12  1  0
 11 12  1  0
 11 14  1  6
 12  2  1  1
 13 15  1  0
 13 16  2  0
 15 17  2  0
 17 18  1  0
M  END
>  <DRUGBANK_ID>  (1) 
DB11676

>  <COMMON_NAME>  (1) 
Galidesivir

>  <CAS_NUMBER>  (1) 
249503-25-1

>  <UNII>  (1) 
OLF97F86A7

>  <SYNONYMS>  (1) 
Galidesivir; Galid√©sivir; Galidesivirum; Immucillin A; Immucillin-A

$$$$
