
     RDKit          2D

 17 18  0  0  0  0  0  0  0  0999 V2000
    2.0396   -1.4119    0.0000 O   0  0  0  0  0  0  0  0  0  0  0  0
    2.0399   -0.5852    0.0000 C   0  0  0  0  0  0  0  0  0  0  0  0
    2.7143   -0.0948    0.0000 C   0  0  0  0  0  0  0  0  0  0  0  0
    2.4555    0.6868    0.0000 C   0  0  0  0  0  0  0  0  0  0  0  0
    1.6320    0.6936    0.0000 C   0  0  0  0  0  0  0  0  0  0  0  0
    1.3718   -0.0986    0.0000 N   0  0  0  0  0  0  0  0  0  0  0  0
    1.1500    1.3651    0.0000 O   0  0  0  0  0  0  0  0  0  0  0  0
    0.6978    0.5144    0.0000 C   0  0  0  0  0  0  0  0  0  0  0  0
   -0.0029    0.0708    0.0000 O   0  0  0  0  0  0  0  0  0  0  0  0
   -0.7309    0.4533    0.0000 C   0  0  0  0  0  0  0  0  0  0  0  0
   -1.3722   -0.0571    0.0000 N   0  0  0  0  0  0  0  0  0  0  0  0
   -1.6538    0.7277    0.0000 C   0  0  0  0  0  0  0  0  0  0  0  0
   -1.1902    1.4119    0.0000 O   0  0  0  0  0  0  0  0  0  0  0  0
   -2.4768    0.6984    0.0000 C   0  0  0  0  0  0  0  0  0  0  0  0
   -2.7143   -0.0899    0.0000 C   0  0  0  0  0  0  0  0  0  0  0  0
   -2.0268   -0.5619    0.0000 C   0  0  0  0  0  0  0  0  0  0  0  0
   -2.0041   -1.3882    0.0000 O   0  0  0  0  0  0  0  0  0  0  0  0
  1  2  2  0
  2  3  1  0
  3  4  2  0
  4  5  1  0
  5  6  1  0
  5  7  2  0
  6  2  1  0
  8  9  1  0
  8  6  1  0
  9 10  1  0
 10 11  1  0
 11 12  1  0
 12 13  2  0
 12 14  1  0
 14 15  2  0
 15 16  1  0
 16 11  1  0
 16 17  2  0
M  END
>  <DRUGBANK_ID>  (1) 
DB04085

>  <SECONDARY_ACCESSION_NUMBERS>  (1) 
EXPT02445

>  <COMMON_NAME>  (1) 
Bis(N-maleimidomethyl)ether

>  <CAS_NUMBER>  (1) 
15209-14-0

>  <UNII>  (1) 
5AO12W9Y4D

>  <SYNONYMS>  (1) 
N,N'-(Oxydimethylene)dimaleimide

$$$$
