PUX
     RDKit          2D

 25 28  0  0  0  0  0  0  0  0999 V2000
    0.1965    2.6197    0.0000 C   0  0  0  0  0  0  0  0  0  0  0  0
    0.0249    1.8128    0.0000 C   0  0  0  0  0  0  0  0  0  0  0  0
    0.6380    1.2607    0.0000 C   0  0  0  0  0  0  0  0  0  0  0  0
    0.4665    0.4538    0.0000 C   0  0  0  0  0  0  0  0  0  0  0  0
    1.0796   -0.0983    0.0000 N   0  0  0  0  0  0  0  0  0  0  0  0
    1.8866    0.0732    0.0000 C   0  0  0  0  0  0  0  0  0  0  0  0
    2.2991    0.7877    0.0000 N   0  0  0  0  0  0  0  0  0  0  0  0
    3.1241    0.7877    0.0000 C   0  0  0  0  0  0  0  0  0  0  0  0
    3.5366    0.0732    0.0000 N   0  0  0  0  0  0  0  0  0  0  0  0
    2.2991   -0.6412    0.0000 C   0  0  0  0  0  0  0  0  0  0  0  0
    3.1241   -0.6412    0.0000 C   0  0  0  0  0  0  0  0  0  0  0  0
    3.5366   -1.3557    0.0000 N   0  0  0  0  0  0  0  0  0  0  0  0
    1.7470   -1.2543    0.0000 N   0  0  0  0  0  0  0  0  0  0  0  0
    0.9934   -0.9188    0.0000 C   0  0  0  0  0  0  0  0  0  0  0  0
    0.2789   -1.3313    0.0000 C   0  0  0  0  0  0  0  0  0  0  0  0
   -0.4356   -0.9188    0.0000 C   0  0  0  0  0  0  0  0  0  0  0  0
   -1.1501   -1.3313    0.0000 C   0  0  0  0  0  0  0  0  0  0  0  0
   -1.8645   -0.9188    0.0000 C   0  0  0  0  0  0  0  0  0  0  0  0
   -0.4356   -0.0938    0.0000 C   0  0  0  0  0  0  0  0  0  0  0  0
   -2.6492   -1.1737    0.0000 O   0  0  0  0  0  0  0  0  0  0  0  0
   -1.1501    0.3187    0.0000 C   0  0  0  0  0  0  0  0  0  0  0  0
   -1.8645   -0.0938    0.0000 C   0  0  0  0  0  0  0  0  0  0  0  0
   -2.6492    0.1612    0.0000 O   0  0  0  0  0  0  0  0  0  0  0  0
   -3.1341   -0.5063    0.0000 C   0  0  0  0  0  0  0  0  0  0  0  0
    3.5366    1.5022    0.0000 F   0  0  0  0  0  0  0  0  0  0  0  0
  1  2  1  0
  2  3  1  0
  3  4  1  0
  4  5  1  0
  5  6  1  0
  5 14  1  0
  6  7  2  0
  6 10  1  0
  7  8  1  0
  8  9  2  0
  8 25  1  0
  9 11  1  0
 10 11  2  0
 10 13  1  0
 11 12  1  0
 13 14  2  0
 14 15  1  0
 15 16  1  0
 16 17  2  0
 16 19  1  0
 17 18  1  0
 18 20  1  0
 18 22  2  0
 19 21  2  0
 20 24  1  0
 21 22  1  0
 22 23  1  0
 23 24  1  0
M  END
>  <DRUGBANK_ID>  (1) 
DB04254

>  <SECONDARY_ACCESSION_NUMBERS>  (1) 
EXPT02703

>  <COMMON_NAME>  (1) 
8-Benzo[1,3]Dioxol-,5-Ylmethyl-9-Butyl-2-Fluoro-9h-Purin-6-Ylamine

$$$$
