
     RDKit          2D

 40 39  0  0  0  0  0  0  0  0999 V2000
   -3.5723    2.0625    0.0000 C   0  0  0  0  0  0  0  0  0  0  0  0
   -5.0012    2.0625    0.0000 C   0  0  0  0  0  0  0  0  0  0  0  0
   -5.7157    1.6500    0.0000 C   0  0  0  0  0  0  0  0  0  0  0  0
   -3.5723   -2.0625    0.0000 C   0  0  0  0  0  0  0  0  0  0  0  0
   -6.4302   -0.4125    0.0000 C   0  0  0  0  0  0  0  0  0  0  0  0
   -6.4302    0.4125    0.0000 C   0  0  0  0  0  0  0  0  0  0  0  0
   -5.0012   -2.0625    0.0000 C   0  0  0  0  0  0  0  0  0  0  0  0
   -5.7157   -1.6500    0.0000 C   0  0  0  0  0  0  0  0  0  0  0  0
   -4.2867    1.6500    0.0000 O   0  0  0  0  0  0  0  0  0  0  0  0
   -5.7157    0.8250    0.0000 O   0  0  0  0  0  0  0  0  0  0  0  0
   -5.7157   -0.8250    0.0000 O   0  0  0  0  0  0  0  0  0  0  0  0
   -4.2867   -1.6500    0.0000 O   0  0  0  0  0  0  0  0  0  0  0  0
   -2.8579    1.6500    0.0000 C   0  0  0  0  0  0  0  0  0  0  0  0
   -2.8579   -1.6500    0.0000 C   0  0  0  0  0  0  0  0  0  0  0  0
   -0.7143    2.0625    0.0000 C   0  0  0  0  0  0  0  0  0  0  0  0
   -0.7143   -2.0625    0.0000 C   0  0  0  0  0  0  0  0  0  0  0  0
   -2.1433    2.0625    0.0000 O   0  0  0  0  0  0  0  0  0  0  0  0
   -1.4289    1.6500    0.0000 C   0  0  0  0  0  0  0  0  0  0  0  0
   -2.1433   -2.0625    0.0000 O   0  0  0  0  0  0  0  0  0  0  0  0
   -1.4289   -1.6500    0.0000 C   0  0  0  0  0  0  0  0  0  0  0  0
    0.0000   -1.6500    0.0000 O   0  0  0  0  0  0  0  0  0  0  0  0
    0.7144   -2.0625    0.0000 C   0  0  0  0  0  0  0  0  0  0  0  0
    1.4289   -1.6500    0.0000 C   0  0  0  0  0  0  0  0  0  0  0  0
    0.7144    2.0625    0.0000 C   0  0  0  0  0  0  0  0  0  0  0  0
    1.4289    1.6500    0.0000 C   0  0  0  0  0  0  0  0  0  0  0  0
    3.5723    2.0625    0.0000 C   0  0  0  0  0  0  0  0  0  0  0  0
    2.8577    1.6500    0.0000 C   0  0  0  0  0  0  0  0  0  0  0  0
    2.1435   -2.0625    0.0000 O   0  0  0  0  0  0  0  0  0  0  0  0
    3.5725   -2.0625    0.0000 C   0  0  0  0  0  0  0  0  0  0  0  0
    2.8580   -1.6500    0.0000 C   0  0  0  0  0  0  0  0  0  0  0  0
    5.7157    1.6500    0.0000 C   0  0  0  0  0  0  0  0  0  0  0  0
    5.0012    2.0625    0.0000 C   0  0  0  0  0  0  0  0  0  0  0  0
    4.2868   -1.6500    0.0000 O   0  0  0  0  0  0  0  0  0  0  0  0
    5.7158   -1.6500    0.0000 C   0  0  0  0  0  0  0  0  0  0  0  0
    5.0012   -2.0625    0.0000 C   0  0  0  0  0  0  0  0  0  0  0  0
    6.4302   -2.0625    0.0000 O   0  0  0  0  0  0  0  0  0  0  0  0
    0.0000    1.6500    0.0000 C   0  0  0  0  0  0  0  0  0  0  0  0
    2.1433    2.0625    0.0000 C   0  0  0  0  0  0  0  0  0  0  0  0
    4.2866    1.6500    0.0000 C   0  0  0  0  0  0  0  0  0  0  0  0
    6.4301    2.0625    0.0000 C   0  0  0  0  0  0  0  0  0  0  0  0
  1  9  1  0
  1 13  1  0
  2  3  1  0
  2  9  1  0
  4 12  1  0
  5  6  1  0
  7  8  1  0
  8 11  1  0
 10  6  1  0
 10  3  1  0
 11  5  1  0
 12  7  1  0
 14  4  1  0
 15 37  1  0
 15 18  1  0
 16 20  1  0
 17 13  1  0
 17 18  1  0
 19 14  1  0
 20 19  1  0
 21 16  1  0
 21 22  1  0
 22 23  1  0
 23 28  1  0
 24 37  1  0
 24 25  1  0
 26 39  1  0
 26 27  1  0
 29 30  1  0
 30 28  1  0
 31 32  1  0
 32 39  1  0
 33 29  1  0
 33 35  1  0
 34 36  1  0
 34 35  1  0
 38 25  1  0
 38 27  1  0
 40 31  1  0
M  END
>  <DRUGBANK_ID>  (1) 
DB06811

>  <COMMON_NAME>  (1) 
Polidocanol

>  <CAS_NUMBER>  (1) 
9002-92-0

>  <UNII>  (1) 
0AWH8BFG9A

>  <SYNONYMS>  (1) 
Aethoxy-sklerol; Laureth 9; Laureth-9; Macrogol 9 lauryl ether; Nonaethylene glycol monododecyl ether; Nonaethylene glycol monolauryl ether; PEG-9 lauryl ether; Polidocanol; Polydocanol; Polyethylene glycol 450 lauryl ether; Polyoxyl 9 lauryl ether

$$$$
