
     RDKit          2D

 35 39  0  0  0  0  0  0  0  0999 V2000
    2.6996    1.8953    0.0000 C   0  0  0  0  0  0  0  0  0  0  0  0
    2.8963    1.0941    0.0000 N   0  0  0  0  0  0  0  0  0  0  0  0
    3.6601    0.7822    0.0000 N   0  0  0  0  0  0  0  0  0  0  0  0
    3.5995   -0.0406    0.0000 C   0  0  0  0  0  0  0  0  0  0  0  0
    4.2295   -0.5732    0.0000 C   0  0  0  0  0  0  0  0  0  0  0  0
    4.0833   -1.3851    0.0000 O   0  0  0  0  0  0  0  0  0  0  0  0
    5.0058   -0.2939    0.0000 N   0  0  0  0  0  0  0  0  0  0  0  0
    5.1521    0.5181    0.0000 C   0  0  0  0  0  0  0  0  0  0  0  0
    5.9283    0.7974    0.0000 C   0  0  0  0  0  0  0  0  0  0  0  0
    6.0746    1.6093    0.0000 C   0  0  0  0  0  0  0  0  0  0  0  0
    6.8509    1.8886    0.0000 C   0  0  0  0  0  0  0  0  0  0  0  0
    7.4809    1.3560    0.0000 C   0  0  0  0  0  0  0  0  0  0  0  0
    7.3346    0.5441    0.0000 C   0  0  0  0  0  0  0  0  0  0  0  0
    6.5584    0.2648    0.0000 C   0  0  0  0  0  0  0  0  0  0  0  0
    5.6358   -0.8265    0.0000 C   0  0  0  0  0  0  0  0  0  0  0  0
    5.4896   -1.6384    0.0000 C   0  0  0  0  0  0  0  0  0  0  0  0
    6.1196   -2.1710    0.0000 C   0  0  0  0  0  0  0  0  0  0  0  0
    5.9734   -2.9830    0.0000 C   0  0  0  0  0  0  0  0  0  0  0  0
    5.1971   -3.2623    0.0000 C   0  0  0  0  0  0  0  0  0  0  0  0
    4.5671   -2.7297    0.0000 C   0  0  0  0  0  0  0  0  0  0  0  0
    4.7133   -1.9177    0.0000 C   0  0  0  0  0  0  0  0  0  0  0  0
    5.0509   -4.0742    0.0000 C   0  0  0  0  0  0  0  0  0  0  0  0
    4.2746   -4.3535    0.0000 O   0  0  0  0  0  0  0  0  0  0  0  0
    5.6809   -4.6068    0.0000 O   0  0  0  0  0  0  0  0  0  0  0  0
    2.7983   -0.2372    0.0000 C   0  0  0  0  0  0  0  0  0  0  0  0
    2.3637    0.4640    0.0000 C   0  0  0  0  0  0  0  0  0  0  0  0
    1.5391    0.4383    0.0000 C   0  0  0  0  0  0  0  0  0  0  0  0
    1.1491   -0.2887    0.0000 C   0  0  0  0  0  0  0  0  0  0  0  0
    1.5837   -0.9900    0.0000 O   0  0  0  0  0  0  0  0  0  0  0  0
    2.4083   -0.9642    0.0000 C   0  0  0  0  0  0  0  0  0  0  0  0
    0.3245   -0.3145    0.0000 C   0  0  0  0  0  0  0  0  0  0  0  0
   -0.1101    0.3867    0.0000 C   0  0  0  0  0  0  0  0  0  0  0  0
    0.2799    1.1137    0.0000 C   0  0  0  0  0  0  0  0  0  0  0  0
   -0.1547    1.8150    0.0000 Cl  0  0  0  0  0  0  0  0  0  0  0  0
    1.1045    1.1395    0.0000 C   0  0  0  0  0  0  0  0  0  0  0  0
  1  2  1  0
  2  3  1  0
  2 26  1  0
  3  4  2  0
  4  5  1  0
  4 25  1  0
  5  6  2  0
  5  7  1  0
  7  8  1  0
  7 15  1  0
  8  9  1  0
  9 10  2  0
  9 14  1  0
 10 11  1  0
 11 12  2  0
 12 13  1  0
 13 14  2  0
 15 16  1  0
 16 17  2  0
 16 21  1  0
 17 18  1  0
 18 19  2  0
 19 20  1  0
 19 22  1  0
 20 21  2  0
 22 23  1  0
 22 24  2  0
 25 26  2  0
 25 30  1  0
 26 27  1  0
 27 28  2  0
 27 35  1  0
 28 29  1  0
 28 31  1  0
 29 30  1  0
 31 32  2  0
 32 33  1  0
 33 34  1  0
 33 35  2  0
M  END
>  <DRUGBANK_ID>  (1) 
DB16255

>  <COMMON_NAME>  (1) 
Nidufexor

>  <CAS_NUMBER>  (1) 
1773489-72-7

>  <UNII>  (1) 
CJ1PL0TE6J

>  <SYNONYMS>  (1) 
Nidufexor

$$$$
