
     RDKit          2D

 19 20  0  0  1  0  0  0  0  0999 V2000
    1.0688   -0.4081    0.0000 C   0  0  0  0  0  0  0  0  0  0  0  0
    1.0639    0.4178    0.0000 C   0  0  0  0  0  0  0  0  0  0  0  0
    0.3596   -0.8259    0.0000 C   0  0  0  0  0  0  0  0  0  0  0  0
    0.3498    0.8258    0.0000 C   0  0  0  0  0  0  0  0  0  0  0  0
   -0.3546   -0.4130    0.0000 C   0  0  0  0  0  0  0  0  0  0  0  0
    0.3450    1.6518    0.0000 N   0  0  0  0  0  0  0  0  0  0  0  0
    1.0592   -1.2341    0.0000 O   0  0  0  0  0  0  0  0  0  0  0  0
   -1.0688   -0.8259    0.0000 C   0  0  0  0  0  0  0  0  0  0  0  0
    1.7879   -0.8210    0.0000 C   0  0  0  0  0  0  0  0  0  0  0  0
    0.3596   -1.6568    0.0000 C   0  0  0  0  0  0  0  0  0  0  0  0
    1.7830    0.8307    0.0000 C   0  0  0  0  0  0  0  0  0  0  0  0
   -1.7830   -0.4130    0.0000 O   0  0  0  0  0  0  0  0  0  0  0  0
   -0.3546   -2.0697    0.0000 C   0  0  0  0  0  0  0  0  0  0  0  0
   -1.0688   -1.6568    0.0000 C   0  0  0  0  0  0  0  0  0  0  0  0
   -0.3691    2.0648    0.0000 C   0  0  0  0  0  0  0  0  0  0  0  0
    1.0592    2.0697    0.0000 C   0  0  0  0  0  0  0  0  0  0  0  0
   -2.4972   -0.8259    0.0000 C   0  0  0  0  0  0  0  0  0  0  0  0
    2.4972   -0.4081    0.0000 C   0  0  0  0  0  0  0  0  0  0  0  0
    2.4972    0.4178    0.0000 C   0  0  0  0  0  0  0  0  0  0  0  0
  1  7  1  0
  2  1  1  0
  2  4  1  0
  3  1  1  0
  5  3  2  0
  6  4  1  0
  8  5  1  0
  9  1  1  0
 10  3  1  0
 11  2  1  0
 11 19  1  0
 12  8  1  0
 13 10  2  0
 13 14  1  0
 14  8  2  0
 15  6  1  0
 16  6  1  0
 17 12  1  0
 18  9  1  0
 19 18  1  0
M  END
>  <DRUGBANK_ID>  (1) 
DB00193

>  <SECONDARY_ACCESSION_NUMBERS>  (1) 
APRD00028

>  <COMMON_NAME>  (1) 
Tramadol

>  <CAS_NUMBER>  (1) 
27203-92-5

>  <UNII>  (1) 
39J1LGJ30J

>  <SYNONYMS>  (1) 
Tramadol; Tramadolum

$$$$
