
     RDKit          2D

 21 21  0  0  1  0  0  0  0  0999 V2000
   -0.7145    0.4125    0.0000 O   0  0  0  0  0  0  0  0  0  0  0  0
    0.0000    0.0000    0.0000 C   0  0  0  0  0  0  0  0  0  0  0  0
    0.0000   -0.8250    0.0000 O   0  0  0  0  0  0  0  0  0  0  0  0
   -2.0738   -1.3395    0.0000 C   0  0  0  0  0  0  0  0  0  0  0  0
   -1.4289   -0.8250    0.0000 C   0  0  0  0  0  0  0  0  0  0  0  0
   -2.8783    0.3307    0.0000 C   0  0  0  0  0  0  0  0  0  0  0  0
   -2.0740    0.5143    0.0000 C   0  0  0  0  0  0  0  0  0  0  0  0
   -1.4289    0.0000    0.0000 C   0  0  0  0  0  0  0  0  0  0  0  0
   -1.9509   -0.1194    0.0000 N   0  0  0  0  0  0  0  0  0  0  0  0
   -1.2473    1.5548    0.0000 Br  0  0  0  0  0  0  0  0  0  0  0  0
   -3.2908   -0.3838    0.0000 C   0  0  0  0  0  0  0  0  0  0  0  0
   -2.8707   -1.1260    0.0000 C   0  0  0  0  0  0  0  0  0  0  0  0
   -1.7374    0.6774    0.0000 C   0  0  0  0  0  0  0  0  0  0  0  0
   -1.1540   -0.3330    0.0000 C   0  0  0  0  0  0  0  0  0  0  0  0
    0.7145    0.4125    0.0000 C   0  0  0  0  0  0  0  0  0  0  0  0
    0.7145    1.2375    0.0000 C   0  0  0  0  0  0  0  0  0  0  0  0
    1.4289    0.0000    0.0000 C   0  0  0  0  0  0  0  0  0  0  0  0
    1.4289    1.6500    0.0000 C   0  0  0  0  0  0  0  0  0  0  0  0
    1.4289    2.4750    0.0000 C   0  0  0  0  0  0  0  0  0  0  0  0
    2.1434    0.4125    0.0000 C   0  0  0  0  0  0  0  0  0  0  0  0
    2.8579    0.0000    0.0000 C   0  0  0  0  0  0  0  0  0  0  0  0
  2  1  1  0
  2  3  2  0
  2 15  1  0
  4  9  1  0
  4 12  1  0
  5  4  1  0
  6  9  1  0
  6 11  1  0
  7  6  1  0
  7  8  1  0
  8  1  1  0
  8  5  1  0
  9 13  1  0
  9 14  1  0
 12 11  1  0
 15 16  1  0
 15 17  1  0
 16 18  1  0
 17 20  1  0
 18 19  1  0
 20 21  1  0
M  CHG  2   9   1  10  -1
M  END
>  <DRUGBANK_ID>  (1) 
DB00517

>  <SECONDARY_ACCESSION_NUMBERS>  (1) 
APRD00800

>  <COMMON_NAME>  (1) 
Anisotropine methylbromide

>  <CAS_NUMBER>  (1) 
80-50-2

>  <UNII>  (1) 
62M960DHIL

>  <SYNONYMS>  (1) 
8-Methyl-3-(2-propylpentanoyloxy)tropinium bromide; 8-Methyltropinium bromide 2-propylpentanoate; 8-Methyltropinium bromide 2-propylvalerate; Anisotropine methobromide; Anisotropine methylbromide; endo-8,8-Dimethyl-3-((1-oxo-2-propylpentyl)oxy)-8-azoniabicyclo(3.2.1)octane bromide; MÃ©thylbromure d'octatropine; Methyloctatropine bromide; Metilbromuro de octatropina; Octatropine methylbromide; Octatropini methylbromidum

$$$$
