ME5
     RDKit          2D

 30 33  0  0  0  0  0  0  0  0999 V2000
    1.6267   -5.8092    0.0000 C   0  0  0  0  0  0  0  0  0  0  0  0
    0.1747   -5.5792    0.0000 C   0  0  0  0  0  0  0  0  0  0  0  0
    0.8421   -6.0641    0.0000 C   0  0  0  0  0  0  0  0  0  0  0  0
    2.2035   -1.8741    0.0000 C   0  0  0  0  0  0  0  0  0  0  0  0
    3.2503   -5.2322    0.0000 C   0  0  0  0  0  0  0  0  0  0  0  0
    3.9178   -4.7473    0.0000 C   0  0  0  0  0  0  0  0  0  0  0  0
    3.6628   -3.9626    0.0000 C   0  0  0  0  0  0  0  0  0  0  0  0
    2.8378   -3.9626    0.0000 C   0  0  0  0  0  0  0  0  0  0  0  0
    0.8981   -1.2929    0.0000 C   0  0  0  0  0  0  0  0  0  0  0  0
   -0.0717    0.0420    0.0000 C   0  0  0  0  0  0  0  0  0  0  0  0
    1.2337   -0.5392    0.0000 C   0  0  0  0  0  0  0  0  0  0  0  0
    2.5829   -4.7473    0.0000 C   0  0  0  0  0  0  0  0  0  0  0  0
    1.0843    0.8819    0.0000 C   0  0  0  0  0  0  0  0  0  0  0  0
    2.5391   -1.1204    0.0000 C   0  0  0  0  0  0  0  0  0  0  0  0
    0.5994    1.5493    0.0000 C   0  0  0  0  0  0  0  0  0  0  0  0
    2.6885   -2.5415    0.0000 C   0  0  0  0  0  0  0  0  0  0  0  0
    1.3831   -1.9603    0.0000 C   0  0  0  0  0  0  0  0  0  0  0  0
    0.7488    0.1282    0.0000 N   0  0  0  0  0  0  0  0  0  0  0  0
    2.0542   -0.4530    0.0000 C   0  0  0  0  0  0  0  0  0  0  0  0
   -0.5566    0.7094    0.0000 C   0  0  0  0  0  0  0  0  0  0  0  0
   -0.2211    1.4631    0.0000 C   0  0  0  0  0  0  0  0  0  0  0  0
    1.9048    0.9681    0.0000 O   0  0  0  0  0  0  0  0  0  0  0  0
    2.3529   -3.2952    0.0000 N   0  0  0  0  0  0  0  0  0  0  0  0
    3.5090   -2.4553    0.0000 O   0  0  0  0  0  0  0  0  0  0  0  0
    1.7983   -5.0022    0.0000 N   0  0  0  0  0  0  0  0  0  0  0  0
    2.2398   -6.3612    0.0000 O   0  0  0  0  0  0  0  0  0  0  0  0
   -0.4928   -6.0641    0.0000 C   0  0  0  0  0  0  0  0  0  0  0  0
    0.5872   -6.8487    0.0000 S   0  0  0  0  0  0  0  0  0  0  0  0
   -0.2378   -6.8487    0.0000 C   0  0  0  0  0  0  0  0  0  0  0  0
   -0.7227   -7.5162    0.0000 Cl  0  0  0  0  0  0  0  0  0  0  0  0
  1 26  2  0
  1 25  1  0
  1  3  1  0
  2  3  2  0
  2 27  1  0
  3 28  1  0
  4 17  2  0
  4 14  1  0
  4 16  1  0
  5 12  1  0
  5  6  1  0
  6  7  1  0
  7  8  1  0
  8 23  1  1
  8 12  1  0
  9 11  2  0
  9 17  1  0
 10 20  2  0
 10 18  1  0
 11 18  1  0
 11 19  1  0
 12 25  1  1
 13 15  1  0
 13 22  2  0
 13 18  1  0
 14 19  2  0
 15 21  2  0
 16 24  2  0
 16 23  1  0
 20 21  1  0
 27 29  2  0
 28 29  1  0
 29 30  1  0
M  END
>  <DRUGBANK_ID>  (1) 
DB08174

>  <COMMON_NAME>  (1) 
5-CHLORO-N-((1R,2S)-2-(4-(2-OXOPYRIDIN-1(2H)-YL)BENZAMIDO) CYCLOPENTYL)THIOPHENE-2-CARBOXAMIDE

$$$$
