
     RDKit          2D

 22 23  0  0  0  0  0  0  0  0999 V2000
   -2.8324   -0.4303    0.0000 C   0  0  0  0  0  0  0  0  0  0  0  0
   -3.5740   -0.8243    0.0000 C   0  0  0  0  0  0  0  0  0  0  0  0
   -2.7992    0.3774    0.0000 C   0  0  0  0  0  0  0  0  0  0  0  0
   -2.1735   -0.8508    0.0000 C   0  0  0  0  0  0  0  0  0  0  0  0
   -4.2660   -0.3906    0.0000 C   0  0  0  0  0  0  0  0  0  0  0  0
   -3.5077    0.8311    0.0000 C   0  0  0  0  0  0  0  0  0  0  0  0
   -1.3591   -0.4138    0.0000 N   0  0  0  0  0  0  0  0  0  0  0  0
   -4.2328    0.4337    0.0000 C   0  0  0  0  0  0  0  0  0  0  0  0
   -0.7001   -0.8474    0.0000 N   0  0  0  0  0  0  0  0  0  0  0  0
   -4.9050    0.8508    0.0000 Cl  0  0  0  0  0  0  0  0  0  0  0  0
    0.0248   -0.3906    0.0000 C   0  0  0  0  0  0  0  0  0  0  0  0
    0.7532   -0.8342    0.0000 N   0  0  0  0  0  0  0  0  0  0  0  0
    0.0248    0.2418    0.0000 N   0  0  0  0  0  0  0  0  0  0  0  0
    1.4419   -0.4138    0.0000 N   0  0  0  0  0  0  0  0  0  0  0  0
    2.1404   -0.8508    0.0000 C   0  0  0  0  0  0  0  0  0  0  0  0
    2.8059   -0.4270    0.0000 C   0  0  0  0  0  0  0  0  0  0  0  0
    2.8225    0.4271    0.0000 C   0  0  0  0  0  0  0  0  0  0  0  0
    3.5177   -0.8474    0.0000 C   0  0  0  0  0  0  0  0  0  0  0  0
    3.5377    0.8078    0.0000 C   0  0  0  0  0  0  0  0  0  0  0  0
    4.2528   -0.4237    0.0000 C   0  0  0  0  0  0  0  0  0  0  0  0
    4.2229    0.4039    0.0000 C   0  0  0  0  0  0  0  0  0  0  0  0
    4.9050    0.8078    0.0000 Cl  0  0  0  0  0  0  0  0  0  0  0  0
  1  2  2  0
  1  3  1  0
  1  4  1  0
  2  5  1  0
  3  6  2  0
  4  7  2  0
  5  8  2  0
  6  8  1  0
  7  9  1  0
  8 10  1  0
  9 11  1  0
 11 12  1  0
 11 13  2  0
 12 14  1  0
 14 15  2  0
 15 16  1  0
 16 17  2  0
 16 18  1  0
 17 19  1  0
 18 20  2  0
 19 21  2  0
 20 21  1  0
 21 22  1  0
M  END
>  <DRUGBANK_ID>  (1) 
DB11542

>  <COMMON_NAME>  (1) 
Robenidine

>  <CAS_NUMBER>  (1) 
25875-51-8

>  <UNII>  (1) 
4888ME6C4E

>  <SYNONYMS>  (1) 
Robenidina; Robenidine; Robenidinum

$$$$
