
     RDKit          2D

 35 38  0  0  0  0  0  0  0  0999 V2000
    2.8579   -6.6000    0.0000 C   0  0  0  0  0  0  0  0  0  0  0  0
    2.8579   -7.4250    0.0000 C   0  0  0  0  0  0  0  0  0  0  0  0
    3.5253   -7.9099    0.0000 C   0  0  0  0  0  0  0  0  0  0  0  0
    3.2704   -8.6945    0.0000 N   0  0  0  0  0  0  0  0  0  0  0  0
    2.4454   -8.6945    0.0000 C   0  0  0  0  0  0  0  0  0  0  0  0
    2.1904   -7.9099    0.0000 O   0  0  0  0  0  0  0  0  0  0  0  0
    1.9605   -9.3620    0.0000 C   0  0  0  0  0  0  0  0  0  0  0  0
    2.2960  -10.1157    0.0000 C   0  0  0  0  0  0  0  0  0  0  0  0
    1.8111  -10.7831    0.0000 C   0  0  0  0  0  0  0  0  0  0  0  0
    0.9906  -10.6969    0.0000 C   0  0  0  0  0  0  0  0  0  0  0  0
    0.6551   -9.9432    0.0000 C   0  0  0  0  0  0  0  0  0  0  0  0
    1.1400   -9.2757    0.0000 C   0  0  0  0  0  0  0  0  0  0  0  0
    4.3099   -7.6550    0.0000 C   0  0  0  0  0  0  0  0  0  0  0  0
    4.4815   -6.8480    0.0000 O   0  0  0  0  0  0  0  0  0  0  0  0
    5.2661   -6.5931    0.0000 C   0  0  0  0  0  0  0  0  0  0  0  0
    5.4376   -5.7861    0.0000 C   0  0  0  0  0  0  0  0  0  0  0  0
    6.2222   -5.5312    0.0000 C   0  0  0  0  0  0  0  0  0  0  0  0
    6.8353   -6.0832    0.0000 C   0  0  0  0  0  0  0  0  0  0  0  0
    6.6638   -6.8902    0.0000 C   0  0  0  0  0  0  0  0  0  0  0  0
    5.8792   -7.1451    0.0000 C   0  0  0  0  0  0  0  0  0  0  0  0
    7.6200   -5.8283    0.0000 C   0  0  0  0  0  0  0  0  0  0  0  0
    7.7915   -5.0213    0.0000 O   0  0  0  0  0  0  0  0  0  0  0  0
    8.5761   -4.7663    0.0000 N   0  0  0  0  0  0  0  0  0  0  0  0
    8.7476   -3.9594    0.0000 C   0  0  0  0  0  0  0  0  0  0  0  0
    8.1345   -3.4073    0.0000 C   0  0  0  0  0  0  0  0  0  0  0  0
    7.3499   -3.6623    0.0000 C   0  0  0  0  0  0  0  0  0  0  0  0
    6.7368   -3.1102    0.0000 C   0  0  0  0  0  0  0  0  0  0  0  0
    6.9084   -2.3033    0.0000 O   0  0  0  0  0  0  0  0  0  0  0  0
    5.9522   -3.3652    0.0000 O   0  0  0  0  0  0  0  0  0  0  0  0
    9.5323   -3.7044    0.0000 C   0  0  0  0  0  0  0  0  0  0  0  0
    9.7038   -2.8975    0.0000 C   0  0  0  0  0  0  0  0  0  0  0  0
   10.4884   -2.6425    0.0000 C   0  0  0  0  0  0  0  0  0  0  0  0
   11.1015   -3.1946    0.0000 C   0  0  0  0  0  0  0  0  0  0  0  0
   10.9300   -4.0015    0.0000 C   0  0  0  0  0  0  0  0  0  0  0  0
   10.1454   -4.2565    0.0000 C   0  0  0  0  0  0  0  0  0  0  0  0
  1  2  1  0
  2  3  2  0
  2  6  1  0
  3  4  1  0
  3 13  1  0
  4  5  2  0
  5  6  1  0
  5  7  1  0
  7  8  2  0
  7 12  1  0
  8  9  1  0
  9 10  2  0
 10 11  1  0
 11 12  2  0
 13 14  1  0
 14 15  1  0
 15 16  2  0
 15 20  1  0
 16 17  1  0
 17 18  2  0
 18 19  1  0
 18 21  1  0
 19 20  2  0
 21 22  1  0
 22 23  1  0
 23 24  2  0
 24 25  1  0
 24 30  1  0
 25 26  1  0
 26 27  1  0
 27 28  2  0
 27 29  1  0
 30 31  2  0
 30 35  1  0
 31 32  1  0
 32 33  2  0
 33 34  1  0
 34 35  2  0
M  END
>  <DRUGBANK_ID>  (1) 
DB12511

>  <COMMON_NAME>  (1) 
Imiglitazar

>  <CAS_NUMBER>  (1) 
250601-04-8

>  <UNII>  (1) 
7244710F59

>  <SYNONYMS>  (1) 
Imiglitazar

$$$$
