DRG
     RDKit          2D

 15 17  0  0  0  0  0  0  0  0999 V2000
   -1.6506    0.3048    0.0000 C   0  0  0  0  0  0  0  0  0  0  0  0
   -0.8256    0.3048    0.0000 C   0  0  0  0  0  0  0  0  0  0  0  0
   -0.4131    1.0193    0.0000 C   0  0  0  0  0  0  0  0  0  0  0  0
    0.4119    1.0193    0.0000 C   0  0  0  0  0  0  0  0  0  0  0  0
    0.8244    0.3048    0.0000 C   0  0  0  0  0  0  0  0  0  0  0  0
    1.6494    0.3048    0.0000 C   0  0  0  0  0  0  0  0  0  0  0  0
    2.0619   -0.4097    0.0000 C   0  0  0  0  0  0  0  0  0  0  0  0
    1.6494   -1.1241    0.0000 C   0  0  0  0  0  0  0  0  0  0  0  0
    0.8244   -1.1241    0.0000 C   0  0  0  0  0  0  0  0  0  0  0  0
    0.4119   -0.4097    0.0000 C   0  0  0  0  0  0  0  0  0  0  0  0
   -0.4131   -0.4097    0.0000 C   0  0  0  0  0  0  0  0  0  0  0  0
   -0.8256   -1.1241    0.0000 N   0  0  0  0  0  0  0  0  0  0  0  0
   -1.6506   -1.1241    0.0000 N   0  0  0  0  0  0  0  0  0  0  0  0
   -2.0631   -0.4097    0.0000 C   0  0  0  0  0  0  0  0  0  0  0  0
   -2.8881   -0.4097    0.0000 N   0  0  0  0  0  0  0  0  0  0  0  0
  1  2  2  0
  1 14  1  0
  2  3  1  0
  2 11  1  0
  3  4  1  0
  4  5  1  0
  5  6  1  0
  5 10  2  0
  6  7  2  0
  7  8  1  0
  8  9  2  0
  9 10  1  0
 10 11  1  0
 11 12  2  0
 12 13  1  0
 13 14  2  0
 14 15  1  0
M  END
>  <DRUGBANK_ID>  (1) 
DB04069

>  <SECONDARY_ACCESSION_NUMBERS>  (1) 
EXPT01270

>  <COMMON_NAME>  (1) 
5,6-Dihydro-Benzo[H]Cinnolin-3-Ylamine

$$$$
