DFY
     RDKit          2D

 26 29  0  0  0  0  0  0  0  0999 V2000
    2.4796   -1.7247    0.0000 C   0  0  0  0  0  0  0  0  0  0  0  0
   -0.2189   -1.3122    0.0000 C   0  0  0  0  0  0  0  0  0  0  0  0
   -1.0439   -1.3122    0.0000 C   0  0  0  0  0  0  0  0  0  0  0  0
   -1.4564   -2.0267    0.0000 C   0  0  0  0  0  0  0  0  0  0  0  0
   -2.2814   -2.0267    0.0000 C   0  0  0  0  0  0  0  0  0  0  0  0
   -2.6939   -1.3122    0.0000 C   0  0  0  0  0  0  0  0  0  0  0  0
   -2.2814   -0.5977    0.0000 C   0  0  0  0  0  0  0  0  0  0  0  0
   -1.4564   -0.5977    0.0000 C   0  0  0  0  0  0  0  0  0  0  0  0
   -0.7959    0.3114    0.0000 C   0  0  0  0  0  0  0  0  0  0  0  0
   -1.0509    1.0960    0.0000 C   0  0  0  0  0  0  0  0  0  0  0  0
   -0.4988    1.7091    0.0000 C   0  0  0  0  0  0  0  0  0  0  0  0
    0.3081    1.5376    0.0000 C   0  0  0  0  0  0  0  0  0  0  0  0
    1.7651   -2.1372    0.0000 N   0  0  0  0  0  0  0  0  0  0  0  0
    1.0506   -1.7247    0.0000 C   0  0  0  0  0  0  0  0  0  0  0  0
    0.2660   -1.9796    0.0000 O   0  0  0  0  0  0  0  0  0  0  0  0
    1.0506   -0.8997    0.0000 C   0  0  0  0  0  0  0  0  0  0  0  0
    1.7651    0.3378    0.0000 N   0  0  0  0  0  0  0  0  0  0  0  0
    1.7651   -0.4872    0.0000 C   0  0  0  0  0  0  0  0  0  0  0  0
    2.4796   -0.8997    0.0000 N   0  0  0  0  0  0  0  0  0  0  0  0
    0.5631    0.7530    0.0000 C   0  0  0  0  0  0  0  0  0  0  0  0
    0.2660   -0.6447    0.0000 C   0  0  0  0  0  0  0  0  0  0  0  0
    0.0111    0.1399    0.0000 C   0  0  0  0  0  0  0  0  0  0  0  0
    1.0506    1.5753    0.0000 C   0  0  0  0  0  0  0  0  0  0  0  0
    1.0506    0.7503    0.0000 C   0  0  0  0  0  0  0  0  0  0  0  0
    0.3361    1.9878    0.0000 O   0  0  0  0  0  0  0  0  0  0  0  0
    2.4796    0.7503    0.0000 C   0  0  0  0  0  0  0  0  0  0  0  0
  1 13  2  0
  1 19  1  0
  2  3  1  0
  2 15  1  0
  2 21  2  0
  3  4  2  0
  3  8  1  0
  4  5  1  0
  5  6  2  0
  6  7  1  0
  7  8  2  0
  9 10  2  0
  9 22  1  0
 10 11  1  0
 11 12  2  0
 12 20  1  0
 13 14  1  0
 14 15  1  0
 14 16  2  0
 16 18  1  0
 16 21  1  0
 17 18  1  0
 17 24  1  0
 17 26  1  0
 18 19  2  0
 20 22  2  0
 21 22  1  0
 23 24  1  0
 23 25  1  0
M  END
>  <DRUGBANK_ID>  (1) 
DB07654

>  <COMMON_NAME>  (1) 
(5,6-DIPHENYL-FURO[2,3-D]PYRIMIDIN-4-YLAMINO)-ACETIC

$$$$
