
     RDKit          2D

 34 36  0  0  0  0  0  0  0  0999 V2000
    2.4455    1.0313    0.0000 C   0  0  0  0  0  0  0  0  0  0  0  0
    3.1602    1.4438    0.0000 C   0  0  0  0  0  0  0  0  0  0  0  0
    3.1602    2.2688    0.0000 C   0  0  0  0  0  0  0  0  0  0  0  0
    3.8746    2.6813    0.0000 C   0  0  0  0  0  0  0  0  0  0  0  0
    3.8746    3.5065    0.0000 O   0  0  0  0  0  0  0  0  0  0  0  0
    4.5892    2.2688    0.0000 O   0  0  0  0  0  0  0  0  0  0  0  0
    1.7310    1.4438    0.0000 O   0  0  0  0  0  0  0  0  0  0  0  0
    2.4455    0.2061    0.0000 O   0  0  0  0  0  0  0  0  0  0  0  0
    1.7310   -0.2062    0.0000 C   0  0  0  0  0  0  0  0  0  0  0  0
    1.7310   -1.0314    0.0000 C   0  0  0  0  0  0  0  0  0  0  0  0
    1.0165   -1.4439    0.0000 C   0  0  0  0  0  0  0  0  0  0  0  0
    0.3019   -1.0314    0.0000 C   0  0  0  0  0  0  0  0  0  0  0  0
    0.3019   -0.2062    0.0000 C   0  0  0  0  0  0  0  0  0  0  0  0
    1.0165    0.2061    0.0000 C   0  0  0  0  0  0  0  0  0  0  0  0
   -0.4125    0.2061    0.0000 C   0  0  0  0  0  0  0  0  0  0  0  0
   -1.1271   -0.2062    0.0000 C   0  0  0  0  0  0  0  0  0  0  0  0
   -1.8416    0.2061    0.0000 C   0  0  0  0  0  0  0  0  0  0  0  0
   -2.5561   -0.2062    0.0000 C   0  0  0  0  0  0  0  0  0  0  0  0
   -3.2707    0.2061    0.0000 C   0  0  0  0  0  0  0  0  0  0  0  0
   -3.9853   -0.2062    0.0000 C   0  0  0  0  0  0  0  0  0  0  0  0
   -4.6997    0.2061    0.0000 C   0  0  0  0  0  0  0  0  0  0  0  0
    0.0000    0.9207    0.0000 C   0  0  0  0  0  0  0  0  0  0  0  0
   -0.8251    0.9207    0.0000 C   0  0  0  0  0  0  0  0  0  0  0  0
    1.0165   -2.2689    0.0000 O   0  0  0  0  0  0  0  0  0  0  0  0
    2.4455   -1.4439    0.0000 C   0  0  0  0  0  0  0  0  0  0  0  0
    3.1602   -1.0314    0.0000 C   0  0  0  0  0  0  0  0  0  0  0  0
    3.8746   -1.4439    0.0000 C   0  0  0  0  0  0  0  0  0  0  0  0
    3.8746   -2.2689    0.0000 C   0  0  0  0  0  0  0  0  0  0  0  0
    3.1602   -2.6814    0.0000 C   0  0  0  0  0  0  0  0  0  0  0  0
    2.4455   -2.2689    0.0000 C   0  0  0  0  0  0  0  0  0  0  0  0
    3.1602   -3.5066    0.0000 O   0  0  0  0  0  0  0  0  0  0  0  0
    3.3428   -1.7511    0.0000 C   0  0  0  0  0  0  0  0  0  0  0  0
    4.6996   -1.4439    0.0000 C   0  0  0  0  0  0  0  0  0  0  0  0
    4.2871   -0.7294    0.0000 C   0  0  0  0  0  0  0  0  0  0  0  0
  1  2  1  0
  1  7  2  0
  1  8  1  0
  2  3  2  0
  3  4  1  0
  4  5  2  0
  4  6  1  0
  8  9  1  0
  9 10  2  0
  9 14  1  0
 10 11  1  0
 11 12  2  0
 11 24  1  0
 12 13  1  0
 13 14  2  0
 13 15  1  0
 15 16  1  0
 15 22  1  0
 15 23  1  0
 16 17  1  0
 17 18  1  0
 18 19  1  0
 19 20  1  0
 20 21  1  0
 25 10  1  6
 25 30  1  0
 26 25  1  0
 26 27  1  0
 26 32  1  6
 27 33  1  0
 27 34  1  0
 28 27  1  0
 28 32  1  6
 29 28  1  0
 29 31  2  0
 30 29  1  0
M  END
>  <DRUGBANK_ID>  (1) 
DB05048

>  <COMMON_NAME>  (1) 
Cannabinor

>  <CAS_NUMBER>  (1) 
573981-31-4

>  <UNII>  (1) 
O8E148Q90M

$$$$
