SEH
     RDKit          2D

 17 17  0  0  0  0  0  0  0  0999 V2000
   -0.2171   -0.1012    0.0000 C   0  0  0  0  0  0  0  0  0  0  0  0
    0.4974    0.3113    0.0000 S   0  0  0  0  0  0  0  0  0  0  0  0
   -0.9315    0.3113    0.0000 C   0  0  0  0  0  0  0  0  0  0  0  0
    1.2119   -0.9262    0.0000 C   0  0  0  0  0  0  0  0  0  0  0  0
    0.4974   -1.3387    0.0000 C   0  0  0  0  0  0  0  0  0  0  0  0
    0.4974   -2.1637    0.0000 C   0  0  0  0  0  0  0  0  0  0  0  0
   -0.2171   -0.9262    0.0000 C   0  0  0  0  0  0  0  0  0  0  0  0
   -0.2171   -2.5762    0.0000 C   0  0  0  0  0  0  0  0  0  0  0  0
   -0.9315   -1.3387    0.0000 C   0  0  0  0  0  0  0  0  0  0  0  0
   -0.9315   -2.1637    0.0000 C   0  0  0  0  0  0  0  0  0  0  0  0
    1.2119   -0.1012    0.0000 C   0  0  0  0  0  0  0  0  0  0  0  0
    1.9264    0.3113    0.0000 N   0  0  0  0  0  0  0  0  0  0  0  0
    1.9264    1.1363    0.0000 O   0  0  0  0  0  0  0  0  0  0  0  0
    1.2119    1.5488    0.0000 S   0  0  0  0  0  0  0  0  0  0  0  0
    0.4974    1.9613    0.0000 O   0  0  0  0  0  0  0  0  0  0  0  0
    1.6244    2.2633    0.0000 O   0  0  0  0  0  0  0  0  0  0  0  0
    0.7994    0.8344    0.0000 O   0  0  0  0  0  0  0  0  0  0  0  0
  1  2  1  0
  1  3  1  0
  2 11  1  0
  4  5  1  0
  4 11  1  0
  5  6  2  0
  5  7  1  0
  6  8  1  0
  7  9  2  0
  8 10  2  0
  9 10  1  0
 11 12  2  0
 12 13  1  0
 13 14  1  0
 14 15  2  0
 14 16  2  0
 14 17  1  0
M  END
>  <DRUGBANK_ID>  (1) 
DB04779

>  <COMMON_NAME>  (1) 
ETHYL (1E)-2-PHENYL-N-(SULFOOXY)ETHANIMIDOTHIOATE

$$$$
