
     RDKit          2D

 12 12  0  0  0  0  0  0  0  0999 V2000
   -1.4290    0.6187    0.0000 O   0  0  0  0  0  0  0  0  0  0  0  0
   -0.7145    0.2062    0.0000 C   0  0  0  0  0  0  0  0  0  0  0  0
   -0.7145   -0.6187    0.0000 C   0  0  0  0  0  0  0  0  0  0  0  0
   -1.4290   -1.0313    0.0000 O   0  0  0  0  0  0  0  0  0  0  0  0
    0.0000   -1.0313    0.0000 C   0  0  0  0  0  0  0  0  0  0  0  0
    0.0000   -1.8563    0.0000 O   0  0  0  0  0  0  0  0  0  0  0  0
    0.7145   -0.6187    0.0000 C   0  0  0  0  0  0  0  0  0  0  0  0
    0.7145    0.2062    0.0000 O   0  0  0  0  0  0  0  0  0  0  0  0
    0.0000    0.6187    0.0000 C   0  0  0  0  0  0  0  0  0  0  0  0
    0.0000    1.4437    0.0000 O   0  0  0  0  0  0  0  0  0  0  0  0
    1.4290   -1.0313    0.0000 C   0  0  0  0  0  0  0  0  0  0  0  0
   -0.7146    1.8563    0.0000 C   0  0  0  0  0  0  0  0  0  0  0  0
  2  1  1  6
  2  3  1  0
  2  9  1  0
  3  4  1  1
  3  5  1  0
  5  6  1  1
  5  7  1  0
  7 11  1  1
  8  7  1  0
  9  8  1  0
  9 10  1  1
 10 12  1  0
M  END
>  <DRUGBANK_ID>  (1) 
DB03194

>  <SECONDARY_ACCESSION_NUMBERS>  (1) 
EXPT02161

>  <COMMON_NAME>  (1) 
Methyl beta-L-fucopyranoside

>  <CAS_NUMBER>  (1) 
24332-98-7

>  <UNII>  (1) 
WW71PB1NF3

>  <SYNONYMS>  (1) 
Methyl 6-deoxy-beta-L-galactopyranoside

$$$$
