
     RDKit          2D

 17 18  0  0  0  0  0  0  0  0999 V2000
    0.8998   -1.1697    0.0000 C   0  0  0  0  0  0  0  0  0  0  0  0
    0.8998    0.2937    0.0000 N   0  0  0  0  0  0  0  0  0  0  0  0
   -0.0145   -0.6398    0.0000 O   0  0  0  0  0  0  0  0  0  0  0  0
    0.5073   -1.9546    0.0000 C   0  0  0  0  0  0  0  0  0  0  0  0
    0.1698    0.6861    0.0000 C   0  0  0  0  0  0  0  0  0  0  0  0
    1.5746    0.7096    0.0000 C   0  0  0  0  0  0  0  0  0  0  0  0
   -0.8734   -1.1697    0.0000 C   0  0  0  0  0  0  0  0  0  0  0  0
   -0.4941   -1.9546    0.0000 C   0  0  0  0  0  0  0  0  0  0  0  0
    0.1698    1.5206    0.0000 N   0  0  0  0  0  0  0  0  0  0  0  0
   -0.5311    0.2728    0.0000 O   0  0  0  0  0  0  0  0  0  0  0  0
    1.5746    1.5206    0.0000 C   0  0  0  0  0  0  0  0  0  0  0  0
   -1.6577   -0.9213    0.0000 C   0  0  0  0  0  0  0  0  0  0  0  0
   -0.7256   -2.7005    0.0000 O   0  0  0  0  0  0  0  0  0  0  0  0
    0.8866    1.9157    0.0000 C   0  0  0  0  0  0  0  0  0  0  0  0
    2.2653    1.9758    0.0000 F   0  0  0  0  0  0  0  0  0  0  0  0
   -2.2653   -1.4761    0.0000 O   0  0  0  0  0  0  0  0  0  0  0  0
    0.8866    2.7005    0.0000 N   0  0  0  0  0  0  0  0  0  0  0  0
  1  2  1  1
  1  3  1  0
  1  4  1  0
  2  5  1  0
  2  6  1  0
  3  7  1  0
  4  8  1  0
  5  9  1  0
  5 10  2  0
  6 11  2  0
  7 12  1  1
  7  8  1  0
  8 13  1  6
  9 14  2  0
 11 15  1  0
 11 14  1  0
 12 16  1  0
 14 17  1  0
M  END
>  <DRUGBANK_ID>  (1) 
DB12957

>  <COMMON_NAME>  (1) 
5-fluoro-2'-deoxycytidine

>  <CAS_NUMBER>  (1) 
10356-76-0

>  <UNII>  (1) 
KUA4693H5W

>  <SYNONYMS>  (1) 
5-fluoro-2-deoxycytidine; 5-fluoro-2'-deoxycytidine; 5-fluorodeoxycytidine; FCdR; FDCYD

$$$$
