
     RDKit          2D

 18 20  0  0  0  0  0  0  0  0999 V2000
    1.8483   -0.4239    0.0000 C   0  0  0  0  0  0  0  0  0  0  0  0
    2.5722   -0.8196    0.0000 O   0  0  0  0  0  0  0  0  0  0  0  0
    1.1437   -0.8531    0.0000 N   0  0  0  0  0  0  0  0  0  0  0  0
    1.8289    0.4008    0.0000 C   0  0  0  0  0  0  0  0  0  0  0  0
    1.1050    0.7964    0.0000 C   0  0  0  0  0  0  0  0  0  0  0  0
    0.4004    0.3672    0.0000 C   0  0  0  0  0  0  0  0  0  0  0  0
    0.4197   -0.4574    0.0000 C   0  0  0  0  0  0  0  0  0  0  0  0
   -0.0240    0.0431    0.0000 C   0  0  0  0  0  0  0  0  0  0  0  0
   -0.9739    0.1817    0.0000 C   0  0  0  0  0  0  0  0  0  0  0  0
   -0.9613   -0.7901    0.0000 C   0  0  0  0  0  0  0  0  0  0  0  0
   -2.5722    1.5848    0.0000 C   0  0  0  0  0  0  0  0  0  0  0  0
   -1.8087    1.6278    0.0000 C   0  0  0  0  0  0  0  0  0  0  0  0
   -1.2693    0.9954    0.0000 C   0  0  0  0  0  0  0  0  0  0  0  0
   -0.5102    0.4902    0.0000 C   0  0  0  0  0  0  0  0  0  0  0  0
   -0.0797    0.9800    0.0000 N   0  0  0  0  0  0  0  0  0  0  0  0
   -0.5073   -0.4461    0.0000 C   0  0  0  0  0  0  0  0  0  0  0  0
   -0.0946   -1.1038    0.0000 C   0  0  0  0  0  0  0  0  0  0  0  0
    0.4864   -1.6279    0.0000 C   0  0  0  0  0  0  0  0  0  0  0  0
  1  2  2  0
  1  3  1  0
  1  4  1  0
  3  7  1  0
  4  5  2  0
  5  6  1  0
  6  7  2  0
  6 14  1  0
  7  8  1  0
  9  8  1  6
  9 10  1  0
  9 13  1  0
 10 17  2  0
 11 12  1  0
 12 13  2  0
 13 14  1  0
 14 15  1  6
 14 16  1  0
 16 17  1  0
 17 18  1  0
M  END
>  <DRUGBANK_ID>  (1) 
DB04864

>  <SECONDARY_ACCESSION_NUMBERS>  (1) 
EXPT01795; DB01928; DB05510

>  <COMMON_NAME>  (1) 
Huperzine A

>  <CAS_NUMBER>  (1) 
102518-79-6

>  <UNII>  (1) 
0111871I23

>  <SYNONYMS>  (1) 
(-)-Huperzine A; (âˆ’)-huperazine A; (âˆ’)-selagine; Huperzine-A; L-huperzine A; Selagine

$$$$
