AXX
     RDKit          2D

 18 20  0  0  0  0  0  0  0  0999 V2000
   -1.0363    1.5373    0.0000 O   0  0  0  0  0  0  0  0  0  0  0  0
   -1.4488    0.8229    0.0000 C   0  0  0  0  0  0  0  0  0  0  0  0
   -2.2738    0.8229    0.0000 C   0  0  0  0  0  0  0  0  0  0  0  0
   -2.9883    0.4104    0.0000 C   0  0  0  0  0  0  0  0  0  0  0  0
   -2.9883    1.2354    0.0000 C   0  0  0  0  0  0  0  0  0  0  0  0
   -1.0363    0.1084    0.0000 N   0  0  0  0  0  0  0  0  0  0  0  0
   -0.2113    0.1084    0.0000 C   0  0  0  0  0  0  0  0  0  0  0  0
    0.2736    0.7758    0.0000 S   0  0  0  0  0  0  0  0  0  0  0  0
    1.0583    0.5209    0.0000 C   0  0  0  0  0  0  0  0  0  0  0  0
    1.7727    0.9334    0.0000 C   0  0  0  0  0  0  0  0  0  0  0  0
    2.4872    0.5209    0.0000 C   0  0  0  0  0  0  0  0  0  0  0  0
    2.4872   -0.3041    0.0000 C   0  0  0  0  0  0  0  0  0  0  0  0
    1.7727   -0.7166    0.0000 C   0  0  0  0  0  0  0  0  0  0  0  0
    1.0583   -0.3041    0.0000 C   0  0  0  0  0  0  0  0  0  0  0  0
    0.2736   -0.5590    0.0000 C   0  0  0  0  0  0  0  0  0  0  0  0
    0.0187   -1.3437    0.0000 C   0  0  0  0  0  0  0  0  0  0  0  0
   -0.7883   -1.5152    0.0000 O   0  0  0  0  0  0  0  0  0  0  0  0
    0.5707   -1.9568    0.0000 N   0  0  0  0  0  0  0  0  0  0  0  0
  1  2  2  0
  2  6  1  0
  2  3  1  0
  3  4  1  0
  3  5  1  0
  4  5  1  0
  6  7  1  0
  7  8  1  0
  7 15  2  0
  8  9  1  0
  9 10  1  0
  9 14  2  0
 10 11  1  0
 11 12  1  0
 12 13  1  0
 13 14  1  0
 14 15  1  0
 15 16  1  0
 16 18  1  0
 16 17  2  0
M  END
>  <DRUGBANK_ID>  (1) 
DB07398

>  <COMMON_NAME>  (1) 
2-[(CYCLOPROPYLCARBONYL)AMINO]-4,5,6,7-TETRAHYDRO-1-BENZOTHIOPHENE-3-CARBOXAMIDE

$$$$
