
     RDKit          2D

 26 28  0  0  0  0  0  0  0  0999 V2000
   -1.6093    0.3256    0.0000 C   0  0  0  0  0  0  0  0  0  0  0  0
   -1.2737   -0.4281    0.0000 N   0  0  0  0  0  0  0  0  0  0  0  0
   -0.4667   -0.5996    0.0000 C   0  0  0  0  0  0  0  0  0  0  0  0
    0.1464   -0.0476    0.0000 N   0  0  0  0  0  0  0  0  0  0  0  0
   -0.0252    0.7594    0.0000 C   0  0  0  0  0  0  0  0  0  0  0  0
   -0.8098    1.0144    0.0000 C   0  0  0  0  0  0  0  0  0  0  0  0
   -0.9813    1.8213    0.0000 C   0  0  0  0  0  0  0  0  0  0  0  0
   -0.3682    2.3734    0.0000 C   0  0  0  0  0  0  0  0  0  0  0  0
   -0.5398    3.1803    0.0000 I   0  0  0  0  0  0  0  0  0  0  0  0
    0.4164    2.1184    0.0000 C   0  0  0  0  0  0  0  0  0  0  0  0
    0.5879    1.3115    0.0000 C   0  0  0  0  0  0  0  0  0  0  0  0
    1.3725    1.0565    0.0000 F   0  0  0  0  0  0  0  0  0  0  0  0
   -0.3805   -1.4201    0.0000 C   0  0  0  0  0  0  0  0  0  0  0  0
    0.3340   -1.8326    0.0000 C   0  0  0  0  0  0  0  0  0  0  0  0
    0.3340   -2.6576    0.0000 O   0  0  0  0  0  0  0  0  0  0  0  0
    1.0484   -1.4201    0.0000 N   0  0  0  0  0  0  0  0  0  0  0  0
    1.7629   -1.8326    0.0000 O   0  0  0  0  0  0  0  0  0  0  0  0
    2.4774   -1.4201    0.0000 C   0  0  0  0  0  0  0  0  0  0  0  0
    3.1918   -1.8326    0.0000 C   0  0  0  0  0  0  0  0  0  0  0  0
    3.9063   -1.4201    0.0000 O   0  0  0  0  0  0  0  0  0  0  0  0
   -1.1342   -1.7556    0.0000 C   0  0  0  0  0  0  0  0  0  0  0  0
   -1.3891   -2.5402    0.0000 C   0  0  0  0  0  0  0  0  0  0  0  0
   -2.1961   -2.7118    0.0000 C   0  0  0  0  0  0  0  0  0  0  0  0
   -2.7481   -2.0987    0.0000 C   0  0  0  0  0  0  0  0  0  0  0  0
   -2.4932   -1.3141    0.0000 N   0  0  0  0  0  0  0  0  0  0  0  0
   -1.6862   -1.1425    0.0000 C   0  0  0  0  0  0  0  0  0  0  0  0
  1  2  1  0
  2  3  1  0
  2 26  1  0
  3  4  1  0
  3 13  2  0
  4  5  1  0
  5  6  2  0
  5 11  1  0
  6  7  1  0
  7  8  2  0
  8  9  1  0
  8 10  1  0
 10 11  2  0
 11 12  1  0
 13 14  1  0
 13 21  1  0
 14 15  2  0
 14 16  1  0
 16 17  1  0
 17 18  1  0
 18 19  1  0
 19 20  1  0
 21 22  1  0
 21 26  2  0
 22 23  2  0
 23 24  1  0
 24 25  2  0
 25 26  1  0
M  END
>  <DRUGBANK_ID>  (1) 
DB18102

>  <COMMON_NAME>  (1) 
Nedometinib

>  <CAS_NUMBER>  (1) 
2252314-46-6

>  <UNII>  (1) 
K5T4I78IYZ

>  <SYNONYMS>  (1) 
2-((2-fluoro-4-iodophenyl)amino)-n-(2-hydroxyethoxy)-1-methyl-1h-pyrrolo(2,3-b)pyridine-3-carboxamide

$$$$
