
     RDKit          2D

 30 33  0  0  0  0  0  0  0  0999 V2000
   -2.4545   -0.3505    0.0000 C   0  0  0  0  0  0  0  0  0  0  0  0
   -2.4545   -1.1756    0.0000 C   0  0  0  0  0  0  0  0  0  0  0  0
   -1.7532   -1.5469    0.0000 C   0  0  0  0  0  0  0  0  0  0  0  0
   -1.0519   -1.1756    0.0000 C   0  0  0  0  0  0  0  0  0  0  0  0
   -1.0519   -0.3505    0.0000 C   0  0  0  0  0  0  0  0  0  0  0  0
   -1.7532    0.0619    0.0000 C   0  0  0  0  0  0  0  0  0  0  0  0
   -0.3506   -1.5469    0.0000 C   0  0  0  0  0  0  0  0  0  0  0  0
    0.3918   -1.1756    0.0000 C   0  0  0  0  0  0  0  0  0  0  0  0
    0.3918   -0.3505    0.0000 C   0  0  0  0  0  0  0  0  0  0  0  0
   -0.3506    0.0619    0.0000 C   0  0  0  0  0  0  0  0  0  0  0  0
    1.0932    0.0619    0.0000 C   0  0  0  0  0  0  0  0  0  0  0  0
    1.0932    0.8870    0.0000 C   0  0  0  0  0  0  0  0  0  0  0  0
    0.3918    1.2995    0.0000 C   0  0  0  0  0  0  0  0  0  0  0  0
   -0.3506    0.8870    0.0000 C   0  0  0  0  0  0  0  0  0  0  0  0
    1.8357   -0.1855    0.0000 C   0  0  0  0  0  0  0  0  0  0  0  0
    2.3308    0.4744    0.0000 C   0  0  0  0  0  0  0  0  0  0  0  0
    1.8357    1.1345    0.0000 C   0  0  0  0  0  0  0  0  0  0  0  0
   -3.1558   -1.5469    0.0000 O   0  0  0  0  0  0  0  0  0  0  0  0
   -1.0519    0.4744    0.0000 C   0  0  0  0  0  0  0  0  0  0  0  0
   -1.0519    1.2995    0.0000 O   0  0  0  0  0  0  0  0  0  0  0  0
    1.0932    1.7120    0.0000 C   0  0  0  0  0  0  0  0  0  0  0  0
   -0.3506   -0.7631    0.0000 F   0  0  0  0  0  0  0  0  0  0  0  0
   -0.3506   -2.3720    0.0000 F   0  0  0  0  0  0  0  0  0  0  0  0
    3.1558    0.4744    0.0000 C   0  0  0  0  0  0  0  0  0  0  0  0
    1.8357    1.9595    0.0000 C   0  0  0  0  0  0  0  0  0  0  0  0
    1.1213    2.3721    0.0000 S   0  0  0  0  0  0  0  0  0  0  0  0
    2.5503    2.3721    0.0000 O   0  0  0  0  0  0  0  0  0  0  0  0
    2.5503    1.5470    0.0000 O   0  0  0  0  0  0  0  0  0  0  0  0
    0.4067    1.9595    0.0000 C   0  0  0  0  0  0  0  0  0  0  0  0
   -0.3077    2.3721    0.0000 F   0  0  0  0  0  0  0  0  0  0  0  0
  1  2  1  0
  1  6  2  0
  2  3  1  0
  2 18  2  0
  3  4  2  0
  4  5  1  0
  4  7  1  0
  5  6  1  0
  5 10  1  0
  5 19  1  1
  7  8  1  0
  7 23  1  6
  9  8  1  6
  9 10  1  0
  9 11  1  0
 10 14  1  0
 10 22  1  6
 11 12  1  0
 11 15  1  1
 12 13  1  0
 12 17  1  0
 12 21  1  1
 13 14  1  0
 14 20  1  1
 15 16  1  0
 16 17  1  0
 16 24  1  6
 17 25  1  0
 17 28  1  6
 25 26  1  0
 25 27  2  0
 26 29  1  0
 29 30  1  0
M  END
>  <DRUGBANK_ID>  (1) 
DB13867

>  <COMMON_NAME>  (1) 
Fluticasone

>  <CAS_NUMBER>  (1) 
90566-53-3

>  <UNII>  (1) 
CUT2W21N7U

>  <SYNONYMS>  (1) 
Fluticason; Fluticasona; Fluticasone; Fluticasonum

$$$$
