
     RDKit          2D

 29 30  0  0  1  0  0  0  0  0999 V2000
    0.1265   -4.0888    0.0000 C   0  0  0  0  0  0  0  0  0  0  0  0
    0.4621   -3.3351    0.0000 C   0  0  0  0  0  0  0  0  0  0  0  0
   -0.0228   -2.6677    0.0000 C   0  0  0  0  0  0  0  0  0  0  0  0
    0.3127   -1.9140    0.0000 C   0  0  0  0  0  0  0  0  0  0  0  0
    1.1332   -1.8278    0.0000 O   0  0  0  0  0  0  0  0  0  0  0  0
   -0.1722   -1.2466    0.0000 N   0  0  0  0  0  0  0  0  0  0  0  0
   -0.9972   -1.2466    0.0000 C   0  0  0  0  0  0  0  0  0  0  0  0
   -1.2521   -0.4619    0.0000 C   0  0  0  0  0  0  0  0  0  0  0  0
   -0.5847    0.0230    0.0000 C   0  0  0  0  0  0  0  0  0  0  0  0
    0.0827   -0.4619    0.0000 C   0  0  0  0  0  0  0  0  0  0  0  0
    0.8674   -0.2070    0.0000 C   0  0  0  0  0  0  0  0  0  0  0  0
    1.4805   -0.7590    0.0000 O   0  0  0  0  0  0  0  0  0  0  0  0
    1.0389    0.6000    0.0000 N   0  0  0  0  0  0  0  0  0  0  0  0
    0.4869    1.2131    0.0000 C   0  0  0  0  0  0  0  0  0  0  0  0
    0.8994    1.9275    0.0000 C   0  0  0  0  0  0  0  0  0  0  0  0
    1.7063    1.7560    0.0000 C   0  0  0  0  0  0  0  0  0  0  0  0
    1.7926    0.9355    0.0000 C   0  0  0  0  0  0  0  0  0  0  0  0
    2.5070    0.5230    0.0000 C   0  0  0  0  0  0  0  0  0  0  0  0
    3.2215    0.9355    0.0000 O   0  0  0  0  0  0  0  0  0  0  0  0
    2.5070   -0.3020    0.0000 N   0  0  0  0  0  0  0  0  0  0  0  0
    3.2215   -0.7145    0.0000 C   0  0  0  0  0  0  0  0  0  0  0  0
    3.2215   -1.5395    0.0000 C   0  0  0  0  0  0  0  0  0  0  0  0
    3.9360   -1.9520    0.0000 C   0  0  0  0  0  0  0  0  0  0  0  0
    2.5070   -1.9520    0.0000 O   0  0  0  0  0  0  0  0  0  0  0  0
    3.9360   -0.3020    0.0000 C   0  0  0  0  0  0  0  0  0  0  0  0
    3.9360    0.5230    0.0000 O   0  0  0  0  0  0  0  0  0  0  0  0
    4.6505   -0.7145    0.0000 N   0  0  0  0  0  0  0  0  0  0  0  0
   -0.8433   -2.7539    0.0000 N   0  0  0  0  0  0  0  0  0  0  0  0
    1.2826   -3.2489    0.0000 O   0  0  0  0  0  0  0  0  0  0  0  0
  2  1  1  6
  2  3  1  0
  2 29  1  0
  3  4  1  0
  3 28  1  6
  4  5  2  0
  4  6  1  0
  6  7  1  0
  6 10  1  0
  7  8  1  0
  8  9  1  0
  9 10  1  0
 10 11  1  1
 11 12  2  0
 11 13  1  0
 13 14  1  0
 13 17  1  0
 14 15  1  0
 15 16  1  0
 16 17  1  0
 17 18  1  1
 18 19  2  0
 18 20  1  0
 21 20  1  6
 21 22  1  0
 21 25  1  0
 22 23  1  1
 22 24  1  0
 25 26  2  0
 25 27  1  0
M  END
>  <DRUGBANK_ID>  (1) 
DB11801

>  <COMMON_NAME>  (1) 
Rapastinel

>  <CAS_NUMBER>  (1) 
117928-94-6

>  <UNII>  (1) 
6A1X56B95E

>  <SYNONYMS>  (1) 
Rapastinel

$$$$
