W02
     RDKit          2D

 24 26  0  0  0  0  0  0  0  0999 V2000
   -3.6471    0.2757    0.0000 O   0  0  0  0  0  0  0  0  0  0  0  0
   -4.1992    0.8888    0.0000 N   0  0  0  0  0  0  0  0  0  0  0  0
   -3.7867    1.6032    0.0000 C   0  0  0  0  0  0  0  0  0  0  0  0
   -4.1222    2.3569    0.0000 C   0  0  0  0  0  0  0  0  0  0  0  0
   -2.9797    1.4317    0.0000 C   0  0  0  0  0  0  0  0  0  0  0  0
   -2.8935    0.6112    0.0000 C   0  0  0  0  0  0  0  0  0  0  0  0
   -2.1790    0.1987    0.0000 C   0  0  0  0  0  0  0  0  0  0  0  0
   -1.4645    0.6112    0.0000 C   0  0  0  0  0  0  0  0  0  0  0  0
   -0.7500    0.1987    0.0000 C   0  0  0  0  0  0  0  0  0  0  0  0
   -0.0356    0.6112    0.0000 O   0  0  0  0  0  0  0  0  0  0  0  0
    0.6789    0.1987    0.0000 C   0  0  0  0  0  0  0  0  0  0  0  0
    1.3934    0.6112    0.0000 C   0  0  0  0  0  0  0  0  0  0  0  0
    1.3934    1.4362    0.0000 C   0  0  0  0  0  0  0  0  0  0  0  0
    2.1078    0.1987    0.0000 C   0  0  0  0  0  0  0  0  0  0  0  0
    2.1078   -0.6263    0.0000 C   0  0  0  0  0  0  0  0  0  0  0  0
    1.3934   -1.0388    0.0000 C   0  0  0  0  0  0  0  0  0  0  0  0
    0.6789   -0.6263    0.0000 C   0  0  0  0  0  0  0  0  0  0  0  0
   -0.0356   -1.0388    0.0000 C   0  0  0  0  0  0  0  0  0  0  0  0
    2.8223   -1.0388    0.0000 N   0  0  0  0  0  0  0  0  0  0  0  0
    3.5760   -0.7032    0.0000 N   0  0  0  0  0  0  0  0  0  0  0  0
    2.9085   -1.8593    0.0000 N   0  0  0  0  0  0  0  0  0  0  0  0
    3.7155   -2.0308    0.0000 C   0  0  0  0  0  0  0  0  0  0  0  0
    4.0511   -2.7845    0.0000 C   0  0  0  0  0  0  0  0  0  0  0  0
    4.1280   -1.3163    0.0000 N   0  0  0  0  0  0  0  0  0  0  0  0
  1  2  1  0
  1  6  1  0
  2  3  2  0
  3  4  1  0
  3  5  1  0
  5  6  2  0
  6  7  1  0
  7  8  1  0
  8  9  1  0
  9 10  1  0
 10 11  1  0
 11 12  2  0
 11 17  1  0
 12 13  1  0
 12 14  1  0
 14 15  2  0
 15 16  1  0
 15 19  1  0
 16 17  2  0
 17 18  1  0
 19 20  1  0
 19 21  1  0
 20 24  2  0
 21 22  2  0
 22 23  1  0
 22 24  1  0
M  END
>  <DRUGBANK_ID>  (1) 
DB08714

>  <COMMON_NAME>  (1) 
2,6-DIMETHYL-1-(3-[3-METHYL-5-ISOXAZOLYL]-PROPANYL)-4-[4-METHYL-2H-TETRAZOL-2-YL]-PHENOL

>  <UNII>  (1) 
A5HE3QC9H5

$$$$
