
     RDKit          2D

  5  2  0  0  0  0  0  0  0  0999 V2000
   -1.3225    0.7132    0.0000 Cl  0  0  0  0  0  0  0  0  0  0  0  0
   -0.4985    0.6785    0.0000 O   0  0  0  0  0  0  0  0  0  0  0  0
   -1.2602   -0.6647    0.0000 Cl  0  0  0  0  0  0  0  0  0  0  0  0
   -0.4363   -0.7132    0.0000 O   0  0  0  0  0  0  0  0  0  0  0  0
    1.3225    0.1419    0.0000 Ca  0  0  0  0  0 15  0  0  0  0  0  0
  1  2  1  0
  3  4  1  0
M  CHG  3   2  -1   4  -1   5   2
M  END
>  <DRUGBANK_ID>  (1) 
DB15912

>  <COMMON_NAME>  (1) 
Calcium hypochlorite

>  <CAS_NUMBER>  (1) 
7778-54-3

>  <UNII>  (1) 
11DXB629VZ

>  <SYNONYMS>  (1) 
Chloride of lime; Chlorinated lime; Hipoclorito calcico; Hypochlorite de calcium; Hypochlorous acid, calcium salt

$$$$
