
     RDKit          2D

 35 40  0  0  0  0  0  0  0  0999 V2000
   -0.6668    2.7186    0.0000 C   0  0  0  0  0  0  0  0  0  0  0  0
    0.6668    2.7186    0.0000 C   0  0  0  0  0  0  0  0  0  0  0  0
    0.0000    3.2060    0.0000 N   0  0  0  0  0  0  0  0  0  0  0  0
   -1.4554    2.9751    0.0000 O   0  0  0  0  0  0  0  0  0  0  0  0
    1.4491    2.9751    0.0000 O   0  0  0  0  0  0  0  0  0  0  0  0
   -0.4103    1.9364    0.0000 C   0  0  0  0  0  0  0  0  0  0  0  0
    0.4104    1.9364    0.0000 C   0  0  0  0  0  0  0  0  0  0  0  0
    0.4104    0.5065    0.0000 C   0  0  0  0  0  0  0  0  0  0  0  0
    0.8271    1.2182    0.0000 C   0  0  0  0  0  0  0  0  0  0  0  0
   -0.8271    1.2182    0.0000 C   0  0  0  0  0  0  0  0  0  0  0  0
   -0.4103    0.5065    0.0000 C   0  0  0  0  0  0  0  0  0  0  0  0
    1.7184    0.2308    0.0000 C   0  0  0  0  0  0  0  0  0  0  0  0
    1.6350    1.0515    0.0000 C   0  0  0  0  0  0  0  0  0  0  0  0
    2.3019    1.5324    0.0000 C   0  0  0  0  0  0  0  0  0  0  0  0
    2.4750   -0.1089    0.0000 C   0  0  0  0  0  0  0  0  0  0  0  0
    3.1418    0.3782    0.0000 C   0  0  0  0  0  0  0  0  0  0  0  0
    3.0521    1.1990    0.0000 C   0  0  0  0  0  0  0  0  0  0  0  0
   -1.6350    1.0515    0.0000 C   0  0  0  0  0  0  0  0  0  0  0  0
   -1.7184    0.2308    0.0000 C   0  0  0  0  0  0  0  0  0  0  0  0
   -2.3018    1.5324    0.0000 C   0  0  0  0  0  0  0  0  0  0  0  0
   -3.0584    1.1990    0.0000 C   0  0  0  0  0  0  0  0  0  0  0  0
   -3.1418    0.3782    0.0000 C   0  0  0  0  0  0  0  0  0  0  0  0
   -2.4750   -0.1089    0.0000 C   0  0  0  0  0  0  0  0  0  0  0  0
   -0.9681   -0.1089    0.0000 N   0  0  0  0  0  0  0  0  0  0  0  0
    0.9617   -0.1089    0.0000 N   0  0  0  0  0  0  0  0  0  0  0  0
   -0.3847   -0.6925    0.0000 C   0  0  0  0  0  0  0  0  0  0  0  0
    0.3782   -0.6925    0.0000 C   0  0  0  0  0  0  0  0  0  0  0  0
    0.7950   -1.4042    0.0000 C   0  0  0  0  0  0  0  0  0  0  0  0
   -0.7950   -1.4042    0.0000 C   0  0  0  0  0  0  0  0  0  0  0  0
   -0.3847   -2.1224    0.0000 O   0  0  0  0  0  0  0  0  0  0  0  0
    0.3782   -2.1224    0.0000 C   0  0  0  0  0  0  0  0  0  0  0  0
    0.7950   -2.8341    0.0000 C   0  0  0  0  0  0  0  0  0  0  0  0
    2.1737   -3.2060    0.0000 C   0  0  0  0  0  0  0  0  0  0  0  0
    1.8017   -1.8275    0.0000 C   0  0  0  0  0  0  0  0  0  0  0  0
    1.5902   -2.6225    0.0000 N   0  0  0  0  0  0  0  0  0  0  0  0
  1  3  1  0
  1  6  1  0
  1  4  2  0
  2  3  1  0
  2  7  1  0
  2  5  2  0
  6 10  1  0
  6  7  2  0
  7  9  1  0
  8 25  1  0
  8  9  2  0
  9 13  1  0
 10 18  1  0
 10 11  2  0
 11 24  1  0
 12 25  1  0
 12 15  2  0
 12 13  1  0
 13 14  2  0
 14 17  1  0
 15 16  1  0
 16 17  2  0
 18 20  2  0
 18 19  1  0
 19 24  1  0
 19 23  2  0
 20 21  1  0
 21 22  2  0
 22 23  1  0
 24 26  1  0
 25 27  1  0
 26 29  1  0
 27 28  1  0
 28 31  1  0
 29 30  1  0
 30 31  1  0
 31 32  1  1
 32 35  1  0
 33 35  1  0
 34 35  1  0
M  END
>  <DRUGBANK_ID>  (1) 
DB11829

>  <COMMON_NAME>  (1) 
Ruboxistaurin

>  <CAS_NUMBER>  (1) 
169939-94-0

>  <UNII>  (1) 
721809WQCP

>  <SYNONYMS>  (1) 
Ruboxistaurin

$$$$
