
     RDKit          2D

 29 32  0  0  0  0  0  0  0  0999 V2000
   -3.5837    0.4168    0.0000 C   0  0  0  0  0  0  0  0  0  0  0  0
   -4.2970    0.0043    0.0000 C   0  0  0  0  0  0  0  0  0  0  0  0
   -4.2970   -0.8293    0.0000 N   0  0  0  0  0  0  0  0  0  0  0  0
   -3.5837   -1.2418    0.0000 C   0  0  0  0  0  0  0  0  0  0  0  0
   -2.8617   -0.8293    0.0000 C   0  0  0  0  0  0  0  0  0  0  0  0
   -2.8617    0.0043    0.0000 C   0  0  0  0  0  0  0  0  0  0  0  0
   -3.5837   -2.0668    0.0000 C   0  0  0  0  0  0  0  0  0  0  0  0
   -2.8617   -2.4793    0.0000 C   0  0  0  0  0  0  0  0  0  0  0  0
   -2.1484   -2.0668    0.0000 C   0  0  0  0  0  0  0  0  0  0  0  0
   -2.1484   -1.2418    0.0000 C   0  0  0  0  0  0  0  0  0  0  0  0
   -1.4352   -2.4793    0.0000 F   0  0  0  0  0  0  0  0  0  0  0  0
   -2.1484    0.4168    0.0000 C   0  0  0  0  0  0  0  0  0  0  0  0
   -1.4352    0.0043    0.0000 C   0  0  0  0  0  0  0  0  0  0  0  0
   -0.7132    0.4168    0.0000 C   0  0  0  0  0  0  0  0  0  0  0  0
   -0.7132    1.2418    0.0000 C   0  0  0  0  0  0  0  0  0  0  0  0
   -1.4352    1.6543    0.0000 C   0  0  0  0  0  0  0  0  0  0  0  0
   -2.1484    1.2418    0.0000 C   0  0  0  0  0  0  0  0  0  0  0  0
    0.0000    1.6543    0.0000 C   0  0  0  0  0  0  0  0  0  0  0  0
    0.7132    1.2418    0.0000 C   0  0  0  0  0  0  0  0  0  0  0  0
    1.4352    1.6543    0.0000 N   0  0  0  0  0  0  0  0  0  0  0  0
    0.7132    0.4168    0.0000 O   0  0  0  0  0  0  0  0  0  0  0  0
    2.1484    1.2418    0.0000 C   0  0  0  0  0  0  0  0  0  0  0  0
    2.1484    0.4168    0.0000 C   0  0  0  0  0  0  0  0  0  0  0  0
    2.8617    0.0043    0.0000 C   0  0  0  0  0  0  0  0  0  0  0  0
    3.5837    0.4168    0.0000 C   0  0  0  0  0  0  0  0  0  0  0  0
    3.5837    1.2418    0.0000 C   0  0  0  0  0  0  0  0  0  0  0  0
    2.8617    1.6543    0.0000 C   0  0  0  0  0  0  0  0  0  0  0  0
    4.2970    0.0043    0.0000 Cl  0  0  0  0  0  0  0  0  0  0  0  0
    0.0000    2.4793    0.0000 C   0  0  0  0  0  0  0  0  0  0  0  0
  1  2  2  0
  1  6  1  0
  2  3  1  0
  3  4  2  0
  4  5  1  0
  4  7  1  0
  5  6  2  0
  5 10  1  0
 12  6  1  6
  7  8  2  0
  8  9  1  0
  9 10  2  0
  9 11  1  0
 12 13  1  0
 12 17  1  0
 13 14  1  0
 15 14  1  6
 15 16  1  0
 15 18  1  0
 16 17  1  0
 18 19  1  0
 18 29  1  1
 19 20  1  0
 19 21  2  0
 20 22  1  0
 22 23  2  0
 22 27  1  0
 23 24  1  0
 24 25  2  0
 25 26  1  0
 25 28  1  0
 26 27  2  0
M  END
>  <DRUGBANK_ID>  (1) 
DB14986

>  <COMMON_NAME>  (1) 
Linrodostat

>  <CAS_NUMBER>  (1) 
1923833-60-6

>  <UNII>  (1) 
0A7729F42K

>  <SYNONYMS>  (1) 
Linrodostat

$$$$
