M3C
     RDKit          2D

 14 14  0  0  0  0  0  0  0  0999 V2000
    0.2329    1.1480    0.0000 N   0  0  0  0  0  0  0  0  0  0  0  0
    0.2329    0.3230    0.0000 C   0  0  0  0  0  0  0  0  0  0  0  0
   -0.4816   -0.0895    0.0000 C   0  0  0  0  0  0  0  0  0  0  0  0
   -1.1961    0.3230    0.0000 C   0  0  0  0  0  0  0  0  0  0  0  0
   -1.9106   -0.0895    0.0000 S   0  0  0  0  0  0  0  0  0  0  0  0
   -2.6250    0.3230    0.0000 C   0  0  0  0  0  0  0  0  0  0  0  0
    0.9473   -0.0895    0.0000 C   0  0  0  0  0  0  0  0  0  0  0  0
    0.5348   -0.8040    0.0000 O   0  0  0  0  0  0  0  0  0  0  0  0
    1.3598    0.6250    0.0000 O   0  0  0  0  0  0  0  0  0  0  0  0
    1.6618   -0.5020    0.0000 C   0  0  0  0  0  0  0  0  0  0  0  0
    2.4155   -0.1664    0.0000 N   0  0  0  0  0  0  0  0  0  0  0  0
    2.9675   -0.7795    0.0000 C   0  0  0  0  0  0  0  0  0  0  0  0
    2.5550   -1.4940    0.0000 C   0  0  0  0  0  0  0  0  0  0  0  0
    1.7480   -1.3225    0.0000 S   0  0  0  0  0  0  0  0  0  0  0  0
  2  1  1  6
  2  3  1  0
  2  7  1  0
  3  4  1  0
  4  5  1  0
  5  6  1  0
  7  8  1  0
  7  9  1  0
  7 10  1  0
 10 11  2  0
 10 14  1  0
 11 12  1  0
 12 13  2  0
 13 14  1  0
M  END
>  <DRUGBANK_ID>  (1) 
DB08160

>  <COMMON_NAME>  (1) 
(2S)-2-AMINO-4-(METHYLSULFANYL)-1-(1,3-THIAZOL-2-YL)BUTANE-1,1-DIOL

$$$$
