Sialyllactose.mol
     RDKit          2D

 13 14  0  0  0  0  0  0  0  0999 V2000
    2.2339    0.6269    0.0000 N   0  0  0  0  0  0  0  0  0  0  0  0
    1.6208    0.0749    0.0000 C   0  0  0  0  0  0  0  0  0  0  0  0
    0.8362    0.3298    0.0000 C   0  0  0  0  0  0  0  0  0  0  0  0
    0.2231   -0.2222    0.0000 C   0  0  0  0  0  0  0  0  0  0  0  0
    0.3093   -1.0427    0.0000 C   0  0  0  0  0  0  0  0  0  0  0  0
   -0.4444   -1.3783    0.0000 N   0  0  0  0  0  0  0  0  0  0  0  0
   -0.9964   -0.7652    0.0000 C   0  0  0  0  0  0  0  0  0  0  0  0
   -1.8214   -0.7652    0.0000 C   0  0  0  0  0  0  0  0  0  0  0  0
   -2.2339   -0.0507    0.0000 C   0  0  0  0  0  0  0  0  0  0  0  0
   -1.8214    0.6638    0.0000 C   0  0  0  0  0  0  0  0  0  0  0  0
   -2.2339    1.3783    0.0000 O   0  0  0  0  0  0  0  0  0  0  0  0
   -0.9964    0.6638    0.0000 C   0  0  0  0  0  0  0  0  0  0  0  0
   -0.5839   -0.0507    0.0000 C   0  0  0  0  0  0  0  0  0  0  0  0
  1  2  1  0
  2  3  1  0
  3  4  1  0
  4  5  2  0
  4 13  1  0
  5  6  1  0
  6  7  1  0
  7  8  1  0
  7 13  2  0
  8  9  2  0
  9 10  1  0
 10 11  1  0
 10 12  2  0
 12 13  1  0
M  END
>  <DRUGBANK_ID>  (1) 
DB08839

>  <COMMON_NAME>  (1) 
Serotonin

>  <CAS_NUMBER>  (1) 
50-67-9

>  <UNII>  (1) 
333DO1RDJY

>  <SYNONYMS>  (1) 
3-(2-Aminoethyl)-1H-indol-5-ol; 5-HT; 5-Hydroxytryptamine; Enteramine; s√©rotonine; thrombocytin; thrombotonin

$$$$
