
     RDKit          2D

 22 25  0  0  0  0  0  0  0  0999 V2000
    2.6505   -0.3622    0.0000 C   0  0  0  0  0  0  0  0  0  0  0  0
    1.1514   -1.3448    0.0000 C   0  0  0  0  0  0  0  0  0  0  0  0
    2.6505    0.9726    0.0000 C   0  0  0  0  0  0  0  0  0  0  0  0
    1.1514    1.1302    0.0000 C   0  0  0  0  0  0  0  0  0  0  0  0
    3.1354    0.3051    0.0000 C   0  0  0  0  0  0  0  0  0  0  0  0
   -0.2775   -0.5198    0.0000 C   0  0  0  0  0  0  0  0  0  0  0  0
    0.4369    0.7176    0.0000 C   0  0  0  0  0  0  0  0  0  0  0  0
    0.4369   -1.7573    0.0000 C   0  0  0  0  0  0  0  0  0  0  0  0
    2.9054    1.7573    0.0000 O   0  0  0  0  0  0  0  0  0  0  0  0
   -0.2775   -1.3448    0.0000 C   0  0  0  0  0  0  0  0  0  0  0  0
   -0.9920   -0.1073    0.0000 C   0  0  0  0  0  0  0  0  0  0  0  0
   -0.9920   -1.7573    0.0000 C   0  0  0  0  0  0  0  0  0  0  0  0
   -1.7064   -1.3448    0.0000 C   0  0  0  0  0  0  0  0  0  0  0  0
   -2.4210   -1.7573    0.0000 O   0  0  0  0  0  0  0  0  0  0  0  0
    1.1514   -0.5198    0.0000 C   0  0  0  0  0  0  0  0  0  0  0  0
    0.4369   -0.1073    0.0000 C   0  0  0  0  0  0  0  0  0  0  0  0
    1.8658    0.7176    0.0000 C   0  0  0  0  0  0  0  0  0  0  0  0
    1.8658    1.5426    0.0000 C   0  0  0  0  0  0  0  0  0  0  0  0
    1.8658   -0.1073    0.0000 C   0  0  0  0  0  0  0  0  0  0  0  0
   -1.7064   -0.5198    0.0000 C   0  0  0  0  0  0  0  0  0  0  0  0
   -2.4210   -0.1073    0.0000 O   0  0  0  0  0  0  0  0  0  0  0  0
   -3.1353   -0.5198    0.0000 C   0  0  0  0  0  0  0  0  0  0  0  0
  2  8  1  0
  3  9  1  1
  3  5  1  0
  4  7  1  0
  5  1  1  0
  6 10  2  0
  6 11  1  0
  8 10  1  0
 10 12  1  0
 11 20  2  0
 12 13  2  0
 13 14  1  0
 15 16  1  0
 15  2  1  6
 16  6  1  0
 16  7  1  1
 17  3  1  0
 17  4  1  0
 17 18  1  1
 19 15  1  0
 19 17  1  0
 19  1  1  1
 20 13  1  0
 20 21  1  0
 21 22  1  0
M  END
>  <DRUGBANK_ID>  (1) 
DB02342

>  <SECONDARY_ACCESSION_NUMBERS>  (1) 
EXPT01362

>  <COMMON_NAME>  (1) 
2-Methoxyestradiol

>  <CAS_NUMBER>  (1) 
362-07-2

>  <UNII>  (1) 
6I2QW73SR5

>  <SYNONYMS>  (1) 
2-Hydroxyestradiol 2-methyl ether; 2-Hydroxyestradol 2-methyl ether; 2-ME2; 2-methoxy-17Î²-estradiol; 2-Methoxyestradiol-17beta; 2ME2

$$$$
