M03
     RDKit          2D

 24 27  0  0  0  0  0  0  0  0999 V2000
    4.3194    4.0652    0.0000 N   0  0  0  0  0  0  0  0  0  0  0  0
    3.6049    4.4777    0.0000 C   0  0  0  0  0  0  0  0  0  0  0  0
    3.6049    5.3027    0.0000 C   0  0  0  0  0  0  0  0  0  0  0  0
    4.3194    5.7152    0.0000 C   0  0  0  0  0  0  0  0  0  0  0  0
    3.7891    6.3472    0.0000 C   0  0  0  0  0  0  0  0  0  0  0  0
    4.0712    7.1225    0.0000 N   0  0  0  0  0  0  0  0  0  0  0  0
    5.0338    5.3027    0.0000 C   0  0  0  0  0  0  0  0  0  0  0  0
    5.0338    4.4777    0.0000 C   0  0  0  0  0  0  0  0  0  0  0  0
    4.8497    6.3472    0.0000 C   0  0  0  0  0  0  0  0  0  0  0  0
    4.5675    7.1225    0.0000 C   0  0  0  0  0  0  0  0  0  0  0  0
    5.0978    7.7544    0.0000 C   0  0  0  0  0  0  0  0  0  0  0  0
    5.9103    7.6112    0.0000 C   0  0  0  0  0  0  0  0  0  0  0  0
    6.4406    8.2432    0.0000 Cl  0  0  0  0  0  0  0  0  0  0  0  0
    6.1924    6.8359    0.0000 C   0  0  0  0  0  0  0  0  0  0  0  0
    5.6621    6.2040    0.0000 C   0  0  0  0  0  0  0  0  0  0  0  0
    4.3194    3.2402    0.0000 C   0  0  0  0  0  0  0  0  0  0  0  0
    5.0338    2.8277    0.0000 N   0  0  0  0  0  0  0  0  0  0  0  0
    5.0338    2.0027    0.0000 C   0  0  0  0  0  0  0  0  0  0  0  0
    4.3194    1.5902    0.0000 N   0  0  0  0  0  0  0  0  0  0  0  0
    3.6049    2.0027    0.0000 C   0  0  0  0  0  0  0  0  0  0  0  0
    2.8203    1.7478    0.0000 N   0  0  0  0  0  0  0  0  0  0  0  0
    2.3354    2.4152    0.0000 C   0  0  0  0  0  0  0  0  0  0  0  0
    2.8203    3.0827    0.0000 C   0  0  0  0  0  0  0  0  0  0  0  0
    3.6049    2.8277    0.0000 C   0  0  0  0  0  0  0  0  0  0  0  0
  1  2  1  0
  1  8  1  0
  1 16  1  0
  2  3  1  0
  3  4  1  0
  4  5  1  0
  4  7  1  0
  4  9  1  0
  5  6  1  0
  7  8  1  0
  9 10  2  0
  9 15  1  0
 10 11  1  0
 11 12  2  0
 12 13  1  0
 12 14  1  0
 14 15  2  0
 16 17  2  0
 16 24  1  0
 17 18  1  0
 18 19  2  0
 19 20  1  0
 20 21  1  0
 20 24  2  0
 21 22  1  0
 22 23  2  0
 23 24  1  0
M  END
>  <DRUGBANK_ID>  (1) 
DB08148

>  <COMMON_NAME>  (1) 
1-[4-(4-chlorophenyl)-1-(7H-pyrrolo[2,3-d]pyrimidin-4-yl)piperidin-4-yl]methanamine

$$$$
