
     RDKit          2D

 36 40  0  0  0  0  0  0  0  0999 V2000
    0.4741   -0.8250    0.0000 C   0  0  0  0  0  0  0  0  0  0  0  0
   -0.2403   -0.4123    0.0000 N   0  0  0  0  0  0  0  0  0  0  0  0
   -0.2403    0.4124    0.0000 C   0  0  0  0  0  0  0  0  0  0  0  0
    0.4741    0.8250    0.0000 S   0  0  0  0  0  0  0  0  0  0  0  0
    1.1884    0.4124    0.0000 C   0  0  0  0  0  0  0  0  0  0  0  0
    1.1884   -0.4123    0.0000 C   0  0  0  0  0  0  0  0  0  0  0  0
   -1.0653    0.4124    0.0000 C   0  0  0  0  0  0  0  0  0  0  0  0
   -1.0653   -0.4123    0.0000 C   0  0  0  0  0  0  0  0  0  0  0  0
   -1.6487   -0.9958    0.0000 O   0  0  0  0  0  0  0  0  0  0  0  0
    0.4741   -1.6500    0.0000 C   0  0  0  0  0  0  0  0  0  0  0  0
    1.1884   -2.0624    0.0000 O   0  0  0  0  0  0  0  0  0  0  0  0
   -0.2403   -2.0624    0.0000 O   0  0  0  0  0  0  0  0  0  0  0  0
    1.9030   -0.8250    0.0000 C   0  0  0  0  0  0  0  0  0  0  0  0
    2.6175   -0.4123    0.0000 C   0  0  0  0  0  0  0  0  0  0  0  0
    2.7036    0.4079    0.0000 C   0  0  0  0  0  0  0  0  0  0  0  0
    3.5107    0.5795    0.0000 C   0  0  0  0  0  0  0  0  0  0  0  0
    3.9233   -0.1349    0.0000 N   0  0  0  0  0  0  0  0  0  0  0  0
    3.3712   -0.7479    0.0000 C   0  0  0  0  0  0  0  0  0  0  0  0
    3.5427   -1.5549    0.0000 O   0  0  0  0  0  0  0  0  0  0  0  0
    4.7437   -0.2211    0.0000 C   0  0  0  0  0  0  0  0  0  0  0  0
    5.2957    0.3919    0.0000 C   0  0  0  0  0  0  0  0  0  0  0  0
    6.0494    0.0564    0.0000 N   0  0  0  0  0  0  0  0  0  0  0  0
    5.9631   -0.7640    0.0000 C   0  0  0  0  0  0  0  0  0  0  0  0
    5.1562   -0.9357    0.0000 C   0  0  0  0  0  0  0  0  0  0  0  0
   -1.7798    0.8250    0.0000 N   0  0  0  0  0  0  0  0  0  0  0  0
   -2.4943    0.4124    0.0000 C   0  0  0  0  0  0  0  0  0  0  0  0
   -3.2087    0.8250    0.0000 C   0  0  0  0  0  0  0  0  0  0  0  0
   -2.4943   -0.4123    0.0000 O   0  0  0  0  0  0  0  0  0  0  0  0
   -3.9233    0.4124    0.0000 C   0  0  0  0  0  0  0  0  0  0  0  0
   -3.2087    1.6500    0.0000 N   0  0  0  0  0  0  0  0  0  0  0  0
   -2.4943    2.0624    0.0000 O   0  0  0  0  0  0  0  0  0  0  0  0
   -4.0095   -0.4079    0.0000 N   0  0  0  0  0  0  0  0  0  0  0  0
   -4.8165   -0.5795    0.0000 S   0  0  0  0  0  0  0  0  0  0  0  0
   -5.2289    0.1350    0.0000 C   0  0  0  0  0  0  0  0  0  0  0  0
   -4.6770    0.7480    0.0000 N   0  0  0  0  0  0  0  0  0  0  0  0
   -6.0494    0.2211    0.0000 N   0  0  0  0  0  0  0  0  0  0  0  0
  1  2  1  0
  1  6  2  0
  1 10  1  0
  2  3  1  0
  3  4  1  1
  3  7  1  0
  4  5  1  0
  5  6  1  0
  6 13  1  0
  7  8  1  0
  7 25  1  1
  8  2  1  0
  8  9  2  0
 10 11  1  0
 10 12  2  0
 13 14  2  0
 14 15  1  0
 14 18  1  0
 15 16  1  0
 16 17  1  0
 17 18  1  0
 18 19  2  0
 20 17  1  1
 20 21  1  0
 20 24  1  0
 21 22  1  0
 22 23  1  0
 23 24  1  0
 25 26  1  0
 26 27  1  0
 26 28  2  0
 27 29  1  0
 27 30  2  0
 29 32  2  0
 29 35  1  0
 30 31  1  0
 32 33  1  0
 33 34  1  0
 34 35  2  0
 34 36  1  0
M  END
>  <DRUGBANK_ID>  (1) 
DB04918

>  <COMMON_NAME>  (1) 
Ceftobiprole

>  <CAS_NUMBER>  (1) 
209467-52-7

>  <UNII>  (1) 
5T97333YZK

>  <SYNONYMS>  (1) 
Ceftobiprol; Ceftobiprole

$$$$
