
     RDKit          2D

 36 38  0  0  1  0  0  0  0  0999 V2000
   -2.3895    1.6416    0.0000 C   0  0  0  0  0  0  0  0  0  0  0  0
   -2.3895    0.8166    0.0000 C   0  0  0  0  0  0  0  0  0  0  0  0
   -3.1039    0.4041    0.0000 C   0  0  0  0  0  0  0  0  0  0  0  0
   -3.8576    0.7397    0.0000 C   0  0  0  0  0  0  0  0  0  0  0  0
   -4.4097    0.1266    0.0000 C   0  0  0  0  0  0  0  0  0  0  0  0
   -3.9972   -0.5879    0.0000 C   0  0  0  0  0  0  0  0  0  0  0  0
   -3.1902   -0.4164    0.0000 C   0  0  0  0  0  0  0  0  0  0  0  0
   -2.6382   -1.0295    0.0000 C   0  0  0  0  0  0  0  0  0  0  0  0
   -2.8931   -1.8141    0.0000 C   0  0  0  0  0  0  0  0  0  0  0  0
   -3.7001   -1.9856    0.0000 C   0  0  0  0  0  0  0  0  0  0  0  0
   -4.2521   -1.3725    0.0000 C   0  0  0  0  0  0  0  0  0  0  0  0
   -5.0591   -1.5440    0.0000 C   0  0  0  0  0  0  0  0  0  0  0  0
   -5.3140   -2.3287    0.0000 C   0  0  0  0  0  0  0  0  0  0  0  0
   -6.1210   -2.5002    0.0000 C   0  0  0  0  0  0  0  0  0  0  0  0
   -6.3759   -3.2848    0.0000 C   0  0  0  0  0  0  0  0  0  0  0  0
   -7.1829   -3.4563    0.0000 C   0  0  0  0  0  0  0  0  0  0  0  0
   -7.7349   -2.8432    0.0000 C   0  0  0  0  0  0  0  0  0  0  0  0
   -7.4800   -2.0586    0.0000 C   0  0  0  0  0  0  0  0  0  0  0  0
   -6.6730   -1.8871    0.0000 C   0  0  0  0  0  0  0  0  0  0  0  0
   -6.4181   -1.1025    0.0000 C   0  0  0  0  0  0  0  0  0  0  0  0
   -8.0320   -1.4455    0.0000 O   0  0  0  0  0  0  0  0  0  0  0  0
   -7.4378   -4.2410    0.0000 O   0  0  0  0  0  0  0  0  0  0  0  0
   -2.4056   -0.1614    0.0000 C   0  0  0  0  0  0  0  0  0  0  0  0
   -1.6750    0.4041    0.0000 O   0  0  0  0  0  0  0  0  0  0  0  0
   -0.9605    0.8166    0.0000 C   0  0  0  0  0  0  0  0  0  0  0  0
   -0.2461    0.4041    0.0000 C   0  0  0  0  0  0  0  0  0  0  0  0
   -0.2461   -0.4209    0.0000 O   0  0  0  0  0  0  0  0  0  0  0  0
    0.4684    0.8166    0.0000 N   0  0  0  0  0  0  0  0  0  0  0  0
    1.1829    0.4041    0.0000 C   0  0  0  0  0  0  0  0  0  0  0  0
    1.8973    0.8166    0.0000 C   0  0  0  0  0  0  0  0  0  0  0  0
    2.6118    1.2291    0.0000 C   0  0  0  0  0  0  0  0  0  0  0  0
    3.3263    1.6416    0.0000 F   0  0  0  0  0  0  0  0  0  0  0  0
    3.0243    0.5146    0.0000 F   0  0  0  0  0  0  0  0  0  0  0  0
    2.1993    1.9436    0.0000 F   0  0  0  0  0  0  0  0  0  0  0  0
    2.3098    0.1021    0.0000 F   0  0  0  0  0  0  0  0  0  0  0  0
    1.4848    1.5311    0.0000 F   0  0  0  0  0  0  0  0  0  0  0  0
  2  1  1  6
  2  3  1  0
  2 24  1  0
  3  4  2  0
  3  7  1  0
  4  5  1  0
  6  5  1  6
  6  7  1  0
  6 11  1  0
  7  8  1  0
  7 23  1  6
  8  9  1  0
  9 10  1  0
 10 11  1  0
 11 12  2  0
 12 13  1  0
 13 14  2  0
 14 15  1  0
 14 19  1  0
 15 16  1  0
 16 17  1  0
 16 22  1  1
 17 18  1  0
 18 19  1  0
 18 21  1  6
 19 20  2  0
 24 25  1  0
 25 26  1  0
 26 27  2  0
 26 28  1  0
 28 29  1  0
 29 30  1  0
 30 31  1  0
 30 35  1  0
 30 36  1  0
 31 32  1  0
 31 33  1  0
 31 34  1  0
M  END
>  <DRUGBANK_ID>  (1) 
DB11786

>  <COMMON_NAME>  (1) 
Pefcalcitol

>  <CAS_NUMBER>  (1) 
381212-03-9

>  <UNII>  (1) 
KT5224XSHW

>  <SYNONYMS>  (1) 
Pefcalcitol

$$$$
