
     RDKit          2D

 10  9  0  0  0  0  0  0  0  0999 V2000
    0.3572    1.0312    0.0000 O   0  0  0  0  0  0  0  0  0  0  0  0
    0.3572    0.2062    0.0000 C   0  0  0  0  0  0  0  0  0  0  0  0
   -0.3572   -0.2062    0.0000 C   0  0  0  0  0  0  0  0  0  0  0  0
   -0.3572   -1.0312    0.0000 O   0  0  0  0  0  0  0  0  0  0  0  0
   -1.0717    0.2062    0.0000 C   0  0  0  0  0  0  0  0  0  0  0  0
   -1.7861   -0.2062    0.0000 O   0  0  0  0  0  0  0  0  0  0  0  0
   -1.0717    1.0312    0.0000 O   0  0  0  0  0  0  0  0  0  0  0  0
    1.0717   -0.2062    0.0000 C   0  0  0  0  0  0  0  0  0  0  0  0
    1.7861    0.2062    0.0000 O   0  0  0  0  0  0  0  0  0  0  0  0
    1.0717   -1.0312    0.0000 O   0  0  0  0  0  0  0  0  0  0  0  0
  2  1  1  1
  2  3  1  0
  2  8  1  0
  3  4  1  6
  3  5  1  0
  5  6  2  0
  5  7  1  0
  8  9  2  0
  8 10  1  0
M  END
>  <DRUGBANK_ID>  (1) 
DB14756

>  <COMMON_NAME>  (1) 
meso-Tartaric acid

>  <CAS_NUMBER>  (1) 
147-73-9

>  <UNII>  (1) 
JQO211TF1A

>  <SYNONYMS>  (1) 
(2R,3S)-2,3-dihydroxysuccinic acid; (2R,3S)-tartaric acid; (R,S)-Tartaric acid; Erythraric acid; i-Tartaric acid; m-tartaric acid; mesotartaric acid; Mesoweins√§ure

$$$$
