
     RDKit          2D

 24 27  0  0  0  0  0  0  0  0999 V2000
    1.7916    1.2406    0.0000 O   0  0  0  0  0  0  0  0  0  0  0  0
   -3.2224   -2.4522    0.0000 O   0  0  0  0  0  0  0  0  0  0  0  0
    2.5005    2.4715    0.0000 O   0  0  0  0  0  0  0  0  0  0  0  0
    0.3479   -1.2212    0.0000 C   0  0  0  0  0  0  0  0  0  0  0  0
    1.0633   -0.8152    0.0000 C   0  0  0  0  0  0  0  0  0  0  0  0
   -0.3608   -0.8088    0.0000 C   0  0  0  0  0  0  0  0  0  0  0  0
    1.0698    0.0096    0.0000 C   0  0  0  0  0  0  0  0  0  0  0  0
   -1.0763   -1.2148    0.0000 C   0  0  0  0  0  0  0  0  0  0  0  0
    0.3479   -2.0462    0.0000 C   0  0  0  0  0  0  0  0  0  0  0  0
   -0.3544    0.0160    0.0000 C   0  0  0  0  0  0  0  0  0  0  0  0
   -1.0827   -2.0462    0.0000 C   0  0  0  0  0  0  0  0  0  0  0  0
    1.7852    0.4156    0.0000 C   0  0  0  0  0  0  0  0  0  0  0  0
    0.3608    0.4221    0.0000 C   0  0  0  0  0  0  0  0  0  0  0  0
    2.4876   -0.8345    0.0000 C   0  0  0  0  0  0  0  0  0  0  0  0
   -0.3673   -2.4587    0.0000 C   0  0  0  0  0  0  0  0  0  0  0  0
    2.5005   -0.0032    0.0000 C   0  0  0  0  0  0  0  0  0  0  0  0
   -1.7916   -0.8023    0.0000 C   0  0  0  0  0  0  0  0  0  0  0  0
    1.0698    0.8410    0.0000 C   0  0  0  0  0  0  0  0  0  0  0  0
   -1.7916   -2.4587    0.0000 C   0  0  0  0  0  0  0  0  0  0  0  0
    1.0762   -2.4715    0.0000 C   0  0  0  0  0  0  0  0  0  0  0  0
   -2.5005   -1.2148    0.0000 C   0  0  0  0  0  0  0  0  0  0  0  0
   -2.5005   -2.0462    0.0000 C   0  0  0  0  0  0  0  0  0  0  0  0
    2.5070    1.6530    0.0000 C   0  0  0  0  0  0  0  0  0  0  0  0
    3.2224    1.2406    0.0000 C   0  0  0  0  0  0  0  0  0  0  0  0
  1 23  1  0
  2 22  2  0
  3 23  2  0
  4  5  1  0
  4  6  1  0
  4  9  1  6
  5  7  1  0
  5 14  1  1
  6  8  1  0
  6 10  1  1
  7 12  1  0
  7 13  1  0
  7 18  1  1
  8 11  1  0
  8 17  1  6
  9 15  1  0
  9 20  1  6
 10 13  1  0
 11 15  1  0
 11 19  2  0
 12  1  1  1
 12 16  1  0
 14 16  1  0
 17 21  1  0
 19 22  1  0
 21 22  1  0
 23 24  1  0
M  END
>  <DRUGBANK_ID>  (1) 
DB13958

>  <COMMON_NAME>  (1) 
Trestolone acetate

>  <CAS_NUMBER>  (1) 
6157-87-5

>  <UNII>  (1) 
52XDF4N1XL

>  <SYNONYMS>  (1) 
17beta-Hydroxy-7alpha-methylestr-4-en-3-one acetate; 17β-Hydroxy-7α-methylestr-4-en-3-one acetate; 7α-methyl-19-nortestosterone 17β-acetate; 7α-Methyl-19-nortestosterone acetate; Orgasteron acetate; Trestolone acetate

$$$$
