
     RDKit          2D

 22 22  0  0  0  0  0  0  0  0999 V2000
   -1.0719   -0.2037    0.0000 C   0  0  0  0  0  0  0  0  0  0  0  0
   -1.0719   -1.0288    0.0000 C   0  0  0  0  0  0  0  0  0  0  0  0
   -0.3574    0.2087    0.0000 C   0  0  0  0  0  0  0  0  0  0  0  0
   -0.3574   -1.4413    0.0000 C   0  0  0  0  0  0  0  0  0  0  0  0
    0.3569   -0.2037    0.0000 C   0  0  0  0  0  0  0  0  0  0  0  0
    0.3569   -1.0288    0.0000 C   0  0  0  0  0  0  0  0  0  0  0  0
   -1.7869   -1.4407    0.0000 C   0  0  0  0  0  0  0  0  0  0  0  0
   -2.5010   -1.0274    0.0000 C   0  0  0  0  0  0  0  0  0  0  0  0
   -3.2159   -1.4394    0.0000 C   0  0  0  0  0  0  0  0  0  0  0  0
   -3.9300   -1.0260    0.0000 C   0  0  0  0  0  0  0  0  0  0  0  0
    1.0721    0.2074    0.0000 C   0  0  0  0  0  0  0  0  0  0  0  0
    1.7859   -0.2062    0.0000 C   0  0  0  0  0  0  0  0  0  0  0  0
    2.5012    0.2050    0.0000 C   0  0  0  0  0  0  0  0  0  0  0  0
    3.2149   -0.2086    0.0000 C   0  0  0  0  0  0  0  0  0  0  0  0
    3.9301    0.2025    0.0000 O   0  0  0  0  0  0  0  0  0  0  0  0
    2.5026    1.0299    0.0000 C   0  0  0  0  0  0  0  0  0  0  0  0
    3.2178    1.4413    0.0000 O   0  0  0  0  0  0  0  0  0  0  0  0
    2.5012   -0.6200    0.0000 N   0  0  0  0  0  0  0  0  0  0  0  0
   -2.5010   -0.2023    0.0000 C   0  0  0  0  0  0  0  0  0  0  0  0
   -3.2156    0.2101    0.0000 C   0  0  0  0  0  0  0  0  0  0  0  0
   -3.9301   -0.2023    0.0000 C   0  0  0  0  0  0  0  0  0  0  0  0
   -1.7864    0.2101    0.0000 C   0  0  0  0  0  0  0  0  0  0  0  0
  2  1  2  0
  3  1  1  0
  4  2  1  0
  5  3  2  0
  6  4  2  0
  6  5  1  0
  7  2  1  0
  8  7  1  0
  9  8  1  0
 10 21  1  0
 10  9  1  0
 11  5  1  0
 12 11  1  0
 13 12  1  0
 13 16  1  0
 13 18  1  0
 14 13  1  0
 15 14  1  0
 16 17  1  0
 19 22  1  0
 20 19  1  0
 21 20  1  0
M  END
>  <DRUGBANK_ID>  (1) 
DB08868

>  <COMMON_NAME>  (1) 
Fingolimod

>  <CAS_NUMBER>  (1) 
162359-55-9

>  <UNII>  (1) 
3QN8BYN5QF

>  <SYNONYMS>  (1) 
Fingolimod; Fingolimodum

$$$$
