7X1
     RDKit          2D

 33 37  0  0  0  0  0  0  0  0999 V2000
    5.2983    6.2279    0.0000 C   0  0  0  0  0  0  0  0  0  0  0  0
    6.0128    6.6404    0.0000 O   0  0  0  0  0  0  0  0  0  0  0  0
    6.7273    6.2279    0.0000 C   0  0  0  0  0  0  0  0  0  0  0  0
    7.4417    6.6404    0.0000 C   0  0  0  0  0  0  0  0  0  0  0  0
    8.1562    6.2279    0.0000 C   0  0  0  0  0  0  0  0  0  0  0  0
    8.8707    6.6404    0.0000 C   0  0  0  0  0  0  0  0  0  0  0  0
    8.8707    7.4654    0.0000 N   0  0  0  0  0  0  0  0  0  0  0  0
    9.5851    7.8779    0.0000 C   0  0  0  0  0  0  0  0  0  0  0  0
    9.5851    8.7029    0.0000 C   0  0  0  0  0  0  0  0  0  0  0  0
    8.9720    9.2549    0.0000 O   0  0  0  0  0  0  0  0  0  0  0  0
    9.3076   10.0086    0.0000 C   0  0  0  0  0  0  0  0  0  0  0  0
   10.1281    9.9223    0.0000 O   0  0  0  0  0  0  0  0  0  0  0  0
   10.2996    9.1154    0.0000 C   0  0  0  0  0  0  0  0  0  0  0  0
   11.0141    8.7029    0.0000 C   0  0  0  0  0  0  0  0  0  0  0  0
   11.0141    7.8779    0.0000 C   0  0  0  0  0  0  0  0  0  0  0  0
   10.2996    7.4654    0.0000 C   0  0  0  0  0  0  0  0  0  0  0  0
   10.2996    6.6404    0.0000 Cl  0  0  0  0  0  0  0  0  0  0  0  0
    9.5851    6.2279    0.0000 N   0  0  0  0  0  0  0  0  0  0  0  0
    9.5851    5.4029    0.0000 C   0  0  0  0  0  0  0  0  0  0  0  0
    8.8707    4.9904    0.0000 N   0  0  0  0  0  0  0  0  0  0  0  0
    8.1562    5.4029    0.0000 C   0  0  0  0  0  0  0  0  0  0  0  0
    7.4417    4.9904    0.0000 C   0  0  0  0  0  0  0  0  0  0  0  0
    6.7273    5.4029    0.0000 C   0  0  0  0  0  0  0  0  0  0  0  0
    6.0128    4.9904    0.0000 O   0  0  0  0  0  0  0  0  0  0  0  0
    6.0128    4.1654    0.0000 C   0  0  0  0  0  0  0  0  0  0  0  0
    5.2983    3.7529    0.0000 C   0  0  0  0  0  0  0  0  0  0  0  0
    5.2983    2.9279    0.0000 C   0  0  0  0  0  0  0  0  0  0  0  0
    4.5838    2.5154    0.0000 N   0  0  0  0  0  0  0  0  0  0  0  0
    4.5838    1.6904    0.0000 C   0  0  0  0  0  0  0  0  0  0  0  0
    3.8694    1.2779    0.0000 C   0  0  0  0  0  0  0  0  0  0  0  0
    3.1549    1.6904    0.0000 C   0  0  0  0  0  0  0  0  0  0  0  0
    3.1549    2.5154    0.0000 C   0  0  0  0  0  0  0  0  0  0  0  0
    3.8694    2.9279    0.0000 C   0  0  0  0  0  0  0  0  0  0  0  0
  1  2  1  0
  2  3  1  0
  3  4  2  0
  3 23  1  0
  4  5  1  0
  5  6  2  0
  5 21  1  0
  6  7  1  0
  6 18  1  0
  7  8  1  0
  8  9  2  0
  8 16  1  0
  9 10  1  0
  9 13  1  0
 10 11  1  0
 11 12  1  0
 12 13  1  0
 13 14  2  0
 14 15  1  0
 15 16  2  0
 16 17  1  0
 18 19  2  0
 19 20  1  0
 20 21  2  0
 21 22  1  0
 22 23  2  0
 23 24  1  0
 24 25  1  0
 25 26  1  0
 26 27  1  0
 27 28  1  0
 28 29  1  0
 28 33  1  0
 29 30  1  0
 30 31  1  0
 31 32  1  0
 32 33  1  0
M  END
>  <DRUGBANK_ID>  (1) 
DB07249

>  <COMMON_NAME>  (1) 
N-(5-chloro-1,3-benzodioxol-4-yl)-6-methoxy-7-(3-piperidin-1-ylpropoxy)quinazolin-4-amine

$$$$
