UI2
     RDKit          2D

 20 22  0  0  0  0  0  0  0  0999 V2000
   -1.1368   -1.3757    0.0000 C   0  0  0  0  0  0  0  0  0  0  0  0
   -0.4223   -1.7882    0.0000 C   0  0  0  0  0  0  0  0  0  0  0  0
    0.2921   -1.3757    0.0000 C   0  0  0  0  0  0  0  0  0  0  0  0
    0.2921   -0.5507    0.0000 C   0  0  0  0  0  0  0  0  0  0  0  0
   -0.4223   -0.1382    0.0000 C   0  0  0  0  0  0  0  0  0  0  0  0
   -1.1368   -0.5507    0.0000 C   0  0  0  0  0  0  0  0  0  0  0  0
    1.0066   -1.7882    0.0000 C   0  0  0  0  0  0  0  0  0  0  0  0
    1.7211   -1.3757    0.0000 C   0  0  0  0  0  0  0  0  0  0  0  0
    1.7211   -0.5507    0.0000 C   0  0  0  0  0  0  0  0  0  0  0  0
    1.0066   -0.1382    0.0000 C   0  0  0  0  0  0  0  0  0  0  0  0
   -0.4223    0.6868    0.0000 N   0  0  0  0  0  0  0  0  0  0  0  0
   -1.1368    1.0993    0.0000 C   0  0  0  0  0  0  0  0  0  0  0  0
   -1.8513    0.6868    0.0000 N   0  0  0  0  0  0  0  0  0  0  0  0
   -2.5658    1.0993    0.0000 C   0  0  0  0  0  0  0  0  0  0  0  0
   -2.5658    1.9243    0.0000 C   0  0  0  0  0  0  0  0  0  0  0  0
   -1.8513    2.3368    0.0000 C   0  0  0  0  0  0  0  0  0  0  0  0
   -1.1368    1.9243    0.0000 N   0  0  0  0  0  0  0  0  0  0  0  0
    2.4355   -0.1382    0.0000 C   0  0  0  0  0  0  0  0  0  0  0  0
    2.4355    0.6868    0.0000 N   0  0  0  0  0  0  0  0  0  0  0  0
    3.1500   -0.5507    0.0000 N   0  0  0  0  0  0  0  0  0  0  0  0
  1  2  2  0
  1  6  1  0
  2  3  1  0
  3  4  2  0
  3  7  1  0
  4  5  1  0
  4 10  1  0
  5  6  2  0
  5 11  1  0
  7  8  2  0
  8  9  1  0
  9 10  2  0
  9 18  1  0
 11 12  1  0
 12 13  2  0
 12 17  1  0
 13 14  1  0
 14 15  2  0
 15 16  1  0
 16 17  2  0
 18 19  2  0
 18 20  1  0
M  END
>  <DRUGBANK_ID>  (1) 
DB04059

>  <SECONDARY_ACCESSION_NUMBERS>  (1) 
EXPT03179

>  <COMMON_NAME>  (1) 
8-(Pyrimidin-2-Ylamino)Naphthalene-2-Carboximidamide

$$$$
