
     RDKit          2D

 27 24  0  0  0  0  0  0  0  0999 V2000
    0.4375   -1.5638    0.0000 C   0  0  0  0  0  0  0  0  0  0  0  0
    1.1836   -1.9649    0.0000 C   0  0  0  0  0  0  0  0  0  0  0  0
   -0.2636   -1.9649    0.0000 C   0  0  0  0  0  0  0  0  0  0  0  0
    1.9045   -1.5048    0.0000 C   0  0  0  0  0  0  0  0  0  0  0  0
   -0.9845   -1.5638    0.0000 C   0  0  0  0  0  0  0  0  0  0  0  0
    2.6058   -1.9283    0.0000 C   0  0  0  0  0  0  0  0  0  0  0  0
   -1.6773   -2.0097    0.0000 C   0  0  0  0  0  0  0  0  0  0  0  0
    3.3266   -1.5048    0.0000 C   0  0  0  0  0  0  0  0  0  0  0  0
   -2.3954   -1.6142    0.0000 C   0  0  0  0  0  0  0  0  0  0  0  0
    4.0812   -1.8835    0.0000 C   0  0  0  0  0  0  0  0  0  0  0  0
   -2.4262   -0.7643    0.0000 O   0  0  0  0  0  0  0  0  0  0  0  0
   -3.1415   -2.0518    0.0000 O   0  0  0  0  0  0  0  0  0  0  0  0
    4.7909   -1.4655    0.0000 C   0  0  0  0  0  0  0  0  0  0  0  0
    0.3057    1.2524    0.0000 C   0  0  0  0  0  0  0  0  0  0  0  0
    1.0518    0.8512    0.0000 C   0  0  0  0  0  0  0  0  0  0  0  0
   -0.3955    0.8512    0.0000 C   0  0  0  0  0  0  0  0  0  0  0  0
    1.7727    1.3113    0.0000 C   0  0  0  0  0  0  0  0  0  0  0  0
   -1.1164    1.2524    0.0000 C   0  0  0  0  0  0  0  0  0  0  0  0
    2.4739    0.8877    0.0000 C   0  0  0  0  0  0  0  0  0  0  0  0
   -1.8092    0.8064    0.0000 C   0  0  0  0  0  0  0  0  0  0  0  0
    3.1948    1.3113    0.0000 C   0  0  0  0  0  0  0  0  0  0  0  0
   -2.5273    1.2018    0.0000 C   0  0  0  0  0  0  0  0  0  0  0  0
    3.9493    0.9326    0.0000 C   0  0  0  0  0  0  0  0  0  0  0  0
   -2.5581    2.0518    0.0000 O   0  0  0  0  0  0  0  0  0  0  0  0
   -3.2734    0.7643    0.0000 O   0  0  0  0  0  0  0  0  0  0  0  0
    4.6590    1.3505    0.0000 C   0  0  0  0  0  0  0  0  0  0  0  0
   -4.7909   -0.7728    0.0000 Ca  0  0  0  0  0 15  0  0  0  0  0  0
  1  2  1  0
  1  3  1  0
  2  4  1  0
  3  5  1  0
  4  6  1  0
  5  7  1  0
  6  8  1  0
  7  9  1  0
  8 10  1  0
  9 12  1  0
  9 11  2  0
 10 13  2  0
 14 15  1  0
 14 16  1  0
 15 17  1  0
 16 18  1  0
 17 19  1  0
 18 20  1  0
 19 21  1  0
 20 22  1  0
 21 23  1  0
 22 24  2  0
 22 25  1  0
 23 26  2  0
M  CHG  3  12  -1  25  -1  27   2
M  END
>  <DRUGBANK_ID>  (1) 
DB15678

>  <COMMON_NAME>  (1) 
Calcium undecylenate

>  <CAS_NUMBER>  (1) 
1322-14-1

>  <UNII>  (1) 
77YW1RTU8V

>  <SYNONYMS>  (1) 
Calcium 10-undecenoate; Calcium diundec-10-enoate; Calcium undecylenate

$$$$
