FBC
     RDKit          2D

 17 18  0  0  0  0  0  0  0  0999 V2000
    1.5496    2.4387    0.0000 F   0  0  0  0  0  0  0  0  0  0  0  0
    1.5496    1.6137    0.0000 C   0  0  0  0  0  0  0  0  0  0  0  0
    2.2640    1.2012    0.0000 C   0  0  0  0  0  0  0  0  0  0  0  0
    2.2640    0.3762    0.0000 C   0  0  0  0  0  0  0  0  0  0  0  0
    2.9785   -0.0363    0.0000 F   0  0  0  0  0  0  0  0  0  0  0  0
    1.5496   -0.0363    0.0000 C   0  0  0  0  0  0  0  0  0  0  0  0
    0.8351    1.2012    0.0000 C   0  0  0  0  0  0  0  0  0  0  0  0
    0.8351    0.3762    0.0000 C   0  0  0  0  0  0  0  0  0  0  0  0
    0.1206   -0.0363    0.0000 C   0  0  0  0  0  0  0  0  0  0  0  0
    0.1206   -0.8613    0.0000 C   0  0  0  0  0  0  0  0  0  0  0  0
   -0.5938   -1.2738    0.0000 C   0  0  0  0  0  0  0  0  0  0  0  0
   -0.5938    0.3762    0.0000 C   0  0  0  0  0  0  0  0  0  0  0  0
   -1.3083   -0.0363    0.0000 C   0  0  0  0  0  0  0  0  0  0  0  0
   -1.3083   -0.8613    0.0000 C   0  0  0  0  0  0  0  0  0  0  0  0
   -2.0228   -1.2738    0.0000 C   0  0  0  0  0  0  0  0  0  0  0  0
   -2.0228   -2.0988    0.0000 O   0  0  0  0  0  0  0  0  0  0  0  0
   -2.7373   -0.8613    0.0000 O   0  0  0  0  0  0  0  0  0  0  0  0
  1  2  1  0
  2  3  2  0
  2  7  1  0
  3  4  1  0
  4  5  1  0
  4  6  2  0
  6  8  1  0
  7  8  2  0
  8  9  1  0
  9 10  2  0
  9 12  1  0
 10 11  1  0
 11 14  2  0
 12 13  2  0
 13 14  1  0
 14 15  1  0
 15 16  2  0
 15 17  1  0
M  END
>  <DRUGBANK_ID>  (1) 
DB07753

>  <COMMON_NAME>  (1) 
3',5'-DIFLUOROBIPHENYL-4-CARBOXYLIC ACID

$$$$
