P1E
     RDKit          2D

 31 33  0  0  0  0  0  0  0  0999 V2000
    0.3715    2.2868    0.0000 C   0  0  0  0  0  0  0  0  0  0  0  0
    1.0860    3.5243    0.0000 C   0  0  0  0  0  0  0  0  0  0  0  0
   -0.3430    1.0493    0.0000 C   0  0  0  0  0  0  0  0  0  0  0  0
    0.3715   -0.1882    0.0000 C   0  0  0  0  0  0  0  0  0  0  0  0
   -0.3430   -2.2507    0.0000 F   0  0  0  0  0  0  0  0  0  0  0  0
   -0.3430   -1.4257    0.0000 C   0  0  0  0  0  0  0  0  0  0  0  0
   -1.1680   -1.4257    0.0000 F   0  0  0  0  0  0  0  0  0  0  0  0
    0.4820   -1.4257    0.0000 F   0  0  0  0  0  0  0  0  0  0  0  0
   -0.3430   -0.6007    0.0000 C   0  0  0  0  0  0  0  0  0  0  0  0
    0.3715    0.6368    0.0000 N   0  0  0  0  0  0  0  0  0  0  0  0
   -1.0574   -0.1882    0.0000 C   0  0  0  0  0  0  0  0  0  0  0  0
   -1.7719   -0.6007    0.0000 N   0  0  0  0  0  0  0  0  0  0  0  0
   -1.7719   -1.4257    0.0000 C   0  0  0  0  0  0  0  0  0  0  0  0
   -1.1045   -1.9106    0.0000 C   0  0  0  0  0  0  0  0  0  0  0  0
   -1.3594   -2.6953    0.0000 C   0  0  0  0  0  0  0  0  0  0  0  0
   -2.1844   -2.6953    0.0000 C   0  0  0  0  0  0  0  0  0  0  0  0
   -2.4393   -1.9106    0.0000 C   0  0  0  0  0  0  0  0  0  0  0  0
   -3.2240   -1.6557    0.0000 N   0  0  0  0  0  0  0  0  0  0  0  0
   -3.8371   -2.2077    0.0000 C   0  0  0  0  0  0  0  0  0  0  0  0
   -3.3955   -0.8487    0.0000 C   0  0  0  0  0  0  0  0  0  0  0  0
   -1.0574    0.6368    0.0000 N   0  0  0  0  0  0  0  0  0  0  0  0
   -0.3430    1.8743    0.0000 N   0  0  0  0  0  0  0  0  0  0  0  0
    0.3715    3.1118    0.0000 C   0  0  0  0  0  0  0  0  0  0  0  0
    1.0860    1.8743    0.0000 C   0  0  0  0  0  0  0  0  0  0  0  0
    1.8004    2.2868    0.0000 C   0  0  0  0  0  0  0  0  0  0  0  0
    1.8004    3.1118    0.0000 C   0  0  0  0  0  0  0  0  0  0  0  0
    2.5149    3.5243    0.0000 S   0  0  0  0  0  0  0  0  0  0  0  0
    2.9274    2.8098    0.0000 O   0  0  0  0  0  0  0  0  0  0  0  0
    2.1024    4.2388    0.0000 O   0  0  0  0  0  0  0  0  0  0  0  0
    3.2294    3.9368    0.0000 N   0  0  0  0  0  0  0  0  0  0  0  0
    3.2294    4.7618    0.0000 C   0  0  0  0  0  0  0  0  0  0  0  0
  1 22  1  0
  1 23  1  0
  1 24  2  0
  2 23  2  0
  2 26  1  0
  3 10  2  0
  3 21  1  0
  3 22  1  0
  4  9  2  0
  4 10  1  0
  5  6  1  0
  6  7  1  0
  6  8  1  0
  6  9  1  0
  9 11  1  0
 11 12  1  0
 11 21  2  0
 13 12  1  6
 13 14  1  0
 13 17  1  0
 14 15  1  0
 15 16  1  0
 16 17  1  0
 17 18  1  1
 18 19  1  0
 18 20  1  0
 24 25  1  0
 25 26  2  0
 26 27  1  0
 27 28  2  0
 27 29  2  0
 27 30  1  0
 30 31  1  0
M  END
>  <DRUGBANK_ID>  (1) 
DB08341

>  <COMMON_NAME>  (1) 
4-{[4-{[(1R,2R)-2-(dimethylamino)cyclopentyl]amino}-5-(trifluoromethyl)pyrimidin-2-yl]amino}-N-methylbenzenesulfonamide

$$$$
