
     RDKit          2D

 11 11  0  0  0  0  0  0  0  0999 V2000
    0.3484   -0.0036    0.0000 C   0  0  0  0  0  0  0  0  0  0  0  0
   -0.3601    0.4192    0.0000 C   0  0  0  0  0  0  0  0  0  0  0  0
    0.3484   -0.8216    0.0000 C   0  0  0  0  0  0  0  0  0  0  0  0
    1.0658    0.3987    0.0000 C   0  0  0  0  0  0  0  0  0  0  0  0
   -1.0745   -0.0036    0.0000 C   0  0  0  0  0  0  0  0  0  0  0  0
   -0.3601    1.2444    0.0000 C   0  0  0  0  0  0  0  0  0  0  0  0
   -0.3601   -1.2444    0.0000 C   0  0  0  0  0  0  0  0  0  0  0  0
    1.0658    1.2225    0.0000 C   0  0  0  0  0  0  0  0  0  0  0  0
    1.7860   -0.0240    0.0000 C   0  0  0  0  0  0  0  0  0  0  0  0
   -1.0745   -0.8216    0.0000 C   0  0  0  0  0  0  0  0  0  0  0  0
   -1.7860   -1.2239    0.0000 O   0  0  0  0  0  0  0  0  0  0  0  0
  1  2  2  0
  1  3  1  0
  1  4  1  0
  2  5  1  0
  2  6  1  0
  3  7  2  0
  4  8  1  0
  4  9  1  0
  5 10  2  0
  7 10  1  0
 10 11  1  0
M  END
>  <DRUGBANK_ID>  (1) 
DB15901

>  <COMMON_NAME>  (1) 
o-Cymen-5-ol

>  <CAS_NUMBER>  (1) 
3228-02-2

>  <UNII>  (1) 
H41B6Q1I9L

>  <SYNONYMS>  (1) 
4-Isopropyl-3-methylphenol; 4-Isopropyl-m-cresol; o-Cymen-5-ol; o-Cymen-5y-ol; p-Thymol

$$$$
