
     RDKit          2D

 18 19  0  0  0  0  0  0  0  0999 V2000
    6.2431   -0.8927    0.0000 P   0  0  0  0  0  0  0  0  0  0  0  0
    5.1795    0.0615    0.0000 O   0  0  0  0  0  0  0  0  0  0  0  0
    7.0273   -0.6364    0.0000 O   0  0  0  0  0  0  0  0  0  0  0  0
    6.4994   -1.6769    0.0000 O   0  0  0  0  0  0  0  0  0  0  0  0
    5.4589   -1.1491    0.0000 O   0  0  0  0  0  0  0  0  0  0  0  0
    3.8597    1.8001    0.0000 N   0  0  0  0  0  0  0  0  0  0  0  0
    3.8597    3.1280    0.0000 N   0  0  0  0  0  0  0  0  0  0  0  0
    2.3645    1.6390    0.0000 N   0  0  0  0  0  0  0  0  0  0  0  0
    1.6500    2.8765    0.0000 N   0  0  0  0  0  0  0  0  0  0  0  0
    2.3645    4.1140    0.0000 N   0  0  0  0  0  0  0  0  0  0  0  0
    4.1159    1.0159    0.0000 C   0  0  0  0  0  0  0  0  0  0  0  0
    4.9231    0.8458    0.0000 C   0  0  0  0  0  0  0  0  0  0  0  0
    5.9868   -0.1086    0.0000 C   0  0  0  0  0  0  0  0  0  0  0  0
    3.0790    2.0515    0.0000 C   0  0  0  0  0  0  0  0  0  0  0  0
    3.0790    2.8765    0.0000 C   0  0  0  0  0  0  0  0  0  0  0  0
    4.3410    2.4640    0.0000 C   0  0  0  0  0  0  0  0  0  0  0  0
    2.3645    3.2890    0.0000 C   0  0  0  0  0  0  0  0  0  0  0  0
    1.6500    2.0515    0.0000 C   0  0  0  0  0  0  0  0  0  0  0  0
  1  3  1  0
  1  4  1  0
  1  5  2  0
  1 13  1  0
  2 12  1  0
  2 13  1  0
  6 11  1  0
  6 14  1  0
  6 16  1  0
  7 15  1  0
  7 16  2  0
  8 14  2  0
  8 18  1  0
  9 17  1  0
  9 18  2  0
 10 17  1  0
 11 12  1  0
 14 15  1  0
 15 17  2  0
M  END
>  <DRUGBANK_ID>  (1) 
DB13868

>  <COMMON_NAME>  (1) 
Adefovir

>  <CAS_NUMBER>  (1) 
106941-25-7

>  <UNII>  (1) 
6GQP90I798

>  <SYNONYMS>  (1) 
9-(2-(phosphonomethoxy)ethyl)adenine; 9-(2-phosphonylmethoxyethyl)adenine; Ad√©fovir; Adefovir; Adefovirum

$$$$
