
     RDKit          2D

  6  5  0  0  0  0  0  0  0  0999 V2000
    0.3572    0.2062    0.0000 C   0  0  0  0  0  0  0  0  0  0  0  0
   -0.3572   -0.2062    0.0000 C   0  0  0  0  0  0  0  0  0  0  0  0
    0.3572    1.0312    0.0000 O   0  0  0  0  0  0  0  0  0  0  0  0
   -0.3572   -1.0312    0.0000 O   0  0  0  0  0  0  0  0  0  0  0  0
    1.0717   -0.2063    0.0000 N   0  0  0  0  0  0  0  0  0  0  0  0
   -1.0717    0.2062    0.0000 C   0  0  0  0  0  0  0  0  0  0  0  0
  2  1  1  0
  3  1  2  0
  4  2  2  0
  5  1  1  0
  6  2  1  0
M  END
>  <DRUGBANK_ID>  (1) 
DB03578

>  <SECONDARY_ACCESSION_NUMBERS>  (1) 
EXPT02721

>  <COMMON_NAME>  (1) 
Pyruvamide

>  <CAS_NUMBER>  (1) 
631-66-3

>  <UNII>  (1) 
P4O9E1R444

$$$$
