
     RDKit          2D

 37 42  0  0  1  0  0  0  0  0999 V2000
    5.6566    3.3362    0.0000 O   0  0  0  0  0  0  0  0  0  0  0  0
    6.3711    2.9237    0.0000 C   0  0  0  0  0  0  0  0  0  0  0  0
    7.0856    3.3362    0.0000 O   0  0  0  0  0  0  0  0  0  0  0  0
    6.3711    2.0987    0.0000 C   0  0  0  0  0  0  0  0  0  0  0  0
    7.0856    1.6862    0.0000 C   0  0  0  0  0  0  0  0  0  0  0  0
    7.0856    0.8612    0.0000 C   0  0  0  0  0  0  0  0  0  0  0  0
    6.3711    0.4487    0.0000 C   0  0  0  0  0  0  0  0  0  0  0  0
    5.6566    0.8612    0.0000 C   0  0  0  0  0  0  0  0  0  0  0  0
    5.6566    1.6862    0.0000 C   0  0  0  0  0  0  0  0  0  0  0  0
    6.3711   -0.3763    0.0000 C   0  0  0  0  0  0  0  0  0  0  0  0
    6.7836   -1.0907    0.0000 C   0  0  0  0  0  0  0  0  0  0  0  0
    5.9586   -1.0907    0.0000 C   0  0  0  0  0  0  0  0  0  0  0  0
    5.2441   -1.5032    0.0000 C   0  0  0  0  0  0  0  0  0  0  0  0
    5.2441   -2.3282    0.0000 C   0  0  0  0  0  0  0  0  0  0  0  0
    5.9586   -2.7407    0.0000 Cl  0  0  0  0  0  0  0  0  0  0  0  0
    4.5297   -2.7407    0.0000 C   0  0  0  0  0  0  0  0  0  0  0  0
    3.8152   -2.3282    0.0000 C   0  0  0  0  0  0  0  0  0  0  0  0
    3.1007   -2.7407    0.0000 O   0  0  0  0  0  0  0  0  0  0  0  0
    2.3863   -2.3282    0.0000 C   0  0  0  0  0  0  0  0  0  0  0  0
    1.6718   -2.7407    0.0000 C   0  0  0  0  0  0  0  0  0  0  0  0
    1.5856   -3.5612    0.0000 C   0  0  0  0  0  0  0  0  0  0  0  0
    0.7786   -3.7327    0.0000 O   0  0  0  0  0  0  0  0  0  0  0  0
    0.3661   -3.0183    0.0000 N   0  0  0  0  0  0  0  0  0  0  0  0
    0.9181   -2.4052    0.0000 C   0  0  0  0  0  0  0  0  0  0  0  0
    0.7466   -1.5982    0.0000 C   0  0  0  0  0  0  0  0  0  0  0  0
   -0.0380   -1.3433    0.0000 C   0  0  0  0  0  0  0  0  0  0  0  0
   -0.6511   -1.8953    0.0000 Cl  0  0  0  0  0  0  0  0  0  0  0  0
   -0.2096   -0.5363    0.0000 C   0  0  0  0  0  0  0  0  0  0  0  0
    0.4035    0.0157    0.0000 C   0  0  0  0  0  0  0  0  0  0  0  0
    1.1882   -0.2392    0.0000 C   0  0  0  0  0  0  0  0  0  0  0  0
    1.3597   -1.0462    0.0000 C   0  0  0  0  0  0  0  0  0  0  0  0
    2.1443   -1.3011    0.0000 Cl  0  0  0  0  0  0  0  0  0  0  0  0
    2.1986   -4.1132    0.0000 C   0  0  0  0  0  0  0  0  0  0  0  0
    3.0056   -4.2848    0.0000 C   0  0  0  0  0  0  0  0  0  0  0  0
    2.4536   -4.8979    0.0000 C   0  0  0  0  0  0  0  0  0  0  0  0
    3.8152   -1.5032    0.0000 C   0  0  0  0  0  0  0  0  0  0  0  0
    4.5297   -1.0907    0.0000 C   0  0  0  0  0  0  0  0  0  0  0  0
  1  2  1  0
  2  3  2  0
  2  4  1  0
  4  5  2  0
  4  9  1  0
  5  6  1  0
  6  7  2  0
  7  8  1  0
  8  9  2  0
 10  7  1  1
 10 11  1  0
 10 12  1  0
 12 11  1  0
 12 13  1  6
 13 14  2  0
 13 37  1  0
 14 15  1  0
 14 16  1  0
 16 17  2  0
 17 18  1  0
 17 36  1  0
 18 19  1  0
 19 20  1  0
 20 21  2  0
 20 24  1  0
 21 22  1  0
 21 33  1  0
 22 23  1  0
 23 24  2  0
 24 25  1  0
 25 26  2  0
 25 31  1  0
 26 27  1  0
 26 28  1  0
 28 29  2  0
 29 30  1  0
 30 31  2  0
 31 32  1  0
 33 34  1  0
 33 35  1  0
 34 35  1  0
 36 37  2  0
M  END
>  <DRUGBANK_ID>  (1) 
DB15416

>  <COMMON_NAME>  (1) 
PX-102

>  <CAS_NUMBER>  (1) 
1268244-88-7

>  <UNII>  (1) 
378SU5NO8S

$$$$
