
     RDKit          2D

 11 11  0  0  0  0  0  0  0  0999 V2000
    1.4289    0.0000    0.0000 C   0  0  0  0  0  0  0  0  0  0  0  0
    0.0000    0.0000    0.0000 C   0  0  0  0  0  0  0  0  0  0  0  0
    1.4289    0.8250    0.0000 C   0  0  0  0  0  0  0  0  0  0  0  0
    0.0000    0.8250    0.0000 C   0  0  0  0  0  0  0  0  0  0  0  0
    0.7145   -0.4125    0.0000 C   0  0  0  0  0  0  0  0  0  0  0  0
    0.7145    1.2375    0.0000 C   0  0  0  0  0  0  0  0  0  0  0  0
    0.7145   -1.2375    0.0000 O   0  0  0  0  0  0  0  0  0  0  0  0
    0.7145    2.8875    0.0000 O   0  0  0  0  0  0  0  0  0  0  0  0
    1.5395    2.0625    0.0000 O   0  0  0  0  0  0  0  0  0  0  0  0
   -0.1105    2.0625    0.0000 O   0  0  0  0  0  0  0  0  0  0  0  0
    0.7145    2.0625    0.0000 S   0  0  0  0  0  0  0  0  0  0  0  0
  3  1  2  0
  4  2  1  0
  5  1  1  0
  5  2  2  0
  6  3  1  0
  6  4  2  0
  7  5  1  0
 11  6  1  0
 11  8  1  0
 11  9  2  0
 11 10  2  0
M  END
>  <DRUGBANK_ID>  (1) 
DB14739

>  <SECONDARY_ACCESSION_NUMBERS>  (1) 
DBSALT001584

>  <COMMON_NAME>  (1) 
Phenolsulfonic acid

>  <CAS_NUMBER>  (1) 
98-67-9

>  <UNII>  (1) 
L74LRO149A

>  <SYNONYMS>  (1) 
4-hydroxybenzenesulfonic acid; 4-Sulfophenol; p-Phenolsulfonic acid; Phenolsulfonic acid; Sulfocarbolic acid

$$$$
