
     RDKit          2D

  8  7  0  0  0  0  0  0  0  0999 V2000
    0.7145    0.9281    0.0000 O   0  0  0  0  0  0  0  0  0  0  0  0
    0.7145    0.1031    0.0000 C   0  0  0  0  0  0  0  0  0  0  0  0
    1.4289   -0.3094    0.0000 O   0  0  0  0  0  0  0  0  0  0  0  0
    0.0000   -0.3094    0.0000 C   0  0  0  0  0  0  0  0  0  0  0  0
    0.0000   -1.1344    0.0000 N   0  0  0  0  0  0  0  0  0  0  0  0
   -0.7145    0.1031    0.0000 C   0  0  0  0  0  0  0  0  0  0  0  0
   -0.7145    0.9281    0.0000 O   0  0  0  0  0  0  0  0  0  0  0  0
   -1.4289   -0.3094    0.0000 C   0  0  0  0  0  0  0  0  0  0  0  0
  2  1  2  0
  3  2  1  0
  4  2  1  0
  4  5  1  1
  6  4  1  0
  6  7  1  0
  6  8  1  1
M  END
>  <DRUGBANK_ID>  (1) 
DB00156

>  <SECONDARY_ACCESSION_NUMBERS>  (1) 
NUTR00057

>  <COMMON_NAME>  (1) 
Threonine

>  <CAS_NUMBER>  (1) 
72-19-5

>  <UNII>  (1) 
2ZD004190S

>  <SYNONYMS>  (1) 
(2S,3R)-(-)-Threonine; (2S)-threonine; 2-Amino-3-hydroxybutyric acid; L-(-)-Threonine; L-2-Amino-3-hydroxybutyric acid; L-alpha-amino-beta-hydroxybutyric acid; L-Threonin; L-Threonine; L-α-amino-β-hydroxybutyric acid; Thr; Threonine; Threoninum; Treonina

$$$$
