
     RDKit          2D

 25 25  0  0  0  0  0  0  0  0999 V2000
    4.5151    0.1091    0.0000 C   0  0  0  0  0  0  0  0  0  0  0  0
    3.8013    0.5194    0.0000 C   0  0  0  0  0  0  0  0  0  0  0  0
    5.2288    0.5229    0.0000 C   0  0  0  0  0  0  0  0  0  0  0  0
    4.5185   -0.7184    0.0000 C   0  0  0  0  0  0  0  0  0  0  0  0
    3.0875    0.1056    0.0000 C   0  0  0  0  0  0  0  0  0  0  0  0
    5.9461    0.1091    0.0000 C   0  0  0  0  0  0  0  0  0  0  0  0
    5.2323   -1.1252    0.0000 C   0  0  0  0  0  0  0  0  0  0  0  0
    5.9461   -0.7114    0.0000 C   0  0  0  0  0  0  0  0  0  0  0  0
    6.9059   -1.3292    0.0000 I   0  0  0  0  0  0  0  0  0  0  0  0
    2.3724    0.5169    0.0000 C   0  0  0  0  0  0  0  0  0  0  0  0
    1.6585    0.1032    0.0000 C   0  0  0  0  0  0  0  0  0  0  0  0
    0.9427    0.5160    0.0000 C   0  0  0  0  0  0  0  0  0  0  0  0
    0.2283    0.1032    0.0000 C   0  0  0  0  0  0  0  0  0  0  0  0
   -0.4863    0.5154    0.0000 C   0  0  0  0  0  0  0  0  0  0  0  0
   -1.2023    0.1041    0.0000 C   0  0  0  0  0  0  0  0  0  0  0  0
   -1.9148    0.5125    0.0000 C   0  0  0  0  0  0  0  0  0  0  0  0
   -2.6273    0.1000    0.0000 C   0  0  0  0  0  0  0  0  0  0  0  0
   -3.3397    0.5084    0.0000 C   0  0  0  0  0  0  0  0  0  0  0  0
   -4.0522    0.0958    0.0000 C   0  0  0  0  0  0  0  0  0  0  0  0
   -4.7647    0.5042    0.0000 C   0  0  0  0  0  0  0  0  0  0  0  0
   -4.7673    1.3292    0.0000 C   0  0  0  0  0  0  0  0  0  0  0  0
   -5.4778    0.0894    0.0000 C   0  0  0  0  0  0  0  0  0  0  0  0
   -6.1936    0.4996    0.0000 C   0  0  0  0  0  0  0  0  0  0  0  0
   -6.9059    0.0849    0.0000 O   0  0  0  0  0  0  0  0  0  0  0  0
   -6.1964    1.3246    0.0000 O   0  0  0  0  0  0  0  0  0  0  0  0
  1  4  2  0
  1  2  1  0
  1  3  1  0
  2  5  1  0
  3  6  2  0
  4  7  1  0
  5 10  1  0
  6  8  1  0
  7  8  2  0
  8  9  1  0
 10 11  1  0
 11 12  1  0
 12 13  1  0
 13 14  1  0
 14 15  1  0
 15 16  1  0
 16 17  1  0
 17 18  1  0
 18 19  1  0
 19 20  1  0
 20 21  1  0
 20 22  1  0
 22 23  1  0
 23 24  1  0
 23 25  2  0
M  ISO  1   9 123
M  END
>  <DRUGBANK_ID>  (1) 
DB05683

>  <COMMON_NAME>  (1) 
Iodofiltic acid I-123

>  <CAS_NUMBER>  (1) 
123748-56-1

>  <UNII>  (1) 
0J7USQ749M

>  <SYNONYMS>  (1) 
I-123 BMIPP; Iodofiltic acid (123I); Iodofiltic acid I 123

$$$$
