
     RDKit          2D

 32 35  0  0  0  0  0  0  0  0999 V2000
   -1.9782   -1.4903    0.0000 C   0  0  0  0  0  0  0  0  0  0  0  0
   -1.9782   -0.6653    0.0000 O   0  0  0  0  0  0  0  0  0  0  0  0
   -1.1936   -1.7452    0.0000 C   0  0  0  0  0  0  0  0  0  0  0  0
   -1.1936   -0.4103    0.0000 C   0  0  0  0  0  0  0  0  0  0  0  0
   -0.7086   -1.0778    0.0000 C   0  0  0  0  0  0  0  0  0  0  0  0
   -1.0221   -2.5522    0.0000 O   0  0  0  0  0  0  0  0  0  0  0  0
   -2.5913   -2.0423    0.0000 C   0  0  0  0  0  0  0  0  0  0  0  0
   -2.4198   -2.8493    0.0000 O   0  0  0  0  0  0  0  0  0  0  0  0
   -0.1540    1.4542    0.0000 C   0  0  0  0  0  0  0  0  0  0  0  0
   -0.1540    0.6291    0.0000 C   0  0  0  0  0  0  0  0  0  0  0  0
    0.5604    1.8666    0.0000 C   0  0  0  0  0  0  0  0  0  0  0  0
    0.5604    0.2166    0.0000 N   0  0  0  0  0  0  0  0  0  0  0  0
    1.2749    1.4542    0.0000 N   0  0  0  0  0  0  0  0  0  0  0  0
    1.2749    0.6291    0.0000 C   0  0  0  0  0  0  0  0  0  0  0  0
   -0.9387    0.3742    0.0000 N   0  0  0  0  0  0  0  0  0  0  0  0
   -1.4235    1.0416    0.0000 C   0  0  0  0  0  0  0  0  0  0  0  0
   -0.9387    1.7092    0.0000 N   0  0  0  0  0  0  0  0  0  0  0  0
   -1.6351   -3.9292    0.0000 O   0  0  0  0  0  0  0  0  0  0  0  0
   -1.6351   -3.1042    0.0000 P   0  0  0  0  0  0  0  0  0  0  0  0
   -0.9207   -3.5167    0.0000 O   0  0  0  0  0  0  0  0  0  0  0  0
   -0.1540    3.1041    0.0000 C   0  0  0  0  0  0  0  0  0  0  0  0
   -0.8685    2.6916    0.0000 C   0  0  0  0  0  0  0  0  0  0  0  0
   -1.5830    3.1041    0.0000 C   0  0  0  0  0  0  0  0  0  0  0  0
   -2.2975    2.6916    0.0000 C   0  0  0  0  0  0  0  0  0  0  0  0
    0.5288   -1.7923    0.0000 C   0  0  0  0  0  0  0  0  0  0  0  0
    0.1163   -1.0778    0.0000 O   0  0  0  0  0  0  0  0  0  0  0  0
    1.3538   -1.7923    0.0000 C   0  0  0  0  0  0  0  0  0  0  0  0
    1.7663   -2.5067    0.0000 C   0  0  0  0  0  0  0  0  0  0  0  0
    2.5913   -2.5067    0.0000 C   0  0  0  0  0  0  0  0  0  0  0  0
    0.1163   -2.5067    0.0000 O   0  0  0  0  0  0  0  0  0  0  0  0
    0.5604    2.6916    0.0000 N   0  0  0  0  0  0  0  0  0  0  0  0
   -0.1540    3.9292    0.0000 O   0  0  0  0  0  0  0  0  0  0  0  0
  1  2  1  0
  1  3  1  0
  1  7  1  1
  2  4  1  0
  3  5  1  0
  3  6  1  6
  4  5  1  0
  4 15  1  1
  5 26  1  6
  6 19  1  0
  8  7  1  0
  9 11  2  0
  9 10  1  0
  9 17  1  0
 10 12  2  0
 10 15  1  0
 11 13  1  0
 12 14  1  0
 13 14  2  0
 16 15  1  0
 17 16  2  0
 19  8  1  0
 19 18  2  0
 19 20  1  0
 21 32  2  0
 22 21  1  0
 23 22  1  0
 24 23  1  0
 25 30  2  0
 26 25  1  0
 27 25  1  0
 28 27  1  0
 29 28  1  0
 31 11  1  0
 31 21  1  0
M  END
>  <DRUGBANK_ID>  (1) 
DB13242

>  <COMMON_NAME>  (1) 
Bucladesine

>  <CAS_NUMBER>  (1) 
362-74-3

>  <UNII>  (1) 
63X7MBT2LQ

>  <SYNONYMS>  (1) 
3',5'-cyclic AMP dibutyrate; bucladesina; Bucladesine; dibutyryl 3',5'-cyclic AMP; dibutyryl adenosine 3',5'-cyclic phosphate; dibutyryl adenosine 3',5'-monophosphate; dibutyryl cAMP; dibutyryl cyclic 3',5'-adenylic acid; dibutyryl cyclic adenosine 3',5'-monophosphate; dibutyryl cyclic AMP; dibutyryl-3',5'-AMP; dibutyryladenosine 3',5'-cyclic monophosphate; dibutyryladenosine cyclic monophosphate

$$$$
