4AN
     RDKit          2D

 16 18  0  0  0  0  0  0  0  0999 V2000
   -0.9692    1.2841    0.0000 C   0  0  0  0  0  0  0  0  0  0  0  0
   -0.9692    2.1091    0.0000 O   0  0  0  0  0  0  0  0  0  0  0  0
   -0.2548    0.8716    0.0000 C   0  0  0  0  0  0  0  0  0  0  0  0
    0.4597    1.2841    0.0000 C   0  0  0  0  0  0  0  0  0  0  0  0
    1.1742    0.8716    0.0000 C   0  0  0  0  0  0  0  0  0  0  0  0
    1.1742    0.0466    0.0000 C   0  0  0  0  0  0  0  0  0  0  0  0
    1.8887   -0.3659    0.0000 N   0  0  0  0  0  0  0  0  0  0  0  0
    0.4597   -1.1909    0.0000 C   0  0  0  0  0  0  0  0  0  0  0  0
   -0.2548   -1.6034    0.0000 C   0  0  0  0  0  0  0  0  0  0  0  0
   -0.9692   -1.1909    0.0000 C   0  0  0  0  0  0  0  0  0  0  0  0
   -0.9692   -0.3659    0.0000 C   0  0  0  0  0  0  0  0  0  0  0  0
   -1.6837    0.0466    0.0000 C   0  0  0  0  0  0  0  0  0  0  0  0
   -2.3982   -0.3659    0.0000 O   0  0  0  0  0  0  0  0  0  0  0  0
   -1.6837    0.8716    0.0000 N   0  0  0  0  0  0  0  0  0  0  0  0
   -0.2548    0.0466    0.0000 C   0  0  0  0  0  0  0  0  0  0  0  0
    0.4597   -0.3659    0.0000 C   0  0  0  0  0  0  0  0  0  0  0  0
  1  2  2  0
  1  3  1  0
  1 14  1  0
  3  4  1  0
  3 15  2  0
  4  5  2  0
  5  6  1  0
  6  7  1  0
  6 16  2  0
  8  9  2  0
  8 16  1  0
  9 10  1  0
 10 11  2  0
 11 12  1  0
 11 15  1  0
 12 13  2  0
 12 14  1  0
 15 16  1  0
M  END
>  <DRUGBANK_ID>  (1) 
DB07096

>  <COMMON_NAME>  (1) 
6-AMINO-BENZO[DE]ISOQUINOLINE-1,3-DIONE

>  <UNII>  (1) 
S529AR2S8B

$$$$
