
     RDKit          2D

 40 42  0  0  0  0  0  0  0  0999 V2000
    0.0000   -0.4125    0.0000 C   0  0  0  0  0  0  0  0  0  0  0  0
   -0.7145    0.8250    0.0000 C   0  0  0  0  0  0  0  0  0  0  0  0
   -0.7145   -0.8250    0.0000 C   0  0  0  0  0  0  0  0  0  0  0  0
   -1.4290   -0.4125    0.0000 C   0  0  0  0  0  0  0  0  0  0  0  0
   -1.4290    0.4125    0.0000 C   0  0  0  0  0  0  0  0  0  0  0  0
   -1.4289   -2.0625    0.0000 C   0  0  0  0  0  0  0  0  0  0  0  0
   -1.4289   -2.8875    0.0000 C   0  0  0  0  0  0  0  0  0  0  0  0
   -2.1434   -3.3000    0.0000 C   0  0  0  0  0  0  0  0  0  0  0  0
   -2.8579   -2.8875    0.0000 C   0  0  0  0  0  0  0  0  0  0  0  0
   -2.8579   -2.0625    0.0000 C   0  0  0  0  0  0  0  0  0  0  0  0
   -2.1434   -1.6500    0.0000 O   0  0  0  0  0  0  0  0  0  0  0  0
   -3.5723   -3.3000    0.0000 O   0  0  0  0  0  0  0  0  0  0  0  0
   -3.5723   -1.6500    0.0000 C   0  0  0  0  0  0  0  0  0  0  0  0
   -2.1434   -4.1250    0.0000 N   0  0  0  0  0  0  0  0  0  0  0  0
   -4.2868   -2.0625    0.0000 O   0  0  0  0  0  0  0  0  0  0  0  0
   -0.7144    1.6500    0.0000 N   0  0  0  0  0  0  0  0  0  0  0  0
   -2.1434   -0.8250    0.0000 O   0  0  0  0  0  0  0  0  0  0  0  0
   -0.7144   -1.6500    0.0000 O   0  0  0  0  0  0  0  0  0  0  0  0
   -2.1434    0.8250    0.0000 O   0  0  0  0  0  0  0  0  0  0  0  0
   -2.1434    1.6500    0.0000 C   0  0  0  0  0  0  0  0  0  0  0  0
   -1.4289    2.0625    0.0000 O   0  0  0  0  0  0  0  0  0  0  0  0
   -1.4289    2.8875    0.0000 C   0  0  0  0  0  0  0  0  0  0  0  0
   -2.1434    3.3000    0.0000 C   0  0  0  0  0  0  0  0  0  0  0  0
   -2.8579    2.8875    0.0000 C   0  0  0  0  0  0  0  0  0  0  0  0
   -2.8579    2.0625    0.0000 C   0  0  0  0  0  0  0  0  0  0  0  0
   -0.7144    3.3000    0.0000 C   0  0  0  0  0  0  0  0  0  0  0  0
   -3.5723    1.6500    0.0000 O   0  0  0  0  0  0  0  0  0  0  0  0
   -3.5723    3.3000    0.0000 O   0  0  0  0  0  0  0  0  0  0  0  0
   -2.1434    4.1250    0.0000 O   0  0  0  0  0  0  0  0  0  0  0  0
    0.0000    0.4125    0.0000 C   0  0  0  0  0  0  0  0  0  0  0  0
    0.7144   -0.8250    0.0000 N   0  0  0  0  0  0  0  0  0  0  0  0
    2.8578   -0.4125    0.0000 C   0  0  0  0  0  0  0  0  0  0  0  0
    1.4289   -0.4125    0.0000 C   0  0  0  0  0  0  0  0  0  0  0  0
    1.4289    0.4125    0.0000 O   0  0  0  0  0  0  0  0  0  0  0  0
    3.5723   -0.8250    0.0000 C   0  0  0  0  0  0  0  0  0  0  0  0
    4.2868   -0.4125    0.0000 N   0  0  0  0  0  0  0  0  0  0  0  0
    2.1433   -0.8250    0.0000 C   0  0  0  0  0  0  0  0  0  0  0  0
    2.1433   -1.6500    0.0000 O   0  0  0  0  0  0  0  0  0  0  0  0
    0.0000    2.8875    0.0000 N   0  0  0  0  0  0  0  0  0  0  0  0
   -0.7144   -3.3000    0.0000 O   0  0  0  0  0  0  0  0  0  0  0  0
  1 31  1  1
  1  3  1  0
  2 30  1  0
  2 16  1  1
  3 18  1  6
  3  4  1  0
  4 17  1  1
  4  5  1  0
  5  2  1  0
  5 19  1  6
  6 18  1  6
  6  7  1  0
  7  8  1  0
  7 40  1  6
  8  9  1  0
  8 14  1  1
  9 10  1  0
  9 12  1  6
 10 11  1  0
 10 13  1  1
 11  6  1  0
 13 15  1  0
 20 19  1  6
 20 21  1  0
 21 22  1  0
 22 23  1  0
 22 26  1  1
 23 24  1  0
 23 29  1  6
 24 25  1  0
 24 28  1  1
 25 20  1  0
 25 27  1  6
 26 39  1  0
 30  1  1  0
 31 33  1  0
 32 35  1  0
 33 34  2  0
 35 36  1  0
 37 33  1  0
 37 32  1  0
 37 38  1  6
M  END
>  <DRUGBANK_ID>  (1) 
DB00479

>  <SECONDARY_ACCESSION_NUMBERS>  (1) 
APRD00550

>  <COMMON_NAME>  (1) 
Amikacin

>  <CAS_NUMBER>  (1) 
37517-28-5

>  <UNII>  (1) 
84319SGC3C

>  <SYNONYMS>  (1) 
1-N-(L(−)-γ-amino-α-hydroxybutyryl)kanamycin A; Amikacin; Amikacina; Amikacine; Amikacinum; D-STREPTAMINE, O-3-AMINO-3-DEOXY-.ALPHA.-D-GLUCOPYRANOSYL-(1->6)-O-(6-AMINO-6-DEOXY-.ALPHA.-D-GLUCOPYRANOSYL-(1->4))-N(SUP 1)-(4-AMINO-2-HYDROXY-1-OXOBUTYL)-2-DEOXY-, (S)-; encochleated amikacin; O-3-AMINO-3-DEOXY-.ALPHA.-D-GLUCOPYRANOSYL-(1->4)-O-(6-AMINO-6-DEOXY-.ALPHA.-D-GLUCOPYRANOSYL-(1->6))-N(SUP 3)-(4-AMINO-L-2-HYDROXYBUTYRYL)-2-DEOXY-L-STREPTAMINE

$$$$
