
     RDKit          2D

 25 28  0  0  0  0  0  0  0  0999 V2000
   -0.8658    2.7721    0.0000 F   0  0  0  0  0  0  0  0  0  0  0  0
   -1.0053   -3.2836    0.0000 F   0  0  0  0  0  0  0  0  0  0  0  0
    2.0151    1.0936    0.0000 O   0  0  0  0  0  0  0  0  0  0  0  0
    2.7626    2.3768    0.0000 O   0  0  0  0  0  0  0  0  0  0  0  0
   -1.0704    1.0261    0.0000 O   0  0  0  0  0  0  0  0  0  0  0  0
   -2.7580   -0.9658    0.0000 O   0  0  0  0  0  0  0  0  0  0  0  0
   -0.1513   -0.1153    0.0000 N   0  0  0  0  0  0  0  0  0  0  0  0
   -2.2708   -0.3001    0.0000 N   0  0  0  0  0  0  0  0  0  0  0  0
    0.5631    0.2971    0.0000 C   0  0  0  0  0  0  0  0  0  0  0  0
    0.5631    1.1221    0.0000 C   0  0  0  0  0  0  0  0  0  0  0  0
   -0.2364   -0.9310    0.0000 C   0  0  0  0  0  0  0  0  0  0  0  0
    1.2775    1.5346    0.0000 C   0  0  0  0  0  0  0  0  0  0  0  0
   -1.0436   -1.1011    0.0000 C   0  0  0  0  0  0  0  0  0  0  0  0
    1.2775    2.3596    0.0000 C   0  0  0  0  0  0  0  0  0  0  0  0
   -0.9003    0.2188    0.0000 C   0  0  0  0  0  0  0  0  0  0  0  0
   -1.4506   -0.3892    0.0000 C   0  0  0  0  0  0  0  0  0  0  0  0
   -0.1513    1.5346    0.0000 C   0  0  0  0  0  0  0  0  0  0  0  0
    2.0151    2.8008    0.0000 C   0  0  0  0  0  0  0  0  0  0  0  0
    0.3146   -1.5451    0.0000 C   0  0  0  0  0  0  0  0  0  0  0  0
    0.5631    2.7721    0.0000 C   0  0  0  0  0  0  0  0  0  0  0  0
   -1.2999   -1.8853    0.0000 C   0  0  0  0  0  0  0  0  0  0  0  0
   -0.1513    2.3596    0.0000 C   0  0  0  0  0  0  0  0  0  0  0  0
    2.7626    1.5174    0.0000 C   0  0  0  0  0  0  0  0  0  0  0  0
    0.0582   -2.3293    0.0000 C   0  0  0  0  0  0  0  0  0  0  0  0
   -0.7489   -2.4995    0.0000 C   0  0  0  0  0  0  0  0  0  0  0  0
  1 22  1  0
  2 25  1  0
  3 12  1  0
  3 23  1  0
  4 18  1  0
  4 23  1  0
  5 15  2  0
  6  8  1  0
  7  9  1  0
  7 11  1  0
  7 15  1  0
  8 16  2  0
  9 10  1  0
 10 12  1  0
 10 17  2  0
 11 13  2  0
 11 19  1  0
 12 14  2  0
 13 16  1  0
 13 21  1  0
 14 18  1  0
 14 20  1  0
 15 16  1  0
 17 22  1  0
 19 24  2  0
 20 22  2  0
 21 25  2  0
 24 25  1  0
M  END
>  <DRUGBANK_ID>  (1) 
DB08011

>  <COMMON_NAME>  (1) 
(3E)-5-fluoro-1-[(6-fluoro-4H-1,3-benzodioxin-8-yl)methyl]-1H-indole-2,3-dione 3-oxime

$$$$
