4FC
     RDKit          2D

 16 17  0  0  0  0  0  0  0  0999 V2000
    1.4214    1.6961    0.0000 C   0  0  0  0  0  0  0  0  0  0  0  0
    2.1359    1.2836    0.0000 C   0  0  0  0  0  0  0  0  0  0  0  0
    2.1359    0.4586    0.0000 C   0  0  0  0  0  0  0  0  0  0  0  0
    1.4214    0.0461    0.0000 C   0  0  0  0  0  0  0  0  0  0  0  0
    0.7069    0.4586    0.0000 C   0  0  0  0  0  0  0  0  0  0  0  0
    0.7069    1.2836    0.0000 C   0  0  0  0  0  0  0  0  0  0  0  0
   -0.7220    0.4586    0.0000 C   0  0  0  0  0  0  0  0  0  0  0  0
   -0.0075    0.0461    0.0000 C   0  0  0  0  0  0  0  0  0  0  0  0
   -0.0075   -0.7789    0.0000 C   0  0  0  0  0  0  0  0  0  0  0  0
   -0.7220   -1.1914    0.0000 C   0  0  0  0  0  0  0  0  0  0  0  0
   -1.4365   -0.7789    0.0000 C   0  0  0  0  0  0  0  0  0  0  0  0
   -1.4365    0.0461    0.0000 C   0  0  0  0  0  0  0  0  0  0  0  0
    2.8503    1.6961    0.0000 F   0  0  0  0  0  0  0  0  0  0  0  0
   -2.1510   -1.1914    0.0000 C   0  0  0  0  0  0  0  0  0  0  0  0
   -2.1510   -2.0164    0.0000 O   0  0  0  0  0  0  0  0  0  0  0  0
   -2.8654   -0.7789    0.0000 O   0  0  0  0  0  0  0  0  0  0  0  0
  1  2  2  0
  1  6  1  0
  2  3  1  0
  2 13  1  0
  3  4  2  0
  4  5  1  0
  5  6  2  0
  5  8  1  0
  7  8  2  0
  7 12  1  0
  8  9  1  0
  9 10  2  0
 10 11  1  0
 11 12  2  0
 11 14  1  0
 14 15  1  0
 14 16  2  0
M  END
>  <DRUGBANK_ID>  (1) 
DB07108

>  <COMMON_NAME>  (1) 
4'-FLUORO-1,1'-BIPHENYL-4-CARBOXYLIC ACID

>  <UNII>  (1) 
1UPF6UD3CR

$$$$
