
     RDKit          2D

 24 25  0  0  1  0  0  0  0  0999 V2000
    3.0791    0.2063    0.0000 O   0  0  0  0  0  0  0  0  0  0  0  0
    2.3645   -2.6813    0.0000 O   0  0  0  0  0  0  0  0  0  0  0  0
    5.2224   -2.6813    0.0000 O   0  0  0  0  0  0  0  0  0  0  0  0
    3.7935   -3.5063    0.0000 O   0  0  0  0  0  0  0  0  0  0  0  0
    4.5080    3.5063    0.0000 O   0  0  0  0  0  0  0  0  0  0  0  0
    5.9370    2.6813    0.0000 O   0  0  0  0  0  0  0  0  0  0  0  0
    3.7935   -0.2063    0.0000 C   0  0  0  0  0  0  0  0  0  0  0  0
    4.5080    0.2063    0.0000 C   0  0  0  0  0  0  0  0  0  0  0  0
    3.7935   -1.0313    0.0000 C   0  0  0  0  0  0  0  0  0  0  0  0
    4.5080    1.0313    0.0000 C   0  0  0  0  0  0  0  0  0  0  0  0
    4.5080   -1.4438    0.0000 C   0  0  0  0  0  0  0  0  0  0  0  0
    3.0791   -1.4438    0.0000 C   0  0  0  0  0  0  0  0  0  0  0  0
    3.0791   -2.2688    0.0000 C   0  0  0  0  0  0  0  0  0  0  0  0
    4.5080   -2.2688    0.0000 C   0  0  0  0  0  0  0  0  0  0  0  0
    5.2224    1.4438    0.0000 C   0  0  0  0  0  0  0  0  0  0  0  0
    3.7935    1.4438    0.0000 C   0  0  0  0  0  0  0  0  0  0  0  0
    3.7935   -2.6813    0.0000 C   0  0  0  0  0  0  0  0  0  0  0  0
    5.2224    2.2688    0.0000 C   0  0  0  0  0  0  0  0  0  0  0  0
    3.7935    2.2688    0.0000 C   0  0  0  0  0  0  0  0  0  0  0  0
    4.5080    2.6813    0.0000 C   0  0  0  0  0  0  0  0  0  0  0  0
    1.6500   -2.2688    0.0000 C   0  0  0  0  0  0  0  0  0  0  0  0
    5.9370   -2.2688    0.0000 C   0  0  0  0  0  0  0  0  0  0  0  0
    3.0791   -3.9188    0.0000 C   0  0  0  0  0  0  0  0  0  0  0  0
    3.7935    3.9188    0.0000 C   0  0  0  0  0  0  0  0  0  0  0  0
  2 13  1  0
  2 21  1  0
  3 14  1  0
  3 22  1  0
  4 17  1  0
  4 23  1  0
  5 20  1  0
  5 24  1  0
  6 18  1  0
  7  1  1  1
  7  8  1  0
  7  9  1  0
  8 10  1  0
  9 11  2  0
  9 12  1  0
 10 15  2  0
 10 16  1  0
 11 14  1  0
 12 13  2  0
 13 17  1  0
 14 17  2  0
 15 18  1  0
 16 19  2  0
 18 20  2  0
 19 20  1  0
M  END
>  <DRUGBANK_ID>  (1) 
DB05284

>  <COMMON_NAME>  (1) 
CA4P

>  <CAS_NUMBER>  (1) 
222030-63-9

$$$$
