
     RDKit          2D

 12 12  0  0  1  0  0  0  0  0999 V2000
    0.0059   -1.5764    0.0000 C   0  0  0  0  0  0  0  0  0  0  0  0
    1.2352    0.6294    0.0000 C   0  0  0  0  0  0  0  0  0  0  0  0
   -0.0997    0.6294    0.0000 C   0  0  0  0  0  0  0  0  0  0  0  0
   -0.3297   -0.8227    0.0000 C   0  0  0  0  0  0  0  0  0  0  0  0
    0.5678    1.1143    0.0000 C   0  0  0  0  0  0  0  0  0  0  0  0
    0.9803   -0.1553    0.0000 C   0  0  0  0  0  0  0  0  0  0  0  0
    1.4652   -0.8227    0.0000 C   0  0  0  0  0  0  0  0  0  0  0  0
    0.1553   -0.1553    0.0000 N   0  0  0  0  0  0  0  0  0  0  0  0
   -1.1501   -0.7365    0.0000 O   0  0  0  0  0  0  0  0  0  0  0  0
    0.5678    1.9393    0.0000 O   0  0  0  0  0  0  0  0  0  0  0  0
    1.1296   -1.5764    0.0000 O   0  0  0  0  0  0  0  0  0  0  0  0
    2.2857   -0.7365    0.0000 O   0  0  0  0  0  0  0  0  0  0  0  0
  4  1  1  0
  5  2  1  0
  5  3  1  0
  5 10  1  6
  6  2  1  0
  6  7  1  1
  8  3  1  0
  8  4  1  0
  8  6  1  0
  9  4  2  0
 11  7  2  0
 12  7  1  0
M  END
>  <DRUGBANK_ID>  (1) 
DB13363

>  <COMMON_NAME>  (1) 
Oxaceprol

>  <CAS_NUMBER>  (1) 
33996-33-7

>  <UNII>  (1) 
Q0XV76B96L

>  <SYNONYMS>  (1) 
Oxaceprol

$$$$
