
     RDKit          2D

 29 33  0  0  1  0  0  0  0  0999 V2000
   -2.1884   -0.2062    0.0000 C   0  0  0  0  0  0  0  0  0  0  0  0
   -2.1884   -1.0312    0.0000 C   0  0  0  0  0  0  0  0  0  0  0  0
   -2.9029   -1.4438    0.0000 C   0  0  0  0  0  0  0  0  0  0  0  0
   -2.9029   -2.2688    0.0000 O   0  0  0  0  0  0  0  0  0  0  0  0
   -2.1884   -2.6812    0.0000 C   0  0  0  0  0  0  0  0  0  0  0  0
   -1.4739   -2.2688    0.0000 C   0  0  0  0  0  0  0  0  0  0  0  0
   -1.4739   -1.4438    0.0000 N   0  0  0  0  0  0  0  0  0  0  0  0
   -0.7594   -1.0312    0.0000 C   0  0  0  0  0  0  0  0  0  0  0  0
   -0.7594   -0.2062    0.0000 N   0  0  0  0  0  0  0  0  0  0  0  0
   -0.0449    0.2062    0.0000 C   0  0  0  0  0  0  0  0  0  0  0  0
   -0.0449    1.0312    0.0000 C   0  0  0  0  0  0  0  0  0  0  0  0
   -0.7594    1.4437    0.0000 C   0  0  0  0  0  0  0  0  0  0  0  0
   -0.7594    2.2687    0.0000 N   0  0  0  0  0  0  0  0  0  0  0  0
   -0.0449    2.6812    0.0000 C   0  0  0  0  0  0  0  0  0  0  0  0
    0.6695    2.2687    0.0000 C   0  0  0  0  0  0  0  0  0  0  0  0
    1.4541    2.5236    0.0000 N   0  0  0  0  0  0  0  0  0  0  0  0
    1.9390    1.8562    0.0000 C   0  0  0  0  0  0  0  0  0  0  0  0
    1.4541    1.1887    0.0000 C   0  0  0  0  0  0  0  0  0  0  0  0
    0.6695    1.4437    0.0000 C   0  0  0  0  0  0  0  0  0  0  0  0
    0.6695   -0.2062    0.0000 N   0  0  0  0  0  0  0  0  0  0  0  0
    0.6695   -1.0312    0.0000 C   0  0  0  0  0  0  0  0  0  0  0  0
    1.3839   -1.4437    0.0000 C   0  0  0  0  0  0  0  0  0  0  0  0
    1.9142   -0.8117    0.0000 S   0  0  0  0  0  0  0  0  0  0  0  0
    2.6553   -1.3857    0.0000 O   0  0  0  0  0  0  0  0  0  0  0  0
    1.5223   -0.1068    0.0000 N   0  0  0  0  0  0  0  0  0  0  0  0
    2.9029   -0.1361    0.0000 C   0  0  0  0  0  0  0  0  0  0  0  0
    1.1018   -2.2189    0.0000 C   0  0  0  0  0  0  0  0  0  0  0  0
    1.9142   -2.0757    0.0000 C   0  0  0  0  0  0  0  0  0  0  0  0
   -0.0449   -1.4438    0.0000 C   0  0  0  0  0  0  0  0  0  0  0  0
  2  1  1  1
  2  3  1  0
  2  7  1  0
  3  4  1  0
  4  5  1  0
  5  6  1  0
  6  7  1  0
  7  8  1  0
  8  9  2  0
  8 29  1  0
  9 10  1  0
 10 11  1  0
 10 20  2  0
 11 12  2  0
 11 19  1  0
 12 13  1  0
 13 14  2  0
 14 15  1  0
 15 16  1  0
 15 19  2  0
 17 16  1  0
 18 17  2  0
 19 18  1  0
 20 21  1  0
 21 22  1  0
 21 29  2  0
 22 23  1  0
 22 27  1  0
 22 28  1  0
 23 24  2  0
 23 25  2  0
 23 26  1  0
 27 28  1  0
M  END
>  <DRUGBANK_ID>  (1) 
DB14917

>  <COMMON_NAME>  (1) 
Ceralasertib

>  <CAS_NUMBER>  (1) 
1352226-88-0

>  <UNII>  (1) 
85RE35306Z

>  <SYNONYMS>  (1) 
Ceralasertib

$$$$
