
     RDKit          2D

 37 39  0  0  0  0  0  0  0  0999 V2000
   -5.9292   -1.0218    0.0000 C   0  0  0  0  0  0  0  0  0  0  0  0
   -5.9292   -0.1968    0.0000 O   0  0  0  0  0  0  0  0  0  0  0  0
   -5.2147    0.2156    0.0000 C   0  0  0  0  0  0  0  0  0  0  0  0
   -5.2147    1.0406    0.0000 C   0  0  0  0  0  0  0  0  0  0  0  0
   -4.5002    1.4531    0.0000 C   0  0  0  0  0  0  0  0  0  0  0  0
   -3.7858    1.0406    0.0000 C   0  0  0  0  0  0  0  0  0  0  0  0
   -3.7858    0.2156    0.0000 C   0  0  0  0  0  0  0  0  0  0  0  0
   -4.5002   -0.1968    0.0000 C   0  0  0  0  0  0  0  0  0  0  0  0
   -3.0713    1.4531    0.0000 S   0  0  0  0  0  0  0  0  0  0  0  0
   -2.3568    1.0406    0.0000 C   0  0  0  0  0  0  0  0  0  0  0  0
   -1.6424    1.4531    0.0000 C   0  0  0  0  0  0  0  0  0  0  0  0
   -0.9279    1.0406    0.0000 C   0  0  0  0  0  0  0  0  0  0  0  0
   -0.9279    0.2156    0.0000 N   0  0  0  0  0  0  0  0  0  0  0  0
   -1.6424   -0.1968    0.0000 C   0  0  0  0  0  0  0  0  0  0  0  0
   -2.3568    0.2156    0.0000 N   0  0  0  0  0  0  0  0  0  0  0  0
   -1.6424   -1.0218    0.0000 N   0  0  0  0  0  0  0  0  0  0  0  0
   -0.3148    1.5926    0.0000 N   0  0  0  0  0  0  0  0  0  0  0  0
   -0.6504    2.3463    0.0000 C   0  0  0  0  0  0  0  0  0  0  0  0
   -1.4708    2.2601    0.0000 N   0  0  0  0  0  0  0  0  0  0  0  0
    0.4921    1.4211    0.0000 C   0  0  0  0  0  0  0  0  0  0  0  0
    0.7470    0.6365    0.0000 C   0  0  0  0  0  0  0  0  0  0  0  0
    1.5540    0.4649    0.0000 O   0  0  0  0  0  0  0  0  0  0  0  0
    1.8089   -0.3196    0.0000 C   0  0  0  0  0  0  0  0  0  0  0  0
    2.6159   -0.4911    0.0000 P   0  0  0  0  0  0  0  0  0  0  0  0
    2.4444   -1.2981    0.0000 O   0  0  0  0  0  0  0  0  0  0  0  0
    3.4229   -0.6626    0.0000 O   0  0  0  0  0  0  0  0  0  0  0  0
    3.9749   -0.0495    0.0000 C   0  0  0  0  0  0  0  0  0  0  0  0
    4.7819   -0.2211    0.0000 C   0  0  0  0  0  0  0  0  0  0  0  0
    5.5888   -0.3926    0.0000 F   0  0  0  0  0  0  0  0  0  0  0  0
    4.6103   -1.0280    0.0000 F   0  0  0  0  0  0  0  0  0  0  0  0
    4.9534    0.5858    0.0000 F   0  0  0  0  0  0  0  0  0  0  0  0
    2.7874    0.3158    0.0000 O   0  0  0  0  0  0  0  0  0  0  0  0
    3.5720    0.5707    0.0000 C   0  0  0  0  0  0  0  0  0  0  0  0
    3.7436    1.3777    0.0000 C   0  0  0  0  0  0  0  0  0  0  0  0
    3.9151    2.1847    0.0000 F   0  0  0  0  0  0  0  0  0  0  0  0
    4.5505    1.2062    0.0000 F   0  0  0  0  0  0  0  0  0  0  0  0
    2.9366    1.5492    0.0000 F   0  0  0  0  0  0  0  0  0  0  0  0
  1  2  1  0
  2  3  1  0
  3  4  2  0
  3  8  1  0
  4  5  1  0
  5  6  2  0
  6  7  1  0
  6  9  1  0
  7  8  2  0
  9 10  1  0
 10 11  2  0
 10 15  1  0
 11 12  1  0
 11 19  1  0
 12 13  2  0
 12 17  1  0
 13 14  1  0
 14 15  2  0
 14 16  1  0
 17 18  1  0
 17 20  1  0
 18 19  2  0
 20 21  1  0
 21 22  1  0
 22 23  1  0
 23 24  1  0
 24 25  2  0
 24 26  1  0
 24 32  1  0
 26 27  1  0
 27 28  1  0
 28 29  1  0
 28 30  1  0
 28 31  1  0
 32 33  1  0
 33 34  1  0
 34 35  1  0
 34 36  1  0
 34 37  1  0
M  END
>  <DRUGBANK_ID>  (1) 
DB06368

>  <COMMON_NAME>  (1) 
Alamifovir

>  <CAS_NUMBER>  (1) 
193681-12-8

>  <UNII>  (1) 
0N739K2A8A

>  <SYNONYMS>  (1) 
Alamifovir

$$$$
