
     RDKit          2D

 26 26  0  0  0  0  0  0  0  0999 V2000
    1.7861   -0.9207    0.0000 O   0  0  0  0  0  0  0  0  0  0  0  0
    3.6276   -0.2062    0.0000 O   0  0  0  0  0  0  0  0  0  0  0  0
    0.6591    1.0312    0.0000 O   0  0  0  0  0  0  0  0  0  0  0  0
   -1.4842    1.4437    0.0000 O   0  0  0  0  0  0  0  0  0  0  0  0
   -1.4842   -1.0312    0.0000 O   0  0  0  0  0  0  0  0  0  0  0  0
    2.9132    1.0312    0.0000 O   0  0  0  0  0  0  0  0  0  0  0  0
   -3.6277   -1.4437    0.0000 O   0  0  0  0  0  0  0  0  0  0  0  0
   -2.1987   -1.4437    0.0000 O   0  0  0  0  0  0  0  0  0  0  0  0
   -0.0552   -0.2062    0.0000 N   0  0  0  0  0  0  0  0  0  0  0  0
   -2.1987    0.2062    0.0000 N   0  0  0  0  0  0  0  0  0  0  0  0
    1.3736   -0.2062    0.0000 C   0  0  0  0  0  0  0  0  0  0  0  0
    2.1986   -0.2062    0.0000 C   0  0  0  0  0  0  0  0  0  0  0  0
   -0.7697    0.2062    0.0000 C   0  0  0  0  0  0  0  0  0  0  0  0
   -3.6277    0.2062    0.0000 C   0  0  0  0  0  0  0  0  0  0  0  0
    0.6591    0.2062    0.0000 C   0  0  0  0  0  0  0  0  0  0  0  0
   -2.9132   -0.2062    0.0000 C   0  0  0  0  0  0  0  0  0  0  0  0
   -0.7697    1.0312    0.0000 C   0  0  0  0  0  0  0  0  0  0  0  0
   -1.4842   -0.2062    0.0000 C   0  0  0  0  0  0  0  0  0  0  0  0
   -4.3422   -0.2062    0.0000 C   0  0  0  0  0  0  0  0  0  0  0  0
    2.9132    0.2062    0.0000 C   0  0  0  0  0  0  0  0  0  0  0  0
   -3.6277    1.0312    0.0000 C   0  0  0  0  0  0  0  0  0  0  0  0
   -2.9132   -1.0312    0.0000 C   0  0  0  0  0  0  0  0  0  0  0  0
   -0.0552    1.4437    0.0000 C   0  0  0  0  0  0  0  0  0  0  0  0
   -5.0567    0.2062    0.0000 C   0  0  0  0  0  0  0  0  0  0  0  0
    4.3421    0.2062    0.0000 C   0  0  0  0  0  0  0  0  0  0  0  0
    5.0566   -0.2062    0.0000 C   0  0  0  0  0  0  0  0  0  0  0  0
  1 11  1  0
  1 12  1  0
  2 20  1  0
  2 25  1  0
  3 15  2  0
  5 18  2  0
  6 20  2  0
  7 22  1  0
  8 22  2  0
  9 15  1  0
 10 18  1  0
 11 12  1  0
 11 15  1  6
 12 20  1  1
 13  9  1  6
 13 17  1  0
 13 18  1  0
 14 16  1  0
 14 19  1  0
 14 21  1  6
 16 10  1  6
 16 22  1  0
 17  4  1  0
 17 23  1  6
 19 24  1  0
 25 26  1  0
M  END
>  <DRUGBANK_ID>  (1) 
DB04579

>  <COMMON_NAME>  (1) 
N-{[(2S,3S)-3-(Ethoxycarbonyl)-2-oxiranyl]carbonyl}-L-threonyl-L-isoleucine

$$$$
