PPT
     RDKit          2D

 12 12  0  0  0  0  0  0  0  0999 V2000
    0.9141    1.1356    0.0000 C   0  0  0  0  0  0  0  0  0  0  0  0
    1.6286    1.5481    0.0000 C   0  0  0  0  0  0  0  0  0  0  0  0
    1.6286    2.3731    0.0000 O   0  0  0  0  0  0  0  0  0  0  0  0
    2.3431    1.1356    0.0000 O   0  0  0  0  0  0  0  0  0  0  0  0
    0.9141    0.3106    0.0000 C   0  0  0  0  0  0  0  0  0  0  0  0
    0.1997   -0.1019    0.0000 C   0  0  0  0  0  0  0  0  0  0  0  0
    0.1997   -0.9269    0.0000 C   0  0  0  0  0  0  0  0  0  0  0  0
   -0.5148    0.3106    0.0000 C   0  0  0  0  0  0  0  0  0  0  0  0
   -0.5148   -1.3394    0.0000 C   0  0  0  0  0  0  0  0  0  0  0  0
   -1.2293   -0.1019    0.0000 C   0  0  0  0  0  0  0  0  0  0  0  0
   -1.2293   -0.9269    0.0000 C   0  0  0  0  0  0  0  0  0  0  0  0
   -1.9437   -1.3394    0.0000 C   0  0  0  0  0  0  0  0  0  0  0  0
  1  2  1  0
  1  5  1  0
  2  3  2  0
  2  4  1  0
  5  6  1  0
  6  7  2  0
  6  8  1  0
  7  9  1  0
  8 10  2  0
  9 11  2  0
 10 11  1  0
 11 12  1  0
M  END
>  <DRUGBANK_ID>  (1) 
DB03400

>  <SECONDARY_ACCESSION_NUMBERS>  (1) 
EXPT02648

>  <COMMON_NAME>  (1) 
3-(P-Tolyl)Propionic Acid

>  <UNII>  (1) 
BG327JNM0V

$$$$
