
     RDKit          2D

 22 24  0  0  0  0  0  0  0  0999 V2000
    0.1612   -2.3874    0.0000 C   0  0  0  0  0  0  0  0  0  0  0  0
    0.3231   -3.1971    0.0000 C   0  0  0  0  0  0  0  0  0  0  0  0
   -0.2426   -3.7636    0.0000 C   0  0  0  0  0  0  0  0  0  0  0  0
   -1.0523   -3.5210    0.0000 C   0  0  0  0  0  0  0  0  0  0  0  0
   -1.2142   -2.7113    0.0000 C   0  0  0  0  0  0  0  0  0  0  0  0
   -0.5665   -2.1448    0.0000 C   0  0  0  0  0  0  0  0  0  0  0  0
   -0.7284   -1.3351    0.0000 S   0  0  0  0  0  0  0  0  0  0  0  0
   -0.1619   -0.7687    0.0000 C   0  0  0  0  0  0  0  0  0  0  0  0
    0.6470   -1.0112    0.0000 C   0  0  0  0  0  0  0  0  0  0  0  0
    1.2135   -0.5261    0.0000 C   0  0  0  0  0  0  0  0  0  0  0  0
    1.0515    0.2828    0.0000 C   0  0  0  0  0  0  0  0  0  0  0  0
    0.3231    0.5254    0.0000 C   0  0  0  0  0  0  0  0  0  0  0  0
    0.3231    1.3351    0.0000 N   0  0  0  0  0  0  0  0  0  0  0  0
    1.0515    1.5777    0.0000 C   0  0  0  0  0  0  0  0  0  0  0  0
    1.2948    2.3874    0.0000 N   0  0  0  0  0  0  0  0  0  0  0  0
    0.8090    2.9539    0.0000 C   0  0  0  0  0  0  0  0  0  0  0  0
    0.0000    2.7919    0.0000 O   0  0  0  0  0  0  0  0  0  0  0  0
   -0.5665    3.4397    0.0000 C   0  0  0  0  0  0  0  0  0  0  0  0
   -0.3231   -0.0411    0.0000 C   0  0  0  0  0  0  0  0  0  0  0  0
   -1.5374   -1.0926    0.0000 O   0  0  0  0  0  0  0  0  0  0  0  0
    1.0515    3.7636    0.0000 O   0  0  0  0  0  0  0  0  0  0  0  0
    1.5374    0.9307    0.0000 N   0  0  0  0  0  0  0  0  0  0  0  0
  1  2  2  0
  1  6  1  0
  2  3  1  0
  3  4  2  0
  4  5  1  0
  5  6  2  0
  6  7  1  0
  7  8  1  0
  7 20  2  0
  8  9  2  0
  8 19  1  0
  9 10  1  0
 10 11  2  0
 11 12  1  0
 11 22  1  0
 12 13  1  0
 12 19  2  0
 13 14  2  0
 14 15  1  0
 14 22  1  0
 15 16  1  0
 16 17  1  0
 16 21  2  0
 17 18  1  0
M  END
>  <DRUGBANK_ID>  (1) 
DB11446

>  <COMMON_NAME>  (1) 
Oxfendazole

>  <CAS_NUMBER>  (1) 
53716-50-0

>  <UNII>  (1) 
OMP2H17F9E

>  <SYNONYMS>  (1) 
(5-(phenylsulfinyl)-1H-benzimidazol-2-yl)carbamic acid methyl ester; 5-(phenylsulfinyl)-2-benzimidazolecarbamic acid methyl ester; 5-phenylsulfinyl-2-carbomethoxyaminobenzimidazole; Fenbendazole S-oxide; Fenbendazole sulfoxide; Fenbendazole sulphoxide; OFDZ; Oxfendazole

$$$$
