
     RDKit          2D

 33 37  0  0  1  0  0  0  0  0999 V2000
    6.4302    2.0625    0.0000 C   0  0  0  0  0  0  0  0  0  0  0  0
    6.1283    4.5695    0.0000 C   0  0  0  0  0  0  0  0  0  0  0  0
    5.3033    4.5695    0.0000 C   0  0  0  0  0  0  0  0  0  0  0  0
    2.8579   -2.4750    0.0000 C   0  0  0  0  0  0  0  0  0  0  0  0
    3.5724   -1.2375    0.0000 C   0  0  0  0  0  0  0  0  0  0  0  0
    3.5724   -0.4125    0.0000 C   0  0  0  0  0  0  0  0  0  0  0  0
    2.8579    0.8250    0.0000 C   0  0  0  0  0  0  0  0  0  0  0  0
    3.5724   -2.8875    0.0000 C   0  0  0  0  0  0  0  0  0  0  0  0
    4.2868   -1.6500    0.0000 C   0  0  0  0  0  0  0  0  0  0  0  0
   -0.7145   -0.4125    0.0000 C   0  0  0  0  0  0  0  0  0  0  0  0
    4.2868    0.0000    0.0000 C   0  0  0  0  0  0  0  0  0  0  0  0
    3.5724    1.2375    0.0000 C   0  0  0  0  0  0  0  0  0  0  0  0
    0.0000    0.0000    0.0000 C   0  0  0  0  0  0  0  0  0  0  0  0
    6.3832    3.7849    0.0000 C   0  0  0  0  0  0  0  0  0  0  0  0
    5.0483    3.7849    0.0000 C   0  0  0  0  0  0  0  0  0  0  0  0
    0.0000   -1.6500    0.0000 C   0  0  0  0  0  0  0  0  0  0  0  0
    5.0013    2.0625    0.0000 C   0  0  0  0  0  0  0  0  0  0  0  0
    5.7158    2.4750    0.0000 C   0  0  0  0  0  0  0  0  0  0  0  0
    2.8579    0.0000    0.0000 C   0  0  0  0  0  0  0  0  0  0  0  0
    2.8579   -1.6500    0.0000 C   0  0  0  0  0  0  0  0  0  0  0  0
    4.2868   -2.4750    0.0000 C   0  0  0  0  0  0  0  0  0  0  0  0
   -0.7145   -1.2375    0.0000 C   0  0  0  0  0  0  0  0  0  0  0  0
    4.2868    0.8250    0.0000 C   0  0  0  0  0  0  0  0  0  0  0  0
    0.7145   -0.4125    0.0000 C   0  0  0  0  0  0  0  0  0  0  0  0
    0.7145   -1.2375    0.0000 C   0  0  0  0  0  0  0  0  0  0  0  0
    2.1434   -0.4125    0.0000 C   0  0  0  0  0  0  0  0  0  0  0  0
    2.1434   -1.2375    0.0000 C   0  0  0  0  0  0  0  0  0  0  0  0
    5.7158    3.3000    0.0000 N   0  0  0  0  0  0  0  0  0  0  0  0
    5.0013   -2.8875    0.0000 O   0  0  0  0  0  0  0  0  0  0  0  0
   -1.4289   -1.6500    0.0000 O   0  0  0  0  0  0  0  0  0  0  0  0
    5.0013    1.2375    0.0000 O   0  0  0  0  0  0  0  0  0  0  0  0
    1.4289   -0.0000    0.0000 O   0  0  0  0  0  0  0  0  0  0  0  0
    1.4289   -1.6500    0.0000 S   0  0  0  0  0  0  0  0  0  0  0  0
  3  2  1  0
  8  4  2  0
  9  5  1  0
 11  6  2  0
 12  7  1  0
 13 10  2  0
 14  2  1  0
 15  3  1  0
 18  1  1  1
 18 17  1  0
 19  6  1  0
 19  7  2  0
 20  4  1  0
 20  5  2  0
 21  8  1  0
 21  9  2  0
 22 10  1  0
 22 16  2  0
 23 11  1  0
 23 12  2  0
 24 13  1  0
 25 16  1  0
 25 24  2  0
 26 19  1  1
 27 20  1  1
 27 26  1  0
 28 14  1  0
 28 15  1  0
 28 18  1  0
 29 21  1  0
 30 22  1  0
 31 17  1  0
 31 23  1  0
 32 24  1  0
 32 26  1  0
 33 25  1  0
 33 27  1  0
M  END
>  <DRUGBANK_ID>  (1) 
DB02715

>  <SECONDARY_ACCESSION_NUMBERS>  (1) 
EXPT00473

>  <COMMON_NAME>  (1) 
Compound 18

>  <CAS_NUMBER>  (1) 
31112-66-0

$$$$
