ECG
     RDKit          2D

 14 15  0  0  0  0  0  0  0  0999 V2000
   -0.4132   -0.0716    0.0000 C   0  0  0  0  0  0  0  0  0  0  0  0
   -0.0927    0.6370    0.0000 C   0  0  0  0  0  0  0  0  0  0  0  0
    0.8361    0.6525    0.0000 C   0  0  0  0  0  0  0  0  0  0  0  0
    0.9743   -0.1649    0.0000 C   0  0  0  0  0  0  0  0  0  0  0  0
    1.3861   -0.8797    0.0000 O   0  0  0  0  0  0  0  0  0  0  0  0
   -1.0335   -0.4485    0.0000 C   0  0  0  0  0  0  0  0  0  0  0  0
   -0.5136    0.2638    0.0000 C   0  0  0  0  0  0  0  0  0  0  0  0
   -0.6533    1.0769    0.0000 N   0  0  0  0  0  0  0  0  0  0  0  0
    0.4581    0.2638    0.0000 C   0  0  0  0  0  0  0  0  0  0  0  0
    0.1779   -0.5121    0.0000 C   0  0  0  0  0  0  0  0  0  0  0  0
   -0.6342   -0.6574    0.0000 O   0  0  0  0  0  0  0  0  0  0  0  0
   -0.9144   -1.4335    0.0000 C   0  0  0  0  0  0  0  0  0  0  0  0
    0.7098   -1.1428    0.0000 O   0  0  0  0  0  0  0  0  0  0  0  0
   -1.0759    1.7855    0.0000 C   0  0  0  0  0  0  0  0  0  0  0  0
  2  1  1  6
  1  6  1  0
  2  3  1  0
  2  8  1  0
  3  4  1  0
  4  5  1  6
  4  9  1  0
  7  6  1  1
  7  8  1  0
  7  9  1  0
  8 14  1  0
  9 10  1  1
 10 11  1  0
 10 13  2  0
 11 12  1  0
M  END
>  <DRUGBANK_ID>  (1) 
DB04688

>  <COMMON_NAME>  (1) 
Methylecgonine

>  <CAS_NUMBER>  (1) 
7143-09-1

>  <UNII>  (1) 
Y35FJB3QBJ

>  <SYNONYMS>  (1) 
Ecgonine methyl ester

$$$$
