
     RDKit          2D

 20 22  0  0  0  0  0  0  0  0999 V2000
    3.8679    0.8127    0.0000 N   0  0  0  0  0  0  0  0  0  0  0  0
    3.4555    1.5272    0.0000 N   0  0  0  0  0  0  0  0  0  0  0  0
    3.3158    0.1996    0.0000 N   0  0  0  0  0  0  0  0  0  0  0  0
    2.5622    0.5352    0.0000 C   0  0  0  0  0  0  0  0  0  0  0  0
    2.6485    1.3556    0.0000 N   0  0  0  0  0  0  0  0  0  0  0  0
   -2.4390   -0.7022    0.0000 N   0  0  0  0  0  0  0  0  0  0  0  0
   -2.4390    0.1227    0.0000 C   0  0  0  0  0  0  0  0  0  0  0  0
   -1.0101    0.1227    0.0000 C   0  0  0  0  0  0  0  0  0  0  0  0
   -3.1535    0.5352    0.0000 C   0  0  0  0  0  0  0  0  0  0  0  0
   -1.7246    0.5352    0.0000 C   0  0  0  0  0  0  0  0  0  0  0  0
   -1.0101   -0.7022    0.0000 C   0  0  0  0  0  0  0  0  0  0  0  0
   -1.7246   -1.1147    0.0000 C   0  0  0  0  0  0  0  0  0  0  0  0
   -0.2956    0.5352    0.0000 C   0  0  0  0  0  0  0  0  0  0  0  0
   -3.8680    0.1227    0.0000 O   0  0  0  0  0  0  0  0  0  0  0  0
   -0.2956   -1.1147    0.0000 C   0  0  0  0  0  0  0  0  0  0  0  0
    1.8477    0.1227    0.0000 C   0  0  0  0  0  0  0  0  0  0  0  0
   -3.1535    1.3602    0.0000 O   0  0  0  0  0  0  0  0  0  0  0  0
    0.4189    0.1227    0.0000 C   0  0  0  0  0  0  0  0  0  0  0  0
    0.4189   -0.7022    0.0000 C   0  0  0  0  0  0  0  0  0  0  0  0
    1.1333    0.5352    0.0000 C   0  0  0  0  0  0  0  0  0  0  0  0
  2  1  2  0
  3  1  1  0
  4  3  1  0
  5  2  1  0
  5  4  2  0
  6 12  1  0
  6  7  1  0
  7 10  1  0
  7  9  1  6
  8 13  1  1
 10  8  1  0
 11 15  1  1
 11  8  1  0
 12 11  1  0
 13 18  1  0
 14  9  2  0
 15 19  1  0
 16  4  1  0
 17  9  1  0
 18 20  1  1
 19 18  1  0
 20 16  1  0
M  END
>  <DRUGBANK_ID>  (1) 
DB06354

>  <COMMON_NAME>  (1) 
Tezampanel

>  <CAS_NUMBER>  (1) 
154652-83-2

>  <UNII>  (1) 
GA36S2O9C2

>  <SYNONYMS>  (1) 
Tezampanel; Tezampanel (anhydrous); Tezampanel, anhydrous

$$$$
