
     RDKit          2D

 24 26  0  0  0  0  0  0  0  0999 V2000
    1.7120    0.0316    0.0000 C   0  0  0  0  0  0  0  0  0  0  0  0
    3.1409   -0.7933    0.0000 C   0  0  0  0  0  0  0  0  0  0  0  0
    2.4265   -1.2058    0.0000 C   0  0  0  0  0  0  0  0  0  0  0  0
    0.9975   -1.2058    0.0000 C   0  0  0  0  0  0  0  0  0  0  0  0
   -2.9763    1.3164    0.0000 C   0  0  0  0  0  0  0  0  0  0  0  0
   -2.2555   -1.3164    0.0000 C   0  0  0  0  0  0  0  0  0  0  0  0
    0.2830   -0.7933    0.0000 C   0  0  0  0  0  0  0  0  0  0  0  0
   -3.1488   -0.3244    0.0000 C   0  0  0  0  0  0  0  0  0  0  0  0
    0.1968    0.0271    0.0000 C   0  0  0  0  0  0  0  0  0  0  0  0
   -0.6101    0.1986    0.0000 C   0  0  0  0  0  0  0  0  0  0  0  0
   -3.8162    0.1604    0.0000 C   0  0  0  0  0  0  0  0  0  0  0  0
   -2.3951    0.0110    0.0000 C   0  0  0  0  0  0  0  0  0  0  0  0
   -1.0226   -0.5157    0.0000 C   0  0  0  0  0  0  0  0  0  0  0  0
   -4.5699   -0.1751    0.0000 N   0  0  0  0  0  0  0  0  0  0  0  0
    4.5699   -0.7933    0.0000 N   0  0  0  0  0  0  0  0  0  0  0  0
   -3.7300    0.9809    0.0000 N   0  0  0  0  0  0  0  0  0  0  0  0
   -2.3088    0.8315    0.0000 N   0  0  0  0  0  0  0  0  0  0  0  0
   -3.0625   -1.1449    0.0000 N   0  0  0  0  0  0  0  0  0  0  0  0
   -1.8430   -0.6020    0.0000 N   0  0  0  0  0  0  0  0  0  0  0  0
    0.8099    0.5791    0.0000 O   0  0  0  0  0  0  0  0  0  0  0  0
   -0.9456    0.9523    0.0000 O   0  0  0  0  0  0  0  0  0  0  0  0
    3.8554   -1.2058    0.0000 O   0  0  0  0  0  0  0  0  0  0  0  0
   -0.4705   -1.1288    0.0000 O   0  0  0  0  0  0  0  0  0  0  0  0
    1.7120   -0.7933    0.0000 S   0  0  0  0  0  0  0  0  0  0  0  0
  3  2  1  0
  7  4  1  6
  7 23  1  0
  9  7  1  0
  9 10  1  0
  9 20  1  6
 10 13  1  0
 10 21  1  6
 11  8  2  0
 12  8  1  0
 13 19  1  1
 13 23  1  0
 14 11  1  0
 16  5  2  0
 16 11  1  0
 17  5  1  0
 17 12  2  0
 18  6  2  0
 18  8  1  0
 19  6  1  0
 19 12  1  0
 22  2  1  0
 22 15  1  0
 24  1  1  0
 24  3  1  0
 24  4  1  0
M  CHG  1  24   1
M  END
>  <DRUGBANK_ID>  (1) 
DB02523

>  <SECONDARY_ACCESSION_NUMBERS>  (1) 
EXPT00380

>  <COMMON_NAME>  (1) 
2-aminooxyethyl-[[(2R,3S,4R,5R)-5-(6-aminopurin-9-yl)-3,4-dihydroxy-tetrahydrofuran-2-yl]methyl]-methyl-sulfonium

$$$$
