122
     RDKit          2D

 19 21  0  0  0  0  0  0  0  0999 V2000
    1.9586    0.0413    0.0000 C   0  0  0  0  0  0  0  0  0  0  0  0
    1.9586   -0.7837    0.0000 C   0  0  0  0  0  0  0  0  0  0  0  0
    1.2441   -1.1962    0.0000 C   0  0  0  0  0  0  0  0  0  0  0  0
    0.5297   -0.7837    0.0000 C   0  0  0  0  0  0  0  0  0  0  0  0
    0.5297    0.0413    0.0000 C   0  0  0  0  0  0  0  0  0  0  0  0
    1.2441    0.4538    0.0000 C   0  0  0  0  0  0  0  0  0  0  0  0
    2.6731    0.4538    0.0000 C   0  0  0  0  0  0  0  0  0  0  0  0
    3.3875    0.0413    0.0000 N   0  0  0  0  0  0  0  0  0  0  0  0
    2.6731    1.2788    0.0000 N   0  0  0  0  0  0  0  0  0  0  0  0
   -0.2550   -1.0386    0.0000 N   0  0  0  0  0  0  0  0  0  0  0  0
   -0.2550    0.2963    0.0000 N   0  0  0  0  0  0  0  0  0  0  0  0
   -0.7399   -0.3712    0.0000 C   0  0  0  0  0  0  0  0  0  0  0  0
   -1.5649   -0.3712    0.0000 C   0  0  0  0  0  0  0  0  0  0  0  0
   -1.9774   -1.0856    0.0000 C   0  0  0  0  0  0  0  0  0  0  0  0
   -2.8024   -1.0856    0.0000 C   0  0  0  0  0  0  0  0  0  0  0  0
   -3.2149   -0.3712    0.0000 C   0  0  0  0  0  0  0  0  0  0  0  0
   -2.8024    0.3433    0.0000 C   0  0  0  0  0  0  0  0  0  0  0  0
   -1.9774    0.3433    0.0000 C   0  0  0  0  0  0  0  0  0  0  0  0
   -1.5649    1.0578    0.0000 O   0  0  0  0  0  0  0  0  0  0  0  0
  1  2  2  0
  1  6  1  0
  1  7  1  0
  2  3  1  0
  3  4  2  0
  4  5  1  0
  4 10  1  0
  5  6  2  0
  5 11  1  0
  7  8  1  0
  7  9  2  0
 10 12  2  0
 11 12  1  0
 12 13  1  0
 13 14  2  0
 13 18  1  0
 14 15  1  0
 15 16  2  0
 16 17  1  0
 17 18  2  0
 18 19  1  0
M  CHG  1   9   1
M  END
>  <DRUGBANK_ID>  (1) 
DB02287

>  <SECONDARY_ACCESSION_NUMBERS>  (1) 
EXPT00728; EXPT00016; DB02193

>  <COMMON_NAME>  (1) 
2-(2-hydroxy-phenyl)-3H-benzoimidazole-5-carboxamidine

>  <SYNONYMS>  (1) 
[2-(2-Hydroxyphenyl)-1H-benzimidazol-5-yl](imino)methanaminium

$$$$
