
     RDKit          2D

 33 36  0  0  0  0  0  0  0  0999 V2000
   -2.7786   -3.1329    0.0000 C   0  0  0  0  0  0  0  0  0  0  0  0
   -2.7786   -2.3079    0.0000 C   0  0  0  0  0  0  0  0  0  0  0  0
   -2.0641   -1.8954    0.0000 C   0  0  0  0  0  0  0  0  0  0  0  0
   -2.0641   -3.5454    0.0000 C   0  0  0  0  0  0  0  0  0  0  0  0
   -1.3497   -3.1329    0.0000 C   0  0  0  0  0  0  0  0  0  0  0  0
   -0.6352   -3.5454    0.0000 C   0  0  0  0  0  0  0  0  0  0  0  0
    0.0792   -3.1329    0.0000 C   0  0  0  0  0  0  0  0  0  0  0  0
    0.0792   -2.3079    0.0000 C   0  0  0  0  0  0  0  0  0  0  0  0
    0.7937   -1.8954    0.0000 C   0  0  0  0  0  0  0  0  0  0  0  0
    1.5783   -2.1503    0.0000 C   0  0  0  0  0  0  0  0  0  0  0  0
    2.0632   -1.4829    0.0000 C   0  0  0  0  0  0  0  0  0  0  0  0
    1.5873   -0.8131    0.0000 C   0  0  0  0  0  0  0  0  0  0  0  0
    1.3098    0.2227    0.0000 C   0  0  0  0  0  0  0  0  0  0  0  0
    0.5328    0.4543    0.0000 C   0  0  0  0  0  0  0  0  0  0  0  0
    0.7937   -1.0704    0.0000 C   0  0  0  0  0  0  0  0  0  0  0  0
    0.7937   -0.2454    0.0000 C   0  0  0  0  0  0  0  0  0  0  0  0
    0.0792   -0.6579    0.0000 C   0  0  0  0  0  0  0  0  0  0  0  0
   -0.6352   -1.0704    0.0000 C   0  0  0  0  0  0  0  0  0  0  0  0
   -0.6352   -1.8954    0.0000 C   0  0  0  0  0  0  0  0  0  0  0  0
   -1.3497   -2.3079    0.0000 C   0  0  0  0  0  0  0  0  0  0  0  0
   -1.3497   -1.4829    0.0000 C   0  0  0  0  0  0  0  0  0  0  0  0
   -3.4931   -3.5454    0.0000 O   0  0  0  0  0  0  0  0  0  0  0  0
    1.9123    0.7982    0.0000 O   0  0  0  0  0  0  0  0  0  0  0  0
    2.3260   -0.4668    0.0000 O   0  0  0  0  0  0  0  0  0  0  0  0
   -1.3497   -0.6579    0.0000 O   0  0  0  0  0  0  0  0  0  0  0  0
    0.9266    1.8279    0.0000 C   0  0  0  0  0  0  0  0  0  0  0  0
    0.7131    2.6248    0.0000 C   0  0  0  0  0  0  0  0  0  0  0  0
    1.3135    3.1997    0.0000 C   0  0  0  0  0  0  0  0  0  0  0  0
    2.1065    2.9723    0.0000 C   0  0  0  0  0  0  0  0  0  0  0  0
    2.7000    3.5454    0.0000 C   0  0  0  0  0  0  0  0  0  0  0  0
    3.4931    3.3179    0.0000 C   0  0  0  0  0  0  0  0  0  0  0  0
    1.7127    1.5987    0.0000 O   0  0  0  0  0  0  0  0  0  0  0  0
    0.3192    1.2512    0.0000 O   0  0  0  0  0  0  0  0  0  0  0  0
  1  2  1  0
  1  4  1  0
  1 22  2  0
  2  3  2  0
  3 20  1  0
  4  5  2  0
  5  6  1  0
  5 20  1  0
  6  7  1  0
  8  7  1  6
  8  9  1  0
  8 19  1  0
  9 10  1  1
  9 15  1  0
 10 11  1  0
 11 12  1  0
 12 13  1  0
 12 15  1  0
 12 24  1  6
 13 14  1  0
 13 23  2  0
 14 33  1  0
 15 16  1  1
 15 17  1  0
 17 18  1  0
 19 18  1  1
 18 25  1  1
 19 20  1  0
 20 21  1  1
 26 27  1  0
 26 32  2  0
 26 33  1  0
 27 28  1  0
 28 29  1  0
 29 30  1  0
 30 31  1  0
M  END
>  <DRUGBANK_ID>  (1) 
DB15999

>  <COMMON_NAME>  (1) 
Prednisolone caproate

>  <CAS_NUMBER>  (1) 
69164-69-8

>  <UNII>  (1) 
0PA7CJ4RFB

>  <SYNONYMS>  (1) 
Prednisolone hexanoate; Prednisolone-21 hexanoate

$$$$
