
     RDKit          2D

 24 23  0  0  0  0  0  0  0  0999 V2000
    7.1450   -0.2063    0.0000 O   0  0  0  0  0  0  0  0  0  0  0  0
    5.7161   -1.0313    0.0000 N   0  0  0  0  0  0  0  0  0  0  0  0
    5.7161   -0.2063    0.0000 C   0  0  0  0  0  0  0  0  0  0  0  0
    5.0016    0.2062    0.0000 C   0  0  0  0  0  0  0  0  0  0  0  0
    4.2870   -0.2063    0.0000 S   0  0  0  0  0  0  0  0  0  0  0  0
    3.5726    0.2062    0.0000 C   0  0  0  0  0  0  0  0  0  0  0  0
    3.5726    1.0313    0.0000 O   0  0  0  0  0  0  0  0  0  0  0  0
    2.8580   -0.2063    0.0000 C   0  0  0  0  0  0  0  0  0  0  0  0
    2.1434    0.2062    0.0000 C   0  0  0  0  0  0  0  0  0  0  0  0
    1.4290   -0.2063    0.0000 C   0  0  0  0  0  0  0  0  0  0  0  0
    0.7145    0.2062    0.0000 C   0  0  0  0  0  0  0  0  0  0  0  0
    0.0000   -0.2063    0.0000 C   0  0  0  0  0  0  0  0  0  0  0  0
   -0.7145    0.2062    0.0000 C   0  0  0  0  0  0  0  0  0  0  0  0
   -1.4289   -0.2063    0.0000 C   0  0  0  0  0  0  0  0  0  0  0  0
   -2.1435    0.2062    0.0000 C   0  0  0  0  0  0  0  0  0  0  0  0
   -2.8579   -0.2063    0.0000 C   0  0  0  0  0  0  0  0  0  0  0  0
   -3.5725    0.2062    0.0000 C   0  0  0  0  0  0  0  0  0  0  0  0
   -4.2869   -0.2063    0.0000 C   0  0  0  0  0  0  0  0  0  0  0  0
   -5.0015    0.2062    0.0000 C   0  0  0  0  0  0  0  0  0  0  0  0
   -5.7160   -0.2063    0.0000 C   0  0  0  0  0  0  0  0  0  0  0  0
    6.4306    0.2062    0.0000 C   0  0  0  0  0  0  0  0  0  0  0  0
   -6.4304    0.2062    0.0000 C   0  0  0  0  0  0  0  0  0  0  0  0
   -7.1450   -0.2063    0.0000 C   0  0  0  0  0  0  0  0  0  0  0  0
    6.4306    1.0313    0.0000 O   0  0  0  0  0  0  0  0  0  0  0  0
  1 21  1  0
  3  2  1  1
  3  4  1  0
  3 21  1  0
  4  5  1  0
  5  6  1  0
  6  7  2  0
  6  8  1  0
  8  9  1  0
  9 10  1  0
 10 11  1  0
 11 12  1  0
 12 13  1  0
 13 14  1  0
 14 15  1  0
 15 16  1  0
 16 17  1  0
 17 18  1  0
 18 19  1  0
 19 20  1  0
 20 22  1  0
 21 24  2  0
 22 23  1  0
M  END
>  <DRUGBANK_ID>  (1) 
DB08342

>  <COMMON_NAME>  (1) 
S-palmitoyl-L-cysteine

>  <CAS_NUMBER>  (1) 
114507-35-6

>  <UNII>  (1) 
08WQ73S7SV

>  <SYNONYMS>  (1) 
S-Palmitoyl cysteine

$$$$
