
     RDKit          2D

 20 23  0  0  0  0  0  0  0  0999 V2000
   -0.0041    0.0291    0.0000 C   0  0  0  0  0  0  0  0  0  0  0  0
    0.8209    0.0291    0.0000 C   0  0  0  0  0  0  0  0  0  0  0  0
   -0.5209    0.6750    0.0000 C   0  0  0  0  0  0  0  0  0  0  0  0
    0.4083    1.8376    0.0000 O   0  0  0  0  0  0  0  0  0  0  0  0
   -0.3333    1.4793    0.0000 C   0  0  0  0  0  0  0  0  0  0  0  0
    1.3335    0.6750    0.0000 C   0  0  0  0  0  0  0  0  0  0  0  0
    1.1459    1.4793    0.0000 C   0  0  0  0  0  0  0  0  0  0  0  0
    0.4083   -1.2377    0.0000 N   0  0  0  0  0  0  0  0  0  0  0  0
   -0.2583   -0.7501    0.0000 C   0  0  0  0  0  0  0  0  0  0  0  0
    1.0709   -0.7501    0.0000 C   0  0  0  0  0  0  0  0  0  0  0  0
   -1.3460    0.4750    0.0000 C   0  0  0  0  0  0  0  0  0  0  0  0
   -0.9209    2.0628    0.0000 C   0  0  0  0  0  0  0  0  0  0  0  0
   -1.9293    1.0542    0.0000 C   0  0  0  0  0  0  0  0  0  0  0  0
   -1.7168    1.8501    0.0000 C   0  0  0  0  0  0  0  0  0  0  0  0
   -2.7294    0.8417    0.0000 Cl  0  0  0  0  0  0  0  0  0  0  0  0
    0.4083   -2.0628    0.0000 C   0  0  0  0  0  0  0  0  0  0  0  0
    2.1211    0.4375    0.0000 C   0  0  0  0  0  0  0  0  0  0  0  0
    1.7543    2.0418    0.0000 C   0  0  0  0  0  0  0  0  0  0  0  0
    2.7294    1.0000    0.0000 C   0  0  0  0  0  0  0  0  0  0  0  0
    2.5461    1.8001    0.0000 C   0  0  0  0  0  0  0  0  0  0  0  0
  1  3  1  0
  1  9  1  0
  2  1  1  0
  2  6  1  0
  2 10  1  0
  4  5  1  0
  5  3  2  0
  7  6  2  0
  7  4  1  0
  8  9  1  0
  8 10  1  0
 11  3  1  0
 12  5  1  0
 13 11  2  0
 14 12  2  0
 14 13  1  0
 15 13  1  0
 16  8  1  0
 17  6  1  0
 18  7  1  0
 19 17  2  0
 19 20  1  0
 20 18  2  0
M  END
>  <DRUGBANK_ID>  (1) 
DB06216

>  <COMMON_NAME>  (1) 
Asenapine

>  <CAS_NUMBER>  (1) 
65576-45-6

>  <UNII>  (1) 
JKZ19V908O

>  <SYNONYMS>  (1) 
Asenapina; Asenapine

$$$$
