
     RDKit          2D

  3  2  0  0  0  0  0  0  0  0999 V2000
   -0.0824    0.0042    0.0000 Ca  0  0  0  0  0  2  0  0  0  0  0  0
   -0.8250   -0.0042    0.0000 F   0  0  0  0  0  0  0  0  0  0  0  0
    0.8250   -0.0042    0.0000 F   0  0  0  0  0  0  0  0  0  0  0  0
  1  2  1  0
  1  3  1  0
M  END
>  <DRUGBANK_ID>  (1) 
DB15962

>  <COMMON_NAME>  (1) 
Calcium fluoride

>  <CAS_NUMBER>  (1) 
7789-75-5

>  <UNII>  (1) 
O3B55K4YKI

>  <SYNONYMS>  (1) 
Fluorspar

$$$$
