313
     RDKit          2D

  1  0  0  0  0  0  0  0  0  0999 V2000
    1.6500    0.0000    0.0000 Cl  0  0  0  0  0  0  0  0  0  0  0  0
M  END
>  <DRUGBANK_ID>  (1) 
DB13366

>  <COMMON_NAME>  (1) 
Hydrochloric acid

>  <CAS_NUMBER>  (1) 
7647-01-0

>  <UNII>  (1) 
QTT17582CB

>  <SYNONYMS>  (1) 
Chlorowodor; Chlorure d'hydrogène; Chlorwasserstoff; Cloruro de hidrógeno; Hydrochloric acid; Hydrogenchlorid; Wasserstoffchlorid

$$$$
