
     RDKit          2D

 19 18  0  0  0  0  0  0  0  0999 V2000
    3.2141   -0.4233    0.0000 C   0  0  0  0  0  0  0  0  0  0  0  0
    3.2141    0.4016    0.0000 O   0  0  0  0  0  0  0  0  0  0  0  0
    2.4996   -0.8358    0.0000 C   0  0  0  0  0  0  0  0  0  0  0  0
    2.4996   -1.6609    0.0000 N   0  0  0  0  0  0  0  0  0  0  0  0
   -1.0726   -0.4233    0.0000 N   0  0  0  0  0  0  0  0  0  0  0  0
   -0.3582   -0.8358    0.0000 C   0  0  0  0  0  0  0  0  0  0  0  0
    1.7851   -0.4233    0.0000 C   0  0  0  0  0  0  0  0  0  0  0  0
    0.3561   -0.4233    0.0000 C   0  0  0  0  0  0  0  0  0  0  0  0
    1.0707   -0.8358    0.0000 C   0  0  0  0  0  0  0  0  0  0  0  0
    3.9286   -0.8358    0.0000 O   0  0  0  0  0  0  0  0  0  0  0  0
   -1.0706    0.4231    0.0000 C   0  0  0  0  0  0  0  0  0  0  0  0
   -0.3551    0.8339    0.0000 C   0  0  0  0  0  0  0  0  0  0  0  0
   -0.3530    1.6589    0.0000 O   0  0  0  0  0  0  0  0  0  0  0  0
    0.3584    0.4196    0.0000 O   0  0  0  0  0  0  0  0  0  0  0  0
   -1.7850    0.8357    0.0000 C   0  0  0  0  0  0  0  0  0  0  0  0
   -2.4995    0.4231    0.0000 C   0  0  0  0  0  0  0  0  0  0  0  0
   -3.2141    0.8357    0.0000 C   0  0  0  0  0  0  0  0  0  0  0  0
   -3.9286    0.4231    0.0000 O   0  0  0  0  0  0  0  0  0  0  0  0
   -3.2140    1.6609    0.0000 O   0  0  0  0  0  0  0  0  0  0  0  0
  1  2  2  0
  1  3  1  0
  3  4  1  1
  3  7  1  0
  5  6  1  0
  6  8  1  0
  7  9  1  0
  8  9  1  0
 10  1  1  0
 11  5  1  0
 11 12  1  0
 13 12  2  0
 14 12  1  0
 11 15  1  1
 16 15  1  0
 16 17  1  0
 18 17  1  0
 19 17  2  0
M  END
>  <DRUGBANK_ID>  (1) 
DB04207

>  <SECONDARY_ACCESSION_NUMBERS>  (1) 
EXPT02906

>  <COMMON_NAME>  (1) 
L-Saccharopine

>  <CAS_NUMBER>  (1) 
997-68-2

>  <UNII>  (1) 
WBQ73O8W32

>  <SYNONYMS>  (1) 
epsilon-N-(L-Glutar-2-yl)-L-lysine; N-[(S)-5-Amino-5-carboxypentyl]-L-glutamic acid; N6-(L-1,3-Dicarboxypropyl)-L-lysine; Saccharopine

$$$$
