
     RDKit          2D

 34 38  0  0  0  0  0  0  0  0999 V2000
    2.2473   -0.3279    0.0000 C   0  0  0  0  0  0  0  0  0  0  0  0
    1.9887    0.4555    0.0000 C   0  0  0  0  0  0  0  0  0  0  0  0
    1.1809    0.6232    0.0000 N   0  0  0  0  0  0  0  0  0  0  0  0
    0.5705    0.0683    0.0000 C   0  0  0  0  0  0  0  0  0  0  0  0
   -0.1459    0.4774    0.0000 C   0  0  0  0  0  0  0  0  0  0  0  0
    0.0218    1.2852    0.0000 C   0  0  0  0  0  0  0  0  0  0  0  0
    0.8419    1.3753    0.0000 C   0  0  0  0  0  0  0  0  0  0  0  0
    3.0551   -0.4957    0.0000 O   0  0  0  0  0  0  0  0  0  0  0  0
    3.3137   -1.2791    0.0000 C   0  0  0  0  0  0  0  0  0  0  0  0
    4.1215   -1.4468    0.0000 C   0  0  0  0  0  0  0  0  0  0  0  0
    4.6706   -0.8311    0.0000 C   0  0  0  0  0  0  0  0  0  0  0  0
    4.4120   -0.0477    0.0000 O   0  0  0  0  0  0  0  0  0  0  0  0
    4.9612    0.5680    0.0000 C   0  0  0  0  0  0  0  0  0  0  0  0
    5.7689    0.4002    0.0000 C   0  0  0  0  0  0  0  0  0  0  0  0
    6.3181    1.0159    0.0000 C   0  0  0  0  0  0  0  0  0  0  0  0
    7.1259    0.8482    0.0000 C   0  0  0  0  0  0  0  0  0  0  0  0
    7.3845    0.0648    0.0000 O   0  0  0  0  0  0  0  0  0  0  0  0
    6.8353   -0.5509    0.0000 C   0  0  0  0  0  0  0  0  0  0  0  0
    7.0940   -1.3343    0.0000 C   0  0  0  0  0  0  0  0  0  0  0  0
    7.8104   -1.7435    0.0000 C   0  0  0  0  0  0  0  0  0  0  0  0
    7.6426   -2.5512    0.0000 C   0  0  0  0  0  0  0  0  0  0  0  0
    6.8034   -2.7334    0.0000 C   0  0  0  0  0  0  0  0  0  0  0  0
    6.5448   -1.9500    0.0000 O   0  0  0  0  0  0  0  0  0  0  0  0
    6.2543   -3.3491    0.0000 C   0  0  0  0  0  0  0  0  0  0  0  0
    6.5129   -4.1325    0.0000 C   0  0  0  0  0  0  0  0  0  0  0  0
    5.9638   -4.7482    0.0000 C   0  0  0  0  0  0  0  0  0  0  0  0
    5.1560   -4.5805    0.0000 N   0  0  0  0  0  0  0  0  0  0  0  0
    4.8974   -3.7971    0.0000 C   0  0  0  0  0  0  0  0  0  0  0  0
    4.0896   -3.6293    0.0000 N   0  0  0  0  0  0  0  0  0  0  0  0
    3.8310   -2.8459    0.0000 C   0  0  0  0  0  0  0  0  0  0  0  0
    3.0232   -2.6782    0.0000 C   0  0  0  0  0  0  0  0  0  0  0  0
    2.7646   -1.8948    0.0000 C   0  0  0  0  0  0  0  0  0  0  0  0
    4.3801   -2.2302    0.0000 C   0  0  0  0  0  0  0  0  0  0  0  0
    5.4465   -3.1814    0.0000 N   0  0  0  0  0  0  0  0  0  0  0  0
  1  2  1  0
  1  8  1  0
  2  3  1  0
  3  4  1  0
  3  7  1  0
  4  5  1  0
  5  6  1  0
  6  7  1  0
  8  9  1  0
  9 10  1  0
  9 32  2  0
 10 11  1  0
 10 33  2  0
 11 12  1  0
 12 13  1  0
 13 14  1  0
 14 15  2  0
 15 16  1  0
 16 17  1  0
 17 18  1  0
 18 19  1  0
 19 20  2  0
 19 23  1  0
 20 21  1  0
 21 22  2  0
 22 23  1  0
 22 24  1  0
 24 25  2  0
 24 34  1  0
 25 26  1  0
 26 27  2  0
 27 28  1  0
 28 29  1  0
 28 34  2  0
 29 30  1  0
 30 31  2  0
 30 33  1  0
 31 32  1  0
M  END
>  <DRUGBANK_ID>  (1) 
DB15294

>  <COMMON_NAME>  (1) 
SB-1578

>  <CAS_NUMBER>  (1) 
937273-04-6

>  <UNII>  (1) 
4T71DC0G0A

$$$$
