MPX
     RDKit          2D

 21 22  0  0  0  0  0  0  0  0999 V2000
    1.5874    2.9517    0.0000 C   0  0  0  0  0  0  0  0  0  0  0  0
    2.3019    2.5392    0.0000 C   0  0  0  0  0  0  0  0  0  0  0  0
    2.3019    1.7142    0.0000 C   0  0  0  0  0  0  0  0  0  0  0  0
    1.5874    1.3017    0.0000 C   0  0  0  0  0  0  0  0  0  0  0  0
    0.8729    1.7142    0.0000 C   0  0  0  0  0  0  0  0  0  0  0  0
    0.8729    2.5392    0.0000 C   0  0  0  0  0  0  0  0  0  0  0  0
    1.5874    0.4767    0.0000 N   0  0  0  0  0  0  0  0  0  0  0  0
    0.8729    0.0642    0.0000 C   0  0  0  0  0  0  0  0  0  0  0  0
    0.1584    0.4767    0.0000 S   0  0  0  0  0  0  0  0  0  0  0  0
    0.8729   -0.7608    0.0000 N   0  0  0  0  0  0  0  0  0  0  0  0
    0.1584   -1.1733    0.0000 N   0  0  0  0  0  0  0  0  0  0  0  0
    0.1584   -1.9983    0.0000 C   0  0  0  0  0  0  0  0  0  0  0  0
   -0.5560   -2.4108    0.0000 C   0  0  0  0  0  0  0  0  0  0  0  0
   -1.2705   -1.9983    0.0000 N   0  0  0  0  0  0  0  0  0  0  0  0
   -1.9850   -2.4108    0.0000 C   0  0  0  0  0  0  0  0  0  0  0  0
   -1.2705   -1.1733    0.0000 C   0  0  0  0  0  0  0  0  0  0  0  0
   -0.5560   -0.7608    0.0000 C   0  0  0  0  0  0  0  0  0  0  0  0
    1.5874    3.7767    0.0000 S   0  0  0  0  0  0  0  0  0  0  0  0
    1.5874    4.6017    0.0000 N   0  0  0  0  0  0  0  0  0  0  0  0
    2.4124    3.7767    0.0000 O   0  0  0  0  0  0  0  0  0  0  0  0
    0.7624    3.7767    0.0000 O   0  0  0  0  0  0  0  0  0  0  0  0
  1  2  2  0
  1  6  1  0
  1 18  1  0
  2  3  1  0
  3  4  2  0
  4  5  1  0
  4  7  1  0
  5  6  2  0
  7  8  1  0
  8  9  2  0
  8 10  1  0
 10 11  1  0
 11 12  1  0
 11 17  1  0
 12 13  1  0
 13 14  1  0
 14 15  1  0
 14 16  1  0
 16 17  1  0
 18 19  1  0
 18 20  2  0
 18 21  2  0
M  END
>  <DRUGBANK_ID>  (1) 
DB08202

>  <COMMON_NAME>  (1) 
4-({[(4-METHYLPIPERAZIN-1-YL)AMINO]CARBONOTHIOYL}AMINO)BENZENESULFONAMIDE

$$$$
