977
     RDKit          2D

  2  1  0  0  0  0  0  0  0  0999 V2000
    1.6500    0.0000    0.0000 O   0  0  0  0  0  0  0  0  0  0  0  0
    2.4750    0.0000    0.0000 O   0  0  0  0  0  0  0  0  0  0  0  0
  1  2  2  0
M  END
>  <DRUGBANK_ID>  (1) 
DB09140

>  <COMMON_NAME>  (1) 
Oxygen

>  <CAS_NUMBER>  (1) 
7782-44-7

>  <UNII>  (1) 
S88TT14065

>  <SYNONYMS>  (1) 
Dioxygen; Molecular oxygen; Oxigeno gaseoso; Oxygen; Oxygen USP; Pure oxygen

$$$$
