
     RDKit          2D

 37 41  0  0  0  0  0  0  0  0999 V2000
    2.3815    3.9995    0.0000 C   0  0  0  0  0  0  0  0  0  0  0  0
    2.8664    3.3320    0.0000 C   0  0  0  0  0  0  0  0  0  0  0  0
    3.6914    3.3320    0.0000 C   0  0  0  0  0  0  0  0  0  0  0  0
    3.9464    2.5474    0.0000 N   0  0  0  0  0  0  0  0  0  0  0  0
    3.2789    2.0625    0.0000 C   0  0  0  0  0  0  0  0  0  0  0  0
    2.6115    2.5474    0.0000 N   0  0  0  0  0  0  0  0  0  0  0  0
    3.2789    1.2375    0.0000 C   0  0  0  0  0  0  0  0  0  0  0  0
    3.9934    0.8250    0.0000 C   0  0  0  0  0  0  0  0  0  0  0  0
    3.9934    0.0000    0.0000 C   0  0  0  0  0  0  0  0  0  0  0  0
    3.2789   -0.4125    0.0000 C   0  0  0  0  0  0  0  0  0  0  0  0
    2.5645    0.0000    0.0000 C   0  0  0  0  0  0  0  0  0  0  0  0
    1.7798   -0.2549    0.0000 C   0  0  0  0  0  0  0  0  0  0  0  0
    1.2949    0.4125    0.0000 N   0  0  0  0  0  0  0  0  0  0  0  0
    1.7798    1.0799    0.0000 C   0  0  0  0  0  0  0  0  0  0  0  0
    1.5249    1.8646    0.0000 O   0  0  0  0  0  0  0  0  0  0  0  0
    2.5645    0.8250    0.0000 C   0  0  0  0  0  0  0  0  0  0  0  0
    3.2789   -1.2375    0.0000 C   0  0  0  0  0  0  0  0  0  0  0  0
    3.9934   -1.6500    0.0000 C   0  0  0  0  0  0  0  0  0  0  0  0
    3.9934   -2.4750    0.0000 C   0  0  0  0  0  0  0  0  0  0  0  0
    3.2789   -2.8875    0.0000 C   0  0  0  0  0  0  0  0  0  0  0  0
    3.2789   -3.7125    0.0000 N   0  0  0  0  0  0  0  0  0  0  0  0
    3.9934   -4.1250    0.0000 C   0  0  0  0  0  0  0  0  0  0  0  0
    4.7079   -3.7125    0.0000 O   0  0  0  0  0  0  0  0  0  0  0  0
    3.9934   -4.9500    0.0000 N   0  0  0  0  0  0  0  0  0  0  0  0
    4.7079   -5.3625    0.0000 C   0  0  0  0  0  0  0  0  0  0  0  0
    5.4223   -4.9500    0.0000 C   0  0  0  0  0  0  0  0  0  0  0  0
    6.1368   -5.3625    0.0000 C   0  0  0  0  0  0  0  0  0  0  0  0
    6.1368   -6.1875    0.0000 C   0  0  0  0  0  0  0  0  0  0  0  0
    5.4223   -6.6000    0.0000 C   0  0  0  0  0  0  0  0  0  0  0  0
    4.7079   -6.1875    0.0000 C   0  0  0  0  0  0  0  0  0  0  0  0
    5.4223   -7.4250    0.0000 C   0  0  0  0  0  0  0  0  0  0  0  0
    5.4223   -8.2500    0.0000 F   0  0  0  0  0  0  0  0  0  0  0  0
    4.5973   -7.4250    0.0000 F   0  0  0  0  0  0  0  0  0  0  0  0
    6.2473   -7.4250    0.0000 F   0  0  0  0  0  0  0  0  0  0  0  0
    2.5645   -2.4750    0.0000 C   0  0  0  0  0  0  0  0  0  0  0  0
    2.5645   -1.6500    0.0000 C   0  0  0  0  0  0  0  0  0  0  0  0
    1.8500   -1.2375    0.0000 F   0  0  0  0  0  0  0  0  0  0  0  0
  1  2  1  0
  2  3  2  0
  2  6  1  0
  3  4  1  0
  4  5  1  0
  5  6  2  0
  5  7  1  0
  7  8  2  0
  7 16  1  0
  8  9  1  0
  9 10  2  0
 10 11  1  0
 10 17  1  0
 11 12  1  0
 11 16  2  0
 12 13  1  0
 13 14  1  0
 14 15  2  0
 14 16  1  0
 17 18  2  0
 17 36  1  0
 18 19  1  0
 19 20  2  0
 20 21  1  0
 20 35  1  0
 21 22  1  0
 22 23  2  0
 22 24  1  0
 24 25  1  0
 25 26  2  0
 25 30  1  0
 26 27  1  0
 27 28  2  0
 28 29  1  0
 29 30  2  0
 29 31  1  0
 31 32  1  0
 31 33  1  0
 31 34  1  0
 35 36  2  0
 36 37  1  0
M  END
>  <DRUGBANK_ID>  (1) 
DB18632

>  <COMMON_NAME>  (1) 
1-(3-fluoro-4-(7-(5-methyl-1H-imidazol-2-yl)-1-oxo-2,3-dihydro-1H-isoindo-1-4-yl)-phenyl)-3-(3-trifluoromethyl-phenyl)-urea

>  <CAS_NUMBER>  (1) 
1370466-81-1

>  <UNII>  (1) 
7W3FGR71NN

>  <SYNONYMS>  (1) 
Urea, n-(4-(2,3-dihydro-7-(5-methyl-1h-imidazol-2-yl)-1-oxo-1h-isoindol-4-yl)-3-fluorophenyl)-n'-(3-(trifluoromethyl)phenyl)

$$$$
