
     RDKit          2D

 22 22  0  0  0  0  0  0  0  0999 V2000
   -0.7214    0.8186    0.0000 C   0  0  0  0  0  0  0  0  0  0  0  0
   -1.4259    0.3959    0.0000 C   0  0  0  0  0  0  0  0  0  0  0  0
   -1.4259   -0.4397    0.0000 C   0  0  0  0  0  0  0  0  0  0  0  0
   -2.1351   -0.8623    0.0000 C   0  0  0  0  0  0  0  0  0  0  0  0
   -2.8639   -0.4397    0.0000 C   0  0  0  0  0  0  0  0  0  0  0  0
   -0.7360    1.6347    0.0000 O   0  0  0  0  0  0  0  0  0  0  0  0
   -2.1497    0.8040    0.0000 C   0  0  0  0  0  0  0  0  0  0  0  0
   -2.8639    0.3813    0.0000 C   0  0  0  0  0  0  0  0  0  0  0  0
   -0.0073    0.4056    0.0000 O   0  0  0  0  0  0  0  0  0  0  0  0
   -3.5781   -0.8719    0.0000 N   0  0  0  0  0  0  0  0  0  0  0  0
    2.1351    0.8429    0.0000 N   0  0  0  0  0  0  0  0  0  0  0  0
   -2.1255   -1.6785    0.0000 O   0  0  0  0  0  0  0  0  0  0  0  0
    0.7068    0.8186    0.0000 C   0  0  0  0  0  0  0  0  0  0  0  0
    1.4210    0.4201    0.0000 C   0  0  0  0  0  0  0  0  0  0  0  0
    2.8639    0.4493    0.0000 C   0  0  0  0  0  0  0  0  0  0  0  0
    2.1448    1.6736    0.0000 C   0  0  0  0  0  0  0  0  0  0  0  0
   -1.4113   -2.0865    0.0000 C   0  0  0  0  0  0  0  0  0  0  0  0
   -0.6972   -1.6785    0.0000 C   0  0  0  0  0  0  0  0  0  0  0  0
    0.0073   -2.0865    0.0000 C   0  0  0  0  0  0  0  0  0  0  0  0
    3.5781    0.8623    0.0000 C   0  0  0  0  0  0  0  0  0  0  0  0
    2.8445    2.0865    0.0000 C   0  0  0  0  0  0  0  0  0  0  0  0
    0.7360   -1.6931    0.0000 C   0  0  0  0  0  0  0  0  0  0  0  0
  2  1  1  0
  3  2  2  0
  4  3  1  0
  5  8  1  0
  5  4  2  0
  6  1  2  0
  7  2  1  0
  8  7  2  0
  9  1  1  0
 10  5  1  0
 11 14  1  0
 12  4  1  0
 13  9  1  0
 14 13  1  0
 15 11  1  0
 16 11  1  0
 17 12  1  0
 18 17  1  0
 19 18  1  0
 20 15  1  0
 21 16  1  0
 22 19  1  0
M  END
>  <DRUGBANK_ID>  (1) 
DB00892

>  <SECONDARY_ACCESSION_NUMBERS>  (1) 
APRD00817

>  <COMMON_NAME>  (1) 
Oxybuprocaine

>  <CAS_NUMBER>  (1) 
99-43-4

>  <UNII>  (1) 
AXQ0JYM303

>  <SYNONYMS>  (1) 
4-Amino-3-butoxy-2-(diethylamino)ethyl ester benzoic acid; 4-Amino-3-butoxy-benzoic acid 2-diethylamino-ethyl ester; 4-Amino-3-n-butoxy-benzoesäure-diäthylaminoäthylester; Benoxinate; BNX; Butoxyaminobenzoyldiethylaminoethanol; Oxibuprocaina; Oxybucaine; Oxybuprocaine; Oxybuprocainum; Oxyriprocaine

$$$$
