
     RDKit          2D

 27 29  0  0  0  0  0  0  0  0999 V2000
    2.8579    7.4250    0.0000 C   0  0  0  0  0  0  0  0  0  0  0  0
   -4.2868    7.4250    0.0000 C   0  0  0  0  0  0  0  0  0  0  0  0
   -0.7145    2.0625    0.0000 C   0  0  0  0  0  0  0  0  0  0  0  0
    0.0000    2.4750    0.0000 C   0  0  0  0  0  0  0  0  0  0  0  0
   -1.4289    2.4750    0.0000 C   0  0  0  0  0  0  0  0  0  0  0  0
    0.0000    3.3000    0.0000 C   0  0  0  0  0  0  0  0  0  0  0  0
   -1.4289    3.3000    0.0000 C   0  0  0  0  0  0  0  0  0  0  0  0
    0.7145    4.5375    0.0000 C   0  0  0  0  0  0  0  0  0  0  0  0
    0.0000    5.7750    0.0000 C   0  0  0  0  0  0  0  0  0  0  0  0
   -1.4289    5.7750    0.0000 C   0  0  0  0  0  0  0  0  0  0  0  0
   -2.1434    4.5375    0.0000 C   0  0  0  0  0  0  0  0  0  0  0  0
    1.4289    4.9500    0.0000 C   0  0  0  0  0  0  0  0  0  0  0  0
    0.7145    6.1875    0.0000 C   0  0  0  0  0  0  0  0  0  0  0  0
   -2.1434    6.1875    0.0000 C   0  0  0  0  0  0  0  0  0  0  0  0
   -2.8579    4.9500    0.0000 C   0  0  0  0  0  0  0  0  0  0  0  0
    2.1434    7.0125    0.0000 C   0  0  0  0  0  0  0  0  0  0  0  0
   -3.5724    7.0125    0.0000 C   0  0  0  0  0  0  0  0  0  0  0  0
   -0.7145    3.7125    0.0000 C   0  0  0  0  0  0  0  0  0  0  0  0
    0.0000    4.9500    0.0000 C   0  0  0  0  0  0  0  0  0  0  0  0
   -1.4289    4.9500    0.0000 C   0  0  0  0  0  0  0  0  0  0  0  0
    1.4289    5.7750    0.0000 C   0  0  0  0  0  0  0  0  0  0  0  0
   -2.8579    5.7750    0.0000 C   0  0  0  0  0  0  0  0  0  0  0  0
   -0.7145    4.5375    0.0000 C   0  0  0  0  0  0  0  0  0  0  0  0
    1.4289    7.4250    0.0000 O   0  0  0  0  0  0  0  0  0  0  0  0
   -2.8579    7.4250    0.0000 O   0  0  0  0  0  0  0  0  0  0  0  0
    2.1434    6.1875    0.0000 O   0  0  0  0  0  0  0  0  0  0  0  0
   -3.5724    6.1875    0.0000 O   0  0  0  0  0  0  0  0  0  0  0  0
  4  3  1  0
  5  3  1  0
  6  4  1  0
  7  5  1  0
 12  8  2  0
 13  9  1  0
 14 10  2  0
 15 11  1  0
 16  1  1  0
 17  2  1  0
 18  6  1  0
 18  7  1  0
 19  8  1  0
 19  9  2  0
 20 10  1  0
 20 11  2  0
 21 12  1  0
 21 13  2  0
 22 14  1  0
 22 15  2  0
 23 18  2  3
 23 19  1  0
 23 20  1  0
 24 16  2  0
 25 17  2  0
 26 16  1  0
 26 21  1  0
 27 17  1  0
 27 22  1  0
M  END
>  <DRUGBANK_ID>  (1) 
DB13472

>  <COMMON_NAME>  (1) 
Cyclofenil

>  <CAS_NUMBER>  (1) 
2624-43-3

>  <UNII>  (1) 
J468V64WZ1

>  <SYNONYMS>  (1) 
Cyclofenil

$$$$
