
     RDKit          2D

 29 31  0  0  1  0  0  0  0  0999 V2000
   -1.7908   -1.6742    0.0000 C   0  0  0  0  0  0  0  0  0  0  0  0
   -1.0062   -1.9291    0.0000 N   0  0  0  0  0  0  0  0  0  0  0  0
   -0.3931   -1.3771    0.0000 C   0  0  0  0  0  0  0  0  0  0  0  0
   -0.5646   -0.5701    0.0000 O   0  0  0  0  0  0  0  0  0  0  0  0
    0.3915   -1.6320    0.0000 N   0  0  0  0  0  0  0  0  0  0  0  0
    1.0590   -1.1471    0.0000 C   0  0  0  0  0  0  0  0  0  0  0  0
    1.7264   -1.6320    0.0000 S   0  0  0  0  0  0  0  0  0  0  0  0
    1.4715   -2.4167    0.0000 C   0  0  0  0  0  0  0  0  0  0  0  0
    0.6465   -2.4167    0.0000 N   0  0  0  0  0  0  0  0  0  0  0  0
    1.9564   -3.0841    0.0000 C   0  0  0  0  0  0  0  0  0  0  0  0
    2.7769   -2.9979    0.0000 C   0  0  0  0  0  0  0  0  0  0  0  0
    3.2618   -3.6653    0.0000 C   0  0  0  0  0  0  0  0  0  0  0  0
    2.9262   -4.4190    0.0000 C   0  0  0  0  0  0  0  0  0  0  0  0
    2.1058   -4.5052    0.0000 C   0  0  0  0  0  0  0  0  0  0  0  0
    1.6208   -3.8378    0.0000 C   0  0  0  0  0  0  0  0  0  0  0  0
    0.8004   -3.9240    0.0000 F   0  0  0  0  0  0  0  0  0  0  0  0
    4.0823   -3.5791    0.0000 F   0  0  0  0  0  0  0  0  0  0  0  0
    0.6540   -0.4284    0.0000 C   0  0  0  0  0  0  0  0  0  0  0  0
   -0.1710   -0.4197    0.0000 C   0  0  0  0  0  0  0  0  0  0  0  0
   -0.5760    0.2990    0.0000 C   0  0  0  0  0  0  0  0  0  0  0  0
   -0.1560    1.0091    0.0000 N   0  0  0  0  0  0  0  0  0  0  0  0
    1.4640   -0.4284    0.0000 C   0  0  0  0  0  0  0  0  0  0  0  0
    1.0440    0.2817    0.0000 C   0  0  0  0  0  0  0  0  0  0  0  0
    1.4490    1.0005    0.0000 C   0  0  0  0  0  0  0  0  0  0  0  0
    2.2740    1.0091    0.0000 C   0  0  0  0  0  0  0  0  0  0  0  0
    2.6939    0.2990    0.0000 C   0  0  0  0  0  0  0  0  0  0  0  0
    2.2889   -0.4197    0.0000 C   0  0  0  0  0  0  0  0  0  0  0  0
   -0.8346   -2.7361    0.0000 O   0  0  0  0  0  0  0  0  0  0  0  0
   -1.4477   -3.2881    0.0000 C   0  0  0  0  0  0  0  0  0  0  0  0
  1  2  1  0
  2  3  1  0
  2 28  1  0
  3  4  2  0
  3  5  1  0
  5  6  1  0
  5  9  1  0
  6  7  1  0
  6 18  1  1
  6 22  1  0
  7  8  1  0
  8  9  2  0
  8 10  1  0
 10 11  2  0
 10 15  1  0
 11 12  1  0
 12 13  2  0
 12 17  1  0
 13 14  1  0
 14 15  2  0
 15 16  1  0
 18 19  1  0
 19 20  1  0
 20 21  1  0
 22 23  2  0
 22 27  1  0
 23 24  1  0
 24 25  2  0
 25 26  1  0
 26 27  2  0
 28 29  1  0
M  END
>  <DRUGBANK_ID>  (1) 
DB06040

>  <COMMON_NAME>  (1) 
Filanesib

>  <CAS_NUMBER>  (1) 
885060-09-3

>  <UNII>  (1) 
8A49OSO368

>  <SYNONYMS>  (1) 
Filanesib

$$$$
