
     RDKit          2D

 25 26  0  0  0  0  0  0  0  0999 V2000
   -0.7024    0.0000    0.0000 C   0  0  0  0  0  0  0  0  0  0  0  0
   -0.7024   -0.8115    0.0000 C   0  0  0  0  0  0  0  0  0  0  0  0
   -0.7024    0.8115    0.0000 C   0  0  0  0  0  0  0  0  0  0  0  0
    0.1212    0.0000    0.0000 C   0  0  0  0  0  0  0  0  0  0  0  0
   -1.5291    0.0000    0.0000 O   0  0  0  0  0  0  0  0  0  0  0  0
   -1.4326   -1.2197    0.0000 C   0  0  0  0  0  0  0  0  0  0  0  0
    0.0025   -1.2248    0.0000 C   0  0  0  0  0  0  0  0  0  0  0  0
    0.0025    1.2346    0.0000 C   0  0  0  0  0  0  0  0  0  0  0  0
   -1.4227    1.2346    0.0000 C   0  0  0  0  0  0  0  0  0  0  0  0
    0.5170   -0.7175    0.0000 O   0  0  0  0  0  0  0  0  0  0  0  0
    0.5170    0.7051    0.0000 O   0  0  0  0  0  0  0  0  0  0  0  0
   -1.9399   -0.7026    0.0000 C   0  0  0  0  0  0  0  0  0  0  0  0
   -1.4326   -2.0462    0.0000 C   0  0  0  0  0  0  0  0  0  0  0  0
    0.0122   -2.0462    0.0000 C   0  0  0  0  0  0  0  0  0  0  0  0
    0.0122    2.0438    0.0000 C   0  0  0  0  0  0  0  0  0  0  0  0
   -1.4326    2.0438    0.0000 C   0  0  0  0  0  0  0  0  0  0  0  0
    1.3262   -0.7026    0.0000 C   0  0  0  0  0  0  0  0  0  0  0  0
   -2.7589   -0.7026    0.0000 C   0  0  0  0  0  0  0  0  0  0  0  0
   -0.7024   -2.4619    0.0000 C   0  0  0  0  0  0  0  0  0  0  0  0
   -0.7024    2.4619    0.0000 C   0  0  0  0  0  0  0  0  0  0  0  0
    1.7344   -1.4400    0.0000 C   0  0  0  0  0  0  0  0  0  0  0  0
   -3.5853   -0.7026    0.0000 C   0  0  0  0  0  0  0  0  0  0  0  0
    2.7391   -1.4400    0.0000 N   0  0  0  0  0  0  0  0  0  0  0  0
    3.5185   -2.3085    0.0000 C   0  0  0  0  0  0  0  0  0  0  0  0
    3.5853   -0.6582    0.0000 C   0  0  0  0  0  0  0  0  0  0  0  0
  1  2  1  0
  1  3  1  0
  1  4  1  0
  1  5  1  0
  2  6  2  0
  2  7  1  0
  3  8  2  0
  3  9  1  0
  4 10  1  0
  4 11  2  0
  5 12  1  0
  6 13  1  0
  7 14  2  0
  8 15  1  0
  9 16  2  0
 10 17  1  0
 12 18  1  0
 13 19  2  0
 14 19  1  0
 15 20  2  0
 16 20  1  0
 17 21  1  0
 18 22  3  0
 21 23  1  0
 23 24  1  0
 23 25  1  0
M  END
>  <DRUGBANK_ID>  (1) 
DB15783

>  <COMMON_NAME>  (1) 
Pargeverine

>  <CAS_NUMBER>  (1) 
13479-13-5

>  <UNII>  (1) 
UC61HM8FX0

>  <SYNONYMS>  (1) 
Pargeverina; Pargeverine; Pargeverinum

$$$$
