4RB
     RDKit          2D

 24 26  0  0  0  0  0  0  0  0999 V2000
   -1.0791   -0.9089    0.0000 C   0  0  0  0  0  0  0  0  0  0  0  0
   -1.3340   -1.6935    0.0000 C   0  0  0  0  0  0  0  0  0  0  0  0
   -2.1410   -1.8650    0.0000 C   0  0  0  0  0  0  0  0  0  0  0  0
   -2.3959   -2.6497    0.0000 C   0  0  0  0  0  0  0  0  0  0  0  0
   -3.2029   -2.8212    0.0000 O   0  0  0  0  0  0  0  0  0  0  0  0
   -1.8439   -3.2628    0.0000 O   0  0  0  0  0  0  0  0  0  0  0  0
   -2.6930   -1.2519    0.0000 C   0  0  0  0  0  0  0  0  0  0  0  0
   -2.4381   -0.4673    0.0000 C   0  0  0  0  0  0  0  0  0  0  0  0
   -1.6311   -0.2958    0.0000 C   0  0  0  0  0  0  0  0  0  0  0  0
   -1.3762    0.4888    0.0000 C   0  0  0  0  0  0  0  0  0  0  0  0
   -1.8611    1.1563    0.0000 C   0  0  0  0  0  0  0  0  0  0  0  0
   -1.3762    1.8237    0.0000 N   0  0  0  0  0  0  0  0  0  0  0  0
   -0.5916    1.5688    0.0000 C   0  0  0  0  0  0  0  0  0  0  0  0
    0.1229    1.9813    0.0000 C   0  0  0  0  0  0  0  0  0  0  0  0
    0.8374    1.5688    0.0000 C   0  0  0  0  0  0  0  0  0  0  0  0
   -0.5916    0.7438    0.0000 N   0  0  0  0  0  0  0  0  0  0  0  0
    0.1229    0.3313    0.0000 N   0  0  0  0  0  0  0  0  0  0  0  0
    0.8374    0.7438    0.0000 C   0  0  0  0  0  0  0  0  0  0  0  0
    1.5519    0.3313    0.0000 N   0  0  0  0  0  0  0  0  0  0  0  0
    2.2663    0.7438    0.0000 C   0  0  0  0  0  0  0  0  0  0  0  0
    2.9808    0.3313    0.0000 C   0  0  0  0  0  0  0  0  0  0  0  0
    3.6953    0.7438    0.0000 C   0  0  0  0  0  0  0  0  0  0  0  0
    2.2663    1.5688    0.0000 C   0  0  0  0  0  0  0  0  0  0  0  0
    2.9808    1.9813    0.0000 O   0  0  0  0  0  0  0  0  0  0  0  0
  1  2  2  0
  1  9  1  0
  2  3  1  0
  3  4  1  0
  3  7  2  0
  4  5  1  0
  4  6  2  0
  7  8  1  0
  8  9  2  0
  9 10  1  0
 10 11  2  0
 10 16  1  0
 11 12  1  0
 12 13  2  0
 13 14  1  0
 13 16  1  0
 14 15  2  0
 15 18  1  0
 16 17  1  0
 17 18  2  0
 18 19  1  0
 20 19  1  0
 20 21  1  1
 20 23  1  0
 21 22  1  0
 23 24  1  0
M  END
>  <DRUGBANK_ID>  (1) 
DB07125

>  <COMMON_NAME>  (1) 
4-(6-{[(1R)-1-(hydroxymethyl)propyl]amino}imidazo[1,2-b]pyridazin-3-yl)benzoic acid

$$$$
