
     RDKit          2D

 36 41  0  0  0  0  0  0  0  0999 V2000
    5.6154   -6.6379    0.0000 C   0  0  0  0  0  0  0  0  0  0  0  0
    5.3048   -5.8736    0.0000 N   0  0  0  0  0  0  0  0  0  0  0  0
    4.4876   -5.7605    0.0000 C   0  0  0  0  0  0  0  0  0  0  0  0
    4.1769   -4.9962    0.0000 C   0  0  0  0  0  0  0  0  0  0  0  0
    4.6835   -4.3450    0.0000 C   0  0  0  0  0  0  0  0  0  0  0  0
    5.5007   -4.4581    0.0000 C   0  0  0  0  0  0  0  0  0  0  0  0
    5.8113   -5.2224    0.0000 C   0  0  0  0  0  0  0  0  0  0  0  0
    4.3728   -3.5808    0.0000 C   0  0  0  0  0  0  0  0  0  0  0  0
    3.5556   -3.4677    0.0000 C   0  0  0  0  0  0  0  0  0  0  0  0
    3.2449   -2.7034    0.0000 C   0  0  0  0  0  0  0  0  0  0  0  0
    3.7515   -2.0522    0.0000 C   0  0  0  0  0  0  0  0  0  0  0  0
    3.4409   -1.2879    0.0000 N   0  0  0  0  0  0  0  0  0  0  0  0
    2.6236   -1.1748    0.0000 C   0  0  0  0  0  0  0  0  0  0  0  0
    2.1171   -1.8260    0.0000 N   0  0  0  0  0  0  0  0  0  0  0  0
    1.2999   -1.7129    0.0000 C   0  0  0  0  0  0  0  0  0  0  0  0
    0.9892   -0.9486    0.0000 C   0  0  0  0  0  0  0  0  0  0  0  0
    0.1720   -0.8355    0.0000 F   0  0  0  0  0  0  0  0  0  0  0  0
    1.4958   -0.2974    0.0000 C   0  0  0  0  0  0  0  0  0  0  0  0
    2.3130   -0.4105    0.0000 N   0  0  0  0  0  0  0  0  0  0  0  0
    1.1851    0.4668    0.0000 C   0  0  0  0  0  0  0  0  0  0  0  0
    0.3679    0.5800    0.0000 C   0  0  0  0  0  0  0  0  0  0  0  0
    0.0573    1.3442    0.0000 C   0  0  0  0  0  0  0  0  0  0  0  0
    0.5638    1.9954    0.0000 C   0  0  0  0  0  0  0  0  0  0  0  0
    0.1011    2.6784    0.0000 N   0  0  0  0  0  0  0  0  0  0  0  0
   -0.6915    2.4493    0.0000 C   0  0  0  0  0  0  0  0  0  0  0  0
   -1.3427    2.9559    0.0000 C   0  0  0  0  0  0  0  0  0  0  0  0
   -0.7186    1.6248    0.0000 C   0  0  0  0  0  0  0  0  0  0  0  0
   -0.7456    0.8002    0.0000 C   0  0  0  0  0  0  0  0  0  0  0  0
   -1.5382    0.5712    0.0000 C   0  0  0  0  0  0  0  0  0  0  0  0
   -2.0010    1.2541    0.0000 C   0  0  0  0  0  0  0  0  0  0  0  0
   -1.4944    1.9053    0.0000 C   0  0  0  0  0  0  0  0  0  0  0  0
    1.3810    1.8823    0.0000 C   0  0  0  0  0  0  0  0  0  0  0  0
    1.8876    2.5335    0.0000 F   0  0  0  0  0  0  0  0  0  0  0  0
    1.6917    1.1180    0.0000 C   0  0  0  0  0  0  0  0  0  0  0  0
    4.5687   -2.1653    0.0000 N   0  0  0  0  0  0  0  0  0  0  0  0
    4.8794   -2.9296    0.0000 C   0  0  0  0  0  0  0  0  0  0  0  0
  1  2  1  0
  2  3  1  0
  2  7  1  0
  3  4  1  0
  4  5  1  0
  5  6  1  0
  5  8  1  0
  6  7  1  0
  8  9  2  0
  8 36  1  0
  9 10  1  0
 10 11  2  0
 11 12  1  0
 11 35  1  0
 12 13  1  0
 13 14  2  0
 13 19  1  0
 14 15  1  0
 15 16  2  0
 16 17  1  0
 16 18  1  0
 18 19  2  0
 18 20  1  0
 20 21  2  0
 20 34  1  0
 21 22  1  0
 22 23  2  0
 22 27  1  0
 23 24  1  0
 23 32  1  0
 24 25  2  0
 25 26  1  0
 25 27  1  0
 27 28  1  0
 27 31  1  0
 28 29  1  0
 29 30  1  0
 30 31  1  0
 32 33  1  0
 32 34  2  0
 35 36  2  0
M  END
>  <DRUGBANK_ID>  (1) 
DB18081

>  <COMMON_NAME>  (1) 
Crozbaciclib

>  <CAS_NUMBER>  (1) 
2099128-41-1

>  <UNII>  (1) 
5Y2Z8AH65E

>  <SYNONYMS>  (1) 
2-PYRIMIDINAMINE, 5-FLUORO-4-(7'-FLUORO-2'-METHYLSPIRO(CYCLOPENTANE-1,3'-(3H)INDOL)-5'-YL)-N-(5-(1-METHYL-4-PIPERIDINYL)-2-PYRIDINYL)-; 5-fluoro-4-(7'-fluoro-2'-methylspiro[cyclopentane-1,3'- indol]-5'-yl)-N-[5-(1-methylpiperidin-4-yl)pyridin-2- yl]pyrimidin-2-amine

$$$$
