
     RDKit          2D

 30 30  0  0  0  0  0  0  0  0999 V2000
    5.3585    3.5062    0.0000 C   0  0  0  0  0  0  0  0  0  0  0  0
    5.3585    1.0312    0.0000 C   0  0  0  0  0  0  0  0  0  0  0  0
    0.3572   -3.5062    0.0000 C   0  0  0  0  0  0  0  0  0  0  0  0
    2.5006    0.2062    0.0000 C   0  0  0  0  0  0  0  0  0  0  0  0
   -5.3585   -2.6812    0.0000 C   0  0  0  0  0  0  0  0  0  0  0  0
    5.3585    2.6812    0.0000 C   0  0  0  0  0  0  0  0  0  0  0  0
   -1.0717   -2.6812    0.0000 C   0  0  0  0  0  0  0  0  0  0  0  0
   -1.7861   -2.2687    0.0000 C   0  0  0  0  0  0  0  0  0  0  0  0
    4.6440    2.2687    0.0000 C   0  0  0  0  0  0  0  0  0  0  0  0
   -0.3572   -2.2687    0.0000 C   0  0  0  0  0  0  0  0  0  0  0  0
    3.9295    1.0312    0.0000 C   0  0  0  0  0  0  0  0  0  0  0  0
    3.9295    0.2062    0.0000 C   0  0  0  0  0  0  0  0  0  0  0  0
   -2.5006   -2.6812    0.0000 C   0  0  0  0  0  0  0  0  0  0  0  0
    1.7861   -2.6812    0.0000 C   0  0  0  0  0  0  0  0  0  0  0  0
    4.6440    1.4437    0.0000 C   0  0  0  0  0  0  0  0  0  0  0  0
    0.3572   -2.6812    0.0000 C   0  0  0  0  0  0  0  0  0  0  0  0
    3.2151   -0.2062    0.0000 C   0  0  0  0  0  0  0  0  0  0  0  0
    2.5006   -2.2687    0.0000 C   0  0  0  0  0  0  0  0  0  0  0  0
    1.0717   -2.2687    0.0000 C   0  0  0  0  0  0  0  0  0  0  0  0
    2.5006   -1.4437    0.0000 C   0  0  0  0  0  0  0  0  0  0  0  0
    3.2151   -1.0312    0.0000 C   0  0  0  0  0  0  0  0  0  0  0  0
    1.7861   -1.0312    0.0000 C   0  0  0  0  0  0  0  0  0  0  0  0
   -3.9295   -2.6812    0.0000 C   0  0  0  0  0  0  0  0  0  0  0  0
   -3.2151   -2.2687    0.0000 N   0  0  0  0  0  0  0  0  0  0  0  0
    3.2151   -2.6812    0.0000 O   0  0  0  0  0  0  0  0  0  0  0  0
    3.9295   -1.4437    0.0000 O   0  0  0  0  0  0  0  0  0  0  0  0
    1.7861   -0.2062    0.0000 O   0  0  0  0  0  0  0  0  0  0  0  0
   -3.9295   -3.5062    0.0000 O   0  0  0  0  0  0  0  0  0  0  0  0
   -4.6440   -2.2687    0.0000 O   0  0  0  0  0  0  0  0  0  0  0  0
    1.0717   -1.4437    0.0000 O   0  0  0  0  0  0  0  0  0  0  0  0
  6  1  1  0
  8  7  1  0
  9  6  1  0
 10  7  1  0
 12 11  1  0
 13  8  1  0
 15  2  1  0
 15  9  1  0
 15 11  2  0
 16  3  1  6
 16 10  1  0
 16 19  1  0
 17  4  1  0
 17 12  2  0
 18 14  1  0
 19 14  2  0
 20 18  1  0
 21 17  1  0
 21 20  1  0
 22 20  1  0
 24 13  2  0
 24 23  1  0
 25 18  2  0
 26 21  2  0
 27 22  2  0
 28 23  2  0
 29  5  1  0
 29 23  1  0
 30 19  1  0
 30 22  1  0
M  END
>  <DRUGBANK_ID>  (1) 
DB08266

>  <COMMON_NAME>  (1) 
Methyl [(1E,5R)-5-{3-[(2E,4E)-2,5-dimethyl-2,4-octadienoyl]-2,4-dioxo-3,4-dihydro-2H-pyran-6-yl}hexylidene]carbamate

$$$$
