DSB
     RDKit          2D

 16 15  0  0  0  0  0  0  0  0999 V2000
   -3.0605    0.8344    0.0000 C   0  0  0  0  0  0  0  0  0  0  0  0
   -3.7749    0.4219    0.0000 O   0  0  0  0  0  0  0  0  0  0  0  0
   -2.3460    0.4219    0.0000 C   0  0  0  0  0  0  0  0  0  0  0  0
   -1.6315    0.8344    0.0000 C   0  0  0  0  0  0  0  0  0  0  0  0
   -0.2026    0.8344    0.0000 C   0  0  0  0  0  0  0  0  0  0  0  0
   -3.0605    1.6594    0.0000 O   0  0  0  0  0  0  0  0  0  0  0  0
    0.5119    0.4219    0.0000 C   0  0  0  0  0  0  0  0  0  0  0  0
    1.9408    0.4219    0.0000 C   0  0  0  0  0  0  0  0  0  0  0  0
    2.6553    0.8344    0.0000 C   0  0  0  0  0  0  0  0  0  0  0  0
    3.3698    0.4219    0.0000 C   0  0  0  0  0  0  0  0  0  0  0  0
    4.0842    0.8344    0.0000 O   0  0  0  0  0  0  0  0  0  0  0  0
    3.3698   -0.4031    0.0000 O   0  0  0  0  0  0  0  0  0  0  0  0
    1.2264    0.8344    0.0000 C   0  0  0  0  0  0  0  0  0  0  0  0
   -0.9171    0.4219    0.0000 C   0  0  0  0  0  0  0  0  0  0  0  0
   -0.9171   -0.4031    0.0000 O   0  0  0  0  0  0  0  0  0  0  0  0
    1.2264    1.6594    0.0000 O   0  0  0  0  0  0  0  0  0  0  0  0
  1  2  2  0
  1  3  1  0
  1  6  1  0
  3  4  1  0
  4 14  1  0
  5  7  1  0
  5 14  1  0
  7 13  1  0
  8  9  1  0
  8 13  1  0
  9 10  1  0
 10 11  1  0
 10 12  2  0
 13 16  2  0
 14 15  2  0
M  END
>  <DRUGBANK_ID>  (1) 
DB04560

>  <SECONDARY_ACCESSION_NUMBERS>  (1) 
EXPT01272

>  <COMMON_NAME>  (1) 
4,7-Dioxosebacic Acid

$$$$
