M18
     RDKit          2D

 28 29  0  0  0  0  0  0  0  0999 V2000
   -0.4332   -1.8993    0.0000 C   0  0  0  0  0  0  0  0  0  0  0  0
   -1.0463   -1.3473    0.0000 C   0  0  0  0  0  0  0  0  0  0  0  0
   -1.8309   -1.6022    0.0000 O   0  0  0  0  0  0  0  0  0  0  0  0
   -0.8747   -0.5403    0.0000 O   0  0  0  0  0  0  0  0  0  0  0  0
   -1.4878    0.0117    0.0000 C   0  0  0  0  0  0  0  0  0  0  0  0
   -1.3163    0.8187    0.0000 C   0  0  0  0  0  0  0  0  0  0  0  0
   -1.8683    1.4318    0.0000 C   0  0  0  0  0  0  0  0  0  0  0  0
   -1.4558    2.1462    0.0000 C   0  0  0  0  0  0  0  0  0  0  0  0
   -0.6489    1.9747    0.0000 C   0  0  0  0  0  0  0  0  0  0  0  0
   -0.5626    1.1542    0.0000 N   0  0  0  0  0  0  0  0  0  0  0  0
    0.1518    0.7417    0.0000 C   0  0  0  0  0  0  0  0  0  0  0  0
    0.8663    1.1542    0.0000 C   0  0  0  0  0  0  0  0  0  0  0  0
    1.5808    0.7417    0.0000 N   0  0  0  0  0  0  0  0  0  0  0  0
    2.2953    1.1542    0.0000 C   0  0  0  0  0  0  0  0  0  0  0  0
    3.0097    0.7417    0.0000 O   0  0  0  0  0  0  0  0  0  0  0  0
    3.7242    1.1542    0.0000 C   0  0  0  0  0  0  0  0  0  0  0  0
    4.4387    1.5667    0.0000 C   0  0  0  0  0  0  0  0  0  0  0  0
    3.3117    1.8687    0.0000 C   0  0  0  0  0  0  0  0  0  0  0  0
    4.1367    0.4398    0.0000 C   0  0  0  0  0  0  0  0  0  0  0  0
    2.2953    1.9792    0.0000 O   0  0  0  0  0  0  0  0  0  0  0  0
    0.1518   -0.0833    0.0000 O   0  0  0  0  0  0  0  0  0  0  0  0
   -0.6047   -2.7063    0.0000 C   0  0  0  0  0  0  0  0  0  0  0  0
    0.0084   -3.2583    0.0000 C   0  0  0  0  0  0  0  0  0  0  0  0
   -0.1631   -4.0653    0.0000 C   0  0  0  0  0  0  0  0  0  0  0  0
    0.4500   -4.6173    0.0000 Cl  0  0  0  0  0  0  0  0  0  0  0  0
   -0.9478   -4.3202    0.0000 C   0  0  0  0  0  0  0  0  0  0  0  0
   -1.5608   -3.7682    0.0000 C   0  0  0  0  0  0  0  0  0  0  0  0
   -1.3893   -2.9612    0.0000 C   0  0  0  0  0  0  0  0  0  0  0  0
  1  2  1  0
  1 22  1  0
  2  3  2  0
  2  4  1  0
  4  5  1  0
  6  5  1  6
  6  7  1  0
  6 10  1  0
  7  8  1  0
  8  9  1  0
  9 10  1  0
 10 11  1  0
 11 12  1  0
 11 21  2  0
 12 13  1  0
 13 14  1  0
 14 15  1  0
 14 20  2  0
 15 16  1  0
 16 17  1  0
 16 18  1  0
 16 19  1  0
 22 23  2  0
 22 28  1  0
 23 24  1  0
 24 25  1  0
 24 26  2  0
 26 27  1  0
 27 28  2  0
M  END
>  <DRUGBANK_ID>  (1) 
DB08152

>  <COMMON_NAME>  (1) 
{(2S)-1-[N-(tert-butoxycarbonyl)glycyl]pyrrolidin-2-yl}methyl (3-chlorophenyl)acetate

$$$$
