
     RDKit          2D

 36 38  0  0  1  0  0  0  0  0999 V2000
   14.6775  -14.2322    0.0000 P   0  0  0  0  0  0  0  0  0  0  0  0
   15.3921  -12.9946    0.0000 P   0  0  0  0  0  0  0  0  0  0  0  0
   16.9072  -10.5241    0.0000 O   0  0  0  0  0  0  0  0  0  0  0  0
   13.2486  -15.0572    0.0000 O   0  0  0  0  0  0  0  0  0  0  0  0
   17.7463  -12.4872    0.0000 O   0  0  0  0  0  0  0  0  0  0  0  0
   18.9473  -11.1533    0.0000 O   0  0  0  0  0  0  0  0  0  0  0  0
   14.6775  -15.0572    0.0000 O   0  0  0  0  0  0  0  0  0  0  0  0
   13.2486  -17.5322    0.0000 O   0  0  0  0  0  0  0  0  0  0  0  0
   11.8196  -16.7072    0.0000 O   0  0  0  0  0  0  0  0  0  0  0  0
   16.1065  -12.5821    0.0000 O   0  0  0  0  0  0  0  0  0  0  0  0
   14.6775  -16.7072    0.0000 O   0  0  0  0  0  0  0  0  0  0  0  0
   14.6775  -13.4071    0.0000 O   0  0  0  0  0  0  0  0  0  0  0  0
   11.8196  -14.2322    0.0000 O   0  0  0  0  0  0  0  0  0  0  0  0
   19.3552  -10.1801    0.0000 O   0  0  0  0  0  0  0  0  0  0  0  0
   15.5026  -14.2322    0.0000 O   0  0  0  0  0  0  0  0  0  0  0  0
   14.9796  -12.2802    0.0000 O   0  0  0  0  0  0  0  0  0  0  0  0
   13.8525  -14.2322    0.0000 O   0  0  0  0  0  0  0  0  0  0  0  0
   15.8046  -13.7091    0.0000 O   0  0  0  0  0  0  0  0  0  0  0  0
   19.0565   -7.3378    0.0000 O   0  0  0  0  0  0  0  0  0  0  0  0
   18.0498   -9.5989    0.0000 N   0  0  0  0  0  0  0  0  0  0  0  0
   19.2059   -8.7590    0.0000 N   0  0  0  0  0  0  0  0  0  0  0  0
   17.5748  -11.6801    0.0000 C   0  0  0  0  0  0  0  0  0  0  0  0
   18.1268  -11.0671    0.0000 C   0  0  0  0  0  0  0  0  0  0  0  0
   16.8210  -11.3446    0.0000 C   0  0  0  0  0  0  0  0  0  0  0  0
   17.7143  -10.3526    0.0000 C   0  0  0  0  0  0  0  0  0  0  0  0
   13.2486  -16.7072    0.0000 C   0  0  0  0  0  0  0  0  0  0  0  0
   12.5341  -16.2947    0.0000 C   0  0  0  0  0  0  0  0  0  0  0  0
   13.9631  -16.2947    0.0000 C   0  0  0  0  0  0  0  0  0  0  0  0
   12.5341  -15.4697    0.0000 C   0  0  0  0  0  0  0  0  0  0  0  0
   13.9631  -15.4697    0.0000 C   0  0  0  0  0  0  0  0  0  0  0  0
   16.1065  -11.7571    0.0000 C   0  0  0  0  0  0  0  0  0  0  0  0
   11.8196  -15.0572    0.0000 C   0  0  0  0  0  0  0  0  0  0  0  0
   18.8703   -9.5126    0.0000 C   0  0  0  0  0  0  0  0  0  0  0  0
   17.5648   -8.9314    0.0000 C   0  0  0  0  0  0  0  0  0  0  0  0
   17.9005   -8.1778    0.0000 C   0  0  0  0  0  0  0  0  0  0  0  0
   18.7209   -8.0915    0.0000 C   0  0  0  0  0  0  0  0  0  0  0  0
  1  7  1  0
  1 12  1  0
  1 15  1  0
  1 17  2  0
  2 10  1  0
  2 12  1  0
  2 16  1  0
  2 18  2  0
  3 24  1  0
  3 25  1  0
  4 29  1  0
  4 30  1  0
 10 31  1  0
 13 32  1  0
 14 33  2  0
 19 36  2  0
 20 33  1  0
 20 34  1  0
 21 33  1  0
 21 36  1  0
 22  5  1  6
 22 23  1  0
 22 24  1  0
 23  6  1  6
 23 25  1  0
 24 31  1  1
 25 20  1  1
 26  8  1  1
 26 27  1  0
 26 28  1  0
 27  9  1  1
 27 29  1  0
 28 11  1  6
 28 30  1  0
 29 32  1  1
 30  7  1  6
 34 35  2  0
 35 36  1  0
M  END
>  <DRUGBANK_ID>  (1) 
DB03501

>  <SECONDARY_ACCESSION_NUMBERS>  (1) 
EXPT01576

>  <COMMON_NAME>  (1) 
Galactose-uridine-5'-diphosphate

>  <CAS_NUMBER>  (1) 
2956-16-3

>  <UNII>  (1) 
O2HY4WY2W1

>  <SYNONYMS>  (1) 
UDP galactose; UDP-alpha-D-galactose; UDP-D-galactopyranose; UDP-galactose; UDP-α-D-galactopyranose; UDP-α-D-galactose; UDPgal; Uridine diphosphate galactose; Uridine diphosphategalactose; Uridine diphosphogalactose; Uridine pyrophosphogalactose; Uridinediphosphogalactose

$$$$
