
     RDKit          2D

 10 10  0  0  0  0  0  0  0  0999 V2000
   -0.3572    1.6500    0.0000 C   0  0  0  0  0  0  0  0  0  0  0  0
   -0.3572    0.8250    0.0000 C   0  0  0  0  0  0  0  0  0  0  0  0
    0.3571    0.4124    0.0000 C   0  0  0  0  0  0  0  0  0  0  0  0
    0.3571   -0.4125    0.0000 C   0  0  0  0  0  0  0  0  0  0  0  0
    1.0716   -0.8250    0.0000 C   0  0  0  0  0  0  0  0  0  0  0  0
    1.0716   -1.6500    0.0000 C   0  0  0  0  0  0  0  0  0  0  0  0
    0.3571   -2.0625    0.0000 C   0  0  0  0  0  0  0  0  0  0  0  0
   -0.3572   -1.6500    0.0000 C   0  0  0  0  0  0  0  0  0  0  0  0
   -0.3572   -0.8250    0.0000 C   0  0  0  0  0  0  0  0  0  0  0  0
   -1.0716    2.0625    0.0000 N   0  0  0  0  0  0  0  0  0  0  0  0
  1  2  1  0
  1 10  1  0
  2  3  1  0
  4  3  1  0
  4  5  2  0
  4  9  1  0
  5  6  1  0
  6  7  2  0
  7  8  1  0
  8  9  2  0
M  END
>  <DRUGBANK_ID>  (1) 
DB04410

>  <SECONDARY_ACCESSION_NUMBERS>  (1) 
EXPT02655

>  <COMMON_NAME>  (1) 
3-Phenylpropylamine

>  <CAS_NUMBER>  (1) 
2038-57-5

>  <UNII>  (1) 
P8326EZ31P

>  <SYNONYMS>  (1) 
3-phenyl-1-aminopropane; 3-phenyl-1-propylamine; 3-phenyl-N-propylamine; 3-phenylpropanamine; benzenepropanamine; gamma-phenyl-n-propylamine; gamma-phenylpropylamine; hydrocinnamylamine

$$$$
