
     RDKit          2D

 24 27  0  0  1  0  0  0  0  0999 V2000
   -0.4612   -1.5977    0.0000 C   0  0  0  0  0  0  0  0  0  0  0  0
    0.2723   -1.2202    0.0000 C   0  0  0  0  0  0  0  0  0  0  0  0
    0.5240   -0.4345    0.0000 C   0  0  0  0  0  0  0  0  0  0  0  0
    0.1465    0.2989    0.0000 C   0  0  0  0  0  0  0  0  0  0  0  0
    0.5930    0.9926    0.0000 C   0  0  0  0  0  0  0  0  0  0  0  0
    0.2155    1.7262    0.0000 O   0  0  0  0  0  0  0  0  0  0  0  0
    0.6620    2.4199    0.0000 C   0  0  0  0  0  0  0  0  0  0  0  0
    1.4170    0.9528    0.0000 C   0  0  0  0  0  0  0  0  0  0  0  0
    1.8635    1.6465    0.0000 O   0  0  0  0  0  0  0  0  0  0  0  0
    2.6876    1.6067    0.0000 C   0  0  0  0  0  0  0  0  0  0  0  0
    1.7946    0.2192    0.0000 C   0  0  0  0  0  0  0  0  0  0  0  0
    1.3481   -0.4744    0.0000 C   0  0  0  0  0  0  0  0  0  0  0  0
   -0.6391    0.5506    0.0000 C   0  0  0  0  0  0  0  0  0  0  0  0
   -1.3726    0.1731    0.0000 C   0  0  0  0  0  0  0  0  0  0  0  0
   -1.8318   -0.7192    0.0000 C   0  0  0  0  0  0  0  0  0  0  0  0
   -1.2468   -1.3460    0.0000 N   0  0  0  0  0  0  0  0  0  0  0  0
   -1.7801   -1.9755    0.0000 C   0  0  0  0  0  0  0  0  0  0  0  0
   -1.2775    1.0732    0.0000 C   0  0  0  0  0  0  0  0  0  0  0  0
   -2.0492    0.7816    0.0000 C   0  0  0  0  0  0  0  0  0  0  0  0
   -2.6876    1.3042    0.0000 O   0  0  0  0  0  0  0  0  0  0  0  0
   -2.1826   -0.0324    0.0000 C   0  0  0  0  0  0  0  0  0  0  0  0
   -1.5442   -0.5550    0.0000 C   0  0  0  0  0  0  0  0  0  0  0  0
   -0.7725   -0.2634    0.0000 C   0  0  0  0  0  0  0  0  0  0  0  0
    0.0520   -0.2359    0.0000 O   0  0  0  0  0  0  0  0  0  0  0  0
  1  2  1  1
  1 16  1  0
  2  3  1  0
  3  4  2  0
  3 12  1  0
  4  5  1  0
  5  6  1  0
  5  8  2  0
  6  7  1  0
  8  9  1  0
  8 11  1  0
  9 10  1  0
 11 12  2  0
 13  4  1  0
 13 14  1  1
 13 18  1  0
 14 15  1  0
 15 16  1  0
 16 17  1  0
 19 18  1  0
 19 20  1  1
 19 21  1  0
 21 22  1  0
 23 22  1  0
 23  1  1  0
 23 13  1  0
 23 24  1  1
M  END
>  <DRUGBANK_ID>  (1) 
DB01547

>  <COMMON_NAME>  (1) 
Drotebanol

>  <CAS_NUMBER>  (1) 
3176-03-2

>  <UNII>  (1) 
7RS2Q8MCK8

>  <SYNONYMS>  (1) 
Drotebanol

$$$$
