
     RDKit          2D

 28 30  0  0  1  0  0  0  0  0999 V2000
   -3.2997    0.7891    0.0000 C   0  0  0  0  0  0  0  0  0  0  0  0
   -3.6011    0.0211    0.0000 C   0  0  0  0  0  0  0  0  0  0  0  0
   -2.5114    1.0323    0.0000 C   0  0  0  0  0  0  0  0  0  0  0  0
   -3.1886   -0.6933    0.0000 C   0  0  0  0  0  0  0  0  0  0  0  0
   -0.4008    2.2175    0.0000 C   0  0  0  0  0  0  0  0  0  0  0  0
   -1.8297    2.2175    0.0000 C   0  0  0  0  0  0  0  0  0  0  0  0
   -1.0822   -2.5766    0.0000 C   0  0  0  0  0  0  0  0  0  0  0  0
   -0.7642   -1.1835    0.0000 C   0  0  0  0  0  0  0  0  0  0  0  0
   -0.4008    3.0425    0.0000 C   0  0  0  0  0  0  0  0  0  0  0  0
   -1.8297    3.0425    0.0000 C   0  0  0  0  0  0  0  0  0  0  0  0
   -0.2779   -2.7601    0.0000 C   0  0  0  0  0  0  0  0  0  0  0  0
    0.0401   -1.3670    0.0000 C   0  0  0  0  0  0  0  0  0  0  0  0
   -1.1153    0.9800    0.0000 C   0  0  0  0  0  0  0  0  0  0  0  0
   -2.1297   -1.6046    0.0000 C   0  0  0  0  0  0  0  0  0  0  0  0
   -1.1153    1.8050    0.0000 C   0  0  0  0  0  0  0  0  0  0  0  0
   -1.3254   -1.7882    0.0000 C   0  0  0  0  0  0  0  0  0  0  0  0
   -1.1153    3.4550    0.0000 C   0  0  0  0  0  0  0  0  0  0  0  0
    0.2833   -2.1554    0.0000 C   0  0  0  0  0  0  0  0  0  0  0  0
   -1.8297    0.5675    0.0000 C   0  0  0  0  0  0  0  0  0  0  0  0
   -2.3729   -0.8163    0.0000 C   0  0  0  0  0  0  0  0  0  0  0  0
   -1.7681   -0.2552    0.0000 C   0  0  0  0  0  0  0  0  0  0  0  0
   -1.1153    4.2800    0.0000 C   0  0  0  0  0  0  0  0  0  0  0  0
    1.0876   -2.3390    0.0000 C   0  0  0  0  0  0  0  0  0  0  0  0
   -1.8297    4.6925    0.0000 N   0  0  0  0  0  0  0  0  0  0  0  0
   -0.4008    4.6925    0.0000 N   0  0  0  0  0  0  0  0  0  0  0  0
    1.6487   -1.7342    0.0000 N   0  0  0  0  0  0  0  0  0  0  0  0
    1.3308   -3.1273    0.0000 N   0  0  0  0  0  0  0  0  0  0  0  0
   -1.0001   -0.5566    0.0000 O   0  0  0  0  0  0  0  0  0  0  0  0
  2  1  1  0
  3  1  1  0
  4  2  1  0
  9  5  2  0
 10  6  1  0
 11  7  2  0
 12  8  1  0
 15  5  1  0
 15  6  2  0
 15 13  1  0
 16  7  1  0
 16  8  2  0
 16 14  1  0
 17  9  1  0
 17 10  2  0
 18 11  1  0
 18 12  2  0
 19  3  1  0
 19 13  1  1
 20  4  1  0
 20 14  1  6
 21 19  1  0
 21 20  1  0
 22 17  1  0
 23 18  1  0
 24 22  1  0
 25 22  2  0
 26 23  1  0
 27 23  2  0
 28 21  2  0
M  END
>  <DRUGBANK_ID>  (1) 
DB02081

>  <SECONDARY_ACCESSION_NUMBERS>  (1) 
EXPT00632

>  <COMMON_NAME>  (1) 
Bis-Benzamidine

$$$$
