3TH
     RDKit          2D

 23 26  0  0  0  0  0  0  0  0999 V2000
   -3.9222    1.8791    0.0000 Cl  0  0  0  0  0  0  0  0  0  0  0  0
   -3.2077    1.4666    0.0000 C   0  0  0  0  0  0  0  0  0  0  0  0
   -2.4541    1.8022    0.0000 C   0  0  0  0  0  0  0  0  0  0  0  0
   -1.9020    1.1891    0.0000 C   0  0  0  0  0  0  0  0  0  0  0  0
   -1.0951    1.0176    0.0000 C   0  0  0  0  0  0  0  0  0  0  0  0
   -1.0088    0.1971    0.0000 C   0  0  0  0  0  0  0  0  0  0  0  0
   -1.7625   -0.1385    0.0000 N   0  0  0  0  0  0  0  0  0  0  0  0
   -2.3145    0.4746    0.0000 C   0  0  0  0  0  0  0  0  0  0  0  0
   -3.1215    0.6462    0.0000 S   0  0  0  0  0  0  0  0  0  0  0  0
   -0.2943   -0.2154    0.0000 C   0  0  0  0  0  0  0  0  0  0  0  0
   -0.2943   -1.0404    0.0000 O   0  0  0  0  0  0  0  0  0  0  0  0
    0.4201    0.1971    0.0000 N   0  0  0  0  0  0  0  0  0  0  0  0
    1.1346   -0.2154    0.0000 C   0  0  0  0  0  0  0  0  0  0  0  0
    1.8491    0.1971    0.0000 C   0  0  0  0  0  0  0  0  0  0  0  0
    2.5635   -0.2154    0.0000 C   0  0  0  0  0  0  0  0  0  0  0  0
    3.2780    0.1971    0.0000 C   0  0  0  0  0  0  0  0  0  0  0  0
    3.9925   -0.2154    0.0000 C   0  0  0  0  0  0  0  0  0  0  0  0
    3.9925   -1.0404    0.0000 C   0  0  0  0  0  0  0  0  0  0  0  0
    3.2780   -1.4529    0.0000 C   0  0  0  0  0  0  0  0  0  0  0  0
    2.5635   -1.0404    0.0000 C   0  0  0  0  0  0  0  0  0  0  0  0
    1.8491   -1.4529    0.0000 N   0  0  0  0  0  0  0  0  0  0  0  0
    1.1346   -1.0404    0.0000 C   0  0  0  0  0  0  0  0  0  0  0  0
    0.4201   -1.4529    0.0000 O   0  0  0  0  0  0  0  0  0  0  0  0
  1  2  1  0
  2  3  2  0
  2  9  1  0
  3  4  1  0
  4  5  1  0
  4  8  2  0
  5  6  2  0
  6  7  1  0
  6 10  1  0
  7  8  1  0
  8  9  1  0
 10 11  2  0
 10 12  1  0
 13 12  1  6
 13 14  1  0
 13 22  1  0
 14 15  1  0
 15 16  2  0
 15 20  1  0
 16 17  1  0
 17 18  2  0
 18 19  1  0
 19 20  2  0
 20 21  1  0
 21 22  1  0
 22 23  2  0
M  END
>  <DRUGBANK_ID>  (1) 
DB07066

>  <COMMON_NAME>  (1) 
2-CHLORO-N-[(3R)-2-OXO-1,2,3,4-TETRAHYDROQUINOLIN-3-YL]-6H-THIENO[2,3-B]PYRROLE-5-CARBOXAMIDE

$$$$
