
     RDKit          2D

 37 40  0  0  0  0  0  0  0  0999 V2000
   11.4393   -9.6114    0.0000 O   0  0  0  0  0  0  0  0  0  0  0  0
   14.2878  -12.9149    0.0000 O   0  0  0  0  0  0  0  0  0  0  0  0
   13.5869  -14.1486    0.0000 O   0  0  0  0  0  0  0  0  0  0  0  0
   10.7447  -10.8374    0.0000 N   0  0  0  0  0  0  0  0  0  0  0  0
    5.0193  -13.3238    0.0000 N   0  0  0  0  0  0  0  0  0  0  0  0
   10.7450  -11.6735    0.0000 C   0  0  0  0  0  0  0  0  0  0  0  0
   11.4394  -10.4361    0.0000 C   0  0  0  0  0  0  0  0  0  0  0  0
   10.0305  -10.4252    0.0000 C   0  0  0  0  0  0  0  0  0  0  0  0
    9.3128  -10.8397    0.0000 C   0  0  0  0  0  0  0  0  0  0  0  0
   12.1441  -10.8430    0.0000 C   0  0  0  0  0  0  0  0  0  0  0  0
    7.8882  -11.6673    0.0000 C   0  0  0  0  0  0  0  0  0  0  0  0
    7.1627  -12.0863    0.0000 C   0  0  0  0  0  0  0  0  0  0  0  0
   11.4598  -12.0855    0.0000 C   0  0  0  0  0  0  0  0  0  0  0  0
   10.0158  -12.0952    0.0000 C   0  0  0  0  0  0  0  0  0  0  0  0
   11.4604  -12.9105    0.0000 C   0  0  0  0  0  0  0  0  0  0  0  0
    9.3128  -11.6647    0.0000 C   0  0  0  0  0  0  0  0  0  0  0  0
    8.6026  -10.4297    0.0000 C   0  0  0  0  0  0  0  0  0  0  0  0
    8.5984  -12.0772    0.0000 C   0  0  0  0  0  0  0  0  0  0  0  0
    7.8881  -10.8423    0.0000 C   0  0  0  0  0  0  0  0  0  0  0  0
    6.4482  -11.6738    0.0000 C   0  0  0  0  0  0  0  0  0  0  0  0
    7.1627  -12.9113    0.0000 C   0  0  0  0  0  0  0  0  0  0  0  0
   12.1442  -11.6736    0.0000 C   0  0  0  0  0  0  0  0  0  0  0  0
   12.8585  -10.4304    0.0000 C   0  0  0  0  0  0  0  0  0  0  0  0
   10.0164  -12.9202    0.0000 C   0  0  0  0  0  0  0  0  0  0  0  0
   10.7311  -13.3322    0.0000 C   0  0  0  0  0  0  0  0  0  0  0  0
    5.7338  -12.9113    0.0000 C   0  0  0  0  0  0  0  0  0  0  0  0
    5.7338  -12.0863    0.0000 C   0  0  0  0  0  0  0  0  0  0  0  0
    6.4482  -13.3238    0.0000 C   0  0  0  0  0  0  0  0  0  0  0  0
   12.1808  -13.3258    0.0000 C   0  0  0  0  0  0  0  0  0  0  0  0
   12.8587  -12.0860    0.0000 C   0  0  0  0  0  0  0  0  0  0  0  0
   13.5730  -10.8427    0.0000 C   0  0  0  0  0  0  0  0  0  0  0  0
   13.5731  -11.6733    0.0000 C   0  0  0  0  0  0  0  0  0  0  0  0
   12.8868  -12.9175    0.0000 C   0  0  0  0  0  0  0  0  0  0  0  0
   13.5862  -13.3207    0.0000 C   0  0  0  0  0  0  0  0  0  0  0  0
    4.3148  -12.9169    0.0000 C   0  0  0  0  0  0  0  0  0  0  0  0
    5.0192  -14.1486    0.0000 C   0  0  0  0  0  0  0  0  0  0  0  0
   14.9895  -13.3194    0.0000 C   0  0  0  0  0  0  0  0  0  0  0  0
  1  7  2  0
  2 34  1  0
  2 37  1  0
  3 34  2  0
  4  6  1  0
  4  7  1  0
  4  8  1  0
  5 26  1  0
  5 35  1  0
  5 36  1  0
  6 13  2  0
  6 14  1  0
  7 10  1  0
  8  9  1  0
  9 16  2  0
  9 17  1  0
 10 22  1  0
 10 23  1  0
 11 12  1  0
 11 18  2  0
 11 19  1  0
 12 20  2  0
 12 21  1  0
 13 15  1  0
 14 24  2  0
 15 25  2  0
 15 29  1  0
 16 18  1  0
 17 19  2  0
 20 27  1  0
 21 28  2  0
 22 30  1  0
 23 31  1  0
 24 25  1  0
 26 27  2  0
 26 28  1  0
 29 33  2  0
 30 32  1  0
 31 32  1  0
 33 34  1  0
M  END
>  <DRUGBANK_ID>  (1) 
DB02545

>  <SECONDARY_ACCESSION_NUMBERS>  (1) 
EXPT01424

>  <COMMON_NAME>  (1) 
Fexaramine

>  <CAS_NUMBER>  (1) 
574013-66-4

>  <UNII>  (1) 
WTG9GFA65U

$$$$
