630
     RDKit          2D

 14 13  0  0  0  0  0  0  0  0999 V2000
    4.2365   -0.4851    0.0000 P   0  0  0  0  0  0  0  0  0  0  0  0
    2.8075   -1.3101    0.0000 P   0  0  0  0  0  0  0  0  0  0  0  0
    3.9345   -1.6121    0.0000 O   0  0  0  0  0  0  0  0  0  0  0  0
    4.9509   -0.0726    0.0000 O   0  0  0  0  0  0  0  0  0  0  0  0
    4.6490   -1.1996    0.0000 O   0  0  0  0  0  0  0  0  0  0  0  0
    2.0930   -1.7226    0.0000 O   0  0  0  0  0  0  0  0  0  0  0  0
    2.3950   -0.5957    0.0000 O   0  0  0  0  0  0  0  0  0  0  0  0
    4.2365    0.3399    0.0000 O   0  0  0  0  0  0  0  0  0  0  0  0
    2.8075   -2.1351    0.0000 O   0  0  0  0  0  0  0  0  0  0  0  0
    2.3950    1.8794    0.0000 N   0  0  0  0  0  0  0  0  0  0  0  0
    3.5220   -0.8976    0.0000 C   0  0  0  0  0  0  0  0  0  0  0  0
    3.1095   -0.1832    0.0000 C   0  0  0  0  0  0  0  0  0  0  0  0
    3.1095    0.6419    0.0000 C   0  0  0  0  0  0  0  0  0  0  0  0
    2.3950    1.0544    0.0000 C   0  0  0  0  0  0  0  0  0  0  0  0
  1  4  1  0
  1  5  1  0
  1  8  2  0
  1 11  1  0
  2  6  1  0
  2  7  1  0
  2  9  2  0
  2 11  1  0
  3 11  1  0
 10 14  1  0
 11 12  1  0
 12 13  1  0
 13 14  1  0
M  END
>  <DRUGBANK_ID>  (1) 
DB00630

>  <SECONDARY_ACCESSION_NUMBERS>  (1) 
APRD00561

>  <COMMON_NAME>  (1) 
Alendronic acid

>  <CAS_NUMBER>  (1) 
66376-36-1

>  <UNII>  (1) 
X1J18R4W8P

>  <SYNONYMS>  (1) 
(4-amino-1-hydroxybutane-1,1-diyl)bis(phosphonic acid); (4-amino-1-hydroxybutylidene)bisphosphonic acid; 4-amino-1-hydroxybutane-1,1-diphosphonic acid; ABDP; Acide Alendronique; Acido Alendronico; Acidum Alendronicum; Alendronate; Alendronic acid

$$$$
