
     RDKit          2D

 13 12  0  0  1  0  0  0  0  0999 V2000
    4.0954    0.7145    0.0000 C   0  0  0  0  0  0  0  0  0  0  0  0
    3.3809    1.1270    0.0000 C   0  0  0  0  0  0  0  0  0  0  0  0
    1.9520    1.1270    0.0000 C   0  0  0  0  0  0  0  0  0  0  0  0
    1.2375    0.7145    0.0000 C   0  0  0  0  0  0  0  0  0  0  0  0
    0.5230    1.1270    0.0000 C   0  0  0  0  0  0  0  0  0  0  0  0
    4.8099    1.1270    0.0000 B   0  0  0  0  0  0  0  0  0  0  0  0
    1.2375   -0.1105    0.0000 N   0  0  0  0  0  0  0  0  0  0  0  0
   -0.1914    0.7145    0.0000 O   0  0  0  0  0  0  0  0  0  0  0  0
    0.5230    1.9520    0.0000 O   0  0  0  0  0  0  0  0  0  0  0  0
    5.5243    1.5395    0.0000 O   0  0  0  0  0  0  0  0  0  0  0  0
    5.2224    0.4125    0.0000 O   0  0  0  0  0  0  0  0  0  0  0  0
    4.3974    1.8414    0.0000 O   0  0  0  0  0  0  0  0  0  0  0  0
    2.6664    0.7145    0.0000 S   0  0  0  0  0  0  0  0  0  0  0  0
  2  1  1  0
  4  3  1  0
  4  7  1  6
  5  4  1  0
  6  1  1  0
  8  5  2  0
  9  5  1  0
 10  6  1  0
 11  6  1  0
 12  6  1  0
 13  2  1  0
 13  3  1  0
M  CHG  1   6  -1
M  END
>  <DRUGBANK_ID>  (1) 
DB03731

>  <SECONDARY_ACCESSION_NUMBERS>  (1) 
EXPT02831

>  <COMMON_NAME>  (1) 
S-2-(Boronoethyl)-L-Cysteine

$$$$
