
     RDKit          2D

 14 15  0  0  0  0  0  0  0  0999 V2000
    1.0521   -0.3641    0.0000 N   0  0  0  0  0  0  0  0  0  0  0  0
    0.5666    0.2827    0.0000 C   0  0  0  0  0  0  0  0  0  0  0  0
   -0.1617    0.0399    0.0000 N   0  0  0  0  0  0  0  0  0  0  0  0
   -0.1617   -0.7690    0.0000 C   0  0  0  0  0  0  0  0  0  0  0  0
   -0.8093   -1.3359    0.0000 C   0  0  0  0  0  0  0  0  0  0  0  0
   -0.6473   -2.1457    0.0000 C   0  0  0  0  0  0  0  0  0  0  0  0
    0.1617   -2.3884    0.0000 C   0  0  0  0  0  0  0  0  0  0  0  0
    0.7287   -1.8215    0.0000 C   0  0  0  0  0  0  0  0  0  0  0  0
    0.5666   -1.0117    0.0000 C   0  0  0  0  0  0  0  0  0  0  0  0
    0.8093    1.0117    0.0000 N   0  0  0  0  0  0  0  0  0  0  0  0
    0.3238    1.6593    0.0000 C   0  0  0  0  0  0  0  0  0  0  0  0
    0.5666    2.3884    0.0000 O   0  0  0  0  0  0  0  0  0  0  0  0
   -0.4851    1.4973    0.0000 O   0  0  0  0  0  0  0  0  0  0  0  0
   -1.0521    2.0642    0.0000 C   0  0  0  0  0  0  0  0  0  0  0  0
  1  2  1  0
  1  9  1  0
  2  3  2  0
  2 10  1  0
  3  4  1  0
  4  5  1  0
  4  9  2  0
  5  6  2  0
  6  7  1  0
  7  8  2  0
  8  9  1  0
 10 11  1  0
 11 12  2  0
 11 13  1  0
 13 14  1  0
M  END
>  <DRUGBANK_ID>  (1) 
DB13009

>  <COMMON_NAME>  (1) 
Carbendazim

>  <CAS_NUMBER>  (1) 
10605-21-7

>  <UNII>  (1) 
H75J14AA89

$$$$
