039
     RDKit          2D

 31 35  0  0  0  0  0  0  0  0999 V2000
    0.7293    1.6268    0.0000 C   0  0  0  0  0  0  0  0  0  0  0  0
    0.7293    0.8018    0.0000 O   0  0  0  0  0  0  0  0  0  0  0  0
    1.4438    0.3893    0.0000 C   0  0  0  0  0  0  0  0  0  0  0  0
    2.1583    0.8018    0.0000 C   0  0  0  0  0  0  0  0  0  0  0  0
    2.8727    0.3893    0.0000 C   0  0  0  0  0  0  0  0  0  0  0  0
    2.8727   -0.4357    0.0000 C   0  0  0  0  0  0  0  0  0  0  0  0
    2.1583   -0.8482    0.0000 C   0  0  0  0  0  0  0  0  0  0  0  0
    1.4438   -0.4357    0.0000 C   0  0  0  0  0  0  0  0  0  0  0  0
    0.7293   -0.8482    0.0000 N   0  0  0  0  0  0  0  0  0  0  0  0
    0.7293   -1.6732    0.0000 C   0  0  0  0  0  0  0  0  0  0  0  0
    1.4438   -2.0857    0.0000 O   0  0  0  0  0  0  0  0  0  0  0  0
    0.0148   -2.0857    0.0000 C   0  0  0  0  0  0  0  0  0  0  0  0
    0.0148   -2.9107    0.0000 C   0  0  0  0  0  0  0  0  0  0  0  0
    0.7293   -3.3232    0.0000 Cl  0  0  0  0  0  0  0  0  0  0  0  0
   -0.6996   -3.3232    0.0000 C   0  0  0  0  0  0  0  0  0  0  0  0
   -1.4141   -2.9107    0.0000 C   0  0  0  0  0  0  0  0  0  0  0  0
   -1.4141   -2.0857    0.0000 C   0  0  0  0  0  0  0  0  0  0  0  0
   -0.6996   -1.6732    0.0000 C   0  0  0  0  0  0  0  0  0  0  0  0
   -0.6996   -0.8482    0.0000 N   0  0  0  0  0  0  0  0  0  0  0  0
    0.0148   -0.4357    0.0000 C   0  0  0  0  0  0  0  0  0  0  0  0
    0.0148    0.3893    0.0000 C   0  0  0  0  0  0  0  0  0  0  0  0
   -0.6996    0.8018    0.0000 S   0  0  0  0  0  0  0  0  0  0  0  0
   -0.6996    1.6268    0.0000 C   0  0  0  0  0  0  0  0  0  0  0  0
   -1.4141    2.0393    0.0000 C   0  0  0  0  0  0  0  0  0  0  0  0
   -2.1987    1.7844    0.0000 N   0  0  0  0  0  0  0  0  0  0  0  0
   -2.6836    2.4518    0.0000 C   0  0  0  0  0  0  0  0  0  0  0  0
   -2.1987    3.1192    0.0000 N   0  0  0  0  0  0  0  0  0  0  0  0
   -1.4141    2.8643    0.0000 C   0  0  0  0  0  0  0  0  0  0  0  0
   -0.6996    3.2768    0.0000 N   0  0  0  0  0  0  0  0  0  0  0  0
    0.0148    2.8643    0.0000 C   0  0  0  0  0  0  0  0  0  0  0  0
    0.0148    2.0393    0.0000 N   0  0  0  0  0  0  0  0  0  0  0  0
  1  2  1  0
  2  3  1  0
  3  4  2  0
  3  8  1  0
  4  5  1  0
  5  6  2  0
  6  7  1  0
  7  8  2  0
  8  9  1  0
  9 10  1  0
  9 20  1  0
 10 11  2  0
 10 12  1  0
 12 13  2  0
 12 18  1  0
 13 14  1  0
 13 15  1  0
 15 16  2  0
 16 17  1  0
 17 18  2  0
 18 19  1  0
 19 20  2  0
 20 21  1  0
 21 22  1  0
 22 23  1  0
 23 24  2  0
 23 31  1  0
 24 25  1  0
 24 28  1  0
 25 26  2  0
 26 27  1  0
 27 28  1  0
 28 29  2  0
 29 30  1  0
 30 31  2  0
M  END
>  <DRUGBANK_ID>  (1) 
DB06831

>  <COMMON_NAME>  (1) 
2-((9H-PURIN-6-YLTHIO)METHYL)-5-CHLORO-3-(2-METHOXYPHENYL)QUINAZOLIN-4(3H)-ONE

$$$$
