PR2
     RDKit          2D

 29 33  0  0  0  0  0  0  0  0999 V2000
   -2.1840   -2.7632    0.0000 C   0  0  0  0  0  0  0  0  0  0  0  0
   -2.5196   -3.5169    0.0000 C   0  0  0  0  0  0  0  0  0  0  0  0
   -3.3401   -3.6031    0.0000 C   0  0  0  0  0  0  0  0  0  0  0  0
   -3.8250   -2.9357    0.0000 C   0  0  0  0  0  0  0  0  0  0  0  0
   -3.4895   -2.1820    0.0000 N   0  0  0  0  0  0  0  0  0  0  0  0
   -2.6690   -2.0957    0.0000 C   0  0  0  0  0  0  0  0  0  0  0  0
   -2.1840   -1.4283    0.0000 C   0  0  0  0  0  0  0  0  0  0  0  0
   -1.3994   -1.6832    0.0000 C   0  0  0  0  0  0  0  0  0  0  0  0
   -1.3994   -2.5082    0.0000 S   0  0  0  0  0  0  0  0  0  0  0  0
    0.1268    1.4128    0.0000 N   0  0  0  0  0  0  0  0  0  0  0  0
    0.4623    0.6591    0.0000 C   0  0  0  0  0  0  0  0  0  0  0  0
   -0.1508    0.1071    0.0000 C   0  0  0  0  0  0  0  0  0  0  0  0
   -0.8653    0.5196    0.0000 C   0  0  0  0  0  0  0  0  0  0  0  0
   -0.6937    1.3266    0.0000 C   0  0  0  0  0  0  0  0  0  0  0  0
   -0.0645   -0.7134    0.0000 N   0  0  0  0  0  0  0  0  0  0  0  0
   -0.7320   -1.1983    0.0000 S   0  0  0  0  0  0  0  0  0  0  0  0
   -0.2471   -1.8658    0.0000 O   0  0  0  0  0  0  0  0  0  0  0  0
   -1.2169   -0.5309    0.0000 O   0  0  0  0  0  0  0  0  0  0  0  0
    1.2693    0.4876    0.0000 O   0  0  0  0  0  0  0  0  0  0  0  0
    0.5393    2.1273    0.0000 C   0  0  0  0  0  0  0  0  0  0  0  0
    2.6338    1.7148    0.0000 C   0  0  0  0  0  0  0  0  0  0  0  0
    2.6338    2.5398    0.0000 C   0  0  0  0  0  0  0  0  0  0  0  0
    3.3483    2.9523    0.0000 C   0  0  0  0  0  0  0  0  0  0  0  0
    4.0627    2.5398    0.0000 C   0  0  0  0  0  0  0  0  0  0  0  0
    4.0627    1.7148    0.0000 N   0  0  0  0  0  0  0  0  0  0  0  0
    3.3483    1.3023    0.0000 C   0  0  0  0  0  0  0  0  0  0  0  0
    1.8492    2.7947    0.0000 C   0  0  0  0  0  0  0  0  0  0  0  0
    1.3643    2.1273    0.0000 C   0  0  0  0  0  0  0  0  0  0  0  0
    1.8492    1.4598    0.0000 N   0  0  0  0  0  0  0  0  0  0  0  0
  1  2  2  0
  1  6  1  0
  1  9  1  0
  2  3  1  0
  3  4  2  0
  4  5  1  0
  5  6  2  0
  6  7  1  0
  7  8  2  0
  8  9  1  0
  8 16  1  0
 10 11  1  0
 10 14  1  0
 10 20  1  0
 11 12  1  0
 11 19  2  0
 12 13  1  0
 12 15  1  1
 13 14  1  0
 15 16  1  0
 16 17  2  0
 16 18  2  0
 20 28  1  0
 21 22  1  0
 21 26  2  0
 21 29  1  0
 22 23  2  0
 22 27  1  0
 23 24  1  0
 24 25  2  0
 25 26  1  0
 27 28  2  0
 28 29  1  0
M  END
>  <DRUGBANK_ID>  (1) 
DB08426

>  <COMMON_NAME>  (1) 
THIENO[3,2-B]PYRIDINE-2-SULFONIC ACID [2-OXO-1-(1H-PYRROLO[2,3-C]PYRIDIN-2-YLMETHYL)-PYRROLIDIN-3-YL]-AMIDE

$$$$
