
     RDKit          2D

  9  8  0  0  0  0  0  0  0  0999 V2000
    0.3610   -0.4091    0.0000 C   0  0  0  0  0  0  0  0  0  0  0  0
    0.3610   -1.2400    0.0000 C   0  0  0  0  0  0  0  0  0  0  0  0
    0.3610    0.4174    0.0000 C   0  0  0  0  0  0  0  0  0  0  0  0
   -0.3528    0.8309    0.0000 C   0  0  0  0  0  0  0  0  0  0  0  0
   -1.0750    0.4174    0.0000 C   0  0  0  0  0  0  0  0  0  0  0  0
   -1.7889    0.8309    0.0000 Cl  0  0  0  0  0  0  0  0  0  0  0  0
    0.3610    1.2400    0.0000 O   0  0  0  0  0  0  0  0  0  0  0  0
    1.0750    0.8309    0.0000 C   0  0  0  0  0  0  0  0  0  0  0  0
    1.7889    0.4174    0.0000 C   0  0  0  0  0  0  0  0  0  0  0  0
  2  1  3  0
  3  1  1  0
  4  3  1  0
  5  4  2  0
  6  5  1  0
  7  3  1  0
  8  3  1  0
  9  8  1  0
M  END
>  <DRUGBANK_ID>  (1) 
DB00189

>  <SECONDARY_ACCESSION_NUMBERS>  (1) 
APRD00958

>  <COMMON_NAME>  (1) 
Ethchlorvynol

>  <CAS_NUMBER>  (1) 
113-18-8

>  <UNII>  (1) 
6EIM3851UZ

>  <SYNONYMS>  (1) 
1-chloro-3-ethyl-1-penten-4-yn-3-ol; 1-Chloro-3-ethyl-pent-1-en-4-yn-3-ol; 3-(beta-chlorovinyl)-1-pentyn-3-ol; 3-(β-chlorovinyl)-1-pentyn-3-ol; etclorvinol; Ethchlorvynol; ethyl β-chlorovinyl ethynyl carbinol; β-chlorovinyl ethyl ethynyl carbinol

$$$$
