
     RDKit          2D

 29 32  0  0  1  0  0  0  0  0999 V2000
   -0.5914   -2.3573    0.0000 C   0  0  0  0  0  0  0  0  0  0  0  0
   -0.9226   -1.6017    0.0000 C   0  0  0  0  0  0  0  0  0  0  0  0
   -0.4338   -0.9371    0.0000 N   0  0  0  0  0  0  0  0  0  0  0  0
    0.3862   -1.0281    0.0000 C   0  0  0  0  0  0  0  0  0  0  0  0
    0.8750   -0.3635    0.0000 C   0  0  0  0  0  0  0  0  0  0  0  0
    1.6950   -0.4546    0.0000 C   0  0  0  0  0  0  0  0  0  0  0  0
    2.0261   -1.2102    0.0000 C   0  0  0  0  0  0  0  0  0  0  0  0
    2.8505   -1.1780    0.0000 C   0  0  0  0  0  0  0  0  0  0  0  0
    3.2778   -0.4722    0.0000 N   0  0  0  0  0  0  0  0  0  0  0  0
    4.0810   -0.6605    0.0000 C   0  0  0  0  0  0  0  0  0  0  0  0
    4.1501   -1.4826    0.0000 C   0  0  0  0  0  0  0  0  0  0  0  0
    3.3897   -1.8024    0.0000 N   0  0  0  0  0  0  0  0  0  0  0  0
    3.2376   -2.6133    0.0000 C   0  0  0  0  0  0  0  0  0  0  0  0
    2.5088   -3.0000    0.0000 C   0  0  0  0  0  0  0  0  0  0  0  0
    1.7521   -2.6713    0.0000 O   0  0  0  0  0  0  0  0  0  0  0  0
    1.5373   -1.8748    0.0000 C   0  0  0  0  0  0  0  0  0  0  0  0
    0.7173   -1.7837    0.0000 C   0  0  0  0  0  0  0  0  0  0  0  0
    4.7054   -0.1213    0.0000 N   0  0  0  0  0  0  0  0  0  0  0  0
    4.6363    0.7008    0.0000 C   0  0  0  0  0  0  0  0  0  0  0  0
    5.3968    1.0206    0.0000 C   0  0  0  0  0  0  0  0  0  0  0  0
    5.9359    0.3961    0.0000 O   0  0  0  0  0  0  0  0  0  0  0  0
    5.5087   -0.3096    0.0000 C   0  0  0  0  0  0  0  0  0  0  0  0
    5.8285   -1.0701    0.0000 O   0  0  0  0  0  0  0  0  0  0  0  0
    3.9305    1.1280    0.0000 C   0  0  0  0  0  0  0  0  0  0  0  0
    3.9477    1.9528    0.0000 F   0  0  0  0  0  0  0  0  0  0  0  0
    3.2076    0.7305    0.0000 F   0  0  0  0  0  0  0  0  0  0  0  0
   -1.7425   -1.5107    0.0000 C   0  0  0  0  0  0  0  0  0  0  0  0
   -2.2314   -2.1753    0.0000 N   0  0  0  0  0  0  0  0  0  0  0  0
   -2.0737   -0.7550    0.0000 O   0  0  0  0  0  0  0  0  0  0  0  0
  2  1  1  1
  2  3  1  0
  2 27  1  0
  3  4  1  0
  4  5  2  0
  4 17  1  0
  5  6  1  0
  6  7  2  0
  7  8  1  0
  7 16  1  0
  8  9  2  0
  8 12  1  0
  9 10  1  0
 10 11  2  0
 10 18  1  0
 11 12  1  0
 12 13  1  0
 13 14  1  0
 14 15  1  0
 15 16  1  0
 16 17  2  0
 18 22  1  0
 19 18  1  0
 19 20  1  0
 19 24  1  6
 20 21  1  0
 21 22  1  0
 22 23  2  0
 24 25  1  0
 24 26  1  0
 27 28  1  0
 27 29  2  0
M  END
>  <DRUGBANK_ID>  (1) 
DB15275

>  <COMMON_NAME>  (1) 
Inavolisib

>  <CAS_NUMBER>  (1) 
2060571-02-8

>  <UNII>  (1) 
L4C1UY2NYH

>  <SYNONYMS>  (1) 
(2S)-2-((2-((4S)-4-(difluoromethyl)-2-oxo-3-oxazolidinyl)-5,6-dihydroimidazo(1,2-D)(1,4)benzoxazepin-9-yl)amino)propanamide; propanamide, 2-((2-((4S)-4-(difluoromethyl)-2-oxo-3-oxazolidinyl)-5,6-dihydroimidazo(1,2-D)(1,4)benzoxazepin-9-yl)amino)-, (2S)-

$$$$
