
     RDKit          2D

 10  9  0  0  0  0  0  0  0  0999 V2000
   -0.9355   -1.0164    0.0000 C   0  0  0  0  0  0  0  0  0  0  0  0
    1.9224   -1.0164    0.0000 C   0  0  0  0  0  0  0  0  0  0  0  0
   -1.6500   -1.4289    0.0000 C   0  0  0  0  0  0  0  0  0  0  0  0
    2.6368   -1.4289    0.0000 C   0  0  0  0  0  0  0  0  0  0  0  0
   -0.2211   -1.4289    0.0000 C   0  0  0  0  0  0  0  0  0  0  0  0
    1.2079   -1.4289    0.0000 C   0  0  0  0  0  0  0  0  0  0  0  0
   -2.3645   -1.0164    0.0000 O   0  0  0  0  0  0  0  0  0  0  0  0
    1.2079   -2.2539    0.0000 O   0  0  0  0  0  0  0  0  0  0  0  0
    3.3513   -1.0164    0.0000 S   0  0  0  0  0  0  0  0  0  0  0  0
    0.4934   -1.0164    0.0000 S   0  0  0  0  0  0  0  0  0  0  0  0
  3  1  1  0
  4  2  1  0
  5  1  1  0
  6  2  1  0
  7  3  2  0
  8  6  2  0
  9  4  1  0
 10  5  1  0
 10  6  1  0
M  CHG  1   9  -1
M  END
>  <DRUGBANK_ID>  (1) 
DB04749

>  <COMMON_NAME>  (1) 
2-(3-OXO-PROPYLSULFANYLCARBONYL)-ETHANETHIOLATE

$$$$
