
     RDKit          2D

 35 39  0  0  0  0  0  0  0  0999 V2000
   -1.0983    0.0159    0.0000 C   0  0  0  0  0  0  0  0  0  0  0  0
   -1.0876   -0.8052    0.0000 C   0  0  0  0  0  0  0  0  0  0  0  0
   -0.3868    0.4336    0.0000 C   0  0  0  0  0  0  0  0  0  0  0  0
   -1.7956    0.4229    0.0000 C   0  0  0  0  0  0  0  0  0  0  0  0
   -1.1341    0.8087    0.0000 C   0  0  0  0  0  0  0  0  0  0  0  0
   -1.7848   -1.2193    0.0000 C   0  0  0  0  0  0  0  0  0  0  0  0
    0.3388   -0.8334    0.0000 C   0  0  0  0  0  0  0  0  0  0  0  0
    0.3316    0.0301    0.0000 C   0  0  0  0  0  0  0  0  0  0  0  0
   -0.3939    1.2582    0.0000 C   0  0  0  0  0  0  0  0  0  0  0  0
    0.4271    0.6069    0.0000 O   0  0  0  0  0  0  0  0  0  0  0  0
   -2.5141    0.0053    0.0000 C   0  0  0  0  0  0  0  0  0  0  0  0
   -2.5104   -0.8123    0.0000 C   0  0  0  0  0  0  0  0  0  0  0  0
   -1.7848   -2.0406    0.0000 C   0  0  0  0  0  0  0  0  0  0  0  0
    0.3564    1.6546    0.0000 C   0  0  0  0  0  0  0  0  0  0  0  0
   -1.1337    1.6866    0.0000 O   0  0  0  0  0  0  0  0  0  0  0  0
   -3.2502    0.4299    0.0000 O   0  0  0  0  0  0  0  0  0  0  0  0
   -3.2077   -1.2229    0.0000 C   0  0  0  0  0  0  0  0  0  0  0  0
   -2.4963   -2.4546    0.0000 C   0  0  0  0  0  0  0  0  0  0  0  0
    1.0855    1.2051    0.0000 O   0  0  0  0  0  0  0  0  0  0  0  0
   -3.2007   -2.0476    0.0000 C   0  0  0  0  0  0  0  0  0  0  0  0
   -3.9228   -0.8194    0.0000 C   0  0  0  0  0  0  0  0  0  0  0  0
   -3.2543   -0.4372    0.0000 C   0  0  0  0  0  0  0  0  0  0  0  0
    1.8148    1.6264    0.0000 C   0  0  0  0  0  0  0  0  0  0  0  0
   -3.9157   -2.4653    0.0000 C   0  0  0  0  0  0  0  0  0  0  0  0
   -4.6378   -1.2299    0.0000 C   0  0  0  0  0  0  0  0  0  0  0  0
    2.5476    1.2051    0.0000 C   0  0  0  0  0  0  0  0  0  0  0  0
    1.8077    2.4830    0.0000 O   0  0  0  0  0  0  0  0  0  0  0  0
   -4.6485   -2.0971    0.0000 C   0  0  0  0  0  0  0  0  0  0  0  0
    3.2801    1.6264    0.0000 C   0  0  0  0  0  0  0  0  0  0  0  0
   -5.3670   -2.4830    0.0000 O   0  0  0  0  0  0  0  0  0  0  0  0
    4.0060    1.2056    0.0000 C   0  0  0  0  0  0  0  0  0  0  0  0
    4.2688    0.4046    0.0000 C   0  0  0  0  0  0  0  0  0  0  0  0
    4.6850    1.6958    0.0000 C   0  0  0  0  0  0  0  0  0  0  0  0
    5.1087    0.4107    0.0000 C   0  0  0  0  0  0  0  0  0  0  0  0
    5.3670    1.2079    0.0000 C   0  0  0  0  0  0  0  0  0  0  0  0
  1  2  1  0
  1  3  1  0
  1  4  1  0
  1  5  1  1
  2  6  1  0
  2  7  1  1
  3  8  1  0
  3  9  1  0
  3 10  1  6
  4 11  1  0
  6 12  1  0
  6 13  1  6
  7  8  1  0
  9 14  1  0
  9 15  2  0
 11 16  1  1
 12 11  1  1
 12 17  1  0
 13 18  1  0
 14 19  1  0
 17 20  1  0
 17 21  1  0
 17 22  1  1
 18 20  1  0
 19 23  1  0
 20 24  2  0
 21 25  1  0
 23 26  1  0
 23 27  2  0
 24 28  1  0
 25 28  1  0
 26 29  1  0
 28 30  2  0
 29 31  1  0
 31 32  1  0
 31 33  1  0
 32 34  1  0
 33 35  1  0
 34 35  1  0
M  END
>  <DRUGBANK_ID>  (1) 
DB14541

>  <SECONDARY_ACCESSION_NUMBERS>  (1) 
DBSALT001388

>  <COMMON_NAME>  (1) 
Hydrocortisone cypionate

>  <CAS_NUMBER>  (1) 
508-99-6

>  <UNII>  (1) 
4XDY25L70B

>  <SYNONYMS>  (1) 
Cortisol 21-cyclopentanepropionate; Hydrocortisone cipionate

$$$$
