
     RDKit          2D

 26 30  0  0  1  0  0  0  0  0999 V2000
    1.9854    1.9809    0.0000 C   0  0  0  0  0  0  0  0  0  0  0  0
    2.2057    1.1858    0.0000 C   0  0  0  0  0  0  0  0  0  0  0  0
    3.0044    0.9791    0.0000 C   0  0  0  0  0  0  0  0  0  0  0  0
    3.2246    0.1841    0.0000 C   0  0  0  0  0  0  0  0  0  0  0  0
    3.9629   -0.1842    0.0000 C   0  0  0  0  0  0  0  0  0  0  0  0
    4.7305    0.1180    0.0000 C   0  0  0  0  0  0  0  0  0  0  0  0
    5.3761   -0.3958    0.0000 C   0  0  0  0  0  0  0  0  0  0  0  0
    5.2540   -1.2117    0.0000 C   0  0  0  0  0  0  0  0  0  0  0  0
    4.4863   -1.5139    0.0000 C   0  0  0  0  0  0  0  0  0  0  0  0
    3.8408   -1.0001    0.0000 C   0  0  0  0  0  0  0  0  0  0  0  0
    3.0270   -1.1361    0.0000 N   0  0  0  0  0  0  0  0  0  0  0  0
    2.6463   -0.4042    0.0000 C   0  0  0  0  0  0  0  0  0  0  0  0
    1.8476   -0.1975    0.0000 C   0  0  0  0  0  0  0  0  0  0  0  0
    1.6273    0.5975    0.0000 N   0  0  0  0  0  0  0  0  0  0  0  0
    1.9836   -1.0112    0.0000 C   0  0  0  0  0  0  0  0  0  0  0  0
    2.6793   -1.4546    0.0000 C   0  0  0  0  0  0  0  0  0  0  0  0
    2.6431   -2.2789    0.0000 C   0  0  0  0  0  0  0  0  0  0  0  0
    1.9112   -2.6596    0.0000 C   0  0  0  0  0  0  0  0  0  0  0  0
    1.2155   -2.2162    0.0000 C   0  0  0  0  0  0  0  0  0  0  0  0
    1.2517   -1.3920    0.0000 C   0  0  0  0  0  0  0  0  0  0  0  0
    0.6634   -0.8136    0.0000 N   0  0  0  0  0  0  0  0  0  0  0  0
    1.0317   -0.0754    0.0000 C   0  0  0  0  0  0  0  0  0  0  0  0
    0.6509    0.6565    0.0000 O   0  0  0  0  0  0  0  0  0  0  0  0
    3.3388   -2.7223    0.0000 Cl  0  0  0  0  0  0  0  0  0  0  0  0
    5.8995   -1.7254    0.0000 Cl  0  0  0  0  0  0  0  0  0  0  0  0
    6.1437   -0.0936    0.0000 F   0  0  0  0  0  0  0  0  0  0  0  0
  2  1  1  1
  2  3  1  0
  2 14  1  0
  3  4  1  0
  4  5  1  0
  4 12  2  0
  5  6  2  0
  5 10  1  0
  6  7  1  0
  7  8  2  0
  7 26  1  0
  8  9  1  0
  8 25  1  0
  9 10  2  0
 10 11  1  0
 11 12  1  0
 13 12  1  0
 13 14  1  1
 13 15  1  0
 13 22  1  0
 15 16  2  0
 15 20  1  0
 16 17  1  0
 17 18  2  0
 17 24  1  0
 18 19  1  0
 19 20  2  0
 20 21  1  0
 21 22  1  0
 22 23  2  0
M  END
>  <DRUGBANK_ID>  (1) 
DB12306

>  <COMMON_NAME>  (1) 
Cipargamin

>  <CAS_NUMBER>  (1) 
1193314-23-6

>  <UNII>  (1) 
Z7Q4FWA04P

>  <SYNONYMS>  (1) 
Cipargamin

$$$$
