
     RDKit          2D

 21 23  0  0  1  0  0  0  0  0999 V2000
    0.0992   -1.0091    0.0000 C   0  0  0  0  0  0  0  0  0  0  0  0
    3.3523    1.1104    0.0000 C   0  0  0  0  0  0  0  0  0  0  0  0
    0.6538    1.5229    0.0000 C   0  0  0  0  0  0  0  0  0  0  0  0
    0.8838   -1.2640    0.0000 C   0  0  0  0  0  0  0  0  0  0  0  0
    1.9233    1.9354    0.0000 C   0  0  0  0  0  0  0  0  0  0  0  0
    1.3687   -0.5966    0.0000 C   0  0  0  0  0  0  0  0  0  0  0  0
    2.6378    2.3479    0.0000 C   0  0  0  0  0  0  0  0  0  0  0  0
    1.9233    1.1104    0.0000 C   0  0  0  0  0  0  0  0  0  0  0  0
    0.8838    0.0709    0.0000 C   0  0  0  0  0  0  0  0  0  0  0  0
    2.6378    3.1729    0.0000 N   0  0  0  0  0  0  0  0  0  0  0  0
    3.3523    1.9354    0.0000 N   0  0  0  0  0  0  0  0  0  0  0  0
    2.6378    0.6979    0.0000 N   0  0  0  0  0  0  0  0  0  0  0  0
    1.1387    2.1904    0.0000 N   0  0  0  0  0  0  0  0  0  0  0  0
    1.1387    0.8555    0.0000 N   0  0  0  0  0  0  0  0  0  0  0  0
    2.1937   -0.5966    0.0000 O   0  0  0  0  0  0  0  0  0  0  0  0
    2.7527   -2.3917    0.0000 O   0  0  0  0  0  0  0  0  0  0  0  0
    1.7742   -3.0271    0.0000 O   0  0  0  0  0  0  0  0  0  0  0  0
    2.1172   -1.4132    0.0000 O   0  0  0  0  0  0  0  0  0  0  0  0
    0.0992   -0.1841    0.0000 O   0  0  0  0  0  0  0  0  0  0  0  0
    1.1387   -2.0486    0.0000 O   0  0  0  0  0  0  0  0  0  0  0  0
    1.9457   -2.2201    0.0000 P   0  0  0  0  0  0  0  0  0  0  0  0
  4  1  1  0
  4 20  1  1
  6  4  1  0
  6 15  1  6
  7  5  2  0
  8  5  1  0
  9  6  1  0
  9 14  1  1
 10  7  1  0
 11  2  2  0
 11  7  1  0
 12  2  1  0
 12  8  2  0
 13  3  2  0
 13  5  1  0
 14  3  1  0
 14  8  1  0
 19  1  1  0
 19  9  1  0
 21 16  1  0
 21 17  1  0
 21 18  2  0
 21 20  1  0
M  END
>  <DRUGBANK_ID>  (1) 
DB02454

>  <SECONDARY_ACCESSION_NUMBERS>  (1) 
EXPT01386

>  <COMMON_NAME>  (1) 
5-(6-Amino-9h-Purin-9-Yl)-4-Hydroxytetrahydrofuran-3-Yl Dihydrogen Phosphate

$$$$
