FAF
     RDKit          2D

 22 22  0  0  0  0  0  0  0  0999 V2000
   -1.2649   -2.7575    0.0000 C   0  0  0  0  0  0  0  0  0  0  0  0
   -1.2649   -3.5825    0.0000 O   0  0  0  0  0  0  0  0  0  0  0  0
   -1.9794   -2.3450    0.0000 C   0  0  0  0  0  0  0  0  0  0  0  0
   -0.5505   -2.3450    0.0000 N   0  0  0  0  0  0  0  0  0  0  0  0
   -0.5505   -1.5200    0.0000 C   0  0  0  0  0  0  0  0  0  0  0  0
   -1.2649   -1.1075    0.0000 C   0  0  0  0  0  0  0  0  0  0  0  0
   -1.2649   -0.2825    0.0000 C   0  0  0  0  0  0  0  0  0  0  0  0
   -1.9794    0.1300    0.0000 C   0  0  0  0  0  0  0  0  0  0  0  0
   -0.5505    0.1300    0.0000 C   0  0  0  0  0  0  0  0  0  0  0  0
    0.1640   -1.1075    0.0000 C   0  0  0  0  0  0  0  0  0  0  0  0
    0.8785   -1.5200    0.0000 O   0  0  0  0  0  0  0  0  0  0  0  0
    0.1640   -0.2825    0.0000 N   0  0  0  0  0  0  0  0  0  0  0  0
    0.8785    0.1300    0.0000 C   0  0  0  0  0  0  0  0  0  0  0  0
    0.8785    0.9550    0.0000 C   0  0  0  0  0  0  0  0  0  0  0  0
    1.5930    1.3675    0.0000 C   0  0  0  0  0  0  0  0  0  0  0  0
    1.5930    2.1925    0.0000 C   0  0  0  0  0  0  0  0  0  0  0  0
    2.3074    0.9550    0.0000 C   0  0  0  0  0  0  0  0  0  0  0  0
    2.3074    2.6050    0.0000 C   0  0  0  0  0  0  0  0  0  0  0  0
    3.0219    1.3675    0.0000 C   0  0  0  0  0  0  0  0  0  0  0  0
    3.0219    2.1925    0.0000 C   0  0  0  0  0  0  0  0  0  0  0  0
    1.5930   -0.2825    0.0000 C   0  0  0  0  0  0  0  0  0  0  0  0
    1.5930   -1.1075    0.0000 O   0  0  0  0  0  0  0  0  0  0  0  0
  1  2  2  0
  1  3  1  0
  1  4  1  0
  5  4  1  0
  5  6  1  1
  5 10  1  0
  6  7  1  0
  7  8  1  0
  7  9  1  0
 10 11  2  0
 10 12  1  0
 13 12  1  0
 13 14  1  1
 13 21  1  0
 14 15  1  0
 15 16  2  0
 15 17  1  0
 16 18  1  0
 17 19  2  0
 18 20  2  0
 19 20  1  0
 21 22  2  0
M  END
>  <DRUGBANK_ID>  (1) 
DB07749

>  <COMMON_NAME>  (1) 
2-ACETYLAMINO-4-METHYL-PENTANOIC ACID (1-FORMYL-2-PHENYL-ETHYL)-AMIDE

$$$$
