TI3
     RDKit          2D

 29 31  0  0  0  0  0  0  0  0999 V2000
   -1.7914    0.8332    0.0000 S   0  0  0  0  0  0  0  0  0  0  0  0
   -1.7914    0.0082    0.0000 C   0  0  0  0  0  0  0  0  0  0  0  0
   -2.5059   -0.4043    0.0000 C   0  0  0  0  0  0  0  0  0  0  0  0
   -3.2204    0.0082    0.0000 C   0  0  0  0  0  0  0  0  0  0  0  0
   -3.9349   -0.4043    0.0000 C   0  0  0  0  0  0  0  0  0  0  0  0
   -3.2204    0.8332    0.0000 C   0  0  0  0  0  0  0  0  0  0  0  0
   -4.6493    0.0082    0.0000 C   0  0  0  0  0  0  0  0  0  0  0  0
   -3.9349    1.2457    0.0000 C   0  0  0  0  0  0  0  0  0  0  0  0
   -4.6493    0.8332    0.0000 C   0  0  0  0  0  0  0  0  0  0  0  0
   -1.0770   -0.4043    0.0000 C   0  0  0  0  0  0  0  0  0  0  0  0
   -1.0770   -1.2293    0.0000 O   0  0  0  0  0  0  0  0  0  0  0  0
   -0.3625    0.0082    0.0000 N   0  0  0  0  0  0  0  0  0  0  0  0
    0.3520   -0.4043    0.0000 C   0  0  0  0  0  0  0  0  0  0  0  0
    1.0664    0.0082    0.0000 C   0  0  0  0  0  0  0  0  0  0  0  0
    1.0664    0.8332    0.0000 O   0  0  0  0  0  0  0  0  0  0  0  0
    1.7809   -0.4043    0.0000 N   0  0  0  0  0  0  0  0  0  0  0  0
    2.5346   -0.0688    0.0000 C   0  0  0  0  0  0  0  0  0  0  0  0
    1.8672   -1.2248    0.0000 C   0  0  0  0  0  0  0  0  0  0  0  0
    2.6741   -1.3964    0.0000 C   0  0  0  0  0  0  0  0  0  0  0  0
    3.0866   -0.6819    0.0000 C   0  0  0  0  0  0  0  0  0  0  0  0
    2.7061    0.7382    0.0000 C   0  0  0  0  0  0  0  0  0  0  0  0
    2.0930    1.2902    0.0000 C   0  0  0  0  0  0  0  0  0  0  0  0
    3.4907    0.9931    0.0000 C   0  0  0  0  0  0  0  0  0  0  0  0
    2.2646    2.0972    0.0000 C   0  0  0  0  0  0  0  0  0  0  0  0
    3.6623    1.8001    0.0000 C   0  0  0  0  0  0  0  0  0  0  0  0
    3.0492    2.3521    0.0000 C   0  0  0  0  0  0  0  0  0  0  0  0
    1.2541   -1.7769    0.0000 C   0  0  0  0  0  0  0  0  0  0  0  0
    1.4256   -2.5838    0.0000 O   0  0  0  0  0  0  0  0  0  0  0  0
    0.4694   -1.5219    0.0000 O   0  0  0  0  0  0  0  0  0  0  0  0
  2  1  1  6
  2  3  1  0
  2 10  1  0
  3  4  1  0
  4  5  2  0
  4  6  1  0
  5  7  1  0
  6  8  2  0
  7  9  2  0
  8  9  1  0
 10 11  2  0
 10 12  1  0
 12 13  1  0
 13 14  1  0
 14 15  2  0
 14 16  1  0
 16 17  1  0
 16 18  1  0
 17 20  1  0
 17 21  1  1
 18 19  1  0
 18 27  1  1
 19 20  1  0
 21 22  2  0
 21 23  1  0
 22 24  1  0
 23 25  2  0
 24 26  2  0
 25 26  1  0
 27 28  2  0
 27 29  1  0
M  END
>  <DRUGBANK_ID>  (1) 
DB02669

>  <SECONDARY_ACCESSION_NUMBERS>  (1) 
EXPT03062

>  <COMMON_NAME>  (1) 
RB106

$$$$
