35F
     RDKit          2D

 28 32  0  0  0  0  0  0  0  0999 V2000
    1.6815    0.4963    0.0000 C   0  0  0  0  0  0  0  0  0  0  0  0
    0.9670    0.9088    0.0000 C   0  0  0  0  0  0  0  0  0  0  0  0
    0.9670    1.7338    0.0000 C   0  0  0  0  0  0  0  0  0  0  0  0
   -0.0726   -0.1308    0.0000 C   0  0  0  0  0  0  0  0  0  0  0  0
   -0.5824   -1.7000    0.0000 C   0  0  0  0  0  0  0  0  0  0  0  0
    0.4795   -0.7439    0.0000 C   0  0  0  0  0  0  0  0  0  0  0  0
    3.1104    0.4963    0.0000 C   0  0  0  0  0  0  0  0  0  0  0  0
    4.4161    0.2187    0.0000 C   0  0  0  0  0  0  0  0  0  0  0  0
   -2.4935   -0.6454    0.0000 C   0  0  0  0  0  0  0  0  0  0  0  0
   -3.3005   -0.8169    0.0000 C   0  0  0  0  0  0  0  0  0  0  0  0
   -4.6280   -0.6774    0.0000 C   0  0  0  0  0  0  0  0  0  0  0  0
   -2.2385    0.1392    0.0000 O   0  0  0  0  0  0  0  0  0  0  0  0
   -3.6360   -1.5706    0.0000 O   0  0  0  0  0  0  0  0  0  0  0  0
   -4.4565   -1.4843    0.0000 C   0  0  0  0  0  0  0  0  0  0  0  0
   -3.9135   -0.2649    0.0000 C   0  0  0  0  0  0  0  0  0  0  0  0
   -1.9414   -1.2585    0.0000 N   0  0  0  0  0  0  0  0  0  0  0  0
   -1.1345   -1.0869    0.0000 C   0  0  0  0  0  0  0  0  0  0  0  0
   -0.8795   -0.3023    0.0000 C   0  0  0  0  0  0  0  0  0  0  0  0
    0.2245   -1.5285    0.0000 C   0  0  0  0  0  0  0  0  0  0  0  0
    0.1824    0.6538    0.0000 C   0  0  0  0  0  0  0  0  0  0  0  0
   -0.3026    1.3213    0.0000 N   0  0  0  0  0  0  0  0  0  0  0  0
    0.1824    1.9887    0.0000 N   0  0  0  0  0  0  0  0  0  0  0  0
    1.6815    2.1463    0.0000 C   0  0  0  0  0  0  0  0  0  0  0  0
    2.3959    1.7338    0.0000 C   0  0  0  0  0  0  0  0  0  0  0  0
    2.3959    0.9088    0.0000 C   0  0  0  0  0  0  0  0  0  0  0  0
    3.8641    0.8318    0.0000 N   0  0  0  0  0  0  0  0  0  0  0  0
    4.0036   -0.4957    0.0000 N   0  0  0  0  0  0  0  0  0  0  0  0
    3.1966   -0.3242    0.0000 N   0  0  0  0  0  0  0  0  0  0  0  0
  1  2  2  0
  1 25  1  0
  2  3  1  0
  2 20  1  0
  3 22  1  0
  3 23  2  0
  4  6  1  0
  4 18  2  0
  4 20  1  0
  5 17  2  0
  5 19  1  0
  6 19  2  0
  7 25  1  0
  7 26  1  0
  7 28  2  0
  8 26  2  0
  8 27  1  0
  9 10  1  0
  9 12  2  0
  9 16  1  0
 10 13  1  0
 10 15  2  0
 11 14  2  0
 11 15  1  0
 13 14  1  0
 16 17  1  0
 17 18  1  0
 20 21  2  0
 21 22  1  0
 23 24  1  0
 24 25  2  0
 27 28  1  0
M  END
>  <DRUGBANK_ID>  (1) 
DB07020

>  <COMMON_NAME>  (1) 
N-{3-[5-(1H-1,2,4-triazol-3-yl)-1H-indazol-3-yl]phenyl}furan-2-carboxamide

$$$$
