
     RDKit          2D

 34 34  0  0  1  0  0  0  0  0999 V2000
    1.2801   -4.1554    0.0000 C   0  0  0  0  0  0  0  0  0  0  0  0
    1.2801   -4.9804    0.0000 C   0  0  0  0  0  0  0  0  0  0  0  0
    0.5657   -5.3929    0.0000 C   0  0  0  0  0  0  0  0  0  0  0  0
    1.9946   -5.3929    0.0000 C   0  0  0  0  0  0  0  0  0  0  0  0
    1.9946   -6.2179    0.0000 C   0  0  0  0  0  0  0  0  0  0  0  0
    1.2801   -6.6304    0.0000 C   0  0  0  0  0  0  0  0  0  0  0  0
    1.2801   -7.4554    0.0000 O   0  0  0  0  0  0  0  0  0  0  0  0
    0.5657   -6.2179    0.0000 N   0  0  0  0  0  0  0  0  0  0  0  0
   -0.1488   -6.6304    0.0000 C   0  0  0  0  0  0  0  0  0  0  0  0
   -0.8633   -6.2179    0.0000 C   0  0  0  0  0  0  0  0  0  0  0  0
   -0.8633   -5.3929    0.0000 O   0  0  0  0  0  0  0  0  0  0  0  0
   -1.5778   -6.6304    0.0000 N   0  0  0  0  0  0  0  0  0  0  0  0
   -2.2922   -6.2179    0.0000 C   0  0  0  0  0  0  0  0  0  0  0  0
   -0.1488   -7.4554    0.0000 C   0  0  0  0  0  0  0  0  0  0  0  0
   -0.9738   -7.4554    0.0000 C   0  0  0  0  0  0  0  0  0  0  0  0
    0.6762   -7.4554    0.0000 C   0  0  0  0  0  0  0  0  0  0  0  0
   -0.1488   -8.2804    0.0000 C   0  0  0  0  0  0  0  0  0  0  0  0
    2.7091   -6.6304    0.0000 N   0  0  0  0  0  0  0  0  0  0  0  0
    3.4235   -6.2179    0.0000 C   0  0  0  0  0  0  0  0  0  0  0  0
    3.4235   -5.3929    0.0000 O   0  0  0  0  0  0  0  0  0  0  0  0
    4.1380   -6.6304    0.0000 C   0  0  0  0  0  0  0  0  0  0  0  0
    4.8525   -6.2179    0.0000 C   0  0  0  0  0  0  0  0  0  0  0  0
    5.5670   -6.6304    0.0000 C   0  0  0  0  0  0  0  0  0  0  0  0
    6.2814   -6.2179    0.0000 N   0  0  0  0  0  0  0  0  0  0  0  0
    6.3677   -5.3974    0.0000 C   0  0  0  0  0  0  0  0  0  0  0  0
    5.7546   -4.8454    0.0000 O   0  0  0  0  0  0  0  0  0  0  0  0
    7.1746   -5.2259    0.0000 C   0  0  0  0  0  0  0  0  0  0  0  0
    7.5871   -5.9404    0.0000 N   0  0  0  0  0  0  0  0  0  0  0  0
    7.0351   -6.5535    0.0000 C   0  0  0  0  0  0  0  0  0  0  0  0
    7.2066   -7.3605    0.0000 O   0  0  0  0  0  0  0  0  0  0  0  0
    8.4076   -6.0266    0.0000 C   0  0  0  0  0  0  0  0  0  0  0  0
    7.0970   -4.4046    0.0000 C   0  0  0  0  0  0  0  0  0  0  0  0
    7.8370   -4.7340    0.0000 C   0  0  0  0  0  0  0  0  0  0  0  0
    4.1380   -7.4554    0.0000 S   0  0  0  0  0  0  0  0  0  0  0  0
  1  2  1  0
  2  3  1  0
  2  4  1  0
  5  4  1  6
  5  6  1  0
  5 18  1  0
  6  7  2  0
  6  8  1  0
  9  8  1  1
  9 10  1  0
  9 14  1  0
 10 11  2  0
 10 12  1  0
 12 13  1  0
 14 15  1  0
 14 16  1  0
 14 17  1  0
 18 19  1  0
 19 20  2  0
 19 21  1  0
 21 22  1  6
 21 34  1  0
 22 23  1  0
 23 24  1  0
 24 25  1  0
 24 29  1  0
 25 26  2  0
 25 27  1  0
 27 28  1  0
 27 32  1  0
 27 33  1  0
 28 29  1  0
 28 31  1  0
 29 30  2  0
M  END
>  <DRUGBANK_ID>  (1) 
DB06573

>  <COMMON_NAME>  (1) 
Rebimastat

>  <CAS_NUMBER>  (1) 
259188-38-0

>  <UNII>  (1) 
1B47R6ZX4K

>  <SYNONYMS>  (1) 
Rebimastat

$$$$
