
     RDKit          2D

 30 35  0  0  1  0  0  0  0  0999 V2000
    6.1127   -0.8070    0.0000 C   0  0  0  0  0  0  0  0  0  0  0  0
    5.7971   -1.5693    0.0000 C   0  0  0  0  0  0  0  0  0  0  0  0
    6.2995   -2.2237    0.0000 N   0  0  0  0  0  0  0  0  0  0  0  0
    5.9839   -2.9860    0.0000 C   0  0  0  0  0  0  0  0  0  0  0  0
    5.1659   -3.0938    0.0000 C   0  0  0  0  0  0  0  0  0  0  0  0
    4.6636   -2.4394    0.0000 C   0  0  0  0  0  0  0  0  0  0  0  0
    4.9792   -1.6771    0.0000 C   0  0  0  0  0  0  0  0  0  0  0  0
    4.4769   -1.0227    0.0000 C   0  0  0  0  0  0  0  0  0  0  0  0
    3.6589   -1.1305    0.0000 C   0  0  0  0  0  0  0  0  0  0  0  0
    3.1566   -0.4761    0.0000 C   0  0  0  0  0  0  0  0  0  0  0  0
    2.4249   -0.8571    0.0000 O   0  0  0  0  0  0  0  0  0  0  0  0
    1.6194   -0.6787    0.0000 C   0  0  0  0  0  0  0  0  0  0  0  0
    1.1171   -0.0243    0.0000 C   0  0  0  0  0  0  0  0  0  0  0  0
    0.3221   -0.2449    0.0000 C   0  0  0  0  0  0  0  0  0  0  0  0
   -0.1334    0.4430    0.0000 O   0  0  0  0  0  0  0  0  0  0  0  0
    0.3801    1.0887    0.0000 C   0  0  0  0  0  0  0  0  0  0  0  0
    0.2438    1.9024    0.0000 C   0  0  0  0  0  0  0  0  0  0  0  0
    0.8803    2.4273    0.0000 C   0  0  0  0  0  0  0  0  0  0  0  0
    1.6531    2.1385    0.0000 C   0  0  0  0  0  0  0  0  0  0  0  0
    2.3121    2.6348    0.0000 F   0  0  0  0  0  0  0  0  0  0  0  0
    1.7102    1.4083    0.0000 C   0  0  0  0  0  0  0  0  0  0  0  0
    2.5281    1.5161    0.0000 C   0  0  0  0  0  0  0  0  0  0  0  0
    3.2240    1.0730    0.0000 N   0  0  0  0  0  0  0  0  0  0  0  0
    3.4722    0.2862    0.0000 C   0  0  0  0  0  0  0  0  0  0  0  0
    4.2901    0.3940    0.0000 N   0  0  0  0  0  0  0  0  0  0  0  0
    4.7573    1.0740    0.0000 C   0  0  0  0  0  0  0  0  0  0  0  0
    5.5483    0.8398    0.0000 N   0  0  0  0  0  0  0  0  0  0  0  0
    5.5701    0.0151    0.0000 N   0  0  0  0  0  0  0  0  0  0  0  0
    4.7924   -0.2604    0.0000 C   0  0  0  0  0  0  0  0  0  0  0  0
    1.1529    0.7999    0.0000 C   0  0  0  0  0  0  0  0  0  0  0  0
  1  2  1  0
  2  3  2  0
  2  7  1  0
  3  4  1  0
  4  5  2  0
  5  6  1  0
  6  7  2  0
  7  8  1  0
  8  9  2  0
  8 29  1  0
  9 10  1  0
 10 11  1  0
 10 24  2  0
 11 12  1  0
 13 12  1  6
 13 14  1  0
 13 30  1  0
 14 15  1  0
 15 16  1  0
 16 17  1  0
 16 30  2  0
 17 18  2  0
 18 19  1  0
 19 20  1  0
 19 21  2  0
 21 22  1  0
 21 30  1  0
 22 23  1  0
 23 24  1  0
 24 25  1  0
 25 26  1  0
 25 29  1  0
 26 27  2  0
 27 28  1  0
 28 29  2  0
M  END
>  <DRUGBANK_ID>  (1) 
DB18070

>  <COMMON_NAME>  (1) 
Pociredir

>  <CAS_NUMBER>  (1) 
2490676-18-9

>  <UNII>  (1) 
Q7VU9N2UO2

>  <SYNONYMS>  (1) 
7h-furo(4,3,2-gh)(1,2,4)triazolo(4',3':1,6)pyrido(2,3-c)(5,2)benzoxazonine, 12-fluoro-7a,8,13,14-tetrahydro-4-(2-methyl-3-pyridinyl)-, (7as)-; Pociredir, (s)-

$$$$
