
     RDKit          2D

 19 19  0  0  0  0  0  0  0  0999 V2000
    1.3717    0.9404    0.0000 N   0  0  0  0  0  0  0  0  0  0  0  0
    0.6565    0.5263    0.0000 C   0  0  0  0  0  0  0  0  0  0  0  0
    2.0869    0.5263    0.0000 C   0  0  0  0  0  0  0  0  0  0  0  0
    0.6565   -0.3017    0.0000 C   0  0  0  0  0  0  0  0  0  0  0  0
    2.0869   -0.3017    0.0000 N   0  0  0  0  0  0  0  0  0  0  0  0
    1.3717   -0.7282    0.0000 C   0  0  0  0  0  0  0  0  0  0  0  0
   -0.0752    0.9446    0.0000 O   0  0  0  0  0  0  0  0  0  0  0  0
    2.8145    0.9404    0.0000 O   0  0  0  0  0  0  0  0  0  0  0  0
    1.3717   -1.5520    0.0000 O   0  0  0  0  0  0  0  0  0  0  0  0
   -0.0460    0.1249    0.0000 C   0  0  0  0  0  0  0  0  0  0  0  0
    1.3717    1.7307    0.0000 C   0  0  0  0  0  0  0  0  0  0  0  0
   -0.7778   -0.2389    0.0000 C   0  0  0  0  0  0  0  0  0  0  0  0
   -1.4761    0.1249    0.0000 C   0  0  0  0  0  0  0  0  0  0  0  0
    0.2440   -1.0162    0.0000 C   0  0  0  0  0  0  0  0  0  0  0  0
   -0.5810   -1.0162    0.0000 C   0  0  0  0  0  0  0  0  0  0  0  0
    0.6565   -1.7307    0.0000 C   0  0  0  0  0  0  0  0  0  0  0  0
   -1.4060   -1.0162    0.0000 C   0  0  0  0  0  0  0  0  0  0  0  0
   -2.2312   -1.0162    0.0000 C   0  0  0  0  0  0  0  0  0  0  0  0
   -2.8145   -1.5995    0.0000 C   0  0  0  0  0  0  0  0  0  0  0  0
  2  1  1  0
  3  1  1  0
  4  2  1  0
  4 14  1  0
  5  3  1  0
  6  5  1  0
  6  4  1  0
  7  2  2  0
  8  3  2  0
  9  6  2  0
 10  4  1  0
 11  1  1  0
 12 10  1  0
 13 12  2  0
 14 15  1  0
 14 16  1  0
 15 17  3  0
 17 18  1  0
 18 19  1  0
M  END
>  <DRUGBANK_ID>  (1) 
DB00474

>  <SECONDARY_ACCESSION_NUMBERS>  (1) 
APRD00058

>  <COMMON_NAME>  (1) 
Methohexital

>  <CAS_NUMBER>  (1) 
151-83-7

>  <UNII>  (1) 
E5B8ND5IPE

>  <SYNONYMS>  (1) 
(±)-5-allyl-1-methyl-5-(1-methyl-2-pentynyl)barbituric acid; 5-allyl-1-methyl-5-(1-methyl-2-pentynyl)-2,4,6(1H,3H,5H)-pyrimidinetrione; 5-Allyl-1-methyl-5-(1-methyl-pent-2-ynyl)-pyrimidine-2,4,6-trione; 5-Allyl-5-(3-hexyn-2-yl)-1-methylbarbituric acid; Methohexital; Methohexitalum; Methohexitone; Metohexital; α-DL-1-methyl-5-allyl-5-(1'-methylpentyn-2-yl)barbituric acid

$$$$
