
     RDKit          2D

 21 21  0  0  0  0  0  0  0  0999 V2000
   -2.8579   -0.8803    0.0000 S   0  0  0  0  0  0  0  0  0  0  0  0
   -2.4453   -1.5948    0.0000 O   0  0  0  0  0  0  0  0  0  0  0  0
   -3.2704   -1.5948    0.0000 O   0  0  0  0  0  0  0  0  0  0  0  0
   -0.7144    0.3572    0.0000 C   0  0  0  0  0  0  0  0  0  0  0  0
   -0.7144   -0.4677    0.0000 C   0  0  0  0  0  0  0  0  0  0  0  0
   -1.4289   -0.8802    0.0000 C   0  0  0  0  0  0  0  0  0  0  0  0
   -2.1434   -0.4678    0.0000 C   0  0  0  0  0  0  0  0  0  0  0  0
   -2.1434    0.3571    0.0000 C   0  0  0  0  0  0  0  0  0  0  0  0
   -1.4289    0.7697    0.0000 C   0  0  0  0  0  0  0  0  0  0  0  0
    0.0000    0.7697    0.0000 C   0  0  0  0  0  0  0  0  0  0  0  0
    0.7144    0.3572    0.0000 C   0  0  0  0  0  0  0  0  0  0  0  0
    1.4288    0.7698    0.0000 N   0  0  0  0  0  0  0  0  0  0  0  0
    0.7145   -0.4678    0.0000 C   0  0  0  0  0  0  0  0  0  0  0  0
    1.4289   -0.8803    0.0000 F   0  0  0  0  0  0  0  0  0  0  0  0
    2.1434    0.3572    0.0000 C   0  0  0  0  0  0  0  0  0  0  0  0
    2.8579    0.7697    0.0000 C   0  0  0  0  0  0  0  0  0  0  0  0
    2.1434   -0.4677    0.0000 O   0  0  0  0  0  0  0  0  0  0  0  0
    3.5724    0.3572    0.0000 Cl  0  0  0  0  0  0  0  0  0  0  0  0
    2.8579    1.5948    0.0000 Cl  0  0  0  0  0  0  0  0  0  0  0  0
    0.0000    1.5948    0.0000 O   0  0  0  0  0  0  0  0  0  0  0  0
   -3.5724   -0.4678    0.0000 C   0  0  0  0  0  0  0  0  0  0  0  0
  1 21  1  0
  2  1  2  0
  3  1  2  0
  4  5  2  0
  4 10  1  0
  5  6  1  0
  6  7  2  0
  7  8  1  0
  7  1  1  0
  8  9  2  0
  9  4  1  0
 10 11  1  0
 10 20  1  1
 11 12  1  0
 11 13  1  6
 12 15  1  0
 13 14  1  0
 15 16  1  0
 15 17  2  0
 16 18  1  0
 16 19  1  0
M  END
>  <DRUGBANK_ID>  (1) 
DB11413

>  <COMMON_NAME>  (1) 
Florfenicol

>  <CAS_NUMBER>  (1) 
73231-34-2

>  <UNII>  (1) 
9J97307Y1H

>  <SYNONYMS>  (1) 
(-)-Florfenicol; D-threo-2,2-Dichloro-N-(alpha-(fluoromethyl)-beta-hydroxy-p-(methylsulfonyl)phenethyl)acetamide; Florfenicol

$$$$
