C4H
     RDKit          2D

 27 28  0  0  0  0  0  0  0  0999 V2000
   -2.6605    1.0450    0.0000 C   0  0  0  0  0  0  0  0  0  0  0  0
   -3.3750    0.6325    0.0000 C   0  0  0  0  0  0  0  0  0  0  0  0
   -2.6605    1.8700    0.0000 C   0  0  0  0  0  0  0  0  0  0  0  0
   -3.3750    2.2825    0.0000 N   0  0  0  0  0  0  0  0  0  0  0  0
   -3.3750    3.1075    0.0000 C   0  0  0  0  0  0  0  0  0  0  0  0
   -4.0894    1.8700    0.0000 C   0  0  0  0  0  0  0  0  0  0  0  0
   -1.9460    2.2825    0.0000 C   0  0  0  0  0  0  0  0  0  0  0  0
   -1.2315    1.8700    0.0000 C   0  0  0  0  0  0  0  0  0  0  0  0
   -1.2315    1.0450    0.0000 C   0  0  0  0  0  0  0  0  0  0  0  0
   -1.9460    0.6325    0.0000 C   0  0  0  0  0  0  0  0  0  0  0  0
   -1.9460   -0.1925    0.0000 C   0  0  0  0  0  0  0  0  0  0  0  0
   -2.6605   -0.6050    0.0000 C   0  0  0  0  0  0  0  0  0  0  0  0
   -3.3750   -0.1925    0.0000 C   0  0  0  0  0  0  0  0  0  0  0  0
   -1.2315   -0.6050    0.0000 S   0  0  0  0  0  0  0  0  0  0  0  0
   -0.5171   -1.0175    0.0000 N   0  0  0  0  0  0  0  0  0  0  0  0
    0.1974   -0.6050    0.0000 C   0  0  0  0  0  0  0  0  0  0  0  0
    0.9119   -1.0175    0.0000 C   0  0  0  0  0  0  0  0  0  0  0  0
    1.6263   -0.6050    0.0000 C   0  0  0  0  0  0  0  0  0  0  0  0
    2.3408   -1.0175    0.0000 C   0  0  0  0  0  0  0  0  0  0  0  0
    3.0553   -0.6050    0.0000 N   0  0  0  0  0  0  0  0  0  0  0  0
    3.7698   -1.0175    0.0000 C   0  0  0  0  0  0  0  0  0  0  0  0
    3.7698   -1.8425    0.0000 O   0  0  0  0  0  0  0  0  0  0  0  0
    4.4842   -0.6050    0.0000 C   0  0  0  0  0  0  0  0  0  0  0  0
    5.1987   -1.0175    0.0000 C   0  0  0  0  0  0  0  0  0  0  0  0
    5.9132   -0.6050    0.0000 S   0  0  0  0  0  0  0  0  0  0  0  0
   -1.6440   -1.3194    0.0000 O   0  0  0  0  0  0  0  0  0  0  0  0
   -0.8190    0.1095    0.0000 O   0  0  0  0  0  0  0  0  0  0  0  0
  1  2  2  0
  1  3  1  0
  1 10  1  0
  2 13  1  0
  3  4  1  0
  3  7  2  0
  4  5  1  0
  4  6  1  0
  7  8  1  0
  8  9  2  0
  9 10  1  0
 10 11  2  0
 11 12  1  0
 11 14  1  0
 12 13  2  0
 14 15  1  0
 14 26  2  0
 14 27  2  0
 15 16  1  0
 16 17  1  0
 17 18  1  0
 18 19  1  0
 19 20  1  0
 20 21  1  0
 21 22  2  0
 21 23  1  0
 23 24  1  0
 24 25  1  0
M  END
>  <DRUGBANK_ID>  (1) 
DB07526

>  <COMMON_NAME>  (1) 
N-[4-({[5-(DIMETHYLAMINO)-1-NAPHTHYL]SULFONYL}AMINO)BUTYL]-3-SULFANYLPROPANAMIDE

$$$$
