
     RDKit          2D

 11 11  0  0  0  0  0  0  0  0999 V2000
    0.0000   -0.8249    0.0000 N   0  0  0  0  0  0  0  0  0  0  0  0
   -0.7145   -0.4124    0.0000 C   0  0  0  0  0  0  0  0  0  0  0  0
   -0.7145    0.4125    0.0000 N   0  0  0  0  0  0  0  0  0  0  0  0
    0.0000    0.8250    0.0000 C   0  0  0  0  0  0  0  0  0  0  0  0
    0.7145    0.4125    0.0000 N   0  0  0  0  0  0  0  0  0  0  0  0
    0.7145   -0.4124    0.0000 C   0  0  0  0  0  0  0  0  0  0  0  0
   -1.4289   -0.8249    0.0000 O   0  0  0  0  0  0  0  0  0  0  0  0
    0.0000    1.6500    0.0000 O   0  0  0  0  0  0  0  0  0  0  0  0
    1.4290   -0.8249    0.0000 O   0  0  0  0  0  0  0  0  0  0  0  0
   -1.4289    0.8250    0.0000 Cl  0  0  0  0  0  0  0  0  0  0  0  0
    0.0000   -1.6500    0.0000 Cl  0  0  0  0  0  0  0  0  0  0  0  0
  1  2  1  0
  1  6  1  0
  1 11  1  0
  2  3  1  0
  2  7  2  0
  3  4  1  0
  3 10  1  0
  4  5  1  0
  4  8  2  0
  5  6  1  0
  6  9  2  0
M  END
>  <DRUGBANK_ID>  (1) 
DB15960

>  <COMMON_NAME>  (1) 
Troclosene

>  <CAS_NUMBER>  (1) 
2782-57-2

>  <UNII>  (1) 
PHR838Y52L

>  <SYNONYMS>  (1) 
Dichlorocyanuric acid; Dichloroisocyanuric acid; Kyselina dichlorisokyanurova; Troclosene

$$$$
