L15
     RDKit          2D

 15 16  0  0  0  0  0  0  0  0999 V2000
    2.8670   -0.2453    0.0000 C   0  0  0  0  0  0  0  0  0  0  0  0
    2.8670   -1.0703    0.0000 C   0  0  0  0  0  0  0  0  0  0  0  0
    3.5345   -1.5552    0.0000 N   0  0  0  0  0  0  0  0  0  0  0  0
    3.2795   -2.3399    0.0000 N   0  0  0  0  0  0  0  0  0  0  0  0
    2.4545   -2.3399    0.0000 C   0  0  0  0  0  0  0  0  0  0  0  0
    2.1996   -1.5552    0.0000 C   0  0  0  0  0  0  0  0  0  0  0  0
    1.4150   -1.3003    0.0000 C   0  0  0  0  0  0  0  0  0  0  0  0
    0.8019   -1.8523    0.0000 C   0  0  0  0  0  0  0  0  0  0  0  0
    0.0173   -1.5974    0.0000 C   0  0  0  0  0  0  0  0  0  0  0  0
   -0.1543   -0.7904    0.0000 C   0  0  0  0  0  0  0  0  0  0  0  0
   -0.9389   -0.5355    0.0000 C   0  0  0  0  0  0  0  0  0  0  0  0
   -1.1104    0.2715    0.0000 C   0  0  0  0  0  0  0  0  0  0  0  0
   -1.8950    0.5264    0.0000 N   0  0  0  0  0  0  0  0  0  0  0  0
    0.4588   -0.2384    0.0000 C   0  0  0  0  0  0  0  0  0  0  0  0
    1.2435   -0.4933    0.0000 C   0  0  0  0  0  0  0  0  0  0  0  0
  1  2  1  0
  2  3  2  0
  2  6  1  0
  3  4  1  0
  4  5  1  0
  5  6  2  0
  6  7  1  0
  7  8  2  0
  7 15  1  0
  8  9  1  0
  9 10  2  0
 10 11  1  0
 10 14  1  0
 11 12  1  0
 12 13  1  0
 14 15  2  0
M  END
>  <DRUGBANK_ID>  (1) 
DB08070

>  <COMMON_NAME>  (1) 
2-[4-(3-METHYL-1H-PYRAZOL-4-YL)PHENYL]ETHANAMINE

$$$$
