
     RDKit          2D

 25 27  0  0  0  0  0  0  0  0999 V2000
    0.9549    0.6952    0.0000 S   0  0  0  0  0  0  0  0  0  0  0  0
    0.2444    1.1305    0.0000 N   0  0  0  0  0  0  0  0  0  0  0  0
   -0.4736    0.7180    0.0000 C   0  0  0  0  0  0  0  0  0  0  0  0
   -1.1153    1.0694    0.0000 N   0  0  0  0  0  0  0  0  0  0  0  0
    1.6729    0.2520    0.0000 C   0  0  0  0  0  0  0  0  0  0  0  0
    1.3826    1.4056    0.0000 O   0  0  0  0  0  0  0  0  0  0  0  0
    0.5347   -0.0381    0.0000 O   0  0  0  0  0  0  0  0  0  0  0  0
   -0.4736   -0.1069    0.0000 O   0  0  0  0  0  0  0  0  0  0  0  0
    1.6729   -0.5575    0.0000 C   0  0  0  0  0  0  0  0  0  0  0  0
    2.3758    0.6646    0.0000 C   0  0  0  0  0  0  0  0  0  0  0  0
    3.0939    0.2520    0.0000 C   0  0  0  0  0  0  0  0  0  0  0  0
    2.3758   -0.9777    0.0000 C   0  0  0  0  0  0  0  0  0  0  0  0
    3.0939   -0.5575    0.0000 C   0  0  0  0  0  0  0  0  0  0  0  0
    3.8196   -0.9777    0.0000 C   0  0  0  0  0  0  0  0  0  0  0  0
   -1.8105    0.6569    0.0000 C   0  0  0  0  0  0  0  0  0  0  0  0
   -2.5209    1.0542    0.0000 C   0  0  0  0  0  0  0  0  0  0  0  0
   -1.8105   -0.1681    0.0000 C   0  0  0  0  0  0  0  0  0  0  0  0
   -3.2237    0.6417    0.0000 C   0  0  0  0  0  0  0  0  0  0  0  0
   -2.5133   -0.5806    0.0000 C   0  0  0  0  0  0  0  0  0  0  0  0
   -3.2237   -0.1832    0.0000 C   0  0  0  0  0  0  0  0  0  0  0  0
   -2.9563    0.3132    0.0000 C   0  0  0  0  0  0  0  0  0  0  0  0
   -2.7271   -1.4056    0.0000 C   0  0  0  0  0  0  0  0  0  0  0  0
   -1.0542   -0.5958    0.0000 O   0  0  0  0  0  0  0  0  0  0  0  0
   -3.8196    0.3132    0.0000 C   0  0  0  0  0  0  0  0  0  0  0  0
   -1.3215    0.3132    0.0000 C   0  0  0  0  0  0  0  0  0  0  0  0
  1  2  1  0
  1  5  1  0
  1  6  2  0
  1  7  2  0
  2  3  1  0
  3  4  1  0
  3  8  2  0
  5  9  2  0
  5 10  1  0
  9 12  1  0
 10 11  2  0
 11 13  1  0
 12 13  2  0
 13 14  1  0
 15  4  1  6
 15 16  1  0
 15 17  1  0
 16 18  1  6
 16 21  1  0
 17 19  1  0
 17 23  1  6
 18 20  1  0
 19 20  1  0
 19 21  1  0
 19 22  1  1
 21 24  1  0
 21 25  1  0
M  END
>  <DRUGBANK_ID>  (1) 
DB08962

>  <COMMON_NAME>  (1) 
Glibornuride

>  <CAS_NUMBER>  (1) 
26944-48-9

>  <UNII>  (1) 
VP83E7434R

>  <SYNONYMS>  (1) 
Glibornurid; Glibornurida; Glibornuride; Glibornuridum

$$$$
