
     RDKit          2D

 25 26  0  0  0  0  0  0  0  0999 V2000
    2.7875   -1.0125    0.0000 N   0  0  0  0  0  0  0  0  0  0  0  0
    2.0730   -0.6000    0.0000 C   0  0  0  0  0  0  0  0  0  0  0  0
    2.0730    0.2250    0.0000 O   0  0  0  0  0  0  0  0  0  0  0  0
    1.3586   -1.0125    0.0000 N   0  0  0  0  0  0  0  0  0  0  0  0
    0.6441   -0.6000    0.0000 C   0  0  0  0  0  0  0  0  0  0  0  0
   -0.0704   -1.0125    0.0000 C   0  0  0  0  0  0  0  0  0  0  0  0
   -0.7849   -0.6000    0.0000 S   0  0  0  0  0  0  0  0  0  0  0  0
   -1.4993   -1.0125    0.0000 C   0  0  0  0  0  0  0  0  0  0  0  0
   -2.9674   -0.9355    0.0000 O   0  0  0  0  0  0  0  0  0  0  0  0
   -2.2138   -0.6000    0.0000 C   0  0  0  0  0  0  0  0  0  0  0  0
   -2.3000    0.2205    0.0000 C   0  0  0  0  0  0  0  0  0  0  0  0
   -3.1070    0.3921    0.0000 C   0  0  0  0  0  0  0  0  0  0  0  0
   -3.5195   -0.3224    0.0000 C   0  0  0  0  0  0  0  0  0  0  0  0
   -4.3400   -0.4087    0.0000 C   0  0  0  0  0  0  0  0  0  0  0  0
   -4.8249    0.2587    0.0000 N   0  0  0  0  0  0  0  0  0  0  0  0
   -4.4893    1.0125    0.0000 C   0  0  0  0  0  0  0  0  0  0  0  0
   -5.6454    0.1724    0.0000 C   0  0  0  0  0  0  0  0  0  0  0  0
    3.5020   -0.6000    0.0000 C   0  0  0  0  0  0  0  0  0  0  0  0
    4.2164   -1.0125    0.0000 C   0  0  0  0  0  0  0  0  0  0  0  0
    4.9309   -0.6000    0.0000 C   0  0  0  0  0  0  0  0  0  0  0  0
    4.9309    0.2250    0.0000 C   0  0  0  0  0  0  0  0  0  0  0  0
    4.2164    0.6375    0.0000 C   0  0  0  0  0  0  0  0  0  0  0  0
    3.5020    0.2250    0.0000 C   0  0  0  0  0  0  0  0  0  0  0  0
    5.6454    0.6375    0.0000 C   0  0  0  0  0  0  0  0  0  0  0  0
    5.6454   -1.0125    0.0000 Cl  0  0  0  0  0  0  0  0  0  0  0  0
  1  2  1  0
  1 18  1  0
  2  3  2  0
  2  4  1  0
  4  5  1  0
  5  6  1  0
  6  7  1  0
  7  8  1  0
  8 10  1  0
  9 10  1  0
  9 13  1  0
 10 11  2  0
 11 12  1  0
 12 13  2  0
 13 14  1  0
 14 15  1  0
 15 16  1  0
 15 17  1  0
 18 19  2  0
 18 23  1  0
 19 20  1  0
 20 21  2  0
 20 25  1  0
 21 22  1  0
 21 24  1  0
 22 23  2  0
M  END
>  <DRUGBANK_ID>  (1) 
DB08027

>  <COMMON_NAME>  (1) 
CAP-1

>  <CAS_NUMBER>  (1) 
564475-13-4

>  <UNII>  (1) 
X5U1W7S3VQ

$$$$
