PXX
     RDKit          2D

 18 20  0  0  0  0  0  0  0  0999 V2000
    0.8283    2.5622    0.0000 C   0  0  0  0  0  0  0  0  0  0  0  0
    0.4158    1.8477    0.0000 C   0  0  0  0  0  0  0  0  0  0  0  0
   -0.4092    1.8477    0.0000 O   0  0  0  0  0  0  0  0  0  0  0  0
    0.8283    1.1332    0.0000 N   0  0  0  0  0  0  0  0  0  0  0  0
    0.4158    0.4188    0.0000 C   0  0  0  0  0  0  0  0  0  0  0  0
    0.8283   -0.2957    0.0000 C   0  0  0  0  0  0  0  0  0  0  0  0
    1.6533   -0.2957    0.0000 C   0  0  0  0  0  0  0  0  0  0  0  0
    2.0658   -1.0102    0.0000 C   0  0  0  0  0  0  0  0  0  0  0  0
    1.6533   -1.7246    0.0000 C   0  0  0  0  0  0  0  0  0  0  0  0
    0.8283   -1.7246    0.0000 N   0  0  0  0  0  0  0  0  0  0  0  0
    0.4158   -1.0102    0.0000 C   0  0  0  0  0  0  0  0  0  0  0  0
   -0.4092   -1.0102    0.0000 C   0  0  0  0  0  0  0  0  0  0  0  0
   -0.8217   -1.7246    0.0000 N   0  0  0  0  0  0  0  0  0  0  0  0
   -1.6467   -1.7246    0.0000 C   0  0  0  0  0  0  0  0  0  0  0  0
   -2.0592   -1.0102    0.0000 C   0  0  0  0  0  0  0  0  0  0  0  0
   -1.6467   -0.2957    0.0000 C   0  0  0  0  0  0  0  0  0  0  0  0
   -0.8217   -0.2957    0.0000 C   0  0  0  0  0  0  0  0  0  0  0  0
   -0.4092    0.4188    0.0000 C   0  0  0  0  0  0  0  0  0  0  0  0
  1  2  1  0
  2  3  2  0
  2  4  1  0
  4  5  1  0
  5  6  2  0
  5 18  1  0
  6  7  1  0
  6 11  1  0
  7  8  2  0
  8  9  1  0
  9 10  2  0
 10 11  1  0
 11 12  2  0
 12 13  1  0
 12 17  1  0
 13 14  2  0
 14 15  1  0
 15 16  2  0
 16 17  1  0
 17 18  2  0
M  END
>  <DRUGBANK_ID>  (1) 
DB08440

>  <COMMON_NAME>  (1) 
N-1,10-phenanthrolin-5-ylacetamide

$$$$
