
     RDKit          2D

 29 30  0  0  1  0  0  0  0  0999 V2000
   -0.2227    9.2161    0.0000 C   0  0  0  0  0  0  0  0  0  0  0  0
   -0.2227    8.3911    0.0000 C   0  0  0  0  0  0  0  0  0  0  0  0
   -0.9372    9.6286    0.0000 C   0  0  0  0  0  0  0  0  0  0  0  0
    0.4917    7.9786    0.0000 C   0  0  0  0  0  0  0  0  0  0  0  0
   -0.6861   15.8851    0.0000 C   0  0  0  0  0  0  0  0  0  0  0  0
   -1.4707   16.1400    0.0000 C   0  0  0  0  0  0  0  0  0  0  0  0
   -0.5146   15.0781    0.0000 C   0  0  0  0  0  0  0  0  0  0  0  0
   -1.6517    9.2161    0.0000 C   0  0  0  0  0  0  0  0  0  0  0  0
    1.2062    8.3911    0.0000 C   0  0  0  0  0  0  0  0  0  0  0  0
   -2.0108   11.8081    0.0000 C   0  0  0  0  0  0  0  0  0  0  0  0
   -1.8393   11.0011    0.0000 C   0  0  0  0  0  0  0  0  0  0  0  0
   -1.9123   14.7810    0.0000 C   0  0  0  0  0  0  0  0  0  0  0  0
   -3.6718    9.9061    0.0000 C   0  0  0  0  0  0  0  0  0  0  0  0
   -1.5692   13.1671    0.0000 C   0  0  0  0  0  0  0  0  0  0  0  0
   -2.0838   15.5880    0.0000 C   0  0  0  0  0  0  0  0  0  0  0  0
   -1.3977   12.3601    0.0000 C   0  0  0  0  0  0  0  0  0  0  0  0
   -1.1277   14.5261    0.0000 C   0  0  0  0  0  0  0  0  0  0  0  0
   -2.3661    9.6286    0.0000 C   0  0  0  0  0  0  0  0  0  0  0  0
   -2.4524   10.4491    0.0000 C   0  0  0  0  0  0  0  0  0  0  0  0
   -3.1198    9.2931    0.0000 C   0  0  0  0  0  0  0  0  0  0  0  0
   -3.2593   10.6206    0.0000 C   0  0  0  0  0  0  0  0  0  0  0  0
    1.9207    7.9786    0.0000 C   0  0  0  0  0  0  0  0  0  0  0  0
   -2.8684   15.8430    0.0000 Cl  0  0  0  0  0  0  0  0  0  0  0  0
   -0.6131   12.1052    0.0000 O   0  0  0  0  0  0  0  0  0  0  0  0
   -3.2913    8.4861    0.0000 O   0  0  0  0  0  0  0  0  0  0  0  0
   -3.5949   11.3743    0.0000 O   0  0  0  0  0  0  0  0  0  0  0  0
    2.6352    8.3911    0.0000 O   0  0  0  0  0  0  0  0  0  0  0  0
    1.9207    7.1536    0.0000 O   0  0  0  0  0  0  0  0  0  0  0  0
   -0.9561   13.7191    0.0000 O   0  0  0  0  0  0  0  0  0  0  0  0
  2  1  1  0
  3  1  2  0
  4  2  1  0
  6  5  2  0
  7  5  1  0
  8  3  1  0
  9  4  1  0
 11 10  2  0
 15  6  1  0
 15 12  2  0
 16 10  1  0
 16 14  1  0
 16 24  1  6
 17  7  2  0
 17 12  1  0
 18  8  1  1
 19 11  1  6
 19 18  1  0
 20 13  1  0
 20 18  1  0
 20 25  1  1
 21 13  1  0
 21 19  1  0
 21 26  1  1
 22  9  1  0
 23 15  1  0
 27 22  2  0
 28 22  1  0
 29 14  1  0
 29 17  1  0
M  END
>  <DRUGBANK_ID>  (1) 
DB11507

>  <COMMON_NAME>  (1) 
Cloprostenol

>  <CAS_NUMBER>  (1) 
54276-21-0

>  <UNII>  (1) 
4208238832

>  <SYNONYMS>  (1) 
Cloprostenol

$$$$
