
     RDKit          2D

  8  8  0  0  0  0  0  0  0  0999 V2000
   -0.3572   -0.8250    0.0000 C   0  0  0  0  0  0  0  0  0  0  0  0
    0.3572   -1.2374    0.0000 N   0  0  0  0  0  0  0  0  0  0  0  0
   -0.3572    0.0000    0.0000 N   0  0  0  0  0  0  0  0  0  0  0  0
    0.3572    0.4125    0.0000 C   0  0  0  0  0  0  0  0  0  0  0  0
    1.0717    0.0000    0.0000 C   0  0  0  0  0  0  0  0  0  0  0  0
    1.0717   -0.8250    0.0000 C   0  0  0  0  0  0  0  0  0  0  0  0
    0.3572    1.2374    0.0000 O   0  0  0  0  0  0  0  0  0  0  0  0
   -1.0716   -1.2374    0.0000 O   0  0  0  0  0  0  0  0  0  0  0  0
  1  3  1  0
  2  1  1  0
  4  3  1  0
  5  4  1  0
  6  5  1  0
  6  2  1  0
  7  4  2  0
  8  1  2  0
M  END
>  <DRUGBANK_ID>  (1) 
DB01849

>  <SECONDARY_ACCESSION_NUMBERS>  (1) 
EXPT01296

>  <COMMON_NAME>  (1) 
Dihydrouracil

>  <CAS_NUMBER>  (1) 
504-07-4

>  <UNII>  (1) 
016FR52RU5

>  <SYNONYMS>  (1) 
2,4-Dioxotetrahydropyrimidine; 5,6-Dihydro-2,4-dihydroxypyrimidine; 5,6-dihydrouracil; Dihydro-2,4(1H,3H)-pyrimidinedione; Dihydrouracile; Hydrouracil

$$$$
