RSS
     RDKit          2D

 32 34  0  0  0  0  0  0  0  0999 V2000
    1.0417   -1.7376    0.0000 C   0  0  0  0  0  0  0  0  0  0  0  0
    0.7816   -2.5205    0.0000 O   0  0  0  0  0  0  0  0  0  0  0  0
    1.8498   -1.5714    0.0000 O   0  0  0  0  0  0  0  0  0  0  0  0
    0.4142   -1.0313    0.0000 C   0  0  0  0  0  0  0  0  0  0  0  0
    0.8352   -0.2817    0.0000 C   0  0  0  0  0  0  0  0  0  0  0  0
    0.1366    0.1540    0.0000 C   0  0  0  0  0  0  0  0  0  0  0  0
   -0.1520    0.7954    0.0000 O   0  0  0  0  0  0  0  0  0  0  0  0
   -0.4477    0.7537    0.0000 N   0  0  0  0  0  0  0  0  0  0  0  0
   -1.0330    1.2703    0.0000 C   0  0  0  0  0  0  0  0  0  0  0  0
   -1.1242    2.0902    0.0000 C   0  0  0  0  0  0  0  0  0  0  0  0
   -1.7376    2.6584    0.0000 O   0  0  0  0  0  0  0  0  0  0  0  0
   -0.3726    2.4303    0.0000 N   0  0  0  0  0  0  0  0  0  0  0  0
    0.1831    1.8206    0.0000 C   0  0  0  0  0  0  0  0  0  0  0  0
    1.2881    1.8457    0.0000 C   0  0  0  0  0  0  0  0  0  0  0  0
    1.3980    1.0562    0.0000 C   0  0  0  0  0  0  0  0  0  0  0  0
    0.9360    0.2707    0.0000 C   0  0  0  0  0  0  0  0  0  0  0  0
    1.2761   -0.4810    0.0000 C   0  0  0  0  0  0  0  0  0  0  0  0
    0.7952   -1.1513    0.0000 C   0  0  0  0  0  0  0  0  0  0  0  0
   -0.0258   -1.0700    0.0000 N   0  0  0  0  0  0  0  0  0  0  0  0
    1.6856    0.1649    0.0000 C   0  0  0  0  0  0  0  0  0  0  0  0
    1.0466    0.7537    0.0000 C   0  0  0  0  0  0  0  0  0  0  0  0
    0.4477    1.2992    0.0000 C   0  0  0  0  0  0  0  0  0  0  0  0
    0.7068    1.5267    0.0000 C   0  0  0  0  0  0  0  0  0  0  0  0
   -1.5270    0.5146    0.0000 C   0  0  0  0  0  0  0  0  0  0  0  0
   -1.1869   -0.2371    0.0000 C   0  0  0  0  0  0  0  0  0  0  0  0
   -0.3659   -0.3184    0.0000 C   0  0  0  0  0  0  0  0  0  0  0  0
   -1.3606   -1.0780    0.0000 C   0  0  0  0  0  0  0  0  0  0  0  0
   -0.6903   -1.5589    0.0000 C   0  0  0  0  0  0  0  0  0  0  0  0
   -2.1123   -1.4181    0.0000 C   0  0  0  0  0  0  0  0  0  0  0  0
   -0.7716   -2.3799    0.0000 C   0  0  0  0  0  0  0  0  0  0  0  0
   -2.1936   -2.2391    0.0000 C   0  0  0  0  0  0  0  0  0  0  0  0
   -1.5232   -2.7200    0.0000 C   0  0  0  0  0  0  0  0  0  0  0  0
  1  2  2  0
  1  3  1  0
  1  4  1  0
  5  4  1  6
  5  6  1  0
  5 20  1  0
  6  7  2  0
  6  8  1  0
  9  8  1  1
  9 10  1  0
  9 24  1  0
 10 11  2  0
 10 12  1  0
 12 13  1  0
 13 14  1  0
 14 15  1  0
 15 16  1  0
 16 17  1  0
 17 18  1  0
 18 19  1  0
 19 26  1  0
 19 28  1  0
 20 21  1  0
 21 22  1  0
 21 23  1  0
 24 25  1  0
 25 26  2  0
 25 27  1  0
 27 28  2  0
 27 29  1  0
 28 30  1  0
 29 31  2  0
 30 32  2  0
 31 32  1  0
M  END
>  <DRUGBANK_ID>  (1) 
DB08493

>  <COMMON_NAME>  (1) 
5-METHYL-3-(9-OXO-1,8-DIAZA-TRICYCLO[10.6.1.013,18]NONADECA-12(19),13,15,17-TETRAEN-10-YLCARBAMOYL)-HEXANOIC ACID

$$$$
