
     RDKit          2D

 12 13  0  0  0  0  0  0  0  0999 V2000
    3.3523    1.1104    0.0000 C   0  0  0  0  0  0  0  0  0  0  0  0
    3.3523    1.9354    0.0000 C   0  0  0  0  0  0  0  0  0  0  0  0
    2.6378    0.6979    0.0000 C   0  0  0  0  0  0  0  0  0  0  0  0
    2.6378    2.3479    0.0000 C   0  0  0  0  0  0  0  0  0  0  0  0
    1.9233    1.1104    0.0000 C   0  0  0  0  0  0  0  0  0  0  0  0
    1.9233    1.9354    0.0000 C   0  0  0  0  0  0  0  0  0  0  0  0
    0.6538    1.5229    0.0000 C   0  0  0  0  0  0  0  0  0  0  0  0
   -0.1712    1.5229    0.0000 C   0  0  0  0  0  0  0  0  0  0  0  0
    1.1387    0.8555    0.0000 N   0  0  0  0  0  0  0  0  0  0  0  0
    1.1387    2.1904    0.0000 N   0  0  0  0  0  0  0  0  0  0  0  0
   -0.5837    0.8085    0.0000 O   0  0  0  0  0  0  0  0  0  0  0  0
   -0.5837    2.2374    0.0000 O   0  0  0  0  0  0  0  0  0  0  0  0
  2  1  2  0
  3  1  1  0
  4  2  1  0
  5  3  2  0
  6  4  2  0
  6  5  1  0
  8  7  1  0
  9  5  1  0
  9  7  1  0
 10  6  1  0
 10  7  2  0
 11  8  1  0
 12  8  2  0
M  END
>  <DRUGBANK_ID>  (1) 
DB03028

>  <SECONDARY_ACCESSION_NUMBERS>  (1) 
EXPT03110

>  <COMMON_NAME>  (1) 
1h-Benoximidazole-2-Carboxylic Acid

>  <UNII>  (1) 
C59S3E32RV

$$$$
