
     RDKit          2D

 25 29  0  0  0  0  0  0  0  0999 V2000
   -0.5123    1.0312    0.0000 C   0  0  0  0  0  0  0  0  0  0  0  0
   -1.2268    1.4437    0.0000 C   0  0  0  0  0  0  0  0  0  0  0  0
   -1.9414    1.0312    0.0000 C   0  0  0  0  0  0  0  0  0  0  0  0
   -1.9414    0.2062    0.0000 C   0  0  0  0  0  0  0  0  0  0  0  0
   -1.2268   -0.2062    0.0000 N   0  0  0  0  0  0  0  0  0  0  0  0
   -0.5124    0.2062    0.0000 C   0  0  0  0  0  0  0  0  0  0  0  0
    0.2721   -0.0487    0.0000 N   0  0  0  0  0  0  0  0  0  0  0  0
    0.7571    0.6187    0.0000 C   0  0  0  0  0  0  0  0  0  0  0  0
    0.2722    1.2861    0.0000 N   0  0  0  0  0  0  0  0  0  0  0  0
   -1.2268    2.2687    0.0000 O   0  0  0  0  0  0  0  0  0  0  0  0
   -2.6558   -0.2062    0.0000 O   0  0  0  0  0  0  0  0  0  0  0  0
   -2.6558    1.4437    0.0000 C   0  0  0  0  0  0  0  0  0  0  0  0
   -3.3703    1.0312    0.0000 C   0  0  0  0  0  0  0  0  0  0  0  0
   -4.0847    1.4437    0.0000 C   0  0  0  0  0  0  0  0  0  0  0  0
    1.5821    0.6186    0.0000 C   0  0  0  0  0  0  0  0  0  0  0  0
    2.2495    1.1036    0.0000 C   0  0  0  0  0  0  0  0  0  0  0  0
    1.8370   -0.1658    0.0000 C   0  0  0  0  0  0  0  0  0  0  0  0
    2.6620   -0.1658    0.0000 C   0  0  0  0  0  0  0  0  0  0  0  0
    2.9169    0.6186    0.0000 C   0  0  0  0  0  0  0  0  0  0  0  0
    2.7259   -0.8096    0.0000 C   0  0  0  0  0  0  0  0  0  0  0  0
    3.3093   -0.2262    0.0000 C   0  0  0  0  0  0  0  0  0  0  0  0
    3.5228   -1.0231    0.0000 O   0  0  0  0  0  0  0  0  0  0  0  0
   -1.2268   -1.0312    0.0000 C   0  0  0  0  0  0  0  0  0  0  0  0
   -0.5124   -1.4437    0.0000 C   0  0  0  0  0  0  0  0  0  0  0  0
   -0.5124   -2.2687    0.0000 C   0  0  0  0  0  0  0  0  0  0  0  0
  1  2  1  0
  1  6  2  0
  1  9  1  0
  2  3  1  0
  2 10  2  0
  3  4  1  0
  3 12  1  0
  4  5  1  0
  4 11  2  0
  5  6  1  0
  5 23  1  0
  6  7  1  0
  7  8  1  0
  8  9  2  0
 12 13  1  0
 13 14  1  0
 15  8  1  1
 15 17  1  0
 16 15  1  0
 19 16  1  6
 17 18  1  1
 17 20  1  0
 18 19  1  0
 20 22  1  1
 21 19  1  0
 21 20  1  0
 21 22  1  1
 23 24  1  0
 24 25  1  0
M  END
>  <DRUGBANK_ID>  (1) 
DB06471

>  <COMMON_NAME>  (1) 
Naxifylline

>  <CAS_NUMBER>  (1) 
166374-49-8

>  <UNII>  (1) 
B3G45WC37L

>  <SYNONYMS>  (1) 
8-((2S,5,6-exo)-5,6-epoxy-2-norbonyl)-1,3-dipropylxanthine; Naxifylline

$$$$
