
     RDKit          2D

 31 31  0  0  0  0  0  0  0  0999 V2000
    1.1192    0.0438    0.0000 S   0  0  0  0  0  0  0  0  0  0  0  0
    2.0166    1.9807    0.0000 O   0  0  0  0  0  0  0  0  0  0  0  0
    3.4687    1.7508    0.0000 O   0  0  0  0  0  0  0  0  0  0  0  0
    0.8204   -2.7984    0.0000 O   0  0  0  0  0  0  0  0  0  0  0  0
    0.0000   -2.7122    0.0000 O   0  0  0  0  0  0  0  0  0  0  0  0
   -3.7668   -3.0346    0.0000 O   0  0  0  0  0  0  0  0  0  0  0  0
   -2.6108   -3.8746    0.0000 O   0  0  0  0  0  0  0  0  0  0  0  0
    3.6174   -3.8108    0.0000 O   0  0  0  0  0  0  0  0  0  0  0  0
    3.7668   -2.3897    0.0000 O   0  0  0  0  0  0  0  0  0  0  0  0
    0.1493   -1.2911    0.0000 N   0  0  0  0  0  0  0  0  0  0  0  0
    2.1258   -2.2172    0.0000 N   0  0  0  0  0  0  0  0  0  0  0  0
   -2.7970   -1.6998    0.0000 N   0  0  0  0  0  0  0  0  0  0  0  0
    1.3492    1.4958    0.0000 C   0  0  0  0  0  0  0  0  0  0  0  0
    1.6041    0.7112    0.0000 C   0  0  0  0  0  0  0  0  0  0  0  0
    2.4291    0.7112    0.0000 C   0  0  0  0  0  0  0  0  0  0  0  0
    0.5645    1.7508    0.0000 C   0  0  0  0  0  0  0  0  0  0  0  0
    2.6840    1.4958    0.0000 C   0  0  0  0  0  0  0  0  0  0  0  0
    0.3930    2.5577    0.0000 C   0  0  0  0  0  0  0  0  0  0  0  0
   -0.3915    2.8126    0.0000 C   0  0  0  0  0  0  0  0  0  0  0  0
    1.4548   -0.7099    0.0000 C   0  0  0  0  0  0  0  0  0  0  0  0
    0.9698   -1.3773    0.0000 C   0  0  0  0  0  0  0  0  0  0  0  0
   -0.5630    3.6197    0.0000 C   0  0  0  0  0  0  0  0  0  0  0  0
    1.3054   -2.1309    0.0000 C   0  0  0  0  0  0  0  0  0  0  0  0
   -1.3477    3.8746    0.0000 C   0  0  0  0  0  0  0  0  0  0  0  0
   -0.3355   -1.9585    0.0000 C   0  0  0  0  0  0  0  0  0  0  0  0
   -1.1560   -1.8722    0.0000 C   0  0  0  0  0  0  0  0  0  0  0  0
   -1.6409   -2.5397    0.0000 C   0  0  0  0  0  0  0  0  0  0  0  0
   -2.4614   -2.4534    0.0000 C   0  0  0  0  0  0  0  0  0  0  0  0
    2.4614   -2.9709    0.0000 C   0  0  0  0  0  0  0  0  0  0  0  0
   -2.9464   -3.1209    0.0000 C   0  0  0  0  0  0  0  0  0  0  0  0
    3.2819   -3.0571    0.0000 C   0  0  0  0  0  0  0  0  0  0  0  0
 14  1  1  6
  1 20  1  0
  2 13  1  0
  2 17  1  0
  4 23  2  0
  5 25  2  0
  6 30  1  0
  7 30  2  0
  8 31  1  0
  9 31  2  0
 10 25  1  0
 11 23  1  0
 11 29  1  0
 13 14  1  0
 13 16  1  1
 14 15  1  0
 15 17  1  0
 16 18  1  0
 17  3  1  1
 18 19  1  0
 19 22  1  0
 21 20  1  1
 21 10  1  0
 21 23  1  0
 22 24  1  0
 25 26  1  0
 26 27  1  0
 27 28  1  0
 28 12  1  1
 28 30  1  0
 29 31  1  0
M  END
>  <DRUGBANK_ID>  (1) 
DB04521

>  <SECONDARY_ACCESSION_NUMBERS>  (1) 
EXPT01689

>  <COMMON_NAME>  (1) 
4-S-Glutathionyl-5-pentyl-tetrahydro-furan-2-ol

>  <SYNONYMS>  (1) 
GSHNA

$$$$
