
     RDKit          2D

 11 11  0  0  0  0  0  0  0  0999 V2000
    0.0000   -2.2687    0.0000 O   0  0  0  0  0  0  0  0  0  0  0  0
    0.0000   -1.4437    0.0000 Hg  0  0  0  0  0  2  0  0  0  0  0  0
    0.0000   -0.6187    0.0000 C   0  0  0  0  0  0  0  0  0  0  0  0
    0.7145   -0.2062    0.0000 C   0  0  0  0  0  0  0  0  0  0  0  0
    0.7145    0.6187    0.0000 C   0  0  0  0  0  0  0  0  0  0  0  0
    0.0000    1.0312    0.0000 C   0  0  0  0  0  0  0  0  0  0  0  0
   -0.7145    0.6187    0.0000 C   0  0  0  0  0  0  0  0  0  0  0  0
   -0.7145   -0.2062    0.0000 C   0  0  0  0  0  0  0  0  0  0  0  0
    0.0000    1.8562    0.0000 C   0  0  0  0  0  0  0  0  0  0  0  0
   -0.7145    2.2687    0.0000 O   0  0  0  0  0  0  0  0  0  0  0  0
    0.7145    2.2687    0.0000 O   0  0  0  0  0  0  0  0  0  0  0  0
  1  2  1  0
  2  3  1  0
  3  4  2  0
  3  8  1  0
  4  5  1  0
  5  6  2  0
  6  7  1  0
  6  9  1  0
  7  8  2  0
  9 10  2  0
  9 11  1  0
M  END
>  <DRUGBANK_ID>  (1) 
DB01671

>  <SECONDARY_ACCESSION_NUMBERS>  (1) 
EXPT01738

>  <COMMON_NAME>  (1) 
p-Hydroxymercuribenzoic acid

>  <CAS_NUMBER>  (1) 
1126-48-3

>  <UNII>  (1) 
848QN6RR3O

>  <SYNONYMS>  (1) 
(p-carboxyphenyl)hydroxymercury

$$$$
