ELI
     RDKit          2D

 21 22  0  0  0  0  0  0  0  0999 V2000
   -2.1169   -2.1212    0.0000 C   0  0  0  0  0  0  0  0  0  0  0  0
   -1.4024   -1.7087    0.0000 C   0  0  0  0  0  0  0  0  0  0  0  0
   -1.4024   -0.8837    0.0000 C   0  0  0  0  0  0  0  0  0  0  0  0
   -2.1169   -0.4712    0.0000 C   0  0  0  0  0  0  0  0  0  0  0  0
   -2.8314   -0.8837    0.0000 C   0  0  0  0  0  0  0  0  0  0  0  0
   -2.8314   -1.7087    0.0000 C   0  0  0  0  0  0  0  0  0  0  0  0
    0.0265   -0.8837    0.0000 O   0  0  0  0  0  0  0  0  0  0  0  0
   -0.6880   -0.4712    0.0000 C   0  0  0  0  0  0  0  0  0  0  0  0
   -2.1169    0.3538    0.0000 C   0  0  0  0  0  0  0  0  0  0  0  0
   -1.4024    0.7663    0.0000 C   0  0  0  0  0  0  0  0  0  0  0  0
   -0.6880    0.3538    0.0000 C   0  0  0  0  0  0  0  0  0  0  0  0
   -2.8314    0.7663    0.0000 O   0  0  0  0  0  0  0  0  0  0  0  0
   -1.4024    1.5913    0.0000 C   0  0  0  0  0  0  0  0  0  0  0  0
    0.0265    0.7663    0.0000 C   0  0  0  0  0  0  0  0  0  0  0  0
    0.7410    0.3538    0.0000 C   0  0  0  0  0  0  0  0  0  0  0  0
    1.4554    0.7663    0.0000 C   0  0  0  0  0  0  0  0  0  0  0  0
    2.1699    0.3538    0.0000 C   0  0  0  0  0  0  0  0  0  0  0  0
    2.8844    0.7663    0.0000 C   0  0  0  0  0  0  0  0  0  0  0  0
    3.5989    0.3538    0.0000 C   0  0  0  0  0  0  0  0  0  0  0  0
    4.3133    0.7663    0.0000 O   0  0  0  0  0  0  0  0  0  0  0  0
    3.5989   -0.4712    0.0000 O   0  0  0  0  0  0  0  0  0  0  0  0
  1  2  2  0
  1  6  1  0
  2  3  1  0
  3  4  2  0
  3  8  1  0
  4  5  1  0
  4  9  1  0
  5  6  2  0
  7  8  2  0
  8 11  1  0
  9 10  1  0
  9 12  2  0
 10 11  2  0
 10 13  1  0
 11 14  1  0
 14 15  1  0
 15 16  1  0
 16 17  1  0
 17 18  1  0
 18 19  1  0
 19 20  2  0
 19 21  1  0
M  END
>  <DRUGBANK_ID>  (1) 
DB07714

>  <COMMON_NAME>  (1) 
6-(3-METHYL-1,4-DIOXO-1,4-DIHYDRONAPHTHALEN-2-YL)HEXANOIC ACID

$$$$
