749
     RDKit          2D

 21 23  0  0  1  0  0  0  0  0999 V2000
    6.2901   -0.5042    0.0000 O   0  0  0  0  0  0  0  0  0  0  0  0
    7.7108    1.0020    0.0000 O   0  0  0  0  0  0  0  0  0  0  0  0
    7.2851   -0.3619    0.0000 O   0  0  0  0  0  0  0  0  0  0  0  0
    4.2053    0.4231    0.0000 N   0  0  0  0  0  0  0  0  0  0  0  0
    5.7102    0.1298    0.0000 C   0  0  0  0  0  0  0  0  0  0  0  0
    4.8726   -0.0618    0.0000 C   0  0  0  0  0  0  0  0  0  0  0  0
    4.6178   -0.8463    0.0000 C   0  0  0  0  0  0  0  0  0  0  0  0
    5.1828   -1.4936    0.0000 C   0  0  0  0  0  0  0  0  0  0  0  0
    5.5294    0.9346    0.0000 C   0  0  0  0  0  0  0  0  0  0  0  0
    6.3168    0.6888    0.0000 C   0  0  0  0  0  0  0  0  0  0  0  0
    3.7929   -0.8463    0.0000 C   0  0  0  0  0  0  0  0  0  0  0  0
    6.0246   -1.3214    0.0000 C   0  0  0  0  0  0  0  0  0  0  0  0
    3.5380   -0.0618    0.0000 C   0  0  0  0  0  0  0  0  0  0  0  0
    2.7004    0.1298    0.0000 C   0  0  0  0  0  0  0  0  0  0  0  0
    6.1360    1.4936    0.0000 C   0  0  0  0  0  0  0  0  0  0  0  0
    3.2278   -1.4936    0.0000 C   0  0  0  0  0  0  0  0  0  0  0  0
    7.1043    0.4429    0.0000 C   0  0  0  0  0  0  0  0  0  0  0  0
    2.4546    0.9172    0.0000 C   0  0  0  0  0  0  0  0  0  0  0  0
    2.1206   -0.5042    0.0000 C   0  0  0  0  0  0  0  0  0  0  0  0
    2.3860   -1.3214    0.0000 C   0  0  0  0  0  0  0  0  0  0  0  0
    1.6497    1.0980    0.0000 C   0  0  0  0  0  0  0  0  0  0  0  0
  1  5  1  0
  1 12  1  0
  2 17  1  0
  3 17  2  0
  4  6  1  0
  4 13  1  0
  5  6  1  0
  5  9  1  0
  5 10  1  0
  6  7  2  0
  7  8  1  0
  7 11  1  0
  8 12  1  0
  9 15  1  0
 10 17  1  0
 11 13  2  0
 11 16  1  0
 13 14  1  0
 14 18  1  0
 14 19  2  0
 16 20  2  0
 18 21  1  0
 19 20  1  0
M  END
>  <DRUGBANK_ID>  (1) 
DB00749

>  <SECONDARY_ACCESSION_NUMBERS>  (1) 
APRD00067

>  <COMMON_NAME>  (1) 
Etodolac

>  <CAS_NUMBER>  (1) 
41340-25-4

>  <UNII>  (1) 
2M36281008

>  <SYNONYMS>  (1) 
(±)-1,8-diethyl-1,3,4,9-tetrahydropyrano(3,4-b)indole-1-acetic acid; (1,8-Diethyl-1,3,4,9-tetrahydro-pyrano[3,4-b]indol-1-yl)-acetic acid; 1,3,4,9-tetrahydro-1,8-diethylpyrano(3,4-b)indole-1-acetic acid; 1,8-diethyl-1,3,4,9-tetrahydropyrano(3,4-b)indole-1-acetic acid; 1,8-diethyl-1,3,4,9-tetrahydropyrano[3,4-b]indol-1-ylacetic acid; Étodolac; Etodolac; Etodolaco; Etodolacum; Etodolic acid; Etodolsäure

$$$$
