
     RDKit          2D

 20 22  0  0  0  0  0  0  0  0999 V2000
   -0.5649    2.8029    0.0000 C   0  0  0  0  0  0  0  0  0  0  0  0
   -1.2795    2.3904    0.0000 N   0  0  0  0  0  0  0  0  0  0  0  0
   -1.2795    1.5653    0.0000 C   0  0  0  0  0  0  0  0  0  0  0  0
   -0.5649    1.1528    0.0000 N   0  0  0  0  0  0  0  0  0  0  0  0
    0.1495    1.5653    0.0000 C   0  0  0  0  0  0  0  0  0  0  0  0
    0.1495    2.3904    0.0000 C   0  0  0  0  0  0  0  0  0  0  0  0
    0.9342    1.3103    0.0000 N   0  0  0  0  0  0  0  0  0  0  0  0
    0.9342    2.6452    0.0000 N   0  0  0  0  0  0  0  0  0  0  0  0
    1.4191    1.9778    0.0000 C   0  0  0  0  0  0  0  0  0  0  0  0
   -1.9940    1.1528    0.0000 N   0  0  0  0  0  0  0  0  0  0  0  0
    1.1891    0.5256    0.0000 C   0  0  0  0  0  0  0  0  0  0  0  0
    0.6370   -0.0874    0.0000 C   0  0  0  0  0  0  0  0  0  0  0  0
    1.1450   -0.7377    0.0000 O   0  0  0  0  0  0  0  0  0  0  0  0
    0.8360   -1.5026    0.0000 C   0  0  0  0  0  0  0  0  0  0  0  0
    1.3439   -2.1528    0.0000 P   0  0  0  0  0  0  0  0  0  0  0  0
   -0.0626    0.3497    0.0000 C   0  0  0  0  0  0  0  0  0  0  0  0
   -0.0913   -0.4748    0.0000 C   0  0  0  0  0  0  0  0  0  0  0  0
    0.6938   -2.6606    0.0000 O   0  0  0  0  0  0  0  0  0  0  0  0
    1.8518   -2.8028    0.0000 O   0  0  0  0  0  0  0  0  0  0  0  0
    1.9940   -1.6448    0.0000 O   0  0  0  0  0  0  0  0  0  0  0  0
  1  2  2  0
  1  6  1  0
  2  3  1  0
  3  4  2  0
  3 10  1  0
  4  5  1  0
  5  6  2  0
  6  8  1  0
  7  5  1  0
  7  9  1  0
  7 11  1  0
  8  9  2  0
 11 12  1  0
 12 13  1  0
 12 17  1  0
 13 14  1  0
 14 15  1  0
 15 18  1  0
 15 19  1  0
 15 20  2  0
 16 12  1  0
 17 16  1  0
M  END
>  <DRUGBANK_ID>  (1) 
DB15671

>  <COMMON_NAME>  (1) 
Besifovir

>  <CAS_NUMBER>  (1) 
441785-25-7

>  <UNII>  (1) 
4PLG22CQUU

>  <SYNONYMS>  (1) 
Besifovir

$$$$
