
     RDKit          2D

 37 41  0  0  1  0  0  0  0  0999 V2000
    9.1524    2.5525    0.0000 C   0  0  0  0  0  0  0  0  0  0  0  0
    8.6004    1.9394    0.0000 C   0  0  0  0  0  0  0  0  0  0  0  0
    7.7934    2.1109    0.0000 C   0  0  0  0  0  0  0  0  0  0  0  0
    7.2413    1.4978    0.0000 O   0  0  0  0  0  0  0  0  0  0  0  0
    6.4344    1.6693    0.0000 C   0  0  0  0  0  0  0  0  0  0  0  0
    5.8823    1.0562    0.0000 C   0  0  0  0  0  0  0  0  0  0  0  0
    5.0754    1.2278    0.0000 C   0  0  0  0  0  0  0  0  0  0  0  0
    4.8204    2.0124    0.0000 C   0  0  0  0  0  0  0  0  0  0  0  0
    5.3725    2.6255    0.0000 C   0  0  0  0  0  0  0  0  0  0  0  0
    6.1794    2.4540    0.0000 C   0  0  0  0  0  0  0  0  0  0  0  0
    4.9600    3.3400    0.0000 C   0  0  0  0  0  0  0  0  0  0  0  0
    4.1530    3.1684    0.0000 C   0  0  0  0  0  0  0  0  0  0  0  0
    4.0668    2.3479    0.0000 C   0  0  0  0  0  0  0  0  0  0  0  0
    3.3523    1.9354    0.0000 C   0  0  0  0  0  0  0  0  0  0  0  0
    3.3523    1.1104    0.0000 C   0  0  0  0  0  0  0  0  0  0  0  0
    2.6378    0.6979    0.0000 C   0  0  0  0  0  0  0  0  0  0  0  0
    1.9233    1.1104    0.0000 C   0  0  0  0  0  0  0  0  0  0  0  0
    1.9233    1.9354    0.0000 C   0  0  0  0  0  0  0  0  0  0  0  0
    2.6378    2.3479    0.0000 C   0  0  0  0  0  0  0  0  0  0  0  0
    1.1387    2.1904    0.0000 O   0  0  0  0  0  0  0  0  0  0  0  0
    0.6538    1.5229    0.0000 C   0  0  0  0  0  0  0  0  0  0  0  0
    1.1387    0.8555    0.0000 O   0  0  0  0  0  0  0  0  0  0  0  0
    3.5399    3.7205    0.0000 C   0  0  0  0  0  0  0  0  0  0  0  0
    2.7553    3.4655    0.0000 O   0  0  0  0  0  0  0  0  0  0  0  0
    3.7114    4.5274    0.0000 O   0  0  0  0  0  0  0  0  0  0  0  0
    5.2955    4.0936    0.0000 C   0  0  0  0  0  0  0  0  0  0  0  0
    4.8106    4.7611    0.0000 C   0  0  0  0  0  0  0  0  0  0  0  0
    5.1462    5.5147    0.0000 C   0  0  0  0  0  0  0  0  0  0  0  0
    5.9666    5.6010    0.0000 C   0  0  0  0  0  0  0  0  0  0  0  0
    6.4516    4.9335    0.0000 C   0  0  0  0  0  0  0  0  0  0  0  0
    6.1160    4.1799    0.0000 C   0  0  0  0  0  0  0  0  0  0  0  0
    6.6009    3.5124    0.0000 O   0  0  0  0  0  0  0  0  0  0  0  0
    7.4214    3.5987    0.0000 C   0  0  0  0  0  0  0  0  0  0  0  0
    7.7570    4.3523    0.0000 C   0  0  0  0  0  0  0  0  0  0  0  0
    8.5774    4.4386    0.0000 O   0  0  0  0  0  0  0  0  0  0  0  0
    6.3022    6.3547    0.0000 O   0  0  0  0  0  0  0  0  0  0  0  0
    7.1227    6.4409    0.0000 C   0  0  0  0  0  0  0  0  0  0  0  0
  1  2  1  0
  2  3  1  0
  3  4  1  0
  4  5  1  0
  5  6  2  0
  5 10  1  0
  6  7  1  0
  7  8  2  0
  8  9  1  0
  8 13  1  0
  9 10  2  0
  9 11  1  0
 11 12  1  0
 11 26  1  6
 12 13  1  0
 12 23  1  1
 13 14  1  6
 14 15  2  0
 14 19  1  0
 15 16  1  0
 16 17  2  0
 17 18  1  0
 17 22  1  0
 18 19  2  0
 18 20  1  0
 20 21  1  0
 21 22  1  0
 23 24  2  0
 23 25  1  0
 26 27  2  0
 26 31  1  0
 27 28  1  0
 28 29  2  0
 29 30  1  0
 29 36  1  0
 30 31  2  0
 31 32  1  0
 32 33  1  0
 33 34  1  0
 34 35  1  0
 36 37  1  0
M  END
>  <DRUGBANK_ID>  (1) 
DB06460

>  <COMMON_NAME>  (1) 
Enrasentan

>  <CAS_NUMBER>  (1) 
167256-08-8

>  <UNII>  (1) 
QG16H8A6ZH

>  <SYNONYMS>  (1) 
Enrasentan

$$$$
