
     RDKit          2D

  8  7  0  0  0  0  0  0  0  0999 V2000
    1.7605    1.8414    0.0000 O   0  0  0  0  0  0  0  0  0  0  0  0
    2.4750    1.4289    0.0000 C   0  0  0  0  0  0  0  0  0  0  0  0
    3.1895    1.8414    0.0000 C   0  0  0  0  0  0  0  0  0  0  0  0
    3.9039    1.4289    0.0000 C   0  0  0  0  0  0  0  0  0  0  0  0
    4.6184    1.8414    0.0000 C   0  0  0  0  0  0  0  0  0  0  0  0
    5.3329    1.4289    0.0000 C   0  0  0  0  0  0  0  0  0  0  0  0
    6.0474    1.8414    0.0000 O   0  0  0  0  0  0  0  0  0  0  0  0
    5.3329    0.6039    0.0000 O   0  0  0  0  0  0  0  0  0  0  0  0
  1  2  1  0
  2  3  1  0
  3  4  1  0
  4  5  1  0
  5  6  1  0
  6  7  1  0
  6  8  2  0
M  END
>  <DRUGBANK_ID>  (1) 
DB04781

>  <COMMON_NAME>  (1) 
5-hydroxyvaleric acid

>  <CAS_NUMBER>  (1) 
13392-69-3

>  <UNII>  (1) 
H5EVV4LP59

>  <SYNONYMS>  (1) 
4-oxy-butan-carbonsäure; 5-hydroxy-pentansäure; 5-hydroxypentanoic acid; delta-hydroxypentanoic acid; delta-hydroxyvaleric acid

$$$$
