1434
     RDKit          2D

 20 23  0  0  1  0  0  0  0  0999 V2000
   14.7660   -9.2663    0.0000 C   0  0  0  0  0  0  0  0  0  0  0  0
   15.4807   -8.8579    0.0000 C   0  0  0  0  0  0  0  0  0  0  0  0
   14.7590  -10.0936    0.0000 C   0  0  0  0  0  0  0  0  0  0  0  0
   14.0583   -8.8543    0.0000 C   0  0  0  0  0  0  0  0  0  0  0  0
   14.7625   -8.4426    0.0000 C   0  0  0  0  0  0  0  0  0  0  0  0
   16.1954   -9.2734    0.0000 C   0  0  0  0  0  0  0  0  0  0  0  0
   14.0443  -10.5020    0.0000 C   0  0  0  0  0  0  0  0  0  0  0  0
   16.1884  -10.1006    0.0000 C   0  0  0  0  0  0  0  0  0  0  0  0
   13.3402   -9.2593    0.0000 C   0  0  0  0  0  0  0  0  0  0  0  0
   13.3331  -10.0831    0.0000 C   0  0  0  0  0  0  0  0  0  0  0  0
   14.0443  -11.3295    0.0000 C   0  0  0  0  0  0  0  0  0  0  0  0
   12.6183  -10.4915    0.0000 C   0  0  0  0  0  0  0  0  0  0  0  0
   13.3260  -11.7380    0.0000 C   0  0  0  0  0  0  0  0  0  0  0  0
   12.6149  -11.3224    0.0000 C   0  0  0  0  0  0  0  0  0  0  0  0
   11.9072  -10.0795    0.0000 C   0  0  0  0  0  0  0  0  0  0  0  0
   11.9072  -11.7344    0.0000 C   0  0  0  0  0  0  0  0  0  0  0  0
   11.1924  -10.4915    0.0000 C   0  0  0  0  0  0  0  0  0  0  0  0
   11.1924  -11.3224    0.0000 C   0  0  0  0  0  0  0  0  0  0  0  0
   10.4743  -11.7309    0.0000 O   0  0  0  0  0  0  0  0  0  0  0  0
   15.4837   -8.0024    0.0000 O   0  0  0  0  0  0  0  0  0  0  0  0
  1  2  1  0
  1  3  1  0
  1  4  1  0
  1  5  1  1
  2  6  1  0
  2 20  2  0
  3  7  1  0
  3  8  1  1
  4  9  1  0
  6  8  1  0
  7 10  1  0
  7 11  1  6
 10  9  1  1
 10 12  1  0
 11 13  1  0
 12 14  1  0
 12 15  1  6
 13 14  1  0
 14 16  2  0
 15 17  1  0
 16 18  1  0
 17 18  1  0
 18 19  2  0
M  END
>  <DRUGBANK_ID>  (1) 
DB01434

>  <COMMON_NAME>  (1) 
19-norandrostenedione

>  <CAS_NUMBER>  (1) 
734-32-7

>  <UNII>  (1) 
U90987PVU5

>  <SYNONYMS>  (1) 
delta,4-Estrene-3,17-dione; delta4-Estrene-3,17-dione

$$$$
