
     RDKit          2D

 31 32  0  0  0  0  0  0  0  0999 V2000
   -4.1250    2.3649    0.0000 O   0  0  0  0  0  0  0  0  0  0  0  0
   -2.8875    3.0793    0.0000 O   0  0  0  0  0  0  0  0  0  0  0  0
   -2.0625    0.2214    0.0000 O   0  0  0  0  0  0  0  0  0  0  0  0
   -5.3625    0.2214    0.0000 O   0  0  0  0  0  0  0  0  0  0  0  0
   -4.1250   -0.4929    0.0000 O   0  0  0  0  0  0  0  0  0  0  0  0
    1.6500   -0.4929    0.0000 O   0  0  0  0  0  0  0  0  0  0  0  0
    5.3625   -1.2075    0.0000 O   0  0  0  0  0  0  0  0  0  0  0  0
   -2.0625    1.6503    0.0000 N   0  0  0  0  0  0  0  0  0  0  0  0
    1.6500    0.9359    0.0000 N   0  0  0  0  0  0  0  0  0  0  0  0
    2.8875    0.2214    0.0000 N   0  0  0  0  0  0  0  0  0  0  0  0
    2.8875   -1.2075    0.0000 N   0  0  0  0  0  0  0  0  0  0  0  0
    4.1250   -1.9219    0.0000 N   0  0  0  0  0  0  0  0  0  0  0  0
    4.5375    0.2214    0.0000 N   0  0  0  0  0  0  0  0  0  0  0  0
    2.8875   -2.6364    0.0000 N   0  0  0  0  0  0  0  0  0  0  0  0
   -2.8875    1.6503    0.0000 C   0  0  0  0  0  0  0  0  0  0  0  0
   -3.3000    0.9359    0.0000 C   0  0  0  0  0  0  0  0  0  0  0  0
   -4.1250    0.9359    0.0000 C   0  0  0  0  0  0  0  0  0  0  0  0
   -3.3000    2.3649    0.0000 C   0  0  0  0  0  0  0  0  0  0  0  0
   -1.6500    0.9359    0.0000 C   0  0  0  0  0  0  0  0  0  0  0  0
   -0.8250    0.9359    0.0000 C   0  0  0  0  0  0  0  0  0  0  0  0
   -4.5375    0.2214    0.0000 C   0  0  0  0  0  0  0  0  0  0  0  0
   -0.4125    1.6503    0.0000 C   0  0  0  0  0  0  0  0  0  0  0  0
   -0.4125    0.2214    0.0000 C   0  0  0  0  0  0  0  0  0  0  0  0
    0.8250    0.9359    0.0000 C   0  0  0  0  0  0  0  0  0  0  0  0
    0.4125    1.6503    0.0000 C   0  0  0  0  0  0  0  0  0  0  0  0
    0.4125    0.2214    0.0000 C   0  0  0  0  0  0  0  0  0  0  0  0
    3.3000   -0.4929    0.0000 C   0  0  0  0  0  0  0  0  0  0  0  0
    2.0625    0.2214    0.0000 C   0  0  0  0  0  0  0  0  0  0  0  0
    4.1250   -0.4929    0.0000 C   0  0  0  0  0  0  0  0  0  0  0  0
    3.3000   -1.9219    0.0000 C   0  0  0  0  0  0  0  0  0  0  0  0
    4.5375   -1.2075    0.0000 C   0  0  0  0  0  0  0  0  0  0  0  0
  1 18  1  0
  2 18  2  0
  3 19  2  0
  4 21  1  0
  5 21  2  0
  6 28  2  0
  7 31  2  0
  8 19  1  0
  9 24  1  0
  9 28  1  0
 10 27  1  0
 10 28  1  0
 11 27  1  0
 11 30  1  0
 12 30  2  0
 12 31  1  0
 13 29  1  0
 14 30  1  0
 15  8  1  0
 15 16  1  1
 15 18  1  0
 16 17  1  0
 17 21  1  0
 19 20  1  0
 20 22  2  0
 20 23  1  0
 22 25  1  0
 23 26  2  0
 24 25  2  0
 24 26  1  0
 27 29  2  0
 29 31  1  0
M  END
>  <DRUGBANK_ID>  (1) 
DB02358

>  <SECONDARY_ACCESSION_NUMBERS>  (1) 
EXPT01992

>  <COMMON_NAME>  (1) 
LY374571

$$$$
