
     RDKit          2D

 30 33  0  0  0  0  0  0  0  0999 V2000
    1.7713   -3.4198    0.0000 N   0  0  0  0  0  0  0  0  0  0  0  0
    2.5783   -3.5914    0.0000 C   0  0  0  0  0  0  0  0  0  0  0  0
    2.8332   -4.3760    0.0000 C   0  0  0  0  0  0  0  0  0  0  0  0
    3.6401   -4.5475    0.0000 O   0  0  0  0  0  0  0  0  0  0  0  0
    1.5164   -2.6352    0.0000 C   0  0  0  0  0  0  0  0  0  0  0  0
    0.7318   -2.3803    0.0000 C   0  0  0  0  0  0  0  0  0  0  0  0
    0.7318   -1.5553    0.0000 C   0  0  0  0  0  0  0  0  0  0  0  0
    1.5164   -1.3004    0.0000 C   0  0  0  0  0  0  0  0  0  0  0  0
    2.0013   -1.9678    0.0000 C   0  0  0  0  0  0  0  0  0  0  0  0
    0.0173   -1.1428    0.0000 C   0  0  0  0  0  0  0  0  0  0  0  0
   -0.6970   -1.5553    0.0000 C   0  0  0  0  0  0  0  0  0  0  0  0
   -0.6970   -2.3803    0.0000 C   0  0  0  0  0  0  0  0  0  0  0  0
    0.0173   -2.7928    0.0000 C   0  0  0  0  0  0  0  0  0  0  0  0
    0.0173   -0.3178    0.0000 C   0  0  0  0  0  0  0  0  0  0  0  0
   -0.6500    0.1670    0.0000 N   0  0  0  0  0  0  0  0  0  0  0  0
   -0.3951    0.9516    0.0000 C   0  0  0  0  0  0  0  0  0  0  0  0
    0.4298    0.9516    0.0000 O   0  0  0  0  0  0  0  0  0  0  0  0
    0.6848    0.1670    0.0000 N   0  0  0  0  0  0  0  0  0  0  0  0
   -0.8800    1.6191    0.0000 C   0  0  0  0  0  0  0  0  0  0  0  0
   -0.5445    2.3727    0.0000 C   0  0  0  0  0  0  0  0  0  0  0  0
   -1.0294    3.0401    0.0000 C   0  0  0  0  0  0  0  0  0  0  0  0
   -0.6938    3.7938    0.0000 C   0  0  0  0  0  0  0  0  0  0  0  0
   -0.3583    4.5475    0.0000 N   0  0  0  0  0  0  0  0  0  0  0  0
   -1.8498    2.9539    0.0000 C   0  0  0  0  0  0  0  0  0  0  0  0
   -2.1854    2.2003    0.0000 C   0  0  0  0  0  0  0  0  0  0  0  0
   -1.7005    1.5328    0.0000 C   0  0  0  0  0  0  0  0  0  0  0  0
   -2.3347    3.6213    0.0000 O   0  0  0  0  0  0  0  0  0  0  0  0
   -3.1552    3.5351    0.0000 C   0  0  0  0  0  0  0  0  0  0  0  0
   -3.6401    4.2025    0.0000 C   0  0  0  0  0  0  0  0  0  0  0  0
   -3.4908    2.7814    0.0000 C   0  0  0  0  0  0  0  0  0  0  0  0
  1  2  1  0
  2  3  1  0
  3  4  1  0
  5  1  1  6
  5  6  1  0
  5  9  1  0
  6  7  2  0
  6 13  1  0
  7  8  1  0
  7 10  1  0
  9  8  1  0
 10 11  2  0
 10 14  1  0
 12 11  1  0
 13 12  2  0
 14 15  1  0
 14 18  2  0
 15 16  2  0
 16 17  1  0
 16 19  1  0
 18 17  1  0
 19 20  2  0
 19 26  1  0
 20 21  1  0
 21 22  1  0
 21 24  2  0
 22 23  3  0
 24 27  1  0
 25 24  1  0
 26 25  2  0
 27 28  1  0
 28 29  1  0
 28 30  1  0
M  END
>  <DRUGBANK_ID>  (1) 
DB12612

>  <COMMON_NAME>  (1) 
Ozanimod

>  <CAS_NUMBER>  (1) 
1306760-87-1

>  <UNII>  (1) 
Z80293URPV

>  <SYNONYMS>  (1) 
Ozanimod; Ozanimodum

$$$$
