
     RDKit          2D

 30 32  0  0  1  0  0  0  0  0999 V2000
   -1.4201   -1.2055    0.0000 C   0  0  0  0  0  0  0  0  0  0  0  0
   -1.4201   -0.3805    0.0000 C   0  0  0  0  0  0  0  0  0  0  0  0
   -0.7056    0.0320    0.0000 C   0  0  0  0  0  0  0  0  0  0  0  0
    0.0089   -0.3805    0.0000 C   0  0  0  0  0  0  0  0  0  0  0  0
    0.7233    0.0320    0.0000 C   0  0  0  0  0  0  0  0  0  0  0  0
    1.4378   -0.3805    0.0000 C   0  0  0  0  0  0  0  0  0  0  0  0
    2.1523    0.0320    0.0000 C   0  0  0  0  0  0  0  0  0  0  0  0
    1.4378   -1.2055    0.0000 C   0  0  0  0  0  0  0  0  0  0  0  0
    0.7233    0.8570    0.0000 O   0  0  0  0  0  0  0  0  0  0  0  0
   -2.1345    0.0320    0.0000 C   0  0  0  0  0  0  0  0  0  0  0  0
   -2.2208    0.8525    0.0000 C   0  0  0  0  0  0  0  0  0  0  0  0
   -3.0277    1.0240    0.0000 C   0  0  0  0  0  0  0  0  0  0  0  0
   -3.4402    0.3095    0.0000 C   0  0  0  0  0  0  0  0  0  0  0  0
   -2.8882   -0.3036    0.0000 C   0  0  0  0  0  0  0  0  0  0  0  0
   -3.1432   -1.0882    0.0000 C   0  0  0  0  0  0  0  0  0  0  0  0
   -3.9501   -1.2597    0.0000 C   0  0  0  0  0  0  0  0  0  0  0  0
   -4.5022   -0.6466    0.0000 C   0  0  0  0  0  0  0  0  0  0  0  0
   -4.2472    0.1380    0.0000 C   0  0  0  0  0  0  0  0  0  0  0  0
   -4.7992    0.7511    0.0000 C   0  0  0  0  0  0  0  0  0  0  0  0
   -5.6062    0.5796    0.0000 C   0  0  0  0  0  0  0  0  0  0  0  0
   -6.1583    1.1927    0.0000 C   0  0  0  0  0  0  0  0  0  0  0  0
   -6.9652    1.0211    0.0000 C   0  0  0  0  0  0  0  0  0  0  0  0
   -7.5173    1.6342    0.0000 C   0  0  0  0  0  0  0  0  0  0  0  0
   -7.2623    2.4189    0.0000 C   0  0  0  0  0  0  0  0  0  0  0  0
   -6.4553    2.5904    0.0000 C   0  0  0  0  0  0  0  0  0  0  0  0
   -5.9033    1.9773    0.0000 C   0  0  0  0  0  0  0  0  0  0  0  0
   -5.0963    2.1488    0.0000 C   0  0  0  0  0  0  0  0  0  0  0  0
   -6.2004    3.3750    0.0000 O   0  0  0  0  0  0  0  0  0  0  0  0
   -8.3242    1.4627    0.0000 O   0  0  0  0  0  0  0  0  0  0  0  0
   -2.2751   -0.8556    0.0000 C   0  0  0  0  0  0  0  0  0  0  0  0
  2  1  1  1
  2  3  1  0
  3  4  1  0
  4  5  1  0
  5  6  1  0
  5  9  1  1
  6  7  1  0
  6  8  1  0
 10  2  1  0
 10 11  1  6
 10 14  1  0
 11 12  1  0
 13 12  1  6
 13 14  1  0
 13 18  1  0
 14 15  1  0
 14 30  1  6
 15 16  1  0
 16 17  1  0
 17 18  1  0
 18 19  2  0
 19 20  1  0
 20 21  2  0
 21 22  1  0
 21 26  1  0
 22 23  1  0
 23 24  1  0
 23 29  1  1
 24 25  1  0
 25 26  1  0
 25 28  1  6
 26 27  2  0
M  END
>  <DRUGBANK_ID>  (1) 
DB13689

>  <COMMON_NAME>  (1) 
Tacalcitol

>  <CAS_NUMBER>  (1) 
57333-96-7

>  <UNII>  (1) 
C2W72OJ5ZU

>  <SYNONYMS>  (1) 
Tacalcitol

$$$$
