
     RDKit          2D

  4  3  0  0  0  0  0  0  0  0999 V2000
    1.2375    0.7145    0.0000 Br  0  0  0  0  0  0  0  0  0  0  0  0
    0.8250    0.0000    0.0000 C   0  0  0  0  0  0  0  0  0  0  0  0
    1.2375   -0.7145    0.0000 Br  0  0  0  0  0  0  0  0  0  0  0  0
    0.0000    0.0000    0.0000 Br  0  0  0  0  0  0  0  0  0  0  0  0
  1  2  1  0
  2  3  1  0
  2  4  1  0
M  END
>  <DRUGBANK_ID>  (1) 
DB03054

>  <SECONDARY_ACCESSION_NUMBERS>  (1) 
EXPT02127

>  <COMMON_NAME>  (1) 
Bromoform

>  <CAS_NUMBER>  (1) 
75-25-2

>  <UNII>  (1) 
TUT9J99IMU

>  <SYNONYMS>  (1) 
Tribrommethan; Tribromomethane

$$$$
