M04
     RDKit          2D

 25 28  0  0  0  0  0  0  0  0999 V2000
    5.0181    4.1572    0.0000 N   0  0  0  0  0  0  0  0  0  0  0  0
    4.3036    4.5697    0.0000 C   0  0  0  0  0  0  0  0  0  0  0  0
    4.3036    5.3947    0.0000 C   0  0  0  0  0  0  0  0  0  0  0  0
    4.4878    6.4392    0.0000 C   0  0  0  0  0  0  0  0  0  0  0  0
    3.6753    6.2959    0.0000 N   0  0  0  0  0  0  0  0  0  0  0  0
    5.7325    5.3947    0.0000 C   0  0  0  0  0  0  0  0  0  0  0  0
    5.7325    4.5697    0.0000 C   0  0  0  0  0  0  0  0  0  0  0  0
    5.2662    7.2144    0.0000 C   0  0  0  0  0  0  0  0  0  0  0  0
    4.4537    7.3577    0.0000 C   0  0  0  0  0  0  0  0  0  0  0  0
    4.1716    8.1329    0.0000 C   0  0  0  0  0  0  0  0  0  0  0  0
    4.7019    8.7649    0.0000 C   0  0  0  0  0  0  0  0  0  0  0  0
    4.4197    9.5401    0.0000 Cl  0  0  0  0  0  0  0  0  0  0  0  0
    5.5143    8.6216    0.0000 C   0  0  0  0  0  0  0  0  0  0  0  0
    5.7965    7.8464    0.0000 C   0  0  0  0  0  0  0  0  0  0  0  0
    5.0181    3.3322    0.0000 C   0  0  0  0  0  0  0  0  0  0  0  0
    5.7325    2.9197    0.0000 N   0  0  0  0  0  0  0  0  0  0  0  0
    5.5484    6.4392    0.0000 C   0  0  0  0  0  0  0  0  0  0  0  0
    5.7325    2.0947    0.0000 C   0  0  0  0  0  0  0  0  0  0  0  0
    5.0181    1.6822    0.0000 N   0  0  0  0  0  0  0  0  0  0  0  0
    4.3036    2.0947    0.0000 C   0  0  0  0  0  0  0  0  0  0  0  0
    3.5190    1.8397    0.0000 N   0  0  0  0  0  0  0  0  0  0  0  0
    3.0340    2.5072    0.0000 C   0  0  0  0  0  0  0  0  0  0  0  0
    3.5190    3.1746    0.0000 C   0  0  0  0  0  0  0  0  0  0  0  0
    4.3036    2.9197    0.0000 C   0  0  0  0  0  0  0  0  0  0  0  0
    5.0181    5.8072    0.0000 C   0  0  0  0  0  0  0  0  0  0  0  0
  1  2  1  0
  1  7  1  0
  1 15  1  0
  2  3  1  0
  3 25  1  0
  4  5  1  0
  4 25  1  0
  6  7  1  0
  6 25  1  0
  8  9  2  0
  8 14  1  0
  8 17  1  0
  9 10  1  0
 10 11  2  0
 11 12  1  0
 11 13  1  0
 13 14  2  0
 15 16  2  0
 15 24  1  0
 16 18  1  0
 17 25  1  0
 18 19  2  0
 19 20  1  0
 20 21  1  0
 20 24  2  0
 21 22  1  0
 22 23  2  0
 23 24  1  0
M  END
>  <DRUGBANK_ID>  (1) 
DB08149

>  <COMMON_NAME>  (1) 
1-[4-(4-chlorobenzyl)-1-(7H-pyrrolo[2,3-d]pyrimidin-4-yl)piperidin-4-yl]methanamine

>  <UNII>  (1) 
WA4499B7GU

$$$$
