
     RDKit          2D

 22 25  0  0  1  0  0  0  0  0999 V2000
    3.9282    5.6792    0.0000 C   0  0  0  0  0  0  0  0  0  0  0  0
    1.7145    2.0299    0.0000 C   0  0  0  0  0  0  0  0  0  0  0  0
    2.4703    1.6992    0.0000 C   0  0  0  0  0  0  0  0  0  0  0  0
    1.6230    2.8498    0.0000 C   0  0  0  0  0  0  0  0  0  0  0  0
    3.1346    2.1884    0.0000 C   0  0  0  0  0  0  0  0  0  0  0  0
    2.1958    4.1589    0.0000 C   0  0  0  0  0  0  0  0  0  0  0  0
    2.8601    4.6481    0.0000 C   0  0  0  0  0  0  0  0  0  0  0  0
    5.4578    4.1080    0.0000 C   0  0  0  0  0  0  0  0  0  0  0  0
    5.0196    4.8070    0.0000 C   0  0  0  0  0  0  0  0  0  0  0  0
    5.8093    2.7908    0.0000 C   0  0  0  0  0  0  0  0  0  0  0  0
    4.2513    2.2474    0.0000 C   0  0  0  0  0  0  0  0  0  0  0  0
    2.2873    3.3390    0.0000 C   0  0  0  0  0  0  0  0  0  0  0  0
    5.1845    3.3296    0.0000 C   0  0  0  0  0  0  0  0  0  0  0  0
    3.0431    3.0083    0.0000 C   0  0  0  0  0  0  0  0  0  0  0  0
    4.4055    3.0579    0.0000 C   0  0  0  0  0  0  0  0  0  0  0  0
    5.6550    1.9803    0.0000 C   0  0  0  0  0  0  0  0  0  0  0  0
    3.6159    4.3174    0.0000 C   0  0  0  0  0  0  0  0  0  0  0  0
    4.8761    1.7086    0.0000 C   0  0  0  0  0  0  0  0  0  0  0  0
    3.7074    3.4975    0.0000 C   0  0  0  0  0  0  0  0  0  0  0  0
    6.2798    1.4415    0.0000 Cl  0  0  0  0  0  0  0  0  0  0  0  0
    4.1998    4.9002    0.0000 N   0  0  0  0  0  0  0  0  0  0  0  0
    4.7218    0.8982    0.0000 O   0  0  0  0  0  0  0  0  0  0  0  0
  3  2  2  0
  4  2  1  0
  5  3  1  0
  7  6  1  0
  9  8  1  0
 12  4  2  0
 12  6  1  0
 13  8  1  0
 13 10  2  0
 14  5  2  0
 14 12  1  0
 15 11  2  0
 15 13  1  0
 16 10  1  0
 17  7  1  6
 18 11  1  0
 18 16  2  0
 19 14  1  1
 19 15  1  0
 19 17  1  0
 20 16  1  0
 21  1  1  0
 21  9  1  0
 21 17  1  0
 22 18  1  0
M  END
>  <DRUGBANK_ID>  (1) 
DB12273

>  <COMMON_NAME>  (1) 
Ecopipam

>  <CAS_NUMBER>  (1) 
112108-01-7

>  <UNII>  (1) 
0X748O646K

>  <SYNONYMS>  (1) 
Ecopipam

$$$$
