5F1
     RDKit          2D

 18 20  0  0  0  0  0  0  0  0999 V2000
   -1.2384    0.4082    0.0000 C   0  0  0  0  0  0  0  0  0  0  0  0
   -1.2384    1.2332    0.0000 C   0  0  0  0  0  0  0  0  0  0  0  0
   -1.9058    1.7181    0.0000 O   0  0  0  0  0  0  0  0  0  0  0  0
   -0.4538    1.4881    0.0000 C   0  0  0  0  0  0  0  0  0  0  0  0
   -0.1988    2.2727    0.0000 C   0  0  0  0  0  0  0  0  0  0  0  0
   -0.7509    2.8858    0.0000 F   0  0  0  0  0  0  0  0  0  0  0  0
    0.0312    0.8207    0.0000 O   0  0  0  0  0  0  0  0  0  0  0  0
   -0.4538    0.1532    0.0000 C   0  0  0  0  0  0  0  0  0  0  0  0
   -0.1988   -0.6314    0.0000 N   0  0  0  0  0  0  0  0  0  0  0  0
   -0.6837   -1.2988    0.0000 C   0  0  0  0  0  0  0  0  0  0  0  0
   -0.1988   -1.9663    0.0000 N   0  0  0  0  0  0  0  0  0  0  0  0
    0.5858   -1.7113    0.0000 C   0  0  0  0  0  0  0  0  0  0  0  0
    0.5858   -0.8863    0.0000 C   0  0  0  0  0  0  0  0  0  0  0  0
    1.3003   -0.4738    0.0000 N   0  0  0  0  0  0  0  0  0  0  0  0
    2.0147   -0.8863    0.0000 C   0  0  0  0  0  0  0  0  0  0  0  0
    2.0147   -1.7113    0.0000 N   0  0  0  0  0  0  0  0  0  0  0  0
    1.3003   -2.1238    0.0000 C   0  0  0  0  0  0  0  0  0  0  0  0
    1.3003   -2.9488    0.0000 N   0  0  0  0  0  0  0  0  0  0  0  0
  1  2  1  0
  1  8  1  0
  2  3  1  6
  2  4  1  0
  4  5  1  1
  4  7  1  0
  5  6  1  0
  7  8  1  0
  8  9  1  1
  9 10  1  0
  9 13  1  0
 10 11  2  0
 11 12  1  0
 12 13  2  0
 12 17  1  0
 13 14  1  0
 14 15  2  0
 15 16  1  0
 16 17  2  0
 17 18  1  0
M  END
>  <DRUGBANK_ID>  (1) 
DB07170

>  <COMMON_NAME>  (1) 
5'-FLUORO-2',5'-DIDEOXYADENOSINE

$$$$
