
     RDKit          2D

 23 26  0  0  0  0  0  0  0  0999 V2000
    3.1682    0.3608    0.0000 S   0  0  0  0  0  0  0  0  0  0  0  0
    2.5016    0.8470    0.0000 P   0  0  0  0  0  0  0  0  0  0  0  0
   -0.0301    0.8514    0.0000 O   0  0  0  0  0  0  0  0  0  0  0  0
    2.0189    0.1838    0.0000 O   0  0  0  0  0  0  0  0  0  0  0  0
    2.0212    1.5117    0.0000 O   0  0  0  0  0  0  0  0  0  0  0  0
    3.1698    1.3307    0.0000 O   0  0  0  0  0  0  0  0  0  0  0  0
    0.7553    2.9152    0.0000 O   0  0  0  0  0  0  0  0  0  0  0  0
   -1.2978   -2.9152    0.0000 O   0  0  0  0  0  0  0  0  0  0  0  0
    0.1972   -0.6011    0.0000 N   0  0  0  0  0  0  0  0  0  0  0  0
   -1.2978   -0.4400    0.0000 N   0  0  0  0  0  0  0  0  0  0  0  0
    0.1972   -1.9290    0.0000 N   0  0  0  0  0  0  0  0  0  0  0  0
   -2.0123   -1.6776    0.0000 N   0  0  0  0  0  0  0  0  0  0  0  0
   -2.7269   -0.4400    0.0000 N   0  0  0  0  0  0  0  0  0  0  0  0
    1.2387    0.4365    0.0000 C   0  0  0  0  0  0  0  0  0  0  0  0
    1.2401    1.2616    0.0000 C   0  0  0  0  0  0  0  0  0  0  0  0
    0.4535    0.1829    0.0000 C   0  0  0  0  0  0  0  0  0  0  0  0
    0.4558    1.5180    0.0000 C   0  0  0  0  0  0  0  0  0  0  0  0
    0.2022    2.3030    0.0000 C   0  0  0  0  0  0  0  0  0  0  0  0
   -0.5833   -0.8526    0.0000 C   0  0  0  0  0  0  0  0  0  0  0  0
    0.6787   -1.2651    0.0000 C   0  0  0  0  0  0  0  0  0  0  0  0
   -0.5833   -1.6776    0.0000 C   0  0  0  0  0  0  0  0  0  0  0  0
   -1.2978   -2.0901    0.0000 C   0  0  0  0  0  0  0  0  0  0  0  0
   -2.0123   -0.8526    0.0000 C   0  0  0  0  0  0  0  0  0  0  0  0
  2  1  2  0
  2  4  1  0
  2  5  1  0
  2  6  1  0
  3 16  1  0
  3 17  1  0
 14  4  1  1
 15  5  1  1
  7 18  1  0
  8 22  2  0
  9 19  1  0
  9 20  1  0
 10 19  1  0
 10 23  1  0
 11 20  2  0
 11 21  1  0
 12 22  1  0
 12 23  2  0
 13 23  1  0
 14 15  1  0
 14 16  1  0
 15 17  1  0
 16  9  1  6
 17 18  1  6
 19 21  2  0
 21 22  1  0
M  END
>  <DRUGBANK_ID>  (1) 
DB03178

>  <SECONDARY_ACCESSION_NUMBERS>  (1) 
EXPT02899

>  <COMMON_NAME>  (1) 
Guanosine-2',3'-cyclophosphorothioate

>  <CAS_NUMBER>  (1) 
38557-85-6

$$$$
