
     RDKit          2D

 28 29  0  0  0  0  0  0  0  0999 V2000
   -1.2546    1.5523    0.0000 C   0  0  0  0  0  0  0  0  0  0  0  0
   -0.1769    0.7721    0.0000 C   0  0  0  0  0  0  0  0  0  0  0  0
    0.0803    1.5523    0.0000 C   0  0  0  0  0  0  0  0  0  0  0  0
   -0.5872    2.0428    0.0000 N   0  0  0  0  0  0  0  0  0  0  0  0
   -1.0053    0.7721    0.0000 N   0  0  0  0  0  0  0  0  0  0  0  0
   -1.4879    0.1045    0.0000 C   0  0  0  0  0  0  0  0  0  0  0  0
   -2.3083    0.1850    0.0000 C   0  0  0  0  0  0  0  0  0  0  0  0
   -3.5790    0.8445    0.0000 C   0  0  0  0  0  0  0  0  0  0  0  0
   -3.9571    0.1126    0.0000 C   0  0  0  0  0  0  0  0  0  0  0  0
   -3.5148   -0.5791    0.0000 C   0  0  0  0  0  0  0  0  0  0  0  0
   -2.6943   -0.5469    0.0000 C   0  0  0  0  0  0  0  0  0  0  0  0
   -2.7507    0.8847    0.0000 C   0  0  0  0  0  0  0  0  0  0  0  0
    0.3056    0.1045    0.0000 C   0  0  0  0  0  0  0  0  0  0  0  0
    1.1340    0.1045    0.0000 C   0  0  0  0  0  0  0  0  0  0  0  0
    0.7641    1.4799    0.0000 O   0  0  0  0  0  0  0  0  0  0  0  0
    1.5442   -0.6113    0.0000 N   0  0  0  0  0  0  0  0  0  0  0  0
    2.3726   -0.6113    0.0000 C   0  0  0  0  0  0  0  0  0  0  0  0
    2.7828   -1.3270    0.0000 C   0  0  0  0  0  0  0  0  0  0  0  0
    2.3726   -2.0428    0.0000 O   0  0  0  0  0  0  0  0  0  0  0  0
    3.6112   -1.3270    0.0000 O   0  0  0  0  0  0  0  0  0  0  0  0
   -4.0215    1.5441    0.0000 Cl  0  0  0  0  0  0  0  0  0  0  0  0
   -3.8927   -1.3110    0.0000 Cl  0  0  0  0  0  0  0  0  0  0  0  0
    1.3431    0.9008    0.0000 C   0  0  0  0  0  0  0  0  0  0  0  0
    2.7828    0.1045    0.0000 C   0  0  0  0  0  0  0  0  0  0  0  0
    3.6112    0.1045    0.0000 C   0  0  0  0  0  0  0  0  0  0  0  0
    4.0215    0.8203    0.0000 C   0  0  0  0  0  0  0  0  0  0  0  0
    4.0215   -0.6113    0.0000 C   0  0  0  0  0  0  0  0  0  0  0  0
    2.1393    1.1099    0.0000 O   0  0  0  0  0  0  0  0  0  0  0  0
  1  4  2  0
  1  5  1  0
  2  5  1  0
  2  3  2  0
  2 13  1  0
  3  4  1  0
  5  6  1  0
  6  7  1  0
  7 11  1  0
  7 12  2  0
  8  9  2  0
  8 12  1  0
  8 21  1  0
  9 10  1  0
 10 11  2  0
 10 22  1  0
 14 13  1  1
 14 16  1  0
 14 23  1  0
 15 23  2  0
 16 17  1  0
 17 18  1  0
 17 24  1  1
 18 20  1  0
 18 19  2  0
 23 28  1  0
 24 25  1  0
 25 26  1  0
 25 27  1  0
M  END
>  <DRUGBANK_ID>  (1) 
DB12271

>  <SECONDARY_ACCESSION_NUMBERS>  (1) 
DB06387

>  <COMMON_NAME>  (1) 
ORE-1001

>  <CAS_NUMBER>  (1) 
305335-31-3

>  <UNII>  (1) 
4LD0ZHV25K

$$$$
