
     RDKit          2D

 19 19  0  0  1  0  0  0  0  0999 V2000
    0.0000    3.0809    0.0000 Cl  0  0  0  0  0  0  0  0  0  0  0  0
    2.4750    3.8435    0.0000 S   0  0  0  0  0  0  0  0  0  0  0  0
    3.6490    2.2339    0.0000 O   0  0  0  0  0  0  0  0  0  0  0  0
    5.2139    3.6860    0.0000 O   0  0  0  0  0  0  0  0  0  0  0  0
    3.1193    3.2735    0.0000 O   0  0  0  0  0  0  0  0  0  0  0  0
    5.7685    1.9790    0.0000 O   0  0  0  0  0  0  0  0  0  0  0  0
    3.6020    0.5115    0.0000 O   0  0  0  0  0  0  0  0  0  0  0  0
    3.9040    3.8435    0.0000 N   0  0  0  0  0  0  0  0  0  0  0  0
    3.1895    5.0810    0.0000 N   0  0  0  0  0  0  0  0  0  0  0  0
    3.9040    6.3185    0.0000 N   0  0  0  0  0  0  0  0  0  0  0  0
    4.7290    3.0185    0.0000 C   0  0  0  0  0  0  0  0  0  0  0  0
    3.9040    3.0185    0.0000 C   0  0  0  0  0  0  0  0  0  0  0  0
    4.9839    2.2339    0.0000 C   0  0  0  0  0  0  0  0  0  0  0  0
    4.3165    1.7490    0.0000 C   0  0  0  0  0  0  0  0  0  0  0  0
    4.3165    0.9240    0.0000 C   0  0  0  0  0  0  0  0  0  0  0  0
    4.6185    4.2560    0.0000 C   0  0  0  0  0  0  0  0  0  0  0  0
    3.1895    4.2560    0.0000 C   0  0  0  0  0  0  0  0  0  0  0  0
    4.6185    5.0810    0.0000 C   0  0  0  0  0  0  0  0  0  0  0  0
    3.9040    5.4935    0.0000 C   0  0  0  0  0  0  0  0  0  0  0  0
  2 17  2  0
  3 12  1  0
  3 14  1  0
  7 15  1  0
  8 12  1  0
  8 16  1  0
  8 17  1  0
  9 17  1  0
  9 19  2  0
 10 19  1  0
 11  4  1  1
 11 12  1  0
 11 13  1  0
 12  5  1  6
 13  6  1  6
 13 14  1  0
 14 15  1  1
 16 18  2  0
 18 19  1  0
M  END
>  <DRUGBANK_ID>  (1) 
DB05837

>  <COMMON_NAME>  (1) 
OSI-7836

>  <UNII>  (1) 
YCO2764D5Z

$$$$
