
     RDKit          2D

 28 31  0  0  0  0  0  0  0  0999 V2000
    1.9851   -0.2061    0.0000 N   0  0  0  0  0  0  0  0  0  0  0  0
    1.3248    0.2778    0.0000 C   0  0  0  0  0  0  0  0  0  0  0  0
    2.6445    0.2700    0.0000 C   0  0  0  0  0  0  0  0  0  0  0  0
    1.5774    1.0557    0.0000 C   0  0  0  0  0  0  0  0  0  0  0  0
    2.3991    1.0556    0.0000 O   0  0  0  0  0  0  0  0  0  0  0  0
    1.9921   -1.0386    0.0000 N   0  0  0  0  0  0  0  0  0  0  0  0
    0.8564    1.4720    0.0000 C   0  0  0  0  0  0  0  0  0  0  0  0
    0.5322    0.0279    0.0000 O   0  0  0  0  0  0  0  0  0  0  0  0
    3.4338    0.0000    0.0000 O   0  0  0  0  0  0  0  0  0  0  0  0
   -1.2892    2.7137    0.0000 O   0  0  0  0  0  0  0  0  0  0  0  0
    0.1424    1.0620    0.0000 C   0  0  0  0  0  0  0  0  0  0  0  0
    0.8562    2.2953    0.0000 C   0  0  0  0  0  0  0  0  0  0  0  0
    1.2746   -1.4607    0.0000 C   0  0  0  0  0  0  0  0  0  0  0  0
   -0.5754    2.3005    0.0000 C   0  0  0  0  0  0  0  0  0  0  0  0
    1.5890    1.8741    0.0000 C   0  0  0  0  0  0  0  0  0  0  0  0
   -0.5751    1.4772    0.0000 C   0  0  0  0  0  0  0  0  0  0  0  0
    0.1384    2.7106    0.0000 C   0  0  0  0  0  0  0  0  0  0  0  0
   -2.0041    2.3019    0.0000 C   0  0  0  0  0  0  0  0  0  0  0  0
    1.2815   -2.2931    0.0000 C   0  0  0  0  0  0  0  0  0  0  0  0
    0.5503   -1.0505    0.0000 C   0  0  0  0  0  0  0  0  0  0  0  0
   -2.0050    1.4770    0.0000 C   0  0  0  0  0  0  0  0  0  0  0  0
   -2.7181    2.7151    0.0000 C   0  0  0  0  0  0  0  0  0  0  0  0
   -0.1670   -1.4726    0.0000 C   0  0  0  0  0  0  0  0  0  0  0  0
   -3.4330    2.3033    0.0000 C   0  0  0  0  0  0  0  0  0  0  0  0
   -2.7197    1.0653    0.0000 C   0  0  0  0  0  0  0  0  0  0  0  0
    0.5640   -2.7151    0.0000 C   0  0  0  0  0  0  0  0  0  0  0  0
   -3.4338    1.4785    0.0000 C   0  0  0  0  0  0  0  0  0  0  0  0
   -0.1601   -2.3050    0.0000 C   0  0  0  0  0  0  0  0  0  0  0  0
  2  1  1  0
  3  1  1  0
  4  2  1  0
  4  7  1  0
  4 15  1  1
  5  3  1  0
  5  4  1  0
  6  1  1  0
  8  2  2  0
  9  3  2  0
 10 14  1  0
 11  7  2  0
 12  7  1  0
 13  6  1  0
 14 17  1  0
 14 16  2  0
 16 11  1  0
 17 12  2  0
 18 10  1  0
 19 13  2  0
 20 13  1  0
 21 18  2  0
 22 18  1  0
 23 20  2  0
 24 22  2  0
 25 21  1  0
 25 27  2  0
 26 19  1  0
 26 28  2  0
 27 24  1  0
 28 23  1  0
M  END
>  <DRUGBANK_ID>  (1) 
DB07778

>  <COMMON_NAME>  (1) 
(S)-famoxadone

>  <CAS_NUMBER>  (1) 
132584-12-4

>  <SYNONYMS>  (1) 
(−)-famoxadone; (S)-(−)-famoxadone; (S)-5-Methyl-5-(4-phenoxy-phenyl)-3-phenylamino-oxazolidine-2,4-dione

$$$$
