COR
     RDKit          2D

 20 21  0  0  0  0  0  0  0  0999 V2000
   -1.4126    0.6138    0.0000 C   0  0  0  0  0  0  0  0  0  0  0  0
   -0.6981    0.2013    0.0000 C   0  0  0  0  0  0  0  0  0  0  0  0
   -0.6981   -0.6237    0.0000 N   0  0  0  0  0  0  0  0  0  0  0  0
    0.0164    0.6138    0.0000 C   0  0  0  0  0  0  0  0  0  0  0  0
    0.0164    1.4388    0.0000 O   0  0  0  0  0  0  0  0  0  0  0  0
    0.7309    0.2013    0.0000 C   0  0  0  0  0  0  0  0  0  0  0  0
    0.7309   -0.6237    0.0000 N   0  0  0  0  0  0  0  0  0  0  0  0
    1.4453    0.6138    0.0000 C   0  0  0  0  0  0  0  0  0  0  0  0
   -2.1270    0.2013    0.0000 C   0  0  0  0  0  0  0  0  0  0  0  0
   -2.1270   -0.6237    0.0000 C   0  0  0  0  0  0  0  0  0  0  0  0
   -2.8415   -1.0362    0.0000 C   0  0  0  0  0  0  0  0  0  0  0  0
   -3.5560   -0.6237    0.0000 C   0  0  0  0  0  0  0  0  0  0  0  0
   -3.5560    0.2013    0.0000 C   0  0  0  0  0  0  0  0  0  0  0  0
   -2.8415    0.6138    0.0000 C   0  0  0  0  0  0  0  0  0  0  0  0
    2.1598    0.2013    0.0000 C   0  0  0  0  0  0  0  0  0  0  0  0
    2.8743    0.6138    0.0000 C   0  0  0  0  0  0  0  0  0  0  0  0
    3.5887    0.2013    0.0000 C   0  0  0  0  0  0  0  0  0  0  0  0
    3.5887   -0.6237    0.0000 C   0  0  0  0  0  0  0  0  0  0  0  0
    2.8743   -1.0362    0.0000 C   0  0  0  0  0  0  0  0  0  0  0  0
    2.1598   -0.6237    0.0000 C   0  0  0  0  0  0  0  0  0  0  0  0
  1  2  1  0
  1  9  1  0
  2  3  1  1
  2  4  1  0
  4  5  1  0
  4  6  1  0
  6  7  1  6
  6  8  1  0
  8 15  1  0
  9 10  2  0
  9 14  1  0
 10 11  1  0
 11 12  2  0
 12 13  1  0
 13 14  2  0
 15 16  2  0
 15 20  1  0
 16 17  1  0
 17 18  2  0
 18 19  1  0
 19 20  2  0
M  END
>  <DRUGBANK_ID>  (1) 
DB07575

>  <COMMON_NAME>  (1) 
2,4-DIAMINO-1,5-DIPHENYL-3-HYDROXYPENTANE

$$$$
