
     RDKit          2D

 14 13  0  0  0  0  0  0  0  0999 V2000
    0.2040   -1.0720    0.0000 O   0  0  0  0  0  0  0  0  0  0  0  0
    1.0290   -1.0720    0.0000 C   0  0  0  0  0  0  0  0  0  0  0  0
    1.4415   -0.3558    0.0000 C   0  0  0  0  0  0  0  0  0  0  0  0
    2.2665   -0.3558    0.0000 O   0  0  0  0  0  0  0  0  0  0  0  0
    1.0290    0.3558    0.0000 C   0  0  0  0  0  0  0  0  0  0  0  0
    0.2040    0.3558    0.0000 O   0  0  0  0  0  0  0  0  0  0  0  0
   -0.2040    1.0720    0.0000 C   0  0  0  0  0  0  0  0  0  0  0  0
   -1.0290    1.0720    0.0000 C   0  0  0  0  0  0  0  0  0  0  0  0
   -1.4415    1.7837    0.0000 C   0  0  0  0  0  0  0  0  0  0  0  0
   -2.2665    1.7837    0.0000 C   0  0  0  0  0  0  0  0  0  0  0  0
   -1.4415    0.3558    0.0000 C   0  0  0  0  0  0  0  0  0  0  0  0
   -1.0290   -0.3558    0.0000 C   0  0  0  0  0  0  0  0  0  0  0  0
   -1.4415   -1.0720    0.0000 C   0  0  0  0  0  0  0  0  0  0  0  0
   -1.0290   -1.7837    0.0000 C   0  0  0  0  0  0  0  0  0  0  0  0
  1  2  1  0
  2  3  1  0
  3  4  1  0
  3  5  1  0
  5  6  1  0
  6  7  1  0
  7  8  1  0
  8  9  1  0
  8 11  1  0
  9 10  1  0
 11 12  1  0
 12 13  1  0
 13 14  1  0
M  END
>  <DRUGBANK_ID>  (1) 
DB14557

>  <COMMON_NAME>  (1) 
Ethylhexylglycerin

>  <CAS_NUMBER>  (1) 
70445-33-9

>  <UNII>  (1) 
147D247K3P

>  <SYNONYMS>  (1) 
3-(2-Ethylhexyloxy)propane-1,2-diol; Octoxyglycerin

$$$$
