TRZ
     RDKit          2D

 23 24  0  0  0  0  0  0  0  0999 V2000
   -0.9445    0.5944    0.0000 C   0  0  0  0  0  0  0  0  0  0  0  0
   -0.2300    1.0069    0.0000 C   0  0  0  0  0  0  0  0  0  0  0  0
    0.4845    0.5944    0.0000 C   0  0  0  0  0  0  0  0  0  0  0  0
    0.4845   -0.2306    0.0000 C   0  0  0  0  0  0  0  0  0  0  0  0
   -0.2300   -0.6431    0.0000 C   0  0  0  0  0  0  0  0  0  0  0  0
   -0.9445   -0.2306    0.0000 C   0  0  0  0  0  0  0  0  0  0  0  0
    1.2691    0.8493    0.0000 C   0  0  0  0  0  0  0  0  0  0  0  0
    1.7540    0.1819    0.0000 C   0  0  0  0  0  0  0  0  0  0  0  0
    1.2691   -0.4856    0.0000 C   0  0  0  0  0  0  0  0  0  0  0  0
    1.5240   -1.2702    0.0000 C   0  0  0  0  0  0  0  0  0  0  0  0
    2.3310   -1.4417    0.0000 C   0  0  0  0  0  0  0  0  0  0  0  0
    0.9720   -1.8833    0.0000 C   0  0  0  0  0  0  0  0  0  0  0  0
    2.5790    0.1819    0.0000 C   0  0  0  0  0  0  0  0  0  0  0  0
    1.1060    1.6580    0.0000 C   0  0  0  0  0  0  0  0  0  0  0  0
    1.8764    1.4077    0.0000 C   0  0  0  0  0  0  0  0  0  0  0  0
   -1.6590    1.0069    0.0000 C   0  0  0  0  0  0  0  0  0  0  0  0
   -2.3734   -0.2306    0.0000 C   0  0  0  0  0  0  0  0  0  0  0  0
   -3.0879   -0.6431    0.0000 C   0  0  0  0  0  0  0  0  0  0  0  0
   -3.8024   -0.2306    0.0000 C   0  0  0  0  0  0  0  0  0  0  0  0
   -4.5168   -0.6431    0.0000 O   0  0  0  0  0  0  0  0  0  0  0  0
   -3.8024    0.5944    0.0000 O   0  0  0  0  0  0  0  0  0  0  0  0
   -1.6590   -0.6431    0.0000 C   0  0  0  0  0  0  0  0  0  0  0  0
   -1.6590   -1.4681    0.0000 O   0  0  0  0  0  0  0  0  0  0  0  0
  1  2  2  0
  1  6  1  0
  1 16  1  0
  2  3  1  0
  3  4  2  0
  3  7  1  0
  4  5  1  0
  4  9  1  0
  5  6  2  0
  6 22  1  0
  7  8  1  0
  7 14  1  0
  7 15  1  0
  8  9  1  0
  8 13  1  1
  9 10  1  6
 10 11  1  0
 10 12  1  0
 17 18  1  0
 17 22  1  0
 18 19  1  0
 19 20  2  0
 19 21  1  0
 22 23  2  0
M  END
>  <DRUGBANK_ID>  (1) 
DB08647

>  <COMMON_NAME>  (1) 
Trazeolide

$$$$
