6JZ
     RDKit          2D

 17 16  0  0  0  0  0  0  0  0999 V2000
   -5.7162    0.2262    0.0000 C   0  0  0  0  0  0  0  0  0  0  0  0
   -5.0017   -0.1863    0.0000 C   0  0  0  0  0  0  0  0  0  0  0  0
   -4.2871    0.2262    0.0000 O   0  0  0  0  0  0  0  0  0  0  0  0
   -3.5727   -0.1863    0.0000 C   0  0  0  0  0  0  0  0  0  0  0  0
   -2.8581    0.2262    0.0000 C   0  0  0  0  0  0  0  0  0  0  0  0
   -2.1436   -0.1863    0.0000 O   0  0  0  0  0  0  0  0  0  0  0  0
   -1.4291    0.2262    0.0000 C   0  0  0  0  0  0  0  0  0  0  0  0
   -0.7146   -0.1863    0.0000 C   0  0  0  0  0  0  0  0  0  0  0  0
    0.0000    0.2262    0.0000 O   0  0  0  0  0  0  0  0  0  0  0  0
    0.7146   -0.1863    0.0000 C   0  0  0  0  0  0  0  0  0  0  0  0
    1.4290    0.2262    0.0000 C   0  0  0  0  0  0  0  0  0  0  0  0
    2.1436   -0.1863    0.0000 O   0  0  0  0  0  0  0  0  0  0  0  0
    2.8581    0.2262    0.0000 C   0  0  0  0  0  0  0  0  0  0  0  0
    3.5726   -0.1863    0.0000 C   0  0  0  0  0  0  0  0  0  0  0  0
    4.2871    0.2262    0.0000 O   0  0  0  0  0  0  0  0  0  0  0  0
    5.0017   -0.1863    0.0000 C   0  0  0  0  0  0  0  0  0  0  0  0
    5.7162    0.2262    0.0000 C   0  0  0  0  0  0  0  0  0  0  0  0
  1  2  1  0
  2  3  1  0
  3  4  1  0
  4  5  1  0
  5  6  1  0
  6  7  1  0
  7  8  1  0
  8  9  1  0
  9 10  1  0
 10 11  1  0
 11 12  1  0
 12 13  1  0
 13 14  1  0
 14 15  1  0
 15 16  1  0
 16 17  1  0
M  END
>  <DRUGBANK_ID>  (1) 
DB02343

>  <SECONDARY_ACCESSION_NUMBERS>  (1) 
EXPT02478

>  <COMMON_NAME>  (1) 
3,6,9,12,15-Pentaoxaheptadecane

>  <CAS_NUMBER>  (1) 
4353-28-0

>  <UNII>  (1) 
XO8API468S

$$$$
