
     RDKit          2D

 10 11  0  0  1  0  0  0  0  0999 V2000
    1.6436    0.3570    0.0000 C   0  0  0  0  0  0  0  0  0  0  0  0
    0.2526    0.2537    0.0000 C   0  0  0  0  0  0  0  0  0  0  0  0
    0.9094   -2.4949    0.0000 C   0  0  0  0  0  0  0  0  0  0  0  0
    1.9362   -1.4148    0.0000 C   0  0  0  0  0  0  0  0  0  0  0  0
    1.6411   -2.0402    0.0000 C   0  0  0  0  0  0  0  0  0  0  0  0
    0.5004   -1.3997    0.0000 C   0  0  0  0  0  0  0  0  0  0  0  0
    1.1407   -0.9495    0.0000 C   0  0  0  0  0  0  0  0  0  0  0  0
    0.9807   -0.1341    0.0000 C   0  0  0  0  0  0  0  0  0  0  0  0
    0.9106   -1.6699    0.0000 C   0  0  0  0  0  0  0  0  0  0  0  0
    0.1351   -2.0602    0.0000 N   0  0  0  0  0  0  0  0  0  0  0  0
  5  4  1  0
  7  4  1  6
  7  6  1  0
  8  1  1  0
  8  2  1  0
  8  7  1  0
  9  3  1  6
  9  5  1  0
  9  8  1  0
 10  6  1  0
 10  9  1  0
M  END
>  <DRUGBANK_ID>  (1) 
DB02409

>  <SECONDARY_ACCESSION_NUMBERS>  (1) 
EXPT00106

>  <COMMON_NAME>  (1) 
(1r,4s)-2-Azabornane

$$$$
