
     RDKit          2D

 36 39  0  0  1  0  0  0  0  0999 V2000
    0.7144    3.0938    0.0000 C   0  0  0  0  0  0  0  0  0  0  0  0
    0.0000    2.6812    0.0000 C   0  0  0  0  0  0  0  0  0  0  0  0
   -0.7145    3.0938    0.0000 C   0  0  0  0  0  0  0  0  0  0  0  0
   -1.4290    2.6812    0.0000 C   0  0  0  0  0  0  0  0  0  0  0  0
   -1.4290    1.8562    0.0000 N   0  0  0  0  0  0  0  0  0  0  0  0
   -2.1434    1.4438    0.0000 C   0  0  0  0  0  0  0  0  0  0  0  0
   -2.1434    0.6187    0.0000 N   0  0  0  0  0  0  0  0  0  0  0  0
   -2.8579    0.2062    0.0000 C   0  0  0  0  0  0  0  0  0  0  0  0
   -3.5725    0.6187    0.0000 N   0  0  0  0  0  0  0  0  0  0  0  0
   -3.5725    1.4437    0.0000 C   0  0  0  0  0  0  0  0  0  0  0  0
   -4.2869    1.8562    0.0000 N   0  0  0  0  0  0  0  0  0  0  0  0
   -2.8579    1.8562    0.0000 C   0  0  0  0  0  0  0  0  0  0  0  0
   -2.8579    2.6812    0.0000 F   0  0  0  0  0  0  0  0  0  0  0  0
   -0.7145    1.4438    0.0000 C   0  0  0  0  0  0  0  0  0  0  0  0
    0.0000    1.8562    0.0000 C   0  0  0  0  0  0  0  0  0  0  0  0
    0.7144    1.4438    0.0000 N   0  0  0  0  0  0  0  0  0  0  0  0
    1.4289    1.8562    0.0000 C   0  0  0  0  0  0  0  0  0  0  0  0
    2.1434    1.4438    0.0000 C   0  0  0  0  0  0  0  0  0  0  0  0
    2.1434    0.6187    0.0000 C   0  0  0  0  0  0  0  0  0  0  0  0
    1.4289    0.2062    0.0000 C   0  0  0  0  0  0  0  0  0  0  0  0
    1.4289   -0.6187    0.0000 N   0  0  0  0  0  0  0  0  0  0  0  0
    2.1434   -1.0312    0.0000 C   0  0  0  0  0  0  0  0  0  0  0  0
    2.8579   -0.6187    0.0000 C   0  0  0  0  0  0  0  0  0  0  0  0
    3.5724   -1.0312    0.0000 C   0  0  0  0  0  0  0  0  0  0  0  0
    4.2869   -0.6187    0.0000 Cl  0  0  0  0  0  0  0  0  0  0  0  0
    3.5724   -1.8562    0.0000 C   0  0  0  0  0  0  0  0  0  0  0  0
    2.8579   -2.2688    0.0000 C   0  0  0  0  0  0  0  0  0  0  0  0
    2.8579   -3.0938    0.0000 C   0  0  0  0  0  0  0  0  0  0  0  0
    2.1434   -3.5063    0.0000 F   0  0  0  0  0  0  0  0  0  0  0  0
    2.8579   -3.9188    0.0000 F   0  0  0  0  0  0  0  0  0  0  0  0
    3.5724   -3.5063    0.0000 F   0  0  0  0  0  0  0  0  0  0  0  0
    2.1434   -1.8562    0.0000 C   0  0  0  0  0  0  0  0  0  0  0  0
    0.7144    0.6187    0.0000 C   0  0  0  0  0  0  0  0  0  0  0  0
    0.0000    0.2062    0.0000 O   0  0  0  0  0  0  0  0  0  0  0  0
    0.7144    3.9188    0.0000 O   0  0  0  0  0  0  0  0  0  0  0  0
    1.4289    2.6812    0.0000 N   0  0  0  0  0  0  0  0  0  0  0  0
  1 35  2  0
  1 36  1  0
  2  1  1  6
  2  3  1  0
  2 15  1  0
  3  4  1  0
  4  5  1  0
  5  6  1  0
  6  7  2  0
  6 12  1  0
  7  8  1  0
  8  9  2  0
 10  9  1  0
 10 11  1  0
 12 10  2  0
 12 13  1  0
 14  5  1  0
 15 14  1  0
 15 16  1  1
 16 17  1  0
 16 33  1  0
 17 18  1  0
 18 19  1  0
 20 19  1  0
 20 21  1  1
 21 22  1  0
 22 23  2  0
 22 32  1  0
 23 24  1  0
 24 25  1  0
 24 26  2  0
 27 26  1  0
 27 28  1  0
 28 29  1  0
 28 30  1  0
 28 31  1  0
 32 27  2  0
 33 20  1  0
 33 34  2  0
M  END
>  <DRUGBANK_ID>  (1) 
DB16657

>  <COMMON_NAME>  (1) 
Vecabrutinib

>  <CAS_NUMBER>  (1) 
1510829-06-7

>  <UNII>  (1) 
PQ7O0OB5GU

$$$$
