NR2
     RDKit          2D

 24 25  0  0  0  0  0  0  0  0999 V2000
   -3.5149   -0.3873    0.0000 S   0  0  0  0  0  0  0  0  0  0  0  0
   -4.2294   -0.7998    0.0000 N   0  0  0  0  0  0  0  0  0  0  0  0
   -3.1024   -1.1017    0.0000 O   0  0  0  0  0  0  0  0  0  0  0  0
   -3.9274    0.3272    0.0000 O   0  0  0  0  0  0  0  0  0  0  0  0
   -2.8004    0.0252    0.0000 C   0  0  0  0  0  0  0  0  0  0  0  0
   -2.8004    0.8502    0.0000 C   0  0  0  0  0  0  0  0  0  0  0  0
   -2.0860    1.2627    0.0000 C   0  0  0  0  0  0  0  0  0  0  0  0
   -1.3715    0.8502    0.0000 C   0  0  0  0  0  0  0  0  0  0  0  0
   -0.6570    1.2627    0.0000 N   0  0  0  0  0  0  0  0  0  0  0  0
    0.0575    0.8502    0.0000 C   0  0  0  0  0  0  0  0  0  0  0  0
    0.0575    0.0252    0.0000 O   0  0  0  0  0  0  0  0  0  0  0  0
    0.7719    1.2627    0.0000 N   0  0  0  0  0  0  0  0  0  0  0  0
    1.4864    0.8502    0.0000 S   0  0  0  0  0  0  0  0  0  0  0  0
    1.0739    0.1358    0.0000 O   0  0  0  0  0  0  0  0  0  0  0  0
    1.8989    1.5647    0.0000 O   0  0  0  0  0  0  0  0  0  0  0  0
    2.2009    0.4377    0.0000 C   0  0  0  0  0  0  0  0  0  0  0  0
    2.9153    0.8502    0.0000 C   0  0  0  0  0  0  0  0  0  0  0  0
    3.6298    0.4377    0.0000 C   0  0  0  0  0  0  0  0  0  0  0  0
    3.6298   -0.3873    0.0000 C   0  0  0  0  0  0  0  0  0  0  0  0
    4.3443   -0.7998    0.0000 C   0  0  0  0  0  0  0  0  0  0  0  0
    2.9153   -0.7998    0.0000 C   0  0  0  0  0  0  0  0  0  0  0  0
    2.2009   -0.3873    0.0000 C   0  0  0  0  0  0  0  0  0  0  0  0
   -1.3715    0.0252    0.0000 C   0  0  0  0  0  0  0  0  0  0  0  0
   -2.0860   -0.3873    0.0000 C   0  0  0  0  0  0  0  0  0  0  0  0
  1  2  1  0
  1  3  2  0
  1  4  2  0
  1  5  1  0
  5  6  2  0
  5 24  1  0
  6  7  1  0
  7  8  2  0
  8  9  1  0
  8 23  1  0
  9 10  1  0
 10 11  2  0
 10 12  1  0
 12 13  1  0
 13 14  2  0
 13 15  2  0
 13 16  1  0
 16 17  2  0
 16 22  1  0
 17 18  1  0
 18 19  2  0
 19 20  1  0
 19 21  1  0
 21 22  2  0
 23 24  2  0
M  END
>  <DRUGBANK_ID>  (1) 
DB08301

>  <COMMON_NAME>  (1) 
N-({[4-(AMINOSULFONYL)PHENYL]AMINO}CARBONYL)-4-METHYLBENZENESULFONAMIDE

$$$$
