
     RDKit          2D

 10  9  0  0  0  0  0  0  0  0999 V2000
    0.3572    0.2062    0.0000 C   0  0  0  0  0  0  0  0  0  0  0  0
   -0.3571   -0.2063    0.0000 C   0  0  0  0  0  0  0  0  0  0  0  0
    2.5006   -0.2062    0.0000 O   0  0  0  0  0  0  0  0  0  0  0  0
   -1.0716    0.2062    0.0000 C   0  0  0  0  0  0  0  0  0  0  0  0
    1.7862    0.2063    0.0000 C   0  0  0  0  0  0  0  0  0  0  0  0
    1.7862    1.0313    0.0000 O   0  0  0  0  0  0  0  0  0  0  0  0
    1.0717   -0.2062    0.0000 C   0  0  0  0  0  0  0  0  0  0  0  0
    1.0717   -1.0313    0.0000 N   0  0  0  0  0  0  0  0  0  0  0  0
   -1.7861   -0.2063    0.0000 C   0  0  0  0  0  0  0  0  0  0  0  0
   -1.7861   -1.0313    0.0000 O   0  0  0  0  0  0  0  0  0  0  0  0
  1  2  1  0
  2  4  1  0
  4  9  1  0
  5  3  1  0
  5  6  2  0
  7  1  1  0
  7  5  1  0
  7  8  1  1
  9 10  2  0
M  END
>  <DRUGBANK_ID>  (1) 
DB02571

>  <SECONDARY_ACCESSION_NUMBERS>  (1) 
EXPT01240

>  <COMMON_NAME>  (1) 
Allysine

>  <CAS_NUMBER>  (1) 
6665-12-9

>  <UNII>  (1) 
425I4Y24YZ

>  <SYNONYMS>  (1) 
2-Amino-5-formylvaleric acid; 2-Amino-6-oxo-hexanoic acid; 2-Aminoadipate semialdehyde; 6-Oxo-L-norleucine; L-Allysine

$$$$
