PZF
     RDKit          2D

 29 32  0  0  0  0  0  0  0  0999 V2000
    0.3465   -3.8432    0.0000 N   0  0  0  0  0  0  0  0  0  0  0  0
   -0.4740   -3.9294    0.0000 C   0  0  0  0  0  0  0  0  0  0  0  0
   -0.6234   -2.5083    0.0000 C   0  0  0  0  0  0  0  0  0  0  0  0
   -0.5141    1.6897    0.0000 C   0  0  0  0  0  0  0  0  0  0  0  0
   -0.5141    2.5147    0.0000 C   0  0  0  0  0  0  0  0  0  0  0  0
    1.6887   -0.8285    0.0000 C   0  0  0  0  0  0  0  0  0  0  0  0
   -0.9266    0.4202    0.0000 C   0  0  0  0  0  0  0  0  0  0  0  0
   -0.3246   -5.3505    0.0000 C   0  0  0  0  0  0  0  0  0  0  0  0
    0.2004    2.9272    0.0000 C   0  0  0  0  0  0  0  0  0  0  0  0
   -0.5141    4.9897    0.0000 F   0  0  0  0  0  0  0  0  0  0  0  0
   -0.5141    4.1647    0.0000 C   0  0  0  0  0  0  0  0  0  0  0  0
   -1.2286    3.7522    0.0000 C   0  0  0  0  0  0  0  0  0  0  0  0
   -1.2286    2.9272    0.0000 C   0  0  0  0  0  0  0  0  0  0  0  0
   -1.9431    2.5147    0.0000 F   0  0  0  0  0  0  0  0  0  0  0  0
    0.2004    3.7522    0.0000 C   0  0  0  0  0  0  0  0  0  0  0  0
    0.9148    4.1647    0.0000 F   0  0  0  0  0  0  0  0  0  0  0  0
   -1.1816    1.2048    0.0000 C   0  0  0  0  0  0  0  0  0  0  0  0
   -1.9662    1.4597    0.0000 N   0  0  0  0  0  0  0  0  0  0  0  0
   -0.1016    0.4202    0.0000 N   0  0  0  0  0  0  0  0  0  0  0  0
    0.1533    1.2048    0.0000 C   0  0  0  0  0  0  0  0  0  0  0  0
    0.3833   -0.2473    0.0000 C   0  0  0  0  0  0  0  0  0  0  0  0
    1.2038   -0.1610    0.0000 N   0  0  0  0  0  0  0  0  0  0  0  0
    0.0478   -1.0010    0.0000 C   0  0  0  0  0  0  0  0  0  0  0  0
    0.5327   -1.6684    0.0000 C   0  0  0  0  0  0  0  0  0  0  0  0
    1.3532   -1.5822    0.0000 N   0  0  0  0  0  0  0  0  0  0  0  0
    0.1971   -2.4221    0.0000 C   0  0  0  0  0  0  0  0  0  0  0  0
   -0.9589   -3.2620    0.0000 C   0  0  0  0  0  0  0  0  0  0  0  0
   -0.8096   -4.6831    0.0000 O   0  0  0  0  0  0  0  0  0  0  0  0
    0.6820   -3.0895    0.0000 C   0  0  0  0  0  0  0  0  0  0  0  0
  1  2  2  0
  1 29  1  0
  2 28  1  0
  2 27  1  0
  3 27  2  0
  3 26  1  0
  4 20  1  0
  4 17  1  0
  4  5  1  1
  5 13  1  0
  5  9  2  0
  6 25  2  0
  6 22  1  0
  7 19  1  0
  7 17  1  0
  8 28  1  0
  9 15  1  0
 10 11  1  0
 11 12  1  0
 11 15  2  0
 12 13  2  0
 13 14  1  0
 15 16  1  0
 17 18  1  6
 19 21  1  0
 19 20  1  0
 21 23  1  0
 21 22  2  0
 23 24  2  0
 24 26  1  0
 24 25  1  0
 26 29  2  0
M  END
>  <DRUGBANK_ID>  (1) 
DB08445

>  <COMMON_NAME>  (1) 
(3R,4S)-1-[6-(6-METHOXYPYRIDIN-3-YL)PYRIMIDIN-4-YL]-4-(2,4,5-TRIFLUOROPHENYL)PYRROLIDIN-3-AMINE

$$$$
