
     RDKit          2D

 28 32  0  0  1  0  0  0  0  0999 V2000
    1.7523    3.0364    0.0000 C   0  0  0  0  0  0  0  0  0  0  0  0
    2.3043    2.4233    0.0000 O   0  0  0  0  0  0  0  0  0  0  0  0
    3.1113    2.5948    0.0000 C   0  0  0  0  0  0  0  0  0  0  0  0
    3.6633    1.9817    0.0000 C   0  0  0  0  0  0  0  0  0  0  0  0
    4.4703    2.1533    0.0000 C   0  0  0  0  0  0  0  0  0  0  0  0
    4.7252    2.9379    0.0000 C   0  0  0  0  0  0  0  0  0  0  0  0
    4.1732    3.5510    0.0000 C   0  0  0  0  0  0  0  0  0  0  0  0
    4.4281    4.3356    0.0000 Cl  0  0  0  0  0  0  0  0  0  0  0  0
    3.3662    3.3795    0.0000 C   0  0  0  0  0  0  0  0  0  0  0  0
    3.4084    1.1971    0.0000 C   0  0  0  0  0  0  0  0  0  0  0  0
    3.9604    0.5840    0.0000 N   0  0  0  0  0  0  0  0  0  0  0  0
    3.7054   -0.2006    0.0000 C   0  0  0  0  0  0  0  0  0  0  0  0
    2.8985   -0.3721    0.0000 C   0  0  0  0  0  0  0  0  0  0  0  0
    3.0700   -1.1791    0.0000 C   0  0  0  0  0  0  0  0  0  0  0  0
    2.2854   -0.9242    0.0000 C   0  0  0  0  0  0  0  0  0  0  0  0
    2.3464    0.2410    0.0000 C   0  0  0  0  0  0  0  0  0  0  0  0
    2.6014    1.0256    0.0000 C   0  0  0  0  0  0  0  0  0  0  0  0
    1.9339    1.5105    0.0000 N   0  0  0  0  0  0  0  0  0  0  0  0
    1.2665    1.0256    0.0000 C   0  0  0  0  0  0  0  0  0  0  0  0
    1.5214    0.2410    0.0000 C   0  0  0  0  0  0  0  0  0  0  0  0
    0.9694   -0.3721    0.0000 C   0  0  0  0  0  0  0  0  0  0  0  0
    1.2243   -1.1567    0.0000 F   0  0  0  0  0  0  0  0  0  0  0  0
    0.1624   -0.2006    0.0000 C   0  0  0  0  0  0  0  0  0  0  0  0
   -0.0925    0.5840    0.0000 C   0  0  0  0  0  0  0  0  0  0  0  0
    0.4595    1.1971    0.0000 C   0  0  0  0  0  0  0  0  0  0  0  0
    4.7674    0.7556    0.0000 C   0  0  0  0  0  0  0  0  0  0  0  0
    5.3194    0.1425    0.0000 C   0  0  0  0  0  0  0  0  0  0  0  0
    5.0223    1.5402    0.0000 O   0  0  0  0  0  0  0  0  0  0  0  0
  1  2  1  0
  2  3  1  0
  3  4  2  0
  3  9  1  0
  4  5  1  0
  5  6  2  0
  6  7  1  0
  7  8  1  0
  7  9  2  0
 10  4  1  6
 10 11  1  0
 10 17  1  0
 11 12  1  0
 11 26  1  0
 12 13  1  0
 13 14  1  0
 13 15  1  0
 13 16  1  0
 14 15  1  0
 16 17  2  0
 16 20  1  0
 17 18  1  0
 18 19  1  0
 19 20  2  0
 19 25  1  0
 20 21  1  0
 21 22  1  0
 21 23  2  0
 23 24  1  0
 24 25  2  0
 26 27  1  0
 26 28  2  0
M  END
>  <DRUGBANK_ID>  (1) 
DB14802

>  <COMMON_NAME>  (1) 
ONO-2952

>  <CAS_NUMBER>  (1) 
895169-20-7

>  <UNII>  (1) 
ZH8CPX4YNB

$$$$
