524
     RDKit          2D

 31 34  0  0  0  0  0  0  0  0999 V2000
    0.2133    3.9927    0.0000 C   0  0  0  0  0  0  0  0  0  0  0  0
   -0.5011    2.7552    0.0000 C   0  0  0  0  0  0  0  0  0  0  0  0
    0.2133    2.3427    0.0000 C   0  0  0  0  0  0  0  0  0  0  0  0
    0.9278    3.5802    0.0000 C   0  0  0  0  0  0  0  0  0  0  0  0
   -0.5011    3.5802    0.0000 C   0  0  0  0  0  0  0  0  0  0  0  0
    0.9278    2.7552    0.0000 N   0  0  0  0  0  0  0  0  0  0  0  0
    1.7124    2.5003    0.0000 N   0  0  0  0  0  0  0  0  0  0  0  0
    2.1974    3.1677    0.0000 C   0  0  0  0  0  0  0  0  0  0  0  0
    1.7124    3.8352    0.0000 N   0  0  0  0  0  0  0  0  0  0  0  0
    0.2133   -0.9573    0.0000 C   0  0  0  0  0  0  0  0  0  0  0  0
   -0.5011   -1.3698    0.0000 C   0  0  0  0  0  0  0  0  0  0  0  0
   -1.2156   -0.9573    0.0000 C   0  0  0  0  0  0  0  0  0  0  0  0
   -1.9301   -1.3698    0.0000 N   0  0  0  0  0  0  0  0  0  0  0  0
    0.9278   -1.3698    0.0000 C   0  0  0  0  0  0  0  0  0  0  0  0
   -0.5011   -2.1948    0.0000 N   0  0  0  0  0  0  0  0  0  0  0  0
   -1.2156   -0.1323    0.0000 O   0  0  0  0  0  0  0  0  0  0  0  0
    0.9278   -2.1948    0.0000 O   0  0  0  0  0  0  0  0  0  0  0  0
    1.6423   -0.9573    0.0000 N   0  0  0  0  0  0  0  0  0  0  0  0
    1.6423   -0.1323    0.0000 C   0  0  0  0  0  0  0  0  0  0  0  0
    2.3567   -1.3698    0.0000 C   0  0  0  0  0  0  0  0  0  0  0  0
   -2.6838   -1.0342    0.0000 C   0  0  0  0  0  0  0  0  0  0  0  0
   -3.2358   -1.6473    0.0000 C   0  0  0  0  0  0  0  0  0  0  0  0
   -2.8233   -2.3618    0.0000 C   0  0  0  0  0  0  0  0  0  0  0  0
   -2.0163   -2.1902    0.0000 C   0  0  0  0  0  0  0  0  0  0  0  0
   -4.0563   -1.5611    0.0000 F   0  0  0  0  0  0  0  0  0  0  0  0
    0.2133    1.5177    0.0000 C   0  0  0  0  0  0  0  0  0  0  0  0
    0.9278    1.1052    0.0000 C   0  0  0  0  0  0  0  0  0  0  0  0
    0.9278    0.2802    0.0000 C   0  0  0  0  0  0  0  0  0  0  0  0
    0.2133   -0.1323    0.0000 C   0  0  0  0  0  0  0  0  0  0  0  0
   -0.5011    0.2802    0.0000 C   0  0  0  0  0  0  0  0  0  0  0  0
   -0.5011    1.1052    0.0000 C   0  0  0  0  0  0  0  0  0  0  0  0
  1  4  1  0
  1  5  2  0
  2  5  1  0
  2  3  2  0
  3  6  1  0
  4  9  2  0
  4  6  1  0
  6  7  1  0
  7  8  2  0
  8  9  1  0
 10 11  1  0
 10 14  1  6
 11 15  1  6
 11 12  1  0
 12 16  2  0
 12 13  1  0
 13 24  1  0
 13 21  1  0
 14 17  2  0
 14 18  1  0
 18 19  1  0
 18 20  1  0
 21 22  1  0
 22 23  1  0
 22 25  1  6
 23 24  1  0
 26  3  1  1
 26 27  1  0
 26 31  1  0
 27 28  1  0
 29 28  1  6
 29 10  1  0
 29 30  1  0
 30 31  1  0
M  END
>  <DRUGBANK_ID>  (1) 
DB07135

>  <COMMON_NAME>  (1) 
(2S,3S)-3-AMINO-4-[(3S)-3-FLUOROPYRROLIDIN-1-YL]-N,N-DIMETHYL-4-OXO-2-(TRANS-4-[1,2,4]TRIAZOLO[1,5-A]PYRIDIN-5-YLCYCLOHEXYL)BUTANAMIDE

$$$$
