
     RDKit          2D

 29 30  0  0  0  0  0  0  0  0999 V2000
   -2.8583    0.4095    0.0000 C   0  0  0  0  0  0  0  0  0  0  0  0
   -2.1438    0.8221    0.0000 C   0  0  0  0  0  0  0  0  0  0  0  0
   -1.4293    0.4095    0.0000 C   0  0  0  0  0  0  0  0  0  0  0  0
   -0.7149    0.8221    0.0000 C   0  0  0  0  0  0  0  0  0  0  0  0
   -0.0004    0.4095    0.0000 C   0  0  0  0  0  0  0  0  0  0  0  0
   -0.7149    1.6471    0.0000 O   0  0  0  0  0  0  0  0  0  0  0  0
    0.7139    0.8221    0.0000 C   0  0  0  0  0  0  0  0  0  0  0  0
    1.4284    0.4095    0.0000 C   0  0  0  0  0  0  0  0  0  0  0  0
    0.7139    1.6471    0.0000 O   0  0  0  0  0  0  0  0  0  0  0  0
    2.1428    0.8221    0.0000 C   0  0  0  0  0  0  0  0  0  0  0  0
    2.8573    0.4095    0.0000 C   0  0  0  0  0  0  0  0  0  0  0  0
    2.8554   -0.4165    0.0000 C   0  0  0  0  0  0  0  0  0  0  0  0
    3.5690   -0.8288    0.0000 C   0  0  0  0  0  0  0  0  0  0  0  0
    4.2845   -0.4164    0.0000 C   0  0  0  0  0  0  0  0  0  0  0  0
    4.2819    0.4128    0.0000 C   0  0  0  0  0  0  0  0  0  0  0  0
    3.5676    0.8216    0.0000 C   0  0  0  0  0  0  0  0  0  0  0  0
   -3.5723    0.8250    0.0000 C   0  0  0  0  0  0  0  0  0  0  0  0
   -4.2864    0.4131    0.0000 C   0  0  0  0  0  0  0  0  0  0  0  0
   -4.2868   -0.4126    0.0000 C   0  0  0  0  0  0  0  0  0  0  0  0
   -3.5672   -0.8250    0.0000 C   0  0  0  0  0  0  0  0  0  0  0  0
   -2.8562   -0.4107    0.0000 C   0  0  0  0  0  0  0  0  0  0  0  0
   -5.0006    0.8260    0.0000 O   0  0  0  0  0  0  0  0  0  0  0  0
   -5.0002    1.6510    0.0000 C   0  0  0  0  0  0  0  0  0  0  0  0
   -5.0007   -0.8261    0.0000 O   0  0  0  0  0  0  0  0  0  0  0  0
   -4.9996   -1.6511    0.0000 C   0  0  0  0  0  0  0  0  0  0  0  0
    4.9949    0.8279    0.0000 O   0  0  0  0  0  0  0  0  0  0  0  0
    4.9996   -0.8279    0.0000 O   0  0  0  0  0  0  0  0  0  0  0  0
    5.0007   -1.6529    0.0000 C   0  0  0  0  0  0  0  0  0  0  0  0
    4.9920    1.6529    0.0000 C   0  0  0  0  0  0  0  0  0  0  0  0
  1 17  2  0
  1  2  1  0
  2  3  2  0
  3  4  1  0
  4  5  1  0
  4  6  2  0
  5  7  2  0
  7  8  1  0
  7  9  1  0
  8 10  2  0
 10 11  1  0
 11 12  2  0
 12 13  1  0
 13 14  2  0
 14 15  1  0
 14 27  1  0
 15 16  2  0
 15 26  1  0
 16 11  1  0
 17 18  1  0
 18 19  2  0
 18 22  1  0
 19 20  1  0
 19 24  1  0
 20 21  2  0
 21  1  1  0
 22 23  1  0
 24 25  1  0
 26 29  1  0
 27 28  1  0
M  END
>  <DRUGBANK_ID>  (1) 
DB06133

>  <COMMON_NAME>  (1) 
Dimethylcurcumin

>  <CAS_NUMBER>  (1) 
52328-98-0

>  <UNII>  (1) 
D60XLY608D

$$$$
