
     RDKit          2D

 31 35  0  0  0  0  0  0  0  0999 V2000
   -0.8723   -2.8854    0.0000 F   0  0  0  0  0  0  0  0  0  0  0  0
    2.1324    1.2302    0.0000 O   0  0  0  0  0  0  0  0  0  0  0  0
    2.8929    0.3951    0.0000 O   0  0  0  0  0  0  0  0  0  0  0  0
   -1.5656    0.8425    0.0000 O   0  0  0  0  0  0  0  0  0  0  0  0
    2.0206    2.0428    0.0000 O   0  0  0  0  0  0  0  0  0  0  0  0
    0.5965    2.8854    0.0000 O   0  0  0  0  0  0  0  0  0  0  0  0
   -3.7279   -2.0578    0.0000 O   0  0  0  0  0  0  0  0  0  0  0  0
    0.5667   -0.4175    0.0000 C   0  0  0  0  0  0  0  0  0  0  0  0
    0.5741    0.4026    0.0000 C   0  0  0  0  0  0  0  0  0  0  0  0
   -0.1491   -0.8201    0.0000 C   0  0  0  0  0  0  0  0  0  0  0  0
    1.2899    0.8127    0.0000 C   0  0  0  0  0  0  0  0  0  0  0  0
   -0.8648   -0.4026    0.0000 C   0  0  0  0  0  0  0  0  0  0  0  0
    1.9982    0.3876    0.0000 C   0  0  0  0  0  0  0  0  0  0  0  0
   -1.5807   -0.8127    0.0000 C   0  0  0  0  0  0  0  0  0  0  0  0
    1.9908   -0.4324    0.0000 C   0  0  0  0  0  0  0  0  0  0  0  0
   -0.8574    0.4175    0.0000 C   0  0  0  0  0  0  0  0  0  0  0  0
   -0.1415    0.8275    0.0000 C   0  0  0  0  0  0  0  0  0  0  0  0
   -0.1491   -1.6478    0.0000 C   0  0  0  0  0  0  0  0  0  0  0  0
    1.2973    1.6403    0.0000 C   0  0  0  0  0  0  0  0  0  0  0  0
   -1.5807   -1.6403    0.0000 C   0  0  0  0  0  0  0  0  0  0  0  0
    2.9302    1.2302    0.0000 C   0  0  0  0  0  0  0  0  0  0  0  0
    0.5517    1.2749    0.0000 C   0  0  0  0  0  0  0  0  0  0  0  0
   -0.8723   -2.0578    0.0000 C   0  0  0  0  0  0  0  0  0  0  0  0
   -2.2964   -0.4026    0.0000 C   0  0  0  0  0  0  0  0  0  0  0  0
   -1.5807   -0.0671    0.0000 C   0  0  0  0  0  0  0  0  0  0  0  0
   -2.2964   -2.0578    0.0000 C   0  0  0  0  0  0  0  0  0  0  0  0
    0.5891    2.0578    0.0000 C   0  0  0  0  0  0  0  0  0  0  0  0
   -3.0122   -0.8127    0.0000 C   0  0  0  0  0  0  0  0  0  0  0  0
    2.8929    1.9459    0.0000 C   0  0  0  0  0  0  0  0  0  0  0  0
    3.7279    1.2302    0.0000 C   0  0  0  0  0  0  0  0  0  0  0  0
   -3.0122   -1.6403    0.0000 C   0  0  0  0  0  0  0  0  0  0  0  0
  2 11  1  0
  2 21  1  0
  3 13  1  0
  3 21  1  0
  5 19  2  0
  6 27  1  0
  7 31  2  0
  8  9  1  0
  8 10  1  0
  8 15  1  1
  9 11  1  0
  9 17  1  0
  9 22  1  1
 10 12  1  0
 10 18  1  6
 11 13  1  0
 11 19  1  1
 12 14  1  0
 12 16  1  1
 13 15  1  6
 14 20  1  0
 14 24  1  0
 14 25  1  1
 16  4  1  1
 16 17  1  0
 18 23  1  0
 19 27  1  0
 20 23  1  0
 20 26  2  0
 21 29  1  0
 21 30  1  0
 23  1  1  6
 24 28  1  0
 26 31  1  0
 28 31  1  0
M  END
>  <DRUGBANK_ID>  (1) 
DB00846

>  <SECONDARY_ACCESSION_NUMBERS>  (1) 
APRD00982

>  <COMMON_NAME>  (1) 
Flurandrenolide

>  <CAS_NUMBER>  (1) 
1524-88-5

>  <UNII>  (1) 
8EUL29XUQT

>  <SYNONYMS>  (1) 
Fludroxicortida; Fludroxicortide; Fludroxycortid; Fludroxycortide; Fludroxycortidum; Flurandrenolide; Flurandrenolone

$$$$
