
     RDKit          2D

 10  9  0  0  0  0  0  0  0  0999 V2000
    0.1105   -1.2375    0.0000 C   0  0  0  0  0  0  0  0  0  0  0  0
    0.1105   -2.0625    0.0000 C   0  0  0  0  0  0  0  0  0  0  0  0
    0.1105   -2.8875    0.0000 Cl  0  0  0  0  0  0  0  0  0  0  0  0
    0.9355   -2.0625    0.0000 Cl  0  0  0  0  0  0  0  0  0  0  0  0
   -0.7145   -2.0625    0.0000 Cl  0  0  0  0  0  0  0  0  0  0  0  0
    0.8250   -0.8250    0.0000 O   0  0  0  0  0  0  0  0  0  0  0  0
    0.8250    0.0000    0.0000 P   0  0  0  0  0  0  0  0  0  0  0  0
    0.8250    0.8250    0.0000 O   0  0  0  0  0  0  0  0  0  0  0  0
    1.6500   -0.0000    0.0000 O   0  0  0  0  0  0  0  0  0  0  0  0
    0.0000    0.0000    0.0000 O   0  0  0  0  0  0  0  0  0  0  0  0
  1  2  1  0
  1  6  1  0
  2  3  1  0
  2  4  1  0
  2  5  1  0
  6  7  1  0
  7  8  2  0
  7  9  1  0
  7 10  1  0
M  END
>  <DRUGBANK_ID>  (1) 
DB06753

>  <COMMON_NAME>  (1) 
Triclofos

>  <CAS_NUMBER>  (1) 
306-52-5

>  <UNII>  (1) 
J712EO9048

>  <SYNONYMS>  (1) 
Triclofos

$$$$
