
     RDKit          2D

 15  9  0  0  0  0  0  0  0  0999 V2000
    0.7145    0.0000    0.0000 Cl  0  0  0  0  0  0  0  0  0  0  0  0
    0.7145    4.1251    0.0000 Cl  0  0  0  0  0  0  0  0  0  0  0  0
    3.7935    4.1251    0.0000 Cl  0  0  0  0  0  0  0  0  0  0  0  0
    3.7935    2.0625    0.0000 Cl  0  0  0  0  0  0  0  0  0  0  0  0
    1.4290    0.4125    0.0000 O   0  0  0  0  0  0  0  0  0  0  0  0
    1.4290    4.5376    0.0000 O   0  0  0  0  0  0  0  0  0  0  0  0
    4.5080    4.5376    0.0000 O   0  0  0  0  0  0  0  0  0  0  0  0
    4.5080    2.4751    0.0000 O   0  0  0  0  0  0  0  0  0  0  0  0
    0.0000    0.4125    0.0000 O   0  0  0  0  0  0  0  0  0  0  0  0
    0.0000    4.5376    0.0000 O   0  0  0  0  0  0  0  0  0  0  0  0
    3.0791    4.5376    0.0000 O   0  0  0  0  0  0  0  0  0  0  0  0
    3.0791    2.4751    0.0000 O   0  0  0  0  0  0  0  0  0  0  0  0
    3.7935    0.0000    0.0000 O   0  0  0  0  0  0  0  0  0  0  0  0
    1.1270    2.0625    0.0000 O   0  0  0  0  0  0  0  0  0  0  0  0
    0.3020    2.0625    0.0000 O   0  0  0  0  0  0  0  0  0  0  0  0
  1  5  1  0
  1  9  1  0
  2  6  1  0
  2 10  1  0
  3  7  1  0
  3 11  1  0
  4  8  1  0
  4 12  1  0
 14 15  2  0
M  CHG  8   1   1   2   1   3   1   4   1   5  -1   6  -1   7  -1   8  -1
M  CHG  4   9  -1  10  -1  11  -1  12  -1
M  END
>  <DRUGBANK_ID>  (1) 
DB05389

>  <COMMON_NAME>  (1) 
Tetrachlorodecaoxide

>  <CAS_NUMBER>  (1) 
92047-76-2

>  <UNII>  (1) 
549BT7IE1Q

>  <SYNONYMS>  (1) 
TCDO; Tetrachlorodecaoxygen

$$$$
