
     RDKit          2D

 35 38  0  0  0  0  0  0  0  0999 V2000
    5.2520   -0.3020    0.0000 C   0  0  0  0  0  0  0  0  0  0  0  0
    4.8395    0.4125    0.0000 O   0  0  0  0  0  0  0  0  0  0  0  0
    4.0145    0.4125    0.0000 C   0  0  0  0  0  0  0  0  0  0  0  0
    3.6020    1.1270    0.0000 C   0  0  0  0  0  0  0  0  0  0  0  0
    4.0145    1.8414    0.0000 O   0  0  0  0  0  0  0  0  0  0  0  0
    3.6020    2.5559    0.0000 C   0  0  0  0  0  0  0  0  0  0  0  0
    2.7770    1.1270    0.0000 C   0  0  0  0  0  0  0  0  0  0  0  0
    2.3645    0.4125    0.0000 C   0  0  0  0  0  0  0  0  0  0  0  0
    2.7770   -0.3020    0.0000 C   0  0  0  0  0  0  0  0  0  0  0  0
    2.3645   -1.0164    0.0000 C   0  0  0  0  0  0  0  0  0  0  0  0
    1.5395   -1.0164    0.0000 C   0  0  0  0  0  0  0  0  0  0  0  0
    1.1270   -0.3020    0.0000 N   0  0  0  0  0  0  0  0  0  0  0  0
    0.3020   -0.3020    0.0000 C   0  0  0  0  0  0  0  0  0  0  0  0
   -0.1105   -1.0164    0.0000 O   0  0  0  0  0  0  0  0  0  0  0  0
   -0.1105    0.4125    0.0000 N   0  0  0  0  0  0  0  0  0  0  0  0
   -0.9355    0.4125    0.0000 C   0  0  0  0  0  0  0  0  0  0  0  0
   -1.3480    1.1270    0.0000 C   0  0  0  0  0  0  0  0  0  0  0  0
   -2.1730    1.1270    0.0000 N   0  0  0  0  0  0  0  0  0  0  0  0
   -2.5855    1.8414    0.0000 C   0  0  0  0  0  0  0  0  0  0  0  0
   -3.4105    1.8414    0.0000 N   0  0  0  0  0  0  0  0  0  0  0  0
   -2.1730    2.5559    0.0000 O   0  0  0  0  0  0  0  0  0  0  0  0
    0.3020    1.1270    0.0000 C   0  0  0  0  0  0  0  0  0  0  0  0
    1.1270    1.1270    0.0000 C   0  0  0  0  0  0  0  0  0  0  0  0
    1.5395    0.4125    0.0000 C   0  0  0  0  0  0  0  0  0  0  0  0
   -0.1105    1.8414    0.0000 N   0  0  0  0  0  0  0  0  0  0  0  0
    0.3020    2.5559    0.0000 C   0  0  0  0  0  0  0  0  0  0  0  0
   -0.1105    3.2704    0.0000 C   0  0  0  0  0  0  0  0  0  0  0  0
   -0.9355    3.2704    0.0000 C   0  0  0  0  0  0  0  0  0  0  0  0
    0.3020    3.9849    0.0000 C   0  0  0  0  0  0  0  0  0  0  0  0
    1.1270    3.9849    0.0000 C   0  0  0  0  0  0  0  0  0  0  0  0
    1.5395    4.6993    0.0000 C   0  0  0  0  0  0  0  0  0  0  0  0
    1.5395    3.2704    0.0000 C   0  0  0  0  0  0  0  0  0  0  0  0
    1.1270    2.5559    0.0000 C   0  0  0  0  0  0  0  0  0  0  0  0
    1.5395    1.8414    0.0000 C   0  0  0  0  0  0  0  0  0  0  0  0
    3.6020   -0.3020    0.0000 C   0  0  0  0  0  0  0  0  0  0  0  0
  1  2  1  0
  2  3  1  0
  3  4  2  0
  3 35  1  0
  4  5  1  0
  4  7  1  0
  5  6  1  0
  7  8  2  0
  8  9  1  0
  8 24  1  0
  9 10  1  0
  9 35  2  0
 10 11  1  0
 11 12  1  0
 12 13  1  0
 12 24  1  0
 13 14  2  0
 13 15  1  0
 15 16  1  0
 15 22  1  0
 16 17  1  0
 17 18  1  0
 18 19  1  0
 19 20  1  0
 19 21  2  0
 22 23  1  0
 22 25  2  0
 23 24  2  0
 25 26  1  0
 26 27  2  0
 26 33  1  0
 27 28  1  0
 27 29  1  0
 29 30  2  0
 30 31  1  0
 30 32  1  0
 32 33  2  0
 33 34  1  0
M  END
>  <DRUGBANK_ID>  (1) 
DB16157

>  <COMMON_NAME>  (1) 
Ensifentrine

>  <CAS_NUMBER>  (1) 
1884461-72-6

>  <UNII>  (1) 
3E3D8T1GIX

>  <SYNONYMS>  (1) 
Ensifentrine

$$$$
