440
     RDKit          2D

 18 18  0  0  0  0  0  0  0  0999 V2000
   -0.5880    1.1591    0.0000 C   0  0  0  0  0  0  0  0  0  0  0  0
    0.1265    0.7466    0.0000 C   0  0  0  0  0  0  0  0  0  0  0  0
   -0.5880   -0.4909    0.0000 C   0  0  0  0  0  0  0  0  0  0  0  0
   -1.3024   -0.0784    0.0000 C   0  0  0  0  0  0  0  0  0  0  0  0
   -1.3024    0.7466    0.0000 C   0  0  0  0  0  0  0  0  0  0  0  0
   -2.0169    1.1591    0.0000 O   0  0  0  0  0  0  0  0  0  0  0  0
   -2.7314    0.7466    0.0000 C   0  0  0  0  0  0  0  0  0  0  0  0
   -4.8748    1.9841    0.0000 C   0  0  0  0  0  0  0  0  0  0  0  0
   -4.1603    1.5716    0.0000 C   0  0  0  0  0  0  0  0  0  0  0  0
   -3.4458    1.1591    0.0000 C   0  0  0  0  0  0  0  0  0  0  0  0
    0.1265   -0.0784    0.0000 C   0  0  0  0  0  0  0  0  0  0  0  0
    0.4285   -1.2054    0.0000 O   0  0  0  0  0  0  0  0  0  0  0  0
    1.2535    0.2235    0.0000 O   0  0  0  0  0  0  0  0  0  0  0  0
    0.8410   -0.4909    0.0000 S   0  0  0  0  0  0  0  0  0  0  0  0
    1.5555   -0.9034    0.0000 C   0  0  0  0  0  0  0  0  0  0  0  0
    2.2699   -0.4909    0.0000 C   0  0  0  0  0  0  0  0  0  0  0  0
    2.9844   -0.9034    0.0000 C   0  0  0  0  0  0  0  0  0  0  0  0
    3.6989   -0.4909    0.0000 S   0  0  0  0  0  0  0  0  0  0  0  0
  2  1  2  0
  3  4  1  0
  3 11  2  0
  4  5  2  0
  5  6  1  0
  5  1  1  0
  6  7  1  0
  8  9  1  0
  9 10  3  0
 10  7  1  0
 11  2  1  0
 12 14  2  0
 13 14  2  0
 14 11  1  0
 14 15  1  0
 15 16  1  0
 17 18  1  0
 17 16  1  0
M  END
>  <DRUGBANK_ID>  (1) 
DB07079

>  <COMMON_NAME>  (1) 
3-{[4-(but-2-yn-1-yloxy)phenyl]sulfonyl}propane-1-thiol

$$$$
