
     RDKit          2D

 23 25  0  0  0  0  0  0  0  0999 V2000
   -1.5395    2.2836    0.0000 C   0  0  0  0  0  0  0  0  0  0  0  0
   -0.3020    4.4270    0.0000 C   0  0  0  0  0  0  0  0  0  0  0  0
   -0.7145    2.2836    0.0000 C   0  0  0  0  0  0  0  0  0  0  0  0
   -0.7145    3.7125    0.0000 C   0  0  0  0  0  0  0  0  0  0  0  0
    4.2355    3.7125    0.0000 C   0  0  0  0  0  0  0  0  0  0  0  0
    4.6480    4.4270    0.0000 C   0  0  0  0  0  0  0  0  0  0  0  0
    0.9355    3.7125    0.0000 C   0  0  0  0  0  0  0  0  0  0  0  0
    3.4105    3.7125    0.0000 C   0  0  0  0  0  0  0  0  0  0  0  0
    4.2355    5.1414    0.0000 C   0  0  0  0  0  0  0  0  0  0  0  0
    0.9355    6.5704    0.0000 C   0  0  0  0  0  0  0  0  0  0  0  0
    1.7605    6.5704    0.0000 C   0  0  0  0  0  0  0  0  0  0  0  0
    0.5230    2.9980    0.0000 C   0  0  0  0  0  0  0  0  0  0  0  0
    1.7605    3.7125    0.0000 C   0  0  0  0  0  0  0  0  0  0  0  0
    0.9355    5.1414    0.0000 C   0  0  0  0  0  0  0  0  0  0  0  0
    0.5230    5.8559    0.0000 C   0  0  0  0  0  0  0  0  0  0  0  0
    2.9980    4.4270    0.0000 C   0  0  0  0  0  0  0  0  0  0  0  0
    1.7605    5.1414    0.0000 C   0  0  0  0  0  0  0  0  0  0  0  0
    3.4105    5.1414    0.0000 C   0  0  0  0  0  0  0  0  0  0  0  0
    2.1730    5.8559    0.0000 C   0  0  0  0  0  0  0  0  0  0  0  0
   -0.3020    5.8559    0.0000 Cl  0  0  0  0  0  0  0  0  0  0  0  0
   -0.3020    2.9980    0.0000 N   0  0  0  0  0  0  0  0  0  0  0  0
    2.1730    4.4270    0.0000 N   0  0  0  0  0  0  0  0  0  0  0  0
    2.9980    5.8559    0.0000 S   0  0  0  0  0  0  0  0  0  0  0  0
  3  1  1  0
  4  2  1  0
  6  5  2  0
  8  5  1  0
  9  6  1  0
 11 10  1  0
 12  7  1  0
 13  7  1  0
 15 10  2  0
 15 14  1  0
 16  8  2  0
 17 14  2  0
 18  9  2  0
 18 16  1  0
 19 11  2  0
 19 17  1  0
 20 15  1  0
 21  3  1  0
 21  4  1  0
 21 12  1  0
 22 13  1  0
 22 16  1  0
 22 17  1  0
 23 18  1  0
 23 19  1  0
M  END
>  <DRUGBANK_ID>  (1) 
DB13382

>  <COMMON_NAME>  (1) 
Chlorproethazine

>  <CAS_NUMBER>  (1) 
84-01-5

>  <UNII>  (1) 
960NX27Z07

>  <SYNONYMS>  (1) 
Chlorproethazine

$$$$
