
     RDKit          2D

  7  6  0  0  0  0  0  0  0  0999 V2000
    0.0042    0.6138    0.0000 C   0  0  0  0  0  0  0  0  0  0  0  0
    0.7181    0.2046    0.0000 C   0  0  0  0  0  0  0  0  0  0  0  0
    1.4321    0.6179    0.0000 O   0  0  0  0  0  0  0  0  0  0  0  0
   -0.7139    0.2046    0.0000 N   0  0  0  0  0  0  0  0  0  0  0  0
   -1.4275    0.6220    0.0000 C   0  0  0  0  0  0  0  0  0  0  0  0
   -0.7186   -0.6220    0.0000 C   0  0  0  0  0  0  0  0  0  0  0  0
   -1.4321   -0.2045    0.0000 C   0  0  0  0  0  0  0  0  0  0  0  0
  1  4  1  0
  1  2  1  0
  2  3  2  0
  4  5  1  0
  4  6  1  0
  4  7  1  0
M  CHG  1   4   1
M  END
>  <DRUGBANK_ID>  (1) 
DB04401

>  <SECONDARY_ACCESSION_NUMBERS>  (1) 
EXPT00767

>  <COMMON_NAME>  (1) 
Betaine aldehyde

>  <CAS_NUMBER>  (1) 
7418-61-3

>  <UNII>  (1) 
DEI7V5X7RB

>  <SYNONYMS>  (1) 
Glycine betaine aldehyde

$$$$
