
     RDKit          2D

 33 37  0  0  0  0  0  0  0  0999 V2000
    1.7374   -0.6194    0.0000 C   0  0  0  0  0  0  0  0  0  0  0  0
    1.7415   -1.4453    0.0000 C   0  0  0  0  0  0  0  0  0  0  0  0
    0.9573   -1.7039    0.0000 N   0  0  0  0  0  0  0  0  0  0  0  0
    0.4692   -1.0365    0.0000 C   0  0  0  0  0  0  0  0  0  0  0  0
    0.9531   -0.3691    0.0000 C   0  0  0  0  0  0  0  0  0  0  0  0
   -0.3566   -1.0324    0.0000 C   0  0  0  0  0  0  0  0  0  0  0  0
   -0.7738   -1.7415    0.0000 C   0  0  0  0  0  0  0  0  0  0  0  0
   -1.5997   -1.7373    0.0000 C   0  0  0  0  0  0  0  0  0  0  0  0
   -2.0127   -1.0114    0.0000 C   0  0  0  0  0  0  0  0  0  0  0  0
   -2.8344   -1.0073    0.0000 C   0  0  0  0  0  0  0  0  0  0  0  0
   -3.2432   -0.2940    0.0000 N   0  0  0  0  0  0  0  0  0  0  0  0
   -2.8302    0.4192    0.0000 C   0  0  0  0  0  0  0  0  0  0  0  0
   -3.2349    1.1284    0.0000 C   0  0  0  0  0  0  0  0  0  0  0  0
   -4.0566    1.1367    0.0000 N   0  0  0  0  0  0  0  0  0  0  0  0
   -4.4738    0.4276    0.0000 C   0  0  0  0  0  0  0  0  0  0  0  0
   -4.0650   -0.2898    0.0000 C   0  0  0  0  0  0  0  0  0  0  0  0
   -4.4696    1.8500    0.0000 C   0  0  0  0  0  0  0  0  0  0  0  0
   -5.2955    1.8500    0.0000 C   0  0  0  0  0  0  0  0  0  0  0  0
   -1.5913   -0.2981    0.0000 C   0  0  0  0  0  0  0  0  0  0  0  0
   -0.7654   -0.3065    0.0000 C   0  0  0  0  0  0  0  0  0  0  0  0
    2.4548   -1.8583    0.0000 N   0  0  0  0  0  0  0  0  0  0  0  0
    3.1723   -1.4453    0.0000 C   0  0  0  0  0  0  0  0  0  0  0  0
    3.1723   -0.6152    0.0000 N   0  0  0  0  0  0  0  0  0  0  0  0
    2.4548   -0.2022    0.0000 C   0  0  0  0  0  0  0  0  0  0  0  0
    2.4507    0.6194    0.0000 N   0  0  0  0  0  0  0  0  0  0  0  0
    3.1598    1.0324    0.0000 C   0  0  0  0  0  0  0  0  0  0  0  0
    3.8731    0.6236    0.0000 C   0  0  0  0  0  0  0  0  0  0  0  0
    3.8689   -0.1980    0.0000 C   0  0  0  0  0  0  0  0  0  0  0  0
    4.5822   -0.6069    0.0000 C   0  0  0  0  0  0  0  0  0  0  0  0
    5.2955   -0.1939    0.0000 C   0  0  0  0  0  0  0  0  0  0  0  0
    5.2914    0.6319    0.0000 C   0  0  0  0  0  0  0  0  0  0  0  0
    4.5781    1.0366    0.0000 C   0  0  0  0  0  0  0  0  0  0  0  0
    3.1556    1.8583    0.0000 C   0  0  0  0  0  0  0  0  0  0  0  0
  2  1  2  0
  3  2  1  0
  3  4  1  0
  4  5  2  0
  5  1  1  0
  6  4  1  0
  7  6  2  0
  8  7  1  0
  9  8  2  0
  9 19  1  0
 10  9  1  0
 11 10  1  0
 12 11  1  0
 13 12  1  0
 14 13  1  0
 14 15  1  0
 15 16  1  0
 16 11  1  0
 17 14  1  0
 18 17  1  0
 19 20  2  0
 20  6  1  0
 21  2  1  0
 22 21  2  0
 23 22  1  0
 23 24  2  0
 24  1  1  0
 25 24  1  0
 26 25  1  0
 26 33  1  6
 27 26  1  0
 28 27  2  0
 29 28  1  0
 30 29  2  0
 31 30  1  0
 31 32  2  0
 32 27  1  0
M  END
>  <DRUGBANK_ID>  (1) 
DB12558

>  <COMMON_NAME>  (1) 
AEE-788

>  <CAS_NUMBER>  (1) 
497839-62-0

>  <UNII>  (1) 
F9JLR95I3I

$$$$
