UI3
     RDKit          2D

 24 26  0  0  0  0  0  0  0  0999 V2000
   -1.3014   -1.5169    0.0000 C   0  0  0  0  0  0  0  0  0  0  0  0
   -0.5869   -1.9294    0.0000 C   0  0  0  0  0  0  0  0  0  0  0  0
    0.1275   -1.5169    0.0000 C   0  0  0  0  0  0  0  0  0  0  0  0
    0.1275   -0.6919    0.0000 C   0  0  0  0  0  0  0  0  0  0  0  0
   -0.5869   -0.2794    0.0000 C   0  0  0  0  0  0  0  0  0  0  0  0
   -1.3014   -0.6919    0.0000 C   0  0  0  0  0  0  0  0  0  0  0  0
    0.8420   -1.9294    0.0000 C   0  0  0  0  0  0  0  0  0  0  0  0
    1.5565   -1.5169    0.0000 C   0  0  0  0  0  0  0  0  0  0  0  0
    1.5565   -0.6919    0.0000 C   0  0  0  0  0  0  0  0  0  0  0  0
    0.8420   -0.2794    0.0000 C   0  0  0  0  0  0  0  0  0  0  0  0
    2.2710   -0.2794    0.0000 C   0  0  0  0  0  0  0  0  0  0  0  0
    2.9854   -0.6919    0.0000 N   0  0  0  0  0  0  0  0  0  0  0  0
    2.2710    0.5456    0.0000 N   0  0  0  0  0  0  0  0  0  0  0  0
   -2.0159   -0.2794    0.0000 O   0  0  0  0  0  0  0  0  0  0  0  0
   -2.0159    0.5456    0.0000 C   0  0  0  0  0  0  0  0  0  0  0  0
   -0.5869    0.5456    0.0000 C   0  0  0  0  0  0  0  0  0  0  0  0
   -1.2544    1.0305    0.0000 C   0  0  0  0  0  0  0  0  0  0  0  0
   -0.9994    1.8151    0.0000 N   0  0  0  0  0  0  0  0  0  0  0  0
   -0.1744    1.8151    0.0000 N   0  0  0  0  0  0  0  0  0  0  0  0
    0.0805    1.0305    0.0000 C   0  0  0  0  0  0  0  0  0  0  0  0
   -1.4843    2.4826    0.0000 S   0  0  0  0  0  0  0  0  0  0  0  0
   -1.9693    3.1500    0.0000 O   0  0  0  0  0  0  0  0  0  0  0  0
   -0.8169    2.9675    0.0000 O   0  0  0  0  0  0  0  0  0  0  0  0
   -2.1518    1.9976    0.0000 C   0  0  0  0  0  0  0  0  0  0  0  0
  1  2  2  0
  1  6  1  0
  2  3  1  0
  3  4  2  0
  3  7  1  0
  4  5  1  0
  4 10  1  0
  5  6  2  0
  5 16  1  0
  6 14  1  0
  7  8  2  0
  8  9  1  0
  9 10  2  0
  9 11  1  0
 11 12  2  0
 11 13  1  0
 14 15  1  0
 16 17  2  0
 16 20  1  0
 17 18  1  0
 18 19  1  0
 18 21  1  0
 19 20  2  0
 21 22  2  0
 21 23  2  0
 21 24  1  0
M  END
>  <DRUGBANK_ID>  (1) 
DB03046

>  <SECONDARY_ACCESSION_NUMBERS>  (1) 
EXPT03180

>  <COMMON_NAME>  (1) 
7-Methoxy-8-[1-(Methylsulfonyl)-1h-Pyrazol-4-Yl]Naphthalene-2-Carboximidamide

$$$$
