
     RDKit          2D

 28 29  0  0  1  0  0  0  0  0999 V2000
    0.3323   -4.5956    0.0000 C   0  0  0  0  0  0  0  0  0  0  0  0
    1.0468   -4.1831    0.0000 C   0  0  0  0  0  0  0  0  0  0  0  0
    1.0468   -3.3581    0.0000 C   0  0  0  0  0  0  0  0  0  0  0  0
    1.7613   -4.5956    0.0000 C   0  0  0  0  0  0  0  0  0  0  0  0
    1.7613   -5.4206    0.0000 O   0  0  0  0  0  0  0  0  0  0  0  0
    2.4757   -4.1831    0.0000 O   0  0  0  0  0  0  0  0  0  0  0  0
    3.1902   -4.5956    0.0000 C   0  0  0  0  0  0  0  0  0  0  0  0
    3.9047   -4.1831    0.0000 C   0  0  0  0  0  0  0  0  0  0  0  0
    3.9909   -3.3626    0.0000 C   0  0  0  0  0  0  0  0  0  0  0  0
    4.7979   -3.1911    0.0000 C   0  0  0  0  0  0  0  0  0  0  0  0
    5.2104   -3.9056    0.0000 C   0  0  0  0  0  0  0  0  0  0  0  0
    4.6583   -4.5187    0.0000 O   0  0  0  0  0  0  0  0  0  0  0  0
    6.0309   -3.9918    0.0000 N   0  0  0  0  0  0  0  0  0  0  0  0
    6.5158   -3.3244    0.0000 C   0  0  0  0  0  0  0  0  0  0  0  0
    7.3363   -3.4106    0.0000 C   0  0  0  0  0  0  0  0  0  0  0  0
    7.6718   -4.1643    0.0000 C   0  0  0  0  0  0  0  0  0  0  0  0
    7.1869   -4.8317    0.0000 N   0  0  0  0  0  0  0  0  0  0  0  0
    6.3664   -4.7455    0.0000 C   0  0  0  0  0  0  0  0  0  0  0  0
    5.8815   -5.4129    0.0000 O   0  0  0  0  0  0  0  0  0  0  0  0
    8.4923   -4.2505    0.0000 N   0  0  0  0  0  0  0  0  0  0  0  0
    4.7202   -2.3698    0.0000 C   0  0  0  0  0  0  0  0  0  0  0  0
    5.4602   -2.6992    0.0000 F   0  0  0  0  0  0  0  0  0  0  0  0
    3.3778   -2.8106    0.0000 O   0  0  0  0  0  0  0  0  0  0  0  0
    3.5493   -2.0036    0.0000 C   0  0  0  0  0  0  0  0  0  0  0  0
    4.3340   -1.7487    0.0000 O   0  0  0  0  0  0  0  0  0  0  0  0
    2.9362   -1.4516    0.0000 C   0  0  0  0  0  0  0  0  0  0  0  0
    2.1516   -1.7065    0.0000 C   0  0  0  0  0  0  0  0  0  0  0  0
    3.1078   -0.6446    0.0000 C   0  0  0  0  0  0  0  0  0  0  0  0
  1  2  1  0
  2  3  1  0
  2  4  1  0
  4  5  2  0
  4  6  1  0
  6  7  1  0
  8  7  1  6
  8  9  1  0
  8 12  1  0
  9 10  1  0
  9 23  1  1
 10 11  1  0
 10 21  1  6
 10 22  1  0
 11 12  1  0
 11 13  1  6
 13 14  1  0
 13 18  1  0
 14 15  2  0
 15 16  1  0
 16 17  2  0
 16 20  1  0
 17 18  1  0
 18 19  2  0
 23 24  1  0
 24 25  2  0
 24 26  1  0
 26 27  1  0
 26 28  1  0
M  END
>  <DRUGBANK_ID>  (1) 
DB12045

>  <SECONDARY_ACCESSION_NUMBERS>  (1) 
DB05193

>  <COMMON_NAME>  (1) 
Mericitabine

>  <CAS_NUMBER>  (1) 
940908-79-2

>  <UNII>  (1) 
TA63JX8X52

>  <SYNONYMS>  (1) 
Mericitabine

$$$$
