
     RDKit          2D

 30 30  0  0  0  0  0  0  0  0999 V2000
   -3.2191    4.8099    0.0000 C   0  0  0  0  0  0  0  0  0  0  0  0
   -2.8066    4.0954    0.0000 C   0  0  0  0  0  0  0  0  0  0  0  0
   -1.9816    4.0954    0.0000 N   0  0  0  0  0  0  0  0  0  0  0  0
   -1.5691    4.8099    0.0000 C   0  0  0  0  0  0  0  0  0  0  0  0
   -0.7441    4.8099    0.0000 C   0  0  0  0  0  0  0  0  0  0  0  0
   -1.5691    3.3809    0.0000 C   0  0  0  0  0  0  0  0  0  0  0  0
   -0.7441    3.3809    0.0000 C   0  0  0  0  0  0  0  0  0  0  0  0
   -0.3316    2.6664    0.0000 O   0  0  0  0  0  0  0  0  0  0  0  0
    0.4934    2.6664    0.0000 C   0  0  0  0  0  0  0  0  0  0  0  0
    0.9059    3.3809    0.0000 C   0  0  0  0  0  0  0  0  0  0  0  0
    1.7309    3.3809    0.0000 C   0  0  0  0  0  0  0  0  0  0  0  0
    2.1434    2.6664    0.0000 C   0  0  0  0  0  0  0  0  0  0  0  0
    1.7309    1.9520    0.0000 C   0  0  0  0  0  0  0  0  0  0  0  0
    0.9059    1.9520    0.0000 C   0  0  0  0  0  0  0  0  0  0  0  0
    0.4934    1.2375    0.0000 O   0  0  0  0  0  0  0  0  0  0  0  0
   -0.3316    1.2375    0.0000 C   0  0  0  0  0  0  0  0  0  0  0  0
   -0.7441    0.5230    0.0000 C   0  0  0  0  0  0  0  0  0  0  0  0
   -1.5691    0.5230    0.0000 N   0  0  0  0  0  0  0  0  0  0  0  0
   -1.9816    1.2375    0.0000 C   0  0  0  0  0  0  0  0  0  0  0  0
   -2.8066    1.2375    0.0000 C   0  0  0  0  0  0  0  0  0  0  0  0
   -1.9816   -0.1914    0.0000 C   0  0  0  0  0  0  0  0  0  0  0  0
   -2.8066   -0.1914    0.0000 C   0  0  0  0  0  0  0  0  0  0  0  0
    2.1434    1.2375    0.0000 O   0  0  0  0  0  0  0  0  0  0  0  0
    2.9684    1.2375    0.0000 C   0  0  0  0  0  0  0  0  0  0  0  0
    3.3809    0.5230    0.0000 C   0  0  0  0  0  0  0  0  0  0  0  0
    4.2059    0.5230    0.0000 N   0  0  0  0  0  0  0  0  0  0  0  0
    4.6184   -0.1914    0.0000 C   0  0  0  0  0  0  0  0  0  0  0  0
    5.4434   -0.1914    0.0000 C   0  0  0  0  0  0  0  0  0  0  0  0
    4.6184    1.2375    0.0000 C   0  0  0  0  0  0  0  0  0  0  0  0
    5.4434    1.2375    0.0000 C   0  0  0  0  0  0  0  0  0  0  0  0
  1  2  1  0
  2  3  1  0
  3  4  1  0
  3  6  1  0
  4  5  1  0
  6  7  1  0
  7  8  1  0
  8  9  1  0
  9 10  2  0
  9 14  1  0
 10 11  1  0
 11 12  2  0
 12 13  1  0
 13 14  2  0
 13 23  1  0
 14 15  1  0
 15 16  1  0
 16 17  1  0
 17 18  1  0
 18 19  1  0
 18 21  1  0
 19 20  1  0
 21 22  1  0
 23 24  1  0
 24 25  1  0
 25 26  1  0
 26 27  1  0
 26 29  1  0
 27 28  1  0
 29 30  1  0
M  END
>  <DRUGBANK_ID>  (1) 
DB13584

>  <COMMON_NAME>  (1) 
Gallamine

>  <CAS_NUMBER>  (1) 
153-76-4

>  <UNII>  (1) 
1146X1WTNM

$$$$
