BGL
     RDKit          2D

 20 20  0  0  0  0  0  0  0  0999 V2000
   -2.4337    0.6377    0.0000 C   0  0  0  0  0  0  0  0  0  0  0  0
   -2.4337    1.4628    0.0000 O   0  0  0  0  0  0  0  0  0  0  0  0
   -1.7192    0.2253    0.0000 C   0  0  0  0  0  0  0  0  0  0  0  0
   -1.0048    0.6377    0.0000 O   0  0  0  0  0  0  0  0  0  0  0  0
   -1.7192   -0.5996    0.0000 C   0  0  0  0  0  0  0  0  0  0  0  0
   -1.0048   -1.0122    0.0000 O   0  0  0  0  0  0  0  0  0  0  0  0
   -2.4337   -1.0122    0.0000 C   0  0  0  0  0  0  0  0  0  0  0  0
   -2.4337   -1.8371    0.0000 O   0  0  0  0  0  0  0  0  0  0  0  0
   -3.1481   -0.5996    0.0000 C   0  0  0  0  0  0  0  0  0  0  0  0
   -3.1481    0.2253    0.0000 O   0  0  0  0  0  0  0  0  0  0  0  0
   -3.8626   -1.0122    0.0000 C   0  0  0  0  0  0  0  0  0  0  0  0
   -4.5770   -0.5996    0.0000 O   0  0  0  0  0  0  0  0  0  0  0  0
   -0.2903    0.2253    0.0000 C   0  0  0  0  0  0  0  0  0  0  0  0
    0.4241    0.6377    0.0000 C   0  0  0  0  0  0  0  0  0  0  0  0
    1.1386    0.2253    0.0000 C   0  0  0  0  0  0  0  0  0  0  0  0
    1.8530    0.6377    0.0000 C   0  0  0  0  0  0  0  0  0  0  0  0
    2.5676    0.2253    0.0000 C   0  0  0  0  0  0  0  0  0  0  0  0
    3.2819    0.6377    0.0000 C   0  0  0  0  0  0  0  0  0  0  0  0
    3.9964    0.2253    0.0000 C   0  0  0  0  0  0  0  0  0  0  0  0
    4.7110    0.6377    0.0000 C   0  0  0  0  0  0  0  0  0  0  0  0
  1  2  1  1
  1  3  1  0
  1 10  1  0
  3  4  1  6
  3  5  1  0
  4 13  1  0
  5  6  1  1
  5  7  1  0
  7  8  1  6
  7  9  1  0
  9 10  1  0
  9 11  1  1
 11 12  1  0
 13 14  1  0
 14 15  1  0
 15 16  1  0
 16 17  1  0
 17 18  1  0
 18 19  1  0
 19 20  1  0
M  END
>  <DRUGBANK_ID>  (1) 
DB03152

>  <SECONDARY_ACCESSION_NUMBERS>  (1) 
EXPT00687

>  <COMMON_NAME>  (1) 
B-2-Octylglucoside

$$$$
