
     RDKit          2D

 16 15  0  0  1  0  0  0  0  0999 V2000
    3.9482    1.9393    0.0000 C   0  0  0  0  0  0  0  0  0  0  0  0
    4.7143    1.6331    0.0000 C   0  0  0  0  0  0  0  0  0  0  0  0
    4.8321    0.8165    0.0000 O   0  0  0  0  0  0  0  0  0  0  0  0
    5.3625    2.1434    0.0000 O   0  0  0  0  0  0  0  0  0  0  0  0
    6.1286    1.8372    0.0000 C   0  0  0  0  0  0  0  0  0  0  0  0
    6.7768    2.3475    0.0000 C   0  0  0  0  0  0  0  0  0  0  0  0
    6.6589    3.1641    0.0000 O   0  0  0  0  0  0  0  0  0  0  0  0
    7.5429    2.0413    0.0000 C   0  0  0  0  0  0  0  0  0  0  0  0
    8.1911    2.5517    0.0000 O   0  0  0  0  0  0  0  0  0  0  0  0
    8.9571    2.2455    0.0000 P   0  0  0  0  0  0  0  0  0  0  0  0
    8.6509    1.4794    0.0000 O   0  0  0  0  0  0  0  0  0  0  0  0
    9.2633    3.0116    0.0000 O   0  0  0  0  0  0  0  0  0  0  0  0
    9.7232    1.9393    0.0000 O   0  0  0  0  0  0  0  0  0  0  0  0
   10.3714    2.4496    0.0000 C   0  0  0  0  0  0  0  0  0  0  0  0
   11.1375    2.1434    0.0000 C   0  0  0  0  0  0  0  0  0  0  0  0
   11.7857    2.6537    0.0000 N   0  0  0  0  0  0  0  0  0  0  0  0
  1  2  1  0
  2  3  2  0
  2  4  1  0
  4  5  1  0
  5  6  1  0
  6  7  1  6
  6  8  1  0
  8  9  1  0
 10  9  1  0
 10 11  1  0
 10 12  2  0
 10 13  1  0
 13 14  1  0
 14 15  1  0
 15 16  1  0
M  CHG  1  16   1
M  END
>  <DRUGBANK_ID>  (1) 
DB04731

>  <COMMON_NAME>  (1) 
1-ACETYL-2-LYSO-SN-GLYCERO-3-PHOSPHOETHANOLAMINE

$$$$
