
     RDKit          2D

 27 31  0  0  0  0  0  0  0  0999 V2000
    3.4911   -2.0223    0.0000 C   0  0  0  0  0  0  0  0  0  0  0  0
    2.7743   -2.4307    0.0000 C   0  0  0  0  0  0  0  0  0  0  0  0
    2.0622   -2.0143    0.0000 C   0  0  0  0  0  0  0  0  0  0  0  0
    2.0668   -1.1892    0.0000 C   0  0  0  0  0  0  0  0  0  0  0  0
    2.7836   -0.7808    0.0000 C   0  0  0  0  0  0  0  0  0  0  0  0
    3.4957   -1.1974    0.0000 N   0  0  0  0  0  0  0  0  0  0  0  0
    1.3547   -0.7727    0.0000 C   0  0  0  0  0  0  0  0  0  0  0  0
    0.6379   -1.1813    0.0000 C   0  0  0  0  0  0  0  0  0  0  0  0
    0.1837   -1.8699    0.0000 N   0  0  0  0  0  0  0  0  0  0  0  0
   -0.8226   -1.5774    0.0000 C   0  0  0  0  0  0  0  0  0  0  0  0
   -1.4581   -1.7294    0.0000 C   0  0  0  0  0  0  0  0  0  0  0  0
   -0.5775   -1.8998    0.0000 C   0  0  0  0  0  0  0  0  0  0  0  0
   -0.1392   -1.2188    0.0000 C   0  0  0  0  0  0  0  0  0  0  0  0
   -0.5517   -0.5043    0.0000 N   0  0  0  0  0  0  0  0  0  0  0  0
    0.4139   -2.7533    0.0000 C   0  0  0  0  0  0  0  0  0  0  0  0
   -0.3490   -2.7471    0.0000 C   0  0  0  0  0  0  0  0  0  0  0  0
   -1.3767   -0.5043    0.0000 C   0  0  0  0  0  0  0  0  0  0  0  0
   -1.7892   -1.2188    0.0000 O   0  0  0  0  0  0  0  0  0  0  0  0
   -1.7892    0.2101    0.0000 C   0  0  0  0  0  0  0  0  0  0  0  0
   -1.4536    0.9637    0.0000 C   0  0  0  0  0  0  0  0  0  0  0  0
   -2.6097    0.2963    0.0000 O   0  0  0  0  0  0  0  0  0  0  0  0
   -2.7812    1.1033    0.0000 C   0  0  0  0  0  0  0  0  0  0  0  0
   -2.0667    1.5158    0.0000 C   0  0  0  0  0  0  0  0  0  0  0  0
   -3.4957    1.5158    0.0000 C   0  0  0  0  0  0  0  0  0  0  0  0
   -3.4957    2.3408    0.0000 C   0  0  0  0  0  0  0  0  0  0  0  0
   -2.7812    2.7533    0.0000 C   0  0  0  0  0  0  0  0  0  0  0  0
   -2.0667    2.3408    0.0000 C   0  0  0  0  0  0  0  0  0  0  0  0
  1  2  2  0
  1  6  1  0
  2  3  1  0
  3  4  2  0
  4  5  1  0
  4  7  1  0
  5  6  2  0
  8  7  1  6
  9  8  1  0
  9 10  1  0
  9 15  1  0
 10 11  1  0
 11 12  1  0
 12 13  1  0
 13  8  1  0
 13 14  1  1
 14 17  1  0
 15 16  1  0
 16 12  1  0
 17 18  2  0
 17 19  1  0
 19 21  1  0
 20 19  2  0
 20 23  1  0
 21 22  1  0
 22 24  2  0
 23 27  2  0
 23 22  1  0
 24 25  1  0
 25 26  2  0
 26 27  1  0
M  END
>  <DRUGBANK_ID>  (1) 
DB06090

>  <COMMON_NAME>  (1) 
Bradanicline

>  <CAS_NUMBER>  (1) 
639489-84-2

>  <UNII>  (1) 
UM3821998K

>  <SYNONYMS>  (1) 
Bradanicline

$$$$
