
     RDKit          2D

 27 26  0  0  0  0  0  0  0  0999 V2000
    4.2868    2.0921    0.0000 C   0  0  0  0  0  0  0  0  0  0  0  0
    4.2868    1.2671    0.0000 C   0  0  0  0  0  0  0  0  0  0  0  0
    3.5724    0.8546    0.0000 C   0  0  0  0  0  0  0  0  0  0  0  0
    3.5724    0.0296    0.0000 C   0  0  0  0  0  0  0  0  0  0  0  0
    4.2868   -0.3829    0.0000 C   0  0  0  0  0  0  0  0  0  0  0  0
    4.2868   -1.2079    0.0000 C   0  0  0  0  0  0  0  0  0  0  0  0
    3.5724   -1.6204    0.0000 C   0  0  0  0  0  0  0  0  0  0  0  0
    2.8579   -1.2079    0.0000 C   0  0  0  0  0  0  0  0  0  0  0  0
    2.8579   -0.3829    0.0000 C   0  0  0  0  0  0  0  0  0  0  0  0
    2.1434    0.0296    0.0000 C   0  0  0  0  0  0  0  0  0  0  0  0
    1.4289   -0.3829    0.0000 C   0  0  0  0  0  0  0  0  0  0  0  0
    0.7145    0.0296    0.0000 C   0  0  0  0  0  0  0  0  0  0  0  0
    0.0000   -0.3829    0.0000 C   0  0  0  0  0  0  0  0  0  0  0  0
   -0.0000   -1.2079    0.0000 C   0  0  0  0  0  0  0  0  0  0  0  0
   -0.7145   -1.6204    0.0000 C   0  0  0  0  0  0  0  0  0  0  0  0
   -0.7145   -2.4454    0.0000 C   0  0  0  0  0  0  0  0  0  0  0  0
   -0.0000   -2.8579    0.0000 C   0  0  0  0  0  0  0  0  0  0  0  0
   -0.0000   -3.6829    0.0000 C   0  0  0  0  0  0  0  0  0  0  0  0
    0.7145   -4.0954    0.0000 C   0  0  0  0  0  0  0  0  0  0  0  0
    1.4289   -3.6829    0.0000 C   0  0  0  0  0  0  0  0  0  0  0  0
    2.1434   -4.0954    0.0000 O   0  0  0  0  0  0  0  0  0  0  0  0
    2.8579   -3.6829    0.0000 C   0  0  0  0  0  0  0  0  0  0  0  0
    3.5724   -4.0954    0.0000 C   0  0  0  0  0  0  0  0  0  0  0  0
    4.2868   -3.6829    0.0000 C   0  0  0  0  0  0  0  0  0  0  0  0
    2.8579   -2.8579    0.0000 C   0  0  0  0  0  0  0  0  0  0  0  0
    2.1434   -2.4454    0.0000 O   0  0  0  0  0  0  0  0  0  0  0  0
    3.5724   -2.4454    0.0000 O   0  0  0  0  0  0  0  0  0  0  0  0
  1  2  1  0
  2  3  1  0
  3  4  2  0
  4  5  1  0
  5  6  1  0
  6  7  2  0
  7  8  1  0
  8  9  1  0
  9 10  2  0
 10 11  1  0
 11 12  1  0
 12 13  2  0
 13 14  1  0
 14 15  1  0
 15 16  2  0
 16 17  1  0
 17 18  1  0
 18 19  1  0
 19 20  1  0
 20 21  1  0
 21 22  1  0
 22 23  1  0
 22 25  1  0
 23 24  1  0
 25 26  2  0
 25 27  1  0
M  END
>  <DRUGBANK_ID>  (1) 
DB12990

>  <COMMON_NAME>  (1) 
Icosabutate

>  <CAS_NUMBER>  (1) 
1253909-57-7

>  <UNII>  (1) 
562599X5JL

>  <SYNONYMS>  (1) 
Icosabutate

$$$$
