
     RDKit          2D

 12  9  0  0  0  0  0  0  0  0999 V2000
   -0.9552    1.1032    0.0000 O   0  0  0  0  0  0  0  0  0  0  0  0
   -0.9552    0.2781    0.0000 P   0  0  0  0  0  0  0  0  0  0  0  0
   -0.9552   -0.5469    0.0000 O   0  0  0  0  0  0  0  0  0  0  0  0
   -0.1301    0.2781    0.0000 O   0  0  0  0  0  0  0  0  0  0  0  0
    0.2823   -0.4364    0.0000 C   0  0  0  0  0  0  0  0  0  0  0  0
    1.1032   -0.4364    0.0000 C   0  0  0  0  0  0  0  0  0  0  0  0
    1.5161    0.2778    0.0000 O   0  0  0  0  0  0  0  0  0  0  0  0
    1.5164   -1.1538    0.0000 C   0  0  0  0  0  0  0  0  0  0  0  0
    2.3372   -1.1538    0.0000 O   0  0  0  0  0  0  0  0  0  0  0  0
   -1.7803    0.2840    0.0000 O   0  0  0  0  0  0  0  0  0  0  0  0
   -0.4327    1.1538    0.0000 K   0  0  0  0  0 15  0  0  0  0  0  0
   -2.3372    0.2531    0.0000 K   0  0  0  0  0 15  0  0  0  0  0  0
  1  2  1  0
  2  3  2  0
  2  4  1  0
  2 10  1  0
  4  5  1  0
  5  6  1  0
  6  7  1  0
  6  8  1  0
  8  9  1  0
M  CHG  4   1  -1  10  -1  11   1  12   1
M  END
>  <DRUGBANK_ID>  (1) 
DB15948

>  <COMMON_NAME>  (1) 
Potassium glycerophosphate

>  <CAS_NUMBER>  (1) 
1319-69-3

>  <UNII>  (1) 
6ZC849M884

>  <SYNONYMS>  (1) 
Potassium glycerophosphate anhydrous

$$$$
