87Y
     RDKit          2D

 23 25  0  0  0  0  0  0  0  0999 V2000
   -3.0702    0.1175    0.0000 N   0  0  0  0  0  0  0  0  0  0  0  0
   -2.3557    0.5300    0.0000 C   0  0  0  0  0  0  0  0  0  0  0  0
   -2.3557    1.3550    0.0000 O   0  0  0  0  0  0  0  0  0  0  0  0
   -1.6412    0.1175    0.0000 C   0  0  0  0  0  0  0  0  0  0  0  0
   -0.9267    0.5300    0.0000 N   0  0  0  0  0  0  0  0  0  0  0  0
   -0.2123    0.1175    0.0000 C   0  0  0  0  0  0  0  0  0  0  0  0
    0.5022    0.5300    0.0000 C   0  0  0  0  0  0  0  0  0  0  0  0
    0.5022    1.3550    0.0000 O   0  0  0  0  0  0  0  0  0  0  0  0
   -0.2123   -0.7075    0.0000 C   0  0  0  0  0  0  0  0  0  0  0  0
    0.6002   -0.5642    0.0000 C   0  0  0  0  0  0  0  0  0  0  0  0
    0.0699   -1.4827    0.0000 C   0  0  0  0  0  0  0  0  0  0  0  0
   -0.9267   -1.1200    0.0000 N   0  0  0  0  0  0  0  0  0  0  0  0
   -1.6412   -0.7075    0.0000 C   0  0  0  0  0  0  0  0  0  0  0  0
   -2.3557   -1.1200    0.0000 N   0  0  0  0  0  0  0  0  0  0  0  0
   -3.0702   -0.7075    0.0000 C   0  0  0  0  0  0  0  0  0  0  0  0
   -3.7846   -1.1200    0.0000 N   0  0  0  0  0  0  0  0  0  0  0  0
    0.8824    0.2110    0.0000 C   0  0  0  0  0  0  0  0  0  0  0  0
    1.6948    0.3543    0.0000 C   0  0  0  0  0  0  0  0  0  0  0  0
    1.9770    1.1295    0.0000 C   0  0  0  0  0  0  0  0  0  0  0  0
    2.7895    1.2728    0.0000 C   0  0  0  0  0  0  0  0  0  0  0  0
    3.3198    0.6408    0.0000 C   0  0  0  0  0  0  0  0  0  0  0  0
    3.0376   -0.1344    0.0000 C   0  0  0  0  0  0  0  0  0  0  0  0
    2.2251   -0.2777    0.0000 C   0  0  0  0  0  0  0  0  0  0  0  0
  1  2  1  0
  1 15  1  0
  2  3  2  0
  2  4  1  0
  4  5  1  0
  4 13  2  0
  5  6  2  0
  6  7  1  0
  6  9  1  0
  7  8  1  0
  9 10  1  0
  9 11  1  1
  9 12  1  0
 10 17  1  0
 12 13  1  0
 13 14  1  0
 14 15  2  0
 15 16  1  0
 17 18  1  0
 18 19  2  0
 18 23  1  0
 19 20  1  0
 20 21  2  0
 21 22  1  0
 22 23  2  0
M  END
>  <DRUGBANK_ID>  (1) 
DB04610

>  <COMMON_NAME>  (1) 
7,8-dihydro-6-hydroxymethyl-7-methyl-7-[2-phenylethyl]-pterin

$$$$
