
     RDKit          2D

  8  7  0  0  1  0  0  0  0  0999 V2000
    2.0625    0.7145    0.0000 C   0  0  0  0  0  0  0  0  0  0  0  0
    1.2375    2.1434    0.0000 C   0  0  0  0  0  0  0  0  0  0  0  0
   -0.0000    1.4289    0.0000 C   0  0  0  0  0  0  0  0  0  0  0  0
    1.2375    0.7145    0.0000 C   0  0  0  0  0  0  0  0  0  0  0  0
    0.8250    0.0000    0.0000 C   0  0  0  0  0  0  0  0  0  0  0  0
    0.8250    1.4289    0.0000 N   0  0  0  0  0  0  0  0  0  0  0  0
    1.2375   -0.7145    0.0000 O   0  0  0  0  0  0  0  0  0  0  0  0
    0.0000    0.0000    0.0000 O   0  0  0  0  0  0  0  0  0  0  0  0
  4  1  1  1
  5  4  1  0
  6  2  1  0
  6  3  1  0
  6  4  1  0
  7  5  2  0
  8  5  1  0
M  END
>  <DRUGBANK_ID>  (1) 
DB02167

>  <SECONDARY_ACCESSION_NUMBERS>  (1) 
EXPT02000

>  <COMMON_NAME>  (1) 
N,N-Dimethyl-L-Alanine

$$$$
