
     RDKit          2D

 16 17  0  0  0  0  0  0  0  0999 V2000
   -1.0716   -2.0625    0.0000 C   0  0  0  0  0  0  0  0  0  0  0  0
   -1.0716   -1.2375    0.0000 C   0  0  0  0  0  0  0  0  0  0  0  0
   -1.7861   -0.8250    0.0000 C   0  0  0  0  0  0  0  0  0  0  0  0
   -1.7861    0.0000    0.0000 C   0  0  0  0  0  0  0  0  0  0  0  0
   -1.0716    0.4125    0.0000 C   0  0  0  0  0  0  0  0  0  0  0  0
   -0.3571    0.0000    0.0000 C   0  0  0  0  0  0  0  0  0  0  0  0
    0.3572    0.4125    0.0000 C   0  0  0  0  0  0  0  0  0  0  0  0
    0.3572    1.2375    0.0000 C   0  0  0  0  0  0  0  0  0  0  0  0
    1.0717    1.6500    0.0000 C   0  0  0  0  0  0  0  0  0  0  0  0
    1.7861    1.2375    0.0000 O   0  0  0  0  0  0  0  0  0  0  0  0
    1.0717    2.4750    0.0000 O   0  0  0  0  0  0  0  0  0  0  0  0
   -0.3572    1.6500    0.0000 N   0  0  0  0  0  0  0  0  0  0  0  0
   -0.3571   -0.8250    0.0000 C   0  0  0  0  0  0  0  0  0  0  0  0
    0.3572   -1.2375    0.0000 C   0  0  0  0  0  0  0  0  0  0  0  0
    0.3572   -2.0625    0.0000 C   0  0  0  0  0  0  0  0  0  0  0  0
   -0.3571   -2.4750    0.0000 C   0  0  0  0  0  0  0  0  0  0  0  0
  2  1  2  0
  2  3  1  0
  3  4  2  0
  4  5  1  0
  5  6  2  0
  6  7  1  0
  6 13  1  0
  8  7  1  0
  8  9  1  0
  9 11  2  0
 10  9  1  0
  8 12  1  6
 13  2  1  0
 13 14  2  0
 14 15  1  0
 15 16  2  0
 16  1  1  0
M  END
>  <DRUGBANK_ID>  (1) 
DB07365

>  <COMMON_NAME>  (1) 
1-Naphthyl-L-alanine

>  <CAS_NUMBER>  (1) 
55516-54-6

>  <UNII>  (1) 
9G930UL92R

>  <SYNONYMS>  (1) 
(S)-2-Amino-3-(naphthalen-1-yl)propanoic acid; L-beta-(1-Naphthyl)alanine; Naphthalen-2-yl-3-alanine

$$$$
