
     RDKit          2D

 40 44  0  0  0  0  0  0  0  0999 V2000
    0.5756    1.2773    0.0000 P   0  0  0  0  0  0  0  0  0  0  0  0
    0.0436   -1.5716    0.0000 O   0  0  0  0  0  0  0  0  0  0  0  0
    1.4203    3.8931    0.0000 O   0  0  0  0  0  0  0  0  0  0  0  0
    0.3220    2.0623    0.0000 O   0  0  0  0  0  0  0  0  0  0  0  0
    0.8292    0.4921    0.0000 O   0  0  0  0  0  0  0  0  0  0  0  0
    1.9822   -0.6775    0.0000 O   0  0  0  0  0  0  0  0  0  0  0  0
    1.9791   -2.4725    0.0000 O   0  0  0  0  0  0  0  0  0  0  0  0
    2.1068    1.8716    0.0000 O   0  0  0  0  0  0  0  0  0  0  0  0
    3.0960    4.2944    0.0000 O   0  0  0  0  0  0  0  0  0  0  0  0
    1.3608    1.5309    0.0000 O   0  0  0  0  0  0  0  0  0  0  0  0
   -0.2093    1.0237    0.0000 O   0  0  0  0  0  0  0  0  0  0  0  0
    0.5354    5.1232    0.0000 O   0  0  0  0  0  0  0  0  0  0  0  0
   -1.2240   -5.3381    0.0000 O   0  0  0  0  0  0  0  0  0  0  0  0
    0.2710   -3.0241    0.0000 N   0  0  0  0  0  0  0  0  0  0  0  0
   -0.0480    3.8187    0.0000 N   0  0  0  0  0  0  0  0  0  0  0  0
   -1.2240   -2.8631    0.0000 N   0  0  0  0  0  0  0  0  0  0  0  0
    0.2710   -4.3520    0.0000 N   0  0  0  0  0  0  0  0  0  0  0  0
   -0.8860    4.9762    0.0000 N   0  0  0  0  0  0  0  0  0  0  0  0
   -1.9384   -4.1007    0.0000 N   0  0  0  0  0  0  0  0  0  0  0  0
   -2.6531   -2.8631    0.0000 N   0  0  0  0  0  0  0  0  0  0  0  0
   -2.3074    4.8293    0.0000 N   0  0  0  0  0  0  0  0  0  0  0  0
    0.8752    2.6746    0.0000 C   0  0  0  0  0  0  0  0  0  0  0  0
    0.5297   -0.9051    0.0000 C   0  0  0  0  0  0  0  0  0  0  0  0
    1.3139   -1.1613    0.0000 C   0  0  0  0  0  0  0  0  0  0  0  0
    1.3125   -1.9863    0.0000 C   0  0  0  0  0  0  0  0  0  0  0  0
    0.5274   -2.2399    0.0000 C   0  0  0  0  0  0  0  0  0  0  0  0
    1.6956    2.5869    0.0000 C   0  0  0  0  0  0  0  0  0  0  0  0
    0.7050    3.4818    0.0000 C   0  0  0  0  0  0  0  0  0  0  0  0
    2.0324    3.3400    0.0000 C   0  0  0  0  0  0  0  0  0  0  0  0
    0.2761   -0.1199    0.0000 C   0  0  0  0  0  0  0  0  0  0  0  0
    2.8397    3.5101    0.0000 C   0  0  0  0  0  0  0  0  0  0  0  0
   -0.5095   -3.2756    0.0000 C   0  0  0  0  0  0  0  0  0  0  0  0
    0.7525   -3.6881    0.0000 C   0  0  0  0  0  0  0  0  0  0  0  0
   -0.7163    3.3349    0.0000 C   0  0  0  0  0  0  0  0  0  0  0  0
   -0.5095   -4.1007    0.0000 C   0  0  0  0  0  0  0  0  0  0  0  0
   -0.1329    4.6394    0.0000 C   0  0  0  0  0  0  0  0  0  0  0  0
   -1.4694    3.6717    0.0000 C   0  0  0  0  0  0  0  0  0  0  0  0
   -1.2240   -4.5132    0.0000 C   0  0  0  0  0  0  0  0  0  0  0  0
   -1.9384   -3.2756    0.0000 C   0  0  0  0  0  0  0  0  0  0  0  0
   -1.5542    4.4925    0.0000 C   0  0  0  0  0  0  0  0  0  0  0  0
  1  4  1  0
  1  5  1  0
  1 10  1  0
  1 11  2  0
  2 23  1  0
  2 26  1  0
  3 28  1  0
  3 29  1  0
  5 30  1  0
  9 31  1  0
 12 36  2  0
 13 38  2  0
 14 32  1  0
 14 33  1  0
 15 34  1  0
 15 36  1  0
 16 32  1  0
 16 39  1  0
 17 33  2  0
 17 35  1  0
 18 36  1  0
 18 40  2  0
 19 38  1  0
 19 39  2  0
 20 39  1  0
 21 40  1  0
 22  4  1  1
 22 27  1  0
 22 28  1  0
 23 24  1  0
 23 30  1  6
 24  6  1  1
 24 25  1  0
 25  7  1  1
 25 26  1  0
 26 14  1  6
 27  8  1  1
 27 29  1  0
 28 15  1  6
 29 31  1  6
 32 35  2  0
 34 37  2  0
 35 38  1  0
 37 40  1  0
M  END
>  <DRUGBANK_ID>  (1) 
DB03638

>  <SECONDARY_ACCESSION_NUMBERS>  (1) 
EXPT00898

>  <COMMON_NAME>  (1) 
Cytidyl-2'-5'-phospho-guanosine

$$$$
