IPE
     RDKit          2D

 14 13  0  0  0  0  0  0  0  0999 V2000
    1.1926    0.1259    0.0000 C   0  0  0  0  0  0  0  0  0  0  0  0
    0.4780   -0.2866    0.0000 O   0  0  0  0  0  0  0  0  0  0  0  0
    1.9070   -0.2866    0.0000 C   0  0  0  0  0  0  0  0  0  0  0  0
    2.6216    0.1259    0.0000 C   0  0  0  0  0  0  0  0  0  0  0  0
    3.3361   -0.2866    0.0000 C   0  0  0  0  0  0  0  0  0  0  0  0
    2.6216    0.9510    0.0000 C   0  0  0  0  0  0  0  0  0  0  0  0
   -0.2365    0.1259    0.0000 P   0  0  0  0  0  0  0  0  0  0  0  0
    0.1760    0.8404    0.0000 O   0  0  0  0  0  0  0  0  0  0  0  0
   -0.6490   -0.5886    0.0000 O   0  0  0  0  0  0  0  0  0  0  0  0
   -0.9511    0.5384    0.0000 O   0  0  0  0  0  0  0  0  0  0  0  0
   -1.6655    0.1259    0.0000 P   0  0  0  0  0  0  0  0  0  0  0  0
   -2.3801   -0.2866    0.0000 O   0  0  0  0  0  0  0  0  0  0  0  0
   -2.0781    0.8404    0.0000 O   0  0  0  0  0  0  0  0  0  0  0  0
   -1.2530   -0.5886    0.0000 O   0  0  0  0  0  0  0  0  0  0  0  0
  1  2  1  0
  1  3  1  0
  3  4  1  0
  4  5  2  0
  4  6  1  0
  7  2  1  0
  7  8  2  0
  7  9  1  0
  7 10  1  0
 10 11  1  0
 11 12  1  0
 11 13  2  0
 11 14  1  0
M  END
>  <DRUGBANK_ID>  (1) 
DB04714

>  <COMMON_NAME>  (1) 
ISOPENTENYL PYROPHOSPHATE

>  <UNII>  (1) 
LSC8849M7B

$$$$
