BTO
     RDKit          2D

 20 21  0  0  0  0  0  0  0  0999 V2000
   -3.8900   -0.0604    0.0000 C   0  0  0  0  0  0  0  0  0  0  0  0
   -4.3749   -0.7279    0.0000 C   0  0  0  0  0  0  0  0  0  0  0  0
   -4.0394   -1.4816    0.0000 C   0  0  0  0  0  0  0  0  0  0  0  0
   -3.2189   -1.5678    0.0000 C   0  0  0  0  0  0  0  0  0  0  0  0
   -2.7340   -0.9004    0.0000 C   0  0  0  0  0  0  0  0  0  0  0  0
   -3.0695   -0.1467    0.0000 C   0  0  0  0  0  0  0  0  0  0  0  0
   -4.5243   -2.1490    0.0000 N   0  0  0  0  0  0  0  0  0  0  0  0
   -5.3448   -2.0628    0.0000 O   0  0  0  0  0  0  0  0  0  0  0  0
   -4.1887   -2.9027    0.0000 O   0  0  0  0  0  0  0  0  0  0  0  0
   -1.9135   -0.9866    0.0000 C   0  0  0  0  0  0  0  0  0  0  0  0
   -1.3615   -0.3735    0.0000 N   0  0  0  0  0  0  0  0  0  0  0  0
   -0.6078   -0.7091    0.0000 C   0  0  0  0  0  0  0  0  0  0  0  0
    0.1067   -0.2966    0.0000 C   0  0  0  0  0  0  0  0  0  0  0  0
    0.8212   -0.7091    0.0000 C   0  0  0  0  0  0  0  0  0  0  0  0
    1.5356   -0.2966    0.0000 C   0  0  0  0  0  0  0  0  0  0  0  0
    2.2501   -0.7091    0.0000 C   0  0  0  0  0  0  0  0  0  0  0  0
    2.9646   -0.2966    0.0000 O   0  0  0  0  0  0  0  0  0  0  0  0
    2.2501   -1.5341    0.0000 O   0  0  0  0  0  0  0  0  0  0  0  0
   -0.6940   -1.5295    0.0000 O   0  0  0  0  0  0  0  0  0  0  0  0
   -1.5010   -1.7011    0.0000 N   0  0  0  0  0  0  0  0  0  0  0  0
  1  6  2  0
  1  2  1  0
  2  3  2  0
  3  4  1  0
  3  7  1  0
  4  5  2  0
  5 10  1  0
  5  6  1  0
  7  8  1  0
  7  9  2  0
 10 11  1  0
 10 20  2  0
 11 12  2  0
 12 13  1  0
 12 19  1  0
 13 14  1  0
 14 15  1  0
 15 16  1  0
 16 17  2  0
 16 18  1  0
 19 20  1  0
M  CHG  2   7   1   8  -1
M  END
>  <DRUGBANK_ID>  (1) 
DB07498

>  <COMMON_NAME>  (1) 
4-[3-(3-NITROPHENYL)-1,2,4-OXADIAZOL-5-YL]BUTANOIC ACID

$$$$
