
     RDKit          2D

 26 27  0  0  0  0  0  0  0  0999 V2000
   -1.7361   -0.6195    0.0000 N   0  0  0  0  0  0  0  0  0  0  0  0
   -1.0127   -0.2036    0.0000 C   0  0  0  0  0  0  0  0  0  0  0  0
   -1.0127    0.6236    0.0000 N   0  0  0  0  0  0  0  0  0  0  0  0
   -1.7361   -1.7921    0.0000 C   0  0  0  0  0  0  0  0  0  0  0  0
   -2.4389   -0.2036    0.0000 C   0  0  0  0  0  0  0  0  0  0  0  0
   -2.4389    0.6236    0.0000 N   0  0  0  0  0  0  0  0  0  0  0  0
   -1.7278    1.0353    0.0000 C   0  0  0  0  0  0  0  0  0  0  0  0
   -2.5220   -1.3471    0.0000 O   0  0  0  0  0  0  0  0  0  0  0  0
   -2.0397   -2.3950    0.0000 C   0  0  0  0  0  0  0  0  0  0  0  0
   -3.0210   -2.3950    0.0000 C   0  0  0  0  0  0  0  0  0  0  0  0
   -3.3121   -1.7961    0.0000 C   0  0  0  0  0  0  0  0  0  0  0  0
   -3.4586   -3.0944    0.0000 O   0  0  0  0  0  0  0  0  0  0  0  0
   -0.3015   -0.6195    0.0000 O   0  0  0  0  0  0  0  0  0  0  0  0
   -1.7278    1.8586    0.0000 N   0  0  0  0  0  0  0  0  0  0  0  0
   -4.1000   -1.5518    0.0000 C   0  0  0  0  0  0  0  0  0  0  0  0
   -4.7058   -2.1120    0.0000 O   0  0  0  0  0  0  0  0  0  0  0  0
   -1.0102    2.2692    0.0000 C   0  0  0  0  0  0  0  0  0  0  0  0
   -1.0102    3.0944    0.0000 O   0  0  0  0  0  0  0  0  0  0  0  0
   -0.2958    1.8567    0.0000 O   0  0  0  0  0  0  0  0  0  0  0  0
    0.4187    2.2692    0.0000 C   0  0  0  0  0  0  0  0  0  0  0  0
    1.1332    1.8567    0.0000 C   0  0  0  0  0  0  0  0  0  0  0  0
    1.8477    2.2692    0.0000 C   0  0  0  0  0  0  0  0  0  0  0  0
    2.5623    1.8567    0.0000 C   0  0  0  0  0  0  0  0  0  0  0  0
    3.2768    2.2692    0.0000 C   0  0  0  0  0  0  0  0  0  0  0  0
    3.9913    1.8567    0.0000 C   0  0  0  0  0  0  0  0  0  0  0  0
    4.7058    2.2692    0.0000 C   0  0  0  0  0  0  0  0  0  0  0  0
  2  1  1  0
  3  2  1  0
  3  7  2  0
  4  1  1  1
  5  1  1  0
  6  5  1  0
  7  6  1  0
  8  4  1  0
  9  4  1  0
 10  9  1  0
 10 12  1  6
 11  8  1  0
 11 15  1  1
 11 10  1  0
 13  2  2  0
 14  7  1  0
 14 17  1  0
 16 15  1  0
 17 18  2  0
 17 19  1  0
 19 20  1  0
 20 21  1  0
 21 22  1  0
 22 23  1  0
 23 24  1  0
 24 25  1  0
 25 26  1  0
M  END
>  <DRUGBANK_ID>  (1) 
DB05644

>  <COMMON_NAME>  (1) 
KP-1461

>  <CAS_NUMBER>  (1) 
815588-85-3

>  <UNII>  (1) 
3PEN569TJP

$$$$
