
     RDKit          2D

 20 24  0  0  0  0  0  0  0  0999 V2000
    0.4120   -0.6777    0.0000 C   0  0  0  0  0  0  0  0  0  0  0  0
   -0.4120   -0.6777    0.0000 C   0  0  0  0  0  0  0  0  0  0  0  0
    0.8303    0.0334    0.0000 C   0  0  0  0  0  0  0  0  0  0  0  0
   -0.8135   -1.3845    0.0000 C   0  0  0  0  0  0  0  0  0  0  0  0
    0.8177   -1.3845    0.0000 C   0  0  0  0  0  0  0  0  0  0  0  0
   -0.0355   -1.8739    0.0000 O   0  0  0  0  0  0  0  0  0  0  0  0
    0.3910    0.7487    0.0000 C   0  0  0  0  0  0  0  0  0  0  0  0
   -0.8135    0.0334    0.0000 C   0  0  0  0  0  0  0  0  0  0  0  0
    1.6543    0.0334    0.0000 C   0  0  0  0  0  0  0  0  0  0  0  0
   -0.4120    0.7487    0.0000 C   0  0  0  0  0  0  0  0  0  0  0  0
    0.4120    1.5769    0.0000 N   0  0  0  0  0  0  0  0  0  0  0  0
   -0.0105    0.0376    0.0000 C   0  0  0  0  0  0  0  0  0  0  0  0
    2.0685   -0.6819    0.0000 C   0  0  0  0  0  0  0  0  0  0  0  0
    1.6459   -1.3971    0.0000 C   0  0  0  0  0  0  0  0  0  0  0  0
   -1.6417   -1.3845    0.0000 C   0  0  0  0  0  0  0  0  0  0  0  0
   -0.0105    1.0540    0.0000 C   0  0  0  0  0  0  0  0  0  0  0  0
   -1.6417    0.0334    0.0000 C   0  0  0  0  0  0  0  0  0  0  0  0
   -2.0601   -0.6777    0.0000 C   0  0  0  0  0  0  0  0  0  0  0  0
   -2.0685   -2.1124    0.0000 O   0  0  0  0  0  0  0  0  0  0  0  0
    0.8261    2.3090    0.0000 C   0  0  0  0  0  0  0  0  0  0  0  0
  1  2  1  0
  1 12  1  1
  3  1  1  0
  4  2  2  0
  4  6  1  0
  5  1  1  0
  6  5  1  0
  7  3  1  0
  7 11  1  0
  8  2  1  0
  8 10  1  0
  3  9  1  6
  9 13  1  0
  7 10  1  1
 11 16  1  0
 13 14  1  0
  5 14  1  6
 15  4  1  0
 16 12  1  0
 17  8  2  0
 18 17  1  0
 18 15  2  0
 19 15  1  0
 20 11  1  0
M  END
>  <DRUGBANK_ID>  (1) 
DB01531

>  <COMMON_NAME>  (1) 
Desomorphine

>  <CAS_NUMBER>  (1) 
427-00-9

>  <UNII>  (1) 
7OP86J5E33

>  <SYNONYMS>  (1) 
4,5-epoxy-3-hydroxy-n-methylmorphinan; 6-deoxy-7,8-dihydromorphine; Deoxydihydromorphine D; Desomorphine; Dihydrodeoxymorphine; Dihydrodesoxymorphine D

$$$$
