
     RDKit          2D

  9 10  0  0  0  0  0  0  0  0999 V2000
    0.0000    0.8803    0.0000 C   0  0  0  0  0  0  0  0  0  0  0  0
    0.0000    0.0553    0.0000 C   0  0  0  0  0  0  0  0  0  0  0  0
    0.4125    1.5947    0.0000 C   0  0  0  0  0  0  0  0  0  0  0  0
   -0.4125    1.5947    0.0000 O   0  0  0  0  0  0  0  0  0  0  0  0
   -0.7145   -0.3571    0.0000 C   0  0  0  0  0  0  0  0  0  0  0  0
    0.7145   -0.3571    0.0000 C   0  0  0  0  0  0  0  0  0  0  0  0
   -0.7145   -1.1822    0.0000 C   0  0  0  0  0  0  0  0  0  0  0  0
    0.7145   -1.1822    0.0000 C   0  0  0  0  0  0  0  0  0  0  0  0
    0.0000   -1.5946    0.0000 C   0  0  0  0  0  0  0  0  0  0  0  0
  1  2  1  1
  1  3  1  0
  1  4  1  0
  2  5  2  0
  2  6  1  0
  3  4  1  0
  5  7  1  0
  6  8  2  0
  7  9  2  0
  8  9  1  0
M  END
>  <DRUGBANK_ID>  (1) 
DB04499

>  <SECONDARY_ACCESSION_NUMBERS>  (1) 
EXPT02820

>  <COMMON_NAME>  (1) 
(R)-styrene oxide

>  <CAS_NUMBER>  (1) 
20780-53-4

>  <UNII>  (1) 
0HB27D5MRW

>  <SYNONYMS>  (1) 
(R)-(+)-styrene oxide; (R)-(epoxyethyl)benzene; R-phenyloxirane; R-styrene oxide

$$$$
