TFI
     RDKit          2D

 33 34  0  0  0  0  0  0  0  0999 V2000
   -2.4987   -0.7688    0.0000 C   0  0  0  0  0  0  0  0  0  0  0  0
   -1.7842   -0.3563    0.0000 C   0  0  0  0  0  0  0  0  0  0  0  0
   -1.0697   -0.7688    0.0000 C   0  0  0  0  0  0  0  0  0  0  0  0
   -1.0697   -1.5938    0.0000 C   0  0  0  0  0  0  0  0  0  0  0  0
   -0.3553   -2.0063    0.0000 C   0  0  0  0  0  0  0  0  0  0  0  0
   -1.7842   -2.0063    0.0000 C   0  0  0  0  0  0  0  0  0  0  0  0
    0.3592   -0.7688    0.0000 C   0  0  0  0  0  0  0  0  0  0  0  0
    1.0737   -0.3563    0.0000 C   0  0  0  0  0  0  0  0  0  0  0  0
    0.3592    0.8812    0.0000 C   0  0  0  0  0  0  0  0  0  0  0  0
    0.3592    1.7062    0.0000 C   0  0  0  0  0  0  0  0  0  0  0  0
    1.0737    2.1187    0.0000 C   0  0  0  0  0  0  0  0  0  0  0  0
    1.7881    0.8812    0.0000 C   0  0  0  0  0  0  0  0  0  0  0  0
    2.5026    0.4687    0.0000 C   0  0  0  0  0  0  0  0  0  0  0  0
    3.2171    0.8812    0.0000 C   0  0  0  0  0  0  0  0  0  0  0  0
    3.9316    0.4687    0.0000 C   0  0  0  0  0  0  0  0  0  0  0  0
    3.9316   -0.3563    0.0000 C   0  0  0  0  0  0  0  0  0  0  0  0
    3.2171   -0.7688    0.0000 C   0  0  0  0  0  0  0  0  0  0  0  0
    2.5026   -0.3563    0.0000 C   0  0  0  0  0  0  0  0  0  0  0  0
   -1.7842    1.2937    0.0000 C   0  0  0  0  0  0  0  0  0  0  0  0
   -0.3553   -0.3563    0.0000 N   0  0  0  0  0  0  0  0  0  0  0  0
    1.0737    0.4687    0.0000 N   0  0  0  0  0  0  0  0  0  0  0  0
    1.7881    1.7062    0.0000 N   0  0  0  0  0  0  0  0  0  0  0  0
   -0.3553    2.1187    0.0000 N   0  0  0  0  0  0  0  0  0  0  0  0
    4.6460   -0.7688    0.0000 N   0  0  0  0  0  0  0  0  0  0  0  0
   -1.7842    0.4687    0.0000 O   0  0  0  0  0  0  0  0  0  0  0  0
    0.3592   -1.5938    0.0000 O   0  0  0  0  0  0  0  0  0  0  0  0
   -0.3553    0.4687    0.0000 O   0  0  0  0  0  0  0  0  0  0  0  0
   -0.6572    0.9918    0.0000 O   0  0  0  0  0  0  0  0  0  0  0  0
   -1.4822    2.4207    0.0000 O   0  0  0  0  0  0  0  0  0  0  0  0
   -3.2132   -1.1813    0.0000 F   0  0  0  0  0  0  0  0  0  0  0  0
   -2.9112   -0.0543    0.0000 F   0  0  0  0  0  0  0  0  0  0  0  0
   -2.0862   -1.4832    0.0000 F   0  0  0  0  0  0  0  0  0  0  0  0
   -1.0697    1.7062    0.0000 S   0  0  0  0  0  0  0  0  0  0  0  0
  1  2  1  0
  1 30  1  0
  1 31  1  0
  1 32  1  0
  2  3  1  0
  2 25  2  0
  3  4  1  0
  3 20  1  1
  4  5  1  0
  4  6  1  0
  7  8  1  0
  7 20  1  0
  7 26  2  0
  8 21  1  0
  9 10  1  0
  9 21  1  0
  9 27  2  0
 10 11  2  0
 10 23  1  0
 11 22  1  0
 12 13  1  0
 12 21  1  0
 12 22  2  0
 13 14  2  0
 13 18  1  0
 14 15  1  0
 15 16  2  0
 16 17  1  0
 16 24  1  0
 17 18  2  0
 19 33  1  0
 23 33  1  0
 28 33  2  0
 29 33  2  0
M  END
>  <DRUGBANK_ID>  (1) 
DB03202

>  <SECONDARY_ACCESSION_NUMBERS>  (1) 
EXPT03043

>  <COMMON_NAME>  (1) 
2-[5-Methanesulfonylamino-2-(4-Aminophenyl)-6-Oxo-1,6-Dihydro-1-Pyrimidinyl]-N-(3,3,3-Trifluoro-1-Isopropyl-2-Oxopropyl)Acetamide

$$$$
