
     RDKit          2D

  8  7  0  0  0  0  0  0  0  0999 V2000
   -1.4289    0.2357    0.0000 C   0  0  0  0  0  0  0  0  0  0  0  0
   -2.1434   -0.1768    0.0000 C   0  0  0  0  0  0  0  0  0  0  0  0
    0.0000    0.2357    0.0000 C   0  0  0  0  0  0  0  0  0  0  0  0
   -0.7145   -0.1768    0.0000 C   0  0  0  0  0  0  0  0  0  0  0  0
    1.4289    0.2357    0.0000 N   0  0  0  0  0  0  0  0  0  0  0  0
    2.1434   -0.1768    0.0000 O   0  0  0  0  0  0  0  0  0  0  0  0
    0.7145   -0.1768    0.0000 O   0  0  0  0  0  0  0  0  0  0  0  0
   -2.8579    0.2357    0.0000 C   0  0  0  0  0  0  0  0  0  0  0  0
  2  1  1  0
  2  8  1  0
  3  7  1  0
  4  1  1  0
  4  3  1  0
  6  5  2  0
  7  5  1  0
M  END
>  <DRUGBANK_ID>  (1) 
DB01612

>  <COMMON_NAME>  (1) 
Amyl Nitrite

>  <CAS_NUMBER>  (1) 
8017-89-8

>  <UNII>  (1) 
H2HUX79FYK

>  <SYNONYMS>  (1) 
1-nitropentane; n-Amyl nitrite; n-pentyl nitrite; Nitramyl; pentyl nitrite

$$$$
