
     RDKit          2D

 10 10  0  0  0  0  0  0  0  0999 V2000
    0.0000    0.6187    0.0000 C   0  0  0  0  0  0  0  0  0  0  0  0
    0.7145    0.2062    0.0000 C   0  0  0  0  0  0  0  0  0  0  0  0
    0.7145   -0.6187    0.0000 C   0  0  0  0  0  0  0  0  0  0  0  0
    0.0000   -1.0313    0.0000 C   0  0  0  0  0  0  0  0  0  0  0  0
   -0.7145   -0.6187    0.0000 C   0  0  0  0  0  0  0  0  0  0  0  0
   -0.7145    0.2062    0.0000 C   0  0  0  0  0  0  0  0  0  0  0  0
    0.0000    1.4438    0.0000 C   0  0  0  0  0  0  0  0  0  0  0  0
   -0.7145    1.8563    0.0000 O   0  0  0  0  0  0  0  0  0  0  0  0
    0.7145    1.8563    0.0000 O   0  0  0  0  0  0  0  0  0  0  0  0
    0.0000   -1.8563    0.0000 O   0  0  0  0  0  0  0  0  0  0  0  0
  1  7  1  0
  2  1  2  0
  3  2  1  0
  4  3  2  0
  4  5  1  0
  5  6  2  0
  6  1  1  0
  8  7  2  0
  9  7  1  0
 10  4  1  0
M  END
>  <DRUGBANK_ID>  (1) 
DB04242

>  <SECONDARY_ACCESSION_NUMBERS>  (1) 
EXPT02580

>  <COMMON_NAME>  (1) 
4-hydroxybenzoic acid

>  <CAS_NUMBER>  (1) 
99-96-7

>  <UNII>  (1) 
JG8Z55Y12H

>  <SYNONYMS>  (1) 
4-carboxyphenol; p-Hydroxybenzoic acid; p-salicylic acid

$$$$
