SM3
     RDKit          2D

 19 20  0  0  0  0  0  0  0  0999 V2000
   -1.4872   -1.8060    0.0000 C   0  0  0  0  0  0  0  0  0  0  0  0
   -2.1003   -2.3581    0.0000 C   0  0  0  0  0  0  0  0  0  0  0  0
   -2.8148   -1.9456    0.0000 C   0  0  0  0  0  0  0  0  0  0  0  0
   -2.6433   -1.1386    0.0000 S   0  0  0  0  0  0  0  0  0  0  0  0
   -1.8228   -1.0524    0.0000 C   0  0  0  0  0  0  0  0  0  0  0  0
   -1.4103   -0.3379    0.0000 C   0  0  0  0  0  0  0  0  0  0  0  0
   -0.5853   -0.3379    0.0000 C   0  0  0  0  0  0  0  0  0  0  0  0
   -0.1728   -1.0524    0.0000 O   0  0  0  0  0  0  0  0  0  0  0  0
   -0.1728    0.3766    0.0000 N   0  0  0  0  0  0  0  0  0  0  0  0
    0.6522    0.3766    0.0000 C   0  0  0  0  0  0  0  0  0  0  0  0
    1.0647   -0.3379    0.0000 B   0  0  0  0  0  0  0  0  0  0  0  0
    1.8897   -0.3379    0.0000 O   0  0  0  0  0  0  0  0  0  0  0  0
    0.6522   -1.0524    0.0000 O   0  0  0  0  0  0  0  0  0  0  0  0
    1.0647    1.0911    0.0000 C   0  0  0  0  0  0  0  0  0  0  0  0
    0.6522    1.8055    0.0000 C   0  0  0  0  0  0  0  0  0  0  0  0
    1.8897    1.0911    0.0000 C   0  0  0  0  0  0  0  0  0  0  0  0
    2.3022    1.8055    0.0000 C   0  0  0  0  0  0  0  0  0  0  0  0
    1.8897    2.5200    0.0000 C   0  0  0  0  0  0  0  0  0  0  0  0
    1.0647    2.5200    0.0000 C   0  0  0  0  0  0  0  0  0  0  0  0
  1  2  1  0
  1  5  2  0
  2  3  2  0
  3  4  1  0
  4  5  1  0
  5  6  1  0
  6  7  1  0
  7  8  2  0
  7  9  1  0
 10  9  1  1
 10 11  1  0
 10 14  1  0
 11 12  1  0
 11 13  1  0
 14 15  2  0
 14 16  1  0
 15 19  1  0
 16 17  2  0
 17 18  1  0
 18 19  2  0
M  END
>  <DRUGBANK_ID>  (1) 
DB08552

>  <COMMON_NAME>  (1) 
(1R)-1-(2-thienylacetylamino)-1-phenylmethylboronic acid

$$$$
