1534
     RDKit          2D

 14 13  0  0  1  0  0  0  0  0999 V2000
    7.0944    0.8019    0.0000 Cl  0  0  0  0  0  0  0  0  0  0  0  0
    6.7925   -0.3251    0.0000 Cl  0  0  0  0  0  0  0  0  0  0  0  0
    5.9674    1.1039    0.0000 Cl  0  0  0  0  0  0  0  0  0  0  0  0
    4.9509    0.3894    0.0000 O   0  0  0  0  0  0  0  0  0  0  0  0
    2.0930   -0.4356    0.0000 O   0  0  0  0  0  0  0  0  0  0  0  0
    5.6655   -0.8481    0.0000 O   0  0  0  0  0  0  0  0  0  0  0  0
    2.8075   -0.0231    0.0000 C   0  0  0  0  0  0  0  0  0  0  0  0
    3.5220    0.3894    0.0000 C   0  0  0  0  0  0  0  0  0  0  0  0
    4.2365   -0.0231    0.0000 C   0  0  0  0  0  0  0  0  0  0  0  0
    2.3950    0.6914    0.0000 C   0  0  0  0  0  0  0  0  0  0  0  0
    3.2200   -0.7376    0.0000 C   0  0  0  0  0  0  0  0  0  0  0  0
    4.2365   -0.8481    0.0000 C   0  0  0  0  0  0  0  0  0  0  0  0
    5.6655   -0.0231    0.0000 C   0  0  0  0  0  0  0  0  0  0  0  0
    6.3799    0.3894    0.0000 C   0  0  0  0  0  0  0  0  0  0  0  0
  1 14  1  0
  2 14  1  0
  3 14  1  0
  4  9  1  0
  4 13  1  0
  5  7  1  0
  6 13  1  0
  7  8  1  0
  7 10  1  0
  7 11  1  0
  8  9  1  0
  9 12  1  0
 13 14  1  0
M  END
>  <DRUGBANK_ID>  (1) 
DB01534

>  <COMMON_NAME>  (1) 
Chlorhexadol

>  <CAS_NUMBER>  (1) 
3563-58-4

>  <UNII>  (1) 
W8RD4N93R2

>  <SYNONYMS>  (1) 
Chloralodol; Chloralodolum; Cloralodol

$$$$
