
     RDKit          2D

 10 12  0  0  0  0  0  0  0  0999 V2000
    0.1163   -2.0322    0.0000 C   0  0  0  0  0  0  0  0  0  0  0  0
    0.8517   -0.9111    0.0000 C   0  0  0  0  0  0  0  0  0  0  0  0
    1.5873   -2.0322    0.0000 C   0  0  0  0  0  0  0  0  0  0  0  0
    0.5657   -0.4945    0.0000 C   0  0  0  0  0  0  0  0  0  0  0  0
    1.3012   -1.6156    0.0000 C   0  0  0  0  0  0  0  0  0  0  0  0
    2.0368   -0.4945    0.0000 C   0  0  0  0  0  0  0  0  0  0  0  0
    0.8517   -1.6585    0.0000 N   0  0  0  0  0  0  0  0  0  0  0  0
    0.5657   -1.2419    0.0000 N   0  0  0  0  0  0  0  0  0  0  0  0
    1.3012   -0.1208    0.0000 N   0  0  0  0  0  0  0  0  0  0  0  0
    2.0368   -1.2419    0.0000 N   0  0  0  0  0  0  0  0  0  0  0  0
  7  1  1  0
  7  3  1  0
  7  2  1  0
  8  1  1  0
  8  5  1  0
  8  4  1  0
  9  2  1  0
  9  4  1  0
  9  6  1  0
 10  5  1  0
 10  3  1  0
 10  6  1  0
M  END
>  <DRUGBANK_ID>  (1) 
DB06799

>  <SECONDARY_ACCESSION_NUMBERS>  (1) 
DB06146

>  <COMMON_NAME>  (1) 
Methenamine

>  <CAS_NUMBER>  (1) 
100-97-0

>  <UNII>  (1) 
J50OIX95QV

>  <SYNONYMS>  (1) 
1,3,5,7-tetraazatricyclo[3.3.1.13,7]decane; Hexamethylenamine; Hexamethylene tetramine; Hexamethylenetetramine; Hexamethylentetramin; Hexamethylentetraminum; Hexamine; Hexaminum; HMT; HMTA; metenamina; méthénamine; Methenamine; methenaminum

$$$$
