Structure #1
     RDKit          2D

 13 13  0  0  0  0  0  0  0  0999 V2000
    1.4289    0.8250    0.0000 C   0  0  0  0  0  0  0  0  0  0  0  0
    1.4289    0.0000    0.0000 C   0  0  0  0  0  0  0  0  0  0  0  0
    0.0000    0.8250    0.0000 C   0  0  0  0  0  0  0  0  0  0  0  0
    0.7145    1.2375    0.0000 C   0  0  0  0  0  0  0  0  0  0  0  0
    0.7145   -0.4125    0.0000 C   0  0  0  0  0  0  0  0  0  0  0  0
    0.0000    0.0000    0.0000 C   0  0  0  0  0  0  0  0  0  0  0  0
    0.7145   -1.2375    0.0000 Cl  0  0  0  0  0  0  0  0  0  0  0  0
    0.7145    2.0625    0.0000 N   0  0  0  0  0  0  0  0  0  0  0  0
   -0.7145   -0.4125    0.0000 N   0  0  0  0  0  0  0  0  0  0  0  0
    0.0000    2.4750    0.0000 O   0  0  0  0  0  0  0  0  0  0  0  0
    1.4289    2.4750    0.0000 O   0  0  0  0  0  0  0  0  0  0  0  0
   -0.7145   -1.2375    0.0000 O   0  0  0  0  0  0  0  0  0  0  0  0
   -1.4289    0.0000    0.0000 O   0  0  0  0  0  0  0  0  0  0  0  0
  1  2  2  0
  1  4  1  0
  2  5  1  0
  3  4  2  0
  3  6  1  0
  4  8  1  0
  5  6  2  0
  5  7  1  0
  6  9  1  0
  8 10  1  0
  8 11  2  0
  9 12  1  0
  9 13  2  0
M  CHG  4   8   1   9   1  10  -1  12  -1
M  END
>  <DRUGBANK_ID>  (1) 
DB11831

>  <COMMON_NAME>  (1) 
Dinitrochlorobenzene

>  <CAS_NUMBER>  (1) 
97-00-7

>  <UNII>  (1) 
GE3IBT7BMN

>  <SYNONYMS>  (1) 
1-chloro-2,4-dinitrobenzene

$$$$
