
     RDKit          2D

 10 11  0  0  0  0  0  0  0  0999 V2000
   -1.1270   -0.6740    0.0000 C   0  0  0  0  0  0  0  0  0  0  0  0
   -0.4125   -1.0865    0.0000 C   0  0  0  0  0  0  0  0  0  0  0  0
    0.3019    0.1509    0.0000 C   0  0  0  0  0  0  0  0  0  0  0  0
    0.3019   -0.6740    0.0000 C   0  0  0  0  0  0  0  0  0  0  0  0
   -0.4125    0.5634    0.0000 C   0  0  0  0  0  0  0  0  0  0  0  0
   -1.1270    0.1509    0.0000 C   0  0  0  0  0  0  0  0  0  0  0  0
   -0.4125    1.3884    0.0000 C   0  0  0  0  0  0  0  0  0  0  0  0
    0.7144   -1.3885    0.0000 C   0  0  0  0  0  0  0  0  0  0  0  0
    1.1270   -0.6740    0.0000 C   0  0  0  0  0  0  0  0  0  0  0  0
   -0.4125   -0.2615    0.0000 C   0  0  0  0  0  0  0  0  0  0  0  0
  1  2  1  0
  1  6  1  0
  2  4  1  0
  2 10  1  0
  3 10  1  0
  4  3  1  0
  4  8  1  0
  4  9  1  0
  5  3  1  0
  6  5  2  0
  7  5  1  0
M  END
>  <DRUGBANK_ID>  (1) 
DB15573

>  <COMMON_NAME>  (1) 
alpha-Pinene

>  <CAS_NUMBER>  (1) 
80-56-8

>  <UNII>  (1) 
JPF3YI7O34

>  <SYNONYMS>  (1) 
(±)-2-pinene; (±)-α-pinene; 2-pinene; Acintene A; alpha-Pinene; pin-2(3)-ene; α-pinene

$$$$
