
     RDKit          2D

 33 34  0  0  1  0  0  0  0  0999 V2000
   -0.7145   -2.6664    0.0000 C   0  0  0  0  0  0  0  0  0  0  0  0
   -0.3020   -1.9520    0.0000 O   0  0  0  0  0  0  0  0  0  0  0  0
   -0.7145   -1.2375    0.0000 C   0  0  0  0  0  0  0  0  0  0  0  0
   -1.5395   -1.2375    0.0000 C   0  0  0  0  0  0  0  0  0  0  0  0
   -1.9520   -1.9520    0.0000 O   0  0  0  0  0  0  0  0  0  0  0  0
   -0.3020   -0.5230    0.0000 C   0  0  0  0  0  0  0  0  0  0  0  0
   -0.7145    0.1914    0.0000 O   0  0  0  0  0  0  0  0  0  0  0  0
   -1.5395    0.1914    0.0000 C   0  0  0  0  0  0  0  0  0  0  0  0
   -1.9520   -0.5230    0.0000 O   0  0  0  0  0  0  0  0  0  0  0  0
   -2.7770   -0.5230    0.0000 C   0  0  0  0  0  0  0  0  0  0  0  0
   -3.1895   -1.2375    0.0000 C   0  0  0  0  0  0  0  0  0  0  0  0
   -4.0145   -1.2375    0.0000 O   0  0  0  0  0  0  0  0  0  0  0  0
   -3.1895    0.1914    0.0000 C   0  0  0  0  0  0  0  0  0  0  0  0
   -4.0145    0.1914    0.0000 O   0  0  0  0  0  0  0  0  0  0  0  0
   -2.7770    0.9059    0.0000 C   0  0  0  0  0  0  0  0  0  0  0  0
   -3.1895    1.6204    0.0000 O   0  0  0  0  0  0  0  0  0  0  0  0
   -1.9520    0.9059    0.0000 C   0  0  0  0  0  0  0  0  0  0  0  0
   -1.5395    1.6204    0.0000 O   0  0  0  0  0  0  0  0  0  0  0  0
    0.5230   -0.5230    0.0000 C   0  0  0  0  0  0  0  0  0  0  0  0
    0.9355    0.1914    0.0000 O   0  0  0  0  0  0  0  0  0  0  0  0
    0.9355   -1.2375    0.0000 C   0  0  0  0  0  0  0  0  0  0  0  0
    0.5230   -1.9520    0.0000 O   0  0  0  0  0  0  0  0  0  0  0  0
    1.7605   -1.2375    0.0000 C   0  0  0  0  0  0  0  0  0  0  0  0
    2.1730   -0.5230    0.0000 O   0  0  0  0  0  0  0  0  0  0  0  0
   -1.5395   -2.6664    0.0000 O   0  0  0  0  0  0  0  0  0  0  0  0
   -1.9520   -3.3809    0.0000 C   0  0  0  0  0  0  0  0  0  0  0  0
   -2.7770   -3.3809    0.0000 C   0  0  0  0  0  0  0  0  0  0  0  0
   -1.5395   -4.0954    0.0000 C   0  0  0  0  0  0  0  0  0  0  0  0
   -1.9520   -4.8099    0.0000 O   0  0  0  0  0  0  0  0  0  0  0  0
   -0.7145   -4.0954    0.0000 C   0  0  0  0  0  0  0  0  0  0  0  0
   -0.3020   -4.8099    0.0000 O   0  0  0  0  0  0  0  0  0  0  0  0
   -0.3020   -3.3809    0.0000 C   0  0  0  0  0  0  0  0  0  0  0  0
    0.5230   -3.3809    0.0000 O   0  0  0  0  0  0  0  0  0  0  0  0
  1  2  1  1
  1 25  1  0
  3  2  1  0
  3  4  1  1
  4  5  2  0
  6  3  1  0
  6  7  1  1
  6 19  1  0
  8  7  1  1
  8  9  1  0
 10  9  1  0
 10 11  1  6
 11 12  1  0
 13 10  1  0
 13 14  1  6
 13 15  1  0
 15 16  1  6
 15 17  1  0
 17  8  1  0
 17 18  1  1
 19 20  1  1
 19 21  1  0
 21 22  1  1
 21 23  1  0
 23 24  1  0
 26 25  1  0
 26 27  1  6
 28 26  1  0
 28 29  1  6
 28 30  1  0
 30 31  1  6
 30 32  1  0
 32  1  1  0
 32 33  1  1
M  END
>  <DRUGBANK_ID>  (1) 
DB17690

>  <COMMON_NAME>  (1) 
Trisaccharide B

>  <CAS_NUMBER>  (1) 
49777-14-2

>  <UNII>  (1) 
2P888H42QS

>  <SYNONYMS>  (1) 
.alpha.-d-gal-(1->3)-(.alpha.-l-fuc-(1->2))-d-gal; 3-o-(.alpha.-d-galactopyranosyl)-2-o-(.alpha.-l-fucopyranosyl)-d-galactose; B trisaccharide; B-trisaccharide; Blood group b trisaccharide

$$$$
