
     RDKit          2D

 23 24  0  0  0  0  0  0  0  0999 V2000
   -4.2499    0.4125    0.0000 C   0  0  0  0  0  0  0  0  0  0  0  0
   -4.9643    0.0011    0.0000 N   0  0  0  0  0  0  0  0  0  0  0  0
   -4.2499    1.2375    0.0000 O   0  0  0  0  0  0  0  0  0  0  0  0
   -3.5354    0.0011    0.0000 C   0  0  0  0  0  0  0  0  0  0  0  0
   -2.8517    0.5066    0.0000 S   0  0  0  0  0  0  0  0  0  0  0  0
   -3.2979   -0.7706    0.0000 C   0  0  0  0  0  0  0  0  0  0  0  0
   -2.1986    0.0011    0.0000 C   0  0  0  0  0  0  0  0  0  0  0  0
   -2.4668   -0.7706    0.0000 C   0  0  0  0  0  0  0  0  0  0  0  0
   -1.3736    0.0011    0.0000 C   0  0  0  0  0  0  0  0  0  0  0  0
   -0.7206   -0.5045    0.0000 N   0  0  0  0  0  0  0  0  0  0  0  0
   -1.1075    0.7727    0.0000 C   0  0  0  0  0  0  0  0  0  0  0  0
   -0.0369    0.0011    0.0000 C   0  0  0  0  0  0  0  0  0  0  0  0
   -0.2743    0.7727    0.0000 S   0  0  0  0  0  0  0  0  0  0  0  0
    0.6776   -0.4125    0.0000 S   0  0  0  0  0  0  0  0  0  0  0  0
    1.3921    0.0011    0.0000 C   0  0  0  0  0  0  0  0  0  0  0  0
    2.1065   -0.4125    0.0000 C   0  0  0  0  0  0  0  0  0  0  0  0
    2.8209    0.0011    0.0000 C   0  0  0  0  0  0  0  0  0  0  0  0
    2.1065   -1.2375    0.0000 O   0  0  0  0  0  0  0  0  0  0  0  0
    3.5354   -0.4125    0.0000 N   0  0  0  0  0  0  0  0  0  0  0  0
    4.2499    0.0011    0.0000 C   0  0  0  0  0  0  0  0  0  0  0  0
    4.9643   -0.4125    0.0000 C   0  0  0  0  0  0  0  0  0  0  0  0
    4.2499    0.8261    0.0000 C   0  0  0  0  0  0  0  0  0  0  0  0
    4.9643    0.4125    0.0000 C   0  0  0  0  0  0  0  0  0  0  0  0
  1  2  1  0
  1  3  2  0
  1  4  1  0
  4  5  1  0
  4  6  2  0
  5  7  1  0
  6  8  1  0
  7  8  2  0
  7  9  1  0
  9 10  1  0
  9 11  2  0
 10 12  2  0
 11 13  1  0
 12 13  1  0
 12 14  1  0
 14 15  1  0
 16 15  1  0
 16 17  1  0
 16 18  1  0
 17 19  1  0
 19 20  1  0
 20 21  1  0
 20 22  1  0
 20 23  1  0
M  END
>  <DRUGBANK_ID>  (1) 
DB09204

>  <COMMON_NAME>  (1) 
Arotinolol

>  <CAS_NUMBER>  (1) 
68377-92-4

>  <UNII>  (1) 
394E3P3B99

>  <SYNONYMS>  (1) 
Arotinolol

$$$$
