
     RDKit          2D

  1  0  0  0  0  0  0  0  0  0999 V2000
    0.0000    0.0000    0.0000 Al  0  0  0  0  0  3  0  0  0  0  0  0
M  END
>  <DRUGBANK_ID>  (1) 
DB01370

>  <SECONDARY_ACCESSION_NUMBERS>  (1) 
DB11314

>  <COMMON_NAME>  (1) 
Aluminium

>  <CAS_NUMBER>  (1) 
7429-90-5

>  <UNII>  (1) 
CPD4NFA903

>  <SYNONYMS>  (1) 
Al; Aluminio; Aluminium; Aluminium atom; Aluminium metallicum; Aluminum; Aluminum metal; Aluminum powder; Metallic aluminum

$$$$
