
     RDKit          2D

 14 14  0  0  0  0  0  0  0  0999 V2000
   -0.2136    0.2759    0.0000 C   0  0  0  0  0  0  0  0  0  0  0  0
    0.6111    0.2932    0.0000 S   0  0  0  0  0  0  0  0  0  0  0  0
   -0.6111   -0.4469    0.0000 C   0  0  0  0  0  0  0  0  0  0  0  0
   -0.6410    0.9816    0.0000 C   0  0  0  0  0  0  0  0  0  0  0  0
    1.4359    0.3105    0.0000 N   0  0  0  0  0  0  0  0  0  0  0  0
    0.5938    1.1180    0.0000 O   0  0  0  0  0  0  0  0  0  0  0  0
    0.6284   -0.5315    0.0000 O   0  0  0  0  0  0  0  0  0  0  0  0
   -1.4359   -0.4641    0.0000 C   0  0  0  0  0  0  0  0  0  0  0  0
   -1.4658    0.9643    0.0000 C   0  0  0  0  0  0  0  0  0  0  0  0
    1.8633   -0.3950    0.0000 C   0  0  0  0  0  0  0  0  0  0  0  0
   -1.8633    0.2414    0.0000 C   0  0  0  0  0  0  0  0  0  0  0  0
    2.6881   -0.3777    0.0000 N   0  0  0  0  0  0  0  0  0  0  0  0
    1.4658   -1.1180    0.0000 N   0  0  0  0  0  0  0  0  0  0  0  0
   -2.6881    0.2241    0.0000 N   0  0  0  0  0  0  0  0  0  0  0  0
  1  2  1  0
  1  3  2  0
  1  4  1  0
  2  5  1  0
  2  6  2  0
  2  7  2  0
  3  8  1  0
  4  9  2  0
  5 10  1  0
  8 11  2  0
  9 11  1  0
 10 12  1  0
 10 13  2  0
 11 14  1  0
M  END
>  <DRUGBANK_ID>  (1) 
DB13726

>  <COMMON_NAME>  (1) 
Sulfaguanidine

>  <CAS_NUMBER>  (1) 
57-67-0

>  <UNII>  (1) 
15XQ8043FN

>  <SYNONYMS>  (1) 
Sulfaguanidina; Sulfaguanidine; Sulfaguanidinum

$$$$
