
     RDKit          2D

  9  8  0  0  1  0  0  0  0  0999 V2000
   -0.1914    0.7145    0.0000 C   0  0  0  0  0  0  0  0  0  0  0  0
    0.5230    1.1270    0.0000 C   0  0  0  0  0  0  0  0  0  0  0  0
    0.5230    1.9520    0.0000 C   0  0  0  0  0  0  0  0  0  0  0  0
    1.2375    0.7145    0.0000 C   0  0  0  0  0  0  0  0  0  0  0  0
    1.9520    1.1270    0.0000 C   0  0  0  0  0  0  0  0  0  0  0  0
    1.9520    1.9520    0.0000 N   0  0  0  0  0  0  0  0  0  0  0  0
    2.6664    0.7145    0.0000 C   0  0  0  0  0  0  0  0  0  0  0  0
    3.3809    1.1270    0.0000 O   0  0  0  0  0  0  0  0  0  0  0  0
    2.6664   -0.1105    0.0000 O   0  0  0  0  0  0  0  0  0  0  0  0
  1  2  1  0
  2  3  1  0
  2  4  1  0
  4  5  1  0
  5  6  1  1
  5  7  1  0
  7  8  1  0
  7  9  2  0
M  END
>  <DRUGBANK_ID>  (1) 
DB01746

>  <SECONDARY_ACCESSION_NUMBERS>  (1) 
EXPT01216

>  <COMMON_NAME>  (1) 
D-Leucine

>  <CAS_NUMBER>  (1) 
328-38-1

>  <UNII>  (1) 
965COD96YA

>  <SYNONYMS>  (1) 
(2R)-2-amino-4-methylpentanoic acid; (R)-(âˆ’)-leucine; (R)-leucine; D-2-Amino-4-methylvaleric acid; D-Leucin; D-Leuzin

$$$$
