
     RDKit          2D

 28 30  0  0  0  0  0  0  0  0999 V2000
   -2.4983    1.2501    0.0000 C   0  0  0  0  0  0  0  0  0  0  0  0
   -1.0718    1.2505    0.0000 C   0  0  0  0  0  0  0  0  0  0  0  0
   -1.7837    1.6624    0.0000 C   0  0  0  0  0  0  0  0  0  0  0  0
   -1.0718    0.4252    0.0000 C   0  0  0  0  0  0  0  0  0  0  0  0
   -2.4983    0.4214    0.0000 N   0  0  0  0  0  0  0  0  0  0  0  0
   -1.7819    0.0134    0.0000 C   0  0  0  0  0  0  0  0  0  0  0  0
   -0.3571    1.6630    0.0000 C   0  0  0  0  0  0  0  0  0  0  0  0
    0.3571    1.2505    0.0000 C   0  0  0  0  0  0  0  0  0  0  0  0
    1.7839    1.2509    0.0000 C   0  0  0  0  0  0  0  0  0  0  0  0
    1.0719    1.6628    0.0000 C   0  0  0  0  0  0  0  0  0  0  0  0
    1.7839    0.4257    0.0000 C   0  0  0  0  0  0  0  0  0  0  0  0
    0.3571    0.4219    0.0000 C   0  0  0  0  0  0  0  0  0  0  0  0
    1.0737    0.0138    0.0000 C   0  0  0  0  0  0  0  0  0  0  0  0
    2.4984    0.0130    0.0000 C   0  0  0  0  0  0  0  0  0  0  0  0
    3.2129    0.4257    0.0000 C   0  0  0  0  0  0  0  0  0  0  0  0
    3.9274    0.0130    0.0000 O   0  0  0  0  0  0  0  0  0  0  0  0
    3.2129    1.2507    0.0000 O   0  0  0  0  0  0  0  0  0  0  0  0
   -1.7819   -0.8116    0.0000 C   0  0  0  0  0  0  0  0  0  0  0  0
   -3.2129    1.6626    0.0000 C   0  0  0  0  0  0  0  0  0  0  0  0
   -2.9993    2.4596    0.0000 F   0  0  0  0  0  0  0  0  0  0  0  0
   -3.9274    2.0751    0.0000 F   0  0  0  0  0  0  0  0  0  0  0  0
   -3.9274    1.2501    0.0000 F   0  0  0  0  0  0  0  0  0  0  0  0
   -1.0682   -2.0468    0.0000 C   0  0  0  0  0  0  0  0  0  0  0  0
   -1.0675   -1.2244    0.0000 C   0  0  0  0  0  0  0  0  0  0  0  0
   -1.7829   -2.4596    0.0000 C   0  0  0  0  0  0  0  0  0  0  0  0
   -2.4995   -1.2259    0.0000 C   0  0  0  0  0  0  0  0  0  0  0  0
   -2.4948   -2.0504    0.0000 C   0  0  0  0  0  0  0  0  0  0  0  0
   -0.3537   -2.4594    0.0000 Cl  0  0  0  0  0  0  0  0  0  0  0  0
  1  5  2  0
  1 19  1  0
  2  3  2  0
  2  7  1  0
  3  1  1  0
  4  2  1  0
  5  6  1  0
  6  4  2  0
  6 18  1  0
  7  8  1  0
  8 12  2  0
  9 10  2  0
 10  8  1  0
 11  9  1  0
 11 14  1  0
 12 13  1  0
 13 11  2  0
 14 15  1  0
 15 16  1  0
 15 17  2  0
 18 26  2  0
 19 20  1  0
 19 21  1  0
 19 22  1  0
 23 24  2  0
 23 28  1  0
 24 18  1  0
 25 23  1  0
 26 27  1  0
 27 25  2  0
M  END
>  <DRUGBANK_ID>  (1) 
DB14790

>  <COMMON_NAME>  (1) 
Zatolmilast

>  <CAS_NUMBER>  (1) 
1606974-33-7

>  <UNII>  (1) 
G786V328X6

>  <SYNONYMS>  (1) 
Zatolmilast

$$$$
