SB9
     RDKit          2D

 14 14  0  0  0  0  0  0  0  0999 V2000
   -1.2741    0.9384    0.0000 C   0  0  0  0  0  0  0  0  0  0  0  0
   -0.5596    0.5259    0.0000 N   0  0  0  0  0  0  0  0  0  0  0  0
   -0.5596   -0.2991    0.0000 C   0  0  0  0  0  0  0  0  0  0  0  0
   -1.2741   -0.7116    0.0000 C   0  0  0  0  0  0  0  0  0  0  0  0
   -1.9886   -0.2991    0.0000 C   0  0  0  0  0  0  0  0  0  0  0  0
   -1.9886    0.5259    0.0000 C   0  0  0  0  0  0  0  0  0  0  0  0
   -1.2741    1.7634    0.0000 C   0  0  0  0  0  0  0  0  0  0  0  0
    0.1548   -0.7116    0.0000 C   0  0  0  0  0  0  0  0  0  0  0  0
    0.8693   -0.2991    0.0000 C   0  0  0  0  0  0  0  0  0  0  0  0
    1.5838   -0.7116    0.0000 C   0  0  0  0  0  0  0  0  0  0  0  0
    2.2982   -0.2991    0.0000 N   0  0  0  0  0  0  0  0  0  0  0  0
    2.2982    0.5259    0.0000 O   0  0  0  0  0  0  0  0  0  0  0  0
    3.0127   -0.7116    0.0000 C   0  0  0  0  0  0  0  0  0  0  0  0
    3.7272   -0.2991    0.0000 O   0  0  0  0  0  0  0  0  0  0  0  0
  1  2  2  0
  1  6  1  0
  1  7  1  0
  2  3  1  0
  3  4  2  0
  3  8  1  0
  4  5  1  0
  5  6  2  0
  8  9  1  0
  9 10  1  0
 10 11  1  0
 11 12  1  0
 11 13  1  0
 13 14  2  0
M  END
>  <DRUGBANK_ID>  (1) 
DB08525

>  <COMMON_NAME>  (1) 
HYDROXY[3-(6-METHYLPYRIDIN-2-YL)PROPYL]FORMAMIDE

$$$$
