PF7
     RDKit          2D

 20 22  0  0  0  0  0  0  0  0999 V2000
   21.4219  -10.2043    0.0000 O   0  0  0  0  0  0  0  0  0  0  0  0
   21.4219   -9.3793    0.0000 C   0  0  0  0  0  0  0  0  0  0  0  0
   22.1363   -8.9668    0.0000 N   0  0  0  0  0  0  0  0  0  0  0  0
   22.1363   -8.1418    0.0000 C   0  0  0  0  0  0  0  0  0  0  0  0
   22.8508   -7.7293    0.0000 C   0  0  0  0  0  0  0  0  0  0  0  0
   23.5653   -8.1418    0.0000 C   0  0  0  0  0  0  0  0  0  0  0  0
   23.5653   -8.9668    0.0000 C   0  0  0  0  0  0  0  0  0  0  0  0
   22.8508   -9.3793    0.0000 C   0  0  0  0  0  0  0  0  0  0  0  0
   24.2797   -7.7293    0.0000 C   0  0  0  0  0  0  0  0  0  0  0  0
   24.9942   -8.1418    0.0000 C   0  0  0  0  0  0  0  0  0  0  0  0
   25.7087   -7.7293    0.0000 C   0  0  0  0  0  0  0  0  0  0  0  0
   26.4232   -8.1418    0.0000 C   0  0  0  0  0  0  0  0  0  0  0  0
   27.1376   -7.7293    0.0000 C   0  0  0  0  0  0  0  0  0  0  0  0
   27.8521   -8.1418    0.0000 C   0  0  0  0  0  0  0  0  0  0  0  0
   27.8521   -8.9668    0.0000 C   0  0  0  0  0  0  0  0  0  0  0  0
   27.1376   -9.3793    0.0000 C   0  0  0  0  0  0  0  0  0  0  0  0
   26.4232   -8.9668    0.0000 C   0  0  0  0  0  0  0  0  0  0  0  0
   25.7087   -9.3793    0.0000 N   0  0  0  0  0  0  0  0  0  0  0  0
   24.9942   -8.9668    0.0000 C   0  0  0  0  0  0  0  0  0  0  0  0
   20.7074   -8.9668    0.0000 O   0  0  0  0  0  0  0  0  0  0  0  0
  1  2  2  0
  2  3  1  0
  2 20  1  0
  3  4  1  0
  3  8  1  0
  4  5  1  0
  5  6  1  0
  6  7  1  0
  6  9  1  0
  7  8  1  0
  9 10  1  0
 10 11  2  0
 10 19  1  0
 11 12  1  0
 12 13  2  0
 12 17  1  0
 13 14  1  0
 14 15  2  0
 15 16  1  0
 16 17  2  0
 17 18  1  0
 18 19  2  0
M  END
>  <DRUGBANK_ID>  (1) 
DB08385

>  <COMMON_NAME>  (1) 
4-(quinolin-3-ylmethyl)piperidine-1-carboxylic acid

$$$$
