
     RDKit          2D

 16 17  0  0  0  0  0  0  0  0999 V2000
   -1.4014   -0.4370    0.0000 C   0  0  0  0  0  0  0  0  0  0  0  0
   -1.4014    0.3660    0.0000 C   0  0  0  0  0  0  0  0  0  0  0  0
   -0.6720   -0.8522    0.0000 O   0  0  0  0  0  0  0  0  0  0  0  0
   -2.1144   -0.8632    0.0000 C   0  0  0  0  0  0  0  0  0  0  0  0
   -2.1389    0.7703    0.0000 C   0  0  0  0  0  0  0  0  0  0  0  0
   -0.6884    0.7840    0.0000 O   0  0  0  0  0  0  0  0  0  0  0  0
    0.0409   -0.4370    0.0000 C   0  0  0  0  0  0  0  0  0  0  0  0
   -2.8519   -0.4562    0.0000 C   0  0  0  0  0  0  0  0  0  0  0  0
   -2.8519    0.3742    0.0000 C   0  0  0  0  0  0  0  0  0  0  0  0
   -0.6884    1.6062    0.0000 C   0  0  0  0  0  0  0  0  0  0  0  0
    0.7129   -0.8331    0.0000 C   0  0  0  0  0  0  0  0  0  0  0  0
    0.9942   -1.6062    0.0000 C   0  0  0  0  0  0  0  0  0  0  0  0
    1.3986   -0.3387    0.0000 O   0  0  0  0  0  0  0  0  0  0  0  0
    1.8057   -1.6062    0.0000 N   0  0  0  0  0  0  0  0  0  0  0  0
    2.0733   -0.8331    0.0000 C   0  0  0  0  0  0  0  0  0  0  0  0
    2.8519   -0.5846    0.0000 O   0  0  0  0  0  0  0  0  0  0  0  0
  1  2  2  0
  1  3  1  0
  1  4  1  0
  2  5  1  0
  2  6  1  0
  3  7  1  0
  4  8  2  0
  5  9  2  0
  6 10  1  0
  7 11  1  0
  8  9  1  0
 11 12  1  0
 11 13  1  0
 12 14  1  0
 13 15  1  0
 14 15  1  0
 15 16  2  0
M  END
>  <DRUGBANK_ID>  (1) 
DB13754

>  <COMMON_NAME>  (1) 
Mephenoxalone

>  <CAS_NUMBER>  (1) 
70-07-5

>  <UNII>  (1) 
CZ87T54W8W

>  <SYNONYMS>  (1) 
Mefenoxalona; Mephenoxalone; Mephenoxalonum

$$$$
