
     RDKit          2D

 13 13  0  0  0  0  0  0  0  0999 V2000
   -1.0747   -1.2373    0.0000 N   0  0  0  0  0  0  0  0  0  0  0  0
   -1.7650    0.0138    0.0000 N   0  0  0  0  0  0  0  0  0  0  0  0
   -1.7810   -0.8111    0.0000 C   0  0  0  0  0  0  0  0  0  0  0  0
   -0.3362   -0.0138    0.0000 C   0  0  0  0  0  0  0  0  0  0  0  0
   -0.3522   -0.8387    0.0000 C   0  0  0  0  0  0  0  0  0  0  0  0
   -1.0426    0.4124    0.0000 C   0  0  0  0  0  0  0  0  0  0  0  0
    0.3861    0.3847    0.0000 C   0  0  0  0  0  0  0  0  0  0  0  0
    0.3861    1.2317    0.0000 O   0  0  0  0  0  0  0  0  0  0  0  0
    1.0836   -0.0138    0.0000 O   0  0  0  0  0  0  0  0  0  0  0  0
   -2.5035   -1.2096    0.0000 N   0  0  0  0  0  0  0  0  0  0  0  0
   -1.0266    1.2373    0.0000 O   0  0  0  0  0  0  0  0  0  0  0  0
    1.8060    0.3598    0.0000 C   0  0  0  0  0  0  0  0  0  0  0  0
    2.5035   -0.0637    0.0000 C   0  0  0  0  0  0  0  0  0  0  0  0
  3  1  2  0
  3  2  1  0
  5  1  1  0
  5  4  2  0
  6  2  2  0
  6  4  1  0
  7  4  1  0
  8  7  2  0
  9  7  1  0
 10  3  1  0
 11  6  1  0
 12  9  1  0
 13 12  1  0
M  END
>  <DRUGBANK_ID>  (1) 
DB06906

>  <COMMON_NAME>  (1) 
ethyl 2-amino-4-hydroxypyrimidine-5-carboxylate

>  <CAS_NUMBER>  (1) 
15400-53-0

$$$$
