
     RDKit          2D

 20 23  0  0  1  0  0  0  0  0999 V2000
    1.3752   -1.5604    0.0000 C   0  0  0  0  0  0  0  0  0  0  0  0
   -1.7888   -0.3966    0.0000 C   0  0  0  0  0  0  0  0  0  0  0  0
    2.3018    1.6045    0.0000 C   0  0  0  0  0  0  0  0  0  0  0  0
    0.0041   -1.4982    0.0000 C   0  0  0  0  0  0  0  0  0  0  0  0
   -0.5302   -0.8991    0.0000 C   0  0  0  0  0  0  0  0  0  0  0  0
    1.6700   -0.2251    0.0000 C   0  0  0  0  0  0  0  0  0  0  0  0
    2.1401    0.4582    0.0000 C   0  0  0  0  0  0  0  0  0  0  0  0
    0.7166   -1.1047    0.0000 C   0  0  0  0  0  0  0  0  0  0  0  0
   -1.2370    0.1841    0.0000 C   0  0  0  0  0  0  0  0  0  0  0  0
    0.8366   -0.2801    0.0000 C   0  0  0  0  0  0  0  0  0  0  0  0
   -0.4448   -0.0824    0.0000 C   0  0  0  0  0  0  0  0  0  0  0  0
   -1.5397    0.9515    0.0000 C   0  0  0  0  0  0  0  0  0  0  0  0
   -0.0464    1.1036    0.0000 C   0  0  0  0  0  0  0  0  0  0  0  0
    1.6509    1.1377    0.0000 C   0  0  0  0  0  0  0  0  0  0  0  0
    0.2736    0.3942    0.0000 C   0  0  0  0  0  0  0  0  0  0  0  0
   -2.3018    1.1984    0.0000 O   0  0  0  0  0  0  0  0  0  0  0  0
   -0.8507    1.3919    0.0000 O   0  0  0  0  0  0  0  0  0  0  0  0
    0.8616    0.8609    0.0000 O   0  0  0  0  0  0  0  0  0  0  0  0
    1.1655    1.8170    0.0000 O   0  0  0  0  0  0  0  0  0  0  0  0
    0.5151    1.2982    0.0000 O   0  0  0  0  0  0  0  0  0  0  0  0
  4  5  1  0
  6  7  1  0
  8  1  1  6
  8  4  1  0
  9  2  1  1
  9 12  1  0
 10  6  1  1
 10  8  1  0
 11  5  1  1
 11  9  1  0
 12 16  1  1
 12 17  1  0
 13 17  1  6
 13 18  1  0
 14  3  1  6
 14  7  1  0
 14 18  1  0
 14 19  1  0
 15 10  1  0
 15 11  1  0
 15 13  1  0
 15 20  1  1
 19 20  1  0
M  END
>  <DRUGBANK_ID>  (1) 
DB11638

>  <COMMON_NAME>  (1) 
Artenimol

>  <CAS_NUMBER>  (1) 
71939-50-9

>  <UNII>  (1) 
6A9O50735X

>  <SYNONYMS>  (1) 
Artenimol; beta-Dihydroartemisinin; Dihydroartemisinin

$$$$
