LK4
     RDKit          2D

 33 35  0  0  0  0  0  0  0  0999 V2000
   -7.1480    4.8691    0.0000 N   0  0  0  0  0  0  0  0  0  0  0  0
   -6.4335    4.4566    0.0000 C   0  0  0  0  0  0  0  0  0  0  0  0
   -5.7190    4.0441    0.0000 C   0  0  0  0  0  0  0  0  0  0  0  0
   -5.0045    4.4566    0.0000 C   0  0  0  0  0  0  0  0  0  0  0  0
   -4.2901    4.0441    0.0000 C   0  0  0  0  0  0  0  0  0  0  0  0
   -5.7190    3.2191    0.0000 C   0  0  0  0  0  0  0  0  0  0  0  0
   -5.0045    2.8066    0.0000 C   0  0  0  0  0  0  0  0  0  0  0  0
   -4.2901    3.2191    0.0000 C   0  0  0  0  0  0  0  0  0  0  0  0
   -3.5756    2.8066    0.0000 C   0  0  0  0  0  0  0  0  0  0  0  0
   -2.8611    3.2191    0.0000 O   0  0  0  0  0  0  0  0  0  0  0  0
   -2.1467    2.8066    0.0000 C   0  0  0  0  0  0  0  0  0  0  0  0
   -1.4322    3.2191    0.0000 C   0  0  0  0  0  0  0  0  0  0  0  0
   -0.7177    2.8066    0.0000 C   0  0  0  0  0  0  0  0  0  0  0  0
   -2.1467    1.9816    0.0000 C   0  0  0  0  0  0  0  0  0  0  0  0
   -1.4322    1.5691    0.0000 C   0  0  0  0  0  0  0  0  0  0  0  0
   -0.7177    1.9816    0.0000 C   0  0  0  0  0  0  0  0  0  0  0  0
   -0.0032    1.5691    0.0000 C   0  0  0  0  0  0  0  0  0  0  0  0
   -1.4322    0.7441    0.0000 C   0  0  0  0  0  0  0  0  0  0  0  0
   -0.7177    0.3316    0.0000 C   0  0  0  0  0  0  0  0  0  0  0  0
   -0.0032    0.7441    0.0000 C   0  0  0  0  0  0  0  0  0  0  0  0
    0.7112    0.3316    0.0000 S   0  0  0  0  0  0  0  0  0  0  0  0
    0.2987   -0.3829    0.0000 O   0  0  0  0  0  0  0  0  0  0  0  0
    1.1237    1.0461    0.0000 O   0  0  0  0  0  0  0  0  0  0  0  0
    1.4257   -0.0809    0.0000 N   0  0  0  0  0  0  0  0  0  0  0  0
    2.1402    0.3316    0.0000 C   0  0  0  0  0  0  0  0  0  0  0  0
    2.1402    1.1566    0.0000 C   0  0  0  0  0  0  0  0  0  0  0  0
    2.8546    1.5691    0.0000 O   0  0  0  0  0  0  0  0  0  0  0  0
    1.4257    1.5691    0.0000 O   0  0  0  0  0  0  0  0  0  0  0  0
    2.8546   -0.0809    0.0000 C   0  0  0  0  0  0  0  0  0  0  0  0
    3.5691    0.3316    0.0000 C   0  0  0  0  0  0  0  0  0  0  0  0
    4.2836   -0.0809    0.0000 C   0  0  0  0  0  0  0  0  0  0  0  0
    4.9981    0.3316    0.0000 O   0  0  0  0  0  0  0  0  0  0  0  0
    4.2836   -0.9059    0.0000 O   0  0  0  0  0  0  0  0  0  0  0  0
  1  2  3  0
  2  3  1  0
  3  4  2  0
  3  6  1  0
  4  5  1  0
  5  8  2  0
  6  7  2  0
  7  8  1  0
  8  9  1  0
  9 10  1  0
 10 11  1  0
 11 12  2  0
 11 14  1  0
 12 13  1  0
 13 16  2  0
 14 15  2  0
 15 16  1  0
 15 18  1  0
 16 17  1  0
 17 20  2  0
 18 19  2  0
 19 20  1  0
 20 21  1  0
 21 22  2  0
 21 23  2  0
 21 24  1  0
 25 24  1  0
 25 26  1  0
 25 29  1  1
 26 27  2  0
 26 28  1  0
 29 30  1  0
 30 31  1  0
 31 32  2  0
 31 33  1  0
M  END
>  <DRUGBANK_ID>  (1) 
DB08108

>  <COMMON_NAME>  (1) 
N-({6-[(4-CYANOBENZYL)OXY]NAPHTHALEN-2-YL}SULFONYL)-D-GLUTAMIC ACID

$$$$
