
     RDKit          2D

 14 15  0  0  0  0  0  0  0  0999 V2000
   -0.2549    0.7846    0.0000 C   0  0  0  0  0  0  0  0  0  0  0  0
   -0.0000   -0.0000    0.0000 N   0  0  0  0  0  0  0  0  0  0  0  0
   -0.4849   -0.6674    0.0000 C   0  0  0  0  0  0  0  0  0  0  0  0
   -1.3099   -0.6674    0.0000 O   0  0  0  0  0  0  0  0  0  0  0  0
   -0.0000   -1.3349    0.0000 N   0  0  0  0  0  0  0  0  0  0  0  0
    0.7846   -1.0799    0.0000 C   0  0  0  0  0  0  0  0  0  0  0  0
    0.7846   -0.2549    0.0000 C   0  0  0  0  0  0  0  0  0  0  0  0
    1.5692    0.0000    0.0000 N   0  0  0  0  0  0  0  0  0  0  0  0
    2.0542   -0.6674    0.0000 C   0  0  0  0  0  0  0  0  0  0  0  0
    2.8792   -0.6674    0.0000 O   0  0  0  0  0  0  0  0  0  0  0  0
    1.5692   -1.3349    0.0000 N   0  0  0  0  0  0  0  0  0  0  0  0
    1.8242   -2.1195    0.0000 C   0  0  0  0  0  0  0  0  0  0  0  0
    1.8242    0.7846    0.0000 C   0  0  0  0  0  0  0  0  0  0  0  0
   -0.2549   -2.1195    0.0000 C   0  0  0  0  0  0  0  0  0  0  0  0
  1  2  1  0
  2  3  1  0
  3  4  2  0
  3  5  1  0
  5 14  1  0
  6  5  1  6
  6  7  1  0
  6 11  1  0
  7  2  1  6
  7  8  1  0
  8  9  1  0
  8 13  1  0
  9 10  2  0
  9 11  1  0
 11 12  1  0
M  END
>  <DRUGBANK_ID>  (1) 
DB13522

>  <COMMON_NAME>  (1) 
Mebicar

>  <CAS_NUMBER>  (1) 
10095-06-4

>  <UNII>  (1) 
55FE6NPG89

>  <SYNONYMS>  (1) 
Tetramethylglycoluril

$$$$
