
     RDKit          2D

 40 44  0  0  0  0  0  0  0  0999 V2000
    3.1252    0.7886    0.0000 C   0  0  0  0  0  0  0  0  0  0  0  0
    3.8386    0.3906    0.0000 N   0  0  0  0  0  0  0  0  0  0  0  0
   -0.3833    0.4052    0.0000 C   0  0  0  0  0  0  0  0  0  0  0  0
   -0.1261   -0.3955    0.0000 C   0  0  0  0  0  0  0  0  0  0  0  0
   -0.9948   -0.2645    0.0000 C   0  0  0  0  0  0  0  0  0  0  0  0
    3.1252    1.6427    0.0000 C   0  0  0  0  0  0  0  0  0  0  0  0
    4.5665    1.6427    0.0000 C   0  0  0  0  0  0  0  0  0  0  0  0
    2.3973    0.3906    0.0000 N   0  0  0  0  0  0  0  0  0  0  0  0
    0.9269    0.3906    0.0000 N   0  0  0  0  0  0  0  0  0  0  0  0
    3.8386    2.0552    0.0000 C   0  0  0  0  0  0  0  0  0  0  0  0
    4.5665    0.7886    0.0000 C   0  0  0  0  0  0  0  0  0  0  0  0
    1.6403    0.7886    0.0000 C   0  0  0  0  0  0  0  0  0  0  0  0
   -1.7372   -0.6817    0.0000 N   0  0  0  0  0  0  0  0  0  0  0  0
    0.2717    0.8710    0.0000 C   0  0  0  0  0  0  0  0  0  0  0  0
    0.6891   -0.3955    0.0000 C   0  0  0  0  0  0  0  0  0  0  0  0
    3.8386   -0.4682    0.0000 C   0  0  0  0  0  0  0  0  0  0  0  0
    2.3973    2.0552    0.0000 C   0  0  0  0  0  0  0  0  0  0  0  0
   -2.4409   -0.2645    0.0000 C   0  0  0  0  0  0  0  0  0  0  0  0
    5.2945    2.0552    0.0000 C   0  0  0  0  0  0  0  0  0  0  0  0
    1.6403    1.6427    0.0000 C   0  0  0  0  0  0  0  0  0  0  0  0
   -4.6053   -0.6817    0.0000 C   0  0  0  0  0  0  0  0  0  0  0  0
   -3.8919   -0.2645    0.0000 N   0  0  0  0  0  0  0  0  0  0  0  0
    4.5083   -0.8759    0.0000 C   0  0  0  0  0  0  0  0  0  0  0  0
   -3.1543   -0.6817    0.0000 C   0  0  0  0  0  0  0  0  0  0  0  0
    4.5083   -1.7009    0.0000 C   0  0  0  0  0  0  0  0  0  0  0  0
    3.1252   -0.8759    0.0000 C   0  0  0  0  0  0  0  0  0  0  0  0
    3.8386    2.9141    0.0000 O   0  0  0  0  0  0  0  0  0  0  0  0
   -2.4409    0.5557    0.0000 O   0  0  0  0  0  0  0  0  0  0  0  0
   -4.6053   -1.4874    0.0000 O   0  0  0  0  0  0  0  0  0  0  0  0
    5.2945    2.8850    0.0000 O   0  0  0  0  0  0  0  0  0  0  0  0
   -5.2751   -0.2645    0.0000 C   0  0  0  0  0  0  0  0  0  0  0  0
    3.8386   -2.0940    0.0000 C   0  0  0  0  0  0  0  0  0  0  0  0
    0.9269    2.0552    0.0000 F   0  0  0  0  0  0  0  0  0  0  0  0
    5.2217   -0.4682    0.0000 F   0  0  0  0  0  0  0  0  0  0  0  0
    6.0029    1.6427    0.0000 O   0  0  0  0  0  0  0  0  0  0  0  0
    3.1252   -1.7009    0.0000 C   0  0  0  0  0  0  0  0  0  0  0  0
   -6.0029   -0.6817    0.0000 N   0  0  0  0  0  0  0  0  0  0  0  0
    3.8386   -2.9141    0.0000 F   0  0  0  0  0  0  0  0  0  0  0  0
   -3.1543   -1.4874    0.0000 C   0  0  0  0  0  0  0  0  0  0  0  0
   -5.2751    0.5557    0.0000 C   0  0  0  0  0  0  0  0  0  0  0  0
  2  1  1  0
  3 14  1  1
  3  4  1  0
  4 15  1  1
  4  5  1  0
  5  3  1  0
  5 13  1  6
  6  1  2  0
  7 10  1  0
  8  1  1  0
  9 12  1  0
 10  6  1  0
 11  2  1  0
 11  7  2  0
 12  8  2  0
 12 20  1  0
 14  9  1  0
 15  9  1  0
 16  2  1  0
 17  6  1  0
 18 13  1  0
 19  7  1  0
 20 17  2  0
 21 22  1  0
 22 24  1  0
 23 16  2  0
 24 18  1  0
 24 39  1  6
 25 23  1  0
 25 32  2  0
 26 16  1  0
 27 10  2  0
 28 18  2  0
 29 21  2  0
 30 19  2  0
 31 21  1  0
 31 40  1  1
 32 36  1  0
 33 20  1  0
 34 23  1  0
 35 19  1  0
 36 26  2  0
 37 31  1  0
 38 32  1  0
M  END
>  <DRUGBANK_ID>  (1) 
DB09335

>  <COMMON_NAME>  (1) 
Alatrofloxacin

>  <CAS_NUMBER>  (1) 
146961-76-4

>  <UNII>  (1) 
7QVV6I50DT

>  <SYNONYMS>  (1) 
Alatrofloxacin

$$$$
