
     RDKit          2D

 17 17  0  0  0  0  0  0  0  0999 V2000
    1.0657    1.1161    0.0000 C   0  0  0  0  0  0  0  0  0  0  0  0
    0.3513    0.7036    0.0000 C   0  0  0  0  0  0  0  0  0  0  0  0
   -0.3631    1.1161    0.0000 C   0  0  0  0  0  0  0  0  0  0  0  0
   -1.0776    0.7036    0.0000 C   0  0  0  0  0  0  0  0  0  0  0  0
   -1.0776   -0.1213    0.0000 C   0  0  0  0  0  0  0  0  0  0  0  0
   -0.8934   -1.1658    0.0000 C   0  0  0  0  0  0  0  0  0  0  0  0
   -0.3631   -0.5338    0.0000 C   0  0  0  0  0  0  0  0  0  0  0  0
   -0.6112   -1.9411    0.0000 N   0  0  0  0  0  0  0  0  0  0  0  0
    1.7920   -0.8793    0.0000 N   0  0  0  0  0  0  0  0  0  0  0  0
    0.1671   -1.1658    0.0000 N   0  0  0  0  0  0  0  0  0  0  0  0
    0.9796   -1.0226    0.0000 N   0  0  0  0  0  0  0  0  0  0  0  0
    1.0657    1.9411    0.0000 O   0  0  0  0  0  0  0  0  0  0  0  0
   -0.3631    1.9411    0.0000 O   0  0  0  0  0  0  0  0  0  0  0  0
   -1.7920    1.1161    0.0000 O   0  0  0  0  0  0  0  0  0  0  0  0
   -1.7920   -0.5338    0.0000 O   0  0  0  0  0  0  0  0  0  0  0  0
   -1.7059   -1.0226    0.0000 O   0  0  0  0  0  0  0  0  0  0  0  0
    0.3513   -0.1213    0.0000 O   0  0  0  0  0  0  0  0  0  0  0  0
  2  1  1  1
  2 17  1  0
  3  2  1  0
  3  4  1  0
  3 13  1  6
  4  5  1  0
  4 14  1  1
  5  7  1  0
  5 15  1  6
  7  6  1  0
  7 10  1  1
  7 17  1  0
  8  6  1  0
 11  9  2  0
 11 10  2  0
 12  1  1  0
 16  6  1  0
M  CHG  2   9  -1  11   1
M  END
>  <DRUGBANK_ID>  (1) 
DB03286

>  <SECONDARY_ACCESSION_NUMBERS>  (1) 
EXPT00899

>  <COMMON_NAME>  (1) 
C-(1-Azido-Alpha-D-Glucopyranosyl) Formamide

$$$$
