
     RDKit          2D

 31 34  0  0  1  0  0  0  0  0999 V2000
    0.7954   -2.9684    0.0000 C   0  0  0  0  0  0  0  0  0  0  0  0
    1.2079   -2.2539    0.0000 C   0  0  0  0  0  0  0  0  0  0  0  0
    0.7954   -1.5395    0.0000 O   0  0  0  0  0  0  0  0  0  0  0  0
    2.0329   -2.2539    0.0000 O   0  0  0  0  0  0  0  0  0  0  0  0
    2.4454   -1.5395    0.0000 C   0  0  0  0  0  0  0  0  0  0  0  0
    2.0329   -0.8250    0.0000 C   0  0  0  0  0  0  0  0  0  0  0  0
    2.4454   -0.1105    0.0000 C   0  0  0  0  0  0  0  0  0  0  0  0
    3.2704   -0.1105    0.0000 C   0  0  0  0  0  0  0  0  0  0  0  0
    3.6829    0.6039    0.0000 C   0  0  0  0  0  0  0  0  0  0  0  0
    4.5079    0.6039    0.0000 C   0  0  0  0  0  0  0  0  0  0  0  0
    4.9204   -0.1105    0.0000 C   0  0  0  0  0  0  0  0  0  0  0  0
    5.7454   -0.1105    0.0000 C   0  0  0  0  0  0  0  0  0  0  0  0
    6.1579    0.6039    0.0000 O   0  0  0  0  0  0  0  0  0  0  0  0
    6.1579   -0.8250    0.0000 O   0  0  0  0  0  0  0  0  0  0  0  0
    5.7454   -1.5395    0.0000 C   0  0  0  0  0  0  0  0  0  0  0  0
    4.9204   -1.5395    0.0000 C   0  0  0  0  0  0  0  0  0  0  0  0
    4.5079   -0.8250    0.0000 C   0  0  0  0  0  0  0  0  0  0  0  0
    3.6829   -0.8250    0.0000 C   0  0  0  0  0  0  0  0  0  0  0  0
    3.2704   -1.5395    0.0000 C   0  0  0  0  0  0  0  0  0  0  0  0
    3.6829   -2.2539    0.0000 O   0  0  0  0  0  0  0  0  0  0  0  0
    4.0954   -1.5395    0.0000 C   0  0  0  0  0  0  0  0  0  0  0  0
    6.1579   -2.2539    0.0000 C   0  0  0  0  0  0  0  0  0  0  0  0
    6.9784   -2.3402    0.0000 C   0  0  0  0  0  0  0  0  0  0  0  0
    7.1499   -3.1471    0.0000 C   0  0  0  0  0  0  0  0  0  0  0  0
    6.4354   -3.5596    0.0000 O   0  0  0  0  0  0  0  0  0  0  0  0
    5.8223   -3.0076    0.0000 C   0  0  0  0  0  0  0  0  0  0  0  0
    2.8579    0.6039    0.0000 C   0  0  0  0  0  0  0  0  0  0  0  0
    2.0329    0.6039    0.0000 C   0  0  0  0  0  0  0  0  0  0  0  0
    2.4454    1.3184    0.0000 O   0  0  0  0  0  0  0  0  0  0  0  0
    1.2079    0.6039    0.0000 O   0  0  0  0  0  0  0  0  0  0  0  0
    0.7954    1.3184    0.0000 C   0  0  0  0  0  0  0  0  0  0  0  0
  1  2  1  0
  2  3  2  0
  2  4  1  0
  5  4  1  1
  5  6  1  0
  5 19  1  0
  6  7  1  0
  7  8  1  0
  7 28  1  1
  8  9  1  0
  8 18  1  0
  8 27  1  1
  9 10  1  0
 11 10  1  1
 11 12  1  0
 11 17  1  0
 12 13  2  0
 12 14  1  0
 14 15  1  0
 15 16  1  0
 15 22  1  6
 16 17  1  0
 17 18  1  0
 17 21  1  1
 18 19  1  1
 19 20  2  0
 22 23  1  0
 22 26  2  0
 23 24  2  0
 24 25  1  0
 25 26  1  0
 28 29  2  0
 28 30  1  0
 30 31  1  0
M  END
>  <DRUGBANK_ID>  (1) 
DB12327

>  <COMMON_NAME>  (1) 
Salvinorin A

>  <CAS_NUMBER>  (1) 
83729-01-5

>  <UNII>  (1) 
T56W91NG6J

$$$$
