FR3
     RDKit          2D

 23 25  0  0  0  0  0  0  0  0999 V2000
   -2.3611    0.1065    0.0000 C   0  0  0  0  0  0  0  0  0  0  0  0
   -1.6074   -0.2291    0.0000 N   0  0  0  0  0  0  0  0  0  0  0  0
   -1.6936   -1.0496    0.0000 C   0  0  0  0  0  0  0  0  0  0  0  0
   -2.5006   -1.2211    0.0000 N   0  0  0  0  0  0  0  0  0  0  0  0
   -2.9131   -0.5066    0.0000 C   0  0  0  0  0  0  0  0  0  0  0  0
   -3.7336   -0.4204    0.0000 C   0  0  0  0  0  0  0  0  0  0  0  0
   -4.2185   -1.0878    0.0000 O   0  0  0  0  0  0  0  0  0  0  0  0
   -4.0692    0.3333    0.0000 N   0  0  0  0  0  0  0  0  0  0  0  0
   -0.8929    0.1834    0.0000 C   0  0  0  0  0  0  0  0  0  0  0  0
   -0.8929    1.0084    0.0000 C   0  0  0  0  0  0  0  0  0  0  0  0
   -0.1785    1.4209    0.0000 O   0  0  0  0  0  0  0  0  0  0  0  0
   -0.1785   -0.2291    0.0000 C   0  0  0  0  0  0  0  0  0  0  0  0
    0.5360    0.1834    0.0000 C   0  0  0  0  0  0  0  0  0  0  0  0
    1.2505   -0.2291    0.0000 C   0  0  0  0  0  0  0  0  0  0  0  0
    1.2505   -1.0541    0.0000 C   0  0  0  0  0  0  0  0  0  0  0  0
    1.9649   -1.4666    0.0000 C   0  0  0  0  0  0  0  0  0  0  0  0
    2.6794   -1.0541    0.0000 C   0  0  0  0  0  0  0  0  0  0  0  0
    2.6794   -0.2291    0.0000 C   0  0  0  0  0  0  0  0  0  0  0  0
    1.9649    0.1834    0.0000 C   0  0  0  0  0  0  0  0  0  0  0  0
    3.3939    0.1834    0.0000 C   0  0  0  0  0  0  0  0  0  0  0  0
    1.9649    1.0084    0.0000 C   0  0  0  0  0  0  0  0  0  0  0  0
    3.3939    1.0084    0.0000 C   0  0  0  0  0  0  0  0  0  0  0  0
    2.6794    1.4209    0.0000 C   0  0  0  0  0  0  0  0  0  0  0  0
  1  2  1  0
  1  5  2  0
  2  3  1  0
  3  4  2  0
  4  5  1  0
  5  6  1  0
  6  7  2  0
  6  8  1  0
  9  2  1  0
  9 10  1  1
  9 12  1  0
 10 11  1  0
 12 13  1  0
 13 14  1  0
 14 15  2  0
 14 19  1  0
 15 16  1  0
 16 17  2  0
 17 18  1  0
 18 19  2  0
 18 20  1  0
 19 21  1  0
 20 22  2  0
 21 23  2  0
 22 23  1  0
M  END
>  <DRUGBANK_ID>  (1) 
DB03572

>  <SECONDARY_ACCESSION_NUMBERS>  (1) 
EXPT01484

>  <COMMON_NAME>  (1) 
FR230513

$$$$
