BIC
     RDKit          2D

 20 22  0  0  0  0  0  0  0  0999 V2000
   -2.1990   -0.1621    0.0000 C   0  0  0  0  0  0  0  0  0  0  0  0
   -2.6839    0.5053    0.0000 C   0  0  0  0  0  0  0  0  0  0  0  0
   -2.1990    1.1728    0.0000 C   0  0  0  0  0  0  0  0  0  0  0  0
   -0.6999    1.3303    0.0000 C   0  0  0  0  0  0  0  0  0  0  0  0
    0.0145    0.9178    0.0000 C   0  0  0  0  0  0  0  0  0  0  0  0
    0.0145    0.0928    0.0000 C   0  0  0  0  0  0  0  0  0  0  0  0
   -0.6999   -0.3197    0.0000 C   0  0  0  0  0  0  0  0  0  0  0  0
   -1.4144    0.9178    0.0000 N   0  0  0  0  0  0  0  0  0  0  0  0
   -1.4144    0.0928    0.0000 N   0  0  0  0  0  0  0  0  0  0  0  0
   -0.6999   -1.1447    0.0000 O   0  0  0  0  0  0  0  0  0  0  0  0
   -2.4540   -0.9467    0.0000 C   0  0  0  0  0  0  0  0  0  0  0  0
   -1.9019   -1.5598    0.0000 O   0  0  0  0  0  0  0  0  0  0  0  0
    0.8390    0.0640    0.0000 N   0  0  0  0  0  0  0  0  0  0  0  0
    0.4517   -0.6068    0.0000 C   0  0  0  0  0  0  0  0  0  0  0  0
    1.2762   -0.5780    0.0000 C   0  0  0  0  0  0  0  0  0  0  0  0
    1.6635    0.1504    0.0000 C   0  0  0  0  0  0  0  0  0  0  0  0
    2.4880    0.1792    0.0000 C   0  0  0  0  0  0  0  0  0  0  0  0
    2.9252   -0.5204    0.0000 C   0  0  0  0  0  0  0  0  0  0  0  0
    2.5379   -1.2489    0.0000 C   0  0  0  0  0  0  0  0  0  0  0  0
    1.7134   -1.2777    0.0000 C   0  0  0  0  0  0  0  0  0  0  0  0
  1  2  1  0
  1  9  1  0
  1 11  1  6
  2  3  1  0
  3  8  1  0
  4  5  1  0
  4  8  1  0
  5  6  1  0
  6  7  1  0
  6 13  1  6
  6 14  1  0
  7  9  1  0
  7 10  2  0
  8  9  1  0
 11 12  2  0
 14 15  1  0
 15 16  2  0
 15 20  1  0
 16 17  1  0
 17 18  2  0
 18 19  1  0
 19 20  2  0
M  END
>  <DRUGBANK_ID>  (1) 
DB07461

>  <COMMON_NAME>  (1) 
3-AMINO-3-BENZYL-9-CARBOXAMIDE[4.3.0]BICYCLO-1,6-DIAZANONAN-2-ONE

$$$$
