696
     RDKit          2D

 25 28  0  0  0  0  0  0  0  0999 V2000
    2.7007   -0.3179    0.0000 C   0  0  0  0  0  0  0  0  0  0  0  0
    2.7007   -1.1429    0.0000 C   0  0  0  0  0  0  0  0  0  0  0  0
    1.9862   -1.5554    0.0000 C   0  0  0  0  0  0  0  0  0  0  0  0
    1.2718   -1.1429    0.0000 C   0  0  0  0  0  0  0  0  0  0  0  0
    1.2718   -0.3179    0.0000 C   0  0  0  0  0  0  0  0  0  0  0  0
    1.9862    0.0946    0.0000 C   0  0  0  0  0  0  0  0  0  0  0  0
    3.4152    0.0946    0.0000 C   0  0  0  0  0  0  0  0  0  0  0  0
    4.1297   -0.3179    0.0000 N   0  0  0  0  0  0  0  0  0  0  0  0
    3.4152    0.9196    0.0000 N   0  0  0  0  0  0  0  0  0  0  0  0
    0.4871   -1.3978    0.0000 N   0  0  0  0  0  0  0  0  0  0  0  0
    0.4871   -0.0629    0.0000 C   0  0  0  0  0  0  0  0  0  0  0  0
    0.0022   -0.7304    0.0000 C   0  0  0  0  0  0  0  0  0  0  0  0
   -0.8228   -0.7304    0.0000 C   0  0  0  0  0  0  0  0  0  0  0  0
   -1.2353   -1.4449    0.0000 C   0  0  0  0  0  0  0  0  0  0  0  0
   -2.0603   -1.4449    0.0000 C   0  0  0  0  0  0  0  0  0  0  0  0
   -2.4728   -0.7304    0.0000 C   0  0  0  0  0  0  0  0  0  0  0  0
   -2.0603   -0.0159    0.0000 C   0  0  0  0  0  0  0  0  0  0  0  0
   -1.2353   -0.0159    0.0000 C   0  0  0  0  0  0  0  0  0  0  0  0
   -0.8228    0.6986    0.0000 O   0  0  0  0  0  0  0  0  0  0  0  0
   -2.4728    0.6986    0.0000 C   0  0  0  0  0  0  0  0  0  0  0  0
   -3.2978    0.6986    0.0000 C   0  0  0  0  0  0  0  0  0  0  0  0
   -3.7103    1.4130    0.0000 C   0  0  0  0  0  0  0  0  0  0  0  0
   -3.2978    2.1275    0.0000 C   0  0  0  0  0  0  0  0  0  0  0  0
   -2.4728    2.1275    0.0000 C   0  0  0  0  0  0  0  0  0  0  0  0
   -2.0603    1.4130    0.0000 C   0  0  0  0  0  0  0  0  0  0  0  0
  1  2  2  0
  1  6  1  0
  1  7  1  0
  2  3  1  0
  3  4  2  0
  4  5  1  0
  4 10  1  0
  5  6  2  0
  5 11  1  0
  7  8  1  0
  7  9  2  0
 10 12  1  0
 11 12  2  0
 12 13  1  0
 13 14  2  0
 13 18  1  0
 14 15  1  0
 15 16  2  0
 16 17  1  0
 17 18  2  0
 17 20  1  0
 18 19  1  0
 20 21  2  0
 20 25  1  0
 21 22  1  0
 22 23  2  0
 23 24  1  0
 24 25  2  0
M  CHG  2   9   1  19  -1
M  END
>  <DRUGBANK_ID>  (1) 
DB03159

>  <SECONDARY_ACCESSION_NUMBERS>  (1) 
EXPT00282

>  <COMMON_NAME>  (1) 
CRA_8696

$$$$
