
     RDKit          2D

 17 18  0  0  0  0  0  0  0  0999 V2000
    0.6594   -1.6499    0.0000 N   0  0  0  0  0  0  0  0  0  0  0  0
   -0.0550   -2.0624    0.0000 C   0  0  0  0  0  0  0  0  0  0  0  0
   -0.7695   -1.6499    0.0000 N   0  0  0  0  0  0  0  0  0  0  0  0
   -0.7695   -0.8250    0.0000 C   0  0  0  0  0  0  0  0  0  0  0  0
   -0.0550   -0.4125    0.0000 N   0  0  0  0  0  0  0  0  0  0  0  0
    0.6593   -0.8249    0.0000 C   0  0  0  0  0  0  0  0  0  0  0  0
   -0.0550   -2.8874    0.0000 N   0  0  0  0  0  0  0  0  0  0  0  0
   -1.4839   -0.4124    0.0000 N   0  0  0  0  0  0  0  0  0  0  0  0
    1.0965   -0.1253    0.0000 C   0  0  0  0  0  0  0  0  0  0  0  0
    1.4839   -0.7962    0.0000 C   0  0  0  0  0  0  0  0  0  0  0  0
   -0.0550    0.4125    0.0000 C   0  0  0  0  0  0  0  0  0  0  0  0
    0.6594    0.8251    0.0000 C   0  0  0  0  0  0  0  0  0  0  0  0
    0.6593    1.6501    0.0000 C   0  0  0  0  0  0  0  0  0  0  0  0
   -0.0550    2.0625    0.0000 C   0  0  0  0  0  0  0  0  0  0  0  0
   -0.7695    1.6500    0.0000 C   0  0  0  0  0  0  0  0  0  0  0  0
   -0.7695    0.8251    0.0000 C   0  0  0  0  0  0  0  0  0  0  0  0
   -0.0550    2.8874    0.0000 Cl  0  0  0  0  0  0  0  0  0  0  0  0
  2  1  2  0
  2  3  1  0
  2  7  1  0
  4  3  2  0
  4  8  1  0
  4  5  1  0
  6  1  1  0
  6  5  1  0
  6  9  1  0
 10  6  1  0
 11  5  1  0
 11 16  1  0
 11 12  2  0
 12 13  1  0
 13 14  2  0
 14 17  1  0
 14 15  1  0
 15 16  2  0
M  END
>  <DRUGBANK_ID>  (1) 
DB14763

>  <COMMON_NAME>  (1) 
Cycloguanil

>  <CAS_NUMBER>  (1) 
516-21-2

>  <UNII>  (1) 
26RM326WVN

>  <SYNONYMS>  (1) 
CGT; Chlorguanide triazine; Cycloguanilum; Cycloguanyl

$$$$
