
     RDKit          2D

 27 29  0  0  0  0  0  0  0  0999 V2000
    0.7145   -0.4125    0.0000 C   0  0  0  0  0  0  0  0  0  0  0  0
    6.4302   -2.0625    0.0000 C   0  0  0  0  0  0  0  0  0  0  0  0
    5.7158   -3.3000    0.0000 C   0  0  0  0  0  0  0  0  0  0  0  0
    0.0000   -3.3000    0.0000 C   0  0  0  0  0  0  0  0  0  0  0  0
    5.7158   -1.6500    0.0000 C   0  0  0  0  0  0  0  0  0  0  0  0
    5.0013   -2.8875    0.0000 C   0  0  0  0  0  0  0  0  0  0  0  0
    0.7145   -2.8875    0.0000 C   0  0  0  0  0  0  0  0  0  0  0  0
    3.0366    0.5795    0.0000 C   0  0  0  0  0  0  0  0  0  0  0  0
    2.2296    0.4080    0.0000 C   0  0  0  0  0  0  0  0  0  0  0  0
    3.5724   -2.0625    0.0000 C   0  0  0  0  0  0  0  0  0  0  0  0
    2.8579   -1.6500    0.0000 C   0  0  0  0  0  0  0  0  0  0  0  0
   -0.7145   -2.0625    0.0000 C   0  0  0  0  0  0  0  0  0  0  0  0
    2.8971   -0.7481    0.0000 C   0  0  0  0  0  0  0  0  0  0  0  0
    1.4289   -0.8250    0.0000 C   0  0  0  0  0  0  0  0  0  0  0  0
    6.4302   -2.8875    0.0000 C   0  0  0  0  0  0  0  0  0  0  0  0
   -0.7145   -2.8875    0.0000 C   0  0  0  0  0  0  0  0  0  0  0  0
    5.0013   -2.0625    0.0000 C   0  0  0  0  0  0  0  0  0  0  0  0
    0.7145   -2.0625    0.0000 C   0  0  0  0  0  0  0  0  0  0  0  0
    0.0000   -1.6500    0.0000 C   0  0  0  0  0  0  0  0  0  0  0  0
    1.4289   -1.6500    0.0000 C   0  0  0  0  0  0  0  0  0  0  0  0
    7.1447   -3.3000    0.0000 Cl  0  0  0  0  0  0  0  0  0  0  0  0
   -1.4289   -3.3000    0.0000 Cl  0  0  0  0  0  0  0  0  0  0  0  0
    0.0000   -0.8250    0.0000 Cl  0  0  0  0  0  0  0  0  0  0  0  0
    3.4491   -0.1350    0.0000 N   0  0  0  0  0  0  0  0  0  0  0  0
    2.1434   -0.4125    0.0000 N   0  0  0  0  0  0  0  0  0  0  0  0
    4.2868   -1.6500    0.0000 O   0  0  0  0  0  0  0  0  0  0  0  0
    2.1434   -2.0625    0.0000 O   0  0  0  0  0  0  0  0  0  0  0  0
  5  2  2  0
  6  3  1  0
  7  4  2  0
  9  8  2  0
 11 10  1  0
 14  1  1  0
 15  2  1  0
 15  3  2  0
 16  4  1  0
 16 12  2  0
 17  5  1  0
 17  6  2  0
 18  7  1  0
 19 12  1  0
 19 18  2  0
 20 14  2  0
 20 18  1  0
 21 15  1  0
 22 16  1  0
 23 19  1  0
 24  8  1  0
 24 13  2  0
 25  9  1  0
 25 13  1  0
 25 14  1  0
 26 10  1  0
 26 17  1  0
 27 11  1  0
 27 20  1  0
M  END
>  <DRUGBANK_ID>  (1) 
DB13684

>  <COMMON_NAME>  (1) 
Omoconazole

>  <CAS_NUMBER>  (1) 
74512-12-2

>  <UNII>  (1) 
GQ8ADD54E1

>  <SYNONYMS>  (1) 
Omoconazole

$$$$
