
     RDKit          2D

  6  5  0  0  1  0  0  0  0  0999 V2000
    2.4750   -1.4289    0.0000 O   0  0  0  0  0  0  0  0  0  0  0  0
    2.0625   -0.7145    0.0000 C   0  0  0  0  0  0  0  0  0  0  0  0
    1.2375   -0.7145    0.0000 C   0  0  0  0  0  0  0  0  0  0  0  0
    0.8250   -1.4289    0.0000 O   0  0  0  0  0  0  0  0  0  0  0  0
    0.8250    0.0000    0.0000 C   0  0  0  0  0  0  0  0  0  0  0  0
    0.0000    0.0000    0.0000 O   0  0  0  0  0  0  0  0  0  0  0  0
  1  2  1  0
  2  3  1  0
  3  4  1  1
  3  5  1  0
  5  6  2  0
M  END
>  <DRUGBANK_ID>  (1) 
DB02536

>  <SECONDARY_ACCESSION_NUMBERS>  (1) 
EXPT00170

>  <COMMON_NAME>  (1) 
D-glyceraldehyde

>  <CAS_NUMBER>  (1) 
453-17-8

>  <UNII>  (1) 
41A680M0WB

>  <SYNONYMS>  (1) 
D-(+)-glyceraldehyde; D-2,3-dihydroxypropanal; D-2,3-dihydroxypropionaldehyde; D-aldotriose; D-glycerose; Triose

$$$$
