
     RDKit          2D

 27 30  0  0  0  0  0  0  0  0999 V2000
   -3.4509    1.0728    0.0000 C   0  0  0  0  0  0  0  0  0  0  0  0
   -4.1654    0.6603    0.0000 C   0  0  0  0  0  0  0  0  0  0  0  0
   -4.1654   -0.1647    0.0000 C   0  0  0  0  0  0  0  0  0  0  0  0
   -3.4509   -0.5772    0.0000 C   0  0  0  0  0  0  0  0  0  0  0  0
   -2.7363   -0.1647    0.0000 C   0  0  0  0  0  0  0  0  0  0  0  0
   -2.7363    0.6603    0.0000 C   0  0  0  0  0  0  0  0  0  0  0  0
   -1.9518    0.9153    0.0000 S   0  0  0  0  0  0  0  0  0  0  0  0
   -1.9518   -0.4195    0.0000 N   0  0  0  0  0  0  0  0  0  0  0  0
   -1.4669    0.2478    0.0000 C   0  0  0  0  0  0  0  0  0  0  0  0
   -0.6419    0.2478    0.0000 C   0  0  0  0  0  0  0  0  0  0  0  0
   -0.2294   -0.4666    0.0000 C   0  0  0  0  0  0  0  0  0  0  0  0
    0.5955   -0.4666    0.0000 C   0  0  0  0  0  0  0  0  0  0  0  0
    1.0080   -1.1811    0.0000 C   0  0  0  0  0  0  0  0  0  0  0  0
    1.8330   -1.1811    0.0000 C   0  0  0  0  0  0  0  0  0  0  0  0
    2.2455   -0.4666    0.0000 C   0  0  0  0  0  0  0  0  0  0  0  0
    2.6580    0.8029    0.0000 C   0  0  0  0  0  0  0  0  0  0  0  0
    1.9907    0.3179    0.0000 S   0  0  0  0  0  0  0  0  0  0  0  0
    3.0705   -0.4666    0.0000 N   0  0  0  0  0  0  0  0  0  0  0  0
    3.3255    0.3179    0.0000 C   0  0  0  0  0  0  0  0  0  0  0  0
    3.4980    1.9590    0.0000 C   0  0  0  0  0  0  0  0  0  0  0  0
    2.7443    1.6234    0.0000 C   0  0  0  0  0  0  0  0  0  0  0  0
    4.0792    0.6535    0.0000 C   0  0  0  0  0  0  0  0  0  0  0  0
    4.1654    1.4740    0.0000 C   0  0  0  0  0  0  0  0  0  0  0  0
    3.5554   -1.1339    0.0000 C   0  0  0  0  0  0  0  0  0  0  0  0
    3.5554   -1.9590    0.0000 C   0  0  0  0  0  0  0  0  0  0  0  0
   -1.6968   -1.2041    0.0000 C   0  0  0  0  0  0  0  0  0  0  0  0
   -2.2488   -1.8173    0.0000 C   0  0  0  0  0  0  0  0  0  0  0  0
  1  2  2  0
  1  6  1  0
  2  3  1  0
  3  4  2  0
  4  5  1  0
  5  8  1  0
  6  5  2  0
  7  6  1  0
  7  9  1  0
  8  9  1  0
  8 26  1  0
  9 10  2  3
 10 11  1  0
 11 12  2  3
 12 13  1  0
 13 14  2  3
 14 15  1  0
 15 18  2  0
 16 17  1  0
 16 19  2  0
 17 15  1  0
 18 19  1  0
 18 24  1  0
 19 22  1  0
 20 21  2  0
 20 23  1  0
 21 16  1  0
 22 23  2  0
 24 25  1  0
 26 27  1  0
M  CHG  1  18   1
M  END
>  <DRUGBANK_ID>  (1) 
DB11516

>  <COMMON_NAME>  (1) 
Dithiazanine

>  <CAS_NUMBER>  (1) 
7187-55-5

>  <UNII>  (1) 
5L7E7IY5EH

>  <SYNONYMS>  (1) 
3,3'-Diethylthiadicarbocyanine; Dithiazaninum

$$$$
