
     RDKit          2D

 16 16  0  0  0  0  0  0  0  0999 V2000
   -0.3546   -0.4150    0.0000 C   0  0  0  0  0  0  0  0  0  0  0  0
   -1.0735   -0.0047    0.0000 N   0  0  0  0  0  0  0  0  0  0  0  0
    0.3546    0.0047    0.0000 O   0  0  0  0  0  0  0  0  0  0  0  0
   -0.3642   -1.2401    0.0000 O   0  0  0  0  0  0  0  0  0  0  0  0
   -1.0735    0.8203    0.0000 C   0  0  0  0  0  0  0  0  0  0  0  0
   -1.7828   -0.4100    0.0000 C   0  0  0  0  0  0  0  0  0  0  0  0
   -0.3546    1.2352    0.0000 C   0  0  0  0  0  0  0  0  0  0  0  0
    1.0688   -0.4150    0.0000 C   0  0  0  0  0  0  0  0  0  0  0  0
    1.0688    1.2352    0.0000 O   0  0  0  0  0  0  0  0  0  0  0  0
    0.3546    0.8203    0.0000 C   0  0  0  0  0  0  0  0  0  0  0  0
   -1.7828    1.2401    0.0000 C   0  0  0  0  0  0  0  0  0  0  0  0
    1.7781   -0.0047    0.0000 C   0  0  0  0  0  0  0  0  0  0  0  0
    1.0688   -1.2401    0.0000 C   0  0  0  0  0  0  0  0  0  0  0  0
   -2.4970   -0.0047    0.0000 C   0  0  0  0  0  0  0  0  0  0  0  0
    2.4970   -0.4150    0.0000 C   0  0  0  0  0  0  0  0  0  0  0  0
   -2.4970    0.8203    0.0000 C   0  0  0  0  0  0  0  0  0  0  0  0
  2  1  1  0
  3  1  1  0
  4  1  2  0
  5  2  1  0
  6  2  1  0
  7  5  1  0
  8  3  1  0
  9 10  1  0
 10  7  1  0
 11  5  1  0
 12  8  1  0
 13  8  1  0
 14  6  1  0
 15 12  1  0
 16 14  1  0
 16 11  1  0
M  END
>  <DRUGBANK_ID>  (1) 
DB14074

>  <COMMON_NAME>  (1) 
Icaridin

>  <CAS_NUMBER>  (1) 
119515-38-7

>  <UNII>  (1) 
N51GQX0837

>  <SYNONYMS>  (1) 
Icaridin; Icaridina; Icaridinum; Picaridin; Pikaridin; Propidine

$$$$
