
     RDKit          2D

 38 42  0  0  1  0  0  0  0  0999 V2000
   -0.6284   -0.6979    0.0000 C   0  0  0  0  0  0  0  0  0  0  0  0
   -0.1435   -1.3654    0.0000 N   0  0  0  0  0  0  0  0  0  0  0  0
    0.6411   -1.1104    0.0000 C   0  0  0  0  0  0  0  0  0  0  0  0
    0.6411   -0.2854    0.0000 C   0  0  0  0  0  0  0  0  0  0  0  0
   -0.1435   -0.0305    0.0000 N   0  0  0  0  0  0  0  0  0  0  0  0
   -0.3984    0.7541    0.0000 C   0  0  0  0  0  0  0  0  0  0  0  0
   -1.1831    1.0091    0.0000 C   0  0  0  0  0  0  0  0  0  0  0  0
   -1.1831    1.8341    0.0000 C   0  0  0  0  0  0  0  0  0  0  0  0
   -0.3984    2.0890    0.0000 C   0  0  0  0  0  0  0  0  0  0  0  0
    0.0865    1.4216    0.0000 O   0  0  0  0  0  0  0  0  0  0  0  0
   -0.1435    2.8736    0.0000 C   0  0  0  0  0  0  0  0  0  0  0  0
   -0.6955    3.4867    0.0000 O   0  0  0  0  0  0  0  0  0  0  0  0
   -0.4406    4.2713    0.0000 P   0  0  0  0  0  0  0  0  0  0  0  0
   -1.2252    4.5263    0.0000 O   0  0  0  0  0  0  0  0  0  0  0  0
    0.3440    4.0164    0.0000 O   0  0  0  0  0  0  0  0  0  0  0  0
   -0.1857    5.0560    0.0000 O   0  0  0  0  0  0  0  0  0  0  0  0
   -0.7377    5.6691    0.0000 C   0  0  0  0  0  0  0  0  0  0  0  0
   -1.5582    5.5828    0.0000 C   0  0  0  0  0  0  0  0  0  0  0  0
   -1.8937    6.3365    0.0000 C   0  0  0  0  0  0  0  0  0  0  0  0
   -1.2806    6.8885    0.0000 O   0  0  0  0  0  0  0  0  0  0  0  0
   -0.5662    6.4760    0.0000 C   0  0  0  0  0  0  0  0  0  0  0  0
    0.1875    6.8116    0.0000 C   0  0  0  0  0  0  0  0  0  0  0  0
    0.8549    6.3267    0.0000 O   0  0  0  0  0  0  0  0  0  0  0  0
   -2.7007    6.5080    0.0000 N   0  0  0  0  0  0  0  0  0  0  0  0
   -3.2527    5.8949    0.0000 C   0  0  0  0  0  0  0  0  0  0  0  0
   -4.0597    6.0664    0.0000 N   0  0  0  0  0  0  0  0  0  0  0  0
   -4.3146    6.8511    0.0000 C   0  0  0  0  0  0  0  0  0  0  0  0
   -3.7626    7.4642    0.0000 N   0  0  0  0  0  0  0  0  0  0  0  0
   -2.9556    7.2926    0.0000 C   0  0  0  0  0  0  0  0  0  0  0  0
   -2.4036    7.9057    0.0000 O   0  0  0  0  0  0  0  0  0  0  0  0
   -5.1216    7.0226    0.0000 N   0  0  0  0  0  0  0  0  0  0  0  0
   -1.8505    2.3190    0.0000 O   0  0  0  0  0  0  0  0  0  0  0  0
    1.3556    0.1271    0.0000 N   0  0  0  0  0  0  0  0  0  0  0  0
    2.0701   -0.2854    0.0000 C   0  0  0  0  0  0  0  0  0  0  0  0
    2.0701   -1.1104    0.0000 N   0  0  0  0  0  0  0  0  0  0  0  0
    1.3556   -1.5229    0.0000 C   0  0  0  0  0  0  0  0  0  0  0  0
    1.3556   -2.3479    0.0000 O   0  0  0  0  0  0  0  0  0  0  0  0
    2.7845    0.1271    0.0000 N   0  0  0  0  0  0  0  0  0  0  0  0
  1  2  2  0
  1  5  1  0
  2  3  1  0
  3  4  2  0
  3 36  1  0
  4  5  1  0
  4 33  1  0
  6  5  1  1
  6  7  1  0
  6 10  1  0
  7  8  1  0
  8  9  1  0
  8 32  1  6
  9 10  1  0
  9 11  1  1
 11 12  1  0
 12 13  1  0
 13 14  2  0
 13 15  1  0
 13 16  1  0
 17 16  1  1
 17 18  1  0
 17 21  1  0
 18 19  1  0
 19 20  1  0
 19 24  1  6
 20 21  1  0
 21 22  1  6
 22 23  1  0
 24 25  1  0
 24 29  1  0
 25 26  2  0
 26 27  1  0
 27 28  2  0
 27 31  1  0
 28 29  1  0
 29 30  2  0
 33 34  1  0
 34 35  2  0
 34 38  1  0
 35 36  1  0
 36 37  2  0
M  END
>  <DRUGBANK_ID>  (1) 
DB11918

>  <COMMON_NAME>  (1) 
Guadecitabine

>  <CAS_NUMBER>  (1) 
929901-49-5

>  <UNII>  (1) 
2KT4YN1DP7

>  <SYNONYMS>  (1) 
Guadecitabine

$$$$
