
     RDKit          2D

 38 42  0  0  1  0  0  0  0  0999 V2000
   -4.1974   -1.3819    0.0000 C   0  0  0  0  0  0  0  0  0  0  0  0
   -3.7849   -0.6674    0.0000 O   0  0  0  0  0  0  0  0  0  0  0  0
   -2.9599   -0.6674    0.0000 C   0  0  0  0  0  0  0  0  0  0  0  0
   -2.5474   -1.3819    0.0000 N   0  0  0  0  0  0  0  0  0  0  0  0
   -1.7224   -1.3819    0.0000 C   0  0  0  0  0  0  0  0  0  0  0  0
   -1.3099   -2.0964    0.0000 O   0  0  0  0  0  0  0  0  0  0  0  0
   -1.7224   -2.8109    0.0000 C   0  0  0  0  0  0  0  0  0  0  0  0
   -1.3099   -0.6674    0.0000 C   0  0  0  0  0  0  0  0  0  0  0  0
   -1.7224    0.0470    0.0000 C   0  0  0  0  0  0  0  0  0  0  0  0
   -2.5474    0.0470    0.0000 N   0  0  0  0  0  0  0  0  0  0  0  0
   -0.4849   -0.6674    0.0000 C   0  0  0  0  0  0  0  0  0  0  0  0
   -0.0000   -1.3349    0.0000 N   0  0  0  0  0  0  0  0  0  0  0  0
    0.7846   -1.0799    0.0000 C   0  0  0  0  0  0  0  0  0  0  0  0
    0.7846   -0.2549    0.0000 C   0  0  0  0  0  0  0  0  0  0  0  0
    1.5692    0.0000    0.0000 C   0  0  0  0  0  0  0  0  0  0  0  0
    2.0542   -0.6674    0.0000 N   0  0  0  0  0  0  0  0  0  0  0  0
    1.5692   -1.3349    0.0000 C   0  0  0  0  0  0  0  0  0  0  0  0
    1.8242   -2.1195    0.0000 O   0  0  0  0  0  0  0  0  0  0  0  0
    2.8792   -0.6674    0.0000 C   0  0  0  0  0  0  0  0  0  0  0  0
    3.2917    0.0470    0.0000 C   0  0  0  0  0  0  0  0  0  0  0  0
    4.1167    0.0470    0.0000 C   0  0  0  0  0  0  0  0  0  0  0  0
    4.5292    0.7615    0.0000 Cl  0  0  0  0  0  0  0  0  0  0  0  0
    4.5292   -0.6674    0.0000 C   0  0  0  0  0  0  0  0  0  0  0  0
    4.1167   -1.3819    0.0000 N   0  0  0  0  0  0  0  0  0  0  0  0
    4.5292   -2.0964    0.0000 C   0  0  0  0  0  0  0  0  0  0  0  0
    3.2917   -1.3819    0.0000 C   0  0  0  0  0  0  0  0  0  0  0  0
    2.8792   -2.0964    0.0000 O   0  0  0  0  0  0  0  0  0  0  0  0
    1.8242    0.7846    0.0000 C   0  0  0  0  0  0  0  0  0  0  0  0
    1.2721    1.3977    0.0000 C   0  0  0  0  0  0  0  0  0  0  0  0
    1.5271    2.1823    0.0000 C   0  0  0  0  0  0  0  0  0  0  0  0
    2.3341    2.3539    0.0000 C   0  0  0  0  0  0  0  0  0  0  0  0
    2.5890    3.1385    0.0000 Cl  0  0  0  0  0  0  0  0  0  0  0  0
    2.8861    1.7408    0.0000 C   0  0  0  0  0  0  0  0  0  0  0  0
    2.6312    0.9561    0.0000 C   0  0  0  0  0  0  0  0  0  0  0  0
   -0.0000    0.0000    0.0000 N   0  0  0  0  0  0  0  0  0  0  0  0
   -0.2549    0.7846    0.0000 C   0  0  0  0  0  0  0  0  0  0  0  0
   -1.0619    0.9561    0.0000 C   0  0  0  0  0  0  0  0  0  0  0  0
    0.2971    1.3977    0.0000 C   0  0  0  0  0  0  0  0  0  0  0  0
  1  2  1  0
  2  3  1  0
  3  4  2  0
  3 10  1  0
  4  5  1  0
  5  6  1  0
  5  8  2  0
  6  7  1  0
  8  9  1  0
  8 11  1  0
  9 10  2  0
 11 12  2  0
 11 35  1  0
 12 13  1  0
 13 14  2  0
 13 17  1  0
 14 35  1  0
 15 14  1  0
 15 16  1  0
 15 28  1  6
 16 17  1  0
 16 19  1  0
 17 18  2  0
 19 20  2  0
 19 26  1  0
 20 21  1  0
 21 22  1  0
 21 23  2  0
 23 24  1  0
 24 25  1  0
 24 26  1  0
 26 27  2  0
 28 29  2  0
 28 34  1  0
 29 30  1  0
 30 31  2  0
 31 32  1  0
 31 33  1  0
 33 34  2  0
 35 36  1  0
 36 37  1  0
 36 38  1  0
M  END
>  <DRUGBANK_ID>  (1) 
DB16331

>  <COMMON_NAME>  (1) 
Siremadlin

>  <CAS_NUMBER>  (1) 
1448867-41-1

>  <UNII>  (1) 
0282IF4JC8

>  <SYNONYMS>  (1) 
Siremadlin

$$$$
