OEV
     RDKit          2D

 20 20  0  0  0  0  0  0  0  0999 V2000
   -2.2001    0.1570    0.0000 C   0  0  0  0  0  0  0  0  0  0  0  0
   -1.4855    0.5695    0.0000 N   0  0  0  0  0  0  0  0  0  0  0  0
   -2.2001   -0.6680    0.0000 C   0  0  0  0  0  0  0  0  0  0  0  0
   -1.4855   -1.0806    0.0000 O   0  0  0  0  0  0  0  0  0  0  0  0
   -2.9146   -1.0806    0.0000 C   0  0  0  0  0  0  0  0  0  0  0  0
   -2.9146   -1.9056    0.0000 O   0  0  0  0  0  0  0  0  0  0  0  0
   -3.6291   -0.6680    0.0000 C   0  0  0  0  0  0  0  0  0  0  0  0
   -4.3436   -1.0806    0.0000 O   0  0  0  0  0  0  0  0  0  0  0  0
   -3.6291    0.1570    0.0000 C   0  0  0  0  0  0  0  0  0  0  0  0
   -4.3436    0.5695    0.0000 C   0  0  0  0  0  0  0  0  0  0  0  0
   -4.3436    1.3946    0.0000 O   0  0  0  0  0  0  0  0  0  0  0  0
   -2.9146    0.5695    0.0000 C   0  0  0  0  0  0  0  0  0  0  0  0
   -0.7711    0.1570    0.0000 C   0  0  0  0  0  0  0  0  0  0  0  0
   -0.0565    0.5695    0.0000 C   0  0  0  0  0  0  0  0  0  0  0  0
    0.6580    0.1570    0.0000 C   0  0  0  0  0  0  0  0  0  0  0  0
    1.3726    0.5695    0.0000 C   0  0  0  0  0  0  0  0  0  0  0  0
    2.0871    0.1570    0.0000 C   0  0  0  0  0  0  0  0  0  0  0  0
    2.8016    0.5695    0.0000 C   0  0  0  0  0  0  0  0  0  0  0  0
    3.5162    0.1570    0.0000 C   0  0  0  0  0  0  0  0  0  0  0  0
    4.2306    0.5695    0.0000 C   0  0  0  0  0  0  0  0  0  0  0  0
  1  2  1  1
  2 13  1  0
  3  1  1  0
  3  4  1  6
  5  3  1  0
  5  6  1  1
  7  5  1  0
  7  9  1  0
  7  8  1  6
  9 12  2  0
 10  9  1  0
 10 11  1  0
 12  1  1  0
 13 14  1  0
 14 15  1  0
 16 15  1  0
 17 16  1  0
 18 17  1  0
 19 18  1  0
 20 19  1  0
M  END
>  <DRUGBANK_ID>  (1) 
DB08321

>  <COMMON_NAME>  (1) 
(1S,2S,3R,6R)-4-(hydroxymethyl)-6-(octylamino)cyclohex-4-ene-1,2,3-triol

$$$$
