
     RDKit          2D

 25 25  0  0  0  0  0  0  0  0999 V2000
   -4.2355    6.3493    0.0000 C   0  0  0  0  0  0  0  0  0  0  0  0
   -3.4105    6.3493    0.0000 C   0  0  0  0  0  0  0  0  0  0  0  0
   -2.9980    5.6349    0.0000 C   0  0  0  0  0  0  0  0  0  0  0  0
   -2.1730    5.6349    0.0000 O   0  0  0  0  0  0  0  0  0  0  0  0
   -1.7605    4.9204    0.0000 C   0  0  0  0  0  0  0  0  0  0  0  0
   -2.1730    4.2059    0.0000 O   0  0  0  0  0  0  0  0  0  0  0  0
   -0.9355    4.9204    0.0000 C   0  0  0  0  0  0  0  0  0  0  0  0
   -0.5230    4.2059    0.0000 C   0  0  0  0  0  0  0  0  0  0  0  0
    0.3020    4.2059    0.0000 C   0  0  0  0  0  0  0  0  0  0  0  0
    0.7145    3.4914    0.0000 C   0  0  0  0  0  0  0  0  0  0  0  0
    0.3020    2.7770    0.0000 C   0  0  0  0  0  0  0  0  0  0  0  0
   -0.5230    2.7770    0.0000 C   0  0  0  0  0  0  0  0  0  0  0  0
   -0.9355    3.4914    0.0000 C   0  0  0  0  0  0  0  0  0  0  0  0
   -0.9355    2.0625    0.0000 O   0  0  0  0  0  0  0  0  0  0  0  0
   -0.5230    1.3480    0.0000 C   0  0  0  0  0  0  0  0  0  0  0  0
   -0.9355    0.6336    0.0000 C   0  0  0  0  0  0  0  0  0  0  0  0
    0.7145    2.0625    0.0000 O   0  0  0  0  0  0  0  0  0  0  0  0
    1.5395    2.0625    0.0000 C   0  0  0  0  0  0  0  0  0  0  0  0
    1.9520    1.3480    0.0000 C   0  0  0  0  0  0  0  0  0  0  0  0
    1.5395    0.6336    0.0000 O   0  0  0  0  0  0  0  0  0  0  0  0
    2.7770    1.3480    0.0000 N   0  0  0  0  0  0  0  0  0  0  0  0
    3.1895    0.6336    0.0000 C   0  0  0  0  0  0  0  0  0  0  0  0
    4.0145    0.6336    0.0000 C   0  0  0  0  0  0  0  0  0  0  0  0
    3.1895    2.0625    0.0000 C   0  0  0  0  0  0  0  0  0  0  0  0
    4.0145    2.0625    0.0000 C   0  0  0  0  0  0  0  0  0  0  0  0
  1  2  1  0
  2  3  1  0
  3  4  1  0
  4  5  1  0
  5  6  2  0
  5  7  1  0
  7  8  1  0
  8  9  2  0
  8 13  1  0
  9 10  1  0
 10 11  2  0
 11 12  1  0
 11 17  1  0
 12 13  2  0
 12 14  1  0
 14 15  1  0
 15 16  1  0
 17 18  1  0
 18 19  1  0
 19 20  2  0
 19 21  1  0
 21 22  1  0
 21 24  1  0
 22 23  1  0
 24 25  1  0
M  END
>  <DRUGBANK_ID>  (1) 
DB12576

>  <COMMON_NAME>  (1) 
AZD-3043

>  <CAS_NUMBER>  (1) 
579494-66-9

>  <UNII>  (1) 
372AB76LQL

$$$$
