CAH
     RDKit          2D

 12 13  0  0  0  0  0  0  0  0999 V2000
   -0.3250   -0.6294    0.0000 C   0  0  0  0  0  0  0  0  0  0  0  0
   -1.1005   -1.0197    0.0000 C   0  0  0  0  0  0  0  0  0  0  0  0
   -1.6950   -1.5916    0.0000 O   0  0  0  0  0  0  0  0  0  0  0  0
   -0.7352   -0.3592    0.0000 C   0  0  0  0  0  0  0  0  0  0  0  0
   -0.0949    0.0910    0.0000 C   0  0  0  0  0  0  0  0  0  0  0  0
    0.7005   -0.3742    0.0000 C   0  0  0  0  0  0  0  0  0  0  0  0
    1.4886   -0.1303    0.0000 O   0  0  0  0  0  0  0  0  0  0  0  0
    0.4055   -0.9996    0.0000 C   0  0  0  0  0  0  0  0  0  0  0  0
   -0.2549    0.9063    0.0000 C   0  0  0  0  0  0  0  0  0  0  0  0
   -0.8346    1.4932    0.0000 C   0  0  0  0  0  0  0  0  0  0  0  0
    0.2319    1.5724    0.0000 C   0  0  0  0  0  0  0  0  0  0  0  0
   -0.3262   -1.4544    0.0000 C   0  0  0  0  0  0  0  0  0  0  0  0
  1  2  1  0
  1  8  1  0
  1  9  1  0
  1 12  1  6
  2  3  2  0
  2  4  1  0
  5  4  1  6
  5  6  1  0
  5  9  1  0
  6  7  1  6
  6  8  1  0
  9 10  1  0
  9 11  1  0
M  END
>  <DRUGBANK_ID>  (1) 
DB02817

>  <SECONDARY_ACCESSION_NUMBERS>  (1) 
EXPT00826

>  <COMMON_NAME>  (1) 
5-Exo-Hydroxycamphor

$$$$
