
     RDKit          2D

 26 27  0  0  0  0  0  0  0  0999 V2000
   -1.9285    0.3600    0.0000 S   0  0  0  0  0  0  0  0  0  0  0  0
    2.9864   -0.8699    0.0000 S   0  0  0  0  0  0  0  0  0  0  0  0
   -3.9645   -1.4864    0.0000 O   0  0  0  0  0  0  0  0  0  0  0  0
   -4.4061   -0.1274    0.0000 O   0  0  0  0  0  0  0  0  0  0  0  0
   -1.3304   -2.0384    0.0000 O   0  0  0  0  0  0  0  0  0  0  0  0
    0.6802   -1.1894    0.0000 O   0  0  0  0  0  0  0  0  0  0  0  0
    0.1657    1.2315    0.0000 O   0  0  0  0  0  0  0  0  0  0  0  0
   -2.3410   -0.9094    0.0000 N   0  0  0  0  0  0  0  0  0  0  0  0
   -0.2757   -0.1274    0.0000 N   0  0  0  0  0  0  0  0  0  0  0  0
    0.9503    0.9766    0.0000 N   0  0  0  0  0  0  0  0  0  0  0  0
    2.5739    0.3996    0.0000 N   0  0  0  0  0  0  0  0  0  0  0  0
    4.0260    0.1696    0.0000 N   0  0  0  0  0  0  0  0  0  0  0  0
   -2.7535    0.3600    0.0000 C   0  0  0  0  0  0  0  0  0  0  0  0
   -3.0084   -0.4245    0.0000 C   0  0  0  0  0  0  0  0  0  0  0  0
   -1.6735   -0.4245    0.0000 C   0  0  0  0  0  0  0  0  0  0  0  0
   -0.8889   -0.6794    0.0000 C   0  0  0  0  0  0  0  0  0  0  0  0
   -3.5380    0.6150    0.0000 C   0  0  0  0  0  0  0  0  0  0  0  0
   -2.7535    1.1850    0.0000 C   0  0  0  0  0  0  0  0  0  0  0  0
   -3.7930   -0.6794    0.0000 C   0  0  0  0  0  0  0  0  0  0  0  0
   -0.7174   -1.4864    0.0000 C   0  0  0  0  0  0  0  0  0  0  0  0
    0.5087   -0.3823    0.0000 C   0  0  0  0  0  0  0  0  0  0  0  0
    1.1219    0.1696    0.0000 C   0  0  0  0  0  0  0  0  0  0  0  0
    1.9064   -0.0853    0.0000 C   0  0  0  0  0  0  0  0  0  0  0  0
    2.1614   -0.8699    0.0000 C   0  0  0  0  0  0  0  0  0  0  0  0
    3.2414   -0.0853    0.0000 C   0  0  0  0  0  0  0  0  0  0  0  0
   -0.0057    2.0384    0.0000 C   0  0  0  0  0  0  0  0  0  0  0  0
  1 13  1  0
  1 15  1  0
  2 24  1  0
  2 25  1  0
  3 19  1  0
  4 19  2  0
  5 20  2  0
  6 21  2  0
  7 10  1  0
  7 26  1  0
  8 14  1  0
 15  8  1  6
  9 21  1  0
 10 22  2  0
 11 23  1  0
 11 25  2  0
 12 25  1  0
 13 14  1  0
 13 17  1  0
 13 18  1  0
 14 19  1  1
 15 16  1  0
 16  9  1  0
 16 20  1  6
 21 22  1  0
 22 23  1  0
 23 24  2  0
M  END
>  <DRUGBANK_ID>  (1) 
DB03437

>  <SECONDARY_ACCESSION_NUMBERS>  (1) 
EXPT02521

>  <COMMON_NAME>  (1) 
(2R,4S)-2-[(1R)-1-{[(2Z)-2-(2-Amino-1,3-thiazol-4-yl)-2-(methoxyimino)acetyl]amino}-2-oxoethyl]-5,5-dimethyl-1,3-thiazolidine-4-carboxylic acid

$$$$
