LZC
     RDKit          2D

 23 25  0  0  0  0  0  0  0  0999 V2000
   13.8240    7.8481    0.0000 C   0  0  0  0  0  0  0  0  0  0  0  0
   13.8240    7.0231    0.0000 C   0  0  0  0  0  0  0  0  0  0  0  0
   13.1096    6.6106    0.0000 C   0  0  0  0  0  0  0  0  0  0  0  0
   14.5385    6.6106    0.0000 N   0  0  0  0  0  0  0  0  0  0  0  0
   14.5385    5.7856    0.0000 C   0  0  0  0  0  0  0  0  0  0  0  0
   15.2530    5.3731    0.0000 C   0  0  0  0  0  0  0  0  0  0  0  0
   15.2530    4.5481    0.0000 C   0  0  0  0  0  0  0  0  0  0  0  0
   15.9675    4.1356    0.0000 N   0  0  0  0  0  0  0  0  0  0  0  0
   15.9675    3.3106    0.0000 C   0  0  0  0  0  0  0  0  0  0  0  0
   16.6819    2.8981    0.0000 C   0  0  0  0  0  0  0  0  0  0  0  0
   16.6819    2.0731    0.0000 C   0  0  0  0  0  0  0  0  0  0  0  0
   15.9675    1.6606    0.0000 C   0  0  0  0  0  0  0  0  0  0  0  0
   15.9675    0.8356    0.0000 N   0  0  0  0  0  0  0  0  0  0  0  0
   15.2530    2.0731    0.0000 C   0  0  0  0  0  0  0  0  0  0  0  0
   15.2530    2.8981    0.0000 C   0  0  0  0  0  0  0  0  0  0  0  0
   14.5385    4.1356    0.0000 N   0  0  0  0  0  0  0  0  0  0  0  0
   13.8240    4.5481    0.0000 C   0  0  0  0  0  0  0  0  0  0  0  0
   13.0394    4.2932    0.0000 C   0  0  0  0  0  0  0  0  0  0  0  0
   12.7845    3.5085    0.0000 C   0  0  0  0  0  0  0  0  0  0  0  0
   12.5295    2.7239    0.0000 N   0  0  0  0  0  0  0  0  0  0  0  0
   12.5545    4.9606    0.0000 C   0  0  0  0  0  0  0  0  0  0  0  0
   13.0394    5.6280    0.0000 N   0  0  0  0  0  0  0  0  0  0  0  0
   13.8240    5.3731    0.0000 N   0  0  0  0  0  0  0  0  0  0  0  0
  1  2  1  0
  2  3  1  0
  2  4  1  0
  4  5  1  0
  5  6  2  0
  5 23  1  0
  6  7  1  0
  7  8  1  0
  7 16  2  0
  9  8  1  1
  9 10  1  0
  9 15  1  0
 10 11  1  0
 11 12  1  0
 12 13  1  6
 12 14  1  0
 14 15  1  0
 16 17  1  0
 17 18  2  0
 17 23  1  0
 18 19  1  0
 18 21  1  0
 19 20  3  0
 21 22  2  0
 22 23  1  0
M  END
>  <DRUGBANK_ID>  (1) 
DB08140

>  <COMMON_NAME>  (1) 
5-[(4-AMINOCYCLOHEXYL)AMINO]-7-(PROPAN-2-YLAMINO)PYRAZOLO[1,5-A]PYRIMIDINE-3-CARBONITRILE

$$$$
