
     RDKit          2D

 23 23  0  0  0  0  0  0  0  0999 V2000
   -1.4011    0.4549    0.0000 C   0  0  0  0  0  0  0  0  0  0  0  0
   -0.6901    0.0367    0.0000 N   0  0  0  0  0  0  0  0  0  0  0  0
   -2.1540    0.0367    0.0000 C   0  0  0  0  0  0  0  0  0  0  0  0
   -1.4011    1.2915    0.0000 O   0  0  0  0  0  0  0  0  0  0  0  0
    0.0208    0.4549    0.0000 C   0  0  0  0  0  0  0  0  0  0  0  0
    0.7318    0.0367    0.0000 C   0  0  0  0  0  0  0  0  0  0  0  0
    1.4847    0.4549    0.0000 N   0  0  0  0  0  0  0  0  0  0  0  0
    0.7318   -0.7998    0.0000 O   0  0  0  0  0  0  0  0  0  0  0  0
    2.1958    0.0367    0.0000 C   0  0  0  0  0  0  0  0  0  0  0  0
    2.9069    0.4549    0.0000 C   0  0  0  0  0  0  0  0  0  0  0  0
    2.1958   -0.7998    0.0000 B   0  0  0  0  0  0  0  0  0  0  0  0
    3.6179    0.0367    0.0000 C   0  0  0  0  0  0  0  0  0  0  0  0
    4.3289    0.4549    0.0000 C   0  0  0  0  0  0  0  0  0  0  0  0
    3.6179   -0.7998    0.0000 C   0  0  0  0  0  0  0  0  0  0  0  0
   -2.8651    0.4549    0.0000 C   0  0  0  0  0  0  0  0  0  0  0  0
   -3.5761    0.0367    0.0000 C   0  0  0  0  0  0  0  0  0  0  0  0
   -3.5761   -0.7998    0.0000 C   0  0  0  0  0  0  0  0  0  0  0  0
   -2.8651   -1.2181    0.0000 C   0  0  0  0  0  0  0  0  0  0  0  0
   -2.1540   -0.7998    0.0000 C   0  0  0  0  0  0  0  0  0  0  0  0
   -1.4011   -1.2599    0.0000 Cl  0  0  0  0  0  0  0  0  0  0  0  0
   -4.3289    0.4549    0.0000 Cl  0  0  0  0  0  0  0  0  0  0  0  0
    1.5191   -1.2915    0.0000 O   0  0  0  0  0  0  0  0  0  0  0  0
    2.8726   -1.2915    0.0000 O   0  0  0  0  0  0  0  0  0  0  0  0
  1  2  1  0
  1  3  1  0
  1  4  2  0
  2  5  1  0
  3 15  2  0
  3 19  1  0
  5  6  1  0
  6  7  1  0
  6  8  2  0
  7  9  1  0
  9 10  1  1
  9 11  1  0
 10 12  1  0
 11 22  1  0
 11 23  1  0
 12 13  1  0
 12 14  1  0
 15 16  1  0
 16 17  2  0
 16 21  1  0
 17 18  1  0
 18 19  2  0
 19 20  1  0
M  END
>  <DRUGBANK_ID>  (1) 
DB09570

>  <COMMON_NAME>  (1) 
Ixazomib

>  <CAS_NUMBER>  (1) 
1072833-77-2

>  <UNII>  (1) 
71050168A2

>  <SYNONYMS>  (1) 
Ixazomib

$$$$
