AAH
     RDKit          2D

 23 23  0  0  0  0  0  0  0  0999 V2000
   -3.6356    2.4949    0.0000 C   0  0  0  0  0  0  0  0  0  0  0  0
   -2.8255    2.3390    0.0000 C   0  0  0  0  0  0  0  0  0  0  0  0
   -2.5555    1.5595    0.0000 C   0  0  0  0  0  0  0  0  0  0  0  0
   -3.0955    0.9358    0.0000 C   0  0  0  0  0  0  0  0  0  0  0  0
   -3.9057    1.0917    0.0000 C   0  0  0  0  0  0  0  0  0  0  0  0
   -4.1757    1.8713    0.0000 C   0  0  0  0  0  0  0  0  0  0  0  0
   -4.9859    2.0272    0.0000 N   0  0  0  0  0  0  0  0  0  0  0  0
   -5.5260    1.4036    0.0000 O   0  0  0  0  0  0  0  0  0  0  0  0
   -5.2559    2.8068    0.0000 O   0  0  0  0  0  0  0  0  0  0  0  0
   -1.7453    1.4036    0.0000 C   0  0  0  0  0  0  0  0  0  0  0  0
   -1.2052    2.0272    0.0000 N   0  0  0  0  0  0  0  0  0  0  0  0
   -1.4753    2.8068    0.0000 C   0  0  0  0  0  0  0  0  0  0  0  0
   -0.9352    3.4304    0.0000 P   0  0  0  0  0  0  0  0  0  0  0  0
   -0.3116    2.8903    0.0000 O   0  0  0  0  0  0  0  0  0  0  0  0
   -1.5588    3.9705    0.0000 O   0  0  0  0  0  0  0  0  0  0  0  0
   -0.3951    4.0540    0.0000 O   0  0  0  0  0  0  0  0  0  0  0  0
   -0.3951    1.8713    0.0000 C   0  0  0  0  0  0  0  0  0  0  0  0
    0.1450    2.4949    0.0000 C   0  0  0  0  0  0  0  0  0  0  0  0
    0.9551    2.3390    0.0000 C   0  0  0  0  0  0  0  0  0  0  0  0
    1.4952    2.9627    0.0000 C   0  0  0  0  0  0  0  0  0  0  0  0
    2.3053    2.8068    0.0000 C   0  0  0  0  0  0  0  0  0  0  0  0
    2.8454    3.4304    0.0000 O   0  0  0  0  0  0  0  0  0  0  0  0
    2.5754    2.0272    0.0000 O   0  0  0  0  0  0  0  0  0  0  0  0
  1  2  2  0
  1  6  1  0
  2  3  1  0
  3  4  2  0
  3 10  1  0
  4  5  1  0
  5  6  2  0
  6  7  1  0
  7  8  2  0
  7  9  1  0
 10 11  1  0
 11 12  1  0
 11 17  1  0
 12 13  1  0
 13 14  2  0
 13 15  1  0
 13 16  1  0
 17 18  1  0
 18 19  1  0
 19 20  1  0
 20 21  1  0
 21 22  1  0
 21 23  2  0
M  CHG  2   7   1   9  -1
M  END
>  <DRUGBANK_ID>  (1) 
DB07329

>  <COMMON_NAME>  (1) 
1-[N-4'-NITROBENZYL-N-4'-CARBOXYBUTYLAMINO]METHYLPHOSPHONIC ACID

$$$$
