
     RDKit          2D

 24 27  0  0  0  0  0  0  0  0999 V2000
   -0.7431   -0.0967    0.0000 C   0  0  0  0  0  0  0  0  0  0  0  0
   -0.7339    0.7282    0.0000 C   0  0  0  0  0  0  0  0  0  0  0  0
   -0.0149    1.1293    0.0000 C   0  0  0  0  0  0  0  0  0  0  0  0
    0.6949    0.7097    0.0000 C   0  0  0  0  0  0  0  0  0  0  0  0
    0.6856   -0.1152    0.0000 C   0  0  0  0  0  0  0  0  0  0  0  0
    1.4646   -0.3733    0.0000 C   0  0  0  0  0  0  0  0  0  0  0  0
    1.9578    0.2857    0.0000 C   0  0  0  0  0  0  0  0  0  0  0  0
    1.4829    0.9541    0.0000 C   0  0  0  0  0  0  0  0  0  0  0  0
    1.6904    1.7514    0.0000 O   0  0  0  0  0  0  0  0  0  0  0  0
    2.5072    0.9541    0.0000 C   0  0  0  0  0  0  0  0  0  0  0  0
    3.6006    0.9195    0.0000 C   0  0  0  0  0  0  0  0  0  0  0  0
   -0.0333   -0.5207    0.0000 C   0  0  0  0  0  0  0  0  0  0  0  0
   -0.0287   -1.3412    0.0000 C   0  0  0  0  0  0  0  0  0  0  0  0
    0.6857   -1.7513    0.0000 O   0  0  0  0  0  0  0  0  0  0  0  0
   -0.7477   -1.7513    0.0000 C   0  0  0  0  0  0  0  0  0  0  0  0
   -1.4621   -1.3365    0.0000 C   0  0  0  0  0  0  0  0  0  0  0  0
   -2.1718   -1.7467    0.0000 C   0  0  0  0  0  0  0  0  0  0  0  0
   -2.8863   -1.3365    0.0000 C   0  0  0  0  0  0  0  0  0  0  0  0
   -2.8863   -0.5115    0.0000 C   0  0  0  0  0  0  0  0  0  0  0  0
   -2.1718   -0.0967    0.0000 C   0  0  0  0  0  0  0  0  0  0  0  0
   -1.4574   -0.5115    0.0000 C   0  0  0  0  0  0  0  0  0  0  0  0
   -1.4621    0.3088    0.0000 C   0  0  0  0  0  0  0  0  0  0  0  0
   -3.6006   -1.7467    0.0000 O   0  0  0  0  0  0  0  0  0  0  0  0
    0.6949    1.5348    0.0000 C   0  0  0  0  0  0  0  0  0  0  0  0
  1 21  1  0
  1  2  1  1
  3  2  1  0
  4  3  1  0
  4 24  1  1
  5  4  1  0
  5 12  1  0
  5  6  1  1
  7  6  1  0
  8  7  1  0
  8  9  1  1
  8  4  1  0
  8 10  1  0
 10 11  3  0
 12 13  1  6
 12  1  1  0
 13 14  1  1
 13 15  1  0
 15 16  2  0
 16 21  1  0
 17 16  1  0
 18 17  1  0
 18 19  1  0
 18 23  1  1
 19 20  1  0
 20 21  1  0
 21 22  1  1
M  END
>  <DRUGBANK_ID>  (1) 
DB05212

>  <COMMON_NAME>  (1) 
HE3286

>  <CAS_NUMBER>  (1) 
1001100-69-1

>  <UNII>  (1) 
PH8858757I

$$$$
