
     RDKit          2D

 22 25  0  0  0  0  0  0  0  0999 V2000
    2.6305    1.7957    0.0000 O   0  0  0  0  0  0  0  0  0  0  0  0
    1.6116   -1.7407    0.0000 O   0  0  0  0  0  0  0  0  0  0  0  0
   -2.8557   -1.7580    0.0000 O   0  0  0  0  0  0  0  0  0  0  0  0
    1.5936   -0.0647    0.0000 C   0  0  0  0  0  0  0  0  0  0  0  0
    1.5936    0.7602    0.0000 C   0  0  0  0  0  0  0  0  0  0  0  0
    0.8791   -0.4772    0.0000 C   0  0  0  0  0  0  0  0  0  0  0  0
    0.1647   -0.0647    0.0000 C   0  0  0  0  0  0  0  0  0  0  0  0
   -0.5860   -0.4829    0.0000 C   0  0  0  0  0  0  0  0  0  0  0  0
    0.8791    1.1727    0.0000 C   0  0  0  0  0  0  0  0  0  0  0  0
    0.1647    0.7602    0.0000 C   0  0  0  0  0  0  0  0  0  0  0  0
    2.3742    1.0116    0.0000 C   0  0  0  0  0  0  0  0  0  0  0  0
    2.3742   -0.3162    0.0000 C   0  0  0  0  0  0  0  0  0  0  0  0
    0.8924   -1.3365    0.0000 C   0  0  0  0  0  0  0  0  0  0  0  0
    2.8557    0.3477    0.0000 C   0  0  0  0  0  0  0  0  0  0  0  0
   -0.5927   -1.3422    0.0000 C   0  0  0  0  0  0  0  0  0  0  0  0
   -1.3507   -0.0175    0.0000 C   0  0  0  0  0  0  0  0  0  0  0  0
    1.5936    1.5852    0.0000 C   0  0  0  0  0  0  0  0  0  0  0  0
    0.1515   -1.7719    0.0000 C   0  0  0  0  0  0  0  0  0  0  0  0
   -0.5796    0.3420    0.0000 C   0  0  0  0  0  0  0  0  0  0  0  0
   -1.3644   -1.7957    0.0000 C   0  0  0  0  0  0  0  0  0  0  0  0
   -2.1327   -0.4531    0.0000 C   0  0  0  0  0  0  0  0  0  0  0  0
   -2.1396   -1.3482    0.0000 C   0  0  0  0  0  0  0  0  0  0  0  0
  4  5  1  0
  4  6  1  0
  4 12  1  1
  5  9  1  0
  5 11  1  0
  5 17  1  1
  6  7  1  0
  6 13  1  6
  7  8  1  0
  7 10  1  1
  8 15  1  0
  8 16  1  0
  8 19  1  1
  9 10  1  0
 11  1  1  1
 11 14  1  0
 12 14  1  0
 13  2  1  1
 13 18  1  0
 15 18  2  0
 15 20  1  0
 16 21  1  0
 20 22  1  0
 21 22  1  0
 22  3  1  1
M  END
>  <DRUGBANK_ID>  (1) 
DB06257

>  <COMMON_NAME>  (1) 
HE-2200

>  <CAS_NUMBER>  (1) 
2697-85-0

>  <UNII>  (1) 
Q0CZ537GC8

>  <SYNONYMS>  (1) 
beta-Aet

$$$$
