
     RDKit          2D

 29 31  0  0  0  0  0  0  0  0999 V2000
    1.1108   -1.7663    0.0000 C   0  0  0  0  0  0  0  0  0  0  0  0
   -3.8904    0.2961    0.0000 C   0  0  0  0  0  0  0  0  0  0  0  0
   -3.8904   -0.5288    0.0000 C   0  0  0  0  0  0  0  0  0  0  0  0
   -3.1759    0.7086    0.0000 C   0  0  0  0  0  0  0  0  0  0  0  0
    0.0538    2.0072    0.0000 C   0  0  0  0  0  0  0  0  0  0  0  0
   -0.2011    1.2226    0.0000 C   0  0  0  0  0  0  0  0  0  0  0  0
   -3.1759   -0.9413    0.0000 C   0  0  0  0  0  0  0  0  0  0  0  0
   -2.4615    0.2961    0.0000 C   0  0  0  0  0  0  0  0  0  0  0  0
    0.8607    2.1788    0.0000 C   0  0  0  0  0  0  0  0  0  0  0  0
    0.3508    0.6095    0.0000 C   0  0  0  0  0  0  0  0  0  0  0  0
   -1.7470   -0.9413    0.0000 C   0  0  0  0  0  0  0  0  0  0  0  0
   -1.0325   -0.5288    0.0000 C   0  0  0  0  0  0  0  0  0  0  0  0
    2.2378    1.5657    0.0000 C   0  0  0  0  0  0  0  0  0  0  0  0
    1.1108   -0.9413    0.0000 C   0  0  0  0  0  0  0  0  0  0  0  0
   -2.4615   -0.5288    0.0000 C   0  0  0  0  0  0  0  0  0  0  0  0
    1.4128    1.5657    0.0000 C   0  0  0  0  0  0  0  0  0  0  0  0
   -0.3181   -0.9413    0.0000 C   0  0  0  0  0  0  0  0  0  0  0  0
    1.1578    0.7811    0.0000 C   0  0  0  0  0  0  0  0  0  0  0  0
    2.4927    0.7811    0.0000 C   0  0  0  0  0  0  0  0  0  0  0  0
    1.8253   -0.5288    0.0000 C   0  0  0  0  0  0  0  0  0  0  0  0
   -0.3181   -1.7663    0.0000 C   0  0  0  0  0  0  0  0  0  0  0  0
    3.2773    0.5261    0.0000 C   0  0  0  0  0  0  0  0  0  0  0  0
    0.3963   -0.5288    0.0000 N   0  0  0  0  0  0  0  0  0  0  0  0
    1.8253    0.2961    0.0000 N   0  0  0  0  0  0  0  0  0  0  0  0
    2.5397   -0.9413    0.0000 O   0  0  0  0  0  0  0  0  0  0  0  0
    0.3963   -2.1788    0.0000 O   0  0  0  0  0  0  0  0  0  0  0  0
   -1.0325   -2.1788    0.0000 O   0  0  0  0  0  0  0  0  0  0  0  0
    3.8904    1.0781    0.0000 O   0  0  0  0  0  0  0  0  0  0  0  0
    3.4488   -0.2808    0.0000 O   0  0  0  0  0  0  0  0  0  0  0  0
  3  2  2  0
  4  2  1  0
  6  5  1  0
  7  3  1  0
  8  4  2  0
  9  5  1  0
 10  6  1  0
 12 11  1  0
 14  1  1  6
 14 20  1  0
 14 23  1  0
 15  7  2  0
 15  8  1  0
 15 11  1  0
 16  9  1  6
 16 13  1  0
 16 18  1  0
 17 12  1  6
 17 21  1  0
 17 23  1  0
 18 10  1  1
 18 24  1  0
 19 13  1  0
 19 22  1  1
 19 24  1  0
 24 20  1  0
 25 20  2  0
 26 21  2  0
 27 21  1  0
 28 22  2  0
 29 22  1  0
M  END
>  <DRUGBANK_ID>  (1) 
DB14209

>  <COMMON_NAME>  (1) 
Trandolaprilat

>  <CAS_NUMBER>  (1) 
87679-71-8

>  <UNII>  (1) 
RR6866VL0O

>  <SYNONYMS>  (1) 
Trandolapril diacid; Trandolaprilat; Trandolaprilate; Trandolaprilatum

$$$$
