
     RDKit          2D

 29 31  0  0  0  0  0  0  0  0999 V2000
    0.0663   -0.4125    0.0000 O   0  0  0  0  0  0  0  0  0  0  0  0
   -1.3626   -0.4125    0.0000 O   0  0  0  0  0  0  0  0  0  0  0  0
    1.5183   -2.0911    0.0000 O   0  0  0  0  0  0  0  0  0  0  0  0
    2.2658   -0.8078    0.0000 O   0  0  0  0  0  0  0  0  0  0  0  0
   -2.0771    1.6500    0.0000 O   0  0  0  0  0  0  0  0  0  0  0  0
    0.0663   -2.8875    0.0000 O   0  0  0  0  0  0  0  0  0  0  0  0
   -1.3626   -2.0625    0.0000 O   0  0  0  0  0  0  0  0  0  0  0  0
    0.0663    0.4125    0.0000 O   0  0  0  0  0  0  0  0  0  0  0  0
    0.0663    2.0625    0.0000 O   0  0  0  0  0  0  0  0  0  0  0  0
   -1.3626    2.8875    0.0000 O   0  0  0  0  0  0  0  0  0  0  0  0
   -3.5061    0.8250    0.0000 O   0  0  0  0  0  0  0  0  0  0  0  0
    3.5061   -0.9575    0.0000 O   0  0  0  0  0  0  0  0  0  0  0  0
   -2.7915   -0.4125    0.0000 O   0  0  0  0  0  0  0  0  0  0  0  0
    3.5005   -2.3864    0.0000 O   0  0  0  0  0  0  0  0  0  0  0  0
    0.7808   -1.6500    0.0000 C   0  0  0  0  0  0  0  0  0  0  0  0
    0.7808   -0.8250    0.0000 C   0  0  0  0  0  0  0  0  0  0  0  0
    0.0663   -2.0625    0.0000 C   0  0  0  0  0  0  0  0  0  0  0  0
   -0.6481   -1.6500    0.0000 C   0  0  0  0  0  0  0  0  0  0  0  0
   -0.6481   -0.8250    0.0000 C   0  0  0  0  0  0  0  0  0  0  0  0
   -1.3626    0.4125    0.0000 C   0  0  0  0  0  0  0  0  0  0  0  0
    1.5183   -0.3838    0.0000 C   0  0  0  0  0  0  0  0  0  0  0  0
   -0.6481    0.8250    0.0000 C   0  0  0  0  0  0  0  0  0  0  0  0
   -2.0771    0.8250    0.0000 C   0  0  0  0  0  0  0  0  0  0  0  0
    2.2658   -1.6671    0.0000 C   0  0  0  0  0  0  0  0  0  0  0  0
   -0.6481    1.6500    0.0000 C   0  0  0  0  0  0  0  0  0  0  0  0
   -1.3626    2.0625    0.0000 C   0  0  0  0  0  0  0  0  0  0  0  0
    2.6756   -2.3833    0.0000 C   0  0  0  0  0  0  0  0  0  0  0  0
   -2.7915    0.4125    0.0000 C   0  0  0  0  0  0  0  0  0  0  0  0
    3.0908   -1.6704    0.0000 C   0  0  0  0  0  0  0  0  0  0  0  0
  1 16  1  0
  1 19  1  0
 15  3  1  1
  3 24  1  0
  4 21  1  0
  4 24  1  0
  5 23  1  0
  5 26  1  0
 10 26  1  0
 11 28  1  0
 12 29  1  0
 13 28  2  0
 14 29  2  0
 15 16  1  0
 15 17  1  0
 16 21  1  6
 17  6  1  6
 17 18  1  0
 18  7  1  6
 18 19  1  0
 19  2  1  6
 20  2  1  6
 20 22  1  0
 20 23  1  0
 22  8  1  1
 22 25  1  0
 23 28  1  1
 24 27  1  1
 24 29  1  0
 25  9  1  6
 25 26  1  0
M  END
>  <DRUGBANK_ID>  (1) 
DB04596

>  <COMMON_NAME>  (1) 
4-O-{4,6-O-[(1S)-1-Carboxyethylidene]-Î²-D-mannopyranosyl}-D-glucopyranuronic acid

$$$$
