
     RDKit          2D

 23 24  0  0  0  0  0  0  0  0999 V2000
   -2.4402    0.6290    0.0000 C   0  0  0  0  0  0  0  0  0  0  0  0
   -2.9251   -0.0384    0.0000 C   0  0  0  0  0  0  0  0  0  0  0  0
   -1.6152    0.6290    0.0000 N   0  0  0  0  0  0  0  0  0  0  0  0
   -2.6951    1.4136    0.0000 N   0  0  0  0  0  0  0  0  0  0  0  0
   -3.7456    0.0478    0.0000 C   0  0  0  0  0  0  0  0  0  0  0  0
   -2.5896   -0.7921    0.0000 C   0  0  0  0  0  0  0  0  0  0  0  0
   -1.3603    1.4136    0.0000 C   0  0  0  0  0  0  0  0  0  0  0  0
   -2.0277    1.8986    0.0000 O   0  0  0  0  0  0  0  0  0  0  0  0
   -4.2305   -0.6196    0.0000 C   0  0  0  0  0  0  0  0  0  0  0  0
   -3.0745   -1.4595    0.0000 C   0  0  0  0  0  0  0  0  0  0  0  0
   -0.5757    1.6686    0.0000 N   0  0  0  0  0  0  0  0  0  0  0  0
   -3.8950   -1.3733    0.0000 C   0  0  0  0  0  0  0  0  0  0  0  0
    0.0373    1.1164    0.0000 C   0  0  0  0  0  0  0  0  0  0  0  0
    0.8220    1.3715    0.0000 C   0  0  0  0  0  0  0  0  0  0  0  0
    1.4351    0.8194    0.0000 N   0  0  0  0  0  0  0  0  0  0  0  0
    2.2197    1.0744    0.0000 C   0  0  0  0  0  0  0  0  0  0  0  0
    1.2635    0.0125    0.0000 C   0  0  0  0  0  0  0  0  0  0  0  0
    2.8328    0.5224    0.0000 C   0  0  0  0  0  0  0  0  0  0  0  0
    1.8766   -0.5395    0.0000 C   0  0  0  0  0  0  0  0  0  0  0  0
    3.6174    0.7773    0.0000 C   0  0  0  0  0  0  0  0  0  0  0  0
    1.7051   -1.3465    0.0000 C   0  0  0  0  0  0  0  0  0  0  0  0
    4.2305    0.2252    0.0000 C   0  0  0  0  0  0  0  0  0  0  0  0
    2.3182   -1.8986    0.0000 C   0  0  0  0  0  0  0  0  0  0  0  0
  1  2  1  0
  1  3  1  0
  1  4  2  0
  2  5  2  0
  2  6  1  0
  3  7  2  0
  4  8  1  0
  5  9  1  0
  6 10  2  0
  7 11  1  0
  7  8  1  0
  9 12  2  0
 10 12  1  0
 11 13  1  0
 13 14  1  0
 14 15  1  0
 15 16  1  0
 15 17  1  0
 16 18  1  0
 17 19  1  0
 18 20  1  0
 19 21  1  0
 20 22  1  0
 21 23  1  0
M  END
>  <DRUGBANK_ID>  (1) 
DB13681

>  <COMMON_NAME>  (1) 
Butalamine

>  <CAS_NUMBER>  (1) 
22131-35-7

>  <UNII>  (1) 
140T9JTG43

>  <SYNONYMS>  (1) 
Butalamina; Butalamine; Butalaminum

$$$$
