
     RDKit          2D

  3  2  0  0  0  0  0  0  0  0999 V2000
    2.0930   -0.2063    0.0000 O   0  0  0  0  0  0  0  0  0  0  0  0
    2.8075    0.2063    0.0000 C   0  0  0  0  0  0  0  0  0  0  0  0
    3.5219   -0.2063    0.0000 C   0  0  0  0  0  0  0  0  0  0  0  0
  1  2  1  0
  2  3  1  0
M  END
>  <DRUGBANK_ID>  (1) 
DB00898

>  <SECONDARY_ACCESSION_NUMBERS>  (1) 
APRD00738

>  <COMMON_NAME>  (1) 
Ethanol

>  <CAS_NUMBER>  (1) 
64-17-5

>  <UNII>  (1) 
3K9958V90M

>  <SYNONYMS>  (1) 
1-Hydroxyethane; Alcohol; Alcohol (ethyl); Alcohol anhydrous; Alcohol denatured; Alcohol etílico; Alcohol, denatured; Alcool éthylique; Alkohol; Äthanol; Äthylalkohol; Dehydrated alcohol; Dehydrated ethanol; etanol; éthanol; Ethyl Alcohol; Grain alcohol; Hydroxyethane; Methylcarbinol; Spiritus vini

$$$$
