
     RDKit          2D

 13 12  0  0  0  0  0  0  0  0999 V2000
    0.7144   -1.0312    0.0000 O   0  0  0  0  0  0  0  0  0  0  0  0
    1.4289    1.0312    0.0000 O   0  0  0  0  0  0  0  0  0  0  0  0
    0.0000    1.0312    0.0000 O   0  0  0  0  0  0  0  0  0  0  0  0
    2.8578    0.2062    0.0000 O   0  0  0  0  0  0  0  0  0  0  0  0
    2.1434   -1.0312    0.0000 O   0  0  0  0  0  0  0  0  0  0  0  0
   -0.7144   -0.2062    0.0000 N   0  0  0  0  0  0  0  0  0  0  0  0
    0.7144   -0.2062    0.0000 C   0  0  0  0  0  0  0  0  0  0  0  0
    1.4289    0.2062    0.0000 C   0  0  0  0  0  0  0  0  0  0  0  0
   -1.4289    0.2062    0.0000 C   0  0  0  0  0  0  0  0  0  0  0  0
    0.0000    0.2062    0.0000 C   0  0  0  0  0  0  0  0  0  0  0  0
   -2.1434   -0.2062    0.0000 C   0  0  0  0  0  0  0  0  0  0  0  0
   -2.8578    0.2062    0.0000 C   0  0  0  0  0  0  0  0  0  0  0  0
    2.1434   -0.2062    0.0000 C   0  0  0  0  0  0  0  0  0  0  0  0
  3 10  2  0
  4 13  1  0
  5 13  2  0
  6  9  1  0
  6 10  1  0
  7  1  1  1
  7  8  1  0
  7 10  1  0
  8  2  1  1
  8 13  1  0
  9 11  1  0
 11 12  1  0
M  END
>  <DRUGBANK_ID>  (1) 
DB03390

>  <SECONDARY_ACCESSION_NUMBERS>  (1) 
EXPT02679

>  <COMMON_NAME>  (1) 
(2R,3R)-2,3-Dihydroxy-4-oxo-4-(propylamino)butanoic acid

>  <SYNONYMS>  (1) 
N-Propyl-L-tartramate; N-Propyl-tartramic acid

$$$$
