
     RDKit          2D

 36 40  0  0  0  0  0  0  0  0999 V2000
    3.7898   -4.5653    0.0000 C   0  0  0  0  0  0  0  0  0  0  0  0
    4.0447   -3.7806    0.0000 C   0  0  0  0  0  0  0  0  0  0  0  0
    3.4927   -3.1676    0.0000 S   0  0  0  0  0  0  0  0  0  0  0  0
    4.1058   -2.6155    0.0000 O   0  0  0  0  0  0  0  0  0  0  0  0
    2.8796   -3.7196    0.0000 O   0  0  0  0  0  0  0  0  0  0  0  0
    2.9406   -2.5545    0.0000 C   0  0  0  0  0  0  0  0  0  0  0  0
    2.1337   -2.7260    0.0000 C   0  0  0  0  0  0  0  0  0  0  0  0
    1.5816   -2.1129    0.0000 C   0  0  0  0  0  0  0  0  0  0  0  0
    1.8366   -1.3283    0.0000 C   0  0  0  0  0  0  0  0  0  0  0  0
    2.6435   -1.1567    0.0000 C   0  0  0  0  0  0  0  0  0  0  0  0
    3.1956   -1.7698    0.0000 C   0  0  0  0  0  0  0  0  0  0  0  0
    2.8985   -0.3721    0.0000 C   0  0  0  0  0  0  0  0  0  0  0  0
    3.7054   -0.2006    0.0000 C   0  0  0  0  0  0  0  0  0  0  0  0
    3.9604    0.5840    0.0000 C   0  0  0  0  0  0  0  0  0  0  0  0
    3.4084    1.1971    0.0000 C   0  0  0  0  0  0  0  0  0  0  0  0
    2.6014    1.0256    0.0000 C   0  0  0  0  0  0  0  0  0  0  0  0
    2.3464    0.2410    0.0000 C   0  0  0  0  0  0  0  0  0  0  0  0
    1.5214    0.2410    0.0000 C   0  0  0  0  0  0  0  0  0  0  0  0
    0.9694   -0.3721    0.0000 C   0  0  0  0  0  0  0  0  0  0  0  0
    0.1624   -0.2006    0.0000 C   0  0  0  0  0  0  0  0  0  0  0  0
   -0.0925    0.5840    0.0000 C   0  0  0  0  0  0  0  0  0  0  0  0
    0.4595    1.1971    0.0000 N   0  0  0  0  0  0  0  0  0  0  0  0
    1.2665    1.0256    0.0000 C   0  0  0  0  0  0  0  0  0  0  0  0
    1.9339    1.5105    0.0000 N   0  0  0  0  0  0  0  0  0  0  0  0
   -0.3896   -0.8137    0.0000 C   0  0  0  0  0  0  0  0  0  0  0  0
    3.6633    1.9817    0.0000 C   0  0  0  0  0  0  0  0  0  0  0  0
    4.7674    0.7556    0.0000 C   0  0  0  0  0  0  0  0  0  0  0  0
    5.3194    0.1425    0.0000 O   0  0  0  0  0  0  0  0  0  0  0  0
    5.0223    1.5402    0.0000 N   0  0  0  0  0  0  0  0  0  0  0  0
    5.8293    1.7117    0.0000 C   0  0  0  0  0  0  0  0  0  0  0  0
    6.0842    2.4963    0.0000 C   0  0  0  0  0  0  0  0  0  0  0  0
    6.8912    2.6679    0.0000 C   0  0  0  0  0  0  0  0  0  0  0  0
    7.4432    2.0548    0.0000 N   0  0  0  0  0  0  0  0  0  0  0  0
    7.1883    1.2701    0.0000 C   0  0  0  0  0  0  0  0  0  0  0  0
    6.3813    1.0986    0.0000 C   0  0  0  0  0  0  0  0  0  0  0  0
    8.2502    2.2263    0.0000 C   0  0  0  0  0  0  0  0  0  0  0  0
  1  2  1  0
  2  3  1  0
  3  4  2  0
  3  5  2  0
  3  6  1  0
  6  7  2  0
  6 11  1  0
  7  8  1  0
  8  9  2  0
  9 10  1  0
 10 11  2  0
 10 12  1  0
 12 13  2  0
 12 17  1  0
 13 14  1  0
 14 15  2  0
 14 27  1  0
 15 16  1  0
 15 26  1  0
 16 17  2  0
 16 24  1  0
 17 18  1  0
 18 19  2  0
 18 23  1  0
 19 20  1  0
 20 21  2  0
 20 25  1  0
 21 22  1  0
 22 23  2  0
 23 24  1  0
 27 28  2  0
 27 29  1  0
 29 30  1  0
 30 31  1  0
 30 35  1  0
 31 32  1  0
 32 33  1  0
 33 34  1  0
 33 36  1  0
 34 35  1  0
M  END
>  <DRUGBANK_ID>  (1) 
DB12756

>  <COMMON_NAME>  (1) 
TAK-901

>  <CAS_NUMBER>  (1) 
934541-31-8

>  <UNII>  (1) 
DM9UIR23R7

$$$$
