
     RDKit          2D

 32 35  0  0  1  0  0  0  0  0999 V2000
    4.2575   -0.8137    0.0000 C   0  0  0  0  0  0  0  0  0  0  0  0
    3.7054   -0.2006    0.0000 C   0  0  0  0  0  0  0  0  0  0  0  0
    2.8985   -0.3721    0.0000 C   0  0  0  0  0  0  0  0  0  0  0  0
    2.3464    0.2410    0.0000 C   0  0  0  0  0  0  0  0  0  0  0  0
    2.6014    1.0256    0.0000 C   0  0  0  0  0  0  0  0  0  0  0  0
    1.9339    1.5105    0.0000 N   0  0  0  0  0  0  0  0  0  0  0  0
    1.2665    1.0256    0.0000 C   0  0  0  0  0  0  0  0  0  0  0  0
    1.5214    0.2410    0.0000 C   0  0  0  0  0  0  0  0  0  0  0  0
    0.9694   -0.3721    0.0000 C   0  0  0  0  0  0  0  0  0  0  0  0
    0.1624   -0.2006    0.0000 C   0  0  0  0  0  0  0  0  0  0  0  0
   -0.0925    0.5840    0.0000 C   0  0  0  0  0  0  0  0  0  0  0  0
    0.4595    1.1971    0.0000 C   0  0  0  0  0  0  0  0  0  0  0  0
    3.4084    1.1971    0.0000 C   0  0  0  0  0  0  0  0  0  0  0  0
    3.9604    0.5840    0.0000 N   0  0  0  0  0  0  0  0  0  0  0  0
    4.7674    0.7556    0.0000 C   0  0  0  0  0  0  0  0  0  0  0  0
    5.3194    0.1425    0.0000 C   0  0  0  0  0  0  0  0  0  0  0  0
    4.7063   -0.4096    0.0000 C   0  0  0  0  0  0  0  0  0  0  0  0
    5.9325    0.6945    0.0000 C   0  0  0  0  0  0  0  0  0  0  0  0
    5.8714   -0.4706    0.0000 F   0  0  0  0  0  0  0  0  0  0  0  0
    3.6633    1.9817    0.0000 C   0  0  0  0  0  0  0  0  0  0  0  0
    3.1113    2.5948    0.0000 C   0  0  0  0  0  0  0  0  0  0  0  0
    2.3043    2.4233    0.0000 F   0  0  0  0  0  0  0  0  0  0  0  0
    3.3662    3.3795    0.0000 C   0  0  0  0  0  0  0  0  0  0  0  0
    4.1732    3.5510    0.0000 C   0  0  0  0  0  0  0  0  0  0  0  0
    4.4281    4.3356    0.0000 C   0  0  0  0  0  0  0  0  0  0  0  0
    5.2351    4.5071    0.0000 C   0  0  0  0  0  0  0  0  0  0  0  0
    5.4900    5.2918    0.0000 C   0  0  0  0  0  0  0  0  0  0  0  0
    4.9380    5.9049    0.0000 O   0  0  0  0  0  0  0  0  0  0  0  0
    6.2970    5.4633    0.0000 O   0  0  0  0  0  0  0  0  0  0  0  0
    4.7252    2.9379    0.0000 C   0  0  0  0  0  0  0  0  0  0  0  0
    4.4703    2.1533    0.0000 C   0  0  0  0  0  0  0  0  0  0  0  0
    5.0223    1.5402    0.0000 F   0  0  0  0  0  0  0  0  0  0  0  0
  2  1  1  6
  2  3  1  0
  2 14  1  0
  3  4  1  0
  4  5  2  0
  4  8  1  0
  5  6  1  0
  6  7  1  0
  7  8  2  0
  7 12  1  0
  8  9  1  0
  9 10  2  0
 10 11  1  0
 11 12  2  0
 13  5  1  0
 13 14  1  0
 13 20  1  1
 14 15  1  0
 15 16  1  0
 16 17  1  0
 16 18  1  0
 16 19  1  0
 20 21  2  0
 20 31  1  0
 21 22  1  0
 21 23  1  0
 23 24  2  0
 24 25  1  0
 24 30  1  0
 25 26  2  0
 26 27  1  0
 27 28  1  0
 27 29  2  0
 30 31  2  0
 31 32  1  0
M  END
>  <DRUGBANK_ID>  (1) 
DB15138

>  <COMMON_NAME>  (1) 
AZD-9496

>  <CAS_NUMBER>  (1) 
1639042-08-2

>  <UNII>  (1) 
DA9P7LN909

$$$$
