XY2
     RDKit          2D

 21 22  0  0  0  0  0  0  0  0999 V2000
    3.0077    0.6617    0.0000 C   0  0  0  0  0  0  0  0  0  0  0  0
    3.0077   -0.1633    0.0000 C   0  0  0  0  0  0  0  0  0  0  0  0
    2.2932   -0.5758    0.0000 C   0  0  0  0  0  0  0  0  0  0  0  0
   -2.7081   -0.1633    0.0000 C   0  0  0  0  0  0  0  0  0  0  0  0
   -1.9936   -0.5758    0.0000 C   0  0  0  0  0  0  0  0  0  0  0  0
   -1.9936   -1.4008    0.0000 O   0  0  0  0  0  0  0  0  0  0  0  0
   -1.2791   -0.1633    0.0000 N   0  0  0  0  0  0  0  0  0  0  0  0
   -1.2791    0.6617    0.0000 C   0  0  0  0  0  0  0  0  0  0  0  0
   -0.5647   -0.5758    0.0000 C   0  0  0  0  0  0  0  0  0  0  0  0
    0.1498   -0.1633    0.0000 C   0  0  0  0  0  0  0  0  0  0  0  0
    0.8643   -0.5758    0.0000 N   0  0  0  0  0  0  0  0  0  0  0  0
    0.8643   -1.4008    0.0000 C   0  0  0  0  0  0  0  0  0  0  0  0
    3.6208   -0.7153    0.0000 N   0  0  0  0  0  0  0  0  0  0  0  0
    3.2852   -1.4690    0.0000 O   0  0  0  0  0  0  0  0  0  0  0  0
    2.4647   -1.3827    0.0000 N   0  0  0  0  0  0  0  0  0  0  0  0
    3.7222    1.0742    0.0000 N   0  0  0  0  0  0  0  0  0  0  0  0
    3.7222    1.8992    0.0000 O   0  0  0  0  0  0  0  0  0  0  0  0
    4.4366    0.6617    0.0000 O   0  0  0  0  0  0  0  0  0  0  0  0
    2.2932    1.0742    0.0000 C   0  0  0  0  0  0  0  0  0  0  0  0
    1.5787    0.6617    0.0000 C   0  0  0  0  0  0  0  0  0  0  0  0
    1.5787   -0.1633    0.0000 C   0  0  0  0  0  0  0  0  0  0  0  0
  1  2  1  0
  1 16  1  0
  1 19  2  0
  2  3  1  0
  2 13  2  0
  3 15  2  0
  3 21  1  0
  4  5  1  0
  5  6  2  0
  5  7  1  0
  7  8  1  0
  7  9  1  0
  9 10  1  0
 10 11  1  0
 11 12  1  0
 11 21  1  0
 13 14  1  0
 14 15  1  0
 16 17  1  0
 16 18  2  0
 19 20  1  0
 20 21  2  0
M  CHG  2  16   1  17  -1
M  END
>  <DRUGBANK_ID>  (1) 
DB08751

>  <COMMON_NAME>  (1) 
N,N'-DIMETHYL-N-(ACETYL)-N'-(7-NITROBENZ-2-OXA-1,3-DIAZOL-4-YL)ETHYLENEDIAMINE

$$$$
