
     RDKit          2D

  5  5  0  0  0  0  0  0  0  0999 V2000
   13.0661  -12.4506    0.0000 C   0  0  0  0  0  0  0  0  0  0  0  0
   13.0661  -13.2756    0.0000 N   0  0  0  0  0  0  0  0  0  0  0  0
   13.8507  -13.5305    0.0000 C   0  0  0  0  0  0  0  0  0  0  0  0
   14.3357  -12.8631    0.0000 C   0  0  0  0  0  0  0  0  0  0  0  0
   13.8507  -12.1957    0.0000 N   0  0  0  0  0  0  0  0  0  0  0  0
  1  2  2  0
  2  3  1  0
  3  4  2  0
  4  5  1  0
  5  1  1  0
M  END
>  <DRUGBANK_ID>  (1) 
DB03366

>  <SECONDARY_ACCESSION_NUMBERS>  (1) 
EXPT01865

>  <COMMON_NAME>  (1) 
Imidazole

>  <CAS_NUMBER>  (1) 
288-32-4

>  <UNII>  (1) 
7GBN705NH1

$$$$
