
     RDKit          2D

 34 37  0  0  0  0  0  0  0  0999 V2000
   -5.6091   -3.3616    0.0000 C   0  0  0  0  0  0  0  0  0  0  0  0
   -4.8946   -2.9491    0.0000 C   0  0  0  0  0  0  0  0  0  0  0  0
   -4.4821   -3.6636    0.0000 C   0  0  0  0  0  0  0  0  0  0  0  0
   -5.3071   -2.2346    0.0000 C   0  0  0  0  0  0  0  0  0  0  0  0
   -4.1801   -2.5366    0.0000 C   0  0  0  0  0  0  0  0  0  0  0  0
   -4.1801   -1.7116    0.0000 C   0  0  0  0  0  0  0  0  0  0  0  0
   -3.4656   -1.2991    0.0000 C   0  0  0  0  0  0  0  0  0  0  0  0
   -2.7512   -1.7116    0.0000 C   0  0  0  0  0  0  0  0  0  0  0  0
   -2.7512   -2.5366    0.0000 C   0  0  0  0  0  0  0  0  0  0  0  0
   -3.4656   -2.9491    0.0000 C   0  0  0  0  0  0  0  0  0  0  0  0
   -3.4656   -3.7741    0.0000 N   0  0  0  0  0  0  0  0  0  0  0  0
   -2.7982   -4.2590    0.0000 C   0  0  0  0  0  0  0  0  0  0  0  0
   -3.0531   -5.0437    0.0000 C   0  0  0  0  0  0  0  0  0  0  0  0
   -3.8781   -5.0437    0.0000 C   0  0  0  0  0  0  0  0  0  0  0  0
   -4.1331   -4.2590    0.0000 C   0  0  0  0  0  0  0  0  0  0  0  0
   -3.4656   -0.4741    0.0000 C   0  0  0  0  0  0  0  0  0  0  0  0
   -4.1801   -0.0616    0.0000 C   0  0  0  0  0  0  0  0  0  0  0  0
   -4.1801    0.7634    0.0000 C   0  0  0  0  0  0  0  0  0  0  0  0
   -3.4656    1.1759    0.0000 C   0  0  0  0  0  0  0  0  0  0  0  0
   -2.7512    0.7634    0.0000 C   0  0  0  0  0  0  0  0  0  0  0  0
   -2.7512   -0.0616    0.0000 C   0  0  0  0  0  0  0  0  0  0  0  0
   -2.0367   -0.4741    0.0000 O   0  0  0  0  0  0  0  0  0  0  0  0
   -2.0367   -1.2991    0.0000 C   0  0  0  0  0  0  0  0  0  0  0  0
   -1.3222   -1.7116    0.0000 C   0  0  0  0  0  0  0  0  0  0  0  0
   -1.3222   -2.5366    0.0000 O   0  0  0  0  0  0  0  0  0  0  0  0
   -4.8946    1.1759    0.0000 C   0  0  0  0  0  0  0  0  0  0  0  0
   -5.6091    0.7634    0.0000 C   0  0  0  0  0  0  0  0  0  0  0  0
   -6.3235    1.1759    0.0000 C   0  0  0  0  0  0  0  0  0  0  0  0
   -6.3235    2.0009    0.0000 C   0  0  0  0  0  0  0  0  0  0  0  0
   -5.6091    2.4134    0.0000 C   0  0  0  0  0  0  0  0  0  0  0  0
   -4.8946    2.0009    0.0000 C   0  0  0  0  0  0  0  0  0  0  0  0
   -7.0380    2.4134    0.0000 C   0  0  0  0  0  0  0  0  0  0  0  0
   -7.7525    2.0009    0.0000 O   0  0  0  0  0  0  0  0  0  0  0  0
   -7.0380    3.2384    0.0000 O   0  0  0  0  0  0  0  0  0  0  0  0
  1  2  1  0
  2  3  1  0
  2  4  1  0
  2  5  1  0
  5  6  2  0
  5 10  1  0
  6  7  1  0
  7  8  2  0
  7 16  1  0
  8  9  1  0
  9 10  2  0
 10 11  1  0
 11 12  1  0
 11 15  1  0
 12 13  1  0
 13 14  1  0
 14 15  1  0
 16 17  2  0
 16 21  1  0
 17 18  1  0
 18 19  2  0
 18 26  1  0
 19 20  1  0
 20 21  2  0
 21 22  1  0
 22 23  1  0
 23 24  1  0
 24 25  1  0
 26 27  2  0
 26 31  1  0
 27 28  1  0
 28 29  2  0
 29 30  1  0
 29 32  1  0
 30 31  2  0
 32 33  2  0
 32 34  1  0
M  END
>  <DRUGBANK_ID>  (1) 
DB12808

>  <COMMON_NAME>  (1) 
Trifarotene

>  <CAS_NUMBER>  (1) 
895542-09-3

>  <UNII>  (1) 
0J8RN2W0HK

>  <SYNONYMS>  (1) 
Trifarotene

$$$$
