
     RDKit          2D

 15 14  0  0  0  0  0  0  0  0999 V2000
   -2.1435    0.8249    0.0000 C   0  0  0  0  0  0  0  0  0  0  0  0
    2.1434    0.8249    0.0000 C   0  0  0  0  0  0  0  0  0  0  0  0
   -2.8580    0.4124    0.0000 N   0  0  0  0  0  0  0  0  0  0  0  0
    2.1434    1.6500    0.0000 O   0  0  0  0  0  0  0  0  0  0  0  0
   -1.4290    0.4124    0.0000 N   0  0  0  0  0  0  0  0  0  0  0  0
    1.4289    0.4124    0.0000 C   0  0  0  0  0  0  0  0  0  0  0  0
   -2.1435    1.6500    0.0000 N   0  0  0  0  0  0  0  0  0  0  0  0
    1.4289   -0.4125    0.0000 N   0  0  0  0  0  0  0  0  0  0  0  0
   -0.7144    0.8249    0.0000 C   0  0  0  0  0  0  0  0  0  0  0  0
    0.7144    0.8249    0.0000 C   0  0  0  0  0  0  0  0  0  0  0  0
    0.0000    0.4124    0.0000 C   0  0  0  0  0  0  0  0  0  0  0  0
    2.8579    0.4124    0.0000 O   0  0  0  0  0  0  0  0  0  0  0  0
    0.7144   -0.8250    0.0000 C   0  0  0  0  0  0  0  0  0  0  0  0
    0.7144   -1.6500    0.0000 O   0  0  0  0  0  0  0  0  0  0  0  0
    0.0000   -0.4125    0.0000 C   0  0  0  0  0  0  0  0  0  0  0  0
  1  3  2  0
  1  5  1  0
  1  7  1  0
  2  6  1  0
  2  4  2  0
  5  9  1  0
  6 10  1  1
  6  8  1  0
  8 13  1  0
  9 11  1  0
 10 11  1  0
 12  2  1  0
 14 13  2  0
 15 13  1  0
M  END
>  <DRUGBANK_ID>  (1) 
DB01985

>  <SECONDARY_ACCESSION_NUMBERS>  (1) 
EXPT00382

>  <COMMON_NAME>  (1) 
N-acetyl-L-arginine

>  <CAS_NUMBER>  (1) 
155-84-0

>  <UNII>  (1) 
TQ7DL04CAE

>  <SYNONYMS>  (1) 
N-Ac-L-Arg-OH; N-alpha-L-acetyl-arginine; N2-Acetyl-L-arginine

$$$$
