802
     RDKit          2D

 20 22  0  0  0  0  0  0  0  0999 V2000
    2.1435    0.2212    0.0000 C   0  0  0  0  0  0  0  0  0  0  0  0
    2.1435   -0.6038    0.0000 C   0  0  0  0  0  0  0  0  0  0  0  0
    1.4290   -1.0163    0.0000 C   0  0  0  0  0  0  0  0  0  0  0  0
    0.7146   -0.6038    0.0000 C   0  0  0  0  0  0  0  0  0  0  0  0
    0.7146    0.2212    0.0000 C   0  0  0  0  0  0  0  0  0  0  0  0
    1.4290    0.6337    0.0000 C   0  0  0  0  0  0  0  0  0  0  0  0
    2.8580    0.6337    0.0000 C   0  0  0  0  0  0  0  0  0  0  0  0
    3.5724    0.2212    0.0000 N   0  0  0  0  0  0  0  0  0  0  0  0
    2.8580    1.4587    0.0000 N   0  0  0  0  0  0  0  0  0  0  0  0
   -0.0701   -0.8587    0.0000 N   0  0  0  0  0  0  0  0  0  0  0  0
   -0.0701    0.4762    0.0000 N   0  0  0  0  0  0  0  0  0  0  0  0
   -0.5550   -0.1913    0.0000 C   0  0  0  0  0  0  0  0  0  0  0  0
   -1.3800   -0.1913    0.0000 C   0  0  0  0  0  0  0  0  0  0  0  0
   -1.7925   -0.9057    0.0000 C   0  0  0  0  0  0  0  0  0  0  0  0
   -2.6175   -0.9057    0.0000 C   0  0  0  0  0  0  0  0  0  0  0  0
   -3.0300   -1.6202    0.0000 F   0  0  0  0  0  0  0  0  0  0  0  0
   -3.0300   -0.1913    0.0000 C   0  0  0  0  0  0  0  0  0  0  0  0
   -2.6175    0.5232    0.0000 C   0  0  0  0  0  0  0  0  0  0  0  0
   -1.7925    0.5232    0.0000 C   0  0  0  0  0  0  0  0  0  0  0  0
   -1.3800    1.2377    0.0000 O   0  0  0  0  0  0  0  0  0  0  0  0
  1  2  2  0
  1  6  1  0
  1  7  1  0
  2  3  1  0
  3  4  2  0
  4  5  1  0
  4 10  1  0
  5  6  2  0
  5 11  1  0
  7  8  1  0
  7  9  2  0
 10 12  1  0
 11 12  2  0
 12 13  1  0
 13 14  2  0
 13 19  1  0
 14 15  1  0
 15 16  1  0
 15 17  2  0
 17 18  1  0
 18 19  2  0
 19 20  1  0
M  CHG  2   9   1  20  -1
M  END
>  <DRUGBANK_ID>  (1) 
DB02875

>  <SECONDARY_ACCESSION_NUMBERS>  (1) 
EXPT00318

>  <COMMON_NAME>  (1) 
CRA_1802

$$$$
