
     RDKit          2D

 33 37  0  0  0  0  0  0  0  0999 V2000
   -0.6215   -3.1062    0.0000 C   0  0  0  0  0  0  0  0  0  0  0  0
   -0.8764   -2.3215    0.0000 O   0  0  0  0  0  0  0  0  0  0  0  0
   -1.6834   -2.1500    0.0000 C   0  0  0  0  0  0  0  0  0  0  0  0
   -1.9384   -1.3654    0.0000 C   0  0  0  0  0  0  0  0  0  0  0  0
   -2.7230   -1.1104    0.0000 C   0  0  0  0  0  0  0  0  0  0  0  0
   -3.3904   -1.5954    0.0000 C   0  0  0  0  0  0  0  0  0  0  0  0
   -4.1441   -1.2598    0.0000 N   0  0  0  0  0  0  0  0  0  0  0  0
   -4.8115   -1.7447    0.0000 C   0  0  0  0  0  0  0  0  0  0  0  0
   -5.5652   -1.4092    0.0000 C   0  0  0  0  0  0  0  0  0  0  0  0
   -5.6514   -0.5887    0.0000 N   0  0  0  0  0  0  0  0  0  0  0  0
   -4.9840   -0.1038    0.0000 C   0  0  0  0  0  0  0  0  0  0  0  0
   -5.0702    0.7167    0.0000 O   0  0  0  0  0  0  0  0  0  0  0  0
   -4.2303   -0.4393    0.0000 C   0  0  0  0  0  0  0  0  0  0  0  0
   -2.7230   -0.2854    0.0000 N   0  0  0  0  0  0  0  0  0  0  0  0
   -3.3361    0.2666    0.0000 N   0  0  0  0  0  0  0  0  0  0  0  0
   -3.1645    1.0736    0.0000 C   0  0  0  0  0  0  0  0  0  0  0  0
   -2.3799    1.3285    0.0000 N   0  0  0  0  0  0  0  0  0  0  0  0
   -1.7668    0.7765    0.0000 C   0  0  0  0  0  0  0  0  0  0  0  0
   -0.9822    1.0314    0.0000 N   0  0  0  0  0  0  0  0  0  0  0  0
   -1.9384   -0.0305    0.0000 C   0  0  0  0  0  0  0  0  0  0  0  0
   -1.4534   -0.6979    0.0000 C   0  0  0  0  0  0  0  0  0  0  0  0
   -0.6284   -0.6979    0.0000 C   0  0  0  0  0  0  0  0  0  0  0  0
   -0.1435   -1.3654    0.0000 C   0  0  0  0  0  0  0  0  0  0  0  0
    0.6411   -1.1104    0.0000 C   0  0  0  0  0  0  0  0  0  0  0  0
    0.6411   -0.2854    0.0000 C   0  0  0  0  0  0  0  0  0  0  0  0
   -0.1435   -0.0305    0.0000 S   0  0  0  0  0  0  0  0  0  0  0  0
    1.3556    0.1271    0.0000 C   0  0  0  0  0  0  0  0  0  0  0  0
    1.3556    0.9521    0.0000 O   0  0  0  0  0  0  0  0  0  0  0  0
    0.6411    1.3646    0.0000 C   0  0  0  0  0  0  0  0  0  0  0  0
    2.0701   -0.2854    0.0000 C   0  0  0  0  0  0  0  0  0  0  0  0
    2.0701   -1.1104    0.0000 C   0  0  0  0  0  0  0  0  0  0  0  0
    2.7845   -1.5229    0.0000 C   0  0  0  0  0  0  0  0  0  0  0  0
    1.3556   -1.5229    0.0000 C   0  0  0  0  0  0  0  0  0  0  0  0
  1  2  1  0
  2  3  1  0
  3  4  1  0
  4  5  2  0
  4 21  1  0
  5  6  1  0
  5 14  1  0
  6  7  1  0
  7  8  1  0
  7 13  1  0
  8  9  1  0
  9 10  1  0
 10 11  1  0
 11 12  2  0
 11 13  1  0
 14 15  1  0
 14 20  1  0
 15 16  2  0
 16 17  1  0
 17 18  2  0
 18 19  1  0
 18 20  1  0
 20 21  2  0
 21 22  1  0
 22 23  2  0
 22 26  1  0
 23 24  1  0
 24 25  2  0
 24 33  1  0
 25 26  1  0
 25 27  1  0
 27 28  1  0
 27 30  2  0
 28 29  1  0
 30 31  1  0
 31 32  1  0
 31 33  2  0
M  END
>  <DRUGBANK_ID>  (1) 
DB15078

>  <COMMON_NAME>  (1) 
Rogaratinib

>  <CAS_NUMBER>  (1) 
1443530-05-9

>  <UNII>  (1) 
98BSN6N516

>  <SYNONYMS>  (1) 
Rogaratinib

$$$$
