
     RDKit          2D

 16 17  0  0  0  0  0  0  0  0999 V2000
   -1.4054   -0.0362    0.0000 C   0  0  0  0  0  0  0  0  0  0  0  0
   -2.1199   -0.4487    0.0000 C   0  0  0  0  0  0  0  0  0  0  0  0
   -1.4054   -1.6862    0.0000 N   0  0  0  0  0  0  0  0  0  0  0  0
   -2.1199   -1.2737    0.0000 C   0  0  0  0  0  0  0  0  0  0  0  0
   -0.6909   -1.2737    0.0000 C   0  0  0  0  0  0  0  0  0  0  0  0
   -0.6909   -0.4487    0.0000 C   0  0  0  0  0  0  0  0  0  0  0  0
   -2.8343   -1.6862    0.0000 Cl  0  0  0  0  0  0  0  0  0  0  0  0
    2.0728   -0.4487    0.0000 S   0  0  0  0  0  0  0  0  0  0  0  0
    1.4054    0.0361    0.0000 C   0  0  0  0  0  0  0  0  0  0  0  0
    0.7379   -0.4487    0.0000 N   0  0  0  0  0  0  0  0  0  0  0  0
    1.8179   -1.2333    0.0000 C   0  0  0  0  0  0  0  0  0  0  0  0
    1.4054    0.8611    0.0000 N   0  0  0  0  0  0  0  0  0  0  0  0
    2.1198    1.2736    0.0000 C   0  0  0  0  0  0  0  0  0  0  0  0
    2.8343    1.6862    0.0000 N   0  0  0  0  0  0  0  0  0  0  0  0
    0.9929   -1.2333    0.0000 C   0  0  0  0  0  0  0  0  0  0  0  0
    0.0234   -0.0362    0.0000 C   0  0  0  0  0  0  0  0  0  0  0  0
  1  2  2  0
  2  4  1  0
  3  4  2  0
  3  5  1  0
  5  6  2  0
  6  1  1  0
  6 16  1  0
  7  4  1  0
  9  8  1  0
 10  9  1  0
 11  8  1  0
 11 15  1  0
 12  9  2  0
 13 12  1  0
 14 13  3  0
 15 10  1  0
 16 10  1  0
M  END
>  <DRUGBANK_ID>  (1) 
DB08620

>  <COMMON_NAME>  (1) 
Thiacloprid

>  <CAS_NUMBER>  (1) 
111988-49-9

>  <UNII>  (1) 
DSV3A944A4

>  <SYNONYMS>  (1) 
(Z)-thiacloprid

$$$$
