
     RDKit          2D

 17 16  0  0  1  0  0  0  0  0999 V2000
    6.7618    1.4289    0.0000 C   0  0  0  0  0  0  0  0  0  0  0  0
    6.0474    1.8414    0.0000 C   0  0  0  0  0  0  0  0  0  0  0  0
    1.7605    1.8414    0.0000 C   0  0  0  0  0  0  0  0  0  0  0  0
    4.6184    1.8414    0.0000 C   0  0  0  0  0  0  0  0  0  0  0  0
    7.4763    1.8414    0.0000 C   0  0  0  0  0  0  0  0  0  0  0  0
    2.4750    1.4289    0.0000 C   0  0  0  0  0  0  0  0  0  0  0  0
    3.9039    1.4289    0.0000 C   0  0  0  0  0  0  0  0  0  0  0  0
    3.1895    1.8414    0.0000 C   0  0  0  0  0  0  0  0  0  0  0  0
    8.1908    1.4289    0.0000 C   0  0  0  0  0  0  0  0  0  0  0  0
    7.4763    2.6664    0.0000 N   0  0  0  0  0  0  0  0  0  0  0  0
    1.0461    1.4289    0.0000 O   0  0  0  0  0  0  0  0  0  0  0  0
    2.4750    0.6039    0.0000 O   0  0  0  0  0  0  0  0  0  0  0  0
    3.9039    0.6039    0.0000 O   0  0  0  0  0  0  0  0  0  0  0  0
    3.1895    2.6664    0.0000 O   0  0  0  0  0  0  0  0  0  0  0  0
    8.9052    1.8414    0.0000 O   0  0  0  0  0  0  0  0  0  0  0  0
    8.1908    0.6039    0.0000 O   0  0  0  0  0  0  0  0  0  0  0  0
    5.3329    1.4289    0.0000 S   0  0  0  0  0  0  0  0  0  0  0  0
  2  1  1  0
  5  1  1  0
  5 10  1  6
  6  3  1  0
  7  4  1  0
  7 13  1  1
  8  6  1  0
  8  7  1  0
  8 14  1  6
  9  5  1  0
 11  3  1  0
 12  6  2  0
 15  9  2  0
 16  9  1  0
 17  2  1  0
 17  4  1  0
M  END
>  <DRUGBANK_ID>  (1) 
DB04182

>  <SECONDARY_ACCESSION_NUMBERS>  (1) 
EXPT01982

>  <COMMON_NAME>  (1) 
(S)-2-Amino-4-[(2s,3r)-2,3,5-Trihydroxy-4-Oxo-Pentyl]Mercapto-Butyric Acid

$$$$
