792
     RDKit          2D

 30 32  0  0  0  0  0  0  0  0999 V2000
    2.2823    4.0654    0.0000 C   0  0  0  0  0  0  0  0  0  0  0  0
    2.0274    3.2807    0.0000 C   0  0  0  0  0  0  0  0  0  0  0  0
    1.2204    3.1092    0.0000 C   0  0  0  0  0  0  0  0  0  0  0  0
    0.6684    3.7223    0.0000 C   0  0  0  0  0  0  0  0  0  0  0  0
    0.9233    4.5069    0.0000 C   0  0  0  0  0  0  0  0  0  0  0  0
    1.7303    4.6785    0.0000 C   0  0  0  0  0  0  0  0  0  0  0  0
   -0.2948   -0.1863    0.0000 S   0  0  0  0  0  0  0  0  0  0  0  0
   -0.2948   -1.0113    0.0000 C   0  0  0  0  0  0  0  0  0  0  0  0
   -1.0092   -1.4238    0.0000 C   0  0  0  0  0  0  0  0  0  0  0  0
   -1.0092   -2.2488    0.0000 C   0  0  0  0  0  0  0  0  0  0  0  0
   -0.2948   -2.6613    0.0000 C   0  0  0  0  0  0  0  0  0  0  0  0
    0.4197   -2.2488    0.0000 C   0  0  0  0  0  0  0  0  0  0  0  0
    0.4197   -1.4238    0.0000 C   0  0  0  0  0  0  0  0  0  0  0  0
   -0.2948   -3.4863    0.0000 O   0  0  0  0  0  0  0  0  0  0  0  0
   -1.0092   -3.8988    0.0000 C   0  0  0  0  0  0  0  0  0  0  0  0
   -1.0092   -4.7238    0.0000 C   0  0  0  0  0  0  0  0  0  0  0  0
   -1.0092   -5.5488    0.0000 C   0  0  0  0  0  0  0  0  0  0  0  0
   -1.0092   -6.3738    0.0000 C   0  0  0  0  0  0  0  0  0  0  0  0
   -1.1198   -0.1863    0.0000 O   0  0  0  0  0  0  0  0  0  0  0  0
    0.5302   -0.1863    0.0000 O   0  0  0  0  0  0  0  0  0  0  0  0
    2.4399    2.5663    0.0000 N   0  0  0  0  0  0  0  0  0  0  0  0
    1.8878    1.9532    0.0000 C   0  0  0  0  0  0  0  0  0  0  0  0
    1.1342    2.2887    0.0000 C   0  0  0  0  0  0  0  0  0  0  0  0
    0.4197    1.8762    0.0000 C   0  0  0  0  0  0  0  0  0  0  0  0
    0.4197    1.0512    0.0000 C   0  0  0  0  0  0  0  0  0  0  0  0
    1.1342    0.6387    0.0000 C   0  0  0  0  0  0  0  0  0  0  0  0
   -0.2948    0.6387    0.0000 N   0  0  0  0  0  0  0  0  0  0  0  0
    1.8486    1.0512    0.0000 O   0  0  0  0  0  0  0  0  0  0  0  0
    1.1342   -0.1863    0.0000 O   0  0  0  0  0  0  0  0  0  0  0  0
    0.3713    5.1200    0.0000 C   0  0  0  0  0  0  0  0  0  0  0  0
  1  2  2  0
  2 21  1  0
  3  2  1  0
  3 23  1  0
  4  3  2  0
  5  4  1  0
  5  6  2  0
  6  1  1  0
  7  8  1  0
  7 19  2  0
  8 13  1  0
  9  8  2  0
  9 10  1  0
 10 11  2  0
 11 14  1  0
 11 12  1  0
 13 12  2  0
 14 15  1  0
 15 16  1  0
 16 17  3  0
 17 18  1  0
 20  7  2  0
 22 21  1  0
 23 22  2  0
 24 23  1  0
 25 24  1  6
 25 26  1  0
 25 27  1  0
 26 28  1  0
 27  7  1  0
 29 26  2  0
 30  5  1  0
M  END
>  <DRUGBANK_ID>  (1) 
DB07233

>  <COMMON_NAME>  (1) 
N-{[4-(but-2-yn-1-yloxy)phenyl]sulfonyl}-5-methyl-D-tryptophan

$$$$
