J4Z
     RDKit          2D

 25 29  0  0  0  0  0  0  0  0999 V2000
   -0.2684    0.4531    0.0000 C   0  0  0  0  0  0  0  0  0  0  0  0
    1.1605    0.4531    0.0000 N   0  0  0  0  0  0  0  0  0  0  0  0
    0.4460    0.0406    0.0000 C   0  0  0  0  0  0  0  0  0  0  0  0
    0.4460    1.6906    0.0000 N   0  0  0  0  0  0  0  0  0  0  0  0
    0.4460   -0.7844    0.0000 C   0  0  0  0  0  0  0  0  0  0  0  0
   -0.3386    1.4357    0.0000 N   0  0  0  0  0  0  0  0  0  0  0  0
   -0.2684   -1.1969    0.0000 C   0  0  0  0  0  0  0  0  0  0  0  0
   -0.3386    2.7705    0.0000 N   0  0  0  0  0  0  0  0  0  0  0  0
   -0.2684   -2.0219    0.0000 C   0  0  0  0  0  0  0  0  0  0  0  0
    1.1605    2.9281    0.0000 N   0  0  0  0  0  0  0  0  0  0  0  0
   -0.9829   -2.4344    0.0000 C   0  0  0  0  0  0  0  0  0  0  0  0
   -1.6974   -2.0219    0.0000 C   0  0  0  0  0  0  0  0  0  0  0  0
   -1.6974   -1.1969    0.0000 C   0  0  0  0  0  0  0  0  0  0  0  0
   -0.9829   -0.7844    0.0000 C   0  0  0  0  0  0  0  0  0  0  0  0
   -0.9829    0.0406    0.0000 C   0  0  0  0  0  0  0  0  0  0  0  0
    1.1605    1.2781    0.0000 C   0  0  0  0  0  0  0  0  0  0  0  0
    1.8750    1.6906    0.0000 C   0  0  0  0  0  0  0  0  0  0  0  0
    1.8750    2.5156    0.0000 C   0  0  0  0  0  0  0  0  0  0  0  0
    2.5894    2.9281    0.0000 C   0  0  0  0  0  0  0  0  0  0  0  0
    0.4460    2.5156    0.0000 C   0  0  0  0  0  0  0  0  0  0  0  0
   -0.8235    2.1031    0.0000 C   0  0  0  0  0  0  0  0  0  0  0  0
   -0.9829   -3.2594    0.0000 C   0  0  0  0  0  0  0  0  0  0  0  0
   -1.6974   -3.6719    0.0000 C   0  0  0  0  0  0  0  0  0  0  0  0
   -2.4118   -3.2594    0.0000 C   0  0  0  0  0  0  0  0  0  0  0  0
   -2.4118   -2.4344    0.0000 C   0  0  0  0  0  0  0  0  0  0  0  0
  1  3  2  0
  2 16  1  0
  3  2  1  0
  4 20  1  0
  5  3  1  0
  6  4  1  0
  6 21  2  0
  7  5  2  0
  8 20  2  0
  9  7  1  0
 11  9  2  0
 12 11  1  0
 12 13  2  0
 13 14  1  0
 14  7  1  0
 14 15  2  0
 15  1  1  0
 16  4  1  0
 16 17  2  0
 17 18  1  0
 18 10  2  0
 18 19  1  0
 20 10  1  0
 21  8  1  0
 22 11  1  0
 23 22  2  0
 24 23  1  0
 24 25  2  0
 25 12  1  0
M  END
>  <DRUGBANK_ID>  (1) 
DB08006

>  <COMMON_NAME>  (1) 
N-anthracen-2-yl-5-methyl[1,2,4]triazolo[1,5-a]pyrimidin-7-amine

$$$$
