817
     RDKit          2D

 18 18  0  0  0  0  0  0  0  0999 V2000
   -3.2098   -0.3750    0.0000 N   0  0  0  0  0  0  0  0  0  0  0  0
   -1.0664    0.0375    0.0000 C   0  0  0  0  0  0  0  0  0  0  0  0
   -2.4953    0.8625    0.0000 N   0  0  0  0  0  0  0  0  0  0  0  0
   -1.7808   -0.3750    0.0000 N   0  0  0  0  0  0  0  0  0  0  0  0
    1.0770   -0.3750    0.0000 C   0  0  0  0  0  0  0  0  0  0  0  0
    1.7915   -1.6125    0.0000 C   0  0  0  0  0  0  0  0  0  0  0  0
    2.5060   -1.2000    0.0000 C   0  0  0  0  0  0  0  0  0  0  0  0
    3.2205    0.0375    0.0000 C   0  0  0  0  0  0  0  0  0  0  0  0
    1.7915    0.0375    0.0000 C   0  0  0  0  0  0  0  0  0  0  0  0
   -2.4953    0.0375    0.0000 C   0  0  0  0  0  0  0  0  0  0  0  0
   -1.0664    0.8625    0.0000 N   0  0  0  0  0  0  0  0  0  0  0  0
   -0.3519   -0.3750    0.0000 S   0  0  0  0  0  0  0  0  0  0  0  0
    0.3626    0.0375    0.0000 C   0  0  0  0  0  0  0  0  0  0  0  0
    1.0770   -1.2000    0.0000 C   0  0  0  0  0  0  0  0  0  0  0  0
    2.5060   -0.3750    0.0000 C   0  0  0  0  0  0  0  0  0  0  0  0
    3.9349    0.4500    0.0000 F   0  0  0  0  0  0  0  0  0  0  0  0
    3.6330   -0.6769    0.0000 F   0  0  0  0  0  0  0  0  0  0  0  0
    2.8080    0.7520    0.0000 F   0  0  0  0  0  0  0  0  0  0  0  0
  1 10  2  0
  2  4  1  0
  2 11  2  0
  2 12  1  0
  3 10  1  0
  4 10  1  0
  5  9  2  0
  5 13  1  0
  5 14  1  0
  6  7  1  0
  6 14  2  0
  7 15  2  0
  8 15  1  0
  8 16  1  0
  8 17  1  0
  8 18  1  0
  9 15  1  0
 12 13  1  0
M  END
>  <DRUGBANK_ID>  (1) 
DB07262

>  <COMMON_NAME>  (1) 
1-{[N-(1-Imino-guanidino-methyl)]sulfanylmethyl}-3-trifluoromethyl-benzene

$$$$
