WRB
     RDKit          2D

 22 23  0  0  0  0  0  0  0  0999 V2000
   -1.8217   -0.5007    0.0000 C   0  0  0  0  0  0  0  0  0  0  0  0
   -2.5361   -0.9132    0.0000 N   0  0  0  0  0  0  0  0  0  0  0  0
   -3.2506   -0.5007    0.0000 C   0  0  0  0  0  0  0  0  0  0  0  0
   -3.2506    0.3243    0.0000 N   0  0  0  0  0  0  0  0  0  0  0  0
   -2.5361    0.7368    0.0000 C   0  0  0  0  0  0  0  0  0  0  0  0
   -1.8217    0.3243    0.0000 N   0  0  0  0  0  0  0  0  0  0  0  0
   -1.1072    0.7368    0.0000 O   0  0  0  0  0  0  0  0  0  0  0  0
   -0.3927    0.3243    0.0000 C   0  0  0  0  0  0  0  0  0  0  0  0
    0.3217    0.7368    0.0000 C   0  0  0  0  0  0  0  0  0  0  0  0
    1.0362    0.3243    0.0000 C   0  0  0  0  0  0  0  0  0  0  0  0
    1.7507    0.7368    0.0000 O   0  0  0  0  0  0  0  0  0  0  0  0
    2.4651    0.3243    0.0000 C   0  0  0  0  0  0  0  0  0  0  0  0
    3.1796    0.7368    0.0000 C   0  0  0  0  0  0  0  0  0  0  0  0
    3.8941    0.3243    0.0000 C   0  0  0  0  0  0  0  0  0  0  0  0
    2.4651   -0.5007    0.0000 C   0  0  0  0  0  0  0  0  0  0  0  0
    3.1796   -0.9132    0.0000 C   0  0  0  0  0  0  0  0  0  0  0  0
    3.8941   -0.5007    0.0000 C   0  0  0  0  0  0  0  0  0  0  0  0
   -1.3845   -1.2004    0.0000 C   0  0  0  0  0  0  0  0  0  0  0  0
   -0.9972   -0.5295    0.0000 C   0  0  0  0  0  0  0  0  0  0  0  0
   -3.9651   -0.9132    0.0000 N   0  0  0  0  0  0  0  0  0  0  0  0
   -2.5361    1.5618    0.0000 N   0  0  0  0  0  0  0  0  0  0  0  0
    4.6086   -0.9132    0.0000 Br  0  0  0  0  0  0  0  0  0  0  0  0
  1  2  1  0
  1  6  1  0
  1 18  1  0
  1 19  1  0
  2  3  2  0
  3  4  1  0
  3 20  1  0
  4  5  2  0
  5  6  1  0
  5 21  1  0
  6  7  1  0
  7  8  1  0
  8  9  1  0
  9 10  1  0
 10 11  1  0
 11 12  1  0
 12 13  2  0
 12 15  1  0
 13 14  1  0
 14 17  2  0
 15 16  2  0
 16 17  1  0
 17 22  1  0
M  END
>  <DRUGBANK_ID>  (1) 
DB04007

>  <SECONDARY_ACCESSION_NUMBERS>  (1) 
EXPT03244

>  <COMMON_NAME>  (1) 
Bromo-WR99210

>  <UNII>  (1) 
8S51TS26BA

$$$$
