
     RDKit          2D

 27 25  0  0  0  0  0  0  0  0999 V2000
   -1.4590   -4.0640    0.0000 K   0  0  0  0  0 15  0  0  0  0  0  0
    0.4929   -4.5871    0.0000 K   0  0  0  0  0 15  0  0  0  0  0  0
   -2.3649   -2.1120    0.0000 K   0  0  0  0  0 15  0  0  0  0  0  0
   -0.9360   -2.1120    0.0000 S   0  0  0  0  0  0  0  0  0  0  0  0
   -0.2214   -3.3495    0.0000 P   0  0  0  0  0  0  0  0  0  0  0  0
   -1.0464   -3.3495    0.0000 O   0  0  0  0  0  0  0  0  0  0  0  0
   -0.2214   -4.1745    0.0000 O   0  0  0  0  0  0  0  0  0  0  0  0
   -1.6504   -1.6995    0.0000 O   0  0  0  0  0  0  0  0  0  0  0  0
    0.6035   -3.3495    0.0000 O   0  0  0  0  0  0  0  0  0  0  0  0
   -0.5235   -1.3975    0.0000 O   0  0  0  0  0  0  0  0  0  0  0  0
   -1.3485   -2.8265    0.0000 O   0  0  0  0  0  0  0  0  0  0  0  0
   -0.2214   -2.5245    0.0000 C   0  0  0  0  0  0  0  0  0  0  0  0
    0.4929   -2.1120    0.0000 C   0  0  0  0  0  0  0  0  0  0  0  0
    0.4929   -1.2870    0.0000 C   0  0  0  0  0  0  0  0  0  0  0  0
    1.2074   -0.8745    0.0000 C   0  0  0  0  0  0  0  0  0  0  0  0
    1.2074   -0.0495    0.0000 C   0  0  0  0  0  0  0  0  0  0  0  0
    1.9220    0.3630    0.0000 C   0  0  0  0  0  0  0  0  0  0  0  0
    0.4929    0.3630    0.0000 C   0  0  0  0  0  0  0  0  0  0  0  0
    1.2074    1.6005    0.0000 C   0  0  0  0  0  0  0  0  0  0  0  0
    1.9220    1.1880    0.0000 C   0  0  0  0  0  0  0  0  0  0  0  0
    0.4929    1.1880    0.0000 C   0  0  0  0  0  0  0  0  0  0  0  0
    1.2074    2.4255    0.0000 C   0  0  0  0  0  0  0  0  0  0  0  0
    0.4929    2.8380    0.0000 C   0  0  0  0  0  0  0  0  0  0  0  0
    1.9220    2.8380    0.0000 C   0  0  0  0  0  0  0  0  0  0  0  0
    0.4929    3.6630    0.0000 C   0  0  0  0  0  0  0  0  0  0  0  0
    1.9220    3.6630    0.0000 C   0  0  0  0  0  0  0  0  0  0  0  0
    1.2074    4.0755    0.0000 C   0  0  0  0  0  0  0  0  0  0  0  0
  4  8  1  0
  4 10  2  0
  4 11  2  0
  4 12  1  0
  5  6  1  0
  5  7  1  0
  5  9  2  0
  5 12  1  0
 12 13  1  6
 13 14  1  0
 14 15  1  0
 15 16  1  0
 16 17  2  0
 16 18  1  0
 17 20  1  0
 18 21  2  0
 19 20  2  0
 19 21  1  0
 19 22  1  0
 22 23  2  0
 22 24  1  0
 23 25  1  0
 24 26  2  0
 25 27  2  0
 26 27  1  0
M  CHG  6   1   1   2   1   3   1   6  -1   7  -1   8  -1
M  END
>  <DRUGBANK_ID>  (1) 
DB07424

>  <COMMON_NAME>  (1) 
Tripotassium (1R)-4-biphenyl-4-yl-1-phosphonatobutane-1-sulfonate

$$$$
