
     RDKit          2D

 36 36  0  0  0  0  0  0  0  0999 V2000
    2.4922    1.9003    0.0000 C   0  0  0  0  0  0  0  0  0  0  0  0
    3.0323    1.2766    0.0000 C   0  0  0  0  0  0  0  0  0  0  0  0
    2.7622    0.4971    0.0000 C   0  0  0  0  0  0  0  0  0  0  0  0
    3.3023   -0.1266    0.0000 C   0  0  0  0  0  0  0  0  0  0  0  0
    4.1124    0.0293    0.0000 C   0  0  0  0  0  0  0  0  0  0  0  0
    4.6525   -0.5943    0.0000 C   0  0  0  0  0  0  0  0  0  0  0  0
    4.3825   -1.3738    0.0000 C   0  0  0  0  0  0  0  0  0  0  0  0
    3.5724   -1.5298    0.0000 C   0  0  0  0  0  0  0  0  0  0  0  0
    3.0323   -0.9061    0.0000 C   0  0  0  0  0  0  0  0  0  0  0  0
    2.2221   -1.0620    0.0000 C   0  0  0  0  0  0  0  0  0  0  0  0
    1.9521   -1.8416    0.0000 C   0  0  0  0  0  0  0  0  0  0  0  0
    1.1420   -1.9975    0.0000 C   0  0  0  0  0  0  0  0  0  0  0  0
    0.8719   -2.7770    0.0000 C   0  0  0  0  0  0  0  0  0  0  0  0
    1.4120   -3.4007    0.0000 C   0  0  0  0  0  0  0  0  0  0  0  0
    1.1420   -4.1802    0.0000 C   0  0  0  0  0  0  0  0  0  0  0  0
    1.6820   -4.8039    0.0000 C   0  0  0  0  0  0  0  0  0  0  0  0
    2.4922   -4.6480    0.0000 C   0  0  0  0  0  0  0  0  0  0  0  0
    3.0323   -5.2716    0.0000 C   0  0  0  0  0  0  0  0  0  0  0  0
    3.8424   -5.1157    0.0000 C   0  0  0  0  0  0  0  0  0  0  0  0
    4.1124   -4.3361    0.0000 C   0  0  0  0  0  0  0  0  0  0  0  0
    3.5724   -3.7125    0.0000 C   0  0  0  0  0  0  0  0  0  0  0  0
    3.8424   -2.9329    0.0000 C   0  0  0  0  0  0  0  0  0  0  0  0
    3.3023   -2.3093    0.0000 O   0  0  0  0  0  0  0  0  0  0  0  0
    4.6525   -2.7770    0.0000 N   0  0  0  0  0  0  0  0  0  0  0  0
    5.1926   -3.4007    0.0000 C   0  0  0  0  0  0  0  0  0  0  0  0
    6.0028   -3.2448    0.0000 C   0  0  0  0  0  0  0  0  0  0  0  0
    6.5428   -3.8684    0.0000 N   0  0  0  0  0  0  0  0  0  0  0  0
    7.3530   -3.7125    0.0000 C   0  0  0  0  0  0  0  0  0  0  0  0
    7.6230   -2.9329    0.0000 O   0  0  0  0  0  0  0  0  0  0  0  0
    7.8931   -4.3361    0.0000 C   0  0  0  0  0  0  0  0  0  0  0  0
    8.7032   -4.1802    0.0000 C   0  0  0  0  0  0  0  0  0  0  0  0
    8.9732   -3.4007    0.0000 O   0  0  0  0  0  0  0  0  0  0  0  0
    9.2433   -4.8039    0.0000 C   0  0  0  0  0  0  0  0  0  0  0  0
    8.9732   -5.5834    0.0000 C   0  0  0  0  0  0  0  0  0  0  0  0
    8.1631   -5.7393    0.0000 C   0  0  0  0  0  0  0  0  0  0  0  0
    7.6230   -5.1157    0.0000 C   0  0  0  0  0  0  0  0  0  0  0  0
  1  2  1  0
  2  3  1  0
  3  4  2  0
  4  5  1  0
  5  6  1  0
  6  7  2  0
  7  8  1  0
  8  9  1  0
  9 10  2  0
 10 11  1  0
 11 12  1  0
 12 13  2  0
 13 14  1  0
 14 15  1  0
 15 16  2  0
 16 17  1  0
 17 18  1  0
 18 19  2  0
 19 20  1  0
 20 21  1  0
 21 22  1  0
 22 23  2  0
 22 24  1  0
 24 25  1  0
 25 26  1  0
 26 27  1  0
 27 28  1  0
 28 29  2  0
 28 30  1  0
 30 31  2  0
 30 36  1  0
 31 32  1  0
 31 33  1  0
 33 34  2  0
 34 35  1  0
 35 36  2  0
M  END
>  <DRUGBANK_ID>  (1) 
DB15010

>  <COMMON_NAME>  (1) 
Edasalonexent

>  <CAS_NUMBER>  (1) 
1204317-86-1

>  <UNII>  (1) 
AF3Z6434KS

>  <SYNONYMS>  (1) 
Edasalonexent

$$$$
