
     RDKit          2D

 34 39  0  0  1  0  0  0  0  0999 V2000
    0.6695    2.5989    0.0000 O   0  0  0  0  0  0  0  0  0  0  0  0
    2.2389    2.6709    0.0000 O   0  0  0  0  0  0  0  0  0  0  0  0
   -0.0071    0.7704    0.0000 O   0  0  0  0  0  0  0  0  0  0  0  0
    3.5997    1.9222    0.0000 O   0  0  0  0  0  0  0  0  0  0  0  0
    2.1886   -0.2519    0.0000 O   0  0  0  0  0  0  0  0  0  0  0  0
   -1.4399    0.7919    0.0000 O   0  0  0  0  0  0  0  0  0  0  0  0
   -0.0288   -0.8783    0.0000 O   0  0  0  0  0  0  0  0  0  0  0  0
    0.7630   -0.2448    0.0000 O   0  0  0  0  0  0  0  0  0  0  0  0
   -1.4615   -1.6847    0.0000 O   0  0  0  0  0  0  0  0  0  0  0  0
   -2.8797   -0.8423    0.0000 O   0  0  0  0  0  0  0  0  0  0  0  0
   -3.5997    0.3958    0.0000 O   0  0  0  0  0  0  0  0  0  0  0  0
    1.5046    1.4759    0.0000 C   0  0  0  0  0  0  0  0  0  0  0  0
    0.7343    1.1806    0.0000 C   0  0  0  0  0  0  0  0  0  0  0  0
    2.2893    1.2527    0.0000 C   0  0  0  0  0  0  0  0  0  0  0  0
    1.5046    2.3830    0.0000 C   0  0  0  0  0  0  0  0  0  0  0  0
    0.2159    1.8287    0.0000 C   0  0  0  0  0  0  0  0  0  0  0  0
    2.7502    1.9367    0.0000 C   0  0  0  0  0  0  0  0  0  0  0  0
    1.4687    0.8495    0.0000 C   0  0  0  0  0  0  0  0  0  0  0  0
    1.0654    2.1598    0.0000 C   0  0  0  0  0  0  0  0  0  0  0  0
    2.1958    0.5903    0.0000 C   0  0  0  0  0  0  0  0  0  0  0  0
   -0.6263    1.8287    0.0000 C   0  0  0  0  0  0  0  0  0  0  0  0
   -0.7271    0.3671    0.0000 C   0  0  0  0  0  0  0  0  0  0  0  0
   -0.7415   -0.4535    0.0000 C   0  0  0  0  0  0  0  0  0  0  0  0
    1.4759   -0.6551    0.0000 C   0  0  0  0  0  0  0  0  0  0  0  0
   -1.4542   -0.8639    0.0000 C   0  0  0  0  0  0  0  0  0  0  0  0
   -2.1526    0.3815    0.0000 C   0  0  0  0  0  0  0  0  0  0  0  0
   -2.1670   -0.4391    0.0000 C   0  0  0  0  0  0  0  0  0  0  0  0
    1.4687   -1.4830    0.0000 C   0  0  0  0  0  0  0  0  0  0  0  0
   -2.8654    0.7991    0.0000 C   0  0  0  0  0  0  0  0  0  0  0  0
    0.7558   -1.8935    0.0000 C   0  0  0  0  0  0  0  0  0  0  0  0
    2.1813   -1.8935    0.0000 C   0  0  0  0  0  0  0  0  0  0  0  0
    0.7126   -2.7141    0.0000 C   0  0  0  0  0  0  0  0  0  0  0  0
    2.1813   -2.7141    0.0000 C   0  0  0  0  0  0  0  0  0  0  0  0
    1.4687   -3.1245    0.0000 C   0  0  0  0  0  0  0  0  0  0  0  0
 15  1  1  6
  1 16  1  0
  2 15  1  0
  2 17  1  0
  5 20  1  0
  5 24  1  0
  6 22  1  0
  6 26  1  0
  8 24  2  0
 11 29  1  0
 12 13  1  0
 12 14  1  0
 12 15  1  0
 12 20  1  1
 13  3  1  1
 13 16  1  0
 13 18  1  0
 14 17  1  0
 14 18  1  6
 16 19  1  0
 16 21  1  6
 17  4  1  6
 17 19  1  0
 22  3  1  1
 22 23  1  0
 23  7  1  6
 23 25  1  0
 24 28  1  0
 25  9  1  1
 25 27  1  0
 26 27  1  0
 26 29  1  1
 27 10  1  6
 28 30  2  0
 28 31  1  0
 30 32  1  0
 31 33  2  0
 32 34  2  0
 33 34  1  0
M  END
>  <DRUGBANK_ID>  (1) 
DB16288

>  <COMMON_NAME>  (1) 
Peoniflorin

>  <CAS_NUMBER>  (1) 
23180-57-6

>  <UNII>  (1) 
21AIQ4EV64

>  <SYNONYMS>  (1) 
Paeoniflorin

$$$$
