
     RDKit          2D

 20 20  0  0  1  0  0  0  0  0999 V2000
   -0.8662   -3.6883    0.0000 C   0  0  0  0  0  0  0  0  0  0  0  0
    2.1375    1.0487    0.0000 C   0  0  0  0  0  0  0  0  0  0  0  0
    3.3750    3.1921    0.0000 C   0  0  0  0  0  0  0  0  0  0  0  0
   -0.9524   -2.8678    0.0000 C   0  0  0  0  0  0  0  0  0  0  0  0
   -0.2850   -2.3829    0.0000 C   0  0  0  0  0  0  0  0  0  0  0  0
    0.4875    2.4777    0.0000 C   0  0  0  0  0  0  0  0  0  0  0  0
   -0.5045    0.1555    0.0000 C   0  0  0  0  0  0  0  0  0  0  0  0
    1.7250    1.7632    0.0000 C   0  0  0  0  0  0  0  0  0  0  0  0
    2.9625    2.4777    0.0000 C   0  0  0  0  0  0  0  0  0  0  0  0
    0.9000    1.7632    0.0000 C   0  0  0  0  0  0  0  0  0  0  0  0
    0.2100   -0.2570    0.0000 C   0  0  0  0  0  0  0  0  0  0  0  0
    0.4875    1.0487    0.0000 C   0  0  0  0  0  0  0  0  0  0  0  0
    0.2962   -1.0775    0.0000 C   0  0  0  0  0  0  0  0  0  0  0  0
    0.8231    0.2950    0.0000 N   0  0  0  0  0  0  0  0  0  0  0  0
    0.9000    3.1921    0.0000 O   0  0  0  0  0  0  0  0  0  0  0  0
    3.3750    1.7632    0.0000 O   0  0  0  0  0  0  0  0  0  0  0  0
    1.0499   -1.4130    0.0000 O   0  0  0  0  0  0  0  0  0  0  0  0
   -0.3712   -1.5624    0.0000 O   0  0  0  0  0  0  0  0  0  0  0  0
    2.1375    2.4777    0.0000 O   0  0  0  0  0  0  0  0  0  0  0  0
   -0.3330    0.9625    0.0000 S   0  0  0  0  0  0  0  0  0  0  0  0
  4  1  2  0
  5  4  1  0
  8  2  1  6
  9  3  1  0
 10  6  1  6
 10  8  1  0
 11  7  2  0
 12 10  1  0
 13 11  1  0
 14 11  1  0
 12 14  1  1
 15  6  2  0
 16  9  2  0
 17 13  2  0
 18  5  1  0
 18 13  1  0
 19  8  1  0
 19  9  1  0
 20  7  1  0
 20 12  1  0
M  END
>  <DRUGBANK_ID>  (1) 
DB06904

>  <COMMON_NAME>  (1) 
(5S,6S)-6-[(R)ACETOXYETH-2-YL]-PENEM-3-CARBOXYLATEPROPANE

$$$$
