
     RDKit          2D

 15 15  0  0  0  0  0  0  0  0999 V2000
   -0.7535    0.3964    0.0000 N   0  0  0  0  0  0  0  0  0  0  0  0
   -0.0860    0.8813    0.0000 C   0  0  0  0  0  0  0  0  0  0  0  0
   -1.4209    0.8813    0.0000 C   0  0  0  0  0  0  0  0  0  0  0  0
   -0.7535   -0.4285    0.0000 C   0  0  0  0  0  0  0  0  0  0  0  0
   -0.3410    1.6659    0.0000 C   0  0  0  0  0  0  0  0  0  0  0  0
   -1.1660    1.6659    0.0000 N   0  0  0  0  0  0  0  0  0  0  0  0
   -0.0391   -0.8410    0.0000 C   0  0  0  0  0  0  0  0  0  0  0  0
    0.6753   -0.4285    0.0000 N   0  0  0  0  0  0  0  0  0  0  0  0
    1.3897   -0.8410    0.0000 C   0  0  0  0  0  0  0  0  0  0  0  0
   -0.0391   -1.6659    0.0000 O   0  0  0  0  0  0  0  0  0  0  0  0
    2.1042   -0.4285    0.0000 C   0  0  0  0  0  0  0  0  0  0  0  0
    2.8186   -0.8410    0.0000 O   0  0  0  0  0  0  0  0  0  0  0  0
   -2.2055    0.6264    0.0000 N   0  0  0  0  0  0  0  0  0  0  0  0
   -2.3770   -0.1805    0.0000 O   0  0  0  0  0  0  0  0  0  0  0  0
   -2.8186    1.1784    0.0000 O   0  0  0  0  0  0  0  0  0  0  0  0
  1  2  1  0
  1  3  1  0
  1  4  1  0
  2  5  2  0
  3  6  2  0
  3 13  1  0
  4  7  1  0
  5  6  1  0
  7  8  1  0
  7 10  2  0
  8  9  1  0
  9 11  1  0
 11 12  1  0
 14 13  1  0
 15 13  2  0
M  CHG  2  13   1  14  -1
M  END
>  <DRUGBANK_ID>  (1) 
DB12736

>  <COMMON_NAME>  (1) 
Etanidazole

>  <CAS_NUMBER>  (1) 
22668-01-5

>  <UNII>  (1) 
30DKA3Q1HL

>  <SYNONYMS>  (1) 
Etanidazol; Etanidazole; Etanidazolum

$$$$
