DT2
     RDKit          2D

 27 30  0  0  0  0  0  0  0  0999 V2000
   -4.5470   -2.8228    0.0000 O   0  0  0  0  0  0  0  0  0  0  0  0
   -3.8326   -2.4103    0.0000 S   0  0  0  0  0  0  0  0  0  0  0  0
   -3.4201   -3.1247    0.0000 O   0  0  0  0  0  0  0  0  0  0  0  0
   -4.2451   -1.6958    0.0000 N   0  0  0  0  0  0  0  0  0  0  0  0
   -3.1181   -1.9978    0.0000 C   0  0  0  0  0  0  0  0  0  0  0  0
   -3.1181   -1.1728    0.0000 C   0  0  0  0  0  0  0  0  0  0  0  0
   -2.4036   -0.7603    0.0000 C   0  0  0  0  0  0  0  0  0  0  0  0
   -1.6892   -1.1728    0.0000 C   0  0  0  0  0  0  0  0  0  0  0  0
   -1.6892   -1.9978    0.0000 C   0  0  0  0  0  0  0  0  0  0  0  0
   -2.4036   -2.4103    0.0000 C   0  0  0  0  0  0  0  0  0  0  0  0
   -0.9747   -0.7603    0.0000 N   0  0  0  0  0  0  0  0  0  0  0  0
   -0.9747    0.0647    0.0000 C   0  0  0  0  0  0  0  0  0  0  0  0
   -1.6892    0.4772    0.0000 N   0  0  0  0  0  0  0  0  0  0  0  0
   -2.4738    0.2223    0.0000 N   0  0  0  0  0  0  0  0  0  0  0  0
   -2.9587    0.8897    0.0000 C   0  0  0  0  0  0  0  0  0  0  0  0
   -1.6892    1.3022    0.0000 C   0  0  0  0  0  0  0  0  0  0  0  0
   -2.4738    1.5572    0.0000 N   0  0  0  0  0  0  0  0  0  0  0  0
   -0.9747    1.7147    0.0000 N   0  0  0  0  0  0  0  0  0  0  0  0
   -0.2602    1.3022    0.0000 C   0  0  0  0  0  0  0  0  0  0  0  0
   -0.2602    0.4772    0.0000 C   0  0  0  0  0  0  0  0  0  0  0  0
    0.4543    1.7147    0.0000 N   0  0  0  0  0  0  0  0  0  0  0  0
    1.1687    1.3022    0.0000 C   0  0  0  0  0  0  0  0  0  0  0  0
    1.8832    1.7147    0.0000 C   0  0  0  0  0  0  0  0  0  0  0  0
    2.5977    1.3022    0.0000 C   0  0  0  0  0  0  0  0  0  0  0  0
    2.5977    0.4772    0.0000 C   0  0  0  0  0  0  0  0  0  0  0  0
    1.8832    0.0647    0.0000 C   0  0  0  0  0  0  0  0  0  0  0  0
    1.1687    0.4772    0.0000 C   0  0  0  0  0  0  0  0  0  0  0  0
  1  2  2  0
  2  3  2  0
  2  4  1  0
  2  5  1  0
  5  6  2  0
  5 10  1  0
  6  7  1  0
  7  8  2  0
  8  9  1  0
  8 11  1  0
  9 10  2  0
 11 12  1  0
 12 13  1  0
 12 20  2  0
 13 14  1  0
 13 16  1  0
 14 15  2  0
 15 17  1  0
 16 17  2  0
 16 18  1  0
 18 19  2  0
 19 20  1  0
 19 21  1  0
 21 22  1  0
 22 23  1  0
 22 27  1  0
 23 24  1  0
 24 25  1  0
 25 26  1  0
 26 27  1  0
M  END
>  <DRUGBANK_ID>  (1) 
DB07686

>  <COMMON_NAME>  (1) 
4-{[5-(CYCLOHEXYLAMINO)[1,2,4]TRIAZOLO[1,5-A]PYRIMIDIN-7-YL]AMINO}BENZENESULFONAMIDE

$$$$
