5BN
     RDKit          2D

 23 26  0  0  0  0  0  0  0  0999 V2000
    1.5443   -2.9894    0.0000 N   0  0  0  0  0  0  0  0  0  0  0  0
    0.8298   -2.5769    0.0000 C   0  0  0  0  0  0  0  0  0  0  0  0
    0.8298   -1.7519    0.0000 C   0  0  0  0  0  0  0  0  0  0  0  0
    0.1154   -1.3394    0.0000 N   0  0  0  0  0  0  0  0  0  0  0  0
    0.1154   -0.5144    0.0000 C   0  0  0  0  0  0  0  0  0  0  0  0
   -0.5971   -0.1019    0.0000 C   0  0  0  0  0  0  0  0  0  0  0  0
   -0.5971    0.7231    0.0000 C   0  0  0  0  0  0  0  0  0  0  0  0
   -1.3119    1.1352    0.0000 C   0  0  0  0  0  0  0  0  0  0  0  0
   -2.0653    0.7992    0.0000 C   0  0  0  0  0  0  0  0  0  0  0  0
   -2.6177    1.4119    0.0000 C   0  0  0  0  0  0  0  0  0  0  0  0
   -2.2057    2.1267    0.0000 C   0  0  0  0  0  0  0  0  0  0  0  0
   -1.3986    1.9556    0.0000 N   0  0  0  0  0  0  0  0  0  0  0  0
    0.1154    1.1356    0.0000 C   0  0  0  0  0  0  0  0  0  0  0  0
    0.4154    1.9928    0.0000 C   0  0  0  0  0  0  0  0  0  0  0  0
   -0.0620    2.6656    0.0000 O   0  0  0  0  0  0  0  0  0  0  0  0
    1.2404    1.9928    0.0000 N   0  0  0  0  0  0  0  0  0  0  0  0
    1.5457    1.1356    0.0000 C   0  0  0  0  0  0  0  0  0  0  0  0
    2.2582    0.7231    0.0000 C   0  0  0  0  0  0  0  0  0  0  0  0
    2.2582   -0.1019    0.0000 C   0  0  0  0  0  0  0  0  0  0  0  0
    1.5457   -0.5144    0.0000 C   0  0  0  0  0  0  0  0  0  0  0  0
    1.5471   -1.3394    0.0000 F   0  0  0  0  0  0  0  0  0  0  0  0
    0.8279   -0.1019    0.0000 C   0  0  0  0  0  0  0  0  0  0  0  0
    0.8279    0.7231    0.0000 C   0  0  0  0  0  0  0  0  0  0  0  0
  1  2  1  0
  2  3  1  0
  3  4  1  0
  4  5  1  0
  5  6  2  0
  5 22  1  0
  6  7  1  0
  7  8  1  0
  7 13  2  0
  8  9  2  0
  8 12  1  0
  9 10  1  0
 10 11  2  0
 11 12  1  0
 13 14  1  0
 13 23  1  0
 14 15  2  0
 14 16  1  0
 16 17  1  0
 17 18  1  0
 17 23  2  0
 18 19  2  0
 19 20  1  0
 20 21  1  0
 20 22  2  0
 22 23  1  0
M  END
>  <DRUGBANK_ID>  (1) 
DB07163

>  <COMMON_NAME>  (1) 
5-[(2-AMINOETHYL)AMINO]-6-FLUORO-3-(1H-PYRROL-2-YL)BENZO[CD]INDOL-2(1H)-ONE

$$$$
