Resveratrol
     RDKit          2D

 17 18  0  0  0  0  0  0  0  0999 V2000
    1.4289   -1.6500    0.0000 O   0  0  0  0  0  0  0  0  0  0  0  0
    1.4289   -2.4750    0.0000 C   0  0  0  0  0  0  0  0  0  0  0  0
    2.1434   -2.8875    0.0000 C   0  0  0  0  0  0  0  0  0  0  0  0
    2.1434   -3.7125    0.0000 C   0  0  0  0  0  0  0  0  0  0  0  0
    1.4289   -4.1250    0.0000 C   0  0  0  0  0  0  0  0  0  0  0  0
    1.4289   -4.9500    0.0000 C   0  0  0  0  0  0  0  0  0  0  0  0
    2.1434   -5.3625    0.0000 C   0  0  0  0  0  0  0  0  0  0  0  0
    2.1434   -6.1875    0.0000 C   0  0  0  0  0  0  0  0  0  0  0  0
    2.8579   -6.6000    0.0000 C   0  0  0  0  0  0  0  0  0  0  0  0
    2.8579   -7.4250    0.0000 C   0  0  0  0  0  0  0  0  0  0  0  0
    3.5724   -7.8375    0.0000 O   0  0  0  0  0  0  0  0  0  0  0  0
    2.1434   -7.8375    0.0000 C   0  0  0  0  0  0  0  0  0  0  0  0
    1.4289   -7.4250    0.0000 C   0  0  0  0  0  0  0  0  0  0  0  0
    0.7145   -7.8375    0.0000 O   0  0  0  0  0  0  0  0  0  0  0  0
    1.4289   -6.6000    0.0000 C   0  0  0  0  0  0  0  0  0  0  0  0
    0.7145   -3.7125    0.0000 C   0  0  0  0  0  0  0  0  0  0  0  0
    0.7145   -2.8875    0.0000 C   0  0  0  0  0  0  0  0  0  0  0  0
  1  2  1  0
  2  3  2  0
  2 17  1  0
  3  4  1  0
  4  5  2  0
  5  6  1  0
  5 16  1  0
  6  7  2  0
  7  8  1  0
  8  9  2  0
  8 15  1  0
  9 10  1  0
 10 11  1  0
 10 12  2  0
 12 13  1  0
 13 14  1  0
 13 15  2  0
 16 17  2  0
M  END
>  <DRUGBANK_ID>  (1) 
DB02709

>  <SECONDARY_ACCESSION_NUMBERS>  (1) 
EXPT02968; DB05073

>  <COMMON_NAME>  (1) 
Resveratrol

>  <CAS_NUMBER>  (1) 
501-36-0

>  <UNII>  (1) 
Q369O8926L

>  <SYNONYMS>  (1) 
(E)-5-(2-(4-hydroxyphenyl)ethenyl)-1,3-benzenediol(E)-5-(2-(4-hydroxyphenyl)ethenyl)-1,3-benzenediol; (E)-resveratrol; 3,4',5-trihydroxy-trans-stilbene; 3,4',5-trihydroxystilbene; 3,5,4'-trihydroxystilbene; 5-[(1E)-2-(4-hydroxyphenyl)ethenyl]benzene-1,3-diol; 5-[(E)-2-(4-Hydroxyphenyl)-Ethenyl] Benzene-1,3 Diol; 5-[(E)-2-(4-hydroxyphenyl)ethenyl]benzene-1,3-diol; 5-[(E)-2-(4-hydroxyphenyl)vinyl]benzene-1,3-diol; trans-resveratrol

$$$$
