
     RDKit          2D

 11 10  0  0  0  0  0  0  0  0999 V2000
   -0.4050   -2.6781    0.0000 N   0  0  0  0  0  0  0  0  0  0  0  0
    0.1784   -2.0947    0.0000 C   0  0  0  0  0  0  0  0  0  0  0  0
    0.7618   -2.6781    0.0000 C   0  0  0  0  0  0  0  0  0  0  0  0
    0.5482   -3.4750    0.0000 C   0  0  0  0  0  0  0  0  0  0  0  0
    1.1316   -4.0583    0.0000 O   0  0  0  0  0  0  0  0  0  0  0  0
   -0.4050   -1.5114    0.0000 C   0  0  0  0  0  0  0  0  0  0  0  0
   -0.1914   -0.7145    0.0000 C   0  0  0  0  0  0  0  0  0  0  0  0
   -0.7748   -0.1311    0.0000 O   0  0  0  0  0  0  0  0  0  0  0  0
    0.7618   -1.5114    0.0000 C   0  0  0  0  0  0  0  0  0  0  0  0
    0.5482   -0.7145    0.0000 C   0  0  0  0  0  0  0  0  0  0  0  0
    1.1316   -0.1311    0.0000 O   0  0  0  0  0  0  0  0  0  0  0  0
  1  2  1  0
  2  3  1  0
  2  6  1  0
  2  9  1  0
  3  4  1  0
  4  5  1  0
  6  7  1  0
  7  8  1  0
  9 10  1  0
 10 11  1  0
M  END
>  <DRUGBANK_ID>  (1) 
DB04237

>  <SECONDARY_ACCESSION_NUMBERS>  (1) 
EXPT03004

>  <COMMON_NAME>  (1) 
Tris(Hydroxyethyl)Aminomethane

$$$$
