
     RDKit          2D

 16 17  0  0  0  0  0  0  0  0999 V2000
    0.7145   -1.8562    0.0000 C   0  0  0  0  0  0  0  0  0  0  0  0
    0.7145   -1.0312    0.0000 C   0  0  0  0  0  0  0  0  0  0  0  0
    0.0000   -0.6188    0.0000 C   0  0  0  0  0  0  0  0  0  0  0  0
   -0.7144   -1.0313    0.0000 N   0  0  0  0  0  0  0  0  0  0  0  0
   -1.4289   -0.6188    0.0000 C   0  0  0  0  0  0  0  0  0  0  0  0
   -2.1433   -1.0314    0.0000 N   0  0  0  0  0  0  0  0  0  0  0  0
   -1.4289    0.2061    0.0000 N   0  0  0  0  0  0  0  0  0  0  0  0
   -0.7144    0.6186    0.0000 C   0  0  0  0  0  0  0  0  0  0  0  0
   -0.7145    1.4436    0.0000 N   0  0  0  0  0  0  0  0  0  0  0  0
    0.0000    0.2061    0.0000 C   0  0  0  0  0  0  0  0  0  0  0  0
    0.7144    0.6187    0.0000 C   0  0  0  0  0  0  0  0  0  0  0  0
    0.7144    1.4437    0.0000 C   0  0  0  0  0  0  0  0  0  0  0  0
    1.4288    1.8562    0.0000 C   0  0  0  0  0  0  0  0  0  0  0  0
    2.1433    1.4437    0.0000 C   0  0  0  0  0  0  0  0  0  0  0  0
    2.1433    0.6187    0.0000 C   0  0  0  0  0  0  0  0  0  0  0  0
    1.4289    0.2062    0.0000 C   0  0  0  0  0  0  0  0  0  0  0  0
  1  2  1  0
  2  3  1  0
  3  4  2  0
  4  5  1  0
  5  6  1  0
  5  7  2  0
  7  8  1  0
  8  9  1  0
  8 10  2  0
 10  3  1  0
 10 11  1  0
 11 12  2  0
 12 13  1  0
 13 14  2  0
 14 15  1  0
 15 16  2  0
 16 11  1  0
M  END
>  <DRUGBANK_ID>  (1) 
DB07577

>  <COMMON_NAME>  (1) 
2,4-Diamino-5-phenyl-6-ethylpyrimidine

>  <CAS_NUMBER>  (1) 
27653-49-2

>  <UNII>  (1) 
KMJ59LN22F

>  <SYNONYMS>  (1) 
2,4-Diamino-6-ethyl-5-phenylpyrimidine

$$$$
