
     RDKit          2D

 33 35  0  0  1  0  0  0  0  0999 V2000
   -2.1434   -2.8875    0.0000 C   0  0  0  0  0  0  0  0  0  0  0  0
   -1.4289   -3.3000    0.0000 C   0  0  0  0  0  0  0  0  0  0  0  0
   -0.7145   -2.8875    0.0000 N   0  0  0  0  0  0  0  0  0  0  0  0
   -0.7145   -2.0625    0.0000 C   0  0  0  0  0  0  0  0  0  0  0  0
   -1.4289   -1.6500    0.0000 C   0  0  0  0  0  0  0  0  0  0  0  0
   -2.1434   -2.0625    0.0000 C   0  0  0  0  0  0  0  0  0  0  0  0
   -2.8579   -1.6500    0.0000 C   0  0  0  0  0  0  0  0  0  0  0  0
   -2.8579   -0.8250    0.0000 N   0  0  0  0  0  0  0  0  0  0  0  0
   -2.1434   -0.4125    0.0000 C   0  0  0  0  0  0  0  0  0  0  0  0
   -1.4289   -0.8250    0.0000 N   0  0  0  0  0  0  0  0  0  0  0  0
   -2.1434    0.4125    0.0000 C   0  0  0  0  0  0  0  0  0  0  0  0
   -2.1434    1.2375    0.0000 F   0  0  0  0  0  0  0  0  0  0  0  0
   -2.9684    0.4125    0.0000 F   0  0  0  0  0  0  0  0  0  0  0  0
   -1.3184    0.4125    0.0000 F   0  0  0  0  0  0  0  0  0  0  0  0
   -3.5724   -2.0625    0.0000 C   0  0  0  0  0  0  0  0  0  0  0  0
   -4.2868   -2.4750    0.0000 F   0  0  0  0  0  0  0  0  0  0  0  0
   -3.9849   -1.3480    0.0000 F   0  0  0  0  0  0  0  0  0  0  0  0
   -3.1599   -2.7770    0.0000 F   0  0  0  0  0  0  0  0  0  0  0  0
    0.0000   -3.3000    0.0000 C   0  0  0  0  0  0  0  0  0  0  0  0
    0.0000   -4.1250    0.0000 O   0  0  0  0  0  0  0  0  0  0  0  0
    0.7145   -2.8875    0.0000 C   0  0  0  0  0  0  0  0  0  0  0  0
    1.4289   -3.3000    0.0000 C   0  0  0  0  0  0  0  0  0  0  0  0
    2.1434   -2.8875    0.0000 C   0  0  0  0  0  0  0  0  0  0  0  0
    2.8579   -3.3000    0.0000 N   0  0  0  0  0  0  0  0  0  0  0  0
    3.5724   -2.8875    0.0000 C   0  0  0  0  0  0  0  0  0  0  0  0
    4.2868   -3.3000    0.0000 C   0  0  0  0  0  0  0  0  0  0  0  0
    4.2868   -4.1250    0.0000 C   0  0  0  0  0  0  0  0  0  0  0  0
    3.5724   -4.5375    0.0000 C   0  0  0  0  0  0  0  0  0  0  0  0
    2.8579   -4.1250    0.0000 C   0  0  0  0  0  0  0  0  0  0  0  0
    2.1434   -4.5375    0.0000 O   0  0  0  0  0  0  0  0  0  0  0  0
    4.7240   -2.6004    0.0000 F   0  0  0  0  0  0  0  0  0  0  0  0
    5.1113   -3.2712    0.0000 F   0  0  0  0  0  0  0  0  0  0  0  0
    1.4289   -4.1250    0.0000 N   0  0  0  0  0  0  0  0  0  0  0  0
  1  2  1  0
  1  6  1  0
  2  3  1  0
  3  4  1  0
  3 19  1  0
  4  5  1  0
  5  6  2  0
  5 10  1  0
  6  7  1  0
  7  8  2  0
  7 15  1  0
  8  9  1  0
  9 10  2  0
  9 11  1  0
 11 12  1  0
 11 13  1  0
 11 14  1  0
 15 16  1  0
 15 17  1  0
 15 18  1  0
 19 20  2  0
 19 21  1  0
 21 22  1  0
 22 23  1  0
 22 33  1  1
 23 24  1  0
 24 25  1  0
 24 29  1  0
 25 26  1  0
 26 27  1  0
 26 31  1  0
 26 32  1  0
 27 28  1  0
 28 29  1  0
 29 30  2  0
M  END
>  <DRUGBANK_ID>  (1) 
DB12412

>  <COMMON_NAME>  (1) 
Gemigliptin

>  <CAS_NUMBER>  (1) 
911637-19-9

>  <UNII>  (1) 
5DHU18M5D6

>  <SYNONYMS>  (1) 
Gemigliptin

$$$$
