
     RDKit          2D

 27 29  0  0  0  0  0  0  0  0999 V2000
   -0.9252   -0.5075    0.0000 N   0  0  0  0  0  0  0  0  0  0  0  0
   -0.7537   -1.3144    0.0000 C   0  0  0  0  0  0  0  0  0  0  0  0
    0.0000   -1.6500    0.0000 C   0  0  0  0  0  0  0  0  0  0  0  0
   -0.0862   -2.4705    0.0000 C   0  0  0  0  0  0  0  0  0  0  0  0
   -0.8932   -2.6420    0.0000 N   0  0  0  0  0  0  0  0  0  0  0  0
   -1.3057   -1.9275    0.0000 N   0  0  0  0  0  0  0  0  0  0  0  0
   -2.1262   -1.8413    0.0000 C   0  0  0  0  0  0  0  0  0  0  0  0
   -2.6111   -2.5087    0.0000 C   0  0  0  0  0  0  0  0  0  0  0  0
   -3.4316   -2.4225    0.0000 C   0  0  0  0  0  0  0  0  0  0  0  0
   -3.7671   -1.6688    0.0000 C   0  0  0  0  0  0  0  0  0  0  0  0
   -4.5876   -1.5826    0.0000 F   0  0  0  0  0  0  0  0  0  0  0  0
   -3.2822   -1.0014    0.0000 C   0  0  0  0  0  0  0  0  0  0  0  0
   -2.4617   -1.0876    0.0000 C   0  0  0  0  0  0  0  0  0  0  0  0
    0.7145   -1.2375    0.0000 C   0  0  0  0  0  0  0  0  0  0  0  0
    1.4289   -1.6500    0.0000 O   0  0  0  0  0  0  0  0  0  0  0  0
    0.7145   -0.4125    0.0000 C   0  0  0  0  0  0  0  0  0  0  0  0
   -0.0000    0.0000    0.0000 C   0  0  0  0  0  0  0  0  0  0  0  0
   -0.0000    0.8250    0.0000 C   0  0  0  0  0  0  0  0  0  0  0  0
    0.7145    1.2375    0.0000 C   0  0  0  0  0  0  0  0  0  0  0  0
    1.4289    0.8250    0.0000 C   0  0  0  0  0  0  0  0  0  0  0  0
    2.1434    1.2375    0.0000 O   0  0  0  0  0  0  0  0  0  0  0  0
    2.8579    0.8250    0.0000 C   0  0  0  0  0  0  0  0  0  0  0  0
    3.5724    1.2375    0.0000 C   0  0  0  0  0  0  0  0  0  0  0  0
    3.5724    2.0625    0.0000 O   0  0  0  0  0  0  0  0  0  0  0  0
    4.2868    0.8250    0.0000 C   0  0  0  0  0  0  0  0  0  0  0  0
    5.0013    1.2375    0.0000 O   0  0  0  0  0  0  0  0  0  0  0  0
    1.4289    0.0000    0.0000 C   0  0  0  0  0  0  0  0  0  0  0  0
  1  2  1  0
  2  3  2  0
  2  6  1  0
  3  4  1  0
  3 14  1  0
  4  5  2  0
  5  6  1  0
  6  7  1  0
  7  8  2  0
  7 13  1  0
  8  9  1  0
  9 10  2  0
 10 11  1  0
 10 12  1  0
 12 13  2  0
 14 15  2  0
 14 16  1  0
 16 17  2  0
 16 27  1  0
 17 18  1  0
 18 19  2  0
 19 20  1  0
 20 21  1  0
 20 27  2  0
 21 22  1  0
 22 23  1  0
 23 24  1  0
 23 25  1  0
 25 26  1  0
M  END
>  <DRUGBANK_ID>  (1) 
DB17106

>  <COMMON_NAME>  (1) 
SYD-003

>  <CAS_NUMBER>  (1) 
249937-52-8

>  <UNII>  (1) 
TE3ESF890C

>  <SYNONYMS>  (1) 
(5-amino-1-(4-fluoro-phenyl)-1h-pyrazol-4-yl)-(3-(2,3-dihydroxy-propoxy)-phenyl)-methanone; [5-Amino-1-(4-fluoro-phenyl)-1H-pyrazol-4-yl]-[3-(2,3-dihydroxy-propoxy)-phenyl]-methanone; Methanone, (5-amino-1-(4-fluorophenyl)-1h-pyrazol-4-yl)(3-(2,3-dihydroxypropoxy)phenyl)-

$$$$
