
     RDKit          2D

 29 31  0  0  0  0  0  0  0  0999 V2000
    0.3604    0.1671    0.0000 C   0  0  0  0  0  0  0  0  0  0  0  0
    0.0025   -0.5761    0.0000 C   0  0  0  0  0  0  0  0  0  0  0  0
   -0.8018   -0.7596    0.0000 N   0  0  0  0  0  0  0  0  0  0  0  0
   -0.8018    1.0941    0.0000 S   0  0  0  0  0  0  0  0  0  0  0  0
    0.0025    0.9105    0.0000 C   0  0  0  0  0  0  0  0  0  0  0  0
   -1.4468   -0.2453    0.0000 C   0  0  0  0  0  0  0  0  0  0  0  0
   -1.4468    0.5796    0.0000 C   0  0  0  0  0  0  0  0  0  0  0  0
    1.1854    0.1671    0.0000 O   0  0  0  0  0  0  0  0  0  0  0  0
   -0.9853   -1.5639    0.0000 C   0  0  0  0  0  0  0  0  0  0  0  0
    0.5168    1.5554    0.0000 C   0  0  0  0  0  0  0  0  0  0  0  0
    1.5979   -0.5472    0.0000 C   0  0  0  0  0  0  0  0  0  0  0  0
    0.5168   -1.2210    0.0000 O   0  0  0  0  0  0  0  0  0  0  0  0
    1.1854   -1.2617    0.0000 O   0  0  0  0  0  0  0  0  0  0  0  0
    0.2154    2.3234    0.0000 C   0  0  0  0  0  0  0  0  0  0  0  0
    1.3326    1.4325    0.0000 C   0  0  0  0  0  0  0  0  0  0  0  0
   -0.3806   -2.1251    0.0000 C   0  0  0  0  0  0  0  0  0  0  0  0
   -0.5641   -2.9294    0.0000 N   0  0  0  0  0  0  0  0  0  0  0  0
    1.5456    2.8455    0.0000 C   0  0  0  0  0  0  0  0  0  0  0  0
    1.8470    2.0775    0.0000 C   0  0  0  0  0  0  0  0  0  0  0  0
    0.7298    2.9684    0.0000 C   0  0  0  0  0  0  0  0  0  0  0  0
   -2.1612   -0.6578    0.0000 C   0  0  0  0  0  0  0  0  0  0  0  0
    2.0599    3.4905    0.0000 O   0  0  0  0  0  0  0  0  0  0  0  0
   -2.1612    0.9921    0.0000 C   0  0  0  0  0  0  0  0  0  0  0  0
    2.4229   -0.5472    0.0000 C   0  0  0  0  0  0  0  0  0  0  0  0
    0.0405   -3.4905    0.0000 C   0  0  0  0  0  0  0  0  0  0  0  0
   -1.3525   -3.1726    0.0000 C   0  0  0  0  0  0  0  0  0  0  0  0
    2.8758    3.3675    0.0000 C   0  0  0  0  0  0  0  0  0  0  0  0
   -2.8758   -0.2453    0.0000 C   0  0  0  0  0  0  0  0  0  0  0  0
   -2.8758    0.5796    0.0000 C   0  0  0  0  0  0  0  0  0  0  0  0
  1  8  1  1
  2  1  1  0
  3  2  1  0
  4  5  1  0
  5  1  1  0
  5 10  1  1
  6  3  1  0
  7  4  1  0
  7  6  2  0
  9  3  1  0
 11  8  1  0
 12  2  2  0
 13 11  2  0
 14 10  2  0
 15 10  1  0
 16  9  1  0
 17 16  1  0
 18 19  1  0
 19 15  2  0
 20 14  1  0
 20 18  2  0
 21  6  1  0
 22 18  1  0
 23  7  1  0
 24 11  1  0
 25 17  1  0
 26 17  1  0
 27 22  1  0
 28 21  2  0
 29 23  2  0
 29 28  1  0
M  END
>  <DRUGBANK_ID>  (1) 
DB00343

>  <SECONDARY_ACCESSION_NUMBERS>  (1) 
APRD00473

>  <COMMON_NAME>  (1) 
Diltiazem

>  <CAS_NUMBER>  (1) 
42399-41-7

>  <UNII>  (1) 
EE92BBP03H

>  <SYNONYMS>  (1) 
(+)-cis-5-[2-(dimethylamino)ethyl]-2,3-dihydro-3-hydroxy-2-(p-methoxyphenyl)-1,5-benzothiazepin-4(5H)-one acetate ester; (2S-cis)-3-(acetyloxy)-5-[2-(dimethylamino)ethyl]-2,3-dihydro-2-(4-methoxyphenyl)-1,5-benzothiazepin-4(5H)-one; (2S,3S)-5-(2-(dimethylamino)ethyl)-2-(4-methoxyphenyl)-4-oxo-2,3,4,5-tetrahydrobenzo[b][1,4]thiazepin-3-yl acetate; Acetic acid (2S,3S)-5-(2-dimethylamino-ethyl)-2-(4-methoxy-phenyl)-4-oxo-2,3,4,5-tetrahydro-benzo[b][1,4]thiazepin-3-yl ester; d-cis-diltiazem; Diltiazem; Diltiazemum

$$$$
