R18
     RDKit          2D

 21 24  0  0  0  0  0  0  0  0999 V2000
    1.9235   -0.6389    0.0000 C   0  0  0  0  0  0  0  0  0  0  0  0
    2.7356   -0.4937    0.0000 C   0  0  0  0  0  0  0  0  0  0  0  0
    3.0159    0.2822    0.0000 C   0  0  0  0  0  0  0  0  0  0  0  0
    2.4841    0.9129    0.0000 C   0  0  0  0  0  0  0  0  0  0  0  0
    1.6720    0.7677    0.0000 C   0  0  0  0  0  0  0  0  0  0  0  0
    1.1402    1.3984    0.0000 C   0  0  0  0  0  0  0  0  0  0  0  0
    0.3280    1.2532    0.0000 C   0  0  0  0  0  0  0  0  0  0  0  0
    0.0477    0.4773    0.0000 C   0  0  0  0  0  0  0  0  0  0  0  0
    0.5796   -0.1534    0.0000 C   0  0  0  0  0  0  0  0  0  0  0  0
    1.3917   -0.0082    0.0000 C   0  0  0  0  0  0  0  0  0  0  0  0
    0.2993   -0.9293    0.0000 C   0  0  0  0  0  0  0  0  0  0  0  0
   -0.5129   -1.0746    0.0000 C   0  0  0  0  0  0  0  0  0  0  0  0
   -1.0447   -0.4438    0.0000 C   0  0  0  0  0  0  0  0  0  0  0  0
   -0.7644    0.3321    0.0000 C   0  0  0  0  0  0  0  0  0  0  0  0
   -1.4157    0.8384    0.0000 C   0  0  0  0  0  0  0  0  0  0  0  0
   -2.0986    0.3755    0.0000 C   0  0  0  0  0  0  0  0  0  0  0  0
   -1.8692   -0.4170    0.0000 C   0  0  0  0  0  0  0  0  0  0  0  0
   -1.4045   -1.1862    0.0000 C   0  0  0  0  0  0  0  0  0  0  0  0
   -1.9906   -1.2331    0.0000 C   0  0  0  0  0  0  0  0  0  0  0  0
    3.8280    0.4274    0.0000 O   0  0  0  0  0  0  0  0  0  0  0  0
   -2.6301   -0.7359    0.0000 O   0  0  0  0  0  0  0  0  0  0  0  0
  1  2  1  0
  1 10  1  0
  2  3  1  0
  3  4  1  0
  3 20  2  0
  4  5  2  0
  5  6  1  0
  5 10  1  0
  6  7  1  0
  8  7  1  6
  8  9  1  0
  8 14  1  0
  9 10  2  0
  9 11  1  0
 11 12  2  0
 12 13  1  0
 13 14  1  0
 13 17  1  0
 13 18  1  1
 14 15  1  1
 15 16  1  0
 16 17  1  0
 17 19  1  6
 17 21  1  0
M  END
>  <DRUGBANK_ID>  (1) 
DB02998

>  <SECONDARY_ACCESSION_NUMBERS>  (1) 
EXPT02741

>  <COMMON_NAME>  (1) 
Metribolone

>  <CAS_NUMBER>  (1) 
965-93-5

>  <UNII>  (1) 
2C323EGI97

>  <SYNONYMS>  (1) 
17-beta-Hydroxy-17-methylestra-4,9,11-trien-3-one; 17alpha-Methyltrienolone; Methyltrienolone; Metribolona; Metribolone; Metribolonum

$$$$
