
     RDKit          2D

 19 20  0  0  0  0  0  0  0  0999 V2000
   -0.3436    0.1979    0.0000 C   0  0  0  0  0  0  0  0  0  0  0  0
   -0.3436   -0.6271    0.0000 C   0  0  0  0  0  0  0  0  0  0  0  0
    0.3683   -1.0355    0.0000 C   0  0  0  0  0  0  0  0  0  0  0  0
    0.3683    0.6146    0.0000 C   0  0  0  0  0  0  0  0  0  0  0  0
    1.0804    0.1979    0.0000 C   0  0  0  0  0  0  0  0  0  0  0  0
    1.0769   -0.6271    0.0000 C   0  0  0  0  0  0  0  0  0  0  0  0
    2.5014   -0.6332    0.0000 C   0  0  0  0  0  0  0  0  0  0  0  0
    2.5048    0.1918    0.0000 C   0  0  0  0  0  0  0  0  0  0  0  0
    1.7921    0.6120    0.0000 N   0  0  0  0  0  0  0  0  0  0  0  0
    1.7856    1.4397    0.0000 C   0  0  0  0  0  0  0  0  0  0  0  0
    1.0689    1.8522    0.0000 C   0  0  0  0  0  0  0  0  0  0  0  0
    2.4982    1.8564    0.0000 C   0  0  0  0  0  0  0  0  0  0  0  0
    3.2108   -1.0438    0.0000 O   0  0  0  0  0  0  0  0  0  0  0  0
   -1.0604    0.6105    0.0000 O   0  0  0  0  0  0  0  0  0  0  0  0
   -1.0604   -1.0355    0.0000 N   0  0  0  0  0  0  0  0  0  0  0  0
   -1.7772   -0.6230    0.0000 N   0  0  0  0  0  0  0  0  0  0  0  0
   -2.4939   -1.0313    0.0000 C   0  0  0  0  0  0  0  0  0  0  0  0
   -3.2108   -0.6188    0.0000 N   0  0  0  0  0  0  0  0  0  0  0  0
   -2.4982   -1.8564    0.0000 O   0  0  0  0  0  0  0  0  0  0  0  0
  1  2  1  0
  1  4  1  0
  1 14  2  0
  2  3  1  0
  2 15  2  0
  3  6  2  0
  5  4  2  0
  5  6  1  0
  6  7  1  0
  7 13  1  0
  7  8  1  0
  8  9  1  0
  9 10  1  0
  9  5  1  0
 10 11  1  0
 10 12  1  0
 15 16  1  0
 16 17  1  0
 17 18  1  0
 17 19  2  0
M  END
>  <DRUGBANK_ID>  (1) 
DB13541

>  <COMMON_NAME>  (1) 
Iprazochrome

>  <CAS_NUMBER>  (1) 
7248-21-7

>  <UNII>  (1) 
903A9K181P

>  <SYNONYMS>  (1) 
Iprazochrome; Iprazochromum; Iprazocromo

$$$$
