
     RDKit          2D

 24 27  0  0  1  0  0  0  0  0999 V2000
    3.6826    0.2174    0.0000 C   0  0  0  0  0  0  0  0  0  0  0  0
    4.3340   -0.2889    0.0000 C   0  0  0  0  0  0  0  0  0  0  0  0
    5.0168    0.1741    0.0000 C   0  0  0  0  0  0  0  0  0  0  0  0
    4.7875    0.9666    0.0000 C   0  0  0  0  0  0  0  0  0  0  0  0
    5.2939    1.6179    0.0000 N   0  0  0  0  0  0  0  0  0  0  0  0
    6.1111    1.5050    0.0000 O   0  0  0  0  0  0  0  0  0  0  0  0
    3.9629    0.9934    0.0000 C   0  0  0  0  0  0  0  0  0  0  0  0
    4.3228    1.7357    0.0000 C   0  0  0  0  0  0  0  0  0  0  0  0
    3.4311    1.6241    0.0000 C   0  0  0  0  0  0  0  0  0  0  0  0
    2.6190    1.4789    0.0000 C   0  0  0  0  0  0  0  0  0  0  0  0
    2.3387    0.7029    0.0000 C   0  0  0  0  0  0  0  0  0  0  0  0
    2.8705    0.0722    0.0000 C   0  0  0  0  0  0  0  0  0  0  0  0
    2.5902   -0.7037    0.0000 C   0  0  0  0  0  0  0  0  0  0  0  0
    1.7781   -0.8489    0.0000 C   0  0  0  0  0  0  0  0  0  0  0  0
    1.2463   -0.2182    0.0000 C   0  0  0  0  0  0  0  0  0  0  0  0
    0.4342   -0.3634    0.0000 C   0  0  0  0  0  0  0  0  0  0  0  0
   -0.0976    0.2673    0.0000 C   0  0  0  0  0  0  0  0  0  0  0  0
   -0.6264   -0.3660    0.0000 O   0  0  0  0  0  0  0  0  0  0  0  0
    0.1827    1.0432    0.0000 C   0  0  0  0  0  0  0  0  0  0  0  0
    0.9948    1.1884    0.0000 C   0  0  0  0  0  0  0  0  0  0  0  0
    1.5266    0.5577    0.0000 C   0  0  0  0  0  0  0  0  0  0  0  0
    1.8069    1.3336    0.0000 C   0  0  0  0  0  0  0  0  0  0  0  0
   -0.8131    0.6781    0.0000 C   0  0  0  0  0  0  0  0  0  0  0  0
   -1.5286    1.0888    0.0000 C   0  0  0  0  0  0  0  0  0  0  0  0
  1  2  1  1
  1  7  1  0
  1 12  1  0
  2  3  1  0
  3  4  1  0
  4  5  2  0
  5  6  1  0
  7  4  1  0
  7  8  1  1
  7  9  1  0
  9 10  1  0
 11 10  1  1
 11 21  1  0
 12 11  1  0
 12 13  1  6
 13 14  1  0
 15 14  1  1
 15 16  1  0
 17 16  1  0
 17 18  1  1
 17 19  1  0
 17 23  1  0
 19 20  1  0
 21 20  1  0
 21 15  1  0
 21 22  1  1
 23 24  3  0
M  END
>  <DRUGBANK_ID>  (1) 
DB18200

>  <COMMON_NAME>  (1) 
Golexanolone

>  <CAS_NUMBER>  (1) 
2089238-18-4

>  <UNII>  (1) 
9C48F08TP2

>  <SYNONYMS>  (1) 
Androstan-17-one, 3-ethynyl-3-hydroxy-, oxime, (3.beta.,5.alpha.,17e)-

$$$$
