
     RDKit          2D

 41 45  0  0  0  0  0  0  0  0999 V2000
   -6.1025    6.3856    0.0000 C   0  0  0  0  0  0  0  0  0  0  0  0
   -6.5150    5.6711    0.0000 C   0  0  0  0  0  0  0  0  0  0  0  0
   -6.1025    4.9566    0.0000 C   0  0  0  0  0  0  0  0  0  0  0  0
   -6.5150    4.2422    0.0000 C   0  0  0  0  0  0  0  0  0  0  0  0
   -7.3400    4.2422    0.0000 C   0  0  0  0  0  0  0  0  0  0  0  0
   -7.7525    4.9566    0.0000 N   0  0  0  0  0  0  0  0  0  0  0  0
   -7.3400    5.6711    0.0000 C   0  0  0  0  0  0  0  0  0  0  0  0
   -7.7525    3.5277    0.0000 S   0  0  0  0  0  0  0  0  0  0  0  0
   -8.1650    2.8132    0.0000 O   0  0  0  0  0  0  0  0  0  0  0  0
   -8.4669    3.9402    0.0000 O   0  0  0  0  0  0  0  0  0  0  0  0
   -7.0380    3.1152    0.0000 N   0  0  0  0  0  0  0  0  0  0  0  0
   -7.0380    2.2902    0.0000 C   0  0  0  0  0  0  0  0  0  0  0  0
   -7.7525    1.8777    0.0000 C   0  0  0  0  0  0  0  0  0  0  0  0
   -7.7525    1.0527    0.0000 C   0  0  0  0  0  0  0  0  0  0  0  0
   -7.0380    0.6402    0.0000 N   0  0  0  0  0  0  0  0  0  0  0  0
   -6.3235    1.0527    0.0000 C   0  0  0  0  0  0  0  0  0  0  0  0
   -6.3235    1.8777    0.0000 N   0  0  0  0  0  0  0  0  0  0  0  0
   -5.6091    0.6402    0.0000 C   0  0  0  0  0  0  0  0  0  0  0  0
   -4.8946    1.0527    0.0000 C   0  0  0  0  0  0  0  0  0  0  0  0
   -4.1801    0.6402    0.0000 C   0  0  0  0  0  0  0  0  0  0  0  0
   -4.1801   -0.1848    0.0000 N   0  0  0  0  0  0  0  0  0  0  0  0
   -4.8946   -0.5973    0.0000 C   0  0  0  0  0  0  0  0  0  0  0  0
   -5.6091   -0.1848    0.0000 C   0  0  0  0  0  0  0  0  0  0  0  0
   -4.8946   -1.4223    0.0000 C   0  0  0  0  0  0  0  0  0  0  0  0
   -4.2272   -1.9072    0.0000 N   0  0  0  0  0  0  0  0  0  0  0  0
   -4.4821   -2.6919    0.0000 N   0  0  0  0  0  0  0  0  0  0  0  0
   -5.3071   -2.6919    0.0000 N   0  0  0  0  0  0  0  0  0  0  0  0
   -5.5620   -1.9072    0.0000 N   0  0  0  0  0  0  0  0  0  0  0  0
   -8.4669    0.6402    0.0000 O   0  0  0  0  0  0  0  0  0  0  0  0
   -8.4669   -0.1848    0.0000 C   0  0  0  0  0  0  0  0  0  0  0  0
   -9.1814   -0.5973    0.0000 C   0  0  0  0  0  0  0  0  0  0  0  0
   -9.1814   -1.4223    0.0000 O   0  0  0  0  0  0  0  0  0  0  0  0
   -8.4669    2.2902    0.0000 O   0  0  0  0  0  0  0  0  0  0  0  0
   -9.1814    1.8777    0.0000 C   0  0  0  0  0  0  0  0  0  0  0  0
   -9.1814    1.0527    0.0000 C   0  0  0  0  0  0  0  0  0  0  0  0
   -9.8959    0.6402    0.0000 C   0  0  0  0  0  0  0  0  0  0  0  0
  -10.6104    1.0527    0.0000 C   0  0  0  0  0  0  0  0  0  0  0  0
  -10.6104    1.8777    0.0000 C   0  0  0  0  0  0  0  0  0  0  0  0
   -9.8959    2.2902    0.0000 C   0  0  0  0  0  0  0  0  0  0  0  0
   -9.8959    3.1152    0.0000 O   0  0  0  0  0  0  0  0  0  0  0  0
   -9.1814    3.5277    0.0000 C   0  0  0  0  0  0  0  0  0  0  0  0
  1  2  1  0
  2  3  2  0
  2  7  1  0
  3  4  1  0
  4  5  2  0
  5  6  1  0
  5  8  1  0
  6  7  2  0
  8  9  2  0
  8 10  2  0
  8 11  1  0
 11 12  1  0
 12 13  1  0
 12 17  2  0
 13 14  2  0
 13 33  1  0
 14 15  1  0
 14 29  1  0
 15 16  2  0
 16 17  1  0
 16 18  1  0
 18 19  2  0
 18 23  1  0
 19 20  1  0
 20 21  2  0
 21 22  1  0
 22 23  2  0
 22 24  1  0
 24 25  1  0
 24 28  2  0
 25 26  1  0
 26 27  2  0
 27 28  1  0
 29 30  1  0
 30 31  1  0
 31 32  1  0
 33 34  1  0
 34 35  2  0
 34 39  1  0
 35 36  1  0
 36 37  2  0
 37 38  1  0
 38 39  2  0
 39 40  1  0
 40 41  1  0
M  END
>  <DRUGBANK_ID>  (1) 
DB06677

>  <COMMON_NAME>  (1) 
Clazosentan

>  <CAS_NUMBER>  (1) 
180384-56-9

>  <UNII>  (1) 
3DRR0X4728

>  <SYNONYMS>  (1) 
Clazosentan

$$$$
