
     RDKit          2D

 20 20  0  0  1  0  0  0  0  0999 V2000
   18.5693   -4.0947    0.0000 P   0  0  0  0  0  0  0  0  0  0  0  0
   16.4258   -7.8072    0.0000 P   0  0  0  0  0  0  0  0  0  0  0  0
   17.8548   -4.5072    0.0000 O   0  0  0  0  0  0  0  0  0  0  0  0
   16.4258   -6.9821    0.0000 O   0  0  0  0  0  0  0  0  0  0  0  0
   16.4258   -5.3322    0.0000 O   0  0  0  0  0  0  0  0  0  0  0  0
   19.2838   -5.3322    0.0000 O   0  0  0  0  0  0  0  0  0  0  0  0
   17.8548   -7.8072    0.0000 O   0  0  0  0  0  0  0  0  0  0  0  0
   19.2838   -6.9821    0.0000 O   0  0  0  0  0  0  0  0  0  0  0  0
   19.2838   -3.6822    0.0000 O   0  0  0  0  0  0  0  0  0  0  0  0
   18.1568   -3.3802    0.0000 O   0  0  0  0  0  0  0  0  0  0  0  0
   15.6009   -7.8072    0.0000 O   0  0  0  0  0  0  0  0  0  0  0  0
   16.4258   -8.6322    0.0000 O   0  0  0  0  0  0  0  0  0  0  0  0
   18.9818   -4.8090    0.0000 O   0  0  0  0  0  0  0  0  0  0  0  0
   17.2508   -7.8072    0.0000 O   0  0  0  0  0  0  0  0  0  0  0  0
   17.8548   -5.3322    0.0000 C   0  0  0  0  0  0  0  0  0  0  0  0
   17.1404   -6.5697    0.0000 C   0  0  0  0  0  0  0  0  0  0  0  0
   17.1404   -5.7447    0.0000 C   0  0  0  0  0  0  0  0  0  0  0  0
   18.5693   -5.7447    0.0000 C   0  0  0  0  0  0  0  0  0  0  0  0
   17.8548   -6.9821    0.0000 C   0  0  0  0  0  0  0  0  0  0  0  0
   18.5693   -6.5697    0.0000 C   0  0  0  0  0  0  0  0  0  0  0  0
  1  3  1  0
  1  9  1  0
  1 10  1  0
  1 13  2  0
  2  4  1  0
  2 11  1  0
  2 12  1  0
  2 14  2  0
 15  3  1  6
 15 17  1  0
 15 18  1  0
 16  4  1  6
 16 17  1  0
 16 19  1  0
 17  5  1  6
 18  6  1  1
 18 20  1  0
 19  7  1  1
 19 20  1  0
 20  8  1  6
M  END
>  <DRUGBANK_ID>  (1) 
DB02942

>  <SECONDARY_ACCESSION_NUMBERS>  (1) 
EXPT01941

>  <COMMON_NAME>  (1) 
Inositol 1,3-Bisphosphate

$$$$
