TRT
     RDKit          2D

 25 25  0  0  0  0  0  0  0  0999 V2000
   -7.1839    0.8961    0.0000 C   0  0  0  0  0  0  0  0  0  0  0  0
   -6.4695    0.4836    0.0000 O   0  0  0  0  0  0  0  0  0  0  0  0
   -5.7550    0.8961    0.0000 C   0  0  0  0  0  0  0  0  0  0  0  0
   -5.0405    0.4836    0.0000 C   0  0  0  0  0  0  0  0  0  0  0  0
   -4.3261    0.8961    0.0000 O   0  0  0  0  0  0  0  0  0  0  0  0
   -3.6116    0.4836    0.0000 C   0  0  0  0  0  0  0  0  0  0  0  0
   -2.8971    0.8961    0.0000 C   0  0  0  0  0  0  0  0  0  0  0  0
   -2.1826    0.4836    0.0000 O   0  0  0  0  0  0  0  0  0  0  0  0
   -1.4682    0.8961    0.0000 C   0  0  0  0  0  0  0  0  0  0  0  0
   -0.7537    0.4836    0.0000 C   0  0  0  0  0  0  0  0  0  0  0  0
   -0.0392    0.8961    0.0000 O   0  0  0  0  0  0  0  0  0  0  0  0
    0.6752    0.4836    0.0000 C   0  0  0  0  0  0  0  0  0  0  0  0
    1.3897    0.8961    0.0000 C   0  0  0  0  0  0  0  0  0  0  0  0
    2.1042    0.4836    0.0000 C   0  0  0  0  0  0  0  0  0  0  0  0
    0.6752   -0.3414    0.0000 C   0  0  0  0  0  0  0  0  0  0  0  0
    1.3897   -0.7539    0.0000 C   0  0  0  0  0  0  0  0  0  0  0  0
    2.1042   -0.3414    0.0000 C   0  0  0  0  0  0  0  0  0  0  0  0
    2.8186   -0.7539    0.0000 C   0  0  0  0  0  0  0  0  0  0  0  0
    2.4061   -1.4684    0.0000 C   0  0  0  0  0  0  0  0  0  0  0  0
    3.2311   -0.0394    0.0000 C   0  0  0  0  0  0  0  0  0  0  0  0
    3.5331   -1.1664    0.0000 C   0  0  0  0  0  0  0  0  0  0  0  0
    4.2476   -0.7539    0.0000 C   0  0  0  0  0  0  0  0  0  0  0  0
    4.9621   -0.3414    0.0000 C   0  0  0  0  0  0  0  0  0  0  0  0
    4.6601   -1.4684    0.0000 C   0  0  0  0  0  0  0  0  0  0  0  0
    3.8351   -0.0394    0.0000 C   0  0  0  0  0  0  0  0  0  0  0  0
  1  2  1  0
  2  3  1  0
  3  4  1  0
  4  5  1  0
  5  6  1  0
  6  7  1  0
  7  8  1  0
  8  9  1  0
  9 10  1  0
 10 11  1  0
 11 12  1  0
 12 13  2  0
 12 15  1  0
 13 14  1  0
 14 17  2  0
 15 16  2  0
 16 17  1  0
 17 18  1  0
 18 19  1  0
 18 20  1  0
 18 21  1  0
 21 22  1  0
 22 23  1  0
 22 24  1  0
 22 25  1  0
M  END
>  <DRUGBANK_ID>  (1) 
DB02080

>  <SECONDARY_ACCESSION_NUMBERS>  (1) 
EXPT03116

>  <COMMON_NAME>  (1) 
1-{2-[2-(2-Methoxyethoxy)Ethoxy]Ethoxy}-4-(1,1,3,3-Tetramethylbutyl)Benzene

$$$$
