
     RDKit          2D

  9  9  0  0  0  0  0  0  0  0999 V2000
    2.0198    0.8843    0.0000 C   0  0  0  0  0  0  0  0  0  0  0  0
    1.2352    0.6294    0.0000 N   0  0  0  0  0  0  0  0  0  0  0  0
    0.9803   -0.1553    0.0000 C   0  0  0  0  0  0  0  0  0  0  0  0
    1.4652   -0.8227    0.0000 O   0  0  0  0  0  0  0  0  0  0  0  0
    0.1553   -0.1553    0.0000 C   0  0  0  0  0  0  0  0  0  0  0  0
   -0.0997    0.6294    0.0000 C   0  0  0  0  0  0  0  0  0  0  0  0
    0.5678    1.1143    0.0000 C   0  0  0  0  0  0  0  0  0  0  0  0
    0.1628    1.8330    0.0000 C   0  0  0  0  0  0  0  0  0  0  0  0
    0.9728    1.8330    0.0000 C   0  0  0  0  0  0  0  0  0  0  0  0
  1  2  1  0
  2  3  1  0
  2  7  1  0
  3  4  2  0
  3  5  1  0
  5  6  1  0
  6  7  1  0
  7  8  1  0
  7  9  1  0
M  END
>  <DRUGBANK_ID>  (1) 
DB03968

>  <SECONDARY_ACCESSION_NUMBERS>  (1) 
EXPT01911

>  <COMMON_NAME>  (1) 
1-Methyl-2-Oxy-5,5-Dimethyl Pyrrolidine

>  <UNII>  (1) 
6BC49782CZ

$$$$
