
     RDKit          2D

 38 40  0  0  0  0  0  0  0  0999 V2000
   -4.5888    3.6020    0.0000 H   0  0  0  0  0  0  0  0  0  0  0  0
   -5.0013    2.8875    0.0000 C   0  0  0  0  0  0  0  0  0  0  0  0
   -5.7158    3.3000    0.0000 H   0  0  0  0  0  0  0  0  0  0  0  0
   -5.4138    2.1730    0.0000 H   0  0  0  0  0  0  0  0  0  0  0  0
   -4.2868    2.4750    0.0000 C   0  0  0  0  0  0  0  0  0  0  0  0
   -3.5724    2.0625    0.0000 C   0  0  0  0  0  0  0  0  0  0  0  0
   -2.8579    2.4750    0.0000 C   0  0  0  0  0  0  0  0  0  0  0  0
   -2.1434    2.0625    0.0000 C   0  0  0  0  0  0  0  0  0  0  0  0
   -2.1434    1.2375    0.0000 C   0  0  0  0  0  0  0  0  0  0  0  0
   -1.4289    0.8250    0.0000 N   0  0  0  0  0  0  0  0  0  0  0  0
   -1.4289    0.0000    0.0000 C   0  0  0  0  0  0  0  0  0  0  0  0
   -2.1434   -0.4125    0.0000 O   0  0  0  0  0  0  0  0  0  0  0  0
   -0.7145   -0.4125    0.0000 C   0  0  0  0  0  0  0  0  0  0  0  0
   -0.7145   -1.2375    0.0000 C   0  0  0  0  0  0  0  0  0  0  0  0
    0.0000   -1.6500    0.0000 N   0  0  0  0  0  0  0  0  0  0  0  0
    0.7145   -1.2375    0.0000 C   0  0  0  0  0  0  0  0  0  0  0  0
    0.7145   -0.4125    0.0000 C   0  0  0  0  0  0  0  0  0  0  0  0
    1.4289   -0.0000    0.0000 C   0  0  0  0  0  0  0  0  0  0  0  0
    2.1434   -0.4125    0.0000 C   0  0  0  0  0  0  0  0  0  0  0  0
    2.1434   -1.2375    0.0000 C   0  0  0  0  0  0  0  0  0  0  0  0
    1.4289   -1.6500    0.0000 C   0  0  0  0  0  0  0  0  0  0  0  0
    0.0000   -0.0000    0.0000 C   0  0  0  0  0  0  0  0  0  0  0  0
    0.0000    0.8250    0.0000 O   0  0  0  0  0  0  0  0  0  0  0  0
   -2.8579    0.8250    0.0000 C   0  0  0  0  0  0  0  0  0  0  0  0
   -3.5724    1.2375    0.0000 C   0  0  0  0  0  0  0  0  0  0  0  0
   -4.2868    0.8250    0.0000 O   0  0  0  0  0  0  0  0  0  0  0  0
   -1.4289    2.4750    0.0000 C   0  0  0  0  0  0  0  0  0  0  0  0
   -0.7145    2.8875    0.0000 C   0  0  0  0  0  0  0  0  0  0  0  0
   -1.0164    1.7605    0.0000 C   0  0  0  0  0  0  0  0  0  0  0  0
   -1.8414    3.1895    0.0000 C   0  0  0  0  0  0  0  0  0  0  0  0
   -4.6993    1.7605    0.0000 C   0  0  0  0  0  0  0  0  0  0  0  0
   -5.3538    1.2583    0.0000 H   0  0  0  0  0  0  0  0  0  0  0  0
   -4.4858    0.9636    0.0000 H   0  0  0  0  0  0  0  0  0  0  0  0
   -3.8814    1.6528    0.0000 H   0  0  0  0  0  0  0  0  0  0  0  0
   -3.8743    3.1895    0.0000 C   0  0  0  0  0  0  0  0  0  0  0  0
   -3.3721    2.5350    0.0000 H   0  0  0  0  0  0  0  0  0  0  0  0
   -3.0774    3.4030    0.0000 H   0  0  0  0  0  0  0  0  0  0  0  0
   -3.7666    4.0074    0.0000 H   0  0  0  0  0  0  0  0  0  0  0  0
  1  2  1  0
  2  3  1  0
  2  4  1  0
  2  5  1  0
  5  6  1  0
  5 31  1  0
  5 35  1  0
  6  7  2  0
  6 25  1  0
  7  8  1  0
  8  9  2  0
  8 27  1  0
  9 10  1  0
  9 24  1  0
 10 11  1  0
 11 12  2  0
 11 13  1  0
 13 14  2  0
 13 22  1  0
 14 15  1  0
 15 16  1  0
 16 17  2  0
 16 21  1  0
 17 18  1  0
 17 22  1  0
 18 19  2  0
 19 20  1  0
 20 21  2  0
 22 23  2  0
 24 25  2  0
 25 26  1  0
 27 28  1  0
 27 29  1  0
 27 30  1  0
 31 32  1  0
 31 33  1  0
 31 34  1  0
 35 36  1  0
 35 37  1  0
 35 38  1  0
M  ISO  8   1   2   3   2   4   2  32   2  33   2  34   2  36   2  37   2
M  ISO  1  38   2
M  END
>  <DRUGBANK_ID>  (1) 
DB15141

>  <COMMON_NAME>  (1) 
Deutivacaftor

>  <CAS_NUMBER>  (1) 
1413431-07-8

>  <UNII>  (1) 
SHA6U5FJZL

>  <SYNONYMS>  (1) 
D9-Ivacaftor; Deutivacaftor

$$$$
