
     RDKit          2D

 12 13  0  0  0  0  0  0  0  0999 V2000
    0.5577    0.9479    0.0000 C   0  0  0  0  0  0  0  0  0  0  0  0
    0.5579    0.1229    0.0000 C   0  0  0  0  0  0  0  0  0  0  0  0
    1.2725   -0.2892    0.0000 C   0  0  0  0  0  0  0  0  0  0  0  0
    1.9869    0.1234    0.0000 C   0  0  0  0  0  0  0  0  0  0  0  0
    1.9866    0.9484    0.0000 C   0  0  0  0  0  0  0  0  0  0  0  0
    1.2720    1.3607    0.0000 C   0  0  0  0  0  0  0  0  0  0  0  0
   -0.1569    1.3602    0.0000 Se  0  0  0  0  0  2  0  0  0  0  0  0
   -0.8712    0.9475    0.0000 N   0  0  0  0  0  0  0  0  0  0  0  0
   -0.8709    0.1225    0.0000 C   0  0  0  0  0  0  0  0  0  0  0  0
   -0.1563   -0.2897    0.0000 C   0  0  0  0  0  0  0  0  0  0  0  0
   -0.1561   -1.1147    0.0000 C   0  0  0  0  0  0  0  0  0  0  0  0
   -0.1566    0.5352    0.0000 C   0  0  0  0  0  0  0  0  0  0  0  0
  1  2  1  0
  1  6  2  0
  1  7  1  0
  2  3  2  0
  2 10  1  0
  3  4  1  0
  4  5  2  0
  5  6  1  0
  7  8  1  0
  8  9  1  0
  9 10  1  0
 10 11  1  0
 10 12  1  0
M  END
>  <DRUGBANK_ID>  (1) 
DB05631

>  <COMMON_NAME>  (1) 
ALT-2074

>  <CAS_NUMBER>  (1) 
173026-17-0

>  <UNII>  (1) 
634U7OUR4R

$$$$
