
     RDKit          2D

 41 45  0  0  0  0  0  0  0  0999 V2000
   -5.6985    3.9038    0.0000 C   0  0  0  0  0  0  0  0  0  0  0  0
   -4.8781    3.9900    0.0000 N   0  0  0  0  0  0  0  0  0  0  0  0
   -4.4656    4.7045    0.0000 N   0  0  0  0  0  0  0  0  0  0  0  0
   -3.6586    4.5330    0.0000 C   0  0  0  0  0  0  0  0  0  0  0  0
   -3.0455    5.0850    0.0000 O   0  0  0  0  0  0  0  0  0  0  0  0
   -3.5724    3.7125    0.0000 C   0  0  0  0  0  0  0  0  0  0  0  0
   -2.8579    3.3000    0.0000 C   0  0  0  0  0  0  0  0  0  0  0  0
   -2.1434    3.7125    0.0000 O   0  0  0  0  0  0  0  0  0  0  0  0
   -2.8579    2.4750    0.0000 N   0  0  0  0  0  0  0  0  0  0  0  0
   -2.1434    2.0625    0.0000 C   0  0  0  0  0  0  0  0  0  0  0  0
   -1.4289    2.4750    0.0000 C   0  0  0  0  0  0  0  0  0  0  0  0
   -0.7145    2.0625    0.0000 C   0  0  0  0  0  0  0  0  0  0  0  0
    0.0000    2.4750    0.0000 F   0  0  0  0  0  0  0  0  0  0  0  0
   -0.7145    1.2375    0.0000 C   0  0  0  0  0  0  0  0  0  0  0  0
    0.0000    0.8250    0.0000 O   0  0  0  0  0  0  0  0  0  0  0  0
    0.0000   -0.0000    0.0000 C   0  0  0  0  0  0  0  0  0  0  0  0
   -0.7145   -0.4125    0.0000 C   0  0  0  0  0  0  0  0  0  0  0  0
   -0.7145   -1.2375    0.0000 C   0  0  0  0  0  0  0  0  0  0  0  0
    0.0000   -1.6500    0.0000 N   0  0  0  0  0  0  0  0  0  0  0  0
    0.7145   -1.2375    0.0000 C   0  0  0  0  0  0  0  0  0  0  0  0
    0.7145   -0.4125    0.0000 C   0  0  0  0  0  0  0  0  0  0  0  0
    1.4289   -0.0000    0.0000 C   0  0  0  0  0  0  0  0  0  0  0  0
    2.1434   -0.4125    0.0000 C   0  0  0  0  0  0  0  0  0  0  0  0
    2.1434   -1.2375    0.0000 C   0  0  0  0  0  0  0  0  0  0  0  0
    2.8579   -1.6500    0.0000 O   0  0  0  0  0  0  0  0  0  0  0  0
    2.8579   -2.4750    0.0000 C   0  0  0  0  0  0  0  0  0  0  0  0
    3.5724   -2.8875    0.0000 C   0  0  0  0  0  0  0  0  0  0  0  0
    4.2868   -3.3000    0.0000 C   0  0  0  0  0  0  0  0  0  0  0  0
    3.9849   -2.1730    0.0000 C   0  0  0  0  0  0  0  0  0  0  0  0
    3.1599   -3.6020    0.0000 O   0  0  0  0  0  0  0  0  0  0  0  0
    1.4289   -1.6500    0.0000 C   0  0  0  0  0  0  0  0  0  0  0  0
   -1.4289    0.8250    0.0000 C   0  0  0  0  0  0  0  0  0  0  0  0
   -2.1434    1.2375    0.0000 C   0  0  0  0  0  0  0  0  0  0  0  0
   -4.3260    3.3769    0.0000 C   0  0  0  0  0  0  0  0  0  0  0  0
   -4.4976    2.5700    0.0000 C   0  0  0  0  0  0  0  0  0  0  0  0
   -4.8011    5.4582    0.0000 C   0  0  0  0  0  0  0  0  0  0  0  0
   -5.6216    5.5444    0.0000 C   0  0  0  0  0  0  0  0  0  0  0  0
   -5.9572    6.2981    0.0000 C   0  0  0  0  0  0  0  0  0  0  0  0
   -5.4722    6.9655    0.0000 C   0  0  0  0  0  0  0  0  0  0  0  0
   -4.6518    6.8793    0.0000 C   0  0  0  0  0  0  0  0  0  0  0  0
   -4.3162    6.1256    0.0000 C   0  0  0  0  0  0  0  0  0  0  0  0
  1  2  1  0
  2  3  1  0
  2 34  1  0
  3  4  1  0
  3 36  1  0
  4  5  2  0
  4  6  1  0
  6  7  1  0
  6 34  2  0
  7  8  2  0
  7  9  1  0
  9 10  1  0
 10 11  2  0
 10 33  1  0
 11 12  1  0
 12 13  1  0
 12 14  2  0
 14 15  1  0
 14 32  1  0
 15 16  1  0
 16 17  2  0
 16 21  1  0
 17 18  1  0
 18 19  2  0
 19 20  1  0
 20 21  2  0
 20 31  1  0
 21 22  1  0
 22 23  2  0
 23 24  1  0
 24 25  1  0
 24 31  2  0
 25 26  1  0
 26 27  1  0
 27 28  1  0
 27 29  1  0
 27 30  1  0
 32 33  2  0
 34 35  1  0
 36 37  2  0
 36 41  1  0
 37 38  1  0
 38 39  2  0
 39 40  1  0
 40 41  2  0
M  END
>  <DRUGBANK_ID>  (1) 
DB16256

>  <COMMON_NAME>  (1) 
Ningetinib

>  <CAS_NUMBER>  (1) 
1394820-69-9

>  <UNII>  (1) 
PW3Q92Z6A4

>  <SYNONYMS>  (1) 
Ct-053 free base; Ct-053-ptsa free base; Ct053ptsa free base

$$$$
