
     RDKit          2D

 14 15  0  0  1  0  0  0  0  0999 V2000
    3.2917    0.0470    0.0000 C   0  0  0  0  0  0  0  0  0  0  0  0
   -0.2549   -2.1195    0.0000 C   0  0  0  0  0  0  0  0  0  0  0  0
   -0.0000   -1.3349    0.0000 C   0  0  0  0  0  0  0  0  0  0  0  0
    0.7846   -0.2549    0.0000 C   0  0  0  0  0  0  0  0  0  0  0  0
   -0.4849   -0.6674    0.0000 C   0  0  0  0  0  0  0  0  0  0  0  0
    0.0000    0.0000    0.0000 C   0  0  0  0  0  0  0  0  0  0  0  0
    0.7846   -1.0799    0.0000 C   0  0  0  0  0  0  0  0  0  0  0  0
    2.0542   -0.6674    0.0000 C   0  0  0  0  0  0  0  0  0  0  0  0
    2.8792   -0.6674    0.0000 N   0  0  0  0  0  0  0  0  0  0  0  0
    1.5692   -0.0000    0.0000 N   0  0  0  0  0  0  0  0  0  0  0  0
    0.2971   -2.7326    0.0000 O   0  0  0  0  0  0  0  0  0  0  0  0
   -1.3099   -0.6674    0.0000 O   0  0  0  0  0  0  0  0  0  0  0  0
   -0.2549    0.7846    0.0000 O   0  0  0  0  0  0  0  0  0  0  0  0
    1.5692   -1.3349    0.0000 O   0  0  0  0  0  0  0  0  0  0  0  0
  3  2  1  6
  5  3  1  0
  5 12  1  1
  6  4  1  0
  6  5  1  0
  6 13  1  6
  7  3  1  0
  7  4  1  0
  9  1  2  0
  9  8  1  0
  4 10  1  1
 10  8  2  0
 11  2  1  0
  7 14  1  1
 14  8  1  0
M  END
>  <DRUGBANK_ID>  (1) 
DB03539

>  <SECONDARY_ACCESSION_NUMBERS>  (1) 
EXPT02280

>  <COMMON_NAME>  (1) 
2-(Acetylamino)-2-Deoxy-6-O-Methyl-Alpha-D-Allopyranose

$$$$
