4FP
     RDKit          2D

 14 15  0  0  0  0  0  0  0  0999 V2000
   -0.6502    2.5966    0.0000 F   0  0  0  0  0  0  0  0  0  0  0  0
   -0.6502    1.7716    0.0000 C   0  0  0  0  0  0  0  0  0  0  0  0
    0.0643    1.3591    0.0000 C   0  0  0  0  0  0  0  0  0  0  0  0
    0.0643    0.5341    0.0000 C   0  0  0  0  0  0  0  0  0  0  0  0
   -0.6502    0.1216    0.0000 C   0  0  0  0  0  0  0  0  0  0  0  0
   -0.6502   -0.7034    0.0000 C   0  0  0  0  0  0  0  0  0  0  0  0
    0.0643   -1.1159    0.0000 C   0  0  0  0  0  0  0  0  0  0  0  0
    0.0643   -1.9409    0.0000 C   0  0  0  0  0  0  0  0  0  0  0  0
    0.7787   -2.3534    0.0000 C   0  0  0  0  0  0  0  0  0  0  0  0
    1.4932   -1.9409    0.0000 N   0  0  0  0  0  0  0  0  0  0  0  0
    1.4932   -1.1159    0.0000 C   0  0  0  0  0  0  0  0  0  0  0  0
    0.7787   -0.7034    0.0000 C   0  0  0  0  0  0  0  0  0  0  0  0
   -1.3647    0.5341    0.0000 C   0  0  0  0  0  0  0  0  0  0  0  0
   -1.3647    1.3591    0.0000 C   0  0  0  0  0  0  0  0  0  0  0  0
  1  2  1  0
  2  3  2  0
  2 14  1  0
  3  4  1  0
  4  5  2  0
  5  6  1  0
  5 13  1  0
  6  7  1  0
  7 12  1  0
  7  8  1  0
  8  9  1  0
  9 10  1  0
 10 11  1  0
 11 12  1  0
 13 14  2  0
M  END
>  <DRUGBANK_ID>  (1) 
DB07110

>  <COMMON_NAME>  (1) 
4-(4-FLUOROBENZYL)PIPERIDINE

$$$$
