
     RDKit          2D

 23 26  0  0  0  0  0  0  0  0999 V2000
   -0.6346    0.3876    0.0000 N   0  0  0  0  0  0  0  0  0  0  0  0
   -1.4192    0.1327    0.0000 C   0  0  0  0  0  0  0  0  0  0  0  0
   -0.1497   -0.2797    0.0000 C   0  0  0  0  0  0  0  0  0  0  0  0
   -0.3796    1.1722    0.0000 C   0  0  0  0  0  0  0  0  0  0  0  0
   -1.4192   -0.6922    0.0000 C   0  0  0  0  0  0  0  0  0  0  0  0
   -2.1337    0.5452    0.0000 C   0  0  0  0  0  0  0  0  0  0  0  0
   -0.6346   -0.9471    0.0000 N   0  0  0  0  0  0  0  0  0  0  0  0
    0.6752   -0.2797    0.0000 C   0  0  0  0  0  0  0  0  0  0  0  0
    0.4272    1.3438    0.0000 C   0  0  0  0  0  0  0  0  0  0  0  0
   -2.1337   -1.1047    0.0000 C   0  0  0  0  0  0  0  0  0  0  0  0
   -2.8481    0.1327    0.0000 C   0  0  0  0  0  0  0  0  0  0  0  0
    1.0877   -0.9942    0.0000 N   0  0  0  0  0  0  0  0  0  0  0  0
    0.6822    2.1284    0.0000 C   0  0  0  0  0  0  0  0  0  0  0  0
    0.9792    0.7306    0.0000 C   0  0  0  0  0  0  0  0  0  0  0  0
   -2.8481   -0.6922    0.0000 C   0  0  0  0  0  0  0  0  0  0  0  0
    1.9082   -1.0804    0.0000 C   0  0  0  0  0  0  0  0  0  0  0  0
    0.7522   -1.7479    0.0000 C   0  0  0  0  0  0  0  0  0  0  0  0
    1.4892    2.2999    0.0000 C   0  0  0  0  0  0  0  0  0  0  0  0
    1.7862    0.9022    0.0000 C   0  0  0  0  0  0  0  0  0  0  0  0
    2.0797   -1.8874    0.0000 C   0  0  0  0  0  0  0  0  0  0  0  0
    1.3652   -2.2999    0.0000 C   0  0  0  0  0  0  0  0  0  0  0  0
    2.0412    1.6868    0.0000 C   0  0  0  0  0  0  0  0  0  0  0  0
    2.8481    1.8583    0.0000 Cl  0  0  0  0  0  0  0  0  0  0  0  0
  1  2  1  0
  1  3  1  0
  1  4  1  0
  2  5  1  0
  2  6  2  0
  3  7  2  0
  3  8  1  0
  4  9  1  0
  5 10  2  0
  5  7  1  0
  6 11  1  0
  8 12  1  0
  9 13  2  0
  9 14  1  0
 10 15  1  0
 11 15  2  0
 12 16  1  0
 12 17  1  0
 13 18  1  0
 14 19  2  0
 16 20  1  0
 17 21  1  0
 18 22  2  0
 19 22  1  0
 20 21  1  0
 22 23  1  0
M  END
>  <DRUGBANK_ID>  (1) 
DB15932

>  <COMMON_NAME>  (1) 
Clemizole

>  <CAS_NUMBER>  (1) 
442-52-4

>  <UNII>  (1) 
T97CB3796L

>  <SYNONYMS>  (1) 
Clemizol; Clemizole; Clemizolo; Clemizolum

$$$$
