
     RDKit          2D

 27 29  0  0  0  0  0  0  0  0999 V2000
   -4.5408    1.6455    0.0000 O   0  0  0  0  0  0  0  0  0  0  0  0
   -5.3478    1.8170    0.0000 N   0  0  0  0  0  0  0  0  0  0  0  0
   -5.7603    1.1025    0.0000 C   0  0  0  0  0  0  0  0  0  0  0  0
   -6.5808    1.0163    0.0000 C   0  0  0  0  0  0  0  0  0  0  0  0
   -5.2083    0.4894    0.0000 C   0  0  0  0  0  0  0  0  0  0  0  0
   -4.4546    0.8250    0.0000 C   0  0  0  0  0  0  0  0  0  0  0  0
   -3.7401    0.4125    0.0000 C   0  0  0  0  0  0  0  0  0  0  0  0
   -3.0257    0.8250    0.0000 C   0  0  0  0  0  0  0  0  0  0  0  0
   -2.3112    0.4125    0.0000 C   0  0  0  0  0  0  0  0  0  0  0  0
   -1.5967    0.8250    0.0000 C   0  0  0  0  0  0  0  0  0  0  0  0
   -0.8823    0.4125    0.0000 C   0  0  0  0  0  0  0  0  0  0  0  0
   -0.1678    0.8250    0.0000 C   0  0  0  0  0  0  0  0  0  0  0  0
    0.5466    0.4125    0.0000 C   0  0  0  0  0  0  0  0  0  0  0  0
    1.2611    0.8250    0.0000 O   0  0  0  0  0  0  0  0  0  0  0  0
    1.9755    0.4125    0.0000 C   0  0  0  0  0  0  0  0  0  0  0  0
    2.6900    0.8250    0.0000 C   0  0  0  0  0  0  0  0  0  0  0  0
    3.4045    0.4125    0.0000 C   0  0  0  0  0  0  0  0  0  0  0  0
    3.4045   -0.4124    0.0000 C   0  0  0  0  0  0  0  0  0  0  0  0
    2.6900   -0.8250    0.0000 C   0  0  0  0  0  0  0  0  0  0  0  0
    1.9755   -0.4124    0.0000 C   0  0  0  0  0  0  0  0  0  0  0  0
    4.1189   -0.8250    0.0000 C   0  0  0  0  0  0  0  0  0  0  0  0
    4.8726   -0.4894    0.0000 N   0  0  0  0  0  0  0  0  0  0  0  0
    5.4246   -1.1025    0.0000 C   0  0  0  0  0  0  0  0  0  0  0  0
    6.2451   -1.0162    0.0000 C   0  0  0  0  0  0  0  0  0  0  0  0
    6.5807   -0.2627    0.0000 C   0  0  0  0  0  0  0  0  0  0  0  0
    5.0121   -1.8170    0.0000 C   0  0  0  0  0  0  0  0  0  0  0  0
    4.2052   -1.6455    0.0000 O   0  0  0  0  0  0  0  0  0  0  0  0
  2  1  1  0
  3  2  2  0
  3  4  1  0
  3  5  1  0
  5  6  2  0
  6  1  1  0
  7  6  1  0
  7  8  1  0
  8  9  1  0
  9 10  1  0
 10 11  1  0
 11 12  1  0
 12 13  1  0
 13 14  1  0
 15 14  1  0
 15 16  2  0
 15 20  1  0
 16 17  1  0
 17 18  2  0
 18 19  1  0
 19 20  2  0
 21 18  1  0
 21 22  2  0
 21 27  1  0
 23 22  1  0
 23 24  1  1
 23 26  1  0
 24 25  1  0
 26 27  1  0
M  END
>  <DRUGBANK_ID>  (1) 
DB08725

>  <COMMON_NAME>  (1) 
(S)-5-(7-(4-(4-Ethyl-4,5-dihydro-2-oxazolyl)phenoxy)heptyl)-3-methylisoxazole

>  <CAS_NUMBER>  (1) 
112270-39-0

$$$$
