
     RDKit          2D

 27 30  0  0  1  0  0  0  0  0999 V2000
    3.0683   -2.4895    0.0000 C   0  0  0  0  0  0  0  0  0  0  0  0
    2.8390   -1.6970    0.0000 C   0  0  0  0  0  0  0  0  0  0  0  0
    3.5218   -1.2340    0.0000 C   0  0  0  0  0  0  0  0  0  0  0  0
    4.1731   -1.7404    0.0000 C   0  0  0  0  0  0  0  0  0  0  0  0
    4.9853   -1.5952    0.0000 C   0  0  0  0  0  0  0  0  0  0  0  0
    5.2655   -0.8192    0.0000 C   0  0  0  0  0  0  0  0  0  0  0  0
    4.7337   -0.1885    0.0000 O   0  0  0  0  0  0  0  0  0  0  0  0
    6.0777   -0.6740    0.0000 C   0  0  0  0  0  0  0  0  0  0  0  0
    6.6095   -1.3047    0.0000 C   0  0  0  0  0  0  0  0  0  0  0  0
    7.4216   -1.1595    0.0000 C   0  0  0  0  0  0  0  0  0  0  0  0
    7.9534   -1.7902    0.0000 C   0  0  0  0  0  0  0  0  0  0  0  0
    8.7655   -1.6450    0.0000 O   0  0  0  0  0  0  0  0  0  0  0  0
    7.6731   -2.5662    0.0000 C   0  0  0  0  0  0  0  0  0  0  0  0
    6.8610   -2.7114    0.0000 C   0  0  0  0  0  0  0  0  0  0  0  0
    6.3292   -2.0807    0.0000 C   0  0  0  0  0  0  0  0  0  0  0  0
    6.0489   -2.8566    0.0000 C   0  0  0  0  0  0  0  0  0  0  0  0
    5.5171   -2.2259    0.0000 C   0  0  0  0  0  0  0  0  0  0  0  0
    5.2368   -3.0018    0.0000 C   0  0  0  0  0  0  0  0  0  0  0  0
    4.4247   -3.1470    0.0000 C   0  0  0  0  0  0  0  0  0  0  0  0
    3.8928   -2.5163    0.0000 C   0  0  0  0  0  0  0  0  0  0  0  0
    3.5330   -3.2587    0.0000 C   0  0  0  0  0  0  0  0  0  0  0  0
    2.5619   -3.1408    0.0000 C   0  0  0  0  0  0  0  0  0  0  0  0
    1.7447   -3.0280    0.0000 C   0  0  0  0  0  0  0  0  0  0  0  0
    2.8728   -3.9050    0.0000 C   0  0  0  0  0  0  0  0  0  0  0  0
    2.3665   -4.5563    0.0000 C   0  0  0  0  0  0  0  0  0  0  0  0
    2.6773   -5.3205    0.0000 O   0  0  0  0  0  0  0  0  0  0  0  0
    1.5492   -4.4435    0.0000 O   0  0  0  0  0  0  0  0  0  0  0  0
  1  2  1  1
  1 22  1  0
  2  3  1  0
  4  3  1  1
  4 20  1  0
  5  4  1  0
  5  6  1  6
  5 17  1  0
  6  7  1  1
  6  8  1  0
  9  8  1  6
  9 10  1  0
 11 10  1  0
 11 12  1  6
 11 13  1  0
 13 14  1  0
 15 14  1  0
 15  9  1  0
 15 16  1  1
 17 15  1  0
 17 18  1  1
 18 19  1  0
 20 19  1  0
 20  1  1  0
 20 21  1  1
 22 23  1  1
 22 24  1  0
 24 25  1  0
 25 26  1  0
 25 27  2  0
M  END
>  <DRUGBANK_ID>  (1) 
DB16260

>  <COMMON_NAME>  (1) 
norUrsodeoxycholic acid

>  <CAS_NUMBER>  (1) 
99697-24-2

>  <UNII>  (1) 
8A5G600D9V

>  <SYNONYMS>  (1) 
24-norursodeoxycholic acid; Nor-ursodeoxycholic acid; Norucholic acid; NorUrsodeoxycholic Acid

$$$$
