
     RDKit          2D

 35 38  0  0  0  0  0  0  0  0999 V2000
    1.7076    6.6464    0.0000 C   0  0  0  0  0  0  0  0  0  0  0  0
    2.0656    5.9031    0.0000 N   0  0  0  0  0  0  0  0  0  0  0  0
    2.8906    5.9031    0.0000 C   0  0  0  0  0  0  0  0  0  0  0  0
    3.4050    5.2581    0.0000 C   0  0  0  0  0  0  0  0  0  0  0  0
    3.2214    4.4538    0.0000 C   0  0  0  0  0  0  0  0  0  0  0  0
    2.4781    4.0958    0.0000 N   0  0  0  0  0  0  0  0  0  0  0  0
    1.7348    4.4538    0.0000 C   0  0  0  0  0  0  0  0  0  0  0  0
    1.5512    5.2581    0.0000 C   0  0  0  0  0  0  0  0  0  0  0  0
    2.4781    3.2708    0.0000 C   0  0  0  0  0  0  0  0  0  0  0  0
    3.1926    2.8583    0.0000 C   0  0  0  0  0  0  0  0  0  0  0  0
    3.1926    2.0333    0.0000 C   0  0  0  0  0  0  0  0  0  0  0  0
    2.4781    1.6208    0.0000 C   0  0  0  0  0  0  0  0  0  0  0  0
    1.7636    2.0333    0.0000 C   0  0  0  0  0  0  0  0  0  0  0  0
    1.7636    2.8583    0.0000 C   0  0  0  0  0  0  0  0  0  0  0  0
    2.4781    0.7958    0.0000 C   0  0  0  0  0  0  0  0  0  0  0  0
    1.7636    0.3833    0.0000 O   0  0  0  0  0  0  0  0  0  0  0  0
    3.1926    0.3833    0.0000 N   0  0  0  0  0  0  0  0  0  0  0  0
    3.1926   -0.4417    0.0000 C   0  0  0  0  0  0  0  0  0  0  0  0
    3.9070   -0.8542    0.0000 C   0  0  0  0  0  0  0  0  0  0  0  0
    3.9070   -1.6792    0.0000 C   0  0  0  0  0  0  0  0  0  0  0  0
    3.1926   -2.0917    0.0000 C   0  0  0  0  0  0  0  0  0  0  0  0
    2.4781   -1.6792    0.0000 C   0  0  0  0  0  0  0  0  0  0  0  0
    2.4781   -0.8542    0.0000 C   0  0  0  0  0  0  0  0  0  0  0  0
    1.7636   -0.4417    0.0000 O   0  0  0  0  0  0  0  0  0  0  0  0
    4.6215   -0.4417    0.0000 N   0  0  0  0  0  0  0  0  0  0  0  0
    4.6215    0.3833    0.0000 C   0  0  0  0  0  0  0  0  0  0  0  0
    3.9070    0.7958    0.0000 O   0  0  0  0  0  0  0  0  0  0  0  0
    5.3360    0.7958    0.0000 C   0  0  0  0  0  0  0  0  0  0  0  0
    5.3360    1.6208    0.0000 C   0  0  0  0  0  0  0  0  0  0  0  0
    6.0504    2.0333    0.0000 C   0  0  0  0  0  0  0  0  0  0  0  0
    6.7649    1.6208    0.0000 C   0  0  0  0  0  0  0  0  0  0  0  0
    6.7649    0.7958    0.0000 C   0  0  0  0  0  0  0  0  0  0  0  0
    6.0504    0.3833    0.0000 C   0  0  0  0  0  0  0  0  0  0  0  0
    7.4794    2.0333    0.0000 O   0  0  0  0  0  0  0  0  0  0  0  0
    8.1939    1.6208    0.0000 C   0  0  0  0  0  0  0  0  0  0  0  0
  1  2  1  0
  2  3  1  0
  2  8  1  0
  3  4  1  0
  4  5  1  0
  5  6  1  0
  6  7  1  0
  6  9  1  0
  7  8  1  0
  9 10  2  0
  9 14  1  0
 10 11  1  0
 11 12  2  0
 12 13  1  0
 12 15  1  0
 13 14  2  0
 15 16  2  0
 15 17  1  0
 17 18  1  0
 18 19  1  0
 18 23  2  0
 19 20  2  0
 19 25  1  0
 20 21  1  0
 21 22  2  0
 22 23  1  0
 23 24  1  0
 25 26  1  0
 26 27  2  0
 26 28  1  0
 28 29  2  0
 28 33  1  0
 29 30  1  0
 30 31  2  0
 31 32  1  0
 31 34  1  0
 32 33  2  0
 34 35  1  0
M  END
>  <DRUGBANK_ID>  (1) 
DB12289

>  <COMMON_NAME>  (1) 
Darexaban

>  <CAS_NUMBER>  (1) 
365462-23-3

>  <UNII>  (1) 
KF322K101S

>  <SYNONYMS>  (1) 
Darexaban

$$$$
