
     RDKit          2D

  7  5  0  0  0  0  0  0  0  0999 V2000
    0.4125    2.1434    0.0000 Na  0  0  0  0  0 15  0  0  0  0  0  0
    0.8250    1.4289    0.0000 O   0  0  0  0  0  0  0  0  0  0  0  0
    1.2375    0.7145    0.0000 C   0  0  0  0  0  0  0  0  0  0  0  0
    2.0625    0.7145    0.0000 O   0  0  0  0  0  0  0  0  0  0  0  0
    0.8250    0.0000    0.0000 C   0  0  0  0  0  0  0  0  0  0  0  0
    1.2375   -0.7145    0.0000 Cl  0  0  0  0  0  0  0  0  0  0  0  0
    0.0000    0.0000    0.0000 Cl  0  0  0  0  0  0  0  0  0  0  0  0
  2  3  1  0
  3  4  2  0
  3  5  1  0
  5  6  1  0
  5  7  1  0
M  CHG  2   1   1   2  -1
M  END
>  <DRUGBANK_ID>  (1) 
DB16929

>  <COMMON_NAME>  (1) 
Sodium dichloroacetate

>  <CAS_NUMBER>  (1) 
2156-56-1

>  <UNII>  (1) 
42932X67B5

>  <SYNONYMS>  (1) 
Ceresine; Cmi x-11s; Dca sodium; Dichloroacetate sodium

$$$$
