
     RDKit          2D

  5  4  0  0  0  0  0  0  0  0999 V2000
   -1.0721    0.2068    0.0000 Br  0  0  0  0  0  0  0  0  0  0  0  0
    1.0721    0.6182    0.0000 O   0  0  0  0  0  0  0  0  0  0  0  0
    0.3582    0.2068    0.0000 C   0  0  0  0  0  0  0  0  0  0  0  0
   -0.3582    0.6182    0.0000 C   0  0  0  0  0  0  0  0  0  0  0  0
    0.3582   -0.6182    0.0000 C   0  0  0  0  0  0  0  0  0  0  0  0
  1  4  1  0
  3  2  1  0
  3  4  1  0
  3  5  1  1
M  END
>  <DRUGBANK_ID>  (1) 
DB03335

>  <SECONDARY_ACCESSION_NUMBERS>  (1) 
EXPT00069

>  <COMMON_NAME>  (1) 
(+)-1-bromo-2-propanol

>  <CAS_NUMBER>  (1) 
16088-60-1

>  <UNII>  (1) 
S33341KT5O

>  <SYNONYMS>  (1) 
(S)-(+)-1-Bromo-2-propanol

$$$$
