TBL
     RDKit          2D

 17 17  0  0  0  0  0  0  0  0999 V2000
   -0.2088   -0.9116    0.0000 O   0  0  0  0  0  0  0  0  0  0  0  0
    0.2037   -0.1972    0.0000 S   0  0  0  0  0  0  0  0  0  0  0  0
    0.6162    0.5173    0.0000 O   0  0  0  0  0  0  0  0  0  0  0  0
    0.9181   -0.6097    0.0000 N   0  0  0  0  0  0  0  0  0  0  0  0
    1.6326   -0.1972    0.0000 C   0  0  0  0  0  0  0  0  0  0  0  0
    1.6326    0.6278    0.0000 C   0  0  0  0  0  0  0  0  0  0  0  0
    2.3471   -0.6097    0.0000 C   0  0  0  0  0  0  0  0  0  0  0  0
    3.0616   -0.1972    0.0000 O   0  0  0  0  0  0  0  0  0  0  0  0
    2.3471   -1.4347    0.0000 O   0  0  0  0  0  0  0  0  0  0  0  0
   -0.5108    0.2153    0.0000 C   0  0  0  0  0  0  0  0  0  0  0  0
   -1.2253   -0.1972    0.0000 C   0  0  0  0  0  0  0  0  0  0  0  0
   -1.9397    0.2153    0.0000 C   0  0  0  0  0  0  0  0  0  0  0  0
   -1.9397    1.0403    0.0000 C   0  0  0  0  0  0  0  0  0  0  0  0
   -1.2253    1.4528    0.0000 C   0  0  0  0  0  0  0  0  0  0  0  0
   -0.5108    1.0403    0.0000 C   0  0  0  0  0  0  0  0  0  0  0  0
   -2.6542    1.4528    0.0000 O   0  0  0  0  0  0  0  0  0  0  0  0
   -3.3687    1.0403    0.0000 C   0  0  0  0  0  0  0  0  0  0  0  0
  2  1  2  0
  2  4  1  0
  3  2  2  0
  5  4  1  0
  5  6  1  6
  7  5  1  0
  7  9  1  0
  8  7  2  0
 10  2  1  0
 10 11  2  0
 12 11  1  0
 13 12  2  0
 14 13  1  0
 14 15  2  0
 15 10  1  0
 16 13  1  0
 17 16  1  0
M  END
>  <DRUGBANK_ID>  (1) 
DB08599

>  <COMMON_NAME>  (1) 
N-[(4-methoxyphenyl)sulfonyl]-D-alanine

$$$$
