
     RDKit          2D

 43 48  0  0  0  0  0  0  0  0999 V2000
    1.1052    0.6898    0.0000 C   0  0  0  0  0  0  0  0  0  0  0  0
   -1.0469   -0.5344    0.0000 C   0  0  0  0  0  0  0  0  0  0  0  0
    1.0955   -0.1263    0.0000 C   0  0  0  0  0  0  0  0  0  0  0  0
    1.8923    0.9376    0.0000 C   0  0  0  0  0  0  0  0  0  0  0  0
    2.3636    0.2671    0.0000 C   0  0  0  0  0  0  0  0  0  0  0  0
   -0.3327   -0.1214    0.0000 C   0  0  0  0  0  0  0  0  0  0  0  0
    0.3814   -0.5344    0.0000 C   0  0  0  0  0  0  0  0  0  0  0  0
    3.1944    0.2575    0.0000 N   0  0  0  0  0  0  0  0  0  0  0  0
   -2.4753   -0.5344    0.0000 C   0  0  0  0  0  0  0  0  0  0  0  0
   -2.4753   -1.3603    0.0000 C   0  0  0  0  0  0  0  0  0  0  0  0
    1.8777   -0.3983    0.0000 C   0  0  0  0  0  0  0  0  0  0  0  0
   -1.7611   -0.1214    0.0000 C   0  0  0  0  0  0  0  0  0  0  0  0
   -1.0469   -1.3603    0.0000 C   0  0  0  0  0  0  0  0  0  0  0  0
   -3.1895   -0.1214    0.0000 N   0  0  0  0  0  0  0  0  0  0  0  0
    0.3910    1.1125    0.0000 C   0  0  0  0  0  0  0  0  0  0  0  0
    1.8826    1.7684    0.0000 O   0  0  0  0  0  0  0  0  0  0  0  0
   -1.7611   -1.7733    0.0000 C   0  0  0  0  0  0  0  0  0  0  0  0
   -0.3327    0.7044    0.0000 C   0  0  0  0  0  0  0  0  0  0  0  0
   -3.1895   -1.7684    0.0000 O   0  0  0  0  0  0  0  0  0  0  0  0
    0.3765   -1.3652    0.0000 C   0  0  0  0  0  0  0  0  0  0  0  0
    2.5968    2.1911    0.0000 C   0  0  0  0  0  0  0  0  0  0  0  0
   -3.1895   -2.5895    0.0000 C   0  0  0  0  0  0  0  0  0  0  0  0
   -0.3376   -1.7733    0.0000 C   0  0  0  0  0  0  0  0  0  0  0  0
   -2.4753   -3.0122    0.0000 O   0  0  0  0  0  0  0  0  0  0  0  0
    2.5919    3.0122    0.0000 O   0  0  0  0  0  0  0  0  0  0  0  0
    2.4656   -0.9716    0.0000 C   0  0  0  0  0  0  0  0  0  0  0  0
    3.1895   -0.5635    0.0000 C   0  0  0  0  0  0  0  0  0  0  0  0
    2.4656   -1.8024    0.0000 C   0  0  0  0  0  0  0  0  0  0  0  0
    1.0955    1.5206    0.0000 C   0  0  0  0  0  0  0  0  0  0  0  0
   -1.0518    0.2963    0.0000 C   0  0  0  0  0  0  0  0  0  0  0  0
    3.1944    1.0833    0.0000 C   0  0  0  0  0  0  0  0  0  0  0  0
    3.9036   -0.1554    0.0000 C   0  0  0  0  0  0  0  0  0  0  0  0
   -3.1895    0.7093    0.0000 C   0  0  0  0  0  0  0  0  0  0  0  0
   -3.9036   -0.5344    0.0000 C   0  0  0  0  0  0  0  0  0  0  0  0
    3.3110    1.7830    0.0000 C   0  0  0  0  0  0  0  0  0  0  0  0
   -3.9036   -3.0073    0.0000 C   0  0  0  0  0  0  0  0  0  0  0  0
    4.6178    0.2575    0.0000 C   0  0  0  0  0  0  0  0  0  0  0  0
    3.9036    1.4963    0.0000 C   0  0  0  0  0  0  0  0  0  0  0  0
    4.0251    2.1960    0.0000 C   0  0  0  0  0  0  0  0  0  0  0  0
   -3.8940    1.1174    0.0000 C   0  0  0  0  0  0  0  0  0  0  0  0
   -4.6178   -0.1117    0.0000 C   0  0  0  0  0  0  0  0  0  0  0  0
   -4.6178    0.7093    0.0000 C   0  0  0  0  0  0  0  0  0  0  0  0
    4.6178    1.0833    0.0000 C   0  0  0  0  0  0  0  0  0  0  0  0
  1 29  1  1
  2  6  1  0
  2 30  1  1
  3  1  1  0
  4  1  1  0
  4 16  1  1
  5  4  1  0
  5  8  1  1
  5 11  1  0
  6 18  1  1
  6  7  1  0
  7  3  1  0
  9 12  1  0
  9 14  1  1
 10 17  1  0
 10 19  1  6
 10  9  1  0
  3 11  1  1
 12  2  1  0
 13  2  1  0
 15  1  1  0
 13 17  1  1
 18 15  1  0
  7 20  1  6
 21 16  1  0
 22 19  1  0
 23 20  1  0
 23 13  1  0
 24 22  2  0
 25 21  2  0
 26 27  1  0
 27  8  1  0
 28 26  2  0
 31  8  1  0
 32  8  1  0
 33 14  1  0
 34 14  1  0
 35 21  1  0
 36 22  1  0
 37 32  1  0
 38 31  1  0
 39 35  1  0
 40 33  1  0
 41 34  1  0
 42 40  1  0
 42 41  1  0
 43 38  1  0
 43 37  1  0
M  CHG  1   8   1
M  END
>  <DRUGBANK_ID>  (1) 
DB04834

>  <COMMON_NAME>  (1) 
Rapacuronium

>  <CAS_NUMBER>  (1) 
465499-11-0

>  <UNII>  (1) 
GG1LBM463S

$$$$
