FE1
     RDKit          2D

 33 36  0  0  0  0  0  0  0  0999 V2000
   -1.9470   -2.1943    0.0000 O   0  0  0  0  0  0  0  0  0  0  0  0
   -1.9470   -1.3693    0.0000 C   0  0  0  0  0  0  0  0  0  0  0  0
   -2.6615   -0.9568    0.0000 N   0  0  0  0  0  0  0  0  0  0  0  0
   -3.3760   -1.3693    0.0000 C   0  0  0  0  0  0  0  0  0  0  0  0
   -4.0904   -0.9568    0.0000 C   0  0  0  0  0  0  0  0  0  0  0  0
   -2.6615   -0.1318    0.0000 C   0  0  0  0  0  0  0  0  0  0  0  0
   -3.3760    0.2807    0.0000 C   0  0  0  0  0  0  0  0  0  0  0  0
   -4.0904   -0.1318    0.0000 C   0  0  0  0  0  0  0  0  0  0  0  0
   -4.8049    0.2807    0.0000 C   0  0  0  0  0  0  0  0  0  0  0  0
   -5.5194   -0.1318    0.0000 O   0  0  0  0  0  0  0  0  0  0  0  0
   -4.8049    1.1057    0.0000 O   0  0  0  0  0  0  0  0  0  0  0  0
   -5.5194    1.5182    0.0000 C   0  0  0  0  0  0  0  0  0  0  0  0
   -1.2325   -0.9568    0.0000 C   0  0  0  0  0  0  0  0  0  0  0  0
   -1.2325   -0.1318    0.0000 C   0  0  0  0  0  0  0  0  0  0  0  0
   -0.5181    0.2807    0.0000 C   0  0  0  0  0  0  0  0  0  0  0  0
    0.1964   -0.1318    0.0000 C   0  0  0  0  0  0  0  0  0  0  0  0
    0.1964   -0.9568    0.0000 C   0  0  0  0  0  0  0  0  0  0  0  0
   -0.5181   -1.3693    0.0000 C   0  0  0  0  0  0  0  0  0  0  0  0
    0.9109    0.2807    0.0000 N   0  0  0  0  0  0  0  0  0  0  0  0
    0.9109    1.1057    0.0000 C   0  0  0  0  0  0  0  0  0  0  0  0
    1.6253   -0.1318    0.0000 C   0  0  0  0  0  0  0  0  0  0  0  0
    2.3398    0.2807    0.0000 C   0  0  0  0  0  0  0  0  0  0  0  0
    3.0543   -0.1318    0.0000 N   0  0  0  0  0  0  0  0  0  0  0  0
    3.7687    0.2807    0.0000 C   0  0  0  0  0  0  0  0  0  0  0  0
    3.7687    1.1057    0.0000 C   0  0  0  0  0  0  0  0  0  0  0  0
    3.0543    1.5182    0.0000 N   0  0  0  0  0  0  0  0  0  0  0  0
    2.3398    1.1057    0.0000 C   0  0  0  0  0  0  0  0  0  0  0  0
    4.4832   -0.1318    0.0000 C   0  0  0  0  0  0  0  0  0  0  0  0
    4.4832   -0.9568    0.0000 N   0  0  0  0  0  0  0  0  0  0  0  0
    5.1977    0.2807    0.0000 N   0  0  0  0  0  0  0  0  0  0  0  0
    5.1977    1.1057    0.0000 C   0  0  0  0  0  0  0  0  0  0  0  0
    4.4832    1.5182    0.0000 N   0  0  0  0  0  0  0  0  0  0  0  0
    5.9122    1.5182    0.0000 N   0  0  0  0  0  0  0  0  0  0  0  0
  1  2  2  0
  2  3  1  0
  2 13  1  0
  3  4  1  0
  3  6  1  0
  4  5  1  0
  5  8  1  0
  6  7  1  0
  7  8  1  0
  8  9  1  0
  9 10  2  0
  9 11  1  0
 11 12  1  0
 13 14  2  0
 13 18  1  0
 14 15  1  0
 15 16  2  0
 16 17  1  0
 16 19  1  0
 17 18  2  0
 19 20  1  0
 19 21  1  0
 21 22  1  0
 22 23  2  0
 22 27  1  0
 23 24  1  0
 24 25  2  0
 24 28  1  0
 25 26  1  0
 25 32  1  0
 26 27  2  0
 28 29  1  0
 28 30  2  0
 30 31  1  0
 31 32  2  0
 31 33  1  0
M  END
>  <DRUGBANK_ID>  (1) 
DB07765

>  <COMMON_NAME>  (1) 
METHYL 1-(4-{[(2,4-DIAMINOPTERIDIN-6-YL)METHYL](METHYL)AMINO}BENZOYL)PIPERIDINE-4-CARBOXYLATE

$$$$
