
     RDKit          2D

  8  8  0  0  1  0  0  0  0  0999 V2000
    2.1434    1.2375    0.0000 O   0  0  0  0  0  0  0  0  0  0  0  0
    1.4289    0.8250    0.0000 C   0  0  0  0  0  0  0  0  0  0  0  0
    1.4289    0.0000    0.0000 C   0  0  0  0  0  0  0  0  0  0  0  0
    0.7145   -0.4125    0.0000 S   0  0  0  0  0  0  0  0  0  0  0  0
    0.0000    0.0000    0.0000 S   0  0  0  0  0  0  0  0  0  0  0  0
    0.0000    0.8250    0.0000 C   0  0  0  0  0  0  0  0  0  0  0  0
    0.7145    1.2375    0.0000 C   0  0  0  0  0  0  0  0  0  0  0  0
    0.7145    2.0625    0.0000 O   0  0  0  0  0  0  0  0  0  0  0  0
  2  1  1  1
  2  3  1  0
  2  7  1  0
  3  4  1  0
  4  5  1  0
  5  6  1  0
  6  7  1  0
  7  8  1  6
M  END
>  <DRUGBANK_ID>  (1) 
DB01822

>  <SECONDARY_ACCESSION_NUMBERS>  (1) 
EXPT01282

>  <COMMON_NAME>  (1) 
(4R,5R)-1,2-dithiane-4,5-diol

>  <CAS_NUMBER>  (1) 
16096-98-3

>  <UNII>  (1) 
3OED5PX4AN

>  <SYNONYMS>  (1) 
D-4,5-Dihydroxy-1,2-dithiane; Dithiane Diol

$$$$
