A94
     RDKit          2D

 27 29  0  0  0  0  0  0  0  0999 V2000
   -3.8625   -1.6288    0.0000 C   0  0  0  0  0  0  0  0  0  0  0  0
   -4.1981   -0.8751    0.0000 N   0  0  0  0  0  0  0  0  0  0  0  0
   -3.7131   -0.2077    0.0000 C   0  0  0  0  0  0  0  0  0  0  0  0
   -2.8927   -0.2939    0.0000 N   0  0  0  0  0  0  0  0  0  0  0  0
   -2.5571   -1.0476    0.0000 C   0  0  0  0  0  0  0  0  0  0  0  0
   -3.0420   -1.7150    0.0000 C   0  0  0  0  0  0  0  0  0  0  0  0
   -4.3474   -2.2962    0.0000 C   0  0  0  0  0  0  0  0  0  0  0  0
   -4.0487    0.5460    0.0000 N   0  0  0  0  0  0  0  0  0  0  0  0
   -1.7366   -1.1338    0.0000 C   0  0  0  0  0  0  0  0  0  0  0  0
   -1.2517   -0.4664    0.0000 N   0  0  0  0  0  0  0  0  0  0  0  0
   -0.4312   -0.5526    0.0000 S   0  0  0  0  0  0  0  0  0  0  0  0
   -0.5175   -1.3731    0.0000 O   0  0  0  0  0  0  0  0  0  0  0  0
   -0.3450    0.2678    0.0000 O   0  0  0  0  0  0  0  0  0  0  0  0
    3.8975    2.4605    0.0000 C   0  0  0  0  0  0  0  0  0  0  0  0
    3.2301    1.9756    0.0000 C   0  0  0  0  0  0  0  0  0  0  0  0
    3.4850    1.1910    0.0000 C   0  0  0  0  0  0  0  0  0  0  0  0
    4.3100    1.1910    0.0000 C   0  0  0  0  0  0  0  0  0  0  0  0
    4.5649    1.9756    0.0000 O   0  0  0  0  0  0  0  0  0  0  0  0
    4.7949    0.5235    0.0000 O   0  0  0  0  0  0  0  0  0  0  0  0
    3.0001    0.5235    0.0000 C   0  0  0  0  0  0  0  0  0  0  0  0
    2.1796    0.6098    0.0000 N   0  0  0  0  0  0  0  0  0  0  0  0
    1.6947   -0.0577    0.0000 C   0  0  0  0  0  0  0  0  0  0  0  0
    2.0302   -0.8113    0.0000 C   0  0  0  0  0  0  0  0  0  0  0  0
    1.5453   -1.4788    0.0000 C   0  0  0  0  0  0  0  0  0  0  0  0
    0.7248   -1.3925    0.0000 C   0  0  0  0  0  0  0  0  0  0  0  0
    0.3893   -0.6389    0.0000 C   0  0  0  0  0  0  0  0  0  0  0  0
    0.8742    0.0286    0.0000 C   0  0  0  0  0  0  0  0  0  0  0  0
  1  2  2  0
  1  6  1  0
  1  7  1  0
  2  3  1  0
  3  8  1  0
  3  4  2  0
  4  5  1  0
  5  9  1  0
  5  6  2  0
  9 10  1  0
 10 11  1  0
 11 12  2  0
 11 26  1  0
 11 13  2  0
 14 18  1  0
 14 15  1  0
 15 16  1  0
 16 20  2  0
 16 17  1  0
 17 19  2  0
 17 18  1  0
 20 21  1  0
 21 22  1  0
 22 23  2  0
 22 27  1  0
 23 24  1  0
 24 25  2  0
 25 26  1  0
 26 27  2  0
M  END
>  <DRUGBANK_ID>  (1) 
DB07325

>  <COMMON_NAME>  (1) 
N-[(2-AMINO-6-METHYLPYRIMIDIN-4-YL)METHYL]-3-{[(E)-(2-OXODIHYDROFURAN-3(2H)-YLIDENE)METHYL]AMINO}BENZENESULFONAMIDE

$$$$
