
     RDKit          2D

 35 39  0  0  0  0  0  0  0  0999 V2000
    2.5875   -4.0082    0.0000 C   0  0  0  0  0  0  0  0  0  0  0  0
    2.0572   -3.3762    0.0000 C   0  0  0  0  0  0  0  0  0  0  0  0
    1.2448   -3.5195    0.0000 N   0  0  0  0  0  0  0  0  0  0  0  0
    0.7145   -2.8875    0.0000 C   0  0  0  0  0  0  0  0  0  0  0  0
    0.0000   -2.4750    0.0000 C   0  0  0  0  0  0  0  0  0  0  0  0
    0.0000   -1.6500    0.0000 C   0  0  0  0  0  0  0  0  0  0  0  0
    0.7145   -1.2375    0.0000 N   0  0  0  0  0  0  0  0  0  0  0  0
    1.4289   -1.6500    0.0000 C   0  0  0  0  0  0  0  0  0  0  0  0
    1.4289   -2.4750    0.0000 C   0  0  0  0  0  0  0  0  0  0  0  0
    0.7145   -0.4125    0.0000 C   0  0  0  0  0  0  0  0  0  0  0  0
   -0.0000   -0.0000    0.0000 C   0  0  0  0  0  0  0  0  0  0  0  0
   -0.0000    0.8250    0.0000 C   0  0  0  0  0  0  0  0  0  0  0  0
    0.7145    1.2375    0.0000 N   0  0  0  0  0  0  0  0  0  0  0  0
    1.4289    0.8250    0.0000 C   0  0  0  0  0  0  0  0  0  0  0  0
    1.4289    0.0000    0.0000 N   0  0  0  0  0  0  0  0  0  0  0  0
   -0.7846    1.0799    0.0000 N   0  0  0  0  0  0  0  0  0  0  0  0
   -1.2695    0.4125    0.0000 C   0  0  0  0  0  0  0  0  0  0  0  0
   -0.7846   -0.2549    0.0000 N   0  0  0  0  0  0  0  0  0  0  0  0
   -2.0945    0.4125    0.0000 C   0  0  0  0  0  0  0  0  0  0  0  0
   -2.5070    1.1270    0.0000 C   0  0  0  0  0  0  0  0  0  0  0  0
   -3.3320    1.1270    0.0000 C   0  0  0  0  0  0  0  0  0  0  0  0
   -3.7445    0.4125    0.0000 C   0  0  0  0  0  0  0  0  0  0  0  0
   -3.3320   -0.3020    0.0000 C   0  0  0  0  0  0  0  0  0  0  0  0
   -2.5070   -0.3020    0.0000 C   0  0  0  0  0  0  0  0  0  0  0  0
   -2.0945   -1.0164    0.0000 Cl  0  0  0  0  0  0  0  0  0  0  0  0
   -1.0396    1.8646    0.0000 C   0  0  0  0  0  0  0  0  0  0  0  0
   -1.8465    2.0361    0.0000 C   0  0  0  0  0  0  0  0  0  0  0  0
   -2.1015    2.8207    0.0000 C   0  0  0  0  0  0  0  0  0  0  0  0
   -1.5494    3.4338    0.0000 C   0  0  0  0  0  0  0  0  0  0  0  0
   -0.7425    3.2623    0.0000 C   0  0  0  0  0  0  0  0  0  0  0  0
   -0.4875    2.4777    0.0000 C   0  0  0  0  0  0  0  0  0  0  0  0
   -1.8044    4.2184    0.0000 Cl  0  0  0  0  0  0  0  0  0  0  0  0
    0.1842   -3.5195    0.0000 C   0  0  0  0  0  0  0  0  0  0  0  0
   -0.6283   -3.3762    0.0000 O   0  0  0  0  0  0  0  0  0  0  0  0
    0.4663   -4.2947    0.0000 N   0  0  0  0  0  0  0  0  0  0  0  0
  1  2  1  0
  2  3  1  0
  3  4  1  0
  4  5  1  0
  4  9  1  0
  4 33  1  0
  5  6  1  0
  6  7  1  0
  7  8  1  0
  7 10  1  0
  8  9  1  0
 10 11  2  0
 10 15  1  0
 11 12  1  0
 11 18  1  0
 12 13  2  0
 12 16  1  0
 13 14  1  0
 14 15  2  0
 16 17  1  0
 16 26  1  0
 17 18  2  0
 17 19  1  0
 19 20  2  0
 19 24  1  0
 20 21  1  0
 21 22  2  0
 22 23  1  0
 23 24  2  0
 24 25  1  0
 26 27  2  0
 26 31  1  0
 27 28  1  0
 28 29  2  0
 29 30  1  0
 29 32  1  0
 30 31  2  0
 33 34  2  0
 33 35  1  0
M  END
>  <DRUGBANK_ID>  (1) 
DB11745

>  <SECONDARY_ACCESSION_NUMBERS>  (1) 
DB05372

>  <COMMON_NAME>  (1) 
Otenabant

>  <CAS_NUMBER>  (1) 
686344-29-6

>  <UNII>  (1) 
J8211Y53EF

>  <SYNONYMS>  (1) 
Otenabant

$$$$
