
     RDKit          2D

 20 19  0  0  0  0  0  0  0  0999 V2000
   -0.6039   -0.0000    0.0000 C   0  0  0  0  0  0  0  0  0  0  0  0
    2.9684    0.4125    0.0000 C   0  0  0  0  0  0  0  0  0  0  0  0
    0.1105    0.4125    0.0000 C   0  0  0  0  0  0  0  0  0  0  0  0
    2.2539    0.0000    0.0000 C   0  0  0  0  0  0  0  0  0  0  0  0
    0.8250    0.0000    0.0000 C   0  0  0  0  0  0  0  0  0  0  0  0
    1.5395    0.4125    0.0000 C   0  0  0  0  0  0  0  0  0  0  0  0
    0.1105    1.2375    0.0000 O   0  0  0  0  0  0  0  0  0  0  0  0
    2.2539   -0.8250    0.0000 O   0  0  0  0  0  0  0  0  0  0  0  0
    0.8250   -0.8250    0.0000 O   0  0  0  0  0  0  0  0  0  0  0  0
    1.5395    1.2375    0.0000 O   0  0  0  0  0  0  0  0  0  0  0  0
   -2.7474   -0.4125    0.0000 O   0  0  0  0  0  0  0  0  0  0  0  0
   -1.6204   -0.7145    0.0000 O   0  0  0  0  0  0  0  0  0  0  0  0
   -2.4454    0.7145    0.0000 O   0  0  0  0  0  0  0  0  0  0  0  0
    5.1118    0.8250    0.0000 O   0  0  0  0  0  0  0  0  0  0  0  0
    4.8099   -0.3020    0.0000 O   0  0  0  0  0  0  0  0  0  0  0  0
    3.9849    1.1270    0.0000 O   0  0  0  0  0  0  0  0  0  0  0  0
   -1.3184    0.4125    0.0000 O   0  0  0  0  0  0  0  0  0  0  0  0
    3.6829    0.0000    0.0000 O   0  0  0  0  0  0  0  0  0  0  0  0
   -2.0329   -0.0000    0.0000 P   0  0  0  0  0  0  0  0  0  0  0  0
    4.3974    0.4125    0.0000 P   0  0  0  0  0  0  0  0  0  0  0  0
  3  1  1  0
  3  7  1  6
  4  2  1  0
  4  8  1  1
  5  3  1  0
  5  9  1  1
  6  4  1  0
  6  5  1  0
  6 10  1  6
 17  1  1  0
 18  2  1  0
 19 11  1  0
 19 12  1  0
 19 13  2  0
 19 17  1  0
 20 14  1  0
 20 15  1  0
 20 16  2  0
 20 18  1  0
M  END
>  <DRUGBANK_ID>  (1) 
DB02760

>  <SECONDARY_ACCESSION_NUMBERS>  (1) 
EXPT01379

>  <COMMON_NAME>  (1) 
1,6-Di-O-Phosphono-D-Allitol

$$$$
