
     RDKit          2D

 23 24  0  0  1  0  0  0  0  0999 V2000
   16.2167   -8.6591    0.0000 C   0  0  0  0  0  0  0  0  0  0  0  0
   15.6048   -9.2056    0.0000 O   0  0  0  0  0  0  0  0  0  0  0  0
   16.9042   -8.1641    0.0000 O   0  0  0  0  0  0  0  0  0  0  0  0
   16.4676   -9.4256    0.0000 C   0  0  0  0  0  0  0  0  0  0  0  0
   15.6393   -8.0713    0.0000 C   0  0  0  0  0  0  0  0  0  0  0  0
   14.8933   -9.6181    0.0000 C   0  0  0  0  0  0  0  0  0  0  0  0
   17.5677   -8.6453    0.0000 C   0  0  0  0  0  0  0  0  0  0  0  0
   17.3030   -9.4256    0.0000 C   0  0  0  0  0  0  0  0  0  0  0  0
   15.9830  -10.0959    0.0000 O   0  0  0  0  0  0  0  0  0  0  0  0
   14.8864   -8.4149    0.0000 O   0  0  0  0  0  0  0  0  0  0  0  0
   14.1715   -9.2056    0.0000 O   0  0  0  0  0  0  0  0  0  0  0  0
   14.8933  -10.4431    0.0000 C   0  0  0  0  0  0  0  0  0  0  0  0
   18.3548   -8.3978    0.0000 C   0  0  0  0  0  0  0  0  0  0  0  0
   17.7809  -10.0994    0.0000 O   0  0  0  0  0  0  0  0  0  0  0  0
   13.4633   -9.6216    0.0000 C   0  0  0  0  0  0  0  0  0  0  0  0
   14.1715  -10.8556    0.0000 C   0  0  0  0  0  0  0  0  0  0  0  0
   15.6014  -10.8556    0.0000 O   0  0  0  0  0  0  0  0  0  0  0  0
   18.8498   -9.0612    0.0000 O   0  0  0  0  0  0  0  0  0  0  0  0
   13.4633  -10.4431    0.0000 C   0  0  0  0  0  0  0  0  0  0  0  0
   12.7484   -9.2056    0.0000 C   0  0  0  0  0  0  0  0  0  0  0  0
   14.1715  -11.6806    0.0000 O   0  0  0  0  0  0  0  0  0  0  0  0
   12.7484  -10.8556    0.0000 O   0  0  0  0  0  0  0  0  0  0  0  0
   12.1192   -9.7419    0.0000 O   0  0  0  0  0  0  0  0  0  0  0  0
  1  2  1  0
  1  3  1  0
  1  4  1  0
  1  5  1  1
  3  7  1  0
  4  8  1  0
  4  9  1  6
  5 10  1  0
  6  2  1  6
  6 11  1  0
  6 12  1  0
  7 13  1  6
  7  8  1  0
  8 14  1  1
 11 15  1  0
 12 16  1  0
 12 17  1  6
 13 18  1  0
 15 19  1  0
 15 20  1  1
 16 21  1  1
 16 19  1  0
 19 22  1  6
 20 23  1  0
M  END
>  <DRUGBANK_ID>  (1) 
DB02772

>  <SECONDARY_ACCESSION_NUMBERS>  (1) 
EXPT02977

>  <COMMON_NAME>  (1) 
Sucrose

>  <CAS_NUMBER>  (1) 
57-50-1

>  <UNII>  (1) 
C151H8M554

>  <SYNONYMS>  (1) 
1-alpha-D-Glucopyranosyl-2-beta-D-fructofuranoside; Beet sugar; Cane sugar; Sacarosa; Saccharose; Sacharose; Sucraloxum; Sucrose; Table sugar; White sugar

$$$$
