
     RDKit          2D

  8  8  0  0  0  0  0  0  0  0999 V2000
    0.2047    2.4937    0.0000 O   0  0  0  0  0  0  0  0  0  0  0  0
    0.7881    1.9103    0.0000 C   0  0  0  0  0  0  0  0  0  0  0  0
    1.5849    2.1238    0.0000 O   0  0  0  0  0  0  0  0  0  0  0  0
    0.5746    1.1134    0.0000 C   0  0  0  0  0  0  0  0  0  0  0  0
    1.0937    0.4723    0.0000 C   0  0  0  0  0  0  0  0  0  0  0  0
    0.6444   -0.2197    0.0000 S   0  0  0  0  0  0  0  0  0  0  0  0
   -0.1525   -0.0062    0.0000 C   0  0  0  0  0  0  0  0  0  0  0  0
   -0.1957    0.8178    0.0000 N   0  0  0  0  0  0  0  0  0  0  0  0
  1  2  1  0
  2  3  2  0
  2  4  1  0
  4  5  2  0
  4  8  1  0
  5  6  1  0
  6  7  1  0
  7  8  2  0
M  END
>  <DRUGBANK_ID>  (1) 
DB03422

>  <SECONDARY_ACCESSION_NUMBERS>  (1) 
EXPT03153

>  <COMMON_NAME>  (1) 
1,3-Thiazole-4-Carboxylic Acid

>  <UNII>  (1) 
UE1ZOP7MLZ

$$$$
