
     RDKit          2D

 17 18  0  0  0  0  0  0  0  0999 V2000
    0.9966    0.3627    0.0000 C   0  0  0  0  0  0  0  0  0  0  0  0
    0.7145   -0.4125    0.0000 C   0  0  0  0  0  0  0  0  0  0  0  0
    1.2448   -1.0445    0.0000 C   0  0  0  0  0  0  0  0  0  0  0  0
    1.9592   -1.4570    0.0000 C   0  0  0  0  0  0  0  0  0  0  0  0
    2.6737   -1.0445    0.0000 O   0  0  0  0  0  0  0  0  0  0  0  0
    1.9592   -2.2820    0.0000 N   0  0  0  0  0  0  0  0  0  0  0  0
    1.2448   -2.6945    0.0000 C   0  0  0  0  0  0  0  0  0  0  0  0
    1.2448   -3.5195    0.0000 O   0  0  0  0  0  0  0  0  0  0  0  0
    0.5303   -2.2820    0.0000 N   0  0  0  0  0  0  0  0  0  0  0  0
    0.5303   -1.4570    0.0000 C   0  0  0  0  0  0  0  0  0  0  0  0
   -0.1842   -1.0445    0.0000 O   0  0  0  0  0  0  0  0  0  0  0  0
    1.7751   -0.4125    0.0000 C   0  0  0  0  0  0  0  0  0  0  0  0
    1.4929    0.3627    0.0000 C   0  0  0  0  0  0  0  0  0  0  0  0
    2.0232    0.9947    0.0000 C   0  0  0  0  0  0  0  0  0  0  0  0
    2.8357    0.8515    0.0000 C   0  0  0  0  0  0  0  0  0  0  0  0
    3.1178    0.0762    0.0000 C   0  0  0  0  0  0  0  0  0  0  0  0
    2.5875   -0.5558    0.0000 C   0  0  0  0  0  0  0  0  0  0  0  0
  1  2  1  0
  2  3  1  0
  3  4  1  0
  3 10  1  0
  3 12  1  0
  4  5  2  0
  4  6  1  0
  6  7  1  0
  7  8  2  0
  7  9  1  0
  9 10  1  0
 10 11  2  0
 12 13  2  0
 12 17  1  0
 13 14  1  0
 14 15  1  0
 15 16  1  0
 16 17  1  0
M  END
>  <DRUGBANK_ID>  (1) 
DB13737

>  <COMMON_NAME>  (1) 
Cyclobarbital

>  <CAS_NUMBER>  (1) 
52-31-3

>  <UNII>  (1) 
0M8A98AD9H

>  <SYNONYMS>  (1) 
Cyclobarbital

$$$$
