
     RDKit          2D

 35 38  0  0  1  0  0  0  0  0999 V2000
    4.5627   -4.7185    0.0000 C   0  0  0  0  0  0  0  0  0  0  0  0
    5.2772   -5.1310    0.0000 C   0  0  0  0  0  0  0  0  0  0  0  0
    5.9916   -4.7185    0.0000 C   0  0  0  0  0  0  0  0  0  0  0  0
    5.2772   -5.9560    0.0000 C   0  0  0  0  0  0  0  0  0  0  0  0
    5.9916   -6.3685    0.0000 C   0  0  0  0  0  0  0  0  0  0  0  0
    5.9916   -7.1935    0.0000 C   0  0  0  0  0  0  0  0  0  0  0  0
    6.7061   -7.6060    0.0000 C   0  0  0  0  0  0  0  0  0  0  0  0
    6.7061   -8.4310    0.0000 C   0  0  0  0  0  0  0  0  0  0  0  0
    7.4206   -8.8435    0.0000 C   0  0  0  0  0  0  0  0  0  0  0  0
    8.1351   -8.4310    0.0000 C   0  0  0  0  0  0  0  0  0  0  0  0
    7.4206   -9.6685    0.0000 C   0  0  0  0  0  0  0  0  0  0  0  0
    6.7061  -10.0810    0.0000 C   0  0  0  0  0  0  0  0  0  0  0  0
    6.7061  -10.9060    0.0000 O   0  0  0  0  0  0  0  0  0  0  0  0
    7.4206  -11.3185    0.0000 C   0  0  0  0  0  0  0  0  0  0  0  0
    7.4206  -12.1435    0.0000 P   0  0  0  0  0  0  0  0  0  0  0  0
    6.6081  -12.0003    0.0000 O   0  0  0  0  0  0  0  0  0  0  0  0
    8.2331  -12.0003    0.0000 O   0  0  0  0  0  0  0  0  0  0  0  0
    8.7634  -12.6322    0.0000 C   0  0  0  0  0  0  0  0  0  0  0  0
    8.4812  -13.4075    0.0000 C   0  0  0  0  0  0  0  0  0  0  0  0
    7.6687  -13.5507    0.0000 C   0  0  0  0  0  0  0  0  0  0  0  0
    7.1384  -12.9188    0.0000 O   0  0  0  0  0  0  0  0  0  0  0  0
    7.3866  -14.3260    0.0000 C   0  0  0  0  0  0  0  0  0  0  0  0
    7.9169  -14.9580    0.0000 C   0  0  0  0  0  0  0  0  0  0  0  0
    7.6347  -15.7332    0.0000 C   0  0  0  0  0  0  0  0  0  0  0  0
    6.8222  -15.8765    0.0000 C   0  0  0  0  0  0  0  0  0  0  0  0
    6.2919  -15.2445    0.0000 C   0  0  0  0  0  0  0  0  0  0  0  0
    5.4795  -15.3878    0.0000 Cl  0  0  0  0  0  0  0  0  0  0  0  0
    6.5741  -14.4693    0.0000 C   0  0  0  0  0  0  0  0  0  0  0  0
    5.9916   -9.6685    0.0000 C   0  0  0  0  0  0  0  0  0  0  0  0
    5.9916   -8.8435    0.0000 C   0  0  0  0  0  0  0  0  0  0  0  0
    5.2772   -8.4310    0.0000 C   0  0  0  0  0  0  0  0  0  0  0  0
    5.2772   -7.6060    0.0000 C   0  0  0  0  0  0  0  0  0  0  0  0
    4.5627   -7.1935    0.0000 C   0  0  0  0  0  0  0  0  0  0  0  0
    4.5627   -6.3685    0.0000 C   0  0  0  0  0  0  0  0  0  0  0  0
    3.8482   -5.9560    0.0000 O   0  0  0  0  0  0  0  0  0  0  0  0
  1  2  1  0
  2  3  1  0
  2  4  1  0
  4  5  2  0
  4 34  1  0
  5  6  1  0
  6  7  1  0
  6 32  2  0
  7  8  1  0
  8  9  2  0
  8 30  1  0
  9 10  1  0
  9 11  1  0
 11 12  2  0
 12 13  1  0
 12 29  1  0
 13 14  1  0
 15 14  1  0
 15 16  2  0
 15 17  1  0
 15 21  1  0
 17 18  1  0
 18 19  1  0
 20 19  1  0
 20 21  1  0
 20 22  1  1
 22 23  2  0
 22 28  1  0
 23 24  1  0
 24 25  2  0
 25 26  1  0
 26 27  1  0
 26 28  2  0
 29 30  2  0
 30 31  1  0
 32 33  1  0
 33 34  2  0
 34 35  1  0
M  END
>  <DRUGBANK_ID>  (1) 
DB15137

>  <COMMON_NAME>  (1) 
VK-2809

>  <CAS_NUMBER>  (1) 
852948-13-1

>  <UNII>  (1) 
3Z11398FNQ

$$$$
