
     RDKit          2D

 28 31  0  0  0  0  0  0  0  0999 V2000
   -0.9900   -0.3105    0.0000 O   0  0  0  0  0  0  0  0  0  0  0  0
    0.5753    1.0208    0.0000 O   0  0  0  0  0  0  0  0  0  0  0  0
   -1.2449    1.8090    0.0000 O   0  0  0  0  0  0  0  0  0  0  0  0
    0.8316   -1.0912    0.0000 O   0  0  0  0  0  0  0  0  0  0  0  0
   -4.7701    1.0973    0.0000 N   0  0  0  0  0  0  0  0  0  0  0  0
   -3.7082    0.1411    0.0000 N   0  0  0  0  0  0  0  0  0  0  0  0
    4.3171   -2.5560    0.0000 N   0  0  0  0  0  0  0  0  0  0  0  0
    4.6118   -1.1577    0.0000 N   0  0  0  0  0  0  0  0  0  0  0  0
   -0.2053    0.7694    0.0000 C   0  0  0  0  0  0  0  0  0  0  0  0
   -0.2053   -0.0556    0.0000 C   0  0  0  0  0  0  0  0  0  0  0  0
   -0.9900    1.0243    0.0000 C   0  0  0  0  0  0  0  0  0  0  0  0
    0.5753   -0.3070    0.0000 C   0  0  0  0  0  0  0  0  0  0  0  0
   -1.4749    0.3569    0.0000 C   0  0  0  0  0  0  0  0  0  0  0  0
    1.0568    0.3569    0.0000 C   0  0  0  0  0  0  0  0  0  0  0  0
   -2.0520    1.9806    0.0000 C   0  0  0  0  0  0  0  0  0  0  0  0
    1.6389   -1.2614    0.0000 C   0  0  0  0  0  0  0  0  0  0  0  0
   -2.6040    1.3674    0.0000 C   0  0  0  0  0  0  0  0  0  0  0  0
    2.1899   -0.6473    0.0000 C   0  0  0  0  0  0  0  0  0  0  0  0
    1.8952   -2.0456    0.0000 C   0  0  0  0  0  0  0  0  0  0  0  0
   -2.3069    2.7652    0.0000 C   0  0  0  0  0  0  0  0  0  0  0  0
   -3.4111    1.5389    0.0000 C   0  0  0  0  0  0  0  0  0  0  0  0
    2.9972   -0.8174    0.0000 C   0  0  0  0  0  0  0  0  0  0  0  0
    2.7025   -2.2157    0.0000 C   0  0  0  0  0  0  0  0  0  0  0  0
   -3.1139    2.9367    0.0000 C   0  0  0  0  0  0  0  0  0  0  0  0
    3.2535   -1.6016    0.0000 C   0  0  0  0  0  0  0  0  0  0  0  0
   -3.6660    2.3236    0.0000 C   0  0  0  0  0  0  0  0  0  0  0  0
   -3.9631    0.9258    0.0000 C   0  0  0  0  0  0  0  0  0  0  0  0
    4.0608   -1.7717    0.0000 C   0  0  0  0  0  0  0  0  0  0  0  0
 10  1  1  1
  1 13  1  0
  9  2  1  1
  2 14  1  0
  3 15  1  0
  4 16  1  0
  5 27  1  0
  6 27  2  0
  7 28  1  0
  8 28  2  0
  9 10  1  0
  9 11  1  0
 10 12  1  0
 11  3  1  6
 11 13  1  0
 12  4  1  1
 12 14  1  0
 15 17  2  0
 15 20  1  0
 16 18  2  0
 16 19  1  0
 17 21  1  0
 18 22  1  0
 19 23  2  0
 20 24  2  0
 21 26  2  0
 21 27  1  0
 22 25  2  0
 23 25  1  0
 24 26  1  0
 25 28  1  0
M  END
>  <DRUGBANK_ID>  (1) 
DB04793

>  <COMMON_NAME>  (1) 
1,4:3,6-Dianhydro-2-O-(3-carbamimidoylphenyl)-5-O-(4-carbamimidoylphenyl)-D-glucitol

$$$$
