
     RDKit          2D

 20 20  0  0  0  0  0  0  0  0999 V2000
    1.1270   -0.8444    0.0000 C   0  0  0  0  0  0  0  0  0  0  0  0
    0.7145   -0.1298    0.0000 C   0  0  0  0  0  0  0  0  0  0  0  0
    0.3019    0.5846    0.0000 C   0  0  0  0  0  0  0  0  0  0  0  0
    0.7145    1.2991    0.0000 N   0  0  0  0  0  0  0  0  0  0  0  0
    1.5350    1.3853    0.0000 C   0  0  0  0  0  0  0  0  0  0  0  0
    1.7064    2.1924    0.0000 C   0  0  0  0  0  0  0  0  0  0  0  0
    0.9920    2.6049    0.0000 N   0  0  0  0  0  0  0  0  0  0  0  0
    0.3789    2.0529    0.0000 N   0  0  0  0  0  0  0  0  0  0  0  0
    0.0000   -0.5423    0.0000 C   0  0  0  0  0  0  0  0  0  0  0  0
   -0.7145   -0.1298    0.0000 N   0  0  0  0  0  0  0  0  0  0  0  0
   -1.4289   -0.5423    0.0000 C   0  0  0  0  0  0  0  0  0  0  0  0
   -1.4289   -1.3673    0.0000 C   0  0  0  0  0  0  0  0  0  0  0  0
   -2.1435   -1.7798    0.0000 C   0  0  0  0  0  0  0  0  0  0  0  0
   -2.1435   -2.6049    0.0000 O   0  0  0  0  0  0  0  0  0  0  0  0
    0.0000   -1.3673    0.0000 C   0  0  0  0  0  0  0  0  0  0  0  0
    0.7145   -1.7798    0.0000 O   0  0  0  0  0  0  0  0  0  0  0  0
   -0.7145   -1.7798    0.0000 O   0  0  0  0  0  0  0  0  0  0  0  0
    1.4289    0.2826    0.0000 S   0  0  0  0  0  5  0  0  0  0  0  0
    1.5906    0.9311    0.0000 O   0  0  0  0  0  0  0  0  0  0  0  0
    2.1435   -0.1298    0.0000 O   0  0  0  0  0  0  0  0  0  0  0  0
  2  1  1  1
  2  3  1  0
  2  9  1  0
  2 18  1  0
  3  4  1  0
  4  5  1  0
  5  6  2  0
  6  7  1  0
  7  8  2  0
  8  4  1  0
  9 10  1  6
  9 15  1  0
 10 11  1  0
 11 12  2  0
 12 13  1  0
 13 14  2  0
 15 16  2  0
 15 17  1  0
 18 19  2  0
 18 20  2  0
M  RAD  1  18   2
M  END
>  <DRUGBANK_ID>  (1) 
DB03445

>  <SECONDARY_ACCESSION_NUMBERS>  (1) 
EXPT03016

>  <COMMON_NAME>  (1) 
Tazobactam trans-enamine intermediate

>  <SYNONYMS>  (1) 
Tazobactam Trans-Enamine Intermediate

$$$$
