
     RDKit          2D

 13 12  0  0  0  0  0  0  0  0999 V2000
    2.5006   -0.2062    0.0000 O   0  0  0  0  0  0  0  0  0  0  0  0
    1.7861    0.2062    0.0000 C   0  0  0  0  0  0  0  0  0  0  0  0
   -0.3572   -0.2062    0.0000 C   0  0  0  0  0  0  0  0  0  0  0  0
    0.3572    0.2062    0.0000 N   0  0  0  0  0  0  0  0  0  0  0  0
   -1.0716    0.2062    0.0000 N   0  0  0  0  0  0  0  0  0  0  0  0
    1.0717   -0.2062    0.0000 C   0  0  0  0  0  0  0  0  0  0  0  0
   -1.7861   -0.2062    0.0000 P   0  0  0  0  0  0  0  0  0  0  0  0
   -0.3572   -1.0312    0.0000 N   0  0  0  0  0  0  0  0  0  0  0  0
    0.3572    1.0312    0.0000 C   0  0  0  0  0  0  0  0  0  0  0  0
   -1.7861   -1.0312    0.0000 O   0  0  0  0  0  0  0  0  0  0  0  0
   -2.5006    0.2062    0.0000 O   0  0  0  0  0  0  0  0  0  0  0  0
    1.7861    1.0312    0.0000 O   0  0  0  0  0  0  0  0  0  0  0  0
   -2.5006   -0.6187    0.0000 O   0  0  0  0  0  0  0  0  0  0  0  0
  2  1  1  0
  2 12  2  0
  3  8  2  0
  3  4  1  0
  3  5  1  0
  4  9  1  0
  4  6  1  0
  5  7  1  0
  6  2  1  0
  7 10  2  0
  7 11  1  0
  7 13  1  0
M  END
>  <DRUGBANK_ID>  (1) 
DB13191

>  <COMMON_NAME>  (1) 
Phosphocreatine

>  <CAS_NUMBER>  (1) 
67-07-2

>  <UNII>  (1) 
020IUV4N33

>  <SYNONYMS>  (1) 
Creatine phosphate; Creatine phosphic acid; Creatine-P; Fosfocreatine; N-(N-phosphonoamido)sarcosine; N-(Phosphonoamidino)sarcosine; N-phosphocreatine; N-Phosphorylcreatine; phosphorylcreatine

$$$$
