TNK
     RDKit          2D

 27 29  0  0  0  0  0  0  0  0999 V2000
    1.3875   -0.1364    0.0000 C   0  0  0  0  0  0  0  0  0  0  0  0
    2.1020   -0.5489    0.0000 C   0  0  0  0  0  0  0  0  0  0  0  0
    2.1020   -1.3739    0.0000 C   0  0  0  0  0  0  0  0  0  0  0  0
    1.3875   -1.7864    0.0000 C   0  0  0  0  0  0  0  0  0  0  0  0
    0.6730   -1.3739    0.0000 C   0  0  0  0  0  0  0  0  0  0  0  0
    0.6730   -0.5489    0.0000 C   0  0  0  0  0  0  0  0  0  0  0  0
    0.6730    1.1011    0.0000 C   0  0  0  0  0  0  0  0  0  0  0  0
   -0.0414    0.6886    0.0000 N   0  0  0  0  0  0  0  0  0  0  0  0
   -0.7559    1.1011    0.0000 C   0  0  0  0  0  0  0  0  0  0  0  0
   -1.4704    0.6886    0.0000 O   0  0  0  0  0  0  0  0  0  0  0  0
   -0.7559    1.9261    0.0000 N   0  0  0  0  0  0  0  0  0  0  0  0
   -0.0414    2.3386    0.0000 C   0  0  0  0  0  0  0  0  0  0  0  0
   -0.0414    3.1636    0.0000 O   0  0  0  0  0  0  0  0  0  0  0  0
    0.6730    1.9261    0.0000 C   0  0  0  0  0  0  0  0  0  0  0  0
    1.3875    0.6886    0.0000 C   0  0  0  0  0  0  0  0  0  0  0  0
    1.3875    2.3386    0.0000 C   0  0  0  0  0  0  0  0  0  0  0  0
    1.3875    3.1636    0.0000 C   0  0  0  0  0  0  0  0  0  0  0  0
    2.1020    1.9261    0.0000 C   0  0  0  0  0  0  0  0  0  0  0  0
   -0.0414   -0.1364    0.0000 C   0  0  0  0  0  0  0  0  0  0  0  0
   -0.7559   -0.5489    0.0000 O   0  0  0  0  0  0  0  0  0  0  0  0
   -0.7559   -1.3739    0.0000 C   0  0  0  0  0  0  0  0  0  0  0  0
   -1.4704   -1.7864    0.0000 C   0  0  0  0  0  0  0  0  0  0  0  0
   -1.4704   -2.6114    0.0000 C   0  0  0  0  0  0  0  0  0  0  0  0
   -2.1848   -3.0239    0.0000 C   0  0  0  0  0  0  0  0  0  0  0  0
   -2.8993   -2.6114    0.0000 C   0  0  0  0  0  0  0  0  0  0  0  0
   -2.8993   -1.7864    0.0000 C   0  0  0  0  0  0  0  0  0  0  0  0
   -2.1848   -1.3739    0.0000 C   0  0  0  0  0  0  0  0  0  0  0  0
  1  2  2  0
  1  6  1  0
  1 15  1  0
  2  3  1  0
  3  4  2  0
  4  5  1  0
  5  6  2  0
  7  8  1  0
  7 14  2  0
  7 15  1  0
  8  9  1  0
  8 19  1  0
  9 10  2  0
  9 11  1  0
 11 12  1  0
 12 13  2  0
 12 14  1  0
 14 16  1  0
 16 17  1  0
 16 18  1  0
 19 20  1  0
 20 21  1  0
 21 22  1  0
 22 23  2  0
 22 27  1  0
 23 24  1  0
 24 25  2  0
 25 26  1  0
 26 27  2  0
M  END
>  <DRUGBANK_ID>  (1) 
DB08634

>  <COMMON_NAME>  (1) 
6-BENZYL-1-BENZYLOXYMETHYL-5-ISOPROPYL URACIL

>  <UNII>  (1) 
2HRU1H9M1I

$$$$
