
     RDKit          2D

 20 21  0  0  0  0  0  0  0  0999 V2000
    1.2167   -1.3238    0.0000 C   0  0  0  0  0  0  0  0  0  0  0  0
   -1.2167    1.3238    0.0000 C   0  0  0  0  0  0  0  0  0  0  0  0
    0.4630   -0.9882    0.0000 C   0  0  0  0  0  0  0  0  0  0  0  0
   -0.4630    0.9882    0.0000 C   0  0  0  0  0  0  0  0  0  0  0  0
    1.7979   -0.0184    0.0000 C   0  0  0  0  0  0  0  0  0  0  0  0
    0.9580    1.1376    0.0000 C   0  0  0  0  0  0  0  0  0  0  0  0
   -1.7979    0.0184    0.0000 C   0  0  0  0  0  0  0  0  0  0  0  0
   -0.9580   -1.1376    0.0000 C   0  0  0  0  0  0  0  0  0  0  0  0
    2.4653    0.4665    0.0000 C   0  0  0  0  0  0  0  0  0  0  0  0
    1.6254    1.6225    0.0000 C   0  0  0  0  0  0  0  0  0  0  0  0
   -2.4653   -0.4665    0.0000 C   0  0  0  0  0  0  0  0  0  0  0  0
   -1.6254   -1.6225    0.0000 C   0  0  0  0  0  0  0  0  0  0  0  0
    1.0442    0.3171    0.0000 C   0  0  0  0  0  0  0  0  0  0  0  0
   -1.0442   -0.3171    0.0000 C   0  0  0  0  0  0  0  0  0  0  0  0
    2.3791    1.2869    0.0000 C   0  0  0  0  0  0  0  0  0  0  0  0
   -2.3791   -1.2869    0.0000 C   0  0  0  0  0  0  0  0  0  0  0  0
    0.3768   -0.1677    0.0000 C   0  0  0  0  0  0  0  0  0  0  0  0
   -0.3768    0.1677    0.0000 C   0  0  0  0  0  0  0  0  0  0  0  0
    3.0465    1.7719    0.0000 O   0  0  0  0  0  0  0  0  0  0  0  0
   -3.0465   -1.7719    0.0000 O   0  0  0  0  0  0  0  0  0  0  0  0
  3  1  1  0
  4  2  1  0
  9  5  2  0
 10  6  1  0
 11  7  2  0
 12  8  1  0
 13  5  1  0
 13  6  2  0
 14  7  1  0
 14  8  2  0
 15  9  1  0
 15 10  2  0
 16 11  1  0
 16 12  2  0
 17  3  2  0
 17 13  1  0
 18  4  2  0
 18 14  1  0
 18 17  1  0
 19 15  1  0
 20 16  1  0
M  END
>  <DRUGBANK_ID>  (1) 
DB00890

>  <SECONDARY_ACCESSION_NUMBERS>  (1) 
APRD00917

>  <COMMON_NAME>  (1) 
Dienestrol

>  <CAS_NUMBER>  (1) 
13029-44-2

>  <UNII>  (1) 
RRW32X4U1F

>  <SYNONYMS>  (1) 
4,4'-Hydroxy-γ,δ-diphenyl-β,δ-hexadiene; alpha-dienestrol diacetate; Cycladiene; Dehydrostilbestrol; Dienestrol; Diènestrol; Dienestrolum; p,p'-(Diethylideneethylene)diphenol

$$$$
