
     RDKit          2D

 29 28  0  0  0  0  0  0  0  0999 V2000
   -7.5026   -0.3921    0.0000 O   0  0  0  0  0  0  0  0  0  0  0  0
   -6.7867    0.0178    0.0000 C   0  0  0  0  0  0  0  0  0  0  0  0
   -6.0737   -0.3972    0.0000 C   0  0  0  0  0  0  0  0  0  0  0  0
   -5.3576    0.0127    0.0000 C   0  0  0  0  0  0  0  0  0  0  0  0
   -4.6447   -0.4023    0.0000 C   0  0  0  0  0  0  0  0  0  0  0  0
   -3.9288    0.0076    0.0000 C   0  0  0  0  0  0  0  0  0  0  0  0
   -3.2158   -0.4074    0.0000 N   0  0  0  0  0  0  0  0  0  0  0  0
   -2.4998    0.0025    0.0000 C   0  0  0  0  0  0  0  0  0  0  0  0
   -1.7869   -0.4125    0.0000 C   0  0  0  0  0  0  0  0  0  0  0  0
   -1.0709   -0.0025    0.0000 N   0  0  0  0  0  0  0  0  0  0  0  0
   -0.3580   -0.4175    0.0000 C   0  0  0  0  0  0  0  0  0  0  0  0
    0.3580   -0.0076    0.0000 C   0  0  0  0  0  0  0  0  0  0  0  0
    1.0710   -0.4227    0.0000 N   0  0  0  0  0  0  0  0  0  0  0  0
    1.7868   -0.0127    0.0000 C   0  0  0  0  0  0  0  0  0  0  0  0
    2.4999   -0.4278    0.0000 C   0  0  0  0  0  0  0  0  0  0  0  0
    3.2157   -0.0179    0.0000 C   0  0  0  0  0  0  0  0  0  0  0  0
    3.9288   -0.4329    0.0000 N   0  0  0  0  0  0  0  0  0  0  0  0
    4.6446   -0.0229    0.0000 C   0  0  0  0  0  0  0  0  0  0  0  0
    5.3576   -0.4379    0.0000 C   0  0  0  0  0  0  0  0  0  0  0  0
    6.0736   -0.0281    0.0000 C   0  0  0  0  0  0  0  0  0  0  0  0
    6.7867   -0.4431    0.0000 C   0  0  0  0  0  0  0  0  0  0  0  0
    7.5025   -0.0332    0.0000 N   0  0  0  0  0  0  0  0  0  0  0  0
   -6.7837    0.8428    0.0000 O   0  0  0  0  0  0  0  0  0  0  0  0
   -6.0766   -1.2221    0.0000 N   0  0  0  0  0  0  0  0  0  0  0  0
   -3.9258    0.8326    0.0000 O   0  0  0  0  0  0  0  0  0  0  0  0
   -2.4969    0.8275    0.0000 C   0  0  0  0  0  0  0  0  0  0  0  0
   -1.7810    1.2374    0.0000 S   0  0  0  0  0  0  0  0  0  0  0  0
   -1.7899   -1.2374    0.0000 O   0  0  0  0  0  0  0  0  0  0  0  0
    0.3608    0.8173    0.0000 O   0  0  0  0  0  0  0  0  0  0  0  0
  2  1  1  0
  3  2  1  0
  3 24  1  6
  4  3  1  0
  5  4  1  0
  6  5  1  0
  7  6  1  0
  8  7  1  0
  8 26  1  1
  9  8  1  0
 10  9  1  0
 11 10  1  0
 12 11  1  0
 13 12  1  0
 14 13  1  0
 15 14  1  0
 16 15  1  0
 17 16  1  0
 18 17  1  0
 19 18  1  0
 20 19  1  0
 21 20  1  0
 22 21  1  0
 23  2  2  0
 25  6  2  0
 27 26  1  0
 28  9  2  0
 29 12  2  0
M  END
>  <DRUGBANK_ID>  (1) 
DB03295

>  <SECONDARY_ACCESSION_NUMBERS>  (1) 
EXPT03120

>  <COMMON_NAME>  (1) 
Glutathionylspermidine

>  <CAS_NUMBER>  (1) 
33932-35-3

>  <SYNONYMS>  (1) 
N'-Glutathionylspermidine disulfide; N1-(gamma-L-Glutamyl-L-cysteinyl-glycyl)-spermidine

$$$$
