
     RDKit          2D

 35 40  0  0  0  0  0  0  0  0999 V2000
   -0.3436    0.7746    0.0000 C   0  0  0  0  0  0  0  0  0  0  0  0
   -1.0581    0.3621    0.0000 C   0  0  0  0  0  0  0  0  0  0  0  0
   -1.0581   -0.4628    0.0000 C   0  0  0  0  0  0  0  0  0  0  0  0
   -0.3436   -0.8753    0.0000 C   0  0  0  0  0  0  0  0  0  0  0  0
    0.3708   -0.4628    0.0000 C   0  0  0  0  0  0  0  0  0  0  0  0
    0.3708    0.3621    0.0000 C   0  0  0  0  0  0  0  0  0  0  0  0
   -1.8427   -0.7177    0.0000 C   0  0  0  0  0  0  0  0  0  0  0  0
   -2.3276   -0.0503    0.0000 N   0  0  0  0  0  0  0  0  0  0  0  0
   -1.8428    0.6170    0.0000 O   0  0  0  0  0  0  0  0  0  0  0  0
   -0.3436    1.5996    0.0000 F   0  0  0  0  0  0  0  0  0  0  0  0
    1.0852    0.7746    0.0000 N   0  0  0  0  0  0  0  0  0  0  0  0
    1.7997    0.3622    0.0000 C   0  0  0  0  0  0  0  0  0  0  0  0
    1.7997   -0.4627    0.0000 C   0  0  0  0  0  0  0  0  0  0  0  0
    1.0852   -0.8753    0.0000 C   0  0  0  0  0  0  0  0  0  0  0  0
    1.0852    1.5997    0.0000 C   0  0  0  0  0  0  0  0  0  0  0  0
    1.7997    2.0122    0.0000 C   0  0  0  0  0  0  0  0  0  0  0  0
    2.5141    1.5997    0.0000 O   0  0  0  0  0  0  0  0  0  0  0  0
    2.5142    0.7747    0.0000 C   0  0  0  0  0  0  0  0  0  0  0  0
    3.1800   -0.8326    0.0000 N   0  0  0  0  0  0  0  0  0  0  0  0
    2.5966   -0.2492    0.0000 C   0  0  0  0  0  0  0  0  0  0  0  0
    1.5862   -1.2596    0.0000 C   0  0  0  0  0  0  0  0  0  0  0  0
    2.1696   -1.8430    0.0000 N   0  0  0  0  0  0  0  0  0  0  0  0
    2.9665   -1.6295    0.0000 C   0  0  0  0  0  0  0  0  0  0  0  0
    3.3111    0.9882    0.0000 C   0  0  0  0  0  0  0  0  0  0  0  0
    3.0091    0.4652    0.0000 O   0  0  0  0  0  0  0  0  0  0  0  0
    3.5498   -2.2128    0.0000 O   0  0  0  0  0  0  0  0  0  0  0  0
    0.7893   -1.4732    0.0000 O   0  0  0  0  0  0  0  0  0  0  0  0
    1.7996    2.8372    0.0000 C   0  0  0  0  0  0  0  0  0  0  0  0
   -2.0977   -1.5024    0.0000 N   0  0  0  0  0  0  0  0  0  0  0  0
   -2.8822   -1.7573    0.0000 C   0  0  0  0  0  0  0  0  0  0  0  0
   -2.8822   -2.5823    0.0000 O   0  0  0  0  0  0  0  0  0  0  0  0
   -2.0977   -2.8372    0.0000 C   0  0  0  0  0  0  0  0  0  0  0  0
   -1.6127   -2.1698    0.0000 C   0  0  0  0  0  0  0  0  0  0  0  0
   -3.5498   -1.2724    0.0000 O   0  0  0  0  0  0  0  0  0  0  0  0
   -0.7877   -2.1698    0.0000 C   0  0  0  0  0  0  0  0  0  0  0  0
  1  2  2  0
  1  6  1  0
  1 10  1  0
  2  3  1  0
  2  9  1  0
  3  4  2  0
  3  7  1  0
  4  5  1  0
  5  6  2  0
  6 11  1  0
  7  8  2  0
  7 29  1  0
  8  9  1  0
 11 15  1  0
 12 13  1  6
 12 11  1  0
 13 14  1  0
 13 21  1  0
 14  5  1  0
 15 16  1  0
 16 17  1  0
 16 28  1  1
 17 18  1  0
 18 12  1  0
 18 24  1  1
 19 20  1  0
 20 13  1  0
 20 25  2  0
 21 22  1  0
 21 27  2  0
 22 23  1  0
 23 19  1  0
 23 26  2  0
 29 30  1  0
 29 33  1  0
 30 31  1  0
 30 34  2  0
 31 32  1  0
 32 33  1  0
 33 35  1  1
M  END
>  <DRUGBANK_ID>  (1) 
DB12817

>  <COMMON_NAME>  (1) 
Zoliflodacin

>  <CAS_NUMBER>  (1) 
1620458-09-4

>  <UNII>  (1) 
FWL2263R77

>  <SYNONYMS>  (1) 
Zoliflodacin

$$$$
