BPY
     RDKit          2D

 14 15  0  0  0  0  0  0  0  0999 V2000
   -1.1069    0.3918    0.0000 C   0  0  0  0  0  0  0  0  0  0  0  0
   -0.3924   -0.0207    0.0000 C   0  0  0  0  0  0  0  0  0  0  0  0
   -0.3924   -0.8457    0.0000 C   0  0  0  0  0  0  0  0  0  0  0  0
   -1.1069   -1.2582    0.0000 C   0  0  0  0  0  0  0  0  0  0  0  0
   -1.8213   -0.8457    0.0000 C   0  0  0  0  0  0  0  0  0  0  0  0
   -1.8213   -0.0207    0.0000 C   0  0  0  0  0  0  0  0  0  0  0  0
    0.3221    0.3918    0.0000 C   0  0  0  0  0  0  0  0  0  0  0  0
    0.3221    1.2168    0.0000 C   0  0  0  0  0  0  0  0  0  0  0  0
    1.0366    1.6293    0.0000 C   0  0  0  0  0  0  0  0  0  0  0  0
    1.7510    1.2168    0.0000 C   0  0  0  0  0  0  0  0  0  0  0  0
    1.7510    0.3918    0.0000 C   0  0  0  0  0  0  0  0  0  0  0  0
    1.0366   -0.0207    0.0000 C   0  0  0  0  0  0  0  0  0  0  0  0
   -1.1069   -2.0832    0.0000 O   0  0  0  0  0  0  0  0  0  0  0  0
    0.3221   -1.2582    0.0000 O   0  0  0  0  0  0  0  0  0  0  0  0
  1  2  2  0
  1  6  1  0
  2  3  1  0
  2  7  1  0
  3  4  2  0
  3 14  1  0
  4  5  1  0
  4 13  1  0
  5  6  2  0
  7  8  2  0
  7 12  1  0
  8  9  1  0
  9 10  2  0
 10 11  1  0
 11 12  2  0
M  END
>  <DRUGBANK_ID>  (1) 
DB02923

>  <SECONDARY_ACCESSION_NUMBERS>  (1) 
EXPT00746

>  <COMMON_NAME>  (1) 
Biphenyl-2,3-Diol

>  <CAS_NUMBER>  (1) 
1133-63-7

>  <UNII>  (1) 
XQT8N5388Z

$$$$
