LJ4
     RDKit          2D

 16 17  0  0  0  0  0  0  0  0999 V2000
    1.4592   -0.5963    0.0000 C   0  0  0  0  0  0  0  0  0  0  0  0
    2.1737   -1.0088    0.0000 C   0  0  0  0  0  0  0  0  0  0  0  0
    2.8882   -0.5963    0.0000 Br  0  0  0  0  0  0  0  0  0  0  0  0
    2.1737   -1.8338    0.0000 C   0  0  0  0  0  0  0  0  0  0  0  0
    2.8882   -2.2463    0.0000 O   0  0  0  0  0  0  0  0  0  0  0  0
    1.4592   -2.2463    0.0000 C   0  0  0  0  0  0  0  0  0  0  0  0
    1.4592   -3.0713    0.0000 Br  0  0  0  0  0  0  0  0  0  0  0  0
    0.7448   -1.8338    0.0000 C   0  0  0  0  0  0  0  0  0  0  0  0
    0.7448   -1.0088    0.0000 C   0  0  0  0  0  0  0  0  0  0  0  0
    0.0303   -0.5963    0.0000 O   0  0  0  0  0  0  0  0  0  0  0  0
    0.0303    0.2287    0.0000 C   0  0  0  0  0  0  0  0  0  0  0  0
   -0.6842    0.6412    0.0000 C   0  0  0  0  0  0  0  0  0  0  0  0
   -0.6842    1.4662    0.0000 C   0  0  0  0  0  0  0  0  0  0  0  0
    0.0303    1.8787    0.0000 C   0  0  0  0  0  0  0  0  0  0  0  0
    0.7448    1.4662    0.0000 C   0  0  0  0  0  0  0  0  0  0  0  0
    0.7448    0.6412    0.0000 C   0  0  0  0  0  0  0  0  0  0  0  0
  1  2  2  0
  1  9  1  0
  2  3  1  0
  2  4  1  0
  4  5  1  0
  4  6  2  0
  6  7  1  0
  6  8  1  0
  8  9  2  0
  9 10  1  0
 10 11  1  0
 11 12  2  0
 11 16  1  0
 12 13  1  0
 13 14  2  0
 14 15  1  0
 15 16  2  0
M  END
>  <DRUGBANK_ID>  (1) 
DB08103

>  <COMMON_NAME>  (1) 
2,6-dibromo-4-phenoxyphenol

$$$$
