
     RDKit          2D

 31 34  0  0  0  0  0  0  0  0999 V2000
    2.8709    0.1400    0.0000 C   0  0  0  0  0  0  0  0  0  0  0  0
    3.5029   -0.3902    0.0000 C   0  0  0  0  0  0  0  0  0  0  0  0
    4.2781   -0.1080    0.0000 C   0  0  0  0  0  0  0  0  0  0  0  0
    3.0141    0.9524    0.0000 O   0  0  0  0  0  0  0  0  0  0  0  0
    2.0956   -0.1421    0.0000 N   0  0  0  0  0  0  0  0  0  0  0  0
    1.9523   -0.9546    0.0000 C   0  0  0  0  0  0  0  0  0  0  0  0
    2.5844   -1.4849    0.0000 C   0  0  0  0  0  0  0  0  0  0  0  0
    2.4411   -2.2973    0.0000 C   0  0  0  0  0  0  0  0  0  0  0  0
    1.6658   -2.5795    0.0000 C   0  0  0  0  0  0  0  0  0  0  0  0
    1.0338   -2.0492    0.0000 C   0  0  0  0  0  0  0  0  0  0  0  0
    1.1771   -1.2368    0.0000 C   0  0  0  0  0  0  0  0  0  0  0  0
   -0.5655    0.7063    0.0000 N   0  0  0  0  0  0  0  0  0  0  0  0
   -0.1531   -0.0081    0.0000 C   0  0  0  0  0  0  0  0  0  0  0  0
    0.6720   -0.0082    0.0000 C   0  0  0  0  0  0  0  0  0  0  0  0
    1.0845    0.7063    0.0000 C   0  0  0  0  0  0  0  0  0  0  0  0
    0.6720    1.4208    0.0000 C   0  0  0  0  0  0  0  0  0  0  0  0
   -0.1530    1.4208    0.0000 C   0  0  0  0  0  0  0  0  0  0  0  0
    1.7165    1.2367    0.0000 C   0  0  0  0  0  0  0  0  0  0  0  0
    1.5731    2.0490    0.0000 C   0  0  0  0  0  0  0  0  0  0  0  0
    2.2051    2.5795    0.0000 C   0  0  0  0  0  0  0  0  0  0  0  0
    2.9804    2.2971    0.0000 C   0  0  0  0  0  0  0  0  0  0  0  0
    3.1236    1.4847    0.0000 C   0  0  0  0  0  0  0  0  0  0  0  0
    2.4916    0.9544    0.0000 C   0  0  0  0  0  0  0  0  0  0  0  0
   -1.3904    0.7062    0.0000 C   0  0  0  0  0  0  0  0  0  0  0  0
   -1.8029    1.4208    0.0000 C   0  0  0  0  0  0  0  0  0  0  0  0
   -2.6280    1.4208    0.0000 C   0  0  0  0  0  0  0  0  0  0  0  0
   -3.0406    0.7062    0.0000 C   0  0  0  0  0  0  0  0  0  0  0  0
   -3.8656    0.7061    0.0000 C   0  0  0  0  0  0  0  0  0  0  0  0
   -4.2780    1.4206    0.0000 C   0  0  0  0  0  0  0  0  0  0  0  0
   -3.8656    2.1352    0.0000 C   0  0  0  0  0  0  0  0  0  0  0  0
   -3.0405    2.1351    0.0000 C   0  0  0  0  0  0  0  0  0  0  0  0
  1  2  1  0
  1  4  2  0
  1  5  1  0
  2  3  1  0
  5  6  1  0
  5 15  1  0
  6  7  2  0
  6 11  1  0
  7  8  1  0
  8  9  2  0
  9 10  1  0
 10 11  2  0
 12 13  1  0
 12 17  1  0
 12 24  1  0
 13 14  1  0
 14 15  1  0
 15 16  1  0
 15 18  1  0
 16 17  1  0
 18 19  2  0
 18 23  1  0
 19 20  1  0
 20 21  2  0
 21 22  1  0
 22 23  2  0
 24 25  1  0
 25 26  1  0
 26 27  2  0
 26 31  1  0
 27 28  1  0
 28 29  2  0
 29 30  1  0
 30 31  2  0
M  END
>  <DRUGBANK_ID>  (1) 
DB09168

>  <COMMON_NAME>  (1) 
4-Phenylfentanyl

>  <CAS_NUMBER>  (1) 
120448-97-7

>  <UNII>  (1) 
L9P31JAO37

>  <SYNONYMS>  (1) 
N-(1-Phenethyl-4-phenyl-4-piperidyl)-N-phenyl-propanamide

$$$$
