MBP
     RDKit          2D

 17 18  0  0  0  0  0  0  0  0999 V2000
    1.7320    1.1235    0.0000 C   0  0  0  0  0  0  0  0  0  0  0  0
    2.4465   -0.1140    0.0000 C   0  0  0  0  0  0  0  0  0  0  0  0
    1.7320   -0.5265    0.0000 C   0  0  0  0  0  0  0  0  0  0  0  0
   -1.1258   -0.5265    0.0000 C   0  0  0  0  0  0  0  0  0  0  0  0
   -1.1258   -1.3515    0.0000 O   0  0  0  0  0  0  0  0  0  0  0  0
   -2.5548   -0.5265    0.0000 C   0  0  0  0  0  0  0  0  0  0  0  0
   -1.8403   -0.1140    0.0000 C   0  0  0  0  0  0  0  0  0  0  0  0
   -1.8403    0.7110    0.0000 C   0  0  0  0  0  0  0  0  0  0  0  0
    3.0596   -0.6660    0.0000 N   0  0  0  0  0  0  0  0  0  0  0  0
    2.4465    0.7110    0.0000 N   0  0  0  0  0  0  0  0  0  0  0  0
    1.7320    1.9485    0.0000 N   0  0  0  0  0  0  0  0  0  0  0  0
    1.0176    0.7110    0.0000 N   0  0  0  0  0  0  0  0  0  0  0  0
    1.0176   -0.1140    0.0000 C   0  0  0  0  0  0  0  0  0  0  0  0
    0.3031   -0.5265    0.0000 O   0  0  0  0  0  0  0  0  0  0  0  0
   -0.4114   -0.1140    0.0000 C   0  0  0  0  0  0  0  0  0  0  0  0
    1.9036   -1.3334    0.0000 N   0  0  0  0  0  0  0  0  0  0  0  0
    2.7241   -1.4197    0.0000 C   0  0  0  0  0  0  0  0  0  0  0  0
  1 10  2  0
  1 11  1  0
  1 12  1  0
  2  3  2  0
  2  9  1  0
  2 10  1  0
  3 13  1  0
  3 16  1  0
  4  5  2  0
  4  7  1  0
  4 15  1  0
  6  7  1  0
  7  8  1  0
  9 17  2  0
 12 13  2  0
 13 14  1  0
 14 15  1  0
 16 17  1  0
M  END
>  <DRUGBANK_ID>  (1) 
DB03663

>  <SECONDARY_ACCESSION_NUMBERS>  (1) 
EXPT02125

>  <COMMON_NAME>  (1) 
1-[(2-Amino-6,9-Dihydro-1h-Purin-6-Yl)Oxy]-3-Methyl-2-Butanol

$$$$
