
     RDKit          2D

 12 11  0  0  0  0  0  0  0  0999 V2000
    2.1434   -0.2062    0.0000 C   0  0  0  0  0  0  0  0  0  0  0  0
    1.4289   -0.6187    0.0000 C   0  0  0  0  0  0  0  0  0  0  0  0
    0.7145   -0.2062    0.0000 C   0  0  0  0  0  0  0  0  0  0  0  0
   -1.4289   -0.6187    0.0000 C   0  0  0  0  0  0  0  0  0  0  0  0
    0.0000   -0.6187    0.0000 C   0  0  0  0  0  0  0  0  0  0  0  0
   -0.7145   -0.2062    0.0000 C   0  0  0  0  0  0  0  0  0  0  0  0
   -2.8579   -0.6187    0.0000 C   0  0  0  0  0  0  0  0  0  0  0  0
   -2.1434   -0.2062    0.0000 C   0  0  0  0  0  0  0  0  0  0  0  0
   -2.1434    0.6187    0.0000 C   0  0  0  0  0  0  0  0  0  0  0  0
    0.7145    0.6187    0.0000 C   0  0  0  0  0  0  0  0  0  0  0  0
    2.1434    0.6187    0.0000 O   0  0  0  0  0  0  0  0  0  0  0  0
   -2.8579    0.2062    0.0000 O   0  0  0  0  0  0  0  0  0  0  0  0
  1 11  2  0
  1  2  1  0
  3  2  1  0
  3 10  1  0
  5  3  1  0
  6  4  1  0
  6  5  1  0
  8  4  1  0
  8  7  1  0
  8 12  1  0
  9  8  1  0
M  END
>  <DRUGBANK_ID>  (1) 
DB14187

>  <COMMON_NAME>  (1) 
Hydroxycitronellal

>  <CAS_NUMBER>  (1) 
107-75-5

>  <UNII>  (1) 
8SQ0VA4YUR

>  <SYNONYMS>  (1) 
3,7-dimethyl-7-hydroxyoctan-1-al; 3,7-Dimethyl-7-hydroxyoctanal; 7-hydroxy-3,7-dimethyloctanal; 7-hydroxycitronellal; Citronellal hydrate; Cyclalia; Cyclosia; Fixol; hydroxy citronellal; Laurine; Lilyl aldehyde; Muguet synthetic; Muguettine principle; Oxydihydrocitronellal; Phixia

$$$$
