
     RDKit          2D

  1  0  0  0  0  0  0  0  0  0999 V2000
    0.0000    0.0000    0.0000 Y   0  0  0  0  0 15  0  0  0  0  0  0
M  ISO  1   1  90
M  END
>  <DRUGBANK_ID>  (1) 
DB13076

>  <COMMON_NAME>  (1) 
Yttrium Y-90

>  <CAS_NUMBER>  (1) 
10098-91-6

>  <UNII>  (1) 
1K8M7UR6O1

>  <SYNONYMS>  (1) 
Yttrium (90 Y); Yttrium (90Y); Yttrium Y 90; Yttrium-90

$$$$
