
     RDKit          2D

 28 30  0  0  0  0  0  0  0  0999 V2000
    3.1564    0.0553    0.0000 C   0  0  0  0  0  0  0  0  0  0  0  0
    2.3314    0.0553    0.0000 C   0  0  0  0  0  0  0  0  0  0  0  0
    1.9189   -0.6592    0.0000 N   0  0  0  0  0  0  0  0  0  0  0  0
    2.3314   -1.3736    0.0000 C   0  0  0  0  0  0  0  0  0  0  0  0
    3.1564   -1.3736    0.0000 C   0  0  0  0  0  0  0  0  0  0  0  0
    3.5689   -0.6592    0.0000 S   0  0  0  0  0  0  0  0  0  0  0  0
    1.9189    0.7698    0.0000 C   0  0  0  0  0  0  0  0  0  0  0  0
    1.0939    0.7698    0.0000 N   0  0  0  0  0  0  0  0  0  0  0  0
    1.0939   -0.6592    0.0000 S   0  0  0  0  0  0  0  0  0  0  0  0
    1.0939   -1.4842    0.0000 O   0  0  0  0  0  0  0  0  0  0  0  0
    1.0939    0.1657    0.0000 O   0  0  0  0  0  0  0  0  0  0  0  0
    0.2689   -0.6592    0.0000 C   0  0  0  0  0  0  0  0  0  0  0  0
   -0.1435   -1.3736    0.0000 C   0  0  0  0  0  0  0  0  0  0  0  0
   -0.9685   -1.3736    0.0000 C   0  0  0  0  0  0  0  0  0  0  0  0
   -1.3810   -0.6592    0.0000 C   0  0  0  0  0  0  0  0  0  0  0  0
   -0.9685    0.0553    0.0000 C   0  0  0  0  0  0  0  0  0  0  0  0
   -0.1435    0.0553    0.0000 C   0  0  0  0  0  0  0  0  0  0  0  0
   -2.2060   -0.6592    0.0000 O   0  0  0  0  0  0  0  0  0  0  0  0
   -2.6185    1.4842    0.0000 C   0  0  0  0  0  0  0  0  0  0  0  0
   -2.2060    0.7698    0.0000 C   0  0  0  0  0  0  0  0  0  0  0  0
   -2.6185    0.0553    0.0000 C   0  0  0  0  0  0  0  0  0  0  0  0
   -3.4435    0.0553    0.0000 C   0  0  0  0  0  0  0  0  0  0  0  0
   -3.8560    0.7698    0.0000 C   0  0  0  0  0  0  0  0  0  0  0  0
   -3.4435    1.4842    0.0000 N   0  0  0  0  0  0  0  0  0  0  0  0
    0.6814    1.4842    0.0000 O   0  0  0  0  0  0  0  0  0  0  0  0
    3.8561    0.4924    0.0000 C   0  0  0  0  0  0  0  0  0  0  0  0
    3.1852    0.8798    0.0000 C   0  0  0  0  0  0  0  0  0  0  0  0
    2.3314    1.4842    0.0000 O   0  0  0  0  0  0  0  0  0  0  0  0
  1  6  1  0
  1  2  1  0
  1 26  1  0
  1 27  1  0
  2  3  1  0
  2  7  1  1
  3  4  1  0
  3  9  1  0
  4  5  1  0
  5  6  1  0
  7  8  1  0
  7 28  2  0
  8 25  1  0
  9 10  2  0
  9 11  2  0
  9 12  1  0
 12 13  2  0
 12 17  1  0
 13 14  1  0
 14 15  2  0
 15 16  1  0
 15 18  1  0
 16 17  2  0
 18 21  1  0
 19 20  2  0
 19 24  1  0
 20 21  1  0
 21 22  2  0
 22 23  1  0
 23 24  2  0
M  END
>  <DRUGBANK_ID>  (1) 
DB05100

>  <COMMON_NAME>  (1) 
Prinomastat

>  <CAS_NUMBER>  (1) 
192329-42-3

>  <UNII>  (1) 
10T6626FRK

>  <SYNONYMS>  (1) 
Prinomastat; Prinomastatum

$$$$
