
     RDKit          2D

 37 41  0  0  0  0  0  0  0  0999 V2000
   -1.2566    1.6199    0.0000 P   0  0  0  0  0  0  0  0  0  0  0  0
   -1.7886   -1.2288    0.0000 O   0  0  0  0  0  0  0  0  0  0  0  0
   -0.4120    4.2356    0.0000 O   0  0  0  0  0  0  0  0  0  0  0  0
   -1.5102    2.4049    0.0000 O   0  0  0  0  0  0  0  0  0  0  0  0
   -1.0030    0.8348    0.0000 O   0  0  0  0  0  0  0  0  0  0  0  0
    0.1498   -0.3347    0.0000 O   0  0  0  0  0  0  0  0  0  0  0  0
   -1.9651    4.9818    0.0000 O   0  0  0  0  0  0  0  0  0  0  0  0
   -0.4715    1.8735    0.0000 O   0  0  0  0  0  0  0  0  0  0  0  0
   -2.0416    1.3664    0.0000 O   0  0  0  0  0  0  0  0  0  0  0  0
    0.7126    5.2508    0.0000 O   0  0  0  0  0  0  0  0  0  0  0  0
   -1.5611   -2.6812    0.0000 N   0  0  0  0  0  0  0  0  0  0  0  0
    1.0073    3.8526    0.0000 N   0  0  0  0  0  0  0  0  0  0  0  0
   -1.5611   -4.0090    0.0000 N   0  0  0  0  0  0  0  0  0  0  0  0
   -3.0562   -2.5201    0.0000 N   0  0  0  0  0  0  0  0  0  0  0  0
    2.0708    4.8069    0.0000 N   0  0  0  0  0  0  0  0  0  0  0  0
   -3.7706   -3.7576    0.0000 N   0  0  0  0  0  0  0  0  0  0  0  0
   -3.0562   -4.9951    0.0000 N   0  0  0  0  0  0  0  0  0  0  0  0
    3.4290    4.3630    0.0000 N   0  0  0  0  0  0  0  0  0  0  0  0
   -0.9570    3.0171    0.0000 C   0  0  0  0  0  0  0  0  0  0  0  0
   -1.3025   -0.5622    0.0000 C   0  0  0  0  0  0  0  0  0  0  0  0
   -0.5183   -0.8185    0.0000 C   0  0  0  0  0  0  0  0  0  0  0  0
   -1.1272    3.8243    0.0000 C   0  0  0  0  0  0  0  0  0  0  0  0
   -0.1367    2.9294    0.0000 C   0  0  0  0  0  0  0  0  0  0  0  0
   -0.5198   -1.6435    0.0000 C   0  0  0  0  0  0  0  0  0  0  0  0
   -1.3048   -1.8971    0.0000 C   0  0  0  0  0  0  0  0  0  0  0  0
    0.2000    3.6825    0.0000 C   0  0  0  0  0  0  0  0  0  0  0  0
   -1.5560    0.2227    0.0000 C   0  0  0  0  0  0  0  0  0  0  0  0
   -1.8803    4.1612    0.0000 C   0  0  0  0  0  0  0  0  0  0  0  0
   -2.3417   -2.9326    0.0000 C   0  0  0  0  0  0  0  0  0  0  0  0
   -1.0796   -3.3451    0.0000 C   0  0  0  0  0  0  0  0  0  0  0  0
    1.5583    3.2386    0.0000 C   0  0  0  0  0  0  0  0  0  0  0  0
    1.2636    4.6368    0.0000 C   0  0  0  0  0  0  0  0  0  0  0  0
   -2.3417   -3.7576    0.0000 C   0  0  0  0  0  0  0  0  0  0  0  0
    2.3655    3.4087    0.0000 C   0  0  0  0  0  0  0  0  0  0  0  0
   -3.0562   -4.1701    0.0000 C   0  0  0  0  0  0  0  0  0  0  0  0
    2.6218    4.1929    0.0000 C   0  0  0  0  0  0  0  0  0  0  0  0
   -3.7706   -2.9326    0.0000 C   0  0  0  0  0  0  0  0  0  0  0  0
  1  4  1  0
  1  5  1  0
  1  8  1  0
  1  9  2  0
  2 20  1  0
  2 25  1  0
  3 22  1  0
  3 26  1  0
  5 27  1  0
  7 28  1  0
 10 32  2  0
 11 29  1  0
 11 30  1  0
 12 31  1  0
 12 32  1  0
 13 30  2  0
 13 33  1  0
 14 29  1  0
 14 37  2  0
 15 32  1  0
 15 36  2  0
 16 35  2  0
 16 37  1  0
 17 35  1  0
 18 36  1  0
 19  4  1  6
 19 22  1  0
 19 23  1  0
 20 21  1  0
 20 27  1  6
 21  6  1  1
 21 24  1  0
 22 28  1  1
 23 26  1  0
 24 25  1  0
 25 11  1  6
 26 12  1  1
 29 33  2  0
 31 34  2  0
 33 35  1  0
 34 36  1  0
M  END
>  <DRUGBANK_ID>  (1) 
DB02573

>  <SECONDARY_ACCESSION_NUMBERS>  (1) 
EXPT00997

>  <COMMON_NAME>  (1) 
2'-deoxycytidine-2'-deoxyadenosine-3',5'-monophosphate

$$$$
