
     RDKit          2D

 22 23  0  0  0  0  0  0  0  0999 V2000
   -1.0717   -0.4125    0.0000 C   0  0  0  0  0  0  0  0  0  0  0  0
   -1.7861   -0.8250    0.0000 C   0  0  0  0  0  0  0  0  0  0  0  0
   -2.5007   -0.4125    0.0000 C   0  0  0  0  0  0  0  0  0  0  0  0
   -2.5007    0.4124    0.0000 C   0  0  0  0  0  0  0  0  0  0  0  0
   -1.7862    0.8249    0.0000 C   0  0  0  0  0  0  0  0  0  0  0  0
   -1.0717    0.4124    0.0000 C   0  0  0  0  0  0  0  0  0  0  0  0
    0.3572   -0.4125    0.0000 C   0  0  0  0  0  0  0  0  0  0  0  0
   -0.3572   -0.8250    0.0000 C   0  0  0  0  0  0  0  0  0  0  0  0
    0.3572    0.4124    0.0000 O   0  0  0  0  0  0  0  0  0  0  0  0
    1.0717   -0.8250    0.0000 O   0  0  0  0  0  0  0  0  0  0  0  0
   -3.2152    0.8249    0.0000 C   0  0  0  0  0  0  0  0  0  0  0  0
   -3.2152    1.6500    0.0000 C   0  0  0  0  0  0  0  0  0  0  0  0
   -3.9296    2.0625    0.0000 C   0  0  0  0  0  0  0  0  0  0  0  0
   -2.5007    2.0625    0.0000 C   0  0  0  0  0  0  0  0  0  0  0  0
   -0.3572   -1.6500    0.0000 C   0  0  0  0  0  0  0  0  0  0  0  0
    1.7861   -0.4125    0.0000 C   0  0  0  0  0  0  0  0  0  0  0  0
    2.5007   -0.8249    0.0000 C   0  0  0  0  0  0  0  0  0  0  0  0
    3.2151   -0.4124    0.0000 C   0  0  0  0  0  0  0  0  0  0  0  0
    3.9296   -0.8249    0.0000 C   0  0  0  0  0  0  0  0  0  0  0  0
    3.9296   -1.6500    0.0000 C   0  0  0  0  0  0  0  0  0  0  0  0
    3.2151   -2.0625    0.0000 C   0  0  0  0  0  0  0  0  0  0  0  0
    2.5007   -1.6500    0.0000 N   0  0  0  0  0  0  0  0  0  0  0  0
  1  2  2  0
  1  6  1  0
  1  8  1  0
  2  3  1  0
  3  4  2  0
  4  5  1  0
  4 11  1  0
  5  6  2  0
  7  8  1  0
  7  9  2  0
  7 10  1  0
  8 15  1  0
 10 16  1  0
 11 12  1  0
 12 13  1  0
 12 14  1  0
 16 17  1  0
 17 18  2  0
 17 22  1  0
 18 19  1  0
 19 20  2  0
 20 21  1  0
 21 22  2  0
M  END
>  <DRUGBANK_ID>  (1) 
DB16887

>  <COMMON_NAME>  (1) 
Ibuprofen piconol

>  <CAS_NUMBER>  (1) 
64622-45-3

>  <UNII>  (1) 
B0F91K5U4N

>  <SYNONYMS>  (1) 
Ibuprofen piconol

$$$$
