
     RDKit          2D

 16 17  0  0  1  0  0  0  0  0999 V2000
    1.3113    0.3601    0.0000 O   0  0  0  0  0  0  0  0  0  0  0  0
   -2.9871    0.6149    0.0000 O   0  0  0  0  0  0  0  0  0  0  0  0
   -0.0705   -1.4475    0.0000 O   0  0  0  0  0  0  0  0  0  0  0  0
   -1.1270   -1.5400    0.0000 O   0  0  0  0  0  0  0  0  0  0  0  0
    2.9871   -0.0401    0.0000 O   0  0  0  0  0  0  0  0  0  0  0  0
    2.6173   -1.4203    0.0000 O   0  0  0  0  0  0  0  0  0  0  0  0
   -0.4402   -0.0674    0.0000 C   0  0  0  0  0  0  0  0  0  0  0  0
   -0.8344    1.5400    0.0000 C   0  0  0  0  0  0  0  0  0  0  0  0
   -0.2268    0.7294    0.0000 C   0  0  0  0  0  0  0  0  0  0  0  0
    0.9659   -0.9292    0.0000 C   0  0  0  0  0  0  0  0  0  0  0  0
    1.6070   -0.4099    0.0000 C   0  0  0  0  0  0  0  0  0  0  0  0
   -2.3741    0.0630    0.0000 C   0  0  0  0  0  0  0  0  0  0  0  0
   -1.7067   -1.0930    0.0000 C   0  0  0  0  0  0  0  0  0  0  0  0
   -2.4603   -0.7573    0.0000 C   0  0  0  0  0  0  0  0  0  0  0  0
   -0.6537   -0.8642    0.0000 C   0  0  0  0  0  0  0  0  0  0  0  0
    2.4038   -0.6235    0.0000 C   0  0  0  0  0  0  0  0  0  0  0  0
  9  1  1  1
  1 11  1  0
  3 15  1  0
  4 15  2  0
  5 16  1  0
  6 16  2  0
  7  8  1  0
  7 10  1  0
  7 13  1  0
  7 15  1  1
  8  9  1  0
  9 12  1  0
 10 11  1  0
 11 16  1  6
 12  2  1  1
 12 14  1  0
 13 14  2  0
M  END
>  <DRUGBANK_ID>  (1) 
DB08648

>  <COMMON_NAME>  (1) 
8-Hydroxy-2-oxa-bicyclo[3.3.1]non-6-ene-3,5-dicarboxylic acid

$$$$
