M05
     RDKit          2D

 24 27  0  0  0  0  0  0  0  0999 V2000
   -3.7176   -5.1349    0.0000 N   0  0  0  0  0  0  0  0  0  0  0  0
   -4.4320   -4.7224    0.0000 C   0  0  0  0  0  0  0  0  0  0  0  0
   -4.2479   -2.8529    0.0000 C   0  0  0  0  0  0  0  0  0  0  0  0
   -3.7176   -3.4849    0.0000 C   0  0  0  0  0  0  0  0  0  0  0  0
   -3.1873   -2.8529    0.0000 N   0  0  0  0  0  0  0  0  0  0  0  0
   -3.0031   -4.7224    0.0000 C   0  0  0  0  0  0  0  0  0  0  0  0
   -5.0603   -2.9962    0.0000 C   0  0  0  0  0  0  0  0  0  0  0  0
   -5.3425   -3.7714    0.0000 C   0  0  0  0  0  0  0  0  0  0  0  0
   -6.1550   -3.9147    0.0000 C   0  0  0  0  0  0  0  0  0  0  0  0
   -6.6853   -3.2827    0.0000 C   0  0  0  0  0  0  0  0  0  0  0  0
   -7.4977   -3.4260    0.0000 Cl  0  0  0  0  0  0  0  0  0  0  0  0
   -6.4031   -2.5075    0.0000 C   0  0  0  0  0  0  0  0  0  0  0  0
   -5.5906   -2.3642    0.0000 C   0  0  0  0  0  0  0  0  0  0  0  0
   -3.7176   -5.9599    0.0000 C   0  0  0  0  0  0  0  0  0  0  0  0
   -3.0031   -6.3724    0.0000 N   0  0  0  0  0  0  0  0  0  0  0  0
   -3.0031   -7.1974    0.0000 C   0  0  0  0  0  0  0  0  0  0  0  0
   -3.7176   -7.6099    0.0000 N   0  0  0  0  0  0  0  0  0  0  0  0
   -4.4320   -7.1974    0.0000 C   0  0  0  0  0  0  0  0  0  0  0  0
   -5.2166   -7.4524    0.0000 N   0  0  0  0  0  0  0  0  0  0  0  0
   -5.7016   -6.7849    0.0000 C   0  0  0  0  0  0  0  0  0  0  0  0
   -5.2166   -6.1175    0.0000 C   0  0  0  0  0  0  0  0  0  0  0  0
   -4.4320   -3.8974    0.0000 C   0  0  0  0  0  0  0  0  0  0  0  0
   -3.0031   -3.8974    0.0000 C   0  0  0  0  0  0  0  0  0  0  0  0
   -4.4320   -6.3724    0.0000 C   0  0  0  0  0  0  0  0  0  0  0  0
  1  2  1  0
  1  6  1  0
  1 14  1  0
  2 22  1  0
  3  4  1  0
  3  7  1  0
  4  5  1  0
  4 22  1  0
  4 23  1  0
  6 23  1  0
  7  8  2  0
  7 13  1  0
  8  9  1  0
  9 10  2  0
 10 11  1  0
 10 12  1  0
 12 13  2  0
 14 15  2  0
 14 24  1  0
 15 16  1  0
 16 17  2  0
 17 18  1  0
 18 19  1  0
 18 24  2  0
 19 20  1  0
 20 21  2  0
 21 24  1  0
M  CHG  1   5   1
M  END
>  <DRUGBANK_ID>  (1) 
DB08150

>  <COMMON_NAME>  (1) 
4-(4-chlorobenzyl)-1-(7H-pyrrolo[2,3-d]pyrimidin-4-yl)piperidin-4-aminium

$$$$
