
     RDKit          2D

 16 15  0  0  1  0  0  0  0  0999 V2000
   21.4432  -17.2748    0.0000 C   0  0  0  0  0  0  0  0  0  0  0  0
   22.1577  -16.8623    0.0000 N   0  0  0  0  0  0  0  0  0  0  0  0
   20.7287  -16.8623    0.0000 C   0  0  0  0  0  0  0  0  0  0  0  0
   21.4432  -18.0998    0.0000 C   0  0  0  0  0  0  0  0  0  0  0  0
   22.8721  -17.2748    0.0000 C   0  0  0  0  0  0  0  0  0  0  0  0
   20.0142  -17.2748    0.0000 O   0  0  0  0  0  0  0  0  0  0  0  0
   20.7287  -16.0373    0.0000 O   0  0  0  0  0  0  0  0  0  0  0  0
   20.7287  -18.5123    0.0000 S   0  0  0  0  0  0  0  0  0  0  0  0
   23.5867  -16.8623    0.0000 C   0  0  0  0  0  0  0  0  0  0  0  0
   22.8721  -18.0998    0.0000 O   0  0  0  0  0  0  0  0  0  0  0  0
   24.3011  -17.2748    0.0000 C   0  0  0  0  0  0  0  0  0  0  0  0
   25.0156  -16.8623    0.0000 C   0  0  0  0  0  0  0  0  0  0  0  0
   25.7301  -17.2748    0.0000 C   0  0  0  0  0  0  0  0  0  0  0  0
   25.0156  -16.0373    0.0000 N   0  0  0  0  0  0  0  0  0  0  0  0
   26.4446  -16.8623    0.0000 O   0  0  0  0  0  0  0  0  0  0  0  0
   25.7301  -18.0998    0.0000 O   0  0  0  0  0  0  0  0  0  0  0  0
  1  2  1  0
  1  3  1  0
  1  4  1  1
  2  5  1  0
  3  6  1  0
  3  7  2  0
  4  8  1  0
  5  9  1  0
  5 10  2  0
  9 11  1  0
 11 12  1  0
 12 13  1  0
 12 14  1  6
 13 15  1  0
 13 16  2  0
M  END
>  <DRUGBANK_ID>  (1) 
DB03408

>  <SECONDARY_ACCESSION_NUMBERS>  (1) 
EXPT00168

>  <COMMON_NAME>  (1) 
gamma-Glutamylcysteine

>  <CAS_NUMBER>  (1) 
636-58-8

>  <UNII>  (1) 
M984VJS48P

>  <SYNONYMS>  (1) 
5-L-Glutamyl-L-cysteine; gamma-Glu-Cys; gamma-L-Glutamyl-L-cysteine; Glu(-Cys); L-gamma-glutamyl-L-cysteine; L-gamma-Glutamylcysteine; Î³GluCys

$$$$
