
     RDKit          2D

 29 30  0  0  0  0  0  0  0  0999 V2000
    1.0728    0.8265    0.0000 C   0  0  0  0  0  0  0  0  0  0  0  0
    1.7903    0.4133    0.0000 N   0  0  0  0  0  0  0  0  0  0  0  0
   -1.0696    0.4099    0.0000 C   0  0  0  0  0  0  0  0  0  0  0  0
    0.3587    0.4099    0.0000 C   0  0  0  0  0  0  0  0  0  0  0  0
   -0.3554    0.8200    0.0000 N   0  0  0  0  0  0  0  0  0  0  0  0
    3.2186    0.4133    0.0000 C   0  0  0  0  0  0  0  0  0  0  0  0
    2.5044    0.8265    0.0000 C   0  0  0  0  0  0  0  0  0  0  0  0
    1.0728    1.6497    0.0000 O   0  0  0  0  0  0  0  0  0  0  0  0
    0.3620   -0.4133    0.0000 C   0  0  0  0  0  0  0  0  0  0  0  0
   -1.0696   -0.4133    0.0000 O   0  0  0  0  0  0  0  0  0  0  0  0
   -1.7837    0.8200    0.0000 O   0  0  0  0  0  0  0  0  0  0  0  0
    3.2186   -0.4099    0.0000 O   0  0  0  0  0  0  0  0  0  0  0  0
    1.0762   -0.8265    0.0000 C   0  0  0  0  0  0  0  0  0  0  0  0
    2.5044   -1.6497    0.0000 C   0  0  0  0  0  0  0  0  0  0  0  0
   -2.4978    0.4099    0.0000 C   0  0  0  0  0  0  0  0  0  0  0  0
    1.7903   -0.4133    0.0000 C   0  0  0  0  0  0  0  0  0  0  0  0
    1.0762   -1.6531    0.0000 C   0  0  0  0  0  0  0  0  0  0  0  0
    2.5044   -0.8200    0.0000 C   0  0  0  0  0  0  0  0  0  0  0  0
    1.7903   -2.0597    0.0000 C   0  0  0  0  0  0  0  0  0  0  0  0
    4.6468    0.4198    0.0000 F   0  0  0  0  0  0  0  0  0  0  0  0
    3.9328    0.8298    0.0000 C   0  0  0  0  0  0  0  0  0  0  0  0
   -3.2186    0.8200    0.0000 C   0  0  0  0  0  0  0  0  0  0  0  0
    3.2186   -2.0597    0.0000 O   0  0  0  0  0  0  0  0  0  0  0  0
    2.5011    1.6531    0.0000 C   0  0  0  0  0  0  0  0  0  0  0  0
   -3.9328    0.4099    0.0000 C   0  0  0  0  0  0  0  0  0  0  0  0
   -3.2186    1.6497    0.0000 C   0  0  0  0  0  0  0  0  0  0  0  0
   -3.9328    2.0597    0.0000 C   0  0  0  0  0  0  0  0  0  0  0  0
   -4.6468    0.8200    0.0000 C   0  0  0  0  0  0  0  0  0  0  0  0
   -4.6468    1.6497    0.0000 C   0  0  0  0  0  0  0  0  0  0  0  0
  2  1  1  0
  3  5  1  0
  4  1  1  0
  4  9  1  6
  5  4  1  0
  6  7  1  0
  7  2  1  0
  7 24  1  1
  8  1  2  0
 10  3  2  0
 11  3  1  0
 12  6  2  0
 13  9  1  0
 14 19  2  0
 14 18  1  0
 15 11  1  0
 16 13  1  0
 17 13  2  0
 18 16  2  0
 19 17  1  0
 20 21  1  0
 21  6  1  0
 22 15  1  0
 23 14  1  0
 25 22  2  0
 26 22  1  0
 27 26  2  0
 28 25  1  0
 29 27  1  0
 29 28  2  0
M  END
>  <DRUGBANK_ID>  (1) 
DB08775

>  <COMMON_NAME>  (1) 
Benzoyl-tyrosine-alanine-fluoro-methyl ketone

$$$$
