
     RDKit          2D

 14 14  0  0  0  0  0  0  0  0999 V2000
   -1.7861    2.4750    0.0000 C   0  0  0  0  0  0  0  0  0  0  0  0
   -0.3572    0.0000    0.0000 C   0  0  0  0  0  0  0  0  0  0  0  0
    1.7861   -1.2375    0.0000 C   0  0  0  0  0  0  0  0  0  0  0  0
    1.7861   -0.4125    0.0000 C   0  0  0  0  0  0  0  0  0  0  0  0
   -0.3572    0.8250    0.0000 C   0  0  0  0  0  0  0  0  0  0  0  0
    0.3572   -1.2375    0.0000 C   0  0  0  0  0  0  0  0  0  0  0  0
    0.3572   -0.4125    0.0000 C   0  0  0  0  0  0  0  0  0  0  0  0
    1.0717   -1.6500    0.0000 C   0  0  0  0  0  0  0  0  0  0  0  0
    1.0717    0.0000    0.0000 C   0  0  0  0  0  0  0  0  0  0  0  0
   -1.0717    1.2375    0.0000 C   0  0  0  0  0  0  0  0  0  0  0  0
    1.0717   -2.4750    0.0000 O   0  0  0  0  0  0  0  0  0  0  0  0
    1.0717    0.8250    0.0000 O   0  0  0  0  0  0  0  0  0  0  0  0
   -1.7861    0.8250    0.0000 O   0  0  0  0  0  0  0  0  0  0  0  0
   -1.0717    2.0625    0.0000 O   0  0  0  0  0  0  0  0  0  0  0  0
  4  3  2  0
  5  2  2  0
  7  2  1  0
  7  6  1  0
  8  3  1  0
  8  6  2  0
  9  4  1  0
  9  7  2  0
 10  5  1  0
 11  8  1  0
 12  9  1  0
 13 10  2  0
 14  1  1  0
 14 10  1  0
M  END
>  <DRUGBANK_ID>  (1) 
DB16769

>  <COMMON_NAME>  (1) 
Methyl 2,5-dihydroxycinnamate

>  <CAS_NUMBER>  (1) 
63177-57-1

>  <UNII>  (1) 
6LF2DGK4XM

>  <SYNONYMS>  (1) 
2,4-Dihydroxymethylcinnamate; Methyl-2,5-dihydroxycinnamate

$$$$
