
     RDKit          2D

 12 12  0  0  1  0  0  0  0  0999 V2000
    2.1434    1.2375    0.0000 C   0  0  0  0  0  0  0  0  0  0  0  0
    1.4289    0.8250    0.0000 C   0  0  0  0  0  0  0  0  0  0  0  0
    0.0000    0.8250    0.0000 C   0  0  0  0  0  0  0  0  0  0  0  0
    0.0000    0.0000    0.0000 C   0  0  0  0  0  0  0  0  0  0  0  0
    0.7145    1.2375    0.0000 C   0  0  0  0  0  0  0  0  0  0  0  0
    0.7145   -0.4125    0.0000 C   0  0  0  0  0  0  0  0  0  0  0  0
    2.8579    0.8250    0.0000 O   0  0  0  0  0  0  0  0  0  0  0  0
   -0.7145    1.2375    0.0000 O   0  0  0  0  0  0  0  0  0  0  0  0
   -0.7145   -0.4125    0.0000 O   0  0  0  0  0  0  0  0  0  0  0  0
    1.4289   -0.0000    0.0000 O   0  0  0  0  0  0  0  0  0  0  0  0
    0.7145    2.0625    0.0000 S   0  0  0  0  0  0  0  0  0  0  0  0
    0.7145   -1.2375    0.0000 S   0  0  0  0  0  0  0  0  0  0  0  0
  2  1  1  1
  3  8  1  1
  4  3  1  0
  4  9  1  6
  5  2  1  0
  5  3  1  0
  5 11  1  6
  6  4  1  0
  6 12  1  6
  7  1  1  0
 10  2  1  0
 10  6  1  0
M  END
>  <DRUGBANK_ID>  (1) 
DB01870

>  <SECONDARY_ACCESSION_NUMBERS>  (1) 
EXPT02092

>  <COMMON_NAME>  (1) 
1,4-dithio-alpha-D-glucopyranose

$$$$
