
     RDKit          2D

 11  8  0  0  0  0  0  0  0  0999 V2000
    0.4812   -0.5954    0.0000 C   0  0  0  0  0  0  0  0  0  0  0  0
    0.0688    0.1191    0.0000 C   0  0  0  0  0  0  0  0  0  0  0  0
    0.4813    0.8335    0.0000 O   0  0  0  0  0  0  0  0  0  0  0  0
   -0.7563    0.1191    0.0000 O   0  0  0  0  0  0  0  0  0  0  0  0
    1.3062   -0.5954    0.0000 N   0  0  0  0  0  0  0  0  0  0  0  0
    4.4884    0.5716    0.0000 C   0  0  0  0  0  0  0  0  0  0  0  0
    4.9009   -0.1429    0.0000 C   0  0  0  0  0  0  0  0  0  0  0  0
    5.7259   -0.1429    0.0000 O   0  0  0  0  0  0  0  0  0  0  0  0
    4.4884   -0.8574    0.0000 O   0  0  0  0  0  0  0  0  0  0  0  0
    3.6634    0.5716    0.0000 N   0  0  0  0  0  0  0  0  0  0  0  0
   -1.5813    0.1191    0.0000 Mg  0  0  0  0  0 15  0  0  0  0  0  0
  1  2  1  0
  1  5  1  0
  2  3  2  0
  2  4  1  0
  6  7  1  0
  6 10  1  0
  7  8  2  0
  7  9  1  0
M  CHG  3   4  -1   9  -1  11   2
M  END
>  <DRUGBANK_ID>  (1) 
DB11189

>  <COMMON_NAME>  (1) 
Magnesium glycinate

>  <CAS_NUMBER>  (1) 
14783-68-7

>  <UNII>  (1) 
IFN18A4Y6B

>  <SYNONYMS>  (1) 
Magnesium glycinate

$$$$
