
     RDKit          2D

 30 31  0  0  0  0  0  0  0  0999 V2000
   -6.2116   -2.1177    0.0000 C   0  0  0  0  0  0  0  0  0  0  0  0
   -5.4971   -1.7052    0.0000 C   0  0  0  0  0  0  0  0  0  0  0  0
   -4.7826   -2.1177    0.0000 C   0  0  0  0  0  0  0  0  0  0  0  0
   -4.0681   -1.7052    0.0000 C   0  0  0  0  0  0  0  0  0  0  0  0
   -3.3537   -2.1177    0.0000 C   0  0  0  0  0  0  0  0  0  0  0  0
   -2.6392   -1.7052    0.0000 C   0  0  0  0  0  0  0  0  0  0  0  0
   -1.9247   -2.1177    0.0000 C   0  0  0  0  0  0  0  0  0  0  0  0
   -1.2103   -1.7052    0.0000 C   0  0  0  0  0  0  0  0  0  0  0  0
   -0.4958   -2.1177    0.0000 N   0  0  0  0  0  0  0  0  0  0  0  0
   -0.4095   -2.9382    0.0000 C   0  0  0  0  0  0  0  0  0  0  0  0
    0.3974   -3.1097    0.0000 C   0  0  0  0  0  0  0  0  0  0  0  0
    0.8099   -2.3952    0.0000 C   0  0  0  0  0  0  0  0  0  0  0  0
    0.2579   -1.7821    0.0000 C   0  0  0  0  0  0  0  0  0  0  0  0
    0.5128   -0.9975    0.0000 C   0  0  0  0  0  0  0  0  0  0  0  0
    1.3198   -0.8260    0.0000 C   0  0  0  0  0  0  0  0  0  0  0  0
    1.8718   -1.4391    0.0000 C   0  0  0  0  0  0  0  0  0  0  0  0
    1.6169   -2.2237    0.0000 C   0  0  0  0  0  0  0  0  0  0  0  0
    2.1689   -2.8368    0.0000 C   0  0  0  0  0  0  0  0  0  0  0  0
    2.6788   -1.2676    0.0000 C   0  0  0  0  0  0  0  0  0  0  0  0
    3.2308   -1.8807    0.0000 C   0  0  0  0  0  0  0  0  0  0  0  0
    4.0378   -1.7091    0.0000 O   0  0  0  0  0  0  0  0  0  0  0  0
    2.9759   -2.6653    0.0000 O   0  0  0  0  0  0  0  0  0  0  0  0
    1.5747   -0.0414    0.0000 C   0  0  0  0  0  0  0  0  0  0  0  0
   -0.0392   -0.3844    0.0000 N   0  0  0  0  0  0  0  0  0  0  0  0
    0.2157    0.4002    0.0000 C   0  0  0  0  0  0  0  0  0  0  0  0
    1.0227    0.5717    0.0000 O   0  0  0  0  0  0  0  0  0  0  0  0
   -0.3363    1.0133    0.0000 C   0  0  0  0  0  0  0  0  0  0  0  0
    0.2768    1.5653    0.0000 C   0  0  0  0  0  0  0  0  0  0  0  0
   -0.9494    0.4612    0.0000 C   0  0  0  0  0  0  0  0  0  0  0  0
   -0.8883    1.6264    0.0000 C   0  0  0  0  0  0  0  0  0  0  0  0
  1  2  1  0
  2  3  1  0
  3  4  1  0
  4  5  1  0
  5  6  1  0
  6  7  1  0
  7  8  1  0
  8  9  1  0
  9 10  1  0
  9 13  1  0
 10 11  1  0
 11 12  1  0
 12 13  2  0
 12 17  1  0
 13 14  1  0
 14 15  2  0
 14 24  1  0
 15 16  1  0
 15 23  1  0
 16 17  2  0
 16 19  1  0
 17 18  1  0
 19 20  1  0
 20 21  2  0
 20 22  1  0
 24 25  1  0
 25 26  2  0
 25 27  1  0
 27 28  1  0
 27 29  1  0
 27 30  1  0
M  END
>  <DRUGBANK_ID>  (1) 
DB12971

>  <COMMON_NAME>  (1) 
Pactimibe

>  <CAS_NUMBER>  (1) 
189198-30-9

>  <UNII>  (1) 
D874R9PZ9T

>  <SYNONYMS>  (1) 
Pactimibe

$$$$
