179
     RDKit          2D

 22 23  0  0  1  0  0  0  0  0999 V2000
    7.0944   -3.5063    0.0000 O   0  0  0  0  0  0  0  0  0  0  0  0
    3.5220    3.5063    0.0000 O   0  0  0  0  0  0  0  0  0  0  0  0
    8.5234   -2.6813    0.0000 O   0  0  0  0  0  0  0  0  0  0  0  0
    2.0930    2.6813    0.0000 O   0  0  0  0  0  0  0  0  0  0  0  0
    5.6655   -0.2063    0.0000 C   0  0  0  0  0  0  0  0  0  0  0  0
    4.9509    0.2063    0.0000 C   0  0  0  0  0  0  0  0  0  0  0  0
    5.6655   -1.0313    0.0000 C   0  0  0  0  0  0  0  0  0  0  0  0
    4.9509    1.0313    0.0000 C   0  0  0  0  0  0  0  0  0  0  0  0
    6.3799    0.2063    0.0000 C   0  0  0  0  0  0  0  0  0  0  0  0
    4.2365   -0.2063    0.0000 C   0  0  0  0  0  0  0  0  0  0  0  0
    6.3799   -1.4438    0.0000 C   0  0  0  0  0  0  0  0  0  0  0  0
    4.2365    1.4438    0.0000 C   0  0  0  0  0  0  0  0  0  0  0  0
    6.3799   -2.2688    0.0000 C   0  0  0  0  0  0  0  0  0  0  0  0
    4.2365    2.2688    0.0000 C   0  0  0  0  0  0  0  0  0  0  0  0
    7.0944   -1.0313    0.0000 C   0  0  0  0  0  0  0  0  0  0  0  0
    3.5220    1.0313    0.0000 C   0  0  0  0  0  0  0  0  0  0  0  0
    7.0944   -2.6813    0.0000 C   0  0  0  0  0  0  0  0  0  0  0  0
    3.5220    2.6813    0.0000 C   0  0  0  0  0  0  0  0  0  0  0  0
    7.8089   -1.4438    0.0000 C   0  0  0  0  0  0  0  0  0  0  0  0
    2.8075    1.4438    0.0000 C   0  0  0  0  0  0  0  0  0  0  0  0
    7.8089   -2.2688    0.0000 C   0  0  0  0  0  0  0  0  0  0  0  0
    2.8075    2.2688    0.0000 C   0  0  0  0  0  0  0  0  0  0  0  0
  1 17  1  0
  2 18  1  0
  3 21  1  0
  4 22  1  0
  5  6  1  0
  5  7  1  0
  5  9  1  1
  6  8  1  0
  6 10  1  6
  7 11  1  0
  8 12  1  0
 11 13  2  0
 11 15  1  0
 12 14  2  0
 12 16  1  0
 13 17  1  0
 14 18  1  0
 15 19  2  0
 16 20  2  0
 17 21  2  0
 18 22  2  0
 19 21  1  0
 20 22  1  0
M  END
>  <DRUGBANK_ID>  (1) 
DB00179

>  <SECONDARY_ACCESSION_NUMBERS>  (1) 
APRD01084; DB05900

>  <COMMON_NAME>  (1) 
Masoprocol

>  <CAS_NUMBER>  (1) 
27686-84-6

>  <UNII>  (1) 
7BO8G1BYQU

>  <SYNONYMS>  (1) 
erythro-nordihydroguaiaretic acid; Masoprocol; Masoprocolum; meso-1,4-bis(3,4-dihydroxyphenyl)-2,3-dimethylbutane; meso-2,3-bis(3,4-dihydroxyphenylmethyl)butane; meso-4-[4-(3,4-dihydroxyphenyl)-2,3-dimethylbutyl]benzene-1,2-diol; meso-4,4'-(2,3-dimethyl-1,4-butanediyl)bis(pyrocatechol); meso-4,4'-(2,3-dimethyltetramethylene)dipyrocatechol; meso-NDGA; meso-nordihydroguaiaretic acid; meso-β,γ-dimethyl-α,δ-bis(3,4-dihydroxyphenyl)butan; Nordihydroguaiaretic acid

$$$$
