
     RDKit          2D

 12 12  0  0  0  0  0  0  0  0999 V2000
   -0.3572    0.0000    0.0000 C   0  0  0  0  0  0  0  0  0  0  0  0
   -1.0717    0.4125    0.0000 C   0  0  0  0  0  0  0  0  0  0  0  0
   -0.3572   -0.8250    0.0000 C   0  0  0  0  0  0  0  0  0  0  0  0
   -1.0717   -1.2374    0.0000 C   0  0  0  0  0  0  0  0  0  0  0  0
   -1.7862    0.0000    0.0000 C   0  0  0  0  0  0  0  0  0  0  0  0
   -1.7862   -0.8250    0.0000 C   0  0  0  0  0  0  0  0  0  0  0  0
    1.7861    0.4125    0.0000 C   0  0  0  0  0  0  0  0  0  0  0  0
    0.3571    0.4125    0.0000 C   0  0  0  0  0  0  0  0  0  0  0  0
    2.5006    0.0000    0.0000 O   0  0  0  0  0  0  0  0  0  0  0  0
    1.7861    1.2374    0.0000 O   0  0  0  0  0  0  0  0  0  0  0  0
   -2.5006   -1.2374    0.0000 O   0  0  0  0  0  0  0  0  0  0  0  0
    1.0716    0.0000    0.0000 C   0  0  0  0  0  0  0  0  0  0  0  0
  1  8  1  0
  2  1  2  0
  3  1  1  0
  4  3  2  0
  5  2  1  0
  6  4  1  0
  6  5  2  0
  8 12  2  0
  9  7  1  0
 10  7  2  0
 11  6  1  0
 12  7  1  0
M  END
>  <DRUGBANK_ID>  (1) 
DB04066

>  <SECONDARY_ACCESSION_NUMBERS>  (1) 
EXPT01706

>  <COMMON_NAME>  (1) 
p-Coumaric acid

>  <CAS_NUMBER>  (1) 
501-98-4

>  <UNII>  (1) 
IBS9D1EU3J

>  <SYNONYMS>  (1) 
(2E)-3-(4-hydroxyphenyl)acrylic acid; (E)-3-(4-hydroxyphenyl)-2-propenoic acid; (E)-p-coumaric acid; (E)-p-hydroxycinnamic acid; 4-coumaric acid; 4-Hydroxycinnamic acid; 4'-hydroxycinnamic acid; naringeninic acid; p-Coumaric acid; para-Coumaric Acid; trans-4-coumaric acid; trans-4-hydroxycinnamic acid; trans-p-coumaric acid; trans-p-coumarinic acid; trans-p-Hydroxycinnamate; trans-p-hydroxycinnamic acid

$$$$
