
     RDKit          2D

 25 28  0  0  0  0  0  0  0  0999 V2000
    4.2240    0.0229    0.0000 N   0  0  0  0  0  0  0  0  0  0  0  0
    3.8156   -0.6939    0.0000 C   0  0  0  0  0  0  0  0  0  0  0  0
    3.6613    0.6314    0.0000 C   0  0  0  0  0  0  0  0  0  0  0  0
    3.0112   -0.5313    0.0000 S   0  0  0  0  0  0  0  0  0  0  0  0
    2.9154    0.2813    0.0000 C   0  0  0  0  0  0  0  0  0  0  0  0
   -0.6356   -0.9940    0.0000 O   0  0  0  0  0  0  0  0  0  0  0  0
    0.0646   -0.5772    0.0000 C   0  0  0  0  0  0  0  0  0  0  0  0
    0.0521    0.2479    0.0000 C   0  0  0  0  0  0  0  0  0  0  0  0
    4.1657   -1.4441    0.0000 O   0  0  0  0  0  0  0  0  0  0  0  0
    2.1902    0.6856    0.0000 C   0  0  0  0  0  0  0  0  0  0  0  0
    3.8239    1.4441    0.0000 O   0  0  0  0  0  0  0  0  0  0  0  0
    0.7606    0.6689    0.0000 C   0  0  0  0  0  0  0  0  0  0  0  0
   -1.3607   -0.5939    0.0000 C   0  0  0  0  0  0  0  0  0  0  0  0
    1.4857    0.2688    0.0000 C   0  0  0  0  0  0  0  0  0  0  0  0
    0.7856   -0.9815    0.0000 C   0  0  0  0  0  0  0  0  0  0  0  0
   -0.6606    0.6481    0.0000 C   0  0  0  0  0  0  0  0  0  0  0  0
   -2.0651   -1.0190    0.0000 C   0  0  0  0  0  0  0  0  0  0  0  0
    1.4899   -0.5646    0.0000 C   0  0  0  0  0  0  0  0  0  0  0  0
   -1.3649    0.2312    0.0000 C   0  0  0  0  0  0  0  0  0  0  0  0
   -2.7861   -0.6147    0.0000 C   0  0  0  0  0  0  0  0  0  0  0  0
   -2.7903    0.2187    0.0000 C   0  0  0  0  0  0  0  0  0  0  0  0
   -3.4905   -1.0315    0.0000 C   0  0  0  0  0  0  0  0  0  0  0  0
   -4.2115   -0.6314    0.0000 C   0  0  0  0  0  0  0  0  0  0  0  0
   -3.5113    0.6189    0.0000 C   0  0  0  0  0  0  0  0  0  0  0  0
   -4.2240    0.1979    0.0000 C   0  0  0  0  0  0  0  0  0  0  0  0
  2  1  1  0
  3  1  1  0
  4  2  1  0
  4  5  1  0
  5  3  1  0
  6  7  1  0
  7 15  1  0
  7  8  2  0
  8 12  1  0
  9  2  2  0
 10  5  1  0
 11  3  2  0
 12 14  2  0
 13  6  1  0
 13 17  1  1
 13 19  1  0
 14 10  1  0
 15 18  2  0
 16  8  1  0
 18 14  1  0
 19 16  1  0
 20 17  1  0
 21 20  2  0
 22 20  1  0
 23 22  2  0
 24 21  1  0
 25 23  1  0
 25 24  2  0
M  END
>  <DRUGBANK_ID>  (1) 
DB14035

>  <COMMON_NAME>  (1) 
Englitazone

>  <CAS_NUMBER>  (1) 
109229-58-5

>  <UNII>  (1) 
ZQW5577C3O

>  <SYNONYMS>  (1) 
Englitazone

$$$$
