
     RDKit          2D

 13 13  0  0  1  0  0  0  0  0999 V2000
    1.2352    0.6294    0.0000 C   0  0  0  0  0  0  0  0  0  0  0  0
   -0.3297   -0.8227    0.0000 C   0  0  0  0  0  0  0  0  0  0  0  0
    0.5678    1.1143    0.0000 C   0  0  0  0  0  0  0  0  0  0  0  0
    0.1553   -0.1553    0.0000 C   0  0  0  0  0  0  0  0  0  0  0  0
   -0.0997    0.6294    0.0000 C   0  0  0  0  0  0  0  0  0  0  0  0
    0.5678    1.9393    0.0000 O   0  0  0  0  0  0  0  0  0  0  0  0
   -0.8843    0.8843    0.0000 O   0  0  0  0  0  0  0  0  0  0  0  0
   -2.1200   -2.0713    0.0000 O   0  0  0  0  0  0  0  0  0  0  0  0
   -2.3025   -0.9190    0.0000 O   0  0  0  0  0  0  0  0  0  0  0  0
   -0.9676   -1.8888    0.0000 O   0  0  0  0  0  0  0  0  0  0  0  0
    0.9803   -0.1553    0.0000 O   0  0  0  0  0  0  0  0  0  0  0  0
   -1.1501   -0.7365    0.0000 O   0  0  0  0  0  0  0  0  0  0  0  0
   -1.6351   -1.4039    0.0000 P   0  0  0  0  0  0  0  0  0  0  0  0
  3  1  1  0
  3  6  1  1
  4  2  1  6
  5  3  1  0
  5  4  1  0
  5  7  1  6
 11  1  1  0
 11  4  1  0
 12  2  1  0
 13  8  1  0
 13  9  1  0
 13 10  2  0
 13 12  1  0
M  END
>  <DRUGBANK_ID>  (1) 
DB03936

>  <SECONDARY_ACCESSION_NUMBERS>  (1) 
EXPT02797

>  <COMMON_NAME>  (1) 
1-Deoxy-Ribofuranose-5'-Phosphate

$$$$
