NBQ
     RDKit          2D

 31 33  0  0  0  0  0  0  0  0999 V2000
    2.8079   -7.6256    0.0000 N   0  0  0  0  0  0  0  0  0  0  0  0
    2.0935   -8.0381    0.0000 C   0  0  0  0  0  0  0  0  0  0  0  0
    1.3790   -7.6256    0.0000 C   0  0  0  0  0  0  0  0  0  0  0  0
    1.3790   -6.8006    0.0000 C   0  0  0  0  0  0  0  0  0  0  0  0
    0.6645   -6.3881    0.0000 C   0  0  0  0  0  0  0  0  0  0  0  0
   -0.0500   -6.8006    0.0000 O   0  0  0  0  0  0  0  0  0  0  0  0
    0.6645   -5.5631    0.0000 C   0  0  0  0  0  0  0  0  0  0  0  0
    1.3790   -5.1506    0.0000 C   0  0  0  0  0  0  0  0  0  0  0  0
    1.3790   -4.3256    0.0000 O   0  0  0  0  0  0  0  0  0  0  0  0
    2.0935   -5.5631    0.0000 C   0  0  0  0  0  0  0  0  0  0  0  0
    2.0935   -6.3881    0.0000 C   0  0  0  0  0  0  0  0  0  0  0  0
    2.8079   -5.1506    0.0000 N   0  0  0  0  0  0  0  0  0  0  0  0
    2.8079   -4.3256    0.0000 C   0  0  0  0  0  0  0  0  0  0  0  0
    2.0935   -3.9131    0.0000 C   0  0  0  0  0  0  0  0  0  0  0  0
    2.0935   -3.0881    0.0000 C   0  0  0  0  0  0  0  0  0  0  0  0
    1.3790   -2.6756    0.0000 O   0  0  0  0  0  0  0  0  0  0  0  0
    3.5224   -3.9131    0.0000 C   0  0  0  0  0  0  0  0  0  0  0  0
    3.5224   -3.0881    0.0000 O   0  0  0  0  0  0  0  0  0  0  0  0
    4.2369   -2.6756    0.0000 C   0  0  0  0  0  0  0  0  0  0  0  0
    4.2369   -1.8506    0.0000 C   0  0  0  0  0  0  0  0  0  0  0  0
    4.9513   -1.4381    0.0000 C   0  0  0  0  0  0  0  0  0  0  0  0
    5.6658   -1.8506    0.0000 C   0  0  0  0  0  0  0  0  0  0  0  0
    6.3803   -1.4381    0.0000 C   0  0  0  0  0  0  0  0  0  0  0  0
    5.6658   -2.6756    0.0000 C   0  0  0  0  0  0  0  0  0  0  0  0
    4.9513   -3.0881    0.0000 C   0  0  0  0  0  0  0  0  0  0  0  0
    6.3803   -3.0881    0.0000 C   0  0  0  0  0  0  0  0  0  0  0  0
    7.0947   -2.6756    0.0000 C   0  0  0  0  0  0  0  0  0  0  0  0
    7.0947   -1.8506    0.0000 C   0  0  0  0  0  0  0  0  0  0  0  0
    2.0935   -8.8631    0.0000 C   0  0  0  0  0  0  0  0  0  0  0  0
    1.3790   -9.2756    0.0000 O   0  0  0  0  0  0  0  0  0  0  0  0
    2.8079   -9.2756    0.0000 O   0  0  0  0  0  0  0  0  0  0  0  0
  2  1  1  6
  2  3  1  0
  2 29  1  0
  3  4  1  0
  4  5  2  0
  4 11  1  0
  5  6  1  0
  5  7  1  0
  7  8  2  0
  8  9  1  0
  8 10  1  0
 10 11  2  0
 10 12  1  0
 12 13  1  0
 13 14  2  0
 13 17  1  0
 14 15  1  0
 15 16  2  0
 17 18  1  0
 18 19  1  0
 19 20  2  0
 19 25  1  0
 20 21  1  0
 21 22  2  0
 22 23  1  0
 22 24  1  0
 23 28  2  0
 24 25  2  0
 24 26  1  0
 26 27  2  0
 27 28  1  0
 29 30  1  0
 29 31  2  0
M  END
>  <DRUGBANK_ID>  (1) 
DB02511

>  <SECONDARY_ACCESSION_NUMBERS>  (1) 
EXPT02304

>  <COMMON_NAME>  (1) 
2-Hydroxy-5-({1-[(2-Naphthyloxy)Methyl]-3-Oxoprop-1-Enyl}Amino)Tyrosine

>  <SYNONYMS>  (1) 
2-Hydroxy-5-{[(2E)-1-(2-naphthyloxy)-4-oxo-2-buten-2-yl]amino}-L-tyrosine

$$$$
