
     RDKit          2D

 23 26  0  0  0  0  0  0  0  0999 V2000
   -1.2665    1.0256    0.0000 C   0  0  0  0  0  0  0  0  0  0  0  0
   -1.5214    0.2410    0.0000 C   0  0  0  0  0  0  0  0  0  0  0  0
   -0.9694   -0.3721    0.0000 C   0  0  0  0  0  0  0  0  0  0  0  0
   -1.0023   -1.3566    0.0000 C   0  0  0  0  0  0  0  0  0  0  0  0
   -0.3349   -1.8416    0.0000 C   0  0  0  0  0  0  0  0  0  0  0  0
    0.4188   -1.5060    0.0000 C   0  0  0  0  0  0  0  0  0  0  0  0
    0.5050   -0.6855    0.0000 C   0  0  0  0  0  0  0  0  0  0  0  0
   -0.1624   -0.2006    0.0000 C   0  0  0  0  0  0  0  0  0  0  0  0
    0.0925    0.5840    0.0000 C   0  0  0  0  0  0  0  0  0  0  0  0
   -0.4595    1.1971    0.0000 C   0  0  0  0  0  0  0  0  0  0  0  0
    0.9175    0.5840    0.0000 C   0  0  0  0  0  0  0  0  0  0  0  0
    1.1724   -0.2006    0.0000 C   0  0  0  0  0  0  0  0  0  0  0  0
    1.9794   -0.3721    0.0000 C   0  0  0  0  0  0  0  0  0  0  0  0
    2.5314    0.2410    0.0000 C   0  0  0  0  0  0  0  0  0  0  0  0
    2.2765    1.0256    0.0000 C   0  0  0  0  0  0  0  0  0  0  0  0
    1.4695    1.1971    0.0000 C   0  0  0  0  0  0  0  0  0  0  0  0
    3.3384    0.0694    0.0000 C   0  0  0  0  0  0  0  0  0  0  0  0
    3.8904    0.6825    0.0000 O   0  0  0  0  0  0  0  0  0  0  0  0
    3.5934   -0.7152    0.0000 C   0  0  0  0  0  0  0  0  0  0  0  0
    4.4003   -0.8867    0.0000 C   0  0  0  0  0  0  0  0  0  0  0  0
    4.6553   -1.6713    0.0000 C   0  0  0  0  0  0  0  0  0  0  0  0
    5.4622   -1.8429    0.0000 O   0  0  0  0  0  0  0  0  0  0  0  0
    4.1032   -2.2844    0.0000 O   0  0  0  0  0  0  0  0  0  0  0  0
  1  2  2  0
  1 10  1  0
  2  3  1  0
  3  4  2  0
  3  8  1  0
  4  5  1  0
  5  6  2  0
  6  7  1  0
  7  8  2  0
  7 12  1  0
  8  9  1  0
  9 10  2  0
  9 11  1  0
 11 12  2  0
 11 16  1  0
 12 13  1  0
 13 14  2  0
 14 15  1  0
 14 17  1  0
 15 16  2  0
 17 18  2  0
 17 19  1  0
 19 20  1  0
 20 21  1  0
 21 22  2  0
 21 23  1  0
M  END
>  <DRUGBANK_ID>  (1) 
DB08975

>  <COMMON_NAME>  (1) 
Florantyrone

>  <CAS_NUMBER>  (1) 
519-95-9

>  <UNII>  (1) 
UZ5LMI200P

>  <SYNONYMS>  (1) 
Florantyrone

$$$$
