
     RDKit          2D

 28 32  0  0  0  0  0  0  0  0999 V2000
    1.7956    1.6568    0.0000 C   0  0  0  0  0  0  0  0  0  0  0  0
   -4.6535   -1.5173    0.0000 C   0  0  0  0  0  0  0  0  0  0  0  0
   -4.0404   -2.0693    0.0000 C   0  0  0  0  0  0  0  0  0  0  0  0
    1.0811    2.0693    0.0000 C   0  0  0  0  0  0  0  0  0  0  0  0
    3.9390    0.4193    0.0000 C   0  0  0  0  0  0  0  0  0  0  0  0
    3.2245    1.6568    0.0000 C   0  0  0  0  0  0  0  0  0  0  0  0
    4.6535    0.8318    0.0000 C   0  0  0  0  0  0  0  0  0  0  0  0
    3.9390    2.0693    0.0000 C   0  0  0  0  0  0  0  0  0  0  0  0
    1.0811    0.4193    0.0000 C   0  0  0  0  0  0  0  0  0  0  0  0
   -2.9974    0.8318    0.0000 C   0  0  0  0  0  0  0  0  0  0  0  0
    2.5100    0.4193    0.0000 C   0  0  0  0  0  0  0  0  0  0  0  0
    1.7956    0.8318    0.0000 C   0  0  0  0  0  0  0  0  0  0  0  0
   -3.8688   -1.2623    0.0000 C   0  0  0  0  0  0  0  0  0  0  0  0
    0.3666    1.6568    0.0000 C   0  0  0  0  0  0  0  0  0  0  0  0
    0.3666    0.8318    0.0000 C   0  0  0  0  0  0  0  0  0  0  0  0
   -2.2127    0.5769    0.0000 C   0  0  0  0  0  0  0  0  0  0  0  0
   -1.7278    1.2443    0.0000 C   0  0  0  0  0  0  0  0  0  0  0  0
   -0.9028    1.2443    0.0000 C   0  0  0  0  0  0  0  0  0  0  0  0
   -2.5098   -0.8208    0.0000 C   0  0  0  0  0  0  0  0  0  0  0  0
   -2.9974    1.6568    0.0000 N   0  0  0  0  0  0  0  0  0  0  0  0
   -3.3168   -0.6492    0.0000 N   0  0  0  0  0  0  0  0  0  0  0  0
   -0.4179    1.9117    0.0000 N   0  0  0  0  0  0  0  0  0  0  0  0
   -0.4179    0.5769    0.0000 N   0  0  0  0  0  0  0  0  0  0  0  0
   -1.9578   -0.2077    0.0000 N   0  0  0  0  0  0  0  0  0  0  0  0
   -2.2127    1.9117    0.0000 N   0  0  0  0  0  0  0  0  0  0  0  0
    3.2245    0.8318    0.0000 N   0  0  0  0  0  0  0  0  0  0  0  0
   -2.2549   -1.6054    0.0000 O   0  0  0  0  0  0  0  0  0  0  0  0
    4.6535    1.6568    0.0000 O   0  0  0  0  0  0  0  0  0  0  0  0
  3  2  1  0
  4  1  2  0
  7  5  1  0
  8  6  1  0
 12  1  1  0
 12  9  2  0
 12 11  1  0
 13  2  1  0
 13  3  1  0
 14  4  1  0
 15  9  1  0
 15 14  2  0
 16 10  2  0
 17 16  1  0
 18 17  1  0
 20 10  1  0
 21 13  1  0
 21 19  2  3
 22 14  1  0
 22 18  1  0
 23 15  1  0
 23 18  2  0
 24 16  1  0
 24 19  1  0
 25 17  2  0
 25 20  1  0
 26  5  1  0
 26  6  1  0
 26 11  1  0
 27 19  1  0
 28  7  1  0
 28  8  1  0
M  END
>  <DRUGBANK_ID>  (1) 
DB05169

>  <COMMON_NAME>  (1) 
AT9283

>  <CAS_NUMBER>  (1) 
896466-04-9

>  <UNII>  (1) 
XAV9KYN9WL

>  <SYNONYMS>  (1) 
1-Cyclopropyl-3-[3-(5-morpholin-4-ylmethyl-1H-benzoimidazol-2-yl)-1H-pyrazol-4-yl]-urea

$$$$
