
     RDKit          2D

 29 31  0  0  0  0  0  0  0  0999 V2000
   -2.6808    0.6907    0.0000 C   0  0  0  0  0  0  0  0  0  0  0  0
   -2.3453   -0.0630    0.0000 C   0  0  0  0  0  0  0  0  0  0  0  0
   -2.7578   -0.7774    0.0000 N   0  0  0  0  0  0  0  0  0  0  0  0
   -2.2057   -1.3905    0.0000 C   0  0  0  0  0  0  0  0  0  0  0  0
   -1.4521   -1.0550    0.0000 C   0  0  0  0  0  0  0  0  0  0  0  0
   -1.5383   -0.2345    0.0000 O   0  0  0  0  0  0  0  0  0  0  0  0
   -0.7376   -1.4675    0.0000 C   0  0  0  0  0  0  0  0  0  0  0  0
   -0.0231   -1.0550    0.0000 O   0  0  0  0  0  0  0  0  0  0  0  0
   -0.7376   -2.2925    0.0000 N   0  0  0  0  0  0  0  0  0  0  0  0
   -0.0231   -2.7050    0.0000 C   0  0  0  0  0  0  0  0  0  0  0  0
   -0.0231   -3.5300    0.0000 C   0  0  0  0  0  0  0  0  0  0  0  0
    0.6914   -3.9425    0.0000 C   0  0  0  0  0  0  0  0  0  0  0  0
    1.4058   -3.5300    0.0000 C   0  0  0  0  0  0  0  0  0  0  0  0
    2.1203   -3.9425    0.0000 C   0  0  0  0  0  0  0  0  0  0  0  0
    2.1203   -4.7675    0.0000 C   0  0  0  0  0  0  0  0  0  0  0  0
    1.4058   -5.1800    0.0000 C   0  0  0  0  0  0  0  0  0  0  0  0
    0.6914   -4.7675    0.0000 C   0  0  0  0  0  0  0  0  0  0  0  0
    0.6914   -2.2925    0.0000 C   0  0  0  0  0  0  0  0  0  0  0  0
    1.4058   -2.7050    0.0000 O   0  0  0  0  0  0  0  0  0  0  0  0
    0.6914   -1.4675    0.0000 C   0  0  0  0  0  0  0  0  0  0  0  0
    0.3558   -0.7138    0.0000 N   0  0  0  0  0  0  0  0  0  0  0  0
    1.4058   -1.0550    0.0000 O   0  0  0  0  0  0  0  0  0  0  0  0
   -2.3773   -2.1975    0.0000 C   0  0  0  0  0  0  0  0  0  0  0  0
   -1.7642   -2.7495    0.0000 C   0  0  0  0  0  0  0  0  0  0  0  0
   -1.9357   -3.5565    0.0000 C   0  0  0  0  0  0  0  0  0  0  0  0
   -2.7203   -3.8115    0.0000 C   0  0  0  0  0  0  0  0  0  0  0  0
   -3.3334   -3.2594    0.0000 C   0  0  0  0  0  0  0  0  0  0  0  0
   -3.1619   -2.4525    0.0000 C   0  0  0  0  0  0  0  0  0  0  0  0
   -3.7750   -1.9004    0.0000 F   0  0  0  0  0  0  0  0  0  0  0  0
  1  2  1  0
  2  3  2  0
  2  6  1  0
  3  4  1  0
  4  5  2  0
  4 23  1  0
  5  6  1  0
  5  7  1  0
  7  8  2  0
  7  9  1  0
  9 10  1  0
 10 11  1  0
 10 18  1  0
 11 12  1  0
 12 13  2  0
 12 17  1  0
 13 14  1  0
 14 15  2  0
 15 16  1  0
 16 17  2  0
 18 19  2  0
 18 20  1  0
 20 21  1  0
 20 22  2  0
 23 24  2  0
 23 28  1  0
 24 25  1  0
 25 26  2  0
 26 27  1  0
 27 28  2  0
 28 29  1  0
M  END
>  <DRUGBANK_ID>  (1) 
DB18301

>  <COMMON_NAME>  (1) 
Dazcapistat

>  <CAS_NUMBER>  (1) 
2221010-42-8

>  <UNII>  (1) 
AX895U92WU

>  <SYNONYMS>  (1) 
5-oxazolecarboxamide, n-(3-amino-2,3-dioxo-1-(phenylmethyl)propyl)-4-(2-fluorophenyl)-2-methyl-; N-(3-amino-2,3-dioxo-1-(phenylmethyl)propyl)-4-(2-fluorophenyl)-2-methyl-5-oxazolecarboxamide; N-(4-amino-3,4-dioxo-1-phenylbutan-2-yl)-4-(2-fluorophenyl)-2-methyloxazole-5-carboxamide

$$$$
