TPY
     RDKit          2D

 23 23  0  0  0  0  0  0  0  0999 V2000
    2.3660    0.7625    0.0000 C   0  0  0  0  0  0  0  0  0  0  0  0
    2.3660   -0.0625    0.0000 C   0  0  0  0  0  0  0  0  0  0  0  0
    1.6515   -0.4750    0.0000 C   0  0  0  0  0  0  0  0  0  0  0  0
    1.6515   -1.3000    0.0000 C   0  0  0  0  0  0  0  0  0  0  0  0
    3.0804   -0.4750    0.0000 C   0  0  0  0  0  0  0  0  0  0  0  0
    3.7949   -0.0625    0.0000 C   0  0  0  0  0  0  0  0  0  0  0  0
    3.0804    1.1750    0.0000 O   0  0  0  0  0  0  0  0  0  0  0  0
    0.9370   -1.7125    0.0000 O   0  0  0  0  0  0  0  0  0  0  0  0
    2.3660   -1.7125    0.0000 O   0  0  0  0  0  0  0  0  0  0  0  0
   -0.0794    0.6520    0.0000 O   0  0  0  0  0  0  0  0  0  0  0  0
   -0.9044   -0.7770    0.0000 O   0  0  0  0  0  0  0  0  0  0  0  0
   -0.4919   -0.0625    0.0000 S   0  0  0  0  0  0  0  0  0  0  0  0
    0.2225   -0.4750    0.0000 N   0  0  0  0  0  0  0  0  0  0  0  0
    0.9370   -0.0625    0.0000 C   0  0  0  0  0  0  0  0  0  0  0  0
   -1.2064    0.3500    0.0000 C   0  0  0  0  0  0  0  0  0  0  0  0
   -1.9209   -0.0625    0.0000 C   0  0  0  0  0  0  0  0  0  0  0  0
   -1.2064    1.1750    0.0000 C   0  0  0  0  0  0  0  0  0  0  0  0
   -2.6353    0.3500    0.0000 C   0  0  0  0  0  0  0  0  0  0  0  0
   -1.9209    1.5875    0.0000 C   0  0  0  0  0  0  0  0  0  0  0  0
   -2.6353    1.1750    0.0000 C   0  0  0  0  0  0  0  0  0  0  0  0
   -3.3498    1.5875    0.0000 N   0  0  0  0  0  0  0  0  0  0  0  0
   -4.0643    1.1750    0.0000 O   0  0  0  0  0  0  0  0  0  0  0  0
   -3.3498    2.4125    0.0000 O   0  0  0  0  0  0  0  0  0  0  0  0
  2  1  1  1
  1  7  2  0
  2  3  1  0
  2  5  1  0
  3  4  1  0
  3 14  1  6
  4  8  1  0
  4  9  2  0
  5  6  1  0
 10 12  2  0
 11 12  2  0
 12 13  1  0
 12 15  1  0
 13 14  1  0
 15 16  2  0
 15 17  1  0
 16 18  1  0
 17 19  2  0
 18 20  2  0
 19 20  1  0
 20 21  1  0
 21 22  1  0
 21 23  2  0
M  CHG  2  21   1  22  -1
M  END
>  <DRUGBANK_ID>  (1) 
DB08641

>  <COMMON_NAME>  (1) 
(2S,3S)-3-FORMYL-2-({[(4-NITROPHENYL)SULFONYL]AMINO}METHYL)PENTANOIC ACID

$$$$
