
     RDKit          2D

 17 19  0  0  0  0  0  0  0  0999 V2000
    0.3020    0.6507    0.0000 C   0  0  0  0  0  0  0  0  0  0  0  0
   -0.4125    1.0632    0.0000 C   0  0  0  0  0  0  0  0  0  0  0  0
   -1.1270    0.6507    0.0000 C   0  0  0  0  0  0  0  0  0  0  0  0
   -1.1270   -0.1743    0.0000 N   0  0  0  0  0  0  0  0  0  0  0  0
   -0.7145   -0.8888    0.0000 C   0  0  0  0  0  0  0  0  0  0  0  0
   -1.5395   -0.8888    0.0000 C   0  0  0  0  0  0  0  0  0  0  0  0
   -1.8414    1.0632    0.0000 C   0  0  0  0  0  0  0  0  0  0  0  0
   -2.5559    0.6507    0.0000 O   0  0  0  0  0  0  0  0  0  0  0  0
   -1.8414    1.8882    0.0000 C   0  0  0  0  0  0  0  0  0  0  0  0
   -2.5559    2.3007    0.0000 C   0  0  0  0  0  0  0  0  0  0  0  0
   -2.5559    3.1257    0.0000 O   0  0  0  0  0  0  0  0  0  0  0  0
   -1.1270    2.3007    0.0000 C   0  0  0  0  0  0  0  0  0  0  0  0
   -1.1270    3.1257    0.0000 N   0  0  0  0  0  0  0  0  0  0  0  0
   -1.5395    3.8401    0.0000 C   0  0  0  0  0  0  0  0  0  0  0  0
   -0.7145    3.8401    0.0000 C   0  0  0  0  0  0  0  0  0  0  0  0
   -0.4125    1.8882    0.0000 C   0  0  0  0  0  0  0  0  0  0  0  0
    0.3020    2.3007    0.0000 O   0  0  0  0  0  0  0  0  0  0  0  0
  1  2  1  0
  2  3  2  0
  2 16  1  0
  3  4  1  0
  3  7  1  0
  4  5  1  0
  4  6  1  0
  5  6  1  0
  7  8  2  0
  7  9  1  0
  9 10  1  0
  9 12  2  0
 10 11  1  0
 12 13  1  0
 12 16  1  0
 13 14  1  0
 13 15  1  0
 14 15  1  0
 16 17  2  0
M  END
>  <DRUGBANK_ID>  (1) 
DB04090

>  <SECONDARY_ACCESSION_NUMBERS>  (1) 
EXPT02778; DB06312; DB12103

>  <COMMON_NAME>  (1) 
RH-1

>  <CAS_NUMBER>  (1) 
221635-42-3

>  <UNII>  (1) 
IJ5CEP760Y

>  <SYNONYMS>  (1) 
2,5-Cyclohexadiene-1,4-dione, 2,5-bis(1-aziridinyl)-3-(hydroxymethyl)-6-methyl-

$$$$
