
     RDKit          2D

 16 17  0  0  0  0  0  0  0  0999 V2000
    1.0717   -1.6500    0.0000 Cl  0  0  0  0  0  0  0  0  0  0  0  0
    2.5006    0.8250    0.0000 Cl  0  0  0  0  0  0  0  0  0  0  0  0
   -0.3572   -1.6500    0.0000 O   0  0  0  0  0  0  0  0  0  0  0  0
   -2.5006    0.4125    0.0000 O   0  0  0  0  0  0  0  0  0  0  0  0
   -1.7861    1.6500    0.0000 O   0  0  0  0  0  0  0  0  0  0  0  0
   -0.3572    0.8250    0.0000 N   0  0  0  0  0  0  0  0  0  0  0  0
    0.3572   -0.4125    0.0000 C   0  0  0  0  0  0  0  0  0  0  0  0
    0.3572    0.4125    0.0000 C   0  0  0  0  0  0  0  0  0  0  0  0
   -0.3572   -0.8250    0.0000 C   0  0  0  0  0  0  0  0  0  0  0  0
    1.0717   -0.8250    0.0000 C   0  0  0  0  0  0  0  0  0  0  0  0
   -1.0717    0.4125    0.0000 C   0  0  0  0  0  0  0  0  0  0  0  0
   -1.0717   -0.4125    0.0000 C   0  0  0  0  0  0  0  0  0  0  0  0
    1.0717    0.8250    0.0000 C   0  0  0  0  0  0  0  0  0  0  0  0
    1.7861    0.4125    0.0000 C   0  0  0  0  0  0  0  0  0  0  0  0
    1.7861   -0.4125    0.0000 C   0  0  0  0  0  0  0  0  0  0  0  0
   -1.7861    0.8250    0.0000 C   0  0  0  0  0  0  0  0  0  0  0  0
  1 10  1  0
  2 14  1  0
  3  9  1  0
  4 16  2  0
  5 16  1  0
  6  8  2  0
  6 11  1  0
  7  8  1  0
  7  9  2  0
  7 10  1  0
  8 13  1  0
  9 12  1  0
 10 15  2  0
 11 12  2  0
 11 16  1  0
 13 14  2  0
 14 15  1  0
M  END
>  <DRUGBANK_ID>  (1) 
DB01931

>  <SECONDARY_ACCESSION_NUMBERS>  (1) 
EXPT01212

>  <COMMON_NAME>  (1) 
5,7-Dichlorokynurenic acid

>  <CAS_NUMBER>  (1) 
131123-76-7

>  <UNII>  (1) 
T61ORK73PY

>  <SYNONYMS>  (1) 
5,7-Dcka; 5,7-Dichloroquinurenic acid; 5,7-Dichorokynurenic acid

$$$$
