SX7
     RDKit          2D

 28 31  0  0  0  0  0  0  0  0999 V2000
    0.7036    1.6046    0.0000 O   0  0  0  0  0  0  0  0  0  0  0  0
   -2.7094   -1.6954    0.0000 C   0  0  0  0  0  0  0  0  0  0  0  0
   -2.2244   -1.0280    0.0000 C   0  0  0  0  0  0  0  0  0  0  0  0
   -0.7570    1.1385    0.0000 C   0  0  0  0  0  0  0  0  0  0  0  0
   -1.9945    0.4241    0.0000 N   0  0  0  0  0  0  0  0  0  0  0  0
   -2.4794   -0.2434    0.0000 C   0  0  0  0  0  0  0  0  0  0  0  0
   -3.2640    0.0116    0.0000 C   0  0  0  0  0  0  0  0  0  0  0  0
   -3.2640    0.8366    0.0000 C   0  0  0  0  0  0  0  0  0  0  0  0
   -1.1695    0.4241    0.0000 C   0  0  0  0  0  0  0  0  0  0  0  0
    1.4181    1.1921    0.0000 C   0  0  0  0  0  0  0  0  0  0  0  0
    2.1325    1.6046    0.0000 N   0  0  0  0  0  0  0  0  0  0  0  0
    2.1325    2.4296    0.0000 C   0  0  0  0  0  0  0  0  0  0  0  0
    2.8470    1.1921    0.0000 C   0  0  0  0  0  0  0  0  0  0  0  0
    1.4181    0.3671    0.0000 C   0  0  0  0  0  0  0  0  0  0  0  0
    2.1325   -0.0454    0.0000 C   0  0  0  0  0  0  0  0  0  0  0  0
    2.8470    0.3671    0.0000 N   0  0  0  0  0  0  0  0  0  0  0  0
    2.1325   -0.8704    0.0000 C   0  0  0  0  0  0  0  0  0  0  0  0
    1.4181   -1.2829    0.0000 C   0  0  0  0  0  0  0  0  0  0  0  0
    0.7036   -0.0454    0.0000 C   0  0  0  0  0  0  0  0  0  0  0  0
    0.7036   -0.8704    0.0000 C   0  0  0  0  0  0  0  0  0  0  0  0
   -0.0109   -1.2829    0.0000 C   0  0  0  0  0  0  0  0  0  0  0  0
   -0.0109   -2.1079    0.0000 C   0  0  0  0  0  0  0  0  0  0  0  0
   -0.7254   -2.5204    0.0000 N   0  0  0  0  0  0  0  0  0  0  0  0
   -0.7254   -0.8704    0.0000 C   0  0  0  0  0  0  0  0  0  0  0  0
   -1.4398   -1.2829    0.0000 C   0  0  0  0  0  0  0  0  0  0  0  0
   -1.4398   -2.1079    0.0000 C   0  0  0  0  0  0  0  0  0  0  0  0
   -2.2244   -2.3629    0.0000 N   0  0  0  0  0  0  0  0  0  0  0  0
   -2.4794    1.0915    0.0000 N   0  0  0  0  0  0  0  0  0  0  0  0
  1 10  2  0
  2  3  2  0
  2 27  1  0
  3  6  1  0
  3 25  1  0
  4  9  1  0
  5  6  1  0
  5  9  1  0
  5 28  1  0
  6  7  2  0
  7  8  1  0
  8 28  2  0
 10 11  1  0
 10 14  1  0
 11 12  1  0
 11 13  1  0
 14 15  2  0
 14 19  1  0
 15 16  1  0
 15 17  1  0
 17 18  2  0
 18 20  1  0
 19 20  2  0
 20 21  1  0
 21 22  2  0
 21 24  1  0
 22 23  1  0
 23 26  2  0
 24 25  2  0
 25 26  1  0
 26 27  1  0
M  END
>  <DRUGBANK_ID>  (1) 
DB08583

>  <COMMON_NAME>  (1) 
2-amino-5-[3-(1-ethyl-1H-pyrazol-5-yl)-1H-pyrrolo[2,3-b]pyridin-5-yl]-N,N-dimethylbenzamide

>  <UNII>  (1) 
DH982UZX58

$$$$
