
     RDKit          2D

 28 32  0  0  1  0  0  0  0  0999 V2000
    0.8363    1.1340    0.0000 C   0  0  0  0  0  0  0  0  0  0  0  0
    1.6425    0.9592    0.0000 N   0  0  0  0  0  0  0  0  0  0  0  0
    1.6027    1.7832    0.0000 C   0  0  0  0  0  0  0  0  0  0  0  0
    0.8692    2.1607    0.0000 C   0  0  0  0  0  0  0  0  0  0  0  0
    0.0451    2.1209    0.0000 C   0  0  0  0  0  0  0  0  0  0  0  0
    0.4227    2.8545    0.0000 C   0  0  0  0  0  0  0  0  0  0  0  0
    1.0575    0.3324    0.0000 C   0  0  0  0  0  0  0  0  0  0  0  0
    1.5168   -0.5600    0.0000 C   0  0  0  0  0  0  0  0  0  0  0  0
    2.2503   -0.9375    0.0000 C   0  0  0  0  0  0  0  0  0  0  0  0
    1.6119   -1.4601    0.0000 C   0  0  0  0  0  0  0  0  0  0  0  0
    0.8402   -1.1686    0.0000 C   0  0  0  0  0  0  0  0  0  0  0  0
    0.2018   -1.6911    0.0000 O   0  0  0  0  0  0  0  0  0  0  0  0
    0.7068   -0.3544    0.0000 C   0  0  0  0  0  0  0  0  0  0  0  0
    1.3452    0.1682    0.0000 C   0  0  0  0  0  0  0  0  0  0  0  0
    2.1169   -0.1234    0.0000 C   0  0  0  0  0  0  0  0  0  0  0  0
    2.9415   -0.1509    0.0000 O   0  0  0  0  0  0  0  0  0  0  0  0
    2.4282    1.2109    0.0000 C   0  0  0  0  0  0  0  0  0  0  0  0
    3.1618    0.8334    0.0000 C   0  0  0  0  0  0  0  0  0  0  0  0
    3.4135    0.0477    0.0000 C   0  0  0  0  0  0  0  0  0  0  0  0
    3.0360   -0.6858    0.0000 C   0  0  0  0  0  0  0  0  0  0  0  0
    3.4825   -1.3795    0.0000 C   0  0  0  0  0  0  0  0  0  0  0  0
    3.1050   -2.1131    0.0000 O   0  0  0  0  0  0  0  0  0  0  0  0
    4.3065   -1.3397    0.0000 C   0  0  0  0  0  0  0  0  0  0  0  0
    4.6840   -0.6061    0.0000 C   0  0  0  0  0  0  0  0  0  0  0  0
    4.2375    0.0876    0.0000 C   0  0  0  0  0  0  0  0  0  0  0  0
    4.7530   -2.0334    0.0000 C   0  0  0  0  0  0  0  0  0  0  0  0
    5.5771   -1.9936    0.0000 N   0  0  0  0  0  0  0  0  0  0  0  0
    4.3755   -2.7670    0.0000 O   0  0  0  0  0  0  0  0  0  0  0  0
  2  1  1  1
  2  3  1  0
  2  7  1  0
  3  4  1  0
  4  5  1  0
  4  6  1  0
  5  6  1  0
  7  8  1  0
  9  8  1  6
  9 10  1  0
  9 20  1  0
 10 11  1  0
 11 12  2  0
 11 13  1  0
 13 14  1  0
 15 14  1  0
 15  9  1  0
 15 16  1  6
 15 17  1  0
 17  2  1  0
 17 18  1  6
 18 19  1  0
 19 20  2  0
 19 25  1  0
 20 21  1  0
 21 22  1  0
 21 23  2  0
 23 24  1  0
 23 26  1  0
 24 25  2  0
 26 27  1  0
 26 28  2  0
M  CHG  1   2   1
M  END
>  <DRUGBANK_ID>  (1) 
DB15241

>  <COMMON_NAME>  (1) 
Methylsamidorphan

>  <CAS_NUMBER>  (1) 
1119361-12-4

>  <UNII>  (1) 
8347HC35J6

>  <SYNONYMS>  (1) 
Methylsamidorphan

$$$$
