
     RDKit          2D

  6  4  0  0  0  0  0  0  0  0999 V2000
   -0.1275   -1.0505    0.0000 Fe  0  0  0  0  0 15  0  0  0  0  0  0
    0.0000    0.4671    0.0000 S   0  0  0  0  0  0  0  0  0  0  0  0
    0.5834    1.0505    0.0000 O   0  0  0  0  0  0  0  0  0  0  0  0
   -0.5834   -0.1161    0.0000 O   0  0  0  0  0  0  0  0  0  0  0  0
   -0.5834    1.0505    0.0000 O   0  0  0  0  0  0  0  0  0  0  0  0
    0.5834   -0.1161    0.0000 O   0  0  0  0  0  0  0  0  0  0  0  0
  2  3  2  0
  2  4  1  0
  2  5  2  0
  2  6  1  0
M  CHG  3   1   2   4  -1   6  -1
M  END
>  <DRUGBANK_ID>  (1) 
DB13257

>  <SECONDARY_ACCESSION_NUMBERS>  (1) 
DBSALT000084

>  <COMMON_NAME>  (1) 
Ferrous sulfate anhydrous

>  <CAS_NUMBER>  (1) 
7720-78-7

>  <UNII>  (1) 
2IDP3X9OUD

>  <SYNONYMS>  (1) 
iron sulfate (1:1); iron(2+) sulfate (anhydrous); iron(II) sulfate

$$$$
