PLB
     RDKit          2D

 27 29  0  0  0  0  0  0  0  0999 V2000
    1.0898    4.7011    0.0000 Cl  0  0  0  0  0  0  0  0  0  0  0  0
    1.0898    3.8761    0.0000 C   0  0  0  0  0  0  0  0  0  0  0  0
    1.8042    3.4636    0.0000 C   0  0  0  0  0  0  0  0  0  0  0  0
    1.8042    2.6386    0.0000 C   0  0  0  0  0  0  0  0  0  0  0  0
    2.5187    2.2261    0.0000 Cl  0  0  0  0  0  0  0  0  0  0  0  0
    0.3753    3.4636    0.0000 C   0  0  0  0  0  0  0  0  0  0  0  0
    0.3753    2.6386    0.0000 C   0  0  0  0  0  0  0  0  0  0  0  0
    1.0898    2.2261    0.0000 C   0  0  0  0  0  0  0  0  0  0  0  0
    1.0898    1.4011    0.0000 C   0  0  0  0  0  0  0  0  0  0  0  0
    1.8042    0.9886    0.0000 O   0  0  0  0  0  0  0  0  0  0  0  0
    0.3753    0.9886    0.0000 N   0  0  0  0  0  0  0  0  0  0  0  0
    0.3753    0.1636    0.0000 C   0  0  0  0  0  0  0  0  0  0  0  0
    1.0898   -0.2489    0.0000 C   0  0  0  0  0  0  0  0  0  0  0  0
    1.0898   -1.0739    0.0000 C   0  0  0  0  0  0  0  0  0  0  0  0
    0.3753   -1.4864    0.0000 C   0  0  0  0  0  0  0  0  0  0  0  0
   -0.3392   -1.0739    0.0000 C   0  0  0  0  0  0  0  0  0  0  0  0
   -0.3392   -0.2489    0.0000 C   0  0  0  0  0  0  0  0  0  0  0  0
   -1.0537    0.1636    0.0000 C   0  0  0  0  0  0  0  0  0  0  0  0
   -1.7681   -0.2489    0.0000 O   0  0  0  0  0  0  0  0  0  0  0  0
   -1.0537    0.9886    0.0000 O   0  0  0  0  0  0  0  0  0  0  0  0
    0.3753   -2.3114    0.0000 O   0  0  0  0  0  0  0  0  0  0  0  0
   -0.3392   -2.7239    0.0000 C   0  0  0  0  0  0  0  0  0  0  0  0
   -0.3392   -3.5489    0.0000 N   0  0  0  0  0  0  0  0  0  0  0  0
   -1.0537   -3.9614    0.0000 C   0  0  0  0  0  0  0  0  0  0  0  0
   -1.7681   -3.5489    0.0000 C   0  0  0  0  0  0  0  0  0  0  0  0
   -1.7681   -2.7239    0.0000 C   0  0  0  0  0  0  0  0  0  0  0  0
   -1.0537   -2.3114    0.0000 N   0  0  0  0  0  0  0  0  0  0  0  0
  1  2  1  0
  2  3  2  0
  2  6  1  0
  3  4  1  0
  4  5  1  0
  4  8  2  0
  6  7  2  0
  7  8  1  0
  8  9  1  0
  9 10  2  0
  9 11  1  0
 11 12  1  0
 12 13  2  0
 12 17  1  0
 13 14  1  0
 14 15  2  0
 15 16  1  0
 15 21  1  0
 16 17  2  0
 17 18  1  0
 18 19  2  0
 18 20  1  0
 21 22  1  0
 22 23  2  0
 22 27  1  0
 23 24  1  0
 24 25  2  0
 25 26  1  0
 26 27  2  0
M  END
>  <DRUGBANK_ID>  (1) 
DB08402

>  <COMMON_NAME>  (1) 
2-[(2,4-DICHLOROBENZOYL)AMINO]-5-(PYRIMIDIN-2-YLOXY)BENZOIC ACID

$$$$
