
     RDKit          2D

  6  5  0  0  0  0  0  0  0  0999 V2000
   -0.1914   -0.7145    0.0000 C   0  0  0  0  0  0  0  0  0  0  0  0
    0.5230   -1.1270    0.0000 C   0  0  0  0  0  0  0  0  0  0  0  0
    1.2375   -0.7145    0.0000 C   0  0  0  0  0  0  0  0  0  0  0  0
    1.9520   -1.1270    0.0000 C   0  0  0  0  0  0  0  0  0  0  0  0
    2.6664   -0.7145    0.0000 N   0  0  0  0  0  0  0  0  0  0  0  0
    3.3809   -0.3020    0.0000 C   0  0  0  0  0  0  0  0  0  0  0  0
  1  2  1  0
  2  3  1  0
  3  4  1  0
  4  5  1  0
  5  6  3  0
M  CHG  2   5   1   6  -1
M  END
>  <DRUGBANK_ID>  (1) 
DB01826

>  <SECONDARY_ACCESSION_NUMBERS>  (1) 
EXPT02302

>  <COMMON_NAME>  (1) 
N-Butyl Isocyanide

>  <CAS_NUMBER>  (1) 
2769-64-4

>  <UNII>  (1) 
2T7Q0CK9IF

$$$$
