623
     RDKit          2D

 29 31  0  0  0  0  0  0  0  0999 V2000
    0.0869    0.6909    0.0000 C   0  0  0  0  0  0  0  0  0  0  0  0
    0.0869    1.5159    0.0000 F   0  0  0  0  0  0  0  0  0  0  0  0
    0.8013    0.2784    0.0000 C   0  0  0  0  0  0  0  0  0  0  0  0
    0.8013   -0.5466    0.0000 C   0  0  0  0  0  0  0  0  0  0  0  0
    1.5158   -0.9591    0.0000 F   0  0  0  0  0  0  0  0  0  0  0  0
    0.0869   -0.9591    0.0000 C   0  0  0  0  0  0  0  0  0  0  0  0
   -0.6276   -0.5466    0.0000 N   0  0  0  0  0  0  0  0  0  0  0  0
   -0.6276    0.2784    0.0000 C   0  0  0  0  0  0  0  0  0  0  0  0
    1.5158    0.6909    0.0000 C   0  0  0  0  0  0  0  0  0  0  0  0
    0.0869   -1.7841    0.0000 O   0  0  0  0  0  0  0  0  0  0  0  0
   -1.3421    0.6909    0.0000 O   0  0  0  0  0  0  0  0  0  0  0  0
   -1.3421    1.5159    0.0000 C   0  0  0  0  0  0  0  0  0  0  0  0
   -2.0565    1.9284    0.0000 C   0  0  0  0  0  0  0  0  0  0  0  0
   -2.0565    2.7534    0.0000 C   0  0  0  0  0  0  0  0  0  0  0  0
   -1.3421    3.1659    0.0000 C   0  0  0  0  0  0  0  0  0  0  0  0
   -0.6276    2.7534    0.0000 C   0  0  0  0  0  0  0  0  0  0  0  0
   -0.6276    1.9284    0.0000 C   0  0  0  0  0  0  0  0  0  0  0  0
   -2.7710    3.1659    0.0000 C   0  0  0  0  0  0  0  0  0  0  0  0
   -2.7710    3.9909    0.0000 N   0  0  0  0  0  0  0  0  0  0  0  0
   -3.4855    2.7534    0.0000 N   0  0  0  0  0  0  0  0  0  0  0  0
    0.8013   -2.1966    0.0000 C   0  0  0  0  0  0  0  0  0  0  0  0
    1.5158   -1.7841    0.0000 C   0  0  0  0  0  0  0  0  0  0  0  0
    2.2303   -2.1966    0.0000 C   0  0  0  0  0  0  0  0  0  0  0  0
    2.2303   -3.0216    0.0000 C   0  0  0  0  0  0  0  0  0  0  0  0
    1.5158   -3.4341    0.0000 C   0  0  0  0  0  0  0  0  0  0  0  0
    0.8013   -3.0216    0.0000 C   0  0  0  0  0  0  0  0  0  0  0  0
    1.5158   -4.2591    0.0000 C   0  0  0  0  0  0  0  0  0  0  0  0
    2.2303   -4.6716    0.0000 N   0  0  0  0  0  0  0  0  0  0  0  0
    0.8013   -4.6716    0.0000 N   0  0  0  0  0  0  0  0  0  0  0  0
  1  2  1  0
  1  3  2  0
  1  8  1  0
  3  4  1  0
  3  9  1  0
  4  5  1  0
  4  6  2  0
  6  7  1  0
  6 10  1  0
  7  8  2  0
  8 11  1  0
 10 21  1  0
 11 12  1  0
 12 13  2  0
 12 17  1  0
 13 14  1  0
 14 15  2  0
 14 18  1  0
 15 16  1  0
 16 17  2  0
 18 19  2  0
 18 20  1  0
 21 22  2  0
 21 26  1  0
 22 23  1  0
 23 24  2  0
 24 25  1  0
 25 26  2  0
 25 27  1  0
 27 28  2  0
 27 29  1  0
M  CHG  1   7   1
M  END
>  <DRUGBANK_ID>  (1) 
DB04432

>  <SECONDARY_ACCESSION_NUMBERS>  (1) 
EXPT00266

>  <COMMON_NAME>  (1) 
ZK-805623

$$$$
