
     RDKit          2D

 31 35  0  0  0  0  0  0  0  0999 V2000
   -1.6346   -0.4274    0.0000 N   0  0  0  0  0  0  0  0  0  0  0  0
   -0.8087   -0.4287    0.0000 C   0  0  0  0  0  0  0  0  0  0  0  0
   -0.3905    0.2875    0.0000 C   0  0  0  0  0  0  0  0  0  0  0  0
    0.3558   -1.1814    0.0000 C   0  0  0  0  0  0  0  0  0  0  0  0
    0.3561   -2.0072    0.0000 N   0  0  0  0  0  0  0  0  0  0  0  0
    1.7815   -2.0066    0.0000 C   0  0  0  0  0  0  0  0  0  0  0  0
    1.7812   -1.1808    0.0000 C   0  0  0  0  0  0  0  0  0  0  0  0
    1.0642   -0.7640    0.0000 C   0  0  0  0  0  0  0  0  0  0  0  0
    2.4953   -2.4174    0.0000 C   0  0  0  0  0  0  0  0  0  0  0  0
    3.2126   -2.0036    0.0000 C   0  0  0  0  0  0  0  0  0  0  0  0
    3.2097   -1.1723    0.0000 C   0  0  0  0  0  0  0  0  0  0  0  0
    2.4935   -0.7627    0.0000 C   0  0  0  0  0  0  0  0  0  0  0  0
   -0.3572   -2.4189    0.0000 C   0  0  0  0  0  0  0  0  0  0  0  0
   -1.0704   -2.0059    0.0000 C   0  0  0  0  0  0  0  0  0  0  0  0
   -1.7836   -2.4189    0.0000 C   0  0  0  0  0  0  0  0  0  0  0  0
   -2.4968   -2.0059    0.0000 N   0  0  0  0  0  0  0  0  0  0  0  0
   -2.4958   -1.1801    0.0000 C   0  0  0  0  0  0  0  0  0  0  0  0
   -3.2126   -2.4180    0.0000 C   0  0  0  0  0  0  0  0  0  0  0  0
    1.0618    0.0618    0.0000 C   0  0  0  0  0  0  0  0  0  0  0  0
    1.7270    0.5494    0.0000 C   0  0  0  0  0  0  0  0  0  0  0  0
    1.4695    1.3341    0.0000 N   0  0  0  0  0  0  0  0  0  0  0  0
    0.6436    1.3317    0.0000 C   0  0  0  0  0  0  0  0  0  0  0  0
    0.3908    0.5455    0.0000 C   0  0  0  0  0  0  0  0  0  0  0  0
    2.5133    0.2970    0.0000 O   0  0  0  0  0  0  0  0  0  0  0  0
    0.1562    1.9982    0.0000 O   0  0  0  0  0  0  0  0  0  0  0  0
   -1.6324    0.9980    0.0000 C   0  0  0  0  0  0  0  0  0  0  0  0
   -0.8087    0.9930    0.0000 C   0  0  0  0  0  0  0  0  0  0  0  0
   -0.3944    1.7027    0.0000 C   0  0  0  0  0  0  0  0  0  0  0  0
   -0.8026    2.4180    0.0000 C   0  0  0  0  0  0  0  0  0  0  0  0
   -1.6295    2.4189    0.0000 C   0  0  0  0  0  0  0  0  0  0  0  0
   -2.0400    1.7085    0.0000 C   0  0  0  0  0  0  0  0  0  0  0  0
  1  2  1  0
  2  3  2  0
  3 27  1  0
  4  5  1  0
  5  6  1  0
  5 13  1  0
  6  7  2  0
  6  9  1  0
  7  8  1  0
  8  4  2  0
  8 19  1  0
  9 10  2  0
 10 11  1  0
 11 12  2  0
 12  7  1  0
 13 14  1  0
 14 15  1  0
 15 16  1  0
 16 17  1  0
 16 18  1  0
 19 20  1  0
 20 21  1  0
 20 24  2  0
 21 22  1  0
 22 23  1  0
 22 25  2  0
 23 19  2  0
 23  3  1  0
 26 27  2  0
 26  1  1  0
 27 28  1  0
 28 29  2  0
 29 30  1  0
 30 31  2  0
 31 26  1  0
M  END
>  <DRUGBANK_ID>  (1) 
DB03777

>  <SECONDARY_ACCESSION_NUMBERS>  (1) 
EXPT00703

>  <COMMON_NAME>  (1) 
Bisindolylmaleimide I

>  <CAS_NUMBER>  (1) 
133052-90-1

>  <UNII>  (1) 
L79H6N0V6C

$$$$
