
     RDKit          2D

 35 37  0  0  1  0  0  0  0  0999 V2000
    3.3048   -1.1701    0.0000 C   0  0  0  0  0  0  0  0  0  0  0  0
    0.5310    2.9297    0.0000 C   0  0  0  0  0  0  0  0  0  0  0  0
    4.4883   -0.3693    0.0000 C   0  0  0  0  0  0  0  0  0  0  0  0
    0.9100    6.5209    0.0000 C   0  0  0  0  0  0  0  0  0  0  0  0
    4.6775    2.0759    0.0000 C   0  0  0  0  0  0  0  0  0  0  0  0
    4.7177    1.5130    0.0000 C   0  0  0  0  0  0  0  0  0  0  0  0
   -0.4112    0.3001    0.0000 C   0  0  0  0  0  0  0  0  0  0  0  0
    1.5573    0.1378    0.0000 C   0  0  0  0  0  0  0  0  0  0  0  0
    2.0196   -0.5455    0.0000 C   0  0  0  0  0  0  0  0  0  0  0  0
    0.7344    0.0791    0.0000 C   0  0  0  0  0  0  0  0  0  0  0  0
    1.7145    3.7305    0.0000 C   0  0  0  0  0  0  0  0  0  0  0  0
    1.4556    1.5631    0.0000 C   0  0  0  0  0  0  0  0  0  0  0  0
    3.8226    3.1646    0.0000 C   0  0  0  0  0  0  0  0  0  0  0  0
    0.4276    4.4414    0.0000 C   0  0  0  0  0  0  0  0  0  0  0  0
    2.8425   -0.4868    0.0000 C   0  0  0  0  0  0  0  0  0  0  0  0
    1.3539    2.9885    0.0000 C   0  0  0  0  0  0  0  0  0  0  0  0
    4.0260    0.3140    0.0000 C   0  0  0  0  0  0  0  0  0  0  0  0
    0.8824    5.6964    0.0000 C   0  0  0  0  0  0  0  0  0  0  0  0
    1.2522    4.4138    0.0000 C   0  0  0  0  0  0  0  0  0  0  0  0
    1.8162    2.3052    0.0000 C   0  0  0  0  0  0  0  0  0  0  0  0
    4.2849    2.4813    0.0000 C   0  0  0  0  0  0  0  0  0  0  0  0
    0.6327    1.5044    0.0000 C   0  0  0  0  0  0  0  0  0  0  0  0
    2.9997    3.1059    0.0000 C   0  0  0  0  0  0  0  0  0  0  0  0
    3.2031    0.2553    0.0000 C   0  0  0  0  0  0  0  0  0  0  0  0
    4.3866    1.0560    0.0000 C   0  0  0  0  0  0  0  0  0  0  0  0
    3.9243    1.7393    0.0000 C   0  0  0  0  0  0  0  0  0  0  0  0
    0.2721    0.7624    0.0000 C   0  0  0  0  0  0  0  0  0  0  0  0
    1.5332    5.1894    0.0000 N   0  0  0  0  0  0  0  0  0  0  0  0
    5.1078    2.5400    0.0000 O   0  0  0  0  0  0  0  0  0  0  0  0
    2.5374    3.7892    0.0000 O   0  0  0  0  0  0  0  0  0  0  0  0
    3.6654   -0.4280    0.0000 O   0  0  0  0  0  0  0  0  0  0  0  0
    5.2095    1.1147    0.0000 O   0  0  0  0  0  0  0  0  0  0  0  0
    2.6391    2.3639    0.0000 O   0  0  0  0  0  0  0  0  0  0  0  0
   -0.1902    1.4457    0.0000 O   0  0  0  0  0  0  0  0  0  0  0  0
    0.1991    5.2341    0.0000 S   0  0  0  0  0  0  0  0  0  0  0  0
  9  8  1  0
 10  8  1  0
 15  1  1  1
 15  9  1  0
 16  2  1  0
 16 11  2  0
 17  3  1  6
 18  4  1  0
 19 11  1  0
 19 14  2  0
 20 12  1  0
 20 16  1  1
 21 13  1  0
 21 29  1  6
 22 12  1  1
 23 13  1  0
 24 15  1  0
 24 17  1  0
 24 31  1  6
 25 17  1  0
 26  5  1  0
 26  6  1  0
 26 21  1  0
 26 25  1  0
 27  7  1  6
 27 10  1  0
 27 22  1  0
 28 18  2  0
 28 19  1  0
 30 23  2  0
 32 25  2  0
 33 20  1  0
 33 23  1  0
 34 22  1  0
 34 27  1  0
 35 14  1  0
 35 18  1  0
M  END
>  <DRUGBANK_ID>  (1) 
DB03010

>  <SECONDARY_ACCESSION_NUMBERS>  (1) 
EXPT01349

>  <COMMON_NAME>  (1) 
Patupilone

>  <CAS_NUMBER>  (1) 
152044-54-7

>  <UNII>  (1) 
UEC0H0URSE

>  <SYNONYMS>  (1) 
(âˆ’)-epothilone B; Epo B; Epothilone B; patupilona; Patupilone

$$$$
