12U
     RDKit          2D

 29 31  0  0  0  0  0  0  0  0999 V2000
   -0.5114    0.4582    0.0000 O   0  0  0  0  0  0  0  0  0  0  0  0
    0.2030    0.0457    0.0000 C   0  0  0  0  0  0  0  0  0  0  0  0
    0.9175    0.4582    0.0000 N   0  0  0  0  0  0  0  0  0  0  0  0
    0.9175    1.2832    0.0000 C   0  0  0  0  0  0  0  0  0  0  0  0
    1.6320    1.6957    0.0000 C   0  0  0  0  0  0  0  0  0  0  0  0
    1.6320    2.5207    0.0000 C   0  0  0  0  0  0  0  0  0  0  0  0
    2.3464    2.9332    0.0000 C   0  0  0  0  0  0  0  0  0  0  0  0
    3.0609    2.5207    0.0000 C   0  0  0  0  0  0  0  0  0  0  0  0
    3.7754    2.9332    0.0000 C   0  0  0  0  0  0  0  0  0  0  0  0
    4.4899    2.5207    0.0000 N   0  0  0  0  0  0  0  0  0  0  0  0
    3.7754    3.7582    0.0000 N   0  0  0  0  0  0  0  0  0  0  0  0
    3.0609    1.6957    0.0000 C   0  0  0  0  0  0  0  0  0  0  0  0
    2.3464    1.2832    0.0000 C   0  0  0  0  0  0  0  0  0  0  0  0
    0.2030   -0.7793    0.0000 C   0  0  0  0  0  0  0  0  0  0  0  0
    0.8705   -1.2642    0.0000 C   0  0  0  0  0  0  0  0  0  0  0  0
    0.6155   -2.0488    0.0000 C   0  0  0  0  0  0  0  0  0  0  0  0
   -0.2095   -2.0488    0.0000 C   0  0  0  0  0  0  0  0  0  0  0  0
   -0.4644   -1.2642    0.0000 N   0  0  0  0  0  0  0  0  0  0  0  0
   -1.2490   -1.0093    0.0000 C   0  0  0  0  0  0  0  0  0  0  0  0
   -1.8621   -1.5613    0.0000 O   0  0  0  0  0  0  0  0  0  0  0  0
   -1.4206   -0.2023    0.0000 C   0  0  0  0  0  0  0  0  0  0  0  0
   -2.2052    0.0526    0.0000 N   0  0  0  0  0  0  0  0  0  0  0  0
   -2.8183   -0.4994    0.0000 C   0  0  0  0  0  0  0  0  0  0  0  0
   -2.5869   -1.2913    0.0000 C   0  0  0  0  0  0  0  0  0  0  0  0
   -3.0618   -1.9659    0.0000 C   0  0  0  0  0  0  0  0  0  0  0  0
   -3.8853   -2.0153    0.0000 C   0  0  0  0  0  0  0  0  0  0  0  0
   -4.4374   -1.4022    0.0000 C   0  0  0  0  0  0  0  0  0  0  0  0
   -4.3022   -0.5883    0.0000 C   0  0  0  0  0  0  0  0  0  0  0  0
   -3.5817   -0.1865    0.0000 C   0  0  0  0  0  0  0  0  0  0  0  0
  1  2  2  0
  2  3  1  0
  3  4  1  0
  4  5  1  0
  5  6  2  0
  5 13  1  0
  6  7  1  0
  7  8  2  0
  8  9  1  0
  8 12  1  0
  9 10  2  0
  9 11  1  0
 12 13  2  0
 14  2  1  6
 14 15  1  0
 14 18  1  0
 15 16  1  0
 16 17  1  0
 17 18  1  0
 18 19  1  0
 19 20  2  0
 19 21  1  0
 21 22  1  0
 22 23  1  0
 23 24  1  0
 23 29  1  0
 24 25  1  0
 25 26  1  0
 26 27  1  0
 27 28  1  0
 28 29  1  0
M  END
>  <DRUGBANK_ID>  (1) 
DB06853

>  <COMMON_NAME>  (1) 
N-cycloheptylglycyl-N-(4-carbamimidoylbenzyl)-L-prolinamide

$$$$
