
     RDKit          2D

 31 33  0  0  1  0  0  0  0  0999 V2000
   -4.9500   -3.2408    0.0000 C   0  0  0  0  0  0  0  0  0  0  0  0
   -4.5375   -2.5263    0.0000 C   0  0  0  0  0  0  0  0  0  0  0  0
   -3.7125   -2.5263    0.0000 C   0  0  0  0  0  0  0  0  0  0  0  0
   -3.3000   -3.2408    0.0000 C   0  0  0  0  0  0  0  0  0  0  0  0
   -3.3000   -1.8118    0.0000 C   0  0  0  0  0  0  0  0  0  0  0  0
   -2.4750   -1.8118    0.0000 C   0  0  0  0  0  0  0  0  0  0  0  0
   -2.0625   -2.5263    0.0000 O   0  0  0  0  0  0  0  0  0  0  0  0
   -2.0625   -1.0974    0.0000 C   0  0  0  0  0  0  0  0  0  0  0  0
   -1.2375   -1.0974    0.0000 C   0  0  0  0  0  0  0  0  0  0  0  0
   -0.8250   -1.8118    0.0000 O   0  0  0  0  0  0  0  0  0  0  0  0
   -0.8250   -0.3829    0.0000 C   0  0  0  0  0  0  0  0  0  0  0  0
   -1.2375    0.3316    0.0000 C   0  0  0  0  0  0  0  0  0  0  0  0
   -0.8250    1.0461    0.0000 C   0  0  0  0  0  0  0  0  0  0  0  0
    0.0000    1.0461    0.0000 C   0  0  0  0  0  0  0  0  0  0  0  0
    0.4125    0.3316    0.0000 C   0  0  0  0  0  0  0  0  0  0  0  0
    0.0000   -0.3829    0.0000 C   0  0  0  0  0  0  0  0  0  0  0  0
    0.4125   -1.0974    0.0000 O   0  0  0  0  0  0  0  0  0  0  0  0
    0.4125    1.7605    0.0000 C   0  0  0  0  0  0  0  0  0  0  0  0
    0.0000    2.4750    0.0000 O   0  0  0  0  0  0  0  0  0  0  0  0
    0.4125    3.1895    0.0000 C   0  0  0  0  0  0  0  0  0  0  0  0
    1.2375    1.7605    0.0000 C   0  0  0  0  0  0  0  0  0  0  0  0
    1.6500    1.0461    0.0000 O   0  0  0  0  0  0  0  0  0  0  0  0
    1.6500    2.4750    0.0000 C   0  0  0  0  0  0  0  0  0  0  0  0
    1.2375    3.1895    0.0000 O   0  0  0  0  0  0  0  0  0  0  0  0
    2.4750    2.4750    0.0000 C   0  0  0  0  0  0  0  0  0  0  0  0
    2.8875    3.1895    0.0000 C   0  0  0  0  0  0  0  0  0  0  0  0
    2.8875    1.7605    0.0000 O   0  0  0  0  0  0  0  0  0  0  0  0
   -2.0625    0.3316    0.0000 C   0  0  0  0  0  0  0  0  0  0  0  0
   -2.4750   -0.3829    0.0000 C   0  0  0  0  0  0  0  0  0  0  0  0
   -3.3000   -0.3829    0.0000 C   0  0  0  0  0  0  0  0  0  0  0  0
   -3.7125   -1.0974    0.0000 C   0  0  0  0  0  0  0  0  0  0  0  0
  1  2  1  0
  2  3  1  0
  3  4  1  6
  3  5  1  0
  5  6  2  0
  5 31  1  0
  6  7  1  0
  6  8  1  0
  8  9  2  0
  8 29  1  0
  9 10  1  0
  9 11  1  0
 11 12  2  0
 11 16  1  0
 12 13  1  0
 12 28  1  0
 14 13  1  1
 14 15  1  0
 14 18  1  0
 15 16  1  0
 16 17  2  0
 18 19  1  6
 18 21  1  0
 19 20  1  0
 21 22  2  0
 21 23  1  0
 23 24  1  1
 23 25  1  0
 25 26  1  1
 25 27  1  0
 28 29  2  0
 29 30  1  0
 30 31  2  0
M  END
>  <DRUGBANK_ID>  (1) 
DB04240

>  <SECONDARY_ACCESSION_NUMBERS>  (1) 
EXPT01305

>  <COMMON_NAME>  (1) 
(1S)-1-C-{(2R)-6-[(2R)-2-Butanyl]-5,10-dihydroxy-4-oxo-1,2,3,4-tetrahydro-2-anthracenyl}-5-deoxy-1-O-methyl-D-xylulose

>  <SYNONYMS>  (1) 
1,2-HYDRO-1-OXY-3,4-HYDRO-3-(1-METHOXY-2-OXY-3,4-DIHYDROXYPENTYL)-8,9-DIHYDROXY-7-(SEC-BUTYL)-ANTHRACENE

$$$$
