QND
     RDKit          2D

 13 14  0  0  0  0  0  0  0  0999 V2000
   -0.3867   -0.7913    0.0000 N   0  0  0  0  0  0  0  0  0  0  0  0
   -1.1012   -0.3788    0.0000 C   0  0  0  0  0  0  0  0  0  0  0  0
   -1.1012    0.4462    0.0000 C   0  0  0  0  0  0  0  0  0  0  0  0
   -0.3867    0.8587    0.0000 C   0  0  0  0  0  0  0  0  0  0  0  0
    1.0422    0.8587    0.0000 C   0  0  0  0  0  0  0  0  0  0  0  0
    1.7567    0.4462    0.0000 C   0  0  0  0  0  0  0  0  0  0  0  0
    1.7567   -0.3788    0.0000 C   0  0  0  0  0  0  0  0  0  0  0  0
    1.0422   -0.7913    0.0000 C   0  0  0  0  0  0  0  0  0  0  0  0
    0.3277    0.4462    0.0000 C   0  0  0  0  0  0  0  0  0  0  0  0
    0.3277   -0.3788    0.0000 C   0  0  0  0  0  0  0  0  0  0  0  0
   -1.8157   -0.7913    0.0000 C   0  0  0  0  0  0  0  0  0  0  0  0
   -1.8157   -1.6163    0.0000 O   0  0  0  0  0  0  0  0  0  0  0  0
   -2.5301   -0.3788    0.0000 O   0  0  0  0  0  0  0  0  0  0  0  0
  1  2  2  0
  1 10  1  0
  2  3  1  0
  2 11  1  0
  3  4  2  0
  4  9  1  0
  5  6  1  0
  5  9  2  0
  6  7  2  0
  7  8  1  0
  8 10  2  0
  9 10  1  0
 11 12  2  0
 11 13  1  0
M  END
>  <DRUGBANK_ID>  (1) 
DB02428

>  <SECONDARY_ACCESSION_NUMBERS>  (1) 
EXPT02730; DB08452

>  <COMMON_NAME>  (1) 
Quinaldic Acid

>  <CAS_NUMBER>  (1) 
93-10-7

>  <UNII>  (1) 
P90NWT719R

$$$$
