
     RDKit          2D

 11 10  0  0  0  0  0  0  0  0999 V2000
    0.2827   -1.2301    0.0000 C   0  0  0  0  0  0  0  0  0  0  0  0
    0.2962   -2.0580    0.0000 O   0  0  0  0  0  0  0  0  0  0  0  0
   -0.4135   -0.8220    0.0000 C   0  0  0  0  0  0  0  0  0  0  0  0
    1.0124   -0.8499    0.0000 O   0  0  0  0  0  0  0  0  0  0  0  0
   -1.1307   -1.2302    0.0000 N   0  0  0  0  0  0  0  0  0  0  0  0
    0.3056    1.2329    0.0000 S   0  0  0  0  0  0  0  0  0  0  0  0
   -0.4117   -0.0031    0.0000 C   0  0  0  0  0  0  0  0  0  0  0  0
    0.3037    0.4078    0.0000 C   0  0  0  0  0  0  0  0  0  0  0  0
    0.3075    2.0580    0.0000 C   0  0  0  0  0  0  0  0  0  0  0  0
   -0.5194    1.2348    0.0000 O   0  0  0  0  0  0  0  0  0  0  0  0
    1.1307    1.2311    0.0000 O   0  0  0  0  0  0  0  0  0  0  0  0
  2  1  2  0
  3  1  1  0
  3  5  1  1
  4  1  1  0
  6 10  2  0
  6 11  2  0
  7  3  1  0
  8  6  1  0
  8  7  1  0
  9  6  1  0
M  END
>  <DRUGBANK_ID>  (1) 
DB03790

>  <SECONDARY_ACCESSION_NUMBERS>  (1) 
EXPT02437

>  <COMMON_NAME>  (1) 
L-methionine sulfone

>  <CAS_NUMBER>  (1) 
7314-32-1

>  <UNII>  (1) 
V3Z9QH81BX

>  <SYNONYMS>  (1) 
(S)-Amino-4-(methylsulphonyl)butyric acid; L-2-amino-4-(methylsulfonyl)butanoic acid; Methionine sulfone; S-dioxymethionine

$$$$
