
     RDKit          2D

 13 14  0  0  0  0  0  0  0  0999 V2000
    1.3176   -0.7615    0.0000 C   0  0  0  0  0  0  0  0  0  0  0  0
    0.6857   -0.2311    0.0000 C   0  0  0  0  0  0  0  0  0  0  0  0
    0.2093    0.5938    0.0000 C   0  0  0  0  0  0  0  0  0  0  0  0
    0.9238    0.1813    0.0000 C   0  0  0  0  0  0  0  0  0  0  0  0
    0.9238   -0.6435    0.0000 C   0  0  0  0  0  0  0  0  0  0  0  0
    0.2093   -1.0562    0.0000 C   0  0  0  0  0  0  0  0  0  0  0  0
   -0.5051   -0.6435    0.0000 C   0  0  0  0  0  0  0  0  0  0  0  0
   -0.7874   -1.4189    0.0000 Br  0  0  0  0  0  0  0  0  0  0  0  0
   -1.3176   -0.5003    0.0000 Br  0  0  0  0  0  0  0  0  0  0  0  0
   -0.5051    0.1813    0.0000 C   0  0  0  0  0  0  0  0  0  0  0  0
   -1.2197    0.5938    0.0000 O   0  0  0  0  0  0  0  0  0  0  0  0
    0.2093    1.4189    0.0000 C   0  0  0  0  0  0  0  0  0  0  0  0
    1.3176    0.2991    0.0000 C   0  0  0  0  0  0  0  0  0  0  0  0
  1  2  1  0
  2 13  1  0
  3  2  1  0
  3  4  1  0
  3 10  1  0
  3 12  1  1
  5  4  1  0
  6  5  1  6
  6  2  1  0
  6  7  1  0
  7  8  1  0
  7  9  1  0
  7 10  1  0
 10 11  2  0
M  END
>  <DRUGBANK_ID>  (1) 
DB15659

>  <COMMON_NAME>  (1) 
alpha,alpha-Dibromo-D-camphor

>  <CAS_NUMBER>  (1) 
514-12-5

>  <UNII>  (1) 
F89Z8SAG3O

>  <SYNONYMS>  (1) 
(+)-3,3-Dibromocamphor; 3,3-dibromocamphor; alpha,alpha-Dibromocamphor

$$$$
