855
     RDKit          2D

 24 27  0  0  0  0  0  0  0  0999 V2000
   -2.0529   -3.0347    0.0000 C   0  0  0  0  0  0  0  0  0  0  0  0
   -2.0529   -2.2097    0.0000 C   0  0  0  0  0  0  0  0  0  0  0  0
   -2.7674   -1.7972    0.0000 C   0  0  0  0  0  0  0  0  0  0  0  0
   -2.7674   -0.9722    0.0000 C   0  0  0  0  0  0  0  0  0  0  0  0
   -2.0529   -0.5597    0.0000 C   0  0  0  0  0  0  0  0  0  0  0  0
   -1.3385   -0.9722    0.0000 C   0  0  0  0  0  0  0  0  0  0  0  0
   -1.3385   -1.7972    0.0000 N   0  0  0  0  0  0  0  0  0  0  0  0
   -0.6240   -0.5597    0.0000 C   0  0  0  0  0  0  0  0  0  0  0  0
   -0.6240    0.2653    0.0000 N   0  0  0  0  0  0  0  0  0  0  0  0
    0.0905    0.6778    0.0000 C   0  0  0  0  0  0  0  0  0  0  0  0
    0.8049    1.9153    0.0000 C   0  0  0  0  0  0  0  0  0  0  0  0
    0.8049    2.7403    0.0000 C   0  0  0  0  0  0  0  0  0  0  0  0
    1.5194    3.1528    0.0000 C   0  0  0  0  0  0  0  0  0  0  0  0
    2.2339    2.7403    0.0000 N   0  0  0  0  0  0  0  0  0  0  0  0
    2.2339    1.9153    0.0000 C   0  0  0  0  0  0  0  0  0  0  0  0
    1.5194    1.5028    0.0000 C   0  0  0  0  0  0  0  0  0  0  0  0
    0.8049    0.2653    0.0000 C   0  0  0  0  0  0  0  0  0  0  0  0
    1.5194    0.6778    0.0000 C   0  0  0  0  0  0  0  0  0  0  0  0
    2.2339    0.2653    0.0000 C   0  0  0  0  0  0  0  0  0  0  0  0
    2.2339   -0.5597    0.0000 C   0  0  0  0  0  0  0  0  0  0  0  0
    1.5194   -0.9722    0.0000 C   0  0  0  0  0  0  0  0  0  0  0  0
    0.8049   -0.5597    0.0000 C   0  0  0  0  0  0  0  0  0  0  0  0
    0.0905   -0.9722    0.0000 N   0  0  0  0  0  0  0  0  0  0  0  0
    0.0905    1.5028    0.0000 N   0  0  0  0  0  0  0  0  0  0  0  0
  1  2  1  0
  2  3  2  0
  2  7  1  0
  3  4  1  0
  4  5  2  0
  5  6  1  0
  6  7  2  0
  6  8  1  0
  8  9  2  0
  8 23  1  0
  9 10  1  0
 10 17  2  0
 11 12  2  0
 11 16  1  0
 11 24  1  0
 12 13  1  0
 13 14  2  0
 14 15  1  0
 15 16  2  0
 17 18  1  0
 17 22  1  0
 18 19  2  0
 19 20  1  0
 20 21  2  0
 21 22  1  0
 22 23  2  0
 24 10  1  0
M  END
>  <DRUGBANK_ID>  (1) 
DB07267

>  <COMMON_NAME>  (1) 
2-(6-methylpyridin-2-yl)-N-pyridin-4-ylquinazolin-4-amine

$$$$
