
     RDKit          2D

 15 16  0  0  0  0  0  0  0  0999 V2000
    1.2225    1.4867    0.0000 N   0  0  0  0  0  0  0  0  0  0  0  0
    0.4371    1.2349    0.0000 C   0  0  0  0  0  0  0  0  0  0  0  0
   -0.2740    1.6449    0.0000 C   0  0  0  0  0  0  0  0  0  0  0  0
   -0.9904    1.2349    0.0000 N   0  0  0  0  0  0  0  0  0  0  0  0
   -0.9904    0.4099    0.0000 C   0  0  0  0  0  0  0  0  0  0  0  0
   -0.2740    0.0000    0.0000 N   0  0  0  0  0  0  0  0  0  0  0  0
    0.4371    0.4099    0.0000 C   0  0  0  0  0  0  0  0  0  0  0  0
    1.2225    0.1581    0.0000 N   0  0  0  0  0  0  0  0  0  0  0  0
    1.7017    0.8249    0.0000 C   0  0  0  0  0  0  0  0  0  0  0  0
   -0.2740   -0.8249    0.0000 C   0  0  0  0  0  0  0  0  0  0  0  0
   -0.9904   -1.2348    0.0000 C   0  0  0  0  0  0  0  0  0  0  0  0
   -0.9904   -2.0598    0.0000 C   0  0  0  0  0  0  0  0  0  0  0  0
   -0.2740   -2.4698    0.0000 C   0  0  0  0  0  0  0  0  0  0  0  0
   -1.7017   -2.4698    0.0000 C   0  0  0  0  0  0  0  0  0  0  0  0
   -0.2740    2.4698    0.0000 N   0  0  0  0  0  0  0  0  0  0  0  0
  1  2  1  0
  1  9  2  0
  2  3  2  0
  2  7  1  0
  3  4  1  0
  3 15  1  0
  4  5  2  0
  5  6  1  0
  6  7  1  0
  6 10  1  0
  7  8  2  0
  8  9  1  0
 10 11  1  0
 11 12  2  3
 12 13  1  0
 12 14  1  0
M  END
>  <DRUGBANK_ID>  (1) 
DB08074

>  <COMMON_NAME>  (1) 
3-(3-Methyl-2-buten-1-yl)-3H-purin-6-amine

$$$$
