
     RDKit          2D

 39 43  0  0  1  0  0  0  0  0999 V2000
    4.4029   -4.0132    0.0000 C   0  0  0  0  0  0  0  0  0  0  0  0
    3.7898   -4.5653    0.0000 C   0  0  0  0  0  0  0  0  0  0  0  0
    3.1767   -5.1173    0.0000 C   0  0  0  0  0  0  0  0  0  0  0  0
    4.3418   -5.1784    0.0000 C   0  0  0  0  0  0  0  0  0  0  0  0
    4.0869   -5.9630    0.0000 C   0  0  0  0  0  0  0  0  0  0  0  0
    4.6389   -6.5761    0.0000 C   0  0  0  0  0  0  0  0  0  0  0  0
    4.3839   -7.3607    0.0000 C   0  0  0  0  0  0  0  0  0  0  0  0
    3.5770   -7.5322    0.0000 C   0  0  0  0  0  0  0  0  0  0  0  0
    3.0249   -6.9191    0.0000 C   0  0  0  0  0  0  0  0  0  0  0  0
    3.2799   -6.1345    0.0000 C   0  0  0  0  0  0  0  0  0  0  0  0
    3.3220   -8.3169    0.0000 O   0  0  0  0  0  0  0  0  0  0  0  0
    2.5151   -8.4884    0.0000 C   0  0  0  0  0  0  0  0  0  0  0  0
    2.2601   -9.2730    0.0000 C   0  0  0  0  0  0  0  0  0  0  0  0
    1.4532   -9.4445    0.0000 C   0  0  0  0  0  0  0  0  0  0  0  0
    0.9011   -8.8314    0.0000 C   0  0  0  0  0  0  0  0  0  0  0  0
    1.1561   -8.0468    0.0000 C   0  0  0  0  0  0  0  0  0  0  0  0
    1.9630   -7.8753    0.0000 N   0  0  0  0  0  0  0  0  0  0  0  0
    0.0941   -9.0030    0.0000 C   0  0  0  0  0  0  0  0  0  0  0  0
   -0.4579   -8.3899    0.0000 O   0  0  0  0  0  0  0  0  0  0  0  0
   -0.1608   -9.7876    0.0000 N   0  0  0  0  0  0  0  0  0  0  0  0
    3.2377   -3.9522    0.0000 N   0  0  0  0  0  0  0  0  0  0  0  0
    3.4927   -3.1676    0.0000 C   0  0  0  0  0  0  0  0  0  0  0  0
    2.9406   -2.5545    0.0000 C   0  0  0  0  0  0  0  0  0  0  0  0
    3.1956   -1.7698    0.0000 C   0  0  0  0  0  0  0  0  0  0  0  0
    2.6435   -1.1567    0.0000 O   0  0  0  0  0  0  0  0  0  0  0  0
    2.8985   -0.3721    0.0000 C   0  0  0  0  0  0  0  0  0  0  0  0
    3.7054   -0.2006    0.0000 C   0  0  0  0  0  0  0  0  0  0  0  0
    3.9604    0.5840    0.0000 C   0  0  0  0  0  0  0  0  0  0  0  0
    3.4084    1.1971    0.0000 C   0  0  0  0  0  0  0  0  0  0  0  0
    2.6014    1.0256    0.0000 C   0  0  0  0  0  0  0  0  0  0  0  0
    2.3464    0.2410    0.0000 C   0  0  0  0  0  0  0  0  0  0  0  0
    1.5214    0.2410    0.0000 C   0  0  0  0  0  0  0  0  0  0  0  0
    0.9694   -0.3721    0.0000 C   0  0  0  0  0  0  0  0  0  0  0  0
    0.1624   -0.2006    0.0000 C   0  0  0  0  0  0  0  0  0  0  0  0
   -0.0925    0.5840    0.0000 C   0  0  0  0  0  0  0  0  0  0  0  0
    0.4595    1.1971    0.0000 C   0  0  0  0  0  0  0  0  0  0  0  0
    1.2665    1.0256    0.0000 C   0  0  0  0  0  0  0  0  0  0  0  0
    1.9339    1.5105    0.0000 N   0  0  0  0  0  0  0  0  0  0  0  0
    2.1337   -2.7260    0.0000 O   0  0  0  0  0  0  0  0  0  0  0  0
  1  2  1  0
  2  3  1  0
  2  4  1  0
  2 21  1  0
  4  5  1  0
  5  6  2  0
  5 10  1  0
  6  7  1  0
  7  8  2  0
  8  9  1  0
  8 11  1  0
  9 10  2  0
 11 12  1  0
 12 13  2  0
 12 17  1  0
 13 14  1  0
 14 15  2  0
 15 16  1  0
 15 18  1  0
 16 17  2  0
 18 19  2  0
 18 20  1  0
 21 22  1  0
 22 23  1  0
 23 24  1  0
 23 39  1  6
 24 25  1  0
 25 26  1  0
 26 27  2  0
 26 31  1  0
 27 28  1  0
 28 29  2  0
 29 30  1  0
 30 31  2  0
 30 38  1  0
 31 32  1  0
 32 33  2  0
 32 37  1  0
 33 34  1  0
 34 35  2  0
 35 36  1  0
 36 37  2  0
 37 38  1  0
M  END
>  <DRUGBANK_ID>  (1) 
DB12858

>  <COMMON_NAME>  (1) 
LY-377604

>  <CAS_NUMBER>  (1) 
204592-94-9

>  <UNII>  (1) 
OCC6TB3P6K

$$$$
