
     RDKit          2D

 20 21  0  0  0  0  0  0  0  0999 V2000
   -2.8578    1.6495    0.0000 C   0  0  0  0  0  0  0  0  0  0  0  0
   -2.1434    2.0621    0.0000 C   0  0  0  0  0  0  0  0  0  0  0  0
   -1.4290    1.6497    0.0000 C   0  0  0  0  0  0  0  0  0  0  0  0
   -1.4290    0.8247    0.0000 C   0  0  0  0  0  0  0  0  0  0  0  0
   -2.1434    0.4121    0.0000 C   0  0  0  0  0  0  0  0  0  0  0  0
   -2.8578    0.8245    0.0000 C   0  0  0  0  0  0  0  0  0  0  0  0
   -0.7144    0.4122    0.0000 N   0  0  0  0  0  0  0  0  0  0  0  0
   -0.7144   -0.4126    0.0000 N   0  0  0  0  0  0  0  0  0  0  0  0
    0.0000   -0.8251    0.0000 C   0  0  0  0  0  0  0  0  0  0  0  0
    0.7144   -0.4125    0.0000 C   0  0  0  0  0  0  0  0  0  0  0  0
    1.4290   -0.8249    0.0000 C   0  0  0  0  0  0  0  0  0  0  0  0
    1.4290   -1.6499    0.0000 C   0  0  0  0  0  0  0  0  0  0  0  0
    0.7146   -2.0624    0.0000 C   0  0  0  0  0  0  0  0  0  0  0  0
    0.0001   -1.6500    0.0000 C   0  0  0  0  0  0  0  0  0  0  0  0
    2.1434   -2.0624    0.0000 N   0  0  0  0  0  0  0  0  0  0  0  0
   -0.7146    2.0621    0.0000 C   0  0  0  0  0  0  0  0  0  0  0  0
   -0.0002    1.6499    0.0000 O   0  0  0  0  0  0  0  0  0  0  0  0
   -0.7148    2.8873    0.0000 O   0  0  0  0  0  0  0  0  0  0  0  0
    2.1436   -2.8873    0.0000 C   0  0  0  0  0  0  0  0  0  0  0  0
    2.8578   -1.6498    0.0000 C   0  0  0  0  0  0  0  0  0  0  0  0
  1  2  2  0
  1  6  1  0
  2  3  1  0
  3  4  2  0
  3 16  1  0
  4  5  1  0
  4  7  1  0
  5  6  2  0
  7  8  2  0
  8  9  1  0
  9 10  2  0
  9 14  1  0
 10 11  1  0
 11 12  2  0
 12 13  1  0
 12 15  1  0
 13 14  2  0
 15 19  1  0
 15 20  1  0
 16 17  1  0
 16 18  2  0
M  END
>  <DRUGBANK_ID>  (1) 
DB08209

>  <COMMON_NAME>  (1) 
Methyl red

>  <CAS_NUMBER>  (1) 
493-52-7

>  <UNII>  (1) 
69083AX1ZX

>  <SYNONYMS>  (1) 
2-((4-Dimethylamino)phenylazo)benzoic acid; 2-[(p-Dimethylamino)phenyl]azobenzoic acid; 2-Carboxy-4'-(dimethylamino)azobenzene; 4-Dimethylamino-2'-carboxylazobenzene; 4'-(Dimethylamino)azobenzene-2-carboxylic acid; 4'-Dimethylaminoazobenzene-2-carboxylic acid; C.I. Acid Red 2; o-((p-(Dimethylamino)phenyl)azo)benzoic acid; o-Methyl red; p-(Dimethylamino)azobenzene-o-carboxylic acid

$$$$
