
     RDKit          2D

 12 12  0  0  0  0  0  0  0  0999 V2000
    0.6347   -0.5114    0.0000 N   0  0  0  0  0  0  0  0  0  0  0  0
    0.6347    0.3135    0.0000 C   0  0  0  0  0  0  0  0  0  0  0  0
   -0.0797    0.7260    0.0000 C   0  0  0  0  0  0  0  0  0  0  0  0
   -0.7942    0.3135    0.0000 C   0  0  0  0  0  0  0  0  0  0  0  0
   -0.7942   -0.5114    0.0000 C   0  0  0  0  0  0  0  0  0  0  0  0
   -2.0637   -0.0989    0.0000 C   0  0  0  0  0  0  0  0  0  0  0  0
   -1.5788    0.5684    0.0000 N   0  0  0  0  0  0  0  0  0  0  0  0
    2.0637    0.3135    0.0000 O   0  0  0  0  0  0  0  0  0  0  0  0
    1.3492    0.7260    0.0000 C   0  0  0  0  0  0  0  0  0  0  0  0
    1.3492    1.5510    0.0000 O   0  0  0  0  0  0  0  0  0  0  0  0
   -1.5788   -0.7663    0.0000 N   0  0  0  0  0  0  0  0  0  0  0  0
   -1.8337   -1.5510    0.0000 C   0  0  0  0  0  0  0  0  0  0  0  0
  2  1  1  1
  2  9  1  0
  3  2  1  0
  4  3  1  0
  5  4  2  0
  6 11  1  0
  6  7  2  0
  7  4  1  0
  9  8  1  0
 10  9  2  0
 11  5  1  0
 11 12  1  0
M  END
>  <DRUGBANK_ID>  (1) 
DB04151

>  <SECONDARY_ACCESSION_NUMBERS>  (1) 
EXPT01748

>  <COMMON_NAME>  (1) 
1-Methylhistidine

>  <CAS_NUMBER>  (1) 
332-80-9

>  <UNII>  (1) 
583O01BJ32

>  <SYNONYMS>  (1) 
(2S)-2-amino-3-(1-methyl-1H-imidazol-4-yl)propanoic acid; 1-methyl-L-histidine; N(tele)-methyl-L-histidine; Pi-methylhistidine

$$$$
