8IP
     RDKit          2D

 21 23  0  0  0  0  0  0  0  0999 V2000
    4.4306    0.6515    0.0000 N   0  0  0  0  0  0  0  0  0  0  0  0
    4.4306   -0.1735    0.0000 C   0  0  0  0  0  0  0  0  0  0  0  0
    5.1450   -0.5860    0.0000 N   0  0  0  0  0  0  0  0  0  0  0  0
    5.1450   -1.4110    0.0000 C   0  0  0  0  0  0  0  0  0  0  0  0
    4.4306   -1.8235    0.0000 C   0  0  0  0  0  0  0  0  0  0  0  0
    3.7161   -1.4110    0.0000 C   0  0  0  0  0  0  0  0  0  0  0  0
    3.7161   -0.5860    0.0000 C   0  0  0  0  0  0  0  0  0  0  0  0
    3.0016   -0.1735    0.0000 N   0  0  0  0  0  0  0  0  0  0  0  0
    2.2872   -0.5860    0.0000 C   0  0  0  0  0  0  0  0  0  0  0  0
    1.5727   -0.1735    0.0000 C   0  0  0  0  0  0  0  0  0  0  0  0
    1.5727    0.6515    0.0000 C   0  0  0  0  0  0  0  0  0  0  0  0
    0.8582    1.0640    0.0000 C   0  0  0  0  0  0  0  0  0  0  0  0
    0.1437    0.6515    0.0000 C   0  0  0  0  0  0  0  0  0  0  0  0
    0.1437   -0.1735    0.0000 C   0  0  0  0  0  0  0  0  0  0  0  0
    0.8582   -0.5860    0.0000 C   0  0  0  0  0  0  0  0  0  0  0  0
   -0.5707   -0.5860    0.0000 C   0  0  0  0  0  0  0  0  0  0  0  0
   -1.2852   -0.1735    0.0000 C   0  0  0  0  0  0  0  0  0  0  0  0
   -1.9997   -0.5860    0.0000 C   0  0  0  0  0  0  0  0  0  0  0  0
   -1.9997   -1.4110    0.0000 C   0  0  0  0  0  0  0  0  0  0  0  0
   -1.2852   -1.8235    0.0000 N   0  0  0  0  0  0  0  0  0  0  0  0
   -0.5707   -1.4110    0.0000 C   0  0  0  0  0  0  0  0  0  0  0  0
  1  2  1  0
  2  3  2  0
  2  7  1  0
  3  4  1  0
  4  5  2  0
  5  6  1  0
  6  7  2  0
  7  8  1  0
  8  9  1  0
  9 10  1  0
 10 15  1  0
 10 11  2  0
 11 12  1  0
 12 13  2  0
 13 14  1  0
 14 16  1  0
 14 15  2  0
 16 21  1  0
 16 17  2  0
 17 18  1  0
 18 19  2  0
 19 20  1  0
 20 21  2  0
M  END
>  <DRUGBANK_ID>  (1) 
DB07284

>  <COMMON_NAME>  (1) 
N~3~-(3-PYRIDIN-3-YLBENZYL)PYRIDINE-2,3-DIAMINE

$$$$
