
     RDKit          2D

  5  4  0  0  0  0  0  0  0  0999 V2000
    0.1787    1.3835    0.0000 C   0  0  0  0  0  0  0  0  0  0  0  0
   -0.5357    0.9710    0.0000 C   0  0  0  0  0  0  0  0  0  0  0  0
    0.8933    0.9710    0.0000 C   0  0  0  0  0  0  0  0  0  0  0  0
    1.6077    1.3835    0.0000 O   0  0  0  0  0  0  0  0  0  0  0  0
    0.8933    0.1459    0.0000 O   0  0  0  0  0  0  0  0  0  0  0  0
  1  3  1  0
  2  1  1  0
  3  4  2  0
  3  5  1  0
M  END
>  <DRUGBANK_ID>  (1) 
DB03766

>  <SECONDARY_ACCESSION_NUMBERS>  (1) 
EXPT02641

>  <COMMON_NAME>  (1) 
Propanoic acid

>  <CAS_NUMBER>  (1) 
79-09-4

>  <UNII>  (1) 
JHU490RVYR

>  <SYNONYMS>  (1) 
Propionic acid

$$$$
