
     RDKit          2D

 20 20  0  0  0  0  0  0  0  0999 V2000
   -3.5759    0.6185    0.0000 Br  0  0  0  0  0  0  0  0  0  0  0  0
   -0.7080   -1.0334    0.0000 O   0  0  0  0  0  0  0  0  0  0  0  0
   -0.7008    1.4411    0.0000 O   0  0  0  0  0  0  0  0  0  0  0  0
    0.0071    0.2037    0.0000 N   0  0  0  0  0  0  0  0  0  0  0  0
   -3.5759   -1.0262    0.0000 N   0  0  0  0  0  0  0  0  0  0  0  0
    2.1455    0.6185    0.0000 N   0  0  0  0  0  0  0  0  0  0  0  0
   -1.4375    0.2037    0.0000 C   0  0  0  0  0  0  0  0  0  0  0  0
   -1.4375   -0.6185    0.0000 C   0  0  0  0  0  0  0  0  0  0  0  0
   -2.8608    0.2037    0.0000 C   0  0  0  0  0  0  0  0  0  0  0  0
   -0.7080    0.6185    0.0000 C   0  0  0  0  0  0  0  0  0  0  0  0
   -2.1455    0.6185    0.0000 C   0  0  0  0  0  0  0  0  0  0  0  0
   -2.8608   -0.6185    0.0000 C   0  0  0  0  0  0  0  0  0  0  0  0
   -2.1455   -1.0262    0.0000 C   0  0  0  0  0  0  0  0  0  0  0  0
    0.7224    0.6185    0.0000 C   0  0  0  0  0  0  0  0  0  0  0  0
    1.4375    0.2037    0.0000 C   0  0  0  0  0  0  0  0  0  0  0  0
   -0.7080   -1.8559    0.0000 C   0  0  0  0  0  0  0  0  0  0  0  0
    2.8608    0.2037    0.0000 C   0  0  0  0  0  0  0  0  0  0  0  0
    2.1599    1.4411    0.0000 C   0  0  0  0  0  0  0  0  0  0  0  0
    3.5759    0.6185    0.0000 C   0  0  0  0  0  0  0  0  0  0  0  0
    2.8751    1.8559    0.0000 C   0  0  0  0  0  0  0  0  0  0  0  0
  1  9  1  0
  2  8  1  0
  2 16  1  0
  3 10  2  0
  4 10  1  0
  4 14  1  0
  5 12  1  0
  6 15  1  0
  6 17  1  0
  6 18  1  0
  7  8  2  0
  7 10  1  0
  7 11  1  0
  8 13  1  0
  9 11  2  0
  9 12  1  0
 12 13  2  0
 14 15  1  0
 17 19  1  0
 18 20  1  0
M  END
>  <DRUGBANK_ID>  (1) 
DB09018

>  <COMMON_NAME>  (1) 
Bromopride

>  <CAS_NUMBER>  (1) 
4093-35-0

>  <UNII>  (1) 
75473V2YZK

>  <SYNONYMS>  (1) 
4-amino-5-bromo-N-[2-(diethylamino)ethyl]-2-methoxybenzamide; Bromoprid; Bromoprida; Bromopride; Bromopridum

$$$$
