
     RDKit          2D

 44 50  0  0  0  0  0  0  0  0999 V2000
    0.5033  -16.5917    0.0000 C   0  0  0  0  0  0  0  0  0  0  0  0
    0.9050  -15.8712    0.0000 O   0  0  0  0  0  0  0  0  0  0  0  0
    0.4819  -15.1630    0.0000 C   0  0  0  0  0  0  0  0  0  0  0  0
   -0.3430  -15.1753    0.0000 O   0  0  0  0  0  0  0  0  0  0  0  0
    0.8837  -14.4424    0.0000 C   0  0  0  0  0  0  0  0  0  0  0  0
    1.7028  -14.3439    0.0000 C   0  0  0  0  0  0  0  0  0  0  0  0
    1.8622  -13.5344    0.0000 N   0  0  0  0  0  0  0  0  0  0  0  0
    1.1416  -13.1327    0.0000 C   0  0  0  0  0  0  0  0  0  0  0  0
    0.5369  -13.6938    0.0000 N   0  0  0  0  0  0  0  0  0  0  0  0
   -0.2789  -13.5709    0.0000 C   0  0  0  0  0  0  0  0  0  0  0  0
   -0.6914  -12.8564    0.0000 C   0  0  0  0  0  0  0  0  0  0  0  0
   -0.3900  -12.0884    0.0000 C   0  0  0  0  0  0  0  0  0  0  0  0
   -0.9948  -11.5273    0.0000 C   0  0  0  0  0  0  0  0  0  0  0  0
   -0.8112  -10.7230    0.0000 C   0  0  0  0  0  0  0  0  0  0  0  0
   -0.0229  -10.4798    0.0000 C   0  0  0  0  0  0  0  0  0  0  0  0
    0.5819  -11.0409    0.0000 C   0  0  0  0  0  0  0  0  0  0  0  0
    0.3983  -11.8453    0.0000 C   0  0  0  0  0  0  0  0  0  0  0  0
    1.0800  -12.3100    0.0000 C   0  0  0  0  0  0  0  0  0  0  0  0
    1.7944  -11.8975    0.0000 C   0  0  0  0  0  0  0  0  0  0  0  0
    1.7944  -11.0725    0.0000 C   0  0  0  0  0  0  0  0  0  0  0  0
    2.5089  -10.6600    0.0000 C   0  0  0  0  0  0  0  0  0  0  0  0
    3.2234  -11.0725    0.0000 N   0  0  0  0  0  0  0  0  0  0  0  0
    3.2234  -11.8975    0.0000 C   0  0  0  0  0  0  0  0  0  0  0  0
    2.5089  -12.3100    0.0000 C   0  0  0  0  0  0  0  0  0  0  0  0
    3.9379  -10.6600    0.0000 C   0  0  0  0  0  0  0  0  0  0  0  0
    3.9379   -9.8350    0.0000 C   0  0  0  0  0  0  0  0  0  0  0  0
    4.6523   -9.4225    0.0000 C   0  0  0  0  0  0  0  0  0  0  0  0
    4.6523   -8.5975    0.0000 C   0  0  0  0  0  0  0  0  0  0  0  0
    5.3668   -8.1850    0.0000 C   0  0  0  0  0  0  0  0  0  0  0  0
    6.0813   -8.5975    0.0000 C   0  0  0  0  0  0  0  0  0  0  0  0
    6.0813   -9.4225    0.0000 C   0  0  0  0  0  0  0  0  0  0  0  0
    5.3668   -9.8350    0.0000 C   0  0  0  0  0  0  0  0  0  0  0  0
    6.7957   -8.1850    0.0000 O   0  0  0  0  0  0  0  0  0  0  0  0
    6.7957   -7.3600    0.0000 C   0  0  0  0  0  0  0  0  0  0  0  0
    7.5102   -6.9475    0.0000 C   0  0  0  0  0  0  0  0  0  0  0  0
    7.5102   -6.1225    0.0000 C   0  0  0  0  0  0  0  0  0  0  0  0
    8.2247   -5.7100    0.0000 C   0  0  0  0  0  0  0  0  0  0  0  0
    8.9392   -6.1225    0.0000 C   0  0  0  0  0  0  0  0  0  0  0  0
    9.6536   -5.7100    0.0000 C   0  0  0  0  0  0  0  0  0  0  0  0
   10.3681   -6.1225    0.0000 C   0  0  0  0  0  0  0  0  0  0  0  0
   10.3681   -6.9475    0.0000 C   0  0  0  0  0  0  0  0  0  0  0  0
    9.6536   -7.3600    0.0000 C   0  0  0  0  0  0  0  0  0  0  0  0
    8.9392   -6.9475    0.0000 C   0  0  0  0  0  0  0  0  0  0  0  0
    8.2247   -7.3600    0.0000 N   0  0  0  0  0  0  0  0  0  0  0  0
  1  2  1  0
  2  3  1  0
  3  4  2  0
  3  5  1  0
  5  6  2  0
  5  9  1  0
  6  7  1  0
  7  8  2  0
  8  9  1  0
  8 18  1  0
  9 10  1  0
 10 11  1  0
 11 12  1  0
 12 13  1  0
 12 17  2  0
 13 14  2  0
 14 15  1  0
 15 16  2  0
 16 17  1  0
 17 18  1  0
 18 19  2  3
 19 20  1  0
 19 24  1  0
 20 21  1  0
 21 22  1  0
 22 23  1  0
 22 25  1  0
 23 24  1  0
 25 26  1  0
 26 27  1  0
 27 28  2  0
 27 32  1  0
 28 29  1  0
 29 30  2  0
 30 31  1  0
 30 33  1  0
 31 32  2  0
 33 34  1  0
 34 35  1  0
 35 36  2  0
 35 44  1  0
 36 37  1  0
 37 38  2  0
 38 39  1  0
 38 43  1  0
 39 40  2  0
 40 41  1  0
 41 42  2  0
 42 43  1  0
 43 44  2  0
M  END
>  <DRUGBANK_ID>  (1) 
DB12799

>  <COMMON_NAME>  (1) 
Laniquidar

>  <CAS_NUMBER>  (1) 
197509-46-9

>  <UNII>  (1) 
K3FRN4DDOY

>  <SYNONYMS>  (1) 
Laniquidar

$$$$
