
     RDKit          2D

 22 25  0  0  0  0  0  0  0  0999 V2000
   -2.0578   -0.1019    0.0000 C   0  0  0  0  0  0  0  0  0  0  0  0
   -2.0578   -0.9280    0.0000 C   0  0  0  0  0  0  0  0  0  0  0  0
   -1.3448   -1.3368    0.0000 C   0  0  0  0  0  0  0  0  0  0  0  0
   -1.3448    0.3152    0.0000 C   0  0  0  0  0  0  0  0  0  0  0  0
   -0.6319   -0.1019    0.0000 C   0  0  0  0  0  0  0  0  0  0  0  0
   -0.6309   -0.9280    0.0000 C   0  0  0  0  0  0  0  0  0  0  0  0
    0.0810   -1.3379    0.0000 C   0  0  0  0  0  0  0  0  0  0  0  0
    0.7963   -0.9262    0.0000 C   0  0  0  0  0  0  0  0  0  0  0  0
    0.0789    0.3142    0.0000 C   0  0  0  0  0  0  0  0  0  0  0  0
    0.7910   -0.1024    0.0000 C   0  0  0  0  0  0  0  0  0  0  0  0
    0.7989    1.5449    0.0000 C   0  0  0  0  0  0  0  0  0  0  0  0
    0.0797    1.1370    0.0000 C   0  0  0  0  0  0  0  0  0  0  0  0
    1.5109    1.1281    0.0000 C   0  0  0  0  0  0  0  0  0  0  0  0
    1.5074    0.3073    0.0000 C   0  0  0  0  0  0  0  0  0  0  0  0
    2.2871    0.0500    0.0000 C   0  0  0  0  0  0  0  0  0  0  0  0
    2.7725    0.7121    0.0000 C   0  0  0  0  0  0  0  0  0  0  0  0
    2.2929    1.3784    0.0000 C   0  0  0  0  0  0  0  0  0  0  0  0
   -1.3450   -2.1629    0.0000 O   0  0  0  0  0  0  0  0  0  0  0  0
   -2.7725   -1.3421    0.0000 O   0  0  0  0  0  0  0  0  0  0  0  0
   -0.6393    0.7240    0.0000 C   0  0  0  0  0  0  0  0  0  0  0  0
    1.5049    1.9547    0.0000 C   0  0  0  0  0  0  0  0  0  0  0  0
    2.5518    2.1629    0.0000 O   0  0  0  0  0  0  0  0  0  0  0  0
  1  2  1  0
  1  4  1  0
  2  3  1  0
  2 19  2  0
  3  6  2  0
  3 18  1  0
  5  4  1  0
  5  6  1  0
  5  9  1  0
  5 20  1  1
  6  7  1  0
  7  8  1  0
 10  8  1  6
  9 10  1  0
  9 12  1  1
 10 14  1  0
 11 12  1  0
 13 11  1  0
 13 14  1  0
 13 21  1  1
 14 15  1  1
 15 16  1  0
 16 17  1  0
 17 13  1  0
 17 22  1  1
M  END
>  <DRUGBANK_ID>  (1) 
DB01485

>  <COMMON_NAME>  (1) 
4-Hydroxytestosterone

>  <CAS_NUMBER>  (1) 
2141-17-5

>  <UNII>  (1) 
912GOZ167T

>  <SYNONYMS>  (1) 
4-Androstene-7alpha-17beta-diol-3-one; 4,17beta-Dihydroxy-4-androstene-3-one; 7alpha-Hydroxytestosterone

$$$$
