MIB
     RDKit          2D

 15 16  0  0  0  0  0  0  0  0999 V2000
   -2.3368   -1.8209    0.0000 O   0  0  0  0  0  0  0  0  0  0  0  0
   -1.5298   -1.6494    0.0000 C   0  0  0  0  0  0  0  0  0  0  0  0
   -0.9778   -2.2625    0.0000 C   0  0  0  0  0  0  0  0  0  0  0  0
   -1.2748   -0.8647    0.0000 C   0  0  0  0  0  0  0  0  0  0  0  0
   -0.4679   -0.6932    0.0000 C   0  0  0  0  0  0  0  0  0  0  0  0
   -0.2129    0.0914    0.0000 C   0  0  0  0  0  0  0  0  0  0  0  0
   -0.6979    0.7589    0.0000 C   0  0  0  0  0  0  0  0  0  0  0  0
    0.5717    0.3464    0.0000 C   0  0  0  0  0  0  0  0  0  0  0  0
   -0.2129    1.4263    0.0000 N   0  0  0  0  0  0  0  0  0  0  0  0
   -0.4679    2.2109    0.0000 C   0  0  0  0  0  0  0  0  0  0  0  0
    0.5717    1.1714    0.0000 C   0  0  0  0  0  0  0  0  0  0  0  0
    1.2862   -0.0661    0.0000 C   0  0  0  0  0  0  0  0  0  0  0  0
    1.2862    1.5839    0.0000 C   0  0  0  0  0  0  0  0  0  0  0  0
    2.0006    0.3464    0.0000 C   0  0  0  0  0  0  0  0  0  0  0  0
    2.0006    1.1714    0.0000 C   0  0  0  0  0  0  0  0  0  0  0  0
  1  2  2  0
  2  3  1  0
  2  4  1  0
  4  5  2  0
  5  6  1  0
  6  7  2  0
  6  8  1  0
  7  9  1  0
  8 11  2  0
  8 12  1  0
  9 10  1  0
  9 11  1  0
 11 13  1  0
 12 14  2  0
 13 15  2  0
 14 15  1  0
M  END
>  <DRUGBANK_ID>  (1) 
DB08186

>  <COMMON_NAME>  (1) 
(3E)-4-(1-METHYL-1H-INDOL-3-YL)BUT-3-EN-2-ONE

$$$$
