
     RDKit          2D

 36 41  0  0  1  0  0  0  0  0999 V2000
    4.0935   -4.3738    0.0000 C   0  0  0  0  0  0  0  0  0  0  0  0
    4.5784   -3.7064    0.0000 C   0  0  0  0  0  0  0  0  0  0  0  0
    4.2428   -2.9527    0.0000 C   0  0  0  0  0  0  0  0  0  0  0  0
    4.7278   -2.2852    0.0000 C   0  0  0  0  0  0  0  0  0  0  0  0
    5.5482   -2.3715    0.0000 C   0  0  0  0  0  0  0  0  0  0  0  0
    5.8838   -3.1252    0.0000 C   0  0  0  0  0  0  0  0  0  0  0  0
    5.3989   -3.7926    0.0000 N   0  0  0  0  0  0  0  0  0  0  0  0
    4.3922   -1.5316    0.0000 C   0  0  0  0  0  0  0  0  0  0  0  0
    3.5852   -1.3600    0.0000 N   0  0  0  0  0  0  0  0  0  0  0  0
    3.4990   -0.5396    0.0000 C   0  0  0  0  0  0  0  0  0  0  0  0
    4.2527   -0.2040    0.0000 C   0  0  0  0  0  0  0  0  0  0  0  0
    4.8047   -0.8171    0.0000 O   0  0  0  0  0  0  0  0  0  0  0  0
    2.7845   -0.1271    0.0000 C   0  0  0  0  0  0  0  0  0  0  0  0
    2.0701   -0.5396    0.0000 O   0  0  0  0  0  0  0  0  0  0  0  0
    2.7845    0.6979    0.0000 N   0  0  0  0  0  0  0  0  0  0  0  0
    2.0701    1.1104    0.0000 C   0  0  0  0  0  0  0  0  0  0  0  0
    1.3556    0.6979    0.0000 C   0  0  0  0  0  0  0  0  0  0  0  0
    0.6411    1.1104    0.0000 C   0  0  0  0  0  0  0  0  0  0  0  0
   -0.1435    0.8555    0.0000 O   0  0  0  0  0  0  0  0  0  0  0  0
   -0.6284    1.5229    0.0000 C   0  0  0  0  0  0  0  0  0  0  0  0
   -0.1435    2.1904    0.0000 N   0  0  0  0  0  0  0  0  0  0  0  0
    0.6411    1.9354    0.0000 C   0  0  0  0  0  0  0  0  0  0  0  0
    1.3556    2.3479    0.0000 N   0  0  0  0  0  0  0  0  0  0  0  0
    2.0701    1.9354    0.0000 C   0  0  0  0  0  0  0  0  0  0  0  0
    2.7845    2.3479    0.0000 N   0  0  0  0  0  0  0  0  0  0  0  0
    2.8708    3.1684    0.0000 C   0  0  0  0  0  0  0  0  0  0  0  0
    3.6777    3.3400    0.0000 C   0  0  0  0  0  0  0  0  0  0  0  0
    4.0902    2.6255    0.0000 C   0  0  0  0  0  0  0  0  0  0  0  0
    4.9107    2.5392    0.0000 O   0  0  0  0  0  0  0  0  0  0  0  0
    3.5382    2.0124    0.0000 C   0  0  0  0  0  0  0  0  0  0  0  0
   -1.4534    1.5229    0.0000 N   0  0  0  0  0  0  0  0  0  0  0  0
   -1.8659    0.8085    0.0000 C   0  0  0  0  0  0  0  0  0  0  0  0
   -2.6909    0.8085    0.0000 C   0  0  0  0  0  0  0  0  0  0  0  0
   -3.1034    1.5229    0.0000 O   0  0  0  0  0  0  0  0  0  0  0  0
   -2.6909    2.2374    0.0000 C   0  0  0  0  0  0  0  0  0  0  0  0
   -1.8659    2.2374    0.0000 C   0  0  0  0  0  0  0  0  0  0  0  0
  1  2  1  0
  2  3  2  0
  2  7  1  0
  3  4  1  0
  4  5  2  0
  4  8  1  0
  5  6  1  0
  6  7  2  0
  8  9  2  0
  8 12  1  0
  9 10  1  0
 10 11  2  0
 10 13  1  0
 11 12  1  0
 13 14  2  0
 13 15  1  0
 15 16  1  0
 16 17  2  0
 16 24  1  0
 17 18  1  0
 18 19  1  0
 18 22  2  0
 19 20  1  0
 20 21  2  0
 20 31  1  0
 21 22  1  0
 22 23  1  0
 23 24  2  0
 24 25  1  0
 25 26  1  0
 25 30  1  0
 26 27  1  0
 28 27  1  0
 28 29  1  1
 28 30  1  0
 31 32  1  0
 31 36  1  0
 32 33  1  0
 33 34  1  0
 34 35  1  0
 35 36  1  0
M  END
>  <DRUGBANK_ID>  (1) 
DB18060

>  <COMMON_NAME>  (1) 
Emavusertib

>  <CAS_NUMBER>  (1) 
1801344-14-8

>  <UNII>  (1) 
MH5DMF9JKY

>  <SYNONYMS>  (1) 
4-oxazolecarboxamide, n-(5-((3r)-3-hydroxy-1-pyrrolidinyl)-2-(4-morpholinyl)oxazolo(4,5-b)pyridin-6-yl)-2-(2-methyl-4-pyridinyl)-

$$$$
