047
     RDKit          2D

 25 28  0  0  0  0  0  0  0  0999 V2000
    3.1497   -0.8902    0.0000 N   0  0  0  0  0  0  0  0  0  0  0  0
    3.9343   -1.1451    0.0000 C   0  0  0  0  0  0  0  0  0  0  0  0
    3.9343   -1.9701    0.0000 C   0  0  0  0  0  0  0  0  0  0  0  0
    3.1497   -2.2251    0.0000 C   0  0  0  0  0  0  0  0  0  0  0  0
    2.6648   -1.5576    0.0000 C   0  0  0  0  0  0  0  0  0  0  0  0
    2.8948   -3.0097    0.0000 C   0  0  0  0  0  0  0  0  0  0  0  0
    3.4468   -3.6228    0.0000 N   0  0  0  0  0  0  0  0  0  0  0  0
    3.1919   -4.4074    0.0000 C   0  0  0  0  0  0  0  0  0  0  0  0
    3.7439   -5.0205    0.0000 C   0  0  0  0  0  0  0  0  0  0  0  0
    3.4889   -5.8051    0.0000 C   0  0  0  0  0  0  0  0  0  0  0  0
    4.0410   -6.4182    0.0000 C   0  0  0  0  0  0  0  0  0  0  0  0
    4.8480   -6.2467    0.0000 C   0  0  0  0  0  0  0  0  0  0  0  0
    5.1029   -5.4621    0.0000 C   0  0  0  0  0  0  0  0  0  0  0  0
    4.5509   -4.8490    0.0000 C   0  0  0  0  0  0  0  0  0  0  0  0
    4.6488   -2.3826    0.0000 C   0  0  0  0  0  0  0  0  0  0  0  0
    5.3633   -1.9701    0.0000 C   0  0  0  0  0  0  0  0  0  0  0  0
    5.3633   -1.1451    0.0000 C   0  0  0  0  0  0  0  0  0  0  0  0
    4.6488   -0.7326    0.0000 C   0  0  0  0  0  0  0  0  0  0  0  0
    2.8948   -0.1056    0.0000 C   0  0  0  0  0  0  0  0  0  0  0  0
    2.0878    0.0660    0.0000 C   0  0  0  0  0  0  0  0  0  0  0  0
    1.8328    0.8506    0.0000 C   0  0  0  0  0  0  0  0  0  0  0  0
    2.3849    1.4637    0.0000 C   0  0  0  0  0  0  0  0  0  0  0  0
    3.1919    1.2921    0.0000 C   0  0  0  0  0  0  0  0  0  0  0  0
    3.4468    0.5075    0.0000 C   0  0  0  0  0  0  0  0  0  0  0  0
    2.1299    2.2483    0.0000 C   0  0  0  0  0  0  0  0  0  0  0  0
  1  2  1  0
  1 19  1  0
  1  5  1  0
  2 18  2  0
  2  3  1  0
  3 15  2  0
  3  4  1  0
  4  6  1  0
  4  5  2  0
  6  7  1  0
  7  8  1  0
  8  9  1  0
  9 14  1  0
  9 10  1  0
 10 11  1  0
 11 12  1  0
 12 13  1  0
 13 14  1  0
 15 16  1  0
 16 17  2  0
 17 18  1  0
 19 20  2  0
 19 24  1  0
 20 21  1  0
 21 22  2  0
 22 23  1  0
 22 25  1  0
 23 24  2  0
M  END
>  <DRUGBANK_ID>  (1) 
DB06833

>  <COMMON_NAME>  (1) 
1-CYCLOHEXYL-N-{[1-(4-METHYLPHENYL)-1H-INDOL-3-YL]METHYL}METHANAMINE

$$$$
