
     RDKit          2D

 11 11  0  0  1  0  0  0  0  0999 V2000
    9.3555   -8.7515    0.0000 C   0  0  0  0  0  0  0  0  0  0  0  0
    9.3518   -7.9305    0.0000 C   0  0  0  0  0  0  0  0  0  0  0  0
    8.6438   -9.1620    0.0000 C   0  0  0  0  0  0  0  0  0  0  0  0
   10.0711   -9.1620    0.0000 C   0  0  0  0  0  0  0  0  0  0  0  0
   10.0598   -7.5200    0.0000 C   0  0  0  0  0  0  0  0  0  0  0  0
    8.5989   -7.4827    0.0000 O   0  0  0  0  0  0  0  0  0  0  0  0
    8.6438   -9.9905    0.0000 C   0  0  0  0  0  0  0  0  0  0  0  0
   10.0711   -9.9905    0.0000 C   0  0  0  0  0  0  0  0  0  0  0  0
   10.7716   -7.9267    0.0000 O   0  0  0  0  0  0  0  0  0  0  0  0
   10.0560   -6.7027    0.0000 O   0  0  0  0  0  0  0  0  0  0  0  0
    9.3555  -10.4084    0.0000 C   0  0  0  0  0  0  0  0  0  0  0  0
  1  2  1  0
  1  3  2  0
  1  4  1  0
  2  5  1  0
  2  6  1  1
  3  7  1  0
  4  8  2  0
  5  9  1  0
  5 10  2  0
  7 11  2  0
  8 11  1  0
M  END
>  <DRUGBANK_ID>  (1) 
DB02280

>  <SECONDARY_ACCESSION_NUMBERS>  (1) 
EXPT02794

>  <COMMON_NAME>  (1) 
(R)-Mandelic acid

>  <CAS_NUMBER>  (1) 
611-71-2

>  <UNII>  (1) 
PPL7YW1M9W

>  <SYNONYMS>  (1) 
(−)-(R)-mandelic acid; (−)-mandelic acid; (−)-α-hydroxyphenylacetic acid; (2R)-2-hydroxy-2-phenylacetic acid; (R)-2-Hydroxy-2-phenylacetic acid; (R)-Mandelsäure; (R)-α-hydroxybenzeneacetic acid; (R)-α-hydroxyphenylacetic acid; D-2-phenylglycolic acid; D-mandelic acid; D(−)-mandelic acid

$$$$
