
     RDKit          2D

 22 24  0  0  0  0  0  0  0  0999 V2000
   -0.5837    2.2374    0.0000 C   0  0  0  0  0  0  0  0  0  0  0  0
   -0.1712    1.5229    0.0000 C   0  0  0  0  0  0  0  0  0  0  0  0
    3.3523    1.1104    0.0000 C   0  0  0  0  0  0  0  0  0  0  0  0
    3.3523    1.9354    0.0000 C   0  0  0  0  0  0  0  0  0  0  0  0
    2.6378    0.6979    0.0000 C   0  0  0  0  0  0  0  0  0  0  0  0
    2.6378    2.3479    0.0000 C   0  0  0  0  0  0  0  0  0  0  0  0
   -0.1781   -0.8853    0.0000 C   0  0  0  0  0  0  0  0  0  0  0  0
   -0.4752    0.5124    0.0000 C   0  0  0  0  0  0  0  0  0  0  0  0
    0.0768   -0.1006    0.0000 C   0  0  0  0  0  0  0  0  0  0  0  0
    1.9233    1.1104    0.0000 C   0  0  0  0  0  0  0  0  0  0  0  0
   -0.9851   -1.0568    0.0000 C   0  0  0  0  0  0  0  0  0  0  0  0
   -1.2822    0.3409    0.0000 C   0  0  0  0  0  0  0  0  0  0  0  0
    0.6538    1.5229    0.0000 C   0  0  0  0  0  0  0  0  0  0  0  0
    1.9233    1.9354    0.0000 C   0  0  0  0  0  0  0  0  0  0  0  0
    1.1387    0.8555    0.0000 C   0  0  0  0  0  0  0  0  0  0  0  0
    0.8838    0.0709    0.0000 C   0  0  0  0  0  0  0  0  0  0  0  0
   -1.5371   -0.4437    0.0000 C   0  0  0  0  0  0  0  0  0  0  0  0
   -1.2400   -1.8414    0.0000 I   0  0  0  0  0  0  0  0  0  0  0  0
   -1.8342    0.9540    0.0000 I   0  0  0  0  0  0  0  0  0  0  0  0
    1.4358   -0.5422    0.0000 O   0  0  0  0  0  0  0  0  0  0  0  0
   -2.3441   -0.6152    0.0000 O   0  0  0  0  0  0  0  0  0  0  0  0
    1.1387    2.1904    0.0000 O   0  0  0  0  0  0  0  0  0  0  0  0
  2  1  1  0
  4  3  2  0
  5  3  1  0
  6  4  1  0
  9  7  2  0
  9  8  1  0
 10  5  2  0
 11  7  1  0
 12  8  2  0
 13  2  1  0
 14  6  2  0
 14 10  1  0
 15 10  1  0
 15 13  2  0
 16  9  1  0
 16 15  1  0
 17 11  2  0
 17 12  1  0
 18 11  1  0
 19 12  1  0
 20 16  2  0
 21 17  1  0
 22 13  1  0
 22 14  1  0
M  END
>  <DRUGBANK_ID>  (1) 
DB13277

>  <COMMON_NAME>  (1) 
Benziodarone

>  <CAS_NUMBER>  (1) 
68-90-6

>  <UNII>  (1) 
75CL65GTYR

>  <SYNONYMS>  (1) 
Benziodarone

$$$$
