
     RDKit          2D

 30 32  0  0  0  0  0  0  0  0999 V2000
   -6.1118    0.8506    0.0000 O   0  0  0  0  0  0  0  0  0  0  0  0
   -6.7860    0.3633    0.0000 C   0  0  0  0  0  0  0  0  0  0  0  0
   -6.5291   -0.4259    0.0000 C   0  0  0  0  0  0  0  0  0  0  0  0
   -5.6989   -0.4259    0.0000 C   0  0  0  0  0  0  0  0  0  0  0  0
   -5.4417    0.3633    0.0000 C   0  0  0  0  0  0  0  0  0  0  0  0
   -4.7310    0.7796    0.0000 C   0  0  0  0  0  0  0  0  0  0  0  0
   -4.0177    0.3709    0.0000 S   0  0  0  0  0  0  0  0  0  0  0  0
   -3.3043    0.7838    0.0000 C   0  0  0  0  0  0  0  0  0  0  0  0
   -2.5909    0.3751    0.0000 C   0  0  0  0  0  0  0  0  0  0  0  0
   -1.8776    0.7880    0.0000 N   0  0  0  0  0  0  0  0  0  0  0  0
   -1.1642    0.3792    0.0000 C   0  0  0  0  0  0  0  0  0  0  0  0
   -4.0219   -0.4550    0.0000 O   0  0  0  0  0  0  0  0  0  0  0  0
   -2.5951   -0.4508    0.0000 O   0  0  0  0  0  0  0  0  0  0  0  0
   -0.4510    0.7963    0.0000 C   0  0  0  0  0  0  0  0  0  0  0  0
    0.3750    0.7963    0.0000 C   0  0  0  0  0  0  0  0  0  0  0  0
    1.0883    0.3834    0.0000 C   0  0  0  0  0  0  0  0  0  0  0  0
    1.8017    0.8006    0.0000 O   0  0  0  0  0  0  0  0  0  0  0  0
    2.5150    0.3876    0.0000 C   0  0  0  0  0  0  0  0  0  0  0  0
    2.5112   -0.4377    0.0000 N   0  0  0  0  0  0  0  0  0  0  0  0
    3.2238   -0.8506    0.0000 C   0  0  0  0  0  0  0  0  0  0  0  0
    3.9390   -0.4393    0.0000 C   0  0  0  0  0  0  0  0  0  0  0  0
    3.9375    0.3892    0.0000 C   0  0  0  0  0  0  0  0  0  0  0  0
    3.2243    0.7983    0.0000 C   0  0  0  0  0  0  0  0  0  0  0  0
    4.6467    0.8089    0.0000 C   0  0  0  0  0  0  0  0  0  0  0  0
    5.3600    0.3959    0.0000 N   0  0  0  0  0  0  0  0  0  0  0  0
    5.3571   -0.4292    0.0000 C   0  0  0  0  0  0  0  0  0  0  0  0
    6.0664   -0.8421    0.0000 C   0  0  0  0  0  0  0  0  0  0  0  0
    6.7831   -0.4344    0.0000 C   0  0  0  0  0  0  0  0  0  0  0  0
    6.7860    0.3908    0.0000 C   0  0  0  0  0  0  0  0  0  0  0  0
    6.0722    0.8082    0.0000 C   0  0  0  0  0  0  0  0  0  0  0  0
  1  2  1  0
  2  3  2  0
  3  4  1  0
  4  5  2  0
  5  1  1  0
  5  6  1  0
  6  7  1  0
  7  8  1  0
  7 12  2  0
  8  9  1  0
  9 10  1  0
  9 13  2  0
 10 11  1  0
 11 14  1  0
 14 15  2  0
 15 16  1  0
 16 17  1  0
 17 18  1  0
 18 19  2  0
 19 20  1  0
 20 21  2  0
 21 22  1  0
 22 23  2  0
 22 24  1  0
 23 18  1  0
 24 25  1  0
 25 26  1  0
 25 30  1  0
 26 27  1  0
 27 28  1  0
 28 29  1  0
 29 30  1  0
M  END
>  <DRUGBANK_ID>  (1) 
DB12770

>  <COMMON_NAME>  (1) 
Lafutidine

>  <CAS_NUMBER>  (1) 
118288-08-7

>  <UNII>  (1) 
49S4O7ADLC

>  <SYNONYMS>  (1) 
Lafutidine

$$$$
