82A
     RDKit          2D

 31 34  0  0  0  0  0  0  0  0999 V2000
    2.9203   -0.5065    0.0000 C   0  0  0  0  0  0  0  0  0  0  0  0
    3.5877   -1.8164    0.0000 C   0  0  0  0  0  0  0  0  0  0  0  0
    4.0002   -3.0859    0.0000 N   0  0  0  0  0  0  0  0  0  0  0  0
    3.1752   -3.0859    0.0000 C   0  0  0  0  0  0  0  0  0  0  0  0
    2.9203   -2.3013    0.0000 C   0  0  0  0  0  0  0  0  0  0  0  0
    2.1357   -2.0464    0.0000 C   0  0  0  0  0  0  0  0  0  0  0  0
    1.9642   -1.2394    0.0000 C   0  0  0  0  0  0  0  0  0  0  0  0
    1.1795   -0.9845    0.0000 C   0  0  0  0  0  0  0  0  0  0  0  0
    0.5664   -1.5365    0.0000 C   0  0  0  0  0  0  0  0  0  0  0  0
    0.7380   -2.3435    0.0000 C   0  0  0  0  0  0  0  0  0  0  0  0
    1.5226   -2.5984    0.0000 C   0  0  0  0  0  0  0  0  0  0  0  0
    6.4617    0.0195    0.0000 C   0  0  0  0  0  0  0  0  0  0  0  0
    7.6177   -0.8205    0.0000 C   0  0  0  0  0  0  0  0  0  0  0  0
    8.1026   -0.1530    0.0000 C   0  0  0  0  0  0  0  0  0  0  0  0
    5.4918   -1.3154    0.0000 O   0  0  0  0  0  0  0  0  0  0  0  0
    5.1563   -0.5617    0.0000 C   0  0  0  0  0  0  0  0  0  0  0  0
    5.6412    0.1057    0.0000 C   0  0  0  0  0  0  0  0  0  0  0  0
    5.3056    0.8594    0.0000 N   0  0  0  0  0  0  0  0  0  0  0  0
    4.4852    0.9456    0.0000 C   0  0  0  0  0  0  0  0  0  0  0  0
    4.1496    1.6993    0.0000 O   0  0  0  0  0  0  0  0  0  0  0  0
    4.0002    0.2782    0.0000 C   0  0  0  0  0  0  0  0  0  0  0  0
    4.2552   -0.5065    0.0000 C   0  0  0  0  0  0  0  0  0  0  0  0
    3.5877   -0.9914    0.0000 C   0  0  0  0  0  0  0  0  0  0  0  0
    3.1752    0.2782    0.0000 N   0  0  0  0  0  0  0  0  0  0  0  0
    4.2552   -2.3013    0.0000 N   0  0  0  0  0  0  0  0  0  0  0  0
    0.1249   -2.8955    0.0000 Cl  0  0  0  0  0  0  0  0  0  0  0  0
    6.7972   -0.7342    0.0000 C   0  0  0  0  0  0  0  0  0  0  0  0
    8.9231   -0.2393    0.0000 F   0  0  0  0  0  0  0  0  0  0  0  0
    7.7671    0.6007    0.0000 C   0  0  0  0  0  0  0  0  0  0  0  0
    8.2520    1.2681    0.0000 Cl  0  0  0  0  0  0  0  0  0  0  0  0
    6.9466    0.6869    0.0000 C   0  0  0  0  0  0  0  0  0  0  0  0
  1 24  1  0
  1 23  2  0
  2 23  1  0
  2 25  2  0
  2  5  1  0
  3 25  1  0
  3  4  1  0
  4  5  2  0
  5  6  1  0
  6 11  1  0
  6  7  2  0
  7  8  1  0
  8  9  2  0
  9 10  1  0
 10 26  1  0
 10 11  2  0
 12 31  1  0
 12 27  2  0
 12 17  1  0
 13 14  2  0
 13 27  1  0
 14 28  1  0
 14 29  1  0
 15 16  1  0
 17 16  1  1
 17 18  1  0
 18 19  1  0
 19 20  2  0
 19 21  1  0
 21 24  1  0
 21 22  2  0
 22 23  1  0
 29 30  1  0
 29 31  2  0
M  END
>  <DRUGBANK_ID>  (1) 
DB07264

>  <COMMON_NAME>  (1) 
(S)-N-(1-(3-CHLORO-4-FLUOROPHENYL)-2-HYDROXYETHYL)-4-(4-(3-CHLOROPHENYL)-1H-PYRAZOL-3-YL)-1H-PYRROLE-2-CARBOXAMIDE

$$$$
