1154
     RDKit          2D

 17 17  0  0  1  0  0  0  0  0999 V2000
    3.3001   -2.6665    0.0000 S   0  0  0  0  0  0  0  0  0  0  0  0
    4.7291   -0.1915    0.0000 O   0  0  0  0  0  0  0  0  0  0  0  0
    1.8711   -0.1915    0.0000 O   0  0  0  0  0  0  0  0  0  0  0  0
    4.0145   -1.4290    0.0000 N   0  0  0  0  0  0  0  0  0  0  0  0
    2.5856   -1.4290    0.0000 N   0  0  0  0  0  0  0  0  0  0  0  0
    3.3001   -0.1915    0.0000 C   0  0  0  0  0  0  0  0  0  0  0  0
    3.7126    0.5231    0.0000 C   0  0  0  0  0  0  0  0  0  0  0  0
    3.3001    1.2375    0.0000 C   0  0  0  0  0  0  0  0  0  0  0  0
    2.8876    0.5231    0.0000 C   0  0  0  0  0  0  0  0  0  0  0  0
    4.5376    0.5231    0.0000 C   0  0  0  0  0  0  0  0  0  0  0  0
    4.0145   -0.6040    0.0000 C   0  0  0  0  0  0  0  0  0  0  0  0
    2.5856   -0.6040    0.0000 C   0  0  0  0  0  0  0  0  0  0  0  0
    3.7126    1.9520    0.0000 C   0  0  0  0  0  0  0  0  0  0  0  0
    2.0625    0.5231    0.0000 C   0  0  0  0  0  0  0  0  0  0  0  0
    3.3001   -1.8415    0.0000 C   0  0  0  0  0  0  0  0  0  0  0  0
    3.3001    2.6665    0.0000 C   0  0  0  0  0  0  0  0  0  0  0  0
    1.6500    1.2375    0.0000 C   0  0  0  0  0  0  0  0  0  0  0  0
  1 15  2  0
  2 11  2  0
  3 12  2  0
  4 11  1  0
  4 15  1  0
  5 12  1  0
  5 15  1  0
  6  7  1  0
  6  9  1  0
  6 11  1  0
  6 12  1  0
  7  8  1  0
  7 10  1  0
  8 13  1  0
  9 14  1  0
 13 16  1  0
 14 17  2  0
M  END
>  <DRUGBANK_ID>  (1) 
DB01154

>  <SECONDARY_ACCESSION_NUMBERS>  (1) 
APRD00154

>  <COMMON_NAME>  (1) 
Thiamylal

>  <CAS_NUMBER>  (1) 
77-27-0

>  <UNII>  (1) 
01T23W89FR

>  <SYNONYMS>  (1) 
5-Allyl-5-(1-methylbutyl)-2-thiobarbituric acid; 5-allyl-5-(1-methylbutyl)-2-thioxodihydro-4,6(1H,5H)-pyrimidinedione; 5-allyl-5-(1-methylbutyl)-2-thioxodihydropyrimidine-4,6(1H,5H)-dione; dihydro-5-(1-methylbutyl)-5-(2-propenyl)-2-thioxo-4,6(1H,5H)-pyrimidinedione; Thiamylal

$$$$
