
     RDKit          2D

  4  3  0  0  0  0  0  0  0  0999 V2000
    1.2375    0.7145    0.0000 N   0  0  0  0  0  0  0  0  0  0  0  0
    0.8250    0.0000    0.0000 C   0  0  0  0  0  0  0  0  0  0  0  0
    1.2375   -0.7145    0.0000 O   0  0  0  0  0  0  0  0  0  0  0  0
    0.0000    0.0000    0.0000 O   0  0  0  0  0  0  0  0  0  0  0  0
  1  2  1  0
  2  3  1  0
  2  4  2  0
M  END
>  <DRUGBANK_ID>  (1) 
DB04261

>  <SECONDARY_ACCESSION_NUMBERS>  (1) 
EXPT02453

>  <COMMON_NAME>  (1) 
Carbamic Acid

>  <CAS_NUMBER>  (1) 
463-77-4

>  <UNII>  (1) 
O0UC6XOS4H

$$$$
