AYM
     RDKit          2D

 24 26  0  0  0  0  0  0  0  0999 V2000
   -2.9036    3.4866    0.0000 N   0  0  0  0  0  0  0  0  0  0  0  0
   -2.4911    2.7722    0.0000 C   0  0  0  0  0  0  0  0  0  0  0  0
   -1.6661    2.7722    0.0000 N   0  0  0  0  0  0  0  0  0  0  0  0
   -1.2536    2.0577    0.0000 C   0  0  0  0  0  0  0  0  0  0  0  0
   -1.6661    1.3432    0.0000 C   0  0  0  0  0  0  0  0  0  0  0  0
   -2.4911    1.3432    0.0000 C   0  0  0  0  0  0  0  0  0  0  0  0
   -2.9036    2.0577    0.0000 C   0  0  0  0  0  0  0  0  0  0  0  0
   -1.2536    0.6288    0.0000 C   0  0  0  0  0  0  0  0  0  0  0  0
   -1.6661   -0.0857    0.0000 C   0  0  0  0  0  0  0  0  0  0  0  0
   -1.2536   -0.8002    0.0000 C   0  0  0  0  0  0  0  0  0  0  0  0
   -1.6661   -1.5147    0.0000 O   0  0  0  0  0  0  0  0  0  0  0  0
   -0.4286   -0.8002    0.0000 N   0  0  0  0  0  0  0  0  0  0  0  0
   -0.0161   -0.0857    0.0000 C   0  0  0  0  0  0  0  0  0  0  0  0
   -0.0161   -1.5147    0.0000 C   0  0  0  0  0  0  0  0  0  0  0  0
    0.8089   -1.5147    0.0000 C   0  0  0  0  0  0  0  0  0  0  0  0
    1.2938   -2.1821    0.0000 C   0  0  0  0  0  0  0  0  0  0  0  0
    2.0784   -1.9272    0.0000 C   0  0  0  0  0  0  0  0  0  0  0  0
    2.0784   -1.1022    0.0000 C   0  0  0  0  0  0  0  0  0  0  0  0
    1.2938   -0.8472    0.0000 N   0  0  0  0  0  0  0  0  0  0  0  0
    1.0389   -0.0626    0.0000 C   0  0  0  0  0  0  0  0  0  0  0  0
    2.7929   -2.3397    0.0000 C   0  0  0  0  0  0  0  0  0  0  0  0
    3.5074   -1.9272    0.0000 C   0  0  0  0  0  0  0  0  0  0  0  0
    3.5074   -1.1022    0.0000 C   0  0  0  0  0  0  0  0  0  0  0  0
    2.7929   -0.6897    0.0000 C   0  0  0  0  0  0  0  0  0  0  0  0
  1  2  1  0
  2  3  2  0
  2  7  1  0
  3  4  1  0
  4  5  2  0
  5  6  1  0
  5  8  1  0
  6  7  2  0
  8  9  2  0
  9 10  1  0
 10 11  2  0
 10 12  1  0
 12 13  1  0
 12 14  1  0
 14 15  1  0
 15 16  2  0
 15 19  1  0
 16 17  1  0
 17 18  2  0
 17 21  1  0
 18 19  1  0
 18 24  1  0
 19 20  1  0
 21 22  2  0
 22 23  1  0
 23 24  2  0
M  END
>  <DRUGBANK_ID>  (1) 
DB01865

>  <SECONDARY_ACCESSION_NUMBERS>  (1) 
EXPT00597

>  <COMMON_NAME>  (1) 
3-(6-Aminopyridin-3-Yl)-N-Methyl-N-[(1-Methyl-1h-Indol-2-Yl)Methyl]Acrylamide

$$$$
