
     RDKit          2D

 22 21  0  0  0  0  0  0  0  0999 V2000
   -0.3572    2.0625    0.0000 C   0  0  0  0  0  0  0  0  0  0  0  0
   -1.7862    2.0625    0.0000 C   0  0  0  0  0  0  0  0  0  0  0  0
   -2.5006    1.6500    0.0000 C   0  0  0  0  0  0  0  0  0  0  0  0
   -0.3572   -2.0625    0.0000 C   0  0  0  0  0  0  0  0  0  0  0  0
   -3.2151   -0.4125    0.0000 C   0  0  0  0  0  0  0  0  0  0  0  0
   -3.2151    0.4125    0.0000 C   0  0  0  0  0  0  0  0  0  0  0  0
   -1.7862   -2.0625    0.0000 C   0  0  0  0  0  0  0  0  0  0  0  0
   -2.5006   -1.6500    0.0000 C   0  0  0  0  0  0  0  0  0  0  0  0
   -1.0717    1.6500    0.0000 O   0  0  0  0  0  0  0  0  0  0  0  0
   -2.5006    0.8250    0.0000 O   0  0  0  0  0  0  0  0  0  0  0  0
   -2.5006   -0.8250    0.0000 O   0  0  0  0  0  0  0  0  0  0  0  0
   -1.0717   -1.6500    0.0000 O   0  0  0  0  0  0  0  0  0  0  0  0
    0.3571    1.6500    0.0000 C   0  0  0  0  0  0  0  0  0  0  0  0
    0.3571   -1.6500    0.0000 C   0  0  0  0  0  0  0  0  0  0  0  0
    2.5006    2.0625    0.0000 C   0  0  0  0  0  0  0  0  0  0  0  0
    2.5006   -2.0625    0.0000 C   0  0  0  0  0  0  0  0  0  0  0  0
    1.0716    2.0625    0.0000 O   0  0  0  0  0  0  0  0  0  0  0  0
    1.7861    1.6500    0.0000 C   0  0  0  0  0  0  0  0  0  0  0  0
    1.0716   -2.0625    0.0000 O   0  0  0  0  0  0  0  0  0  0  0  0
    1.7861   -1.6500    0.0000 C   0  0  0  0  0  0  0  0  0  0  0  0
    3.2151    1.6500    0.0000 O   0  0  0  0  0  0  0  0  0  0  0  0
    3.2151   -1.6500    0.0000 O   0  0  0  0  0  0  0  0  0  0  0  0
  1  9  1  0
  1 13  1  0
  2  3  1  0
  2  9  1  0
  4 12  1  0
  5  6  1  0
  7  8  1  0
  8 11  1  0
 10  6  1  0
 10  3  1  0
 11  5  1  0
 12  7  1  0
 14  4  1  0
 15 21  1  0
 15 18  1  0
 16 20  1  0
 17 13  1  0
 17 18  1  0
 19 14  1  0
 20 19  1  0
 22 16  1  0
M  END
>  <DRUGBANK_ID>  (1) 
DB03394

>  <SECONDARY_ACCESSION_NUMBERS>  (1) 
EXPT02477

>  <COMMON_NAME>  (1) 
Heptaethylene glycol

>  <CAS_NUMBER>  (1) 
5617-32-3

>  <SYNONYMS>  (1) 
3,6,9,12,15,18-hexaoxaeicosane-1,20-diol; Heptaethylene glycol, Peg330

$$$$
