
     RDKit          2D

 35 38  0  0  0  0  0  0  0  0999 V2000
    5.9339    0.6119    0.0000 O   0  0  0  0  0  0  0  0  0  0  0  0
    5.2270    1.0201    0.0000 C   0  0  0  0  0  0  0  0  0  0  0  0
    4.5248    0.6147    0.0000 C   0  0  0  0  0  0  0  0  0  0  0  0
    3.8206    1.0216    0.0000 C   0  0  0  0  0  0  0  0  0  0  0  0
    3.1172    0.6154    0.0000 N   0  0  0  0  0  0  0  0  0  0  0  0
    2.4133    1.0220    0.0000 C   0  0  0  0  0  0  0  0  0  0  0  0
    1.7096    0.6156    0.0000 C   0  0  0  0  0  0  0  0  0  0  0  0
    2.4133    1.8536    0.0000 O   0  0  0  0  0  0  0  0  0  0  0  0
    1.0060    1.0221    0.0000 C   0  0  0  0  0  0  0  0  0  0  0  0
    0.2889    0.6083    0.0000 C   0  0  0  0  0  0  0  0  0  0  0  0
    0.2888   -0.2196    0.0000 C   0  0  0  0  0  0  0  0  0  0  0  0
    0.9925   -0.6258    0.0000 C   0  0  0  0  0  0  0  0  0  0  0  0
    1.7095   -0.2121    0.0000 C   0  0  0  0  0  0  0  0  0  0  0  0
    5.2269    1.8535    0.0000 O   0  0  0  0  0  0  0  0  0  0  0  0
   -0.4983    0.8641    0.0000 N   0  0  0  0  0  0  0  0  0  0  0  0
   -0.9850    0.1945    0.0000 C   0  0  0  0  0  0  0  0  0  0  0  0
   -0.4985   -0.4753    0.0000 N   0  0  0  0  0  0  0  0  0  0  0  0
   -0.7523   -1.2559    0.0000 C   0  0  0  0  0  0  0  0  0  0  0  0
   -1.7932    0.1946    0.0000 C   0  0  0  0  0  0  0  0  0  0  0  0
   -2.2059   -0.5197    0.0000 N   0  0  0  0  0  0  0  0  0  0  0  0
   -3.0350   -0.5195    0.0000 C   0  0  0  0  0  0  0  0  0  0  0  0
   -3.4547    0.2077    0.0000 C   0  0  0  0  0  0  0  0  0  0  0  0
   -4.2826    0.2078    0.0000 C   0  0  0  0  0  0  0  0  0  0  0  0
   -4.6966   -0.5090    0.0000 C   0  0  0  0  0  0  0  0  0  0  0  0
   -4.2768   -1.2363    0.0000 C   0  0  0  0  0  0  0  0  0  0  0  0
   -3.4489   -1.2364    0.0000 C   0  0  0  0  0  0  0  0  0  0  0  0
   -5.5186   -0.5089    0.0000 C   0  0  0  0  0  0  0  0  0  0  0  0
   -5.9312   -1.2234    0.0000 N   0  0  0  0  0  0  0  0  0  0  0  0
   -5.9339    0.2105    0.0000 N   0  0  0  0  0  0  0  0  0  0  0  0
    3.1225   -0.2116    0.0000 C   0  0  0  0  0  0  0  0  0  0  0  0
    2.4226   -0.6220    0.0000 N   0  0  0  0  0  0  0  0  0  0  0  0
    2.4281   -1.4462    0.0000 C   0  0  0  0  0  0  0  0  0  0  0  0
    3.1447   -1.8536    0.0000 C   0  0  0  0  0  0  0  0  0  0  0  0
    3.8445   -1.4432    0.0000 C   0  0  0  0  0  0  0  0  0  0  0  0
    3.8392   -0.6190    0.0000 C   0  0  0  0  0  0  0  0  0  0  0  0
  1  2  1  0
  2  3  1  0
  2 14  2  0
  3  4  1  0
  4  5  1  0
  5  6  1  0
  5 30  1  0
  6  7  1  0
  6  8  2  0
  7  9  2  0
  7 13  1  0
  9 10  1  0
 10 11  2  0
 10 15  1  0
 11 12  1  0
 11 17  1  0
 12 13  2  0
 15 16  2  0
 16 17  1  0
 16 19  1  0
 17 18  1  0
 19 20  1  0
 20 21  1  0
 21 22  2  0
 21 26  1  0
 22 23  1  0
 23 24  2  0
 24 25  1  0
 24 27  1  0
 25 26  2  0
 27 28  1  0
 27 29  2  0
 30 31  2  0
 30 35  1  0
 31 32  1  0
 32 33  2  0
 33 34  1  0
 34 35  2  0
M  END
>  <DRUGBANK_ID>  (1) 
DB14726

>  <COMMON_NAME>  (1) 
Dabigatran

>  <CAS_NUMBER>  (1) 
211914-51-1

>  <UNII>  (1) 
I0VM4M70GC

>  <SYNONYMS>  (1) 
Dabigatran

$$$$
