
     RDKit          2D

 36 39  0  0  0  0  0  0  0  0999 V2000
    4.4814   -1.2214    0.0000 C   0  0  0  0  0  0  0  0  0  0  0  0
    3.6563   -1.2214    0.0000 C   0  0  0  0  0  0  0  0  0  0  0  0
    3.2461   -1.9320    0.0000 N   0  0  0  0  0  0  0  0  0  0  0  0
    3.6563   -2.6471    0.0000 C   0  0  0  0  0  0  0  0  0  0  0  0
    4.4814   -2.6471    0.0000 C   0  0  0  0  0  0  0  0  0  0  0  0
    4.8962   -1.9320    0.0000 O   0  0  0  0  0  0  0  0  0  0  0  0
    2.4203   -1.9300    0.0000 C   0  0  0  0  0  0  0  0  0  0  0  0
    2.0092   -1.2157    0.0000 C   0  0  0  0  0  0  0  0  0  0  0  0
    1.1870   -1.2157    0.0000 C   0  0  0  0  0  0  0  0  0  0  0  0
    0.7760   -1.9300    0.0000 N   0  0  0  0  0  0  0  0  0  0  0  0
   -0.0460   -1.9300    0.0000 S   0  0  0  0  0  0  0  0  0  0  0  0
   -0.4571   -1.2157    0.0000 C   0  0  0  0  0  0  0  0  0  0  0  0
   -4.8954    1.5102    0.0000 C   0  0  0  0  0  0  0  0  0  0  0  0
   -4.8962    0.6834    0.0000 C   0  0  0  0  0  0  0  0  0  0  0  0
   -4.1832    0.2692    0.0000 C   0  0  0  0  0  0  0  0  0  0  0  0
   -4.1844    1.9214    0.0000 C   0  0  0  0  0  0  0  0  0  0  0  0
   -3.4682    1.5126    0.0000 C   0  0  0  0  0  0  0  0  0  0  0  0
   -3.4702    0.6813    0.0000 C   0  0  0  0  0  0  0  0  0  0  0  0
   -2.0314    1.5092    0.0000 N   0  0  0  0  0  0  0  0  0  0  0  0
   -2.7511    1.9290    0.0000 C   0  0  0  0  0  0  0  0  0  0  0  0
   -2.0335    0.6777    0.0000 C   0  0  0  0  0  0  0  0  0  0  0  0
   -2.7504    0.2650    0.0000 C   0  0  0  0  0  0  0  0  0  0  0  0
   -2.5794   -0.5444    0.0000 C   0  0  0  0  0  0  0  0  0  0  0  0
   -1.4193    0.1233    0.0000 C   0  0  0  0  0  0  0  0  0  0  0  0
   -1.7596   -0.6296    0.0000 C   0  0  0  0  0  0  0  0  0  0  0  0
   -1.2778   -1.2986    0.0000 C   0  0  0  0  0  0  0  0  0  0  0  0
   -0.1180   -0.4583    0.0000 C   0  0  0  0  0  0  0  0  0  0  0  0
   -0.6018    0.2075    0.0000 C   0  0  0  0  0  0  0  0  0  0  0  0
   -2.7545    2.7550    0.0000 O   0  0  0  0  0  0  0  0  0  0  0  0
   -0.0490   -2.7550    0.0000 O   0  0  0  0  0  0  0  0  0  0  0  0
   -0.7632   -2.3410    0.0000 O   0  0  0  0  0  0  0  0  0  0  0  0
    1.7060    0.9883    0.0000 C   0  0  0  0  0  0  0  0  0  0  0  0
    2.5310    0.9883    0.0000 S   0  0  0  0  0  0  0  0  0  0  0  0
    2.5281    1.8133    0.0000 O   0  0  0  0  0  0  0  0  0  0  0  0
    2.5281    0.1632    0.0000 O   0  0  0  0  0  0  0  0  0  0  0  0
    3.3561    0.9883    0.0000 O   0  0  0  0  0  0  0  0  0  0  0  0
  1  2  1  0
  1  6  1  0
  2  3  1  0
  3  4  1  0
  3  7  1  0
  4  5  1  0
  5  6  1  0
  7  8  1  0
  8  9  1  0
  9 10  1  0
 10 11  1  0
 11 12  1  0
 11 30  2  0
 11 31  2  0
 12 27  1  0
 13 14  2  0
 14 15  1  0
 15 18  2  0
 16 13  1  0
 17 16  2  0
 17 18  1  0
 17 20  1  0
 18 22  1  0
 19 20  1  0
 20 29  2  0
 21 19  1  0
 21 22  2  0
 22 23  1  0
 23 25  1  0
 24 21  1  0
 24 25  2  0
 25 26  1  0
 26 12  2  0
 27 28  2  0
 28 24  1  0
 32 33  1  0
 33 34  2  0
 33 35  2  0
 33 36  1  0
M  END
>  <DRUGBANK_ID>  (1) 
DB05549

>  <COMMON_NAME>  (1) 
INO-1001

>  <CAS_NUMBER>  (1) 
501364-91-6

>  <UNII>  (1) 
55E08EN074

>  <SYNONYMS>  (1) 
(9-(N-(3-Morpholinopropyl)-sulfonyl)-5,6-dihydro-5-oxo-11-H-indeno (1,2-C) isoquinoline methanesulfonic acid

$$$$
