
     RDKit          2D

 35 38  0  0  0  0  0  0  0  0999 V2000
   -5.3549    0.1130    0.0000 N   0  0  0  0  0  0  0  0  0  0  0  0
   -5.3549   -0.7119    0.0000 C   0  0  0  0  0  0  0  0  0  0  0  0
   -4.6428   -1.1202    0.0000 N   0  0  0  0  0  0  0  0  0  0  0  0
   -4.6428    0.5297    0.0000 C   0  0  0  0  0  0  0  0  0  0  0  0
   -3.9308    0.1130    0.0000 C   0  0  0  0  0  0  0  0  0  0  0  0
   -3.9344   -0.7119    0.0000 C   0  0  0  0  0  0  0  0  0  0  0  0
   -2.5100   -0.7180    0.0000 N   0  0  0  0  0  0  0  0  0  0  0  0
   -2.5065    0.1069    0.0000 C   0  0  0  0  0  0  0  0  0  0  0  0
   -3.2192    0.5270    0.0000 N   0  0  0  0  0  0  0  0  0  0  0  0
   -6.0705    0.5234    0.0000 C   0  0  0  0  0  0  0  0  0  0  0  0
   -4.6420   -1.9452    0.0000 C   0  0  0  0  0  0  0  0  0  0  0  0
   -1.7893    0.5146    0.0000 Cl  0  0  0  0  0  0  0  0  0  0  0  0
   -6.0687   -1.1254    0.0000 O   0  0  0  0  0  0  0  0  0  0  0  0
   -4.6428    1.3547    0.0000 O   0  0  0  0  0  0  0  0  0  0  0  0
    0.3644   -0.8244    0.0000 C   0  0  0  0  0  0  0  0  0  0  0  0
    0.3633   -1.6517    0.0000 C   0  0  0  0  0  0  0  0  0  0  0  0
    1.0781   -2.0646    0.0000 C   0  0  0  0  0  0  0  0  0  0  0  0
    1.7945   -1.6513    0.0000 C   0  0  0  0  0  0  0  0  0  0  0  0
    1.7917   -0.8207    0.0000 C   0  0  0  0  0  0  0  0  0  0  0  0
    1.0763   -0.4116    0.0000 C   0  0  0  0  0  0  0  0  0  0  0  0
    2.5046   -0.4055    0.0000 C   0  0  0  0  0  0  0  0  0  0  0  0
    3.2206   -0.8153    0.0000 O   0  0  0  0  0  0  0  0  0  0  0  0
    2.5015    0.4194    0.0000 C   0  0  0  0  0  0  0  0  0  0  0  0
    3.2162    0.8297    0.0000 C   0  0  0  0  0  0  0  0  0  0  0  0
    3.2134    1.6539    0.0000 C   0  0  0  0  0  0  0  0  0  0  0  0
    2.4968    2.0646    0.0000 C   0  0  0  0  0  0  0  0  0  0  0  0
    1.7816    1.6450    0.0000 C   0  0  0  0  0  0  0  0  0  0  0  0
    1.7879    0.8221    0.0000 C   0  0  0  0  0  0  0  0  0  0  0  0
    3.9325   -0.3952    0.0000 C   0  0  0  0  0  0  0  0  0  0  0  0
    4.6522   -0.8039    0.0000 C   0  0  0  0  0  0  0  0  0  0  0  0
    5.3620   -0.3873    0.0000 C   0  0  0  0  0  0  0  0  0  0  0  0
    5.3584    0.4395    0.0000 N   0  0  0  0  0  0  0  0  0  0  0  0
    4.6388    0.8482    0.0000 C   0  0  0  0  0  0  0  0  0  0  0  0
    3.9227    0.4299    0.0000 C   0  0  0  0  0  0  0  0  0  0  0  0
    6.0705    0.8561    0.0000 C   0  0  0  0  0  0  0  0  0  0  0  0
  1  2  1  0
  1  4  1  0
  1 10  1  0
  2 13  2  0
  2  3  1  0
  3 11  1  0
  3  6  1  0
  4 14  2  0
  5  4  1  0
  5  6  2  0
  6  7  1  0
  7  8  2  0
  8 12  1  0
  8  9  1  0
  9  5  1  0
 15 16  2  0
 16 17  1  0
 17 18  2  0
 18 19  1  0
 19 20  2  0
 19 21  1  0
 20 15  1  0
 21 22  1  0
 21 23  1  0
 22 29  1  0
 23 24  2  0
 24 25  1  0
 25 26  2  0
 26 27  1  0
 27 28  2  0
 28 23  1  0
 29 30  1  0
 29 34  1  0
 30 31  1  0
 31 32  1  0
 32 33  1  0
 32 35  1  0
 33 34  1  0
M  END
>  <DRUGBANK_ID>  (1) 
DB15987

>  <COMMON_NAME>  (1) 
Piprinhydrinate

>  <CAS_NUMBER>  (1) 
606-90-6

>  <UNII>  (1) 
SI78RFJ7XI

>  <SYNONYMS>  (1) 
Diphenylpyraline 8-chlorotheophyllinate; Diphenylpyraline teoclate; Piprinhidrinato; Piprinhydrinate; Piprinhydrinatum

$$$$
