RED
     RDKit          2D

 12 11  0  0  0  0  0  0  0  0999 V2000
   -2.6439    0.1412    0.0000 C   0  0  0  0  0  0  0  0  0  0  0  0
   -3.3584   -0.2713    0.0000 O   0  0  0  0  0  0  0  0  0  0  0  0
   -2.6439    0.9662    0.0000 O   0  0  0  0  0  0  0  0  0  0  0  0
   -1.9294   -0.2713    0.0000 C   0  0  0  0  0  0  0  0  0  0  0  0
   -1.2150    0.1412    0.0000 C   0  0  0  0  0  0  0  0  0  0  0  0
   -0.5005   -0.2713    0.0000 C   0  0  0  0  0  0  0  0  0  0  0  0
    0.2140    0.1412    0.0000 C   0  0  0  0  0  0  0  0  0  0  0  0
    0.9285   -0.2713    0.0000 C   0  0  0  0  0  0  0  0  0  0  0  0
    1.6429    0.1412    0.0000 C   0  0  0  0  0  0  0  0  0  0  0  0
    2.3574   -0.2713    0.0000 C   0  0  0  0  0  0  0  0  0  0  0  0
    3.0719    0.1412    0.0000 S   0  0  0  0  0  0  0  0  0  0  0  0
    0.9285   -1.0963    0.0000 S   0  0  0  0  0  0  0  0  0  0  0  0
  1  2  2  0
  1  3  1  0
  1  4  1  0
  4  5  1  0
  5  6  1  0
  6  7  1  0
  8  7  1  6
  8  9  1  0
  8 12  1  0
  9 10  1  0
 10 11  1  0
M  END
>  <DRUGBANK_ID>  (1) 
DB03760

>  <SECONDARY_ACCESSION_NUMBERS>  (1) 
EXPT02769

>  <COMMON_NAME>  (1) 
Dihydrolipoic Acid

>  <CAS_NUMBER>  (1) 
462-20-4

>  <UNII>  (1) 
00K1YL9Q69

$$$$
