
     RDKit          2D

 11 11  0  0  0  0  0  0  0  0999 V2000
   -1.0670    0.6159    0.0000 C   0  0  0  0  0  0  0  0  0  0  0  0
   -1.0670   -0.2094    0.0000 C   0  0  0  0  0  0  0  0  0  0  0  0
   -0.3540   -0.6201    0.0000 C   0  0  0  0  0  0  0  0  0  0  0  0
    0.3548   -0.2094    0.0000 C   0  0  0  0  0  0  0  0  0  0  0  0
    0.3548    0.6159    0.0000 C   0  0  0  0  0  0  0  0  0  0  0  0
   -0.3540    1.0308    0.0000 C   0  0  0  0  0  0  0  0  0  0  0  0
   -0.3540   -1.4455    0.0000 C   0  0  0  0  0  0  0  0  0  0  0  0
   -1.0695   -1.8562    0.0000 C   0  0  0  0  0  0  0  0  0  0  0  0
    0.3573   -1.8562    0.0000 C   0  0  0  0  0  0  0  0  0  0  0  0
   -0.3540    1.8562    0.0000 C   0  0  0  0  0  0  0  0  0  0  0  0
    1.0695   -0.6252    0.0000 O   0  0  0  0  0  0  0  0  0  0  0  0
  1  2  1  0
  1  6  1  0
  2  3  1  0
  3  7  1  0
  3  4  1  0
  4  5  1  0
  4 11  1  0
  5  6  1  0
  6 10  1  0
  7  8  1  0
  7  9  1  0
M  END
>  <DRUGBANK_ID>  (1) 
DB14123

>  <COMMON_NAME>  (1) 
Menthol

>  <CAS_NUMBER>  (1) 
1490-04-6

>  <UNII>  (1) 
L7T10EIP3A

>  <SYNONYMS>  (1) 
(+-)-Menthol; (1R,2S,5R)-Menthol; DL-menthol; Hexahydrothymol; Menthol natural; Menthol racemic; Menthol racemique; p-Menthan-3-ol; Racementhol; Racementholum; Racementol

$$$$
