NIP
     RDKit          2D

 23 23  0  0  0  0  0  0  0  0999 V2000
    0.7350    2.9412    0.0000 C   0  0  0  0  0  0  0  0  0  0  0  0
    0.0205    2.5287    0.0000 C   0  0  0  0  0  0  0  0  0  0  0  0
   -0.6940    2.9412    0.0000 C   0  0  0  0  0  0  0  0  0  0  0  0
   -1.4084    2.5287    0.0000 N   0  0  0  0  0  0  0  0  0  0  0  0
   -2.1229    2.9412    0.0000 O   0  0  0  0  0  0  0  0  0  0  0  0
   -1.4084    1.7037    0.0000 O   0  0  0  0  0  0  0  0  0  0  0  0
   -0.6940    3.7662    0.0000 C   0  0  0  0  0  0  0  0  0  0  0  0
   -1.4084    4.1787    0.0000 O   0  0  0  0  0  0  0  0  0  0  0  0
    0.0205    4.1787    0.0000 C   0  0  0  0  0  0  0  0  0  0  0  0
    0.0205    5.0037    0.0000 I   0  0  0  0  0  0  0  0  0  0  0  0
    0.7350    3.7662    0.0000 C   0  0  0  0  0  0  0  0  0  0  0  0
    1.4494    2.5287    0.0000 C   0  0  0  0  0  0  0  0  0  0  0  0
    2.1639    2.9412    0.0000 C   0  0  0  0  0  0  0  0  0  0  0  0
    2.1639    3.7662    0.0000 O   0  0  0  0  0  0  0  0  0  0  0  0
    2.8784    2.5287    0.0000 N   0  0  0  0  0  0  0  0  0  0  0  0
    3.5928    2.9412    0.0000 C   0  0  0  0  0  0  0  0  0  0  0  0
    4.3073    2.5287    0.0000 C   0  0  0  0  0  0  0  0  0  0  0  0
    5.0218    2.9412    0.0000 C   0  0  0  0  0  0  0  0  0  0  0  0
    5.7363    2.5287    0.0000 C   0  0  0  0  0  0  0  0  0  0  0  0
    6.4507    2.9412    0.0000 C   0  0  0  0  0  0  0  0  0  0  0  0
    7.1652    2.5287    0.0000 C   0  0  0  0  0  0  0  0  0  0  0  0
    7.8797    2.9412    0.0000 O   0  0  0  0  0  0  0  0  0  0  0  0
    7.1652    1.7037    0.0000 O   0  0  0  0  0  0  0  0  0  0  0  0
  1  2  2  0
  1 11  1  0
  1 12  1  0
  2  3  1  0
  3  4  1  0
  3  7  2  0
  4  5  1  0
  4  6  2  0
  7  8  1  0
  7  9  1  0
  9 10  1  0
  9 11  2  0
 12 13  1  0
 13 14  2  0
 13 15  1  0
 15 16  1  0
 16 17  1  0
 17 18  1  0
 18 19  1  0
 19 20  1  0
 20 21  1  0
 21 22  2  0
 21 23  1  0
M  CHG  3   4   1   5  -1  23  -1
M  END
>  <DRUGBANK_ID>  (1) 
DB08273

>  <COMMON_NAME>  (1) 
4-HYDROXY-5-IODO-3-NITROPHENYLACETYL-EPSILON-AMINOCAPROIC ACID ANION

$$$$
