
     RDKit          2D

 30 34  0  0  1  0  0  0  0  0999 V2000
    3.6730    0.8109    0.0000 C   0  0  0  0  0  0  0  0  0  0  0  0
    1.8779    4.9399    0.0000 C   0  0  0  0  0  0  0  0  0  0  0  0
    1.2648    4.3879    0.0000 C   0  0  0  0  0  0  0  0  0  0  0  0
    2.6625    4.6850    0.0000 C   0  0  0  0  0  0  0  0  0  0  0  0
    1.4363    3.5809    0.0000 C   0  0  0  0  0  0  0  0  0  0  0  0
    2.8340    3.8780    0.0000 C   0  0  0  0  0  0  0  0  0  0  0  0
   -0.2854    1.4109    0.0000 C   0  0  0  0  0  0  0  0  0  0  0  0
   -0.1361    2.8320    0.0000 C   0  0  0  0  0  0  0  0  0  0  0  0
    0.5350    1.3247    0.0000 C   0  0  0  0  0  0  0  0  0  0  0  0
    0.6844    2.7458    0.0000 C   0  0  0  0  0  0  0  0  0  0  0  0
   -4.1291    0.2509    0.0000 C   0  0  0  0  0  0  0  0  0  0  0  0
   -3.8742   -0.5337    0.0000 C   0  0  0  0  0  0  0  0  0  0  0  0
    2.2529    1.1914    0.0000 C   0  0  0  0  0  0  0  0  0  0  0  0
   -1.9935    1.6377    0.0000 C   0  0  0  0  0  0  0  0  0  0  0  0
   -1.8540    2.9653    0.0000 C   0  0  0  0  0  0  0  0  0  0  0  0
   -2.7942    0.2509    0.0000 C   0  0  0  0  0  0  0  0  0  0  0  0
    3.0599    1.3629    0.0000 C   0  0  0  0  0  0  0  0  0  0  0  0
    2.2209    3.3260    0.0000 C   0  0  0  0  0  0  0  0  0  0  0  0
   -1.4415    2.2508    0.0000 C   0  0  0  0  0  0  0  0  0  0  0  0
   -2.7472    1.9733    0.0000 C   0  0  0  0  0  0  0  0  0  0  0  0
    1.8404    1.9059    0.0000 C   0  0  0  0  0  0  0  0  0  0  0  0
   -3.4617    1.5608    0.0000 C   0  0  0  0  0  0  0  0  0  0  0  0
   -2.6610    2.7938    0.0000 N   0  0  0  0  0  0  0  0  0  0  0  0
    3.1461    2.1834    0.0000 N   0  0  0  0  0  0  0  0  0  0  0  0
   -0.6210    2.1646    0.0000 N   0  0  0  0  0  0  0  0  0  0  0  0
    1.0200    1.9921    0.0000 N   0  0  0  0  0  0  0  0  0  0  0  0
   -3.4617    0.7358    0.0000 N   0  0  0  0  0  0  0  0  0  0  0  0
    2.3925    2.5190    0.0000 N   0  0  0  0  0  0  0  0  0  0  0  0
   -4.1761    1.9733    0.0000 O   0  0  0  0  0  0  0  0  0  0  0  0
   -3.0492   -0.5337    0.0000 S   0  0  0  0  0  0  0  0  0  0  0  0
  3  2  2  0
  4  2  1  0
  5  3  1  0
  6  4  2  0
  9  7  1  0
 10  8  1  0
 12 11  1  0
 17  1  1  0
 17 13  1  0
 18  5  2  0
 18  6  1  0
 19 14  1  0
 19 15  1  0
 19 25  1  1
 20 14  1  0
 20 22  1  1
 21 13  2  0
 23 15  1  0
 23 20  1  0
 24 17  2  0
 25  7  1  0
 25  8  1  0
 26  9  1  0
 26 10  1  0
 26 21  1  0
 27 11  1  0
 27 16  1  0
 27 22  1  0
 28 18  1  0
 28 21  1  0
 28 24  1  0
 29 22  2  0
 30 12  1  0
 30 16  1  0
M  END
>  <DRUGBANK_ID>  (1) 
DB11950

>  <COMMON_NAME>  (1) 
Teneligliptin

>  <CAS_NUMBER>  (1) 
760937-92-6

>  <UNII>  (1) 
28ZHI4CF9C

>  <SYNONYMS>  (1) 
Teneligliptin

$$$$
