
     RDKit          2D

 16 15  0  0  1  0  0  0  0  0999 V2000
   -3.1895   -1.0164    0.0000 C   0  0  0  0  0  0  0  0  0  0  0  0
   -2.0625   -0.7145    0.0000 C   0  0  0  0  0  0  0  0  0  0  0  0
   -1.2375   -0.7145    0.0000 C   0  0  0  0  0  0  0  0  0  0  0  0
   -2.8875   -2.1434    0.0000 C   0  0  0  0  0  0  0  0  0  0  0  0
   -2.4750   -1.4289    0.0000 C   0  0  0  0  0  0  0  0  0  0  0  0
   -3.7125   -2.1434    0.0000 Br  0  0  0  0  0  0  0  0  0  0  0  0
   -1.7605   -1.8414    0.0000 O   0  0  0  0  0  0  0  0  0  0  0  0
    1.6500    1.4289    0.0000 O   0  0  0  0  0  0  0  0  0  0  0  0
    1.9520    0.3020    0.0000 O   0  0  0  0  0  0  0  0  0  0  0  0
    0.5230    1.1270    0.0000 O   0  0  0  0  0  0  0  0  0  0  0  0
    0.0000   -0.8250    0.0000 O   0  0  0  0  0  0  0  0  0  0  0  0
   -0.0000    0.8250    0.0000 O   0  0  0  0  0  0  0  0  0  0  0  0
   -0.8250   -0.0000    0.0000 O   0  0  0  0  0  0  0  0  0  0  0  0
    0.8250    0.0000    0.0000 O   0  0  0  0  0  0  0  0  0  0  0  0
    1.2375    0.7145    0.0000 P   0  0  0  0  0  0  0  0  0  0  0  0
    0.0000    0.0000    0.0000 P   0  0  0  0  0  0  0  0  0  0  0  0
  3  2  1  0
  5  1  1  1
  5  2  1  0
  5  4  1  0
  5  7  1  0
  6  4  1  0
 13  3  1  0
 15  8  1  0
 15  9  1  0
 15 10  2  0
 15 14  1  0
 16 11  1  0
 16 12  2  0
 16 13  1  0
 16 14  1  0
M  END
>  <DRUGBANK_ID>  (1) 
DB02480

>  <SECONDARY_ACCESSION_NUMBERS>  (1) 
EXPT02854

>  <COMMON_NAME>  (1) 
(S)-4-bromo-3-hydroxy-3-methylbutyl diphosphate

$$$$
