
     RDKit          2D

 30 34  0  0  0  0  0  0  0  0999 V2000
    8.3287    3.1727    0.0000 C   0  0  0  0  0  0  0  0  0  0  0  0
    7.5395    2.9325    0.0000 C   0  0  0  0  0  0  0  0  0  0  0  0
    7.2698    2.1528    0.0000 N   0  0  0  0  0  0  0  0  0  0  0  0
    6.4450    2.1683    0.0000 C   0  0  0  0  0  0  0  0  0  0  0  0
    5.8815    1.5657    0.0000 C   0  0  0  0  0  0  0  0  0  0  0  0
    5.0779    1.7523    0.0000 C   0  0  0  0  0  0  0  0  0  0  0  0
    4.8378    2.5416    0.0000 C   0  0  0  0  0  0  0  0  0  0  0  0
    5.4012    3.1442    0.0000 C   0  0  0  0  0  0  0  0  0  0  0  0
    6.2048    2.9575    0.0000 C   0  0  0  0  0  0  0  0  0  0  0  0
    6.8812    3.4299    0.0000 N   0  0  0  0  0  0  0  0  0  0  0  0
    4.5145    1.1497    0.0000 C   0  0  0  0  0  0  0  0  0  0  0  0
    4.7547    0.3604    0.0000 O   0  0  0  0  0  0  0  0  0  0  0  0
    3.7109    1.3363    0.0000 N   0  0  0  0  0  0  0  0  0  0  0  0
    3.1474    0.7337    0.0000 C   0  0  0  0  0  0  0  0  0  0  0  0
    2.3438    0.9203    0.0000 C   0  0  0  0  0  0  0  0  0  0  0  0
    2.1037    1.7096    0.0000 C   0  0  0  0  0  0  0  0  0  0  0  0
    2.6671    2.3122    0.0000 C   0  0  0  0  0  0  0  0  0  0  0  0
    3.4707    2.1256    0.0000 C   0  0  0  0  0  0  0  0  0  0  0  0
    1.5402    1.1070    0.0000 C   0  0  0  0  0  0  0  0  0  0  0  0
    0.7366    1.2936    0.0000 C   0  0  0  0  0  0  0  0  0  0  0  0
    0.0602    0.8213    0.0000 C   0  0  0  0  0  0  0  0  0  0  0  0
   -0.5980    1.3186    0.0000 N   0  0  0  0  0  0  0  0  0  0  0  0
   -0.3284    2.0983    0.0000 N   0  0  0  0  0  0  0  0  0  0  0  0
    0.4964    2.0829    0.0000 C   0  0  0  0  0  0  0  0  0  0  0  0
    1.0599    2.6855    0.0000 C   0  0  0  0  0  0  0  0  0  0  0  0
    0.8197    3.4748    0.0000 O   0  0  0  0  0  0  0  0  0  0  0  0
    1.8635    2.4988    0.0000 C   0  0  0  0  0  0  0  0  0  0  0  0
   -0.8007    2.7748    0.0000 C   0  0  0  0  0  0  0  0  0  0  0  0
   -1.6227    2.7039    0.0000 C   0  0  0  0  0  0  0  0  0  0  0  0
   -0.4511    3.5220    0.0000 C   0  0  0  0  0  0  0  0  0  0  0  0
  1  2  1  0
  2  3  1  0
  2 10  2  0
  3  4  1  0
  4  5  2  0
  4  9  1  0
  5  6  1  0
  6  7  2  0
  6 11  1  0
  7  8  1  0
  8  9  2  0
  9 10  1  0
 11 12  2  0
 11 13  1  0
 13 14  1  0
 13 18  1  0
 14 15  1  0
 15 16  1  0
 16 17  1  0
 16 19  1  0
 16 27  1  0
 17 18  1  0
 19 20  1  0
 20 21  1  0
 20 24  2  0
 21 22  2  0
 22 23  1  0
 23 24  1  0
 23 28  1  0
 24 25  1  0
 25 26  2  0
 25 27  1  0
 28 29  1  0
 28 30  1  0
M  END
>  <DRUGBANK_ID>  (1) 
DB12096

>  <COMMON_NAME>  (1) 
PF-05175157

>  <CAS_NUMBER>  (1) 
1301214-47-0

>  <UNII>  (1) 
P826WR56FI

$$$$
