
     RDKit          2D

 32 35  0  0  0  0  0  0  0  0999 V2000
    0.7144    0.6187    0.0000 C   0  0  0  0  0  0  0  0  0  0  0  0
   -0.7144    0.6187    0.0000 C   0  0  0  0  0  0  0  0  0  0  0  0
    0.7144   -0.2062    0.0000 C   0  0  0  0  0  0  0  0  0  0  0  0
    2.1433    0.6187    0.0000 C   0  0  0  0  0  0  0  0  0  0  0  0
    0.0000    1.0312    0.0000 C   0  0  0  0  0  0  0  0  0  0  0  0
    1.4289    1.0312    0.0000 C   0  0  0  0  0  0  0  0  0  0  0  0
    2.1433   -0.2062    0.0000 C   0  0  0  0  0  0  0  0  0  0  0  0
   -1.4289    1.0312    0.0000 C   0  0  0  0  0  0  0  0  0  0  0  0
   -0.7144   -0.2062    0.0000 C   0  0  0  0  0  0  0  0  0  0  0  0
    1.4289   -0.6187    0.0000 C   0  0  0  0  0  0  0  0  0  0  0  0
   -2.1434    0.6187    0.0000 C   0  0  0  0  0  0  0  0  0  0  0  0
    0.0000   -0.6187    0.0000 C   0  0  0  0  0  0  0  0  0  0  0  0
   -2.1434   -0.2062    0.0000 C   0  0  0  0  0  0  0  0  0  0  0  0
   -1.4289   -0.6187    0.0000 C   0  0  0  0  0  0  0  0  0  0  0  0
    2.8578    1.0312    0.0000 C   0  0  0  0  0  0  0  0  0  0  0  0
    1.4289   -1.4437    0.0000 N   0  0  0  0  0  0  0  0  0  0  0  0
    1.4289    1.8562    0.0000 O   0  0  0  0  0  0  0  0  0  0  0  0
   -1.4289    1.8562    0.0000 O   0  0  0  0  0  0  0  0  0  0  0  0
   -2.8578    1.0312    0.0000 C   0  0  0  0  0  0  0  0  0  0  0  0
    0.7144    1.4437    0.0000 O   0  0  0  0  0  0  0  0  0  0  0  0
    3.5723    0.6187    0.0000 N   0  0  0  0  0  0  0  0  0  0  0  0
    0.0000    1.8562    0.0000 O   0  0  0  0  0  0  0  0  0  0  0  0
    2.8578   -0.6187    0.0000 O   0  0  0  0  0  0  0  0  0  0  0  0
    0.0000   -1.4437    0.0000 O   0  0  0  0  0  0  0  0  0  0  0  0
    2.8578    1.8562    0.0000 O   0  0  0  0  0  0  0  0  0  0  0  0
   -2.8578   -0.6187    0.0000 C   0  0  0  0  0  0  0  0  0  0  0  0
   -1.4289   -1.4437    0.0000 C   0  0  0  0  0  0  0  0  0  0  0  0
   -2.8578    1.8562    0.0000 O   0  0  0  0  0  0  0  0  0  0  0  0
   -3.5723   -0.2062    0.0000 C   0  0  0  0  0  0  0  0  0  0  0  0
   -3.5723    0.6187    0.0000 C   0  0  0  0  0  0  0  0  0  0  0  0
    2.1433   -1.8562    0.0000 C   0  0  0  0  0  0  0  0  0  0  0  0
    0.7144   -1.8562    0.0000 C   0  0  0  0  0  0  0  0  0  0  0  0
  1 20  1  1
  3  1  1  0
  5  1  1  0
  5  2  2  0
  6  1  1  0
  6  4  1  0
  7  4  2  0
  8  2  1  0
  9  2  1  6
  3 10  1  6
 10  7  1  0
 10 16  1  1
 11  8  1  0
 12  3  1  0
 12  9  1  0
 12 24  1  1
 13 11  2  0
 14  9  1  0
 14 13  1  0
 14 27  1  1
 15  4  1  0
 17  6  2  0
 18  8  2  0
 19 11  1  0
 21 15  1  0
 22  5  1  0
 23  7  1  0
 25 15  2  0
 26 13  1  0
 28 19  1  0
 29 26  2  0
 30 19  2  0
 30 29  1  0
 31 16  1  0
 32 16  1  0
M  END
>  <DRUGBANK_ID>  (1) 
DB00254

>  <SECONDARY_ACCESSION_NUMBERS>  (1) 
APRD00597

>  <COMMON_NAME>  (1) 
Doxycycline

>  <CAS_NUMBER>  (1) 
564-25-0

>  <UNII>  (1) 
334895S862

>  <SYNONYMS>  (1) 
5-hydroxy-α-6-deoxytetracycline; 6-alpha-deoxy-5-oxytetracycline; 6alpha-deoxy-5-oxytetracycline; 6α-deoxy-5-oxytetracycline; Anhydrous doxycycline; Doxiciclina; Doxycyclin; Doxycycline; Doxycycline (anhydrous); Doxycycline anhydrous; Doxycyclinum

$$$$
