
     RDKit          2D

 16 17  0  0  1  0  0  0  0  0999 V2000
    0.7145    5.9411    0.0000 C   0  0  0  0  0  0  0  0  0  0  0  0
    1.4289    5.5286    0.0000 C   0  0  0  0  0  0  0  0  0  0  0  0
    1.4289    4.7036    0.0000 C   0  0  0  0  0  0  0  0  0  0  0  0
    0.7145    4.2911    0.0000 N   0  0  0  0  0  0  0  0  0  0  0  0
    0.0000    4.7036    0.0000 C   0  0  0  0  0  0  0  0  0  0  0  0
   -0.7145    4.2911    0.0000 O   0  0  0  0  0  0  0  0  0  0  0  0
   -0.0000    5.5286    0.0000 N   0  0  0  0  0  0  0  0  0  0  0  0
    0.7145    3.4661    0.0000 C   0  0  0  0  0  0  0  0  0  0  0  0
    1.3819    2.9812    0.0000 C   0  0  0  0  0  0  0  0  0  0  0  0
    1.1270    2.1965    0.0000 C   0  0  0  0  0  0  0  0  0  0  0  0
    0.3020    2.1965    0.0000 C   0  0  0  0  0  0  0  0  0  0  0  0
    0.0470    2.9812    0.0000 O   0  0  0  0  0  0  0  0  0  0  0  0
   -0.1830    1.5291    0.0000 C   0  0  0  0  0  0  0  0  0  0  0  0
    0.1526    0.7754    0.0000 O   0  0  0  0  0  0  0  0  0  0  0  0
    1.6119    1.5291    0.0000 O   0  0  0  0  0  0  0  0  0  0  0  0
    2.1434    5.9411    0.0000 I   0  0  0  0  0  0  0  0  0  0  0  0
  1  2  1  0
  1  7  2  0
  2  3  2  0
  2 16  1  0
  3  4  1  0
  4  5  1  0
  5  6  2  0
  5  7  1  0
  8  4  1  1
  8  9  1  0
  8 12  1  0
  9 10  1  0
 10 11  1  0
 10 15  1  6
 11 12  1  0
 11 13  1  1
 13 14  1  0
M  END
>  <DRUGBANK_ID>  (1) 
DB06485

>  <COMMON_NAME>  (1) 
Ropidoxuridine

>  <CAS_NUMBER>  (1) 
93265-81-7

>  <UNII>  (1) 
3HX21A3SQF

>  <SYNONYMS>  (1) 
1-(2-DEOXY-.BETA.-D-ERYTHRO-PENTOFURANOSYL)-5-IODOPYRIMIDIN-2(1H)-ONE; 2(1H)-PYRIMIDINONE, 1-(2-DEOXY-.BETA.-D-ERYTHRO-PENTOFURANOSYL)-5-IODO-; 5-iodo-2-pyrimidinone-2'-deoxyribose; Ropidoxuridine

$$$$
