
     RDKit          2D

 16 17  0  0  0  0  0  0  0  0999 V2000
   -2.8514   -0.0090    0.0000 C   0  0  0  0  0  0  0  0  0  0  0  0
   -2.8526   -0.8360    0.0000 C   0  0  0  0  0  0  0  0  0  0  0  0
   -2.1380   -1.2488    0.0000 C   0  0  0  0  0  0  0  0  0  0  0  0
   -2.1398    0.4036    0.0000 C   0  0  0  0  0  0  0  0  0  0  0  0
   -1.4246   -0.0053    0.0000 C   0  0  0  0  0  0  0  0  0  0  0  0
   -1.4238   -0.8319    0.0000 C   0  0  0  0  0  0  0  0  0  0  0  0
   -0.7087   -1.2428    0.0000 C   0  0  0  0  0  0  0  0  0  0  0  0
    0.0060   -0.8281    0.0000 C   0  0  0  0  0  0  0  0  0  0  0  0
    0.0012    0.0015    0.0000 C   0  0  0  0  0  0  0  0  0  0  0  0
   -0.7145    0.4086    0.0000 C   0  0  0  0  0  0  0  0  0  0  0  0
   -0.7187    1.2334    0.0000 O   0  0  0  0  0  0  0  0  0  0  0  0
    0.7130    0.4182    0.0000 N   0  0  0  0  0  0  0  0  0  0  0  0
    1.4237    0.0076    0.0000 N   0  0  0  0  0  0  0  0  0  0  0  0
    2.1360    0.4241    0.0000 C   0  0  0  0  0  0  0  0  0  0  0  0
    2.8526    0.0157    0.0000 N   0  0  0  0  0  0  0  0  0  0  0  0
    2.1314    1.2488    0.0000 O   0  0  0  0  0  0  0  0  0  0  0  0
  1  2  2  0
  2  3  1  0
  3  6  2  0
  4  1  1  0
  5  4  2  0
  5  6  1  0
  6  7  1  0
  7  8  2  0
  8  9  1  0
  9 10  1  0
  9 12  2  0
 10  5  1  0
 10 11  2  0
 12 13  1  0
 13 14  1  0
 14 15  1  0
 14 16  2  0
M  END
>  <DRUGBANK_ID>  (1) 
DB13680

>  <COMMON_NAME>  (1) 
Naftazone

>  <CAS_NUMBER>  (1) 
15687-37-3

>  <UNII>  (1) 
15B0523P5L

>  <SYNONYMS>  (1) 
Naftazona; Naftazone; Naftazonum

$$$$
