
     RDKit          2D

 23 25  0  0  1  0  0  0  0  0999 V2000
    4.3489    1.5727    0.0000 C   0  0  0  0  0  0  0  0  0  0  0  0
    4.0668    2.3479    0.0000 C   0  0  0  0  0  0  0  0  0  0  0  0
    3.5365    2.9799    0.0000 C   0  0  0  0  0  0  0  0  0  0  0  0
    3.8186    3.7552    0.0000 C   0  0  0  0  0  0  0  0  0  0  0  0
    4.6311    3.8984    0.0000 C   0  0  0  0  0  0  0  0  0  0  0  0
    5.1614    3.2664    0.0000 C   0  0  0  0  0  0  0  0  0  0  0  0
    4.8792    2.4912    0.0000 C   0  0  0  0  0  0  0  0  0  0  0  0
    5.4095    1.8592    0.0000 C   0  0  0  0  0  0  0  0  0  0  0  0
    5.1274    1.0840    0.0000 O   0  0  0  0  0  0  0  0  0  0  0  0
    4.9133    4.6737    0.0000 O   0  0  0  0  0  0  0  0  0  0  0  0
    3.3523    1.9354    0.0000 C   0  0  0  0  0  0  0  0  0  0  0  0
    3.3523    1.1104    0.0000 C   0  0  0  0  0  0  0  0  0  0  0  0
    2.6378    0.6979    0.0000 C   0  0  0  0  0  0  0  0  0  0  0  0
    1.9233    1.1104    0.0000 C   0  0  0  0  0  0  0  0  0  0  0  0
    1.9233    1.9354    0.0000 C   0  0  0  0  0  0  0  0  0  0  0  0
    2.6378    2.3479    0.0000 C   0  0  0  0  0  0  0  0  0  0  0  0
    2.6378    3.1729    0.0000 C   0  0  0  0  0  0  0  0  0  0  0  0
    3.3523    3.5854    0.0000 N   0  0  0  0  0  0  0  0  0  0  0  0
    1.1387    2.1904    0.0000 C   0  0  0  0  0  0  0  0  0  0  0  0
    0.6538    1.5229    0.0000 C   0  0  0  0  0  0  0  0  0  0  0  0
    1.1387    0.8555    0.0000 C   0  0  0  0  0  0  0  0  0  0  0  0
    0.8838    0.0709    0.0000 C   0  0  0  0  0  0  0  0  0  0  0  0
    1.8371    0.2900    0.0000 C   0  0  0  0  0  0  0  0  0  0  0  0
  2  1  1  6
  2  3  1  0
  2  7  1  0
  2 11  1  0
  3  4  1  0
  4  5  1  0
  5  6  1  0
  5 10  1  6
  6  7  1  0
  7  8  1  6
  8  9  1  0
 11 12  1  1
 11 16  1  0
 12 13  1  0
 13 14  1  0
 14 15  1  0
 14 21  1  0
 14 23  1  1
 15 16  1  0
 15 19  1  1
 16 17  1  6
 17 18  1  0
 19 20  1  0
 20 21  1  0
 21 22  2  0
M  END
>  <DRUGBANK_ID>  (1) 
DB13012

>  <COMMON_NAME>  (1) 
AQX-1125

>  <CAS_NUMBER>  (1) 
782487-28-9

>  <UNII>  (1) 
6R5034F862

$$$$
