
     RDKit          2D

 44 48  0  0  0  0  0  0  0  0999 V2000
   -3.3833   -1.0156    0.0000 C   0  0  0  0  0  0  0  0  0  0  0  0
   -2.8562   -1.6502    0.0000 C   0  0  0  0  0  0  0  0  0  0  0  0
   -3.1422   -2.4241    0.0000 O   0  0  0  0  0  0  0  0  0  0  0  0
   -2.0430   -1.5110    0.0000 C   0  0  0  0  0  0  0  0  0  0  0  0
   -1.4819   -2.0624    0.0000 C   0  0  0  0  0  0  0  0  0  0  0  0
   -1.5946   -2.8797    0.0000 C   0  0  0  0  0  0  0  0  0  0  0  0
   -0.7243   -1.6459    0.0000 C   0  0  0  0  0  0  0  0  0  0  0  0
    0.0112   -2.0494    0.0000 C   0  0  0  0  0  0  0  0  0  0  0  0
    0.7106   -1.6627    0.0000 C   0  0  0  0  0  0  0  0  0  0  0  0
    1.5044   -2.0364    0.0000 C   0  0  0  0  0  0  0  0  0  0  0  0
    1.6497   -2.8485    0.0000 C   0  0  0  0  0  0  0  0  0  0  0  0
    2.4257   -3.1287    0.0000 C   0  0  0  0  0  0  0  0  0  0  0  0
    1.0191   -3.3804    0.0000 O   0  0  0  0  0  0  0  0  0  0  0  0
    2.0558   -1.4752    0.0000 C   0  0  0  0  0  0  0  0  0  0  0  0
    2.8703   -1.6063    0.0000 C   0  0  0  0  0  0  0  0  0  0  0  0
    1.6683   -0.6881    0.0000 C   0  0  0  0  0  0  0  0  0  0  0  0
    0.8501   -0.8709    0.0000 N   0  0  0  0  0  0  0  0  0  0  0  0
    2.0427    0.0179    0.0000 C   0  0  0  0  0  0  0  0  0  0  0  0
    1.6265    0.7462    0.0000 C   0  0  0  0  0  0  0  0  0  0  0  0
    0.8643    0.8567    0.0000 N   0  0  0  0  0  0  0  0  0  0  0  0
    0.7107    1.6752    0.0000 C   0  0  0  0  0  0  0  0  0  0  0  0
    0.0047    2.0496    0.0000 C   0  0  0  0  0  0  0  0  0  0  0  0
   -0.7239    1.6627    0.0000 C   0  0  0  0  0  0  0  0  0  0  0  0
   -0.8926    0.8706    0.0000 N   0  0  0  0  0  0  0  0  0  0  0  0
   -1.6818    0.7174    0.0000 C   0  0  0  0  0  0  0  0  0  0  0  0
   -2.0558   -0.0472    0.0000 C   0  0  0  0  0  0  0  0  0  0  0  0
   -1.6690   -0.7465    0.0000 C   0  0  0  0  0  0  0  0  0  0  0  0
   -0.8480   -0.8857    0.0000 N   0  0  0  0  0  0  0  0  0  0  0  0
   -2.0393    1.4169    0.0000 C   0  0  0  0  0  0  0  0  0  0  0  0
   -2.8548    1.5419    0.0000 C   0  0  0  0  0  0  0  0  0  0  0  0
   -1.4588    2.0076    0.0000 C   0  0  0  0  0  0  0  0  0  0  0  0
   -1.6046    2.8196    0.0000 C   0  0  0  0  0  0  0  0  0  0  0  0
   -2.3807    3.0994    0.0000 C   0  0  0  0  0  0  0  0  0  0  0  0
   -2.5265    3.9114    0.0000 C   0  0  0  0  0  0  0  0  0  0  0  0
   -3.3026    4.1911    0.0000 O   0  0  0  0  0  0  0  0  0  0  0  0
   -1.8962    4.4436    0.0000 O   0  0  0  0  0  0  0  0  0  0  0  0
    1.4686    2.0624    0.0000 C   0  0  0  0  0  0  0  0  0  0  0  0
    1.5937    2.8779    0.0000 C   0  0  0  0  0  0  0  0  0  0  0  0
    2.3624    3.1773    0.0000 C   0  0  0  0  0  0  0  0  0  0  0  0
    2.4875    3.9928    0.0000 C   0  0  0  0  0  0  0  0  0  0  0  0
    1.8438    4.5088    0.0000 O   0  0  0  0  0  0  0  0  0  0  0  0
    3.2562    4.2922    0.0000 O   0  0  0  0  0  0  0  0  0  0  0  0
    2.0297    1.5110    0.0000 C   0  0  0  0  0  0  0  0  0  0  0  0
    2.8449    1.6379    0.0000 C   0  0  0  0  0  0  0  0  0  0  0  0
  1  2  1  0
  2  3  1  0
  2  4  1  0
  4  5  2  0
  4 27  1  0
  5  6  1  0
  5  7  1  0
  7  8  2  0
  7 28  1  0
  8  9  1  0
  9 10  2  0
  9 17  1  0
 10 11  1  0
 10 14  1  0
 11 12  1  0
 11 13  1  0
 14 15  1  0
 14 16  2  0
 16 17  1  0
 16 18  1  0
 18 19  2  0
 19 20  1  0
 19 43  1  0
 20 21  2  0
 21 22  1  0
 21 37  1  0
 22 23  2  0
 23 24  1  0
 23 31  1  0
 24 25  1  0
 25 26  2  0
 25 29  1  0
 26 27  1  0
 27 28  2  0
 29 30  1  0
 29 31  2  0
 31 32  1  0
 32 33  1  0
 33 34  1  0
 34 35  1  0
 34 36  2  0
 37 38  1  0
 37 43  2  0
 38 39  1  0
 39 40  1  0
 40 41  1  0
 40 42  2  0
 43 44  1  0
M  END
>  <DRUGBANK_ID>  (1) 
DB16183

>  <COMMON_NAME>  (1) 
Hemoporfin

>  <CAS_NUMBER>  (1) 
14459-29-1

>  <UNII>  (1) 
HBT6M5H379

>  <SYNONYMS>  (1) 
Haematoporphyrin; Hematoporphyrin; Hematoporphyrin ix; Hemoporfin; Photodyn

$$$$
