
     RDKit          2D

 20 22  0  0  0  0  0  0  0  0999 V2000
   -1.4333   -0.7388    0.0000 N   0  0  0  0  0  0  0  0  0  0  0  0
   -1.9028    0.1532    0.0000 C   0  0  0  0  0  0  0  0  0  0  0  0
   -1.1407   -0.0139    0.0000 C   0  0  0  0  0  0  0  0  0  0  0  0
   -0.8014   -0.7156    0.0000 C   0  0  0  0  0  0  0  0  0  0  0  0
   -1.1359   -1.4219    0.0000 C   0  0  0  0  0  0  0  0  0  0  0  0
   -1.8980   -1.6031    0.0000 C   0  0  0  0  0  0  0  0  0  0  0  0
   -2.5161   -1.1106    0.0000 C   0  0  0  0  0  0  0  0  0  0  0  0
   -2.5161   -0.3345    0.0000 C   0  0  0  0  0  0  0  0  0  0  0  0
    0.0256   -0.7156    0.0000 C   0  0  0  0  0  0  0  0  0  0  0  0
    0.4439   -1.4266    0.0000 C   0  0  0  0  0  0  0  0  0  0  0  0
    1.2755   -1.4266    0.0000 C   0  0  0  0  0  0  0  0  0  0  0  0
    1.6844   -0.7016    0.0000 C   0  0  0  0  0  0  0  0  0  0  0  0
    1.2615    0.0186    0.0000 C   0  0  0  0  0  0  0  0  0  0  0  0
    0.4299    0.0186    0.0000 C   0  0  0  0  0  0  0  0  0  0  0  0
    2.5161   -0.7016    0.0000 Cl  0  0  0  0  0  0  0  0  0  0  0  0
    1.6890   -2.1467    0.0000 Cl  0  0  0  0  0  0  0  0  0  0  0  0
   -0.7271    0.7108    0.0000 C   0  0  0  0  0  0  0  0  0  0  0  0
   -1.1454    1.4219    0.0000 O   0  0  0  0  0  0  0  0  0  0  0  0
   -0.7317    2.1467    0.0000 C   0  0  0  0  0  0  0  0  0  0  0  0
   -1.9891   -0.7584    0.0000 C   0  0  0  0  0  0  0  0  0  0  0  0
  2  1  1  0
  3  2  1  0
  3 17  1  6
  4  3  1  0
  4  5  1  0
  4  9  1  1
  6  5  1  6
  6  1  1  0
  7  6  1  0
  8  7  1  0
  2  8  1  6
 10  9  2  0
 11 10  1  0
 12 11  2  0
 12 13  1  0
 13 14  2  0
 14  9  1  0
 15 12  1  0
 16 11  1  0
 18 17  1  0
 19 18  1  0
 20  1  1  0
M  END
>  <DRUGBANK_ID>  (1) 
DB05805

>  <COMMON_NAME>  (1) 
NS-2359

>  <CAS_NUMBER>  (1) 
195875-68-4

>  <UNII>  (1) 
76H76554PA

$$$$
