
     RDKit          2D

 12 12  0  0  0  0  0  0  0  0999 V2000
    1.4289    2.4750    0.0000 N   0  0  0  0  0  0  0  0  0  0  0  0
    0.7145    2.0625    0.0000 C   0  0  0  0  0  0  0  0  0  0  0  0
    0.0000    2.4750    0.0000 C   0  0  0  0  0  0  0  0  0  0  0  0
    0.0000    3.3000    0.0000 O   0  0  0  0  0  0  0  0  0  0  0  0
   -0.7145    2.0625    0.0000 O   0  0  0  0  0  0  0  0  0  0  0  0
    0.7145    1.2375    0.0000 C   0  0  0  0  0  0  0  0  0  0  0  0
    1.4289    0.8250    0.0000 C   0  0  0  0  0  0  0  0  0  0  0  0
    1.4289   -0.0000    0.0000 C   0  0  0  0  0  0  0  0  0  0  0  0
    0.7145   -0.4125    0.0000 C   0  0  0  0  0  0  0  0  0  0  0  0
    0.7145   -1.2375    0.0000 O   0  0  0  0  0  0  0  0  0  0  0  0
    0.0000    0.0000    0.0000 C   0  0  0  0  0  0  0  0  0  0  0  0
    0.0000    0.8250    0.0000 C   0  0  0  0  0  0  0  0  0  0  0  0
  1  2  1  0
  2  3  1  0
  2  6  1  0
  3  4  2  0
  3  5  1  0
  6  7  2  0
  6 12  1  0
  7  8  1  0
  8  9  2  0
  9 10  1  0
  9 11  1  0
 11 12  2  0
M  END
>  <DRUGBANK_ID>  (1) 
DB02601

>  <SECONDARY_ACCESSION_NUMBERS>  (1) 
EXPT01591

>  <COMMON_NAME>  (1) 
4-Hydroxyphenylglycine

>  <CAS_NUMBER>  (1) 
37784-25-1

>  <UNII>  (1) 
7UYG7X0F53

>  <SYNONYMS>  (1) 
(+/-)-alpha-amino-4-hydroxybenzeneacetic acid; (RS)-2-(4-hydroxyphenyl)glycine; dl-p-hydroxyphenylglycine; p-hydroxyphenylglycine

$$$$
