
     RDKit          2D

  6  3  0  0  0  0  0  0  0  0999 V2000
    0.0160    0.7145    0.0000 O   0  0  0  0  0  0  0  0  0  0  0  0
    0.0160   -0.7145    0.0000 O   0  0  0  0  0  0  0  0  0  0  0  0
   -0.3964    0.0000    0.0000 C   0  0  0  0  0  0  0  0  0  0  0  0
   -1.2214    0.0000    0.0000 O   0  0  0  0  0  0  0  0  0  0  0  0
    1.2214    0.7145    0.0000 K   0  0  0  0  0 15  0  0  0  0  0  0
    1.2214   -0.7145    0.0000 K   0  0  0  0  0 15  0  0  0  0  0  0
  3  1  1  0
  3  2  1  0
  3  4  2  0
M  CHG  4   1  -1   2  -1   5   1   6   1
M  END
>  <DRUGBANK_ID>  (1) 
DB13977

>  <COMMON_NAME>  (1) 
Potassium carbonate

>  <CAS_NUMBER>  (1) 
584-08-7

>  <UNII>  (1) 
BQN1B9B9HA

>  <SYNONYMS>  (1) 
Carbonate of potash; Carbonic acid, dipotassium salt; Dipotassium carbonate; Kaliumcarbonat; Potash, sulfurated; Potassium carbonate; Potassium carbonate, anhydrous

$$$$
