
     RDKit          2D

 30 32  0  0  0  0  0  0  0  0999 V2000
    0.5998    0.1750    0.0000 C   0  0  0  0  0  0  0  0  0  0  0  0
    0.7713   -0.6319    0.0000 C   0  0  0  0  0  0  0  0  0  0  0  0
    0.1582   -1.1839    0.0000 C   0  0  0  0  0  0  0  0  0  0  0  0
   -0.6263   -0.9290    0.0000 C   0  0  0  0  0  0  0  0  0  0  0  0
    1.7274   -1.6938    0.0000 C   0  0  0  0  0  0  0  0  0  0  0  0
   -0.5203    1.1836    0.0000 C   0  0  0  0  0  0  0  0  0  0  0  0
   -1.3408    1.0973    0.0000 C   0  0  0  0  0  0  0  0  0  0  0  0
   -2.2660   -0.0451    0.0000 C   0  0  0  0  0  0  0  0  0  0  0  0
   -0.7979   -0.1220    0.0000 C   0  0  0  0  0  0  0  0  0  0  0  0
   -0.1848    0.4299    0.0000 C   0  0  0  0  0  0  0  0  0  0  0  0
   -2.3522   -0.8656    0.0000 C   0  0  0  0  0  0  0  0  0  0  0  0
   -1.6848   -1.3505    0.0000 C   0  0  0  0  0  0  0  0  0  0  0  0
   -1.7710   -2.1710    0.0000 C   0  0  0  0  0  0  0  0  0  0  0  0
   -2.5247   -2.5065    0.0000 C   0  0  0  0  0  0  0  0  0  0  0  0
   -3.1922   -2.0216    0.0000 C   0  0  0  0  0  0  0  0  0  0  0  0
   -3.1059   -1.2011    0.0000 C   0  0  0  0  0  0  0  0  0  0  0  0
   -1.8928    1.7104    0.0000 C   0  0  0  0  0  0  0  0  0  0  0  0
   -0.1078    1.8981    0.0000 C   0  0  0  0  0  0  0  0  0  0  0  0
    0.7171    1.8981    0.0000 C   0  0  0  0  0  0  0  0  0  0  0  0
   -1.5123    0.2904    0.0000 N   0  0  0  0  0  0  0  0  0  0  0  0
    1.5559   -0.8868    0.0000 O   0  0  0  0  0  0  0  0  0  0  0  0
   -2.9334    0.4397    0.0000 O   0  0  0  0  0  0  0  0  0  0  0  0
    1.1297    1.1836    0.0000 O   0  0  0  0  0  0  0  0  0  0  0  0
    3.1921    3.3270    0.0000 O   0  0  0  0  0  0  0  0  0  0  0  0
   -2.6109   -3.3270    0.0000 Cl  0  0  0  0  0  0  0  0  0  0  0  0
    1.1297    2.6125    0.0000 N   0  0  0  0  0  0  0  0  0  0  0  0
    1.9546    2.6125    0.0000 C   0  0  0  0  0  0  0  0  0  0  0  0
    2.3672    3.3270    0.0000 C   0  0  0  0  0  0  0  0  0  0  0  0
    2.3672    1.8981    0.0000 C   0  0  0  0  0  0  0  0  0  0  0  0
    1.9546    1.1836    0.0000 C   0  0  0  0  0  0  0  0  0  0  0  0
  1  2  2  0
  2  3  1  0
  2 21  1  0
  3  4  2  0
  5 21  1  0
  6  7  2  0
  7 20  1  0
  8 20  1  0
  8 22  2  0
  9  4  1  0
  9 10  2  0
  9 20  1  0
 10  1  1  0
 10  6  1  0
 11  8  1  0
 11 12  2  0
 11 16  1  0
 12 13  1  0
 13 14  2  0
 14 15  1  0
 14 25  1  0
 15 16  2  0
 17  7  1  0
 18  6  1  0
 18 19  1  0
 19 23  2  0
 19 26  1  0
 27 26  1  0
 27 28  1  1
 27 29  1  0
 28 24  1  0
 29 30  1  0
M  END
>  <DRUGBANK_ID>  (1) 
DB07981

>  <COMMON_NAME>  (1) 
2-[1-(4-chlorobenzoyl)-5-methoxy-2-methyl-1H-indol-3-yl]-n-[(1R)-1-(hydroxymethyl)propyl]acetamide

$$$$
