OX5
     RDKit          2D

 17 17  0  0  0  0  0  0  0  0999 V2000
   -4.9624    3.8841    0.0000 O   0  0  0  0  0  0  0  0  0  0  0  0
   -4.2479    3.4716    0.0000 C   0  0  0  0  0  0  0  0  0  0  0  0
   -3.5334    3.8841    0.0000 C   0  0  0  0  0  0  0  0  0  0  0  0
   -2.8189    3.4716    0.0000 C   0  0  0  0  0  0  0  0  0  0  0  0
   -2.8189    2.6466    0.0000 C   0  0  0  0  0  0  0  0  0  0  0  0
   -3.5334    2.2341    0.0000 C   0  0  0  0  0  0  0  0  0  0  0  0
   -4.2479    2.6466    0.0000 C   0  0  0  0  0  0  0  0  0  0  0  0
   -2.1045    2.2341    0.0000 C   0  0  0  0  0  0  0  0  0  0  0  0
   -2.1045    1.4091    0.0000 N   0  0  0  0  0  0  0  0  0  0  0  0
   -1.3900    0.9966    0.0000 O   0  0  0  0  0  0  0  0  0  0  0  0
   -0.6755    1.4091    0.0000 C   0  0  0  0  0  0  0  0  0  0  0  0
    0.0389    0.9966    0.0000 C   0  0  0  0  0  0  0  0  0  0  0  0
    1.4679    1.8216    0.0000 C   0  0  0  0  0  0  0  0  0  0  0  0
    1.1659    0.6946    0.0000 C   0  0  0  0  0  0  0  0  0  0  0  0
    0.7534    1.4091    0.0000 C   0  0  0  0  0  0  0  0  0  0  0  0
    0.3409    2.1236    0.0000 C   0  0  0  0  0  0  0  0  0  0  0  0
   -0.6755    2.2341    0.0000 O   0  0  0  0  0  0  0  0  0  0  0  0
  1  2  1  0
  2  3  2  0
  2  7  1  0
  3  4  1  0
  4  5  2  0
  5  8  1  0
  5  6  1  0
  6  7  2  0
  8  9  2  0
  9 10  1  0
 10 11  1  0
 11 17  2  0
 11 12  1  0
 12 15  1  0
 13 15  1  0
 14 15  1  0
 15 16  1  0
M  END
>  <DRUGBANK_ID>  (1) 
DB08335

>  <COMMON_NAME>  (1) 
4-HYDROXYBENZALDEHYDE O-(3,3-DIMETHYLBUTANOYL)OXIME

$$$$
