
     RDKit          2D

 37 39  0  0  1  0  0  0  0  0999 V2000
   -0.9435   -2.5375    0.0000 C   0  0  0  0  0  0  0  0  0  0  0  0
   -0.1264   -2.6509    0.0000 C   0  0  0  0  0  0  0  0  0  0  0  0
    0.4457   -2.0564    0.0000 N   0  0  0  0  0  0  0  0  0  0  0  0
    1.1878   -2.4167    0.0000 C   0  0  0  0  0  0  0  0  0  0  0  0
    1.0745   -3.2339    0.0000 C   0  0  0  0  0  0  0  0  0  0  0  0
    0.2622   -3.3786    0.0000 S   0  0  0  0  0  0  0  0  0  0  0  0
    1.6689   -3.8059    0.0000 C   0  0  0  0  0  0  0  0  0  0  0  0
    1.4708   -4.6068    0.0000 O   0  0  0  0  0  0  0  0  0  0  0  0
    2.4616   -3.5771    0.0000 N   0  0  0  0  0  0  0  0  0  0  0  0
    3.0560   -4.1492    0.0000 C   0  0  0  0  0  0  0  0  0  0  0  0
    2.8579   -4.9500    0.0000 C   0  0  0  0  0  0  0  0  0  0  0  0
    3.4524   -5.5220    0.0000 O   0  0  0  0  0  0  0  0  0  0  0  0
    3.2542   -6.3229    0.0000 C   0  0  0  0  0  0  0  0  0  0  0  0
    3.8487   -3.9203    0.0000 C   0  0  0  0  0  0  0  0  0  0  0  0
    4.0468   -3.1195    0.0000 O   0  0  0  0  0  0  0  0  0  0  0  0
    4.4432   -4.4924    0.0000 N   0  0  0  0  0  0  0  0  0  0  0  0
    5.2358   -4.2636    0.0000 C   0  0  0  0  0  0  0  0  0  0  0  0
    5.4339   -3.4627    0.0000 C   0  0  0  0  0  0  0  0  0  0  0  0
    4.8395   -2.8907    0.0000 O   0  0  0  0  0  0  0  0  0  0  0  0
    5.0376   -2.0898    0.0000 C   0  0  0  0  0  0  0  0  0  0  0  0
    5.8303   -4.8356    0.0000 C   0  0  0  0  0  0  0  0  0  0  0  0
    5.6321   -5.6364    0.0000 O   0  0  0  0  0  0  0  0  0  0  0  0
    6.6229   -4.6068    0.0000 N   0  0  0  0  0  0  0  0  0  0  0  0
    7.2174   -5.1788    0.0000 C   0  0  0  0  0  0  0  0  0  0  0  0
    7.0192   -5.9797    0.0000 C   0  0  0  0  0  0  0  0  0  0  0  0
    7.6137   -6.5517    0.0000 C   0  0  0  0  0  0  0  0  0  0  0  0
    8.4063   -6.3229    0.0000 C   0  0  0  0  0  0  0  0  0  0  0  0
    9.0008   -6.8949    0.0000 C   0  0  0  0  0  0  0  0  0  0  0  0
    8.8026   -7.6958    0.0000 C   0  0  0  0  0  0  0  0  0  0  0  0
    8.0100   -7.9246    0.0000 C   0  0  0  0  0  0  0  0  0  0  0  0
    7.4155   -7.3525    0.0000 C   0  0  0  0  0  0  0  0  0  0  0  0
    8.0100   -4.9500    0.0000 C   0  0  0  0  0  0  0  0  0  0  0  0
    8.6045   -5.5220    0.0000 O   0  0  0  0  0  0  0  0  0  0  0  0
    8.2082   -4.1492    0.0000 C   0  0  0  0  0  0  0  0  0  0  0  0
    8.6683   -3.4644    0.0000 C   0  0  0  0  0  0  0  0  0  0  0  0
    9.0313   -4.2052    0.0000 O   0  0  0  0  0  0  0  0  0  0  0  0
    7.4539   -3.8149    0.0000 C   0  0  0  0  0  0  0  0  0  0  0  0
  1  2  1  0
  2  3  2  0
  2  6  1  0
  3  4  1  0
  4  5  2  0
  5  6  1  0
  5  7  1  0
  7  8  2  0
  7  9  1  0
 10  9  1  0
 10 11  1  6
 10 14  1  0
 11 12  1  0
 12 13  1  0
 14 15  2  0
 14 16  1  0
 17 16  1  0
 17 18  1  1
 17 21  1  0
 18 19  1  0
 19 20  1  0
 21 22  2  0
 21 23  1  0
 24 23  1  0
 24 25  1  6
 24 32  1  0
 25 26  1  0
 26 27  2  0
 26 31  1  0
 27 28  1  0
 28 29  2  0
 29 30  1  0
 30 31  2  0
 32 33  2  0
 34 32  1  0
 34 35  1  0
 34 36  1  0
 34 37  1  6
 35 36  1  0
M  END
>  <DRUGBANK_ID>  (1) 
DB11991

>  <COMMON_NAME>  (1) 
Oprozomib

>  <CAS_NUMBER>  (1) 
935888-69-0

>  <UNII>  (1) 
MZ37792Y8J

>  <SYNONYMS>  (1) 
Oprozomib

$$$$
