1581
     RDKit          2D

 18 19  0  0  0  0  0  0  0  0999 V2000
    2.4751    0.1279    0.0000 S   0  0  0  0  0  0  0  0  0  0  0  0
    1.6500    0.1279    0.0000 O   0  0  0  0  0  0  0  0  0  0  0  0
    3.3001    0.1279    0.0000 O   0  0  0  0  0  0  0  0  0  0  0  0
    2.4751    0.9529    0.0000 N   0  0  0  0  0  0  0  0  0  0  0  0
    3.1895    2.1904    0.0000 N   0  0  0  0  0  0  0  0  0  0  0  0
    3.9041    0.9529    0.0000 N   0  0  0  0  0  0  0  0  0  0  0  0
    2.4751   -3.1722    0.0000 N   0  0  0  0  0  0  0  0  0  0  0  0
    2.4751   -0.6971    0.0000 C   0  0  0  0  0  0  0  0  0  0  0  0
    1.7606   -1.1096    0.0000 C   0  0  0  0  0  0  0  0  0  0  0  0
    3.1895   -1.1096    0.0000 C   0  0  0  0  0  0  0  0  0  0  0  0
    2.4751   -2.3472    0.0000 C   0  0  0  0  0  0  0  0  0  0  0  0
    1.7606   -1.9347    0.0000 C   0  0  0  0  0  0  0  0  0  0  0  0
    3.1895   -1.9347    0.0000 C   0  0  0  0  0  0  0  0  0  0  0  0
    3.1895    1.3654    0.0000 C   0  0  0  0  0  0  0  0  0  0  0  0
    3.9041    2.6029    0.0000 C   0  0  0  0  0  0  0  0  0  0  0  0
    4.6185    2.1904    0.0000 C   0  0  0  0  0  0  0  0  0  0  0  0
    4.6185    1.3654    0.0000 C   0  0  0  0  0  0  0  0  0  0  0  0
    3.9041    3.4280    0.0000 C   0  0  0  0  0  0  0  0  0  0  0  0
  1  2  2  0
  1  3  2  0
  1  4  1  0
  1  8  1  0
  4 14  1  0
  5 14  2  0
  5 15  1  0
  6 14  1  0
  6 17  2  0
  7 11  1  0
  8  9  2  0
  8 10  1  0
  9 12  1  0
 10 13  2  0
 11 12  2  0
 11 13  1  0
 15 16  2  0
 15 18  1  0
 16 17  1  0
M  END
>  <DRUGBANK_ID>  (1) 
DB01581

>  <COMMON_NAME>  (1) 
Sulfamerazine

>  <CAS_NUMBER>  (1) 
127-79-7

>  <UNII>  (1) 
UR1SAB295F

>  <SYNONYMS>  (1) 
(p-Aminobenzolsulfonyl)-2-amino-4-methylpyrimidin; 2-(4-Aminobenzenesulfonamido)-4-methylpyrimidine; 2-(p-Aminobenzolsulfonamido)-4-methylpyrimidine; 2-(Sulfanilamido)-4-methylpyrimidine; 2-Sulfa-4-methylpyrimidine; 4-Amino-N-(4-methyl-2-pyrimidinyl)-benzenesulfonamide; N-(4-Methyl-2-pyrimidyl)sulfanilamide; N(1)-(4-Methyl-2-pyrimidinyl)sulfanilamide; Sulfamerazina; Sulfamerazine; Sulfamerazinum; Sulfamethyldiazine; Sulphamerazine

$$$$
