4822
     RDKit          2D

 21 24  0  0  0  0  0  0  0  0999 V2000
    3.8493   -2.4606    0.0000 S   0  0  0  0  0  0  0  0  0  0  0  0
    3.8493    1.6642    0.0000 N   0  0  0  0  0  0  0  0  0  0  0  0
    3.8493    0.0142    0.0000 C   0  0  0  0  0  0  0  0  0  0  0  0
    3.1348    0.4267    0.0000 C   0  0  0  0  0  0  0  0  0  0  0  0
    4.5638    0.4267    0.0000 C   0  0  0  0  0  0  0  0  0  0  0  0
    3.1348    1.2517    0.0000 C   0  0  0  0  0  0  0  0  0  0  0  0
    4.5638    1.2517    0.0000 C   0  0  0  0  0  0  0  0  0  0  0  0
    3.8493   -0.8107    0.0000 C   0  0  0  0  0  0  0  0  0  0  0  0
    4.5638   -1.2231    0.0000 C   0  0  0  0  0  0  0  0  0  0  0  0
    3.1348   -1.2231    0.0000 C   0  0  0  0  0  0  0  0  0  0  0  0
    3.8493    2.4891    0.0000 C   0  0  0  0  0  0  0  0  0  0  0  0
    4.5638   -2.0481    0.0000 C   0  0  0  0  0  0  0  0  0  0  0  0
    3.1348   -2.0481    0.0000 C   0  0  0  0  0  0  0  0  0  0  0  0
    5.3012   -0.7820    0.0000 C   0  0  0  0  0  0  0  0  0  0  0  0
    2.3974   -0.7820    0.0000 C   0  0  0  0  0  0  0  0  0  0  0  0
    5.3012   -2.4891    0.0000 C   0  0  0  0  0  0  0  0  0  0  0  0
    2.3974   -2.4891    0.0000 C   0  0  0  0  0  0  0  0  0  0  0  0
    1.6499   -1.2060    0.0000 C   0  0  0  0  0  0  0  0  0  0  0  0
    6.0487   -1.2060    0.0000 C   0  0  0  0  0  0  0  0  0  0  0  0
    6.0487   -2.0653    0.0000 C   0  0  0  0  0  0  0  0  0  0  0  0
    1.6499   -2.0653    0.0000 C   0  0  0  0  0  0  0  0  0  0  0  0
  1 12  1  0
  1 13  1  0
  2  6  1  0
  2  7  1  0
  2 11  1  0
  3  4  1  0
  3  5  1  0
  3  8  2  3
  4  6  1  0
  5  7  1  0
  8  9  1  0
  8 10  1  0
  9 12  2  0
  9 14  1  0
 10 13  2  0
 10 15  1  0
 12 16  1  0
 13 17  1  0
 14 19  2  0
 15 18  2  0
 16 20  2  0
 17 21  2  0
 18 21  1  0
 19 20  1  0
M  END
>  <DRUGBANK_ID>  (1) 
DB13292

>  <COMMON_NAME>  (1) 
Pimethixene

>  <CAS_NUMBER>  (1) 
314-03-4

>  <UNII>  (1) 
T46J20J26F

>  <SYNONYMS>  (1) 
Pimethixene

$$$$
