
     RDKit          2D

 14 14  0  0  0  0  0  0  0  0999 V2000
    0.3405    0.1113    0.0000 C   0  0  0  0  0  0  0  0  0  0  0  0
    0.6022   -0.6776    0.0000 C   0  0  0  0  0  0  0  0  0  0  0  0
    1.0080    0.5929    0.0000 O   0  0  0  0  0  0  0  0  0  0  0  0
    1.4405   -0.6776    0.0000 C   0  0  0  0  0  0  0  0  0  0  0  0
    0.1281   -1.3489    0.0000 O   0  0  0  0  0  0  0  0  0  0  0  0
    1.6907    0.0998    0.0000 C   0  0  0  0  0  0  0  0  0  0  0  0
    1.9298   -1.3376    0.0000 O   0  0  0  0  0  0  0  0  0  0  0  0
    2.5173    0.3914    0.0000 O   0  0  0  0  0  0  0  0  0  0  0  0
   -0.3738    0.5238    0.0000 C   0  0  0  0  0  0  0  0  0  0  0  0
   -1.0883    0.1113    0.0000 O   0  0  0  0  0  0  0  0  0  0  0  0
   -1.8029    0.5238    0.0000 P   0  0  0  0  0  0  0  0  0  0  0  0
   -2.5173    0.1113    0.0000 O   0  0  0  0  0  0  0  0  0  0  0  0
   -1.8029    1.3489    0.0000 O   0  0  0  0  0  0  0  0  0  0  0  0
   -2.0164   -0.2730    0.0000 O   0  0  0  0  0  0  0  0  0  0  0  0
  1  2  1  0
  1  3  1  0
  1  9  1  1
  2  4  1  0
  2  5  1  6
  3  6  1  0
  4  7  1  6
  4  6  1  0
  6  8  1  1
  9 10  1  0
 10 11  1  0
 11 12  1  0
 11 13  2  0
 11 14  1  0
M  END
>  <DRUGBANK_ID>  (1) 
DB04352

>  <SECONDARY_ACCESSION_NUMBERS>  (1) 
EXPT02809

>  <COMMON_NAME>  (1) 
beta-D-Ribose-5-phosphate

>  <CAS_NUMBER>  (1) 
34980-66-0

>  <UNII>  (1) 
BVJ0IQF3T8

>  <SYNONYMS>  (1) 
5-O-phosphono-beta-D-ribofuranose; 5-O-phosphono-β-D-ribofuranose; β-D-ribofuranose 5-phosphate

$$$$
