
     RDKit          2D

  8  8  0  0  0  0  0  0  0  0999 V2000
   -0.8352   -0.4266    0.0000 C   0  0  0  0  0  0  0  0  0  0  0  0
   -0.0102   -0.4266    0.0000 C   0  0  0  0  0  0  0  0  0  0  0  0
   -0.4227    0.2878    0.0000 O   0  0  0  0  0  0  0  0  0  0  0  0
   -1.4186    0.1567    0.0000 C   0  0  0  0  0  0  0  0  0  0  0  0
    0.7041   -0.0140    0.0000 P   0  0  0  0  0  0  0  0  0  0  0  0
    0.7041    0.8109    0.0000 O   0  0  0  0  0  0  0  0  0  0  0  0
    0.9176   -0.8109    0.0000 O   0  0  0  0  0  0  0  0  0  0  0  0
    1.4186   -0.4266    0.0000 O   0  0  0  0  0  0  0  0  0  0  0  0
  1  2  1  0
  1  3  1  0
  1  4  1  6
  2  3  1  0
  2  5  1  6
  5  6  2  0
  5  7  1  0
  5  8  1  0
M  END
>  <DRUGBANK_ID>  (1) 
DB00828

>  <SECONDARY_ACCESSION_NUMBERS>  (1) 
APRD00987

>  <COMMON_NAME>  (1) 
Fosfomycin

>  <CAS_NUMBER>  (1) 
23155-02-4

>  <UNII>  (1) 
2N81MY12TE

>  <SYNONYMS>  (1) 
(-)-(1R,2S)-(1,2-Epoxypropyl)phosphonic acid; (1R,2S)-epoxypropylphosphonic acid; (2R-cis)-(3-Methyloxiranyl)phosphonic acid; 1R-cis-(1,2-epoxypropyl)phosphonic acid; cis-(1R,2S)-epoxypropylphosphonic acid; FCM; Fosfocina; Fosfomicina; Fosfomycin; Fosfomycine; Fosfomycinum; L-cis-1,2-epoxypropylphosphonic acid; Phosphomycin; Phosphonemycin; Phosphonomycin

$$$$
