
     RDKit          2D

 39 44  0  0  1  0  0  0  0  0999 V2000
    7.6221    1.9904    0.0000 C   0  0  0  0  0  0  0  0  0  0  0  0
    7.3671    2.7750    0.0000 C   0  0  0  0  0  0  0  0  0  0  0  0
    7.9192    3.3881    0.0000 C   0  0  0  0  0  0  0  0  0  0  0  0
    8.7262    3.2166    0.0000 N   0  0  0  0  0  0  0  0  0  0  0  0
    9.2782    3.8296    0.0000 C   0  0  0  0  0  0  0  0  0  0  0  0
   10.0852    3.6581    0.0000 C   0  0  0  0  0  0  0  0  0  0  0  0
   10.3401    2.8735    0.0000 O   0  0  0  0  0  0  0  0  0  0  0  0
    9.7881    2.2604    0.0000 C   0  0  0  0  0  0  0  0  0  0  0  0
    8.9811    2.4319    0.0000 C   0  0  0  0  0  0  0  0  0  0  0  0
    6.5602    2.9465    0.0000 N   0  0  0  0  0  0  0  0  0  0  0  0
    6.2246    3.7002    0.0000 C   0  0  0  0  0  0  0  0  0  0  0  0
    6.6371    4.4147    0.0000 N   0  0  0  0  0  0  0  0  0  0  0  0
    6.2246    5.1291    0.0000 C   0  0  0  0  0  0  0  0  0  0  0  0
    5.3996    5.1291    0.0000 N   0  0  0  0  0  0  0  0  0  0  0  0
    6.6371    5.8436    0.0000 O   0  0  0  0  0  0  0  0  0  0  0  0
    5.4041    3.6140    0.0000 N   0  0  0  0  0  0  0  0  0  0  0  0
    5.2326    2.8070    0.0000 C   0  0  0  0  0  0  0  0  0  0  0  0
    5.9471    2.3945    0.0000 C   0  0  0  0  0  0  0  0  0  0  0  0
    5.9471    1.5695    0.0000 C   0  0  0  0  0  0  0  0  0  0  0  0
    5.2326    1.1570    0.0000 C   0  0  0  0  0  0  0  0  0  0  0  0
    4.5181    1.5695    0.0000 C   0  0  0  0  0  0  0  0  0  0  0  0
    3.8037    1.1570    0.0000 C   0  0  0  0  0  0  0  0  0  0  0  0
    3.8037    0.3320    0.0000 C   0  0  0  0  0  0  0  0  0  0  0  0
    4.5470   -0.0260    0.0000 C   0  0  0  0  0  0  0  0  0  0  0  0
    5.1517    0.5352    0.0000 C   0  0  0  0  0  0  0  0  0  0  0  0
    5.9401    0.2920    0.0000 C   0  0  0  0  0  0  0  0  0  0  0  0
    6.1237   -0.5123    0.0000 C   0  0  0  0  0  0  0  0  0  0  0  0
    5.5189   -1.0735    0.0000 C   0  0  0  0  0  0  0  0  0  0  0  0
    4.7305   -0.8303    0.0000 C   0  0  0  0  0  0  0  0  0  0  0  0
    4.2162   -1.4753    0.0000 C   0  0  0  0  0  0  0  0  0  0  0  0
    3.3912   -1.4753    0.0000 O   0  0  0  0  0  0  0  0  0  0  0  0
    2.8768   -0.8303    0.0000 C   0  0  0  0  0  0  0  0  0  0  0  0
    2.0884   -1.0735    0.0000 C   0  0  0  0  0  0  0  0  0  0  0  0
    1.4837   -0.5123    0.0000 C   0  0  0  0  0  0  0  0  0  0  0  0
    0.6953   -0.7555    0.0000 F   0  0  0  0  0  0  0  0  0  0  0  0
    1.6673    0.2920    0.0000 C   0  0  0  0  0  0  0  0  0  0  0  0
    2.4556    0.5352    0.0000 C   0  0  0  0  0  0  0  0  0  0  0  0
    3.0604   -0.0260    0.0000 C   0  0  0  0  0  0  0  0  0  0  0  0
    4.5181    2.3945    0.0000 C   0  0  0  0  0  0  0  0  0  0  0  0
  2  1  1  1
  2  3  1  0
  2 10  1  0
  3  4  1  0
  4  5  1  0
  4  9  1  0
  5  6  1  0
  6  7  1  0
  7  8  1  0
  8  9  1  0
 10 11  1  0
 10 18  1  0
 11 12  1  0
 11 16  2  0
 12 13  1  0
 13 14  1  0
 13 15  2  0
 16 17  1  0
 17 18  2  0
 17 39  1  0
 18 19  1  0
 19 20  2  0
 20 21  1  0
 21 22  1  0
 21 39  2  0
 22 23  2  0
 23 24  1  0
 23 38  1  0
 24 25  2  0
 24 29  1  0
 25 26  1  0
 26 27  2  0
 27 28  1  0
 28 29  2  0
 29 30  1  0
 30 31  1  0
 31 32  1  0
 32 33  1  0
 32 38  2  0
 33 34  2  0
 34 35  1  0
 34 36  1  0
 36 37  2  0
 37 38  1  0
M  END
>  <DRUGBANK_ID>  (1) 
DB15367

>  <COMMON_NAME>  (1) 
LY-2623091

>  <CAS_NUMBER>  (1) 
1162264-07-4

>  <UNII>  (1) 
6FHZ595FNM

$$$$
