D31
     RDKit          2D

 31 35  0  0  0  0  0  0  0  0999 V2000
    4.7315    2.0518    0.0000 N   0  0  0  0  0  0  0  0  0  0  0  0
    4.4920    1.2623    0.0000 C   0  0  0  0  0  0  0  0  0  0  0  0
    3.6886    1.0749    0.0000 C   0  0  0  0  0  0  0  0  0  0  0  0
    3.4492    0.2854    0.0000 C   0  0  0  0  0  0  0  0  0  0  0  0
    2.6458    0.0980    0.0000 C   0  0  0  0  0  0  0  0  0  0  0  0
    2.0817    0.7001    0.0000 N   0  0  0  0  0  0  0  0  0  0  0  0
    2.3212    1.4896    0.0000 C   0  0  0  0  0  0  0  0  0  0  0  0
    3.1246    1.6770    0.0000 C   0  0  0  0  0  0  0  0  0  0  0  0
    1.2783    0.5127    0.0000 C   0  0  0  0  0  0  0  0  0  0  0  0
    1.0389   -0.2768    0.0000 C   0  0  0  0  0  0  0  0  0  0  0  0
    0.2355   -0.4642    0.0000 N   0  0  0  0  0  0  0  0  0  0  0  0
   -0.0040   -1.2537    0.0000 C   0  0  0  0  0  0  0  0  0  0  0  0
    0.5600   -1.8558    0.0000 C   0  0  0  0  0  0  0  0  0  0  0  0
    0.3206   -2.6453    0.0000 C   0  0  0  0  0  0  0  0  0  0  0  0
   -0.4828   -2.8327    0.0000 C   0  0  0  0  0  0  0  0  0  0  0  0
   -1.0468   -2.2306    0.0000 C   0  0  0  0  0  0  0  0  0  0  0  0
   -0.8074   -1.4411    0.0000 C   0  0  0  0  0  0  0  0  0  0  0  0
   -1.8717   -2.2468    0.0000 C   0  0  0  0  0  0  0  0  0  0  0  0
   -2.1420   -1.4674    0.0000 C   0  0  0  0  0  0  0  0  0  0  0  0
   -1.4843   -0.9694    0.0000 C   0  0  0  0  0  0  0  0  0  0  0  0
   -3.2063   -2.2732    0.0000 N   0  0  0  0  0  0  0  0  0  0  0  0
   -2.9669   -1.4837    0.0000 C   0  0  0  0  0  0  0  0  0  0  0  0
   -3.4648   -0.8259    0.0000 C   0  0  0  0  0  0  0  0  0  0  0  0
   -4.2835   -0.9283    0.0000 C   0  0  0  0  0  0  0  0  0  0  0  0
   -4.7815   -0.2706    0.0000 C   0  0  0  0  0  0  0  0  0  0  0  0
   -4.4608    0.4896    0.0000 C   0  0  0  0  0  0  0  0  0  0  0  0
   -3.6422    0.5920    0.0000 C   0  0  0  0  0  0  0  0  0  0  0  0
   -3.1442   -0.0658    0.0000 C   0  0  0  0  0  0  0  0  0  0  0  0
    1.6029   -0.8789    0.0000 O   0  0  0  0  0  0  0  0  0  0  0  0
   -1.5005   -0.1446    0.0000 O   0  0  0  0  0  0  0  0  0  0  0  0
   -2.5294   -2.7448    0.0000 N   0  0  0  0  0  0  0  0  0  0  0  0
  1  2  1  0
  2  3  1  0
  3  4  1  0
  3  8  1  0
  4  5  1  0
  5  6  1  0
  6  7  1  0
  6  9  1  0
  7  8  1  0
  9 10  1  0
 10 11  1  0
 10 29  2  0
 11 12  1  0
 12 13  2  0
 12 17  1  0
 13 14  1  0
 14 15  2  0
 15 16  1  0
 16 17  2  0
 16 18  1  0
 17 20  1  0
 18 19  1  0
 18 31  2  0
 19 20  1  0
 19 22  2  0
 20 30  2  0
 21 22  1  0
 21 31  1  0
 22 23  1  0
 23 24  1  0
 23 28  1  0
 24 25  1  0
 25 26  1  0
 26 27  1  0
 27 28  1  0
M  END
>  <DRUGBANK_ID>  (1) 
DB07618

>  <COMMON_NAME>  (1) 
2-(4-(AMINOMETHYL)PIPERIDIN-1-YL)-N-(3_CYCLOHEXYL-4-OXO-2,4-DIHYDROINDENO[1,2-C]PYRAZOL-5-YL)ACETAMIDE

$$$$
