2368
     RDKit          2D

 13 13  0  0  0  0  0  0  0  0999 V2000
    3.0790    0.4125    0.0000 N   0  0  0  0  0  0  0  0  0  0  0  0
    3.7934    1.6500    0.0000 N   0  0  0  0  0  0  0  0  0  0  0  0
    2.3645    1.6500    0.0000 N   0  0  0  0  0  0  0  0  0  0  0  0
    2.3645    0.0000    0.0000 C   0  0  0  0  0  0  0  0  0  0  0  0
    2.3645   -0.8250    0.0000 C   0  0  0  0  0  0  0  0  0  0  0  0
    3.0790   -1.2375    0.0000 C   0  0  0  0  0  0  0  0  0  0  0  0
    1.6500   -1.2375    0.0000 C   0  0  0  0  0  0  0  0  0  0  0  0
    3.0790    1.2375    0.0000 C   0  0  0  0  0  0  0  0  0  0  0  0
    3.0790   -2.0625    0.0000 C   0  0  0  0  0  0  0  0  0  0  0  0
    1.6500   -2.0625    0.0000 C   0  0  0  0  0  0  0  0  0  0  0  0
    2.3645   -2.4750    0.0000 C   0  0  0  0  0  0  0  0  0  0  0  0
    3.7934    2.4750    0.0000 C   0  0  0  0  0  0  0  0  0  0  0  0
    2.3645    2.4750    0.0000 C   0  0  0  0  0  0  0  0  0  0  0  0
  1  4  1  0
  1  8  1  0
  2  8  1  0
  2 12  1  0
  3  8  2  0
  3 13  1  0
  4  5  1  0
  5  6  2  0
  5  7  1  0
  6  9  1  0
  7 10  2  0
  9 11  2  0
 10 11  1  0
M  END
>  <DRUGBANK_ID>  (1) 
DB00217

>  <SECONDARY_ACCESSION_NUMBERS>  (1) 
APRD00825

>  <COMMON_NAME>  (1) 
Bethanidine

>  <CAS_NUMBER>  (1) 
55-73-2

>  <UNII>  (1) 
W8S3YM7AUU

>  <SYNONYMS>  (1) 
Betanidina; Betanidine; BÃ©tanidine; Betanidinum; Bethanidine; N,N'-dimethyl-N''-(phenylmethyl)-guanidine

$$$$
