
     RDKit          2D

 37 40  0  0  1  0  0  0  0  0999 V2000
   -2.1190   -1.1952    0.0000 C   0  0  0  0  0  0  0  0  0  0  0  0
   -1.7065   -0.4807    0.0000 N   0  0  0  0  0  0  0  0  0  0  0  0
   -2.0420    0.2730    0.0000 N   0  0  0  0  0  0  0  0  0  0  0  0
   -1.4289    0.8250    0.0000 C   0  0  0  0  0  0  0  0  0  0  0  0
   -1.4289    1.6500    0.0000 C   0  0  0  0  0  0  0  0  0  0  0  0
   -0.7145    2.0625    0.0000 C   0  0  0  0  0  0  0  0  0  0  0  0
    0.0000    1.6500    0.0000 N   0  0  0  0  0  0  0  0  0  0  0  0
    0.0000    0.8250    0.0000 C   0  0  0  0  0  0  0  0  0  0  0  0
   -0.7145    0.4125    0.0000 C   0  0  0  0  0  0  0  0  0  0  0  0
   -0.0470   -0.0724    0.0000 C   0  0  0  0  0  0  0  0  0  0  0  0
    0.7066    0.2631    0.0000 C   0  0  0  0  0  0  0  0  0  0  0  0
    0.7929    1.0836    0.0000 C   0  0  0  0  0  0  0  0  0  0  0  0
    1.5164    1.3065    0.0000 C   0  0  0  0  0  0  0  0  0  0  0  0
    2.2140    0.9343    0.0000 C   0  0  0  0  0  0  0  0  0  0  0  0
    2.1278    0.1138    0.0000 C   0  0  0  0  0  0  0  0  0  0  0  0
    1.3741   -0.2218    0.0000 C   0  0  0  0  0  0  0  0  0  0  0  0
   -0.8860   -0.3945    0.0000 C   0  0  0  0  0  0  0  0  0  0  0  0
   -0.3340   -1.0076    0.0000 O   0  0  0  0  0  0  0  0  0  0  0  0
    0.7145    2.0625    0.0000 C   0  0  0  0  0  0  0  0  0  0  0  0
    0.7145    2.8875    0.0000 O   0  0  0  0  0  0  0  0  0  0  0  0
    1.4289    1.6500    0.0000 C   0  0  0  0  0  0  0  0  0  0  0  0
    2.1434    2.0625    0.0000 C   0  0  0  0  0  0  0  0  0  0  0  0
    2.8579    1.6500    0.0000 O   0  0  0  0  0  0  0  0  0  0  0  0
    3.5724    2.0625    0.0000 C   0  0  0  0  0  0  0  0  0  0  0  0
    4.2868    1.6500    0.0000 C   0  0  0  0  0  0  0  0  0  0  0  0
    5.0013    2.0625    0.0000 C   0  0  0  0  0  0  0  0  0  0  0  0
    5.7158    1.6500    0.0000 C   0  0  0  0  0  0  0  0  0  0  0  0
    5.7158    0.8250    0.0000 C   0  0  0  0  0  0  0  0  0  0  0  0
    5.0013    0.4125    0.0000 C   0  0  0  0  0  0  0  0  0  0  0  0
    4.2868    0.8250    0.0000 C   0  0  0  0  0  0  0  0  0  0  0  0
    1.4289    0.8250    0.0000 N   0  0  0  0  0  0  0  0  0  0  0  0
    2.1434    0.4125    0.0000 C   0  0  0  0  0  0  0  0  0  0  0  0
    2.1434   -0.4125    0.0000 O   0  0  0  0  0  0  0  0  0  0  0  0
    2.8579    0.8250    0.0000 C   0  0  0  0  0  0  0  0  0  0  0  0
    3.2704    0.1105    0.0000 C   0  0  0  0  0  0  0  0  0  0  0  0
    2.4454    1.5395    0.0000 C   0  0  0  0  0  0  0  0  0  0  0  0
    3.5724    1.2375    0.0000 N   0  0  0  0  0  0  0  0  0  0  0  0
  1  2  1  0
  2  3  1  0
  2 17  1  0
  3  4  2  0
  4  5  1  0
  5  6  1  0
  6  7  1  0
  7  8  1  0
  7 19  1  0
  9  8  1  0
  9  4  1  0
  9 10  1  6
  9 17  1  0
 10 11  1  0
 11 12  2  0
 11 16  1  0
 12 13  1  0
 13 14  2  0
 14 15  1  0
 15 16  2  0
 17 18  2  0
 19 20  2  0
 21 19  1  0
 21 22  1  1
 21 31  1  0
 22 23  1  0
 23 24  1  0
 24 25  1  0
 25 26  2  0
 25 30  1  0
 26 27  1  0
 27 28  2  0
 28 29  1  0
 29 30  2  0
 31 32  1  0
 32 33  2  0
 32 34  1  0
 34 35  1  0
 34 36  1  0
 34 37  1  0
M  END
>  <DRUGBANK_ID>  (1) 
DB15205

>  <COMMON_NAME>  (1) 
Capromorelin

>  <CAS_NUMBER>  (1) 
193273-66-4

>  <UNII>  (1) 
0MQ44VUN84

>  <SYNONYMS>  (1) 
Capromorelin; CP-424,391

$$$$
