
     RDKit          2D

 18 18  0  0  0  0  0  0  0  0999 V2000
   -0.7144   -0.8250    0.0000 C   0  0  0  0  0  0  0  0  0  0  0  0
    0.0000   -0.4125    0.0000 C   0  0  0  0  0  0  0  0  0  0  0  0
    0.0000    0.4125    0.0000 C   0  0  0  0  0  0  0  0  0  0  0  0
   -0.7144    0.8250    0.0000 C   0  0  0  0  0  0  0  0  0  0  0  0
   -1.4289    0.4125    0.0000 C   0  0  0  0  0  0  0  0  0  0  0  0
   -1.4289   -0.4125    0.0000 C   0  0  0  0  0  0  0  0  0  0  0  0
   -0.7144    1.6500    0.0000 O   0  0  0  0  0  0  0  0  0  0  0  0
   -0.7144   -1.6500    0.0000 O   0  0  0  0  0  0  0  0  0  0  0  0
   -2.1433   -1.6500    0.0000 C   0  0  0  0  0  0  0  0  0  0  0  0
    0.7145   -0.8250    0.0000 C   0  0  0  0  0  0  0  0  0  0  0  0
    0.7144    0.8250    0.0000 C   0  0  0  0  0  0  0  0  0  0  0  0
    1.4289    0.4125    0.0000 C   0  0  0  0  0  0  0  0  0  0  0  0
    2.1433    0.8250    0.0000 C   0  0  0  0  0  0  0  0  0  0  0  0
    2.8578    0.4125    0.0000 C   0  0  0  0  0  0  0  0  0  0  0  0
    2.1433    1.6500    0.0000 C   0  0  0  0  0  0  0  0  0  0  0  0
   -2.1433    0.8249    0.0000 O   0  0  0  0  0  0  0  0  0  0  0  0
   -2.1433   -0.8250    0.0000 O   0  0  0  0  0  0  0  0  0  0  0  0
   -2.8578    0.4124    0.0000 C   0  0  0  0  0  0  0  0  0  0  0  0
  1  2  1  0
  2  3  2  0
  4  3  1  0
  5  4  1  0
  6  1  1  0
  6  5  2  0
  7  4  2  0
  8  1  2  0
  9 17  1  0
 10  2  1  0
 11  3  1  0
 12 11  1  0
 13 12  2  3
 14 13  1  0
 15 13  1  0
 16  5  1  0
 16 18  1  0
 17  6  1  0
M  END
>  <DRUGBANK_ID>  (1) 
DB08689

>  <COMMON_NAME>  (1) 
Ubiquinone Q1

>  <CAS_NUMBER>  (1) 
727-81-1

>  <UNII>  (1) 
JR17826E4G

>  <SYNONYMS>  (1) 
Coenzyme Q1; Coenzyme Q5; CoQ1; Ubiquinone 5; Ubiquinone-1

$$$$
