DCN
     RDKit          2D

 16 17  0  0  0  0  0  0  0  0999 V2000
    0.8800    1.9558    0.0000 C   0  0  0  0  0  0  0  0  0  0  0  0
    1.5944    1.5433    0.0000 C   0  0  0  0  0  0  0  0  0  0  0  0
    0.1655    1.5433    0.0000 C   0  0  0  0  0  0  0  0  0  0  0  0
    0.1655    0.7183    0.0000 C   0  0  0  0  0  0  0  0  0  0  0  0
    0.8800    0.3058    0.0000 C   0  0  0  0  0  0  0  0  0  0  0  0
    1.5944    0.7183    0.0000 C   0  0  0  0  0  0  0  0  0  0  0  0
   -0.5490   -2.1692    0.0000 C   0  0  0  0  0  0  0  0  0  0  0  0
   -1.2635   -1.7567    0.0000 C   0  0  0  0  0  0  0  0  0  0  0  0
   -1.2635   -0.9317    0.0000 C   0  0  0  0  0  0  0  0  0  0  0  0
   -0.5490   -0.5192    0.0000 C   0  0  0  0  0  0  0  0  0  0  0  0
    0.1655   -1.7567    0.0000 C   0  0  0  0  0  0  0  0  0  0  0  0
    0.1655   -0.9317    0.0000 C   0  0  0  0  0  0  0  0  0  0  0  0
   -0.5490    0.3058    0.0000 O   0  0  0  0  0  0  0  0  0  0  0  0
    2.3089    1.9558    0.0000 Cl  0  0  0  0  0  0  0  0  0  0  0  0
   -0.5490   -2.9942    0.0000 Cl  0  0  0  0  0  0  0  0  0  0  0  0
   -0.5490    1.9558    0.0000 O   0  0  0  0  0  0  0  0  0  0  0  0
  1  2  2  0
  1  3  1  0
  2  6  1  0
  2 14  1  0
  3  4  2  0
  3 16  1  0
  4  5  1  0
  4 13  1  0
  5  6  2  0
  7  8  2  0
  7 11  1  0
  7 15  1  0
  8  9  1  0
  9 10  2  0
 10 12  1  0
 10 13  1  0
 11 12  2  0
M  END
>  <DRUGBANK_ID>  (1) 
DB04393

>  <SECONDARY_ACCESSION_NUMBERS>  (1) 
EXPT01135

>  <COMMON_NAME>  (1) 
Soneclosan

>  <CAS_NUMBER>  (1) 
3380-30-1

>  <UNII>  (1) 
814H7B74XK

>  <SYNONYMS>  (1) 
5-chloro-2-(p-chlorophenoxy)phenol; Hydroxydichlorodiphenyl ether; Soneclosan

$$$$
