1289
     RDKit          2D

 31 33  0  0  0  0  0  0  0  0999 V2000
    8.0632    0.4174    0.0000 S   0  0  0  0  0  0  0  0  0  0  0  0
    8.0632    2.0674    0.0000 O   0  0  0  0  0  0  0  0  0  0  0  0
    7.6507    1.1318    0.0000 O   0  0  0  0  0  0  0  0  0  0  0  0
    8.4757   -0.2971    0.0000 O   0  0  0  0  0  0  0  0  0  0  0  0
    5.2052   -3.7077    0.0000 O   0  0  0  0  0  0  0  0  0  0  0  0
    2.8830   -4.6997    0.0000 O   0  0  0  0  0  0  0  0  0  0  0  0
    9.4922    2.8924    0.0000 N   0  0  0  0  0  0  0  0  0  0  0  0
    9.4922    2.0674    0.0000 N   0  0  0  0  0  0  0  0  0  0  0  0
    8.7777    0.8299    0.0000 N   0  0  0  0  0  0  0  0  0  0  0  0
    4.4907   -2.4702    0.0000 N   0  0  0  0  0  0  0  0  0  0  0  0
    3.6901   -4.5282    0.0000 N   0  0  0  0  0  0  0  0  0  0  0  0
    9.9047    4.6997    0.0000 C   0  0  0  0  0  0  0  0  0  0  0  0
    9.0797    4.6997    0.0000 C   0  0  0  0  0  0  0  0  0  0  0  0
   10.4191    4.0547    0.0000 C   0  0  0  0  0  0  0  0  0  0  0  0
    8.5653    4.0547    0.0000 C   0  0  0  0  0  0  0  0  0  0  0  0
   10.2355    3.2504    0.0000 C   0  0  0  0  0  0  0  0  0  0  0  0
    8.7488    3.2504    0.0000 C   0  0  0  0  0  0  0  0  0  0  0  0
    8.7777    1.6549    0.0000 C   0  0  0  0  0  0  0  0  0  0  0  0
    7.3487    0.0049    0.0000 C   0  0  0  0  0  0  0  0  0  0  0  0
    5.9198   -0.8202    0.0000 C   0  0  0  0  0  0  0  0  0  0  0  0
    5.2052   -1.2327    0.0000 C   0  0  0  0  0  0  0  0  0  0  0  0
    6.6342    0.4174    0.0000 C   0  0  0  0  0  0  0  0  0  0  0  0
    7.3487   -0.8202    0.0000 C   0  0  0  0  0  0  0  0  0  0  0  0
    5.2052   -2.0577    0.0000 C   0  0  0  0  0  0  0  0  0  0  0  0
    5.9198    0.0049    0.0000 C   0  0  0  0  0  0  0  0  0  0  0  0
    6.6342   -1.2327    0.0000 C   0  0  0  0  0  0  0  0  0  0  0  0
    4.4907   -3.2952    0.0000 C   0  0  0  0  0  0  0  0  0  0  0  0
    3.7763   -3.7077    0.0000 C   0  0  0  0  0  0  0  0  0  0  0  0
    3.0226   -3.3722    0.0000 C   0  0  0  0  0  0  0  0  0  0  0  0
    2.4705   -3.9853    0.0000 C   0  0  0  0  0  0  0  0  0  0  0  0
    1.6500   -3.8990    0.0000 C   0  0  0  0  0  0  0  0  0  0  0  0
  1  3  2  0
  1  4  2  0
  1  9  1  0
  1 19  1  0
  2 18  2  0
  5 27  2  0
  6 11  1  0
  6 30  1  0
  7  8  1  0
  7 16  1  0
  7 17  1  0
  8 18  1  0
  9 18  1  0
 10 24  1  0
 10 27  1  0
 11 28  2  0
 12 13  1  0
 12 14  1  0
 13 15  1  0
 14 16  1  0
 15 17  1  0
 19 22  2  0
 19 23  1  0
 20 21  1  0
 20 25  2  0
 20 26  1  0
 21 24  1  0
 22 25  1  0
 23 26  2  0
 27 28  1  0
 28 29  1  0
 29 30  2  0
 30 31  1  0
M  END
>  <DRUGBANK_ID>  (1) 
DB01289

>  <COMMON_NAME>  (1) 
Glisoxepide

>  <CAS_NUMBER>  (1) 
25046-79-1

>  <UNII>  (1) 
H7SC0I332I

>  <SYNONYMS>  (1) 
Glisoxepide

$$$$
