Untitled Document-7
     RDKit          2D

 21 24  0  0  0  0  0  0  0  0999 V2000
   -2.0637   -0.3134    0.0000 C   0  0  0  0  0  0  0  0  0  0  0  0
   -2.0637   -1.1385    0.0000 C   0  0  0  0  0  0  0  0  0  0  0  0
   -1.3492   -1.5510    0.0000 C   0  0  0  0  0  0  0  0  0  0  0  0
   -0.6348   -1.1385    0.0000 C   0  0  0  0  0  0  0  0  0  0  0  0
   -0.6348   -0.3134    0.0000 C   0  0  0  0  0  0  0  0  0  0  0  0
   -1.3492    0.0990    0.0000 C   0  0  0  0  0  0  0  0  0  0  0  0
    0.0796   -1.5510    0.0000 C   0  0  0  0  0  0  0  0  0  0  0  0
    0.7942   -1.1385    0.0000 C   0  0  0  0  0  0  0  0  0  0  0  0
    0.7942   -0.3134    0.0000 C   0  0  0  0  0  0  0  0  0  0  0  0
    0.0796    0.0990    0.0000 C   0  0  0  0  0  0  0  0  0  0  0  0
    1.5086    0.0990    0.0000 C   0  0  0  0  0  0  0  0  0  0  0  0
    1.5086    0.9240    0.0000 C   0  0  0  0  0  0  0  0  0  0  0  0
    0.7942    1.3365    0.0000 C   0  0  0  0  0  0  0  0  0  0  0  0
    0.0796    0.9240    0.0000 C   0  0  0  0  0  0  0  0  0  0  0  0
    2.2933   -0.1560    0.0000 C   0  0  0  0  0  0  0  0  0  0  0  0
    2.7782    0.5115    0.0000 C   0  0  0  0  0  0  0  0  0  0  0  0
    2.2933    1.1789    0.0000 C   0  0  0  0  0  0  0  0  0  0  0  0
   -2.7782   -1.5510    0.0000 O   0  0  0  0  0  0  0  0  0  0  0  0
   -0.6348    0.5115    0.0000 C   0  0  0  0  0  0  0  0  0  0  0  0
    1.5949    1.7445    0.0000 C   0  0  0  0  0  0  0  0  0  0  0  0
    2.5482    1.9635    0.0000 O   0  0  0  0  0  0  0  0  0  0  0  0
  1  2  1  0
  2  3  1  0
  2 18  1  1
  4  3  1  1
  4  5  1  0
  4  7  1  0
  5  6  1  0
  5 19  1  1
  6  1  1  0
  7  8  1  0
  9  8  1  6
  9 10  1  0
  9 11  1  0
 10  5  1  0
 11 12  1  0
 11 15  1  1
 12 13  1  0
 12 20  1  1
 13 14  1  0
 10 14  1  1
 15 16  1  0
 16 17  1  0
 17 12  1  0
 17 21  1  1
M  END
>  <DRUGBANK_ID>  (1) 
DB03882

>  <SECONDARY_ACCESSION_NUMBERS>  (1) 
EXPT00530; DB01507

>  <COMMON_NAME>  (1) 
5-Alpha-Androstane-3-Beta,17beta-Diol

>  <CAS_NUMBER>  (1) 
571-20-0

>  <UNII>  (1) 
6J0K4253QD

$$$$
