
     RDKit          2D

 17 18  0  0  0  0  0  0  0  0999 V2000
   -0.7092    0.8242    0.0000 C   0  0  0  0  0  0  0  0  0  0  0  0
   -0.7092    0.0000    0.0000 C   0  0  0  0  0  0  0  0  0  0  0  0
   -1.4375    1.2459    0.0000 N   0  0  0  0  0  0  0  0  0  0  0  0
   -0.0191   -0.4217    0.0000 N   0  0  0  0  0  0  0  0  0  0  0  0
   -0.0191    1.2459    0.0000 N   0  0  0  0  0  0  0  0  0  0  0  0
   -2.1658    0.0000    0.0000 N   0  0  0  0  0  0  0  0  0  0  0  0
   -2.1658    0.8242    0.0000 C   0  0  0  0  0  0  0  0  0  0  0  0
   -1.4375   -0.4217    0.0000 C   0  0  0  0  0  0  0  0  0  0  0  0
    0.7091    0.0000    0.0000 C   0  0  0  0  0  0  0  0  0  0  0  0
    0.7091    0.8242    0.0000 C   0  0  0  0  0  0  0  0  0  0  0  0
   -1.4375   -1.2459    0.0000 O   0  0  0  0  0  0  0  0  0  0  0  0
   -2.8749    1.2459    0.0000 N   0  0  0  0  0  0  0  0  0  0  0  0
    1.4375   -0.4217    0.0000 C   0  0  0  0  0  0  0  0  0  0  0  0
    2.1466    0.0000    0.0000 C   0  0  0  0  0  0  0  0  0  0  0  0
    2.1466    0.8242    0.0000 C   0  0  0  0  0  0  0  0  0  0  0  0
    1.4375   -1.2459    0.0000 O   0  0  0  0  0  0  0  0  0  0  0  0
    2.8749   -0.4024    0.0000 O   0  0  0  0  0  0  0  0  0  0  0  0
  2  1  2  0
  3  1  1  0
  4  2  1  0
  5  1  1  0
  7  3  1  0
  7  6  2  0
  8  2  1  0
  8  6  1  0
  9  4  2  0
 10  5  1  0
 10  9  1  0
 11  8  2  0
 12  7  1  0
 13  9  1  0
 13 16  1  6
 14 13  1  0
 14 15  1  6
 14 17  1  0
M  END
>  <DRUGBANK_ID>  (1) 
DB04400

>  <SECONDARY_ACCESSION_NUMBERS>  (1) 
EXPT01697; DB03271; EXPT01698

>  <COMMON_NAME>  (1) 
L-erythro-7,8-dihydrobiopterin

>  <CAS_NUMBER>  (1) 
6779-87-9

>  <SYNONYMS>  (1) 
Dihydrobiopterin; L-erythro-q-Dihydrobiopterin; q-BH2; Quinonoid dihydrobiopterin

$$$$
