
     RDKit          2D

 22 21  0  0  0  0  0  0  0  0999 V2000
   -1.2344    0.1321    0.0000 C   0  0  0  0  0  0  0  0  0  0  0  0
   -0.4129    0.1321    0.0000 C   0  0  0  0  0  0  0  0  0  0  0  0
   -1.9488   -0.2808    0.0000 C   0  0  0  0  0  0  0  0  0  0  0  0
    0.3014   -0.2808    0.0000 C   0  0  0  0  0  0  0  0  0  0  0  0
   -2.6589    0.1321    0.0000 C   0  0  0  0  0  0  0  0  0  0  0  0
    1.0157    0.1321    0.0000 C   0  0  0  0  0  0  0  0  0  0  0  0
   -3.4846    0.1321    0.0000 C   0  0  0  0  0  0  0  0  0  0  0  0
    1.8373    0.1321    0.0000 C   0  0  0  0  0  0  0  0  0  0  0  0
   -4.1907   -0.2808    0.0000 C   0  0  0  0  0  0  0  0  0  0  0  0
    2.5515   -0.2808    0.0000 C   0  0  0  0  0  0  0  0  0  0  0  0
   -4.9091    0.1321    0.0000 C   0  0  0  0  0  0  0  0  0  0  0  0
    3.2617    0.1321    0.0000 C   0  0  0  0  0  0  0  0  0  0  0  0
   -5.6234   -0.2808    0.0000 C   0  0  0  0  0  0  0  0  0  0  0  0
    4.0874    0.1321    0.0000 C   0  0  0  0  0  0  0  0  0  0  0  0
   -6.3336    0.1321    0.0000 C   0  0  0  0  0  0  0  0  0  0  0  0
    4.8017   -0.2808    0.0000 C   0  0  0  0  0  0  0  0  0  0  0  0
   -7.0478   -0.2808    0.0000 O   0  0  0  0  0  0  0  0  0  0  0  0
   -6.3336    0.9538    0.0000 O   0  0  0  0  0  0  0  0  0  0  0  0
    5.5119    0.1321    0.0000 C   0  0  0  0  0  0  0  0  0  0  0  0
    6.2262   -0.2808    0.0000 C   0  0  0  0  0  0  0  0  0  0  0  0
    6.9363    0.1321    0.0000 C   0  0  0  0  0  0  0  0  0  0  0  0
    7.6506   -0.2808    0.0000 C   0  0  0  0  0  0  0  0  0  0  0  0
  1  2  2  0
  1  3  1  0
  2  4  1  0
  3  5  1  0
  4  6  1  0
  5  7  2  0
  6  8  2  0
  7  9  1  0
  8 10  1  0
  9 11  1  0
 10 12  1  0
 11 13  1  0
 12 14  2  0
 13 15  1  0
 14 16  1  0
 15 17  1  0
 15 18  2  0
 16 19  1  0
 19 20  1  0
 20 21  1  0
 21 22  1  0
M  END
>  <DRUGBANK_ID>  (1) 
DB04557

>  <SECONDARY_ACCESSION_NUMBERS>  (1) 
EXPT00409

>  <COMMON_NAME>  (1) 
Arachidonic Acid

>  <CAS_NUMBER>  (1) 
506-32-1

>  <UNII>  (1) 
27YG812J1I

$$$$
