
     RDKit          2D

 23 24  0  0  0  0  0  0  0  0999 V2000
    0.3572   -1.6500    0.0000 O   0  0  0  0  0  0  0  0  0  0  0  0
   -1.7862   -2.8875    0.0000 O   0  0  0  0  0  0  0  0  0  0  0  0
   -0.3572   -3.7125    0.0000 O   0  0  0  0  0  0  0  0  0  0  0  0
   -1.7862   -1.2375    0.0000 O   0  0  0  0  0  0  0  0  0  0  0  0
    1.7862   -2.4750    0.0000 O   0  0  0  0  0  0  0  0  0  0  0  0
    1.0716   -0.4125    0.0000 O   0  0  0  0  0  0  0  0  0  0  0  0
    1.7862    0.8250    0.0000 O   0  0  0  0  0  0  0  0  0  0  0  0
   -0.3572   -0.4125    0.0000 N   0  0  0  0  0  0  0  0  0  0  0  0
    0.3572    0.8250    0.0000 N   0  0  0  0  0  0  0  0  0  0  0  0
   -1.0716   -2.4750    0.0000 C   0  0  0  0  0  0  0  0  0  0  0  0
   -0.3572   -2.8875    0.0000 C   0  0  0  0  0  0  0  0  0  0  0  0
   -1.0716   -1.6500    0.0000 C   0  0  0  0  0  0  0  0  0  0  0  0
    0.3572   -2.4750    0.0000 C   0  0  0  0  0  0  0  0  0  0  0  0
   -0.3572   -1.2375    0.0000 C   0  0  0  0  0  0  0  0  0  0  0  0
    1.0716   -2.8875    0.0000 C   0  0  0  0  0  0  0  0  0  0  0  0
    0.3572    0.0000    0.0000 C   0  0  0  0  0  0  0  0  0  0  0  0
    1.0716    1.2375    0.0000 C   0  0  0  0  0  0  0  0  0  0  0  0
    1.0716    2.0625    0.0000 C   0  0  0  0  0  0  0  0  0  0  0  0
    0.3572    2.4750    0.0000 C   0  0  0  0  0  0  0  0  0  0  0  0
    1.7862    2.4750    0.0000 C   0  0  0  0  0  0  0  0  0  0  0  0
    0.3572    3.3000    0.0000 C   0  0  0  0  0  0  0  0  0  0  0  0
    1.7862    3.3000    0.0000 C   0  0  0  0  0  0  0  0  0  0  0  0
    1.0716    3.7125    0.0000 C   0  0  0  0  0  0  0  0  0  0  0  0
  1 13  1  0
  1 14  1  0
  5 15  1  0
  6 16  2  0
  7 17  2  0
  8 16  1  0
  9 16  1  0
  9 17  1  0
 10  2  1  6
 10 11  1  0
 10 12  1  0
 11  3  1  1
 11 13  1  0
 12  4  1  1
 12 14  1  0
 13 15  1  6
 14  8  1  6
 17 18  1  0
 18 19  2  0
 18 20  1  0
 19 21  1  0
 20 22  2  0
 21 23  2  0
 22 23  1  0
M  END
>  <DRUGBANK_ID>  (1) 
DB04295

>  <SECONDARY_ACCESSION_NUMBERS>  (1) 
EXPT00789

>  <COMMON_NAME>  (1) 
N-(Benzoylcarbamoyl)-beta-D-glucopyranosylamine

>  <SYNONYMS>  (1) 
N-benzoyl-N'-beta-D-glucopyranosyl urea

$$$$
