NTH
     RDKit          2D

 27 30  0  0  0  0  0  0  0  0999 V2000
   -0.2020    2.1906    0.0000 C   0  0  0  0  0  0  0  0  0  0  0  0
   -0.4569    2.9752    0.0000 C   0  0  0  0  0  0  0  0  0  0  0  0
   -1.2639    3.1467    0.0000 C   0  0  0  0  0  0  0  0  0  0  0  0
   -1.5188    3.9313    0.0000 O   0  0  0  0  0  0  0  0  0  0  0  0
   -1.8159    2.5336    0.0000 C   0  0  0  0  0  0  0  0  0  0  0  0
   -1.5610    1.7490    0.0000 C   0  0  0  0  0  0  0  0  0  0  0  0
   -2.1130    1.1359    0.0000 C   0  0  0  0  0  0  0  0  0  0  0  0
   -1.8581    0.3513    0.0000 C   0  0  0  0  0  0  0  0  0  0  0  0
   -1.0511    0.1798    0.0000 C   0  0  0  0  0  0  0  0  0  0  0  0
   -0.4991    0.7929    0.0000 C   0  0  0  0  0  0  0  0  0  0  0  0
   -0.7540    1.5775    0.0000 C   0  0  0  0  0  0  0  0  0  0  0  0
    0.3079    0.6213    0.0000 C   0  0  0  0  0  0  0  0  0  0  0  0
    0.5628   -0.1633    0.0000 C   0  0  0  0  0  0  0  0  0  0  0  0
    0.0108   -0.7764    0.0000 C   0  0  0  0  0  0  0  0  0  0  0  0
   -0.7962   -0.6049    0.0000 C   0  0  0  0  0  0  0  0  0  0  0  0
   -1.2087   -1.3193    0.0000 C   0  0  0  0  0  0  0  0  0  0  0  0
   -0.6566   -1.9324    0.0000 C   0  0  0  0  0  0  0  0  0  0  0  0
    0.0970   -1.5969    0.0000 C   0  0  0  0  0  0  0  0  0  0  0  0
    0.8115   -2.0094    0.0000 O   0  0  0  0  0  0  0  0  0  0  0  0
    0.7954   -1.0313    0.0000 C   0  0  0  0  0  0  0  0  0  0  0  0
    1.5260   -1.5969    0.0000 C   0  0  0  0  0  0  0  0  0  0  0  0
    1.5260   -0.7719    0.0000 O   0  0  0  0  0  0  0  0  0  0  0  0
    2.9549   -1.5969    0.0000 C   0  0  0  0  0  0  0  0  0  0  0  0
    2.2404   -2.0094    0.0000 C   0  0  0  0  0  0  0  0  0  0  0  0
    3.6694   -2.0094    0.0000 C   0  0  0  0  0  0  0  0  0  0  0  0
    4.3839   -1.5969    0.0000 O   0  0  0  0  0  0  0  0  0  0  0  0
    3.6694   -2.8344    0.0000 O   0  0  0  0  0  0  0  0  0  0  0  0
  1  2  1  0
 11  1  1  6
  2  3  1  0
  3  4  2  0
  3  5  1  0
  5  6  2  0
  6  7  1  0
  6 11  1  0
  7  8  1  0
  9  8  1  6
  9 10  1  0
  9 15  1  0
 10 11  1  0
 10 12  1  1
 12 13  1  0
 13 14  1  0
 14 15  1  0
 14 18  1  0
 14 20  1  1
 15 16  1  1
 16 17  1  0
 17 18  1  0
 18 19  1  6
 19 21  1  0
 21 22  2  0
 21 24  1  0
 23 24  1  0
 23 25  1  0
 25 26  2  0
 25 27  1  0
M  END
>  <DRUGBANK_ID>  (1) 
DB08308

>  <COMMON_NAME>  (1) 
SUCCINIC ACID MONO-(13-METHYL-3-OXO-2,3,6,7,8,9,10,11,12,13,14,15,16,17-TETRADECAHYDRO-1H-CYCLOPENTA[A]PHENANTHREN-17-YL) ESTER

$$$$
