VRV
     RDKit          2D

 23 25  0  0  0  0  0  0  0  0999 V2000
   -0.6517    2.4131    0.0000 C   0  0  0  0  0  0  0  0  0  0  0  0
   -1.3662    2.0006    0.0000 C   0  0  0  0  0  0  0  0  0  0  0  0
   -1.3662    1.1756    0.0000 C   0  0  0  0  0  0  0  0  0  0  0  0
   -0.6517    0.7631    0.0000 C   0  0  0  0  0  0  0  0  0  0  0  0
    0.0627    1.1756    0.0000 C   0  0  0  0  0  0  0  0  0  0  0  0
    0.0627    2.0006    0.0000 C   0  0  0  0  0  0  0  0  0  0  0  0
   -0.6517   -0.0619    0.0000 C   0  0  0  0  0  0  0  0  0  0  0  0
   -1.3662   -0.4744    0.0000 N   0  0  0  0  0  0  0  0  0  0  0  0
   -1.3662   -1.2994    0.0000 C   0  0  0  0  0  0  0  0  0  0  0  0
   -0.6517   -1.7119    0.0000 C   0  0  0  0  0  0  0  0  0  0  0  0
    0.0627   -1.2994    0.0000 C   0  0  0  0  0  0  0  0  0  0  0  0
    0.0627   -0.4744    0.0000 C   0  0  0  0  0  0  0  0  0  0  0  0
    0.7772   -1.7119    0.0000 C   0  0  0  0  0  0  0  0  0  0  0  0
    0.7772   -2.5369    0.0000 C   0  0  0  0  0  0  0  0  0  0  0  0
    1.4917   -2.9494    0.0000 C   0  0  0  0  0  0  0  0  0  0  0  0
    2.2062   -2.5369    0.0000 C   0  0  0  0  0  0  0  0  0  0  0  0
    2.2062   -1.7119    0.0000 C   0  0  0  0  0  0  0  0  0  0  0  0
    1.4917   -1.2994    0.0000 C   0  0  0  0  0  0  0  0  0  0  0  0
   -0.6517   -2.5369    0.0000 C   0  0  0  0  0  0  0  0  0  0  0  0
   -0.6517   -3.3619    0.0000 N   0  0  0  0  0  0  0  0  0  0  0  0
   -2.0807   -1.7119    0.0000 O   0  0  0  0  0  0  0  0  0  0  0  0
   -2.0807    0.7631    0.0000 O   0  0  0  0  0  0  0  0  0  0  0  0
    0.7772    2.4131    0.0000 Br  0  0  0  0  0  0  0  0  0  0  0  0
  1  6  2  0
  1  2  1  0
  2  3  2  0
  3  4  1  0
  3 22  1  0
  4  5  2  0
  4  7  1  0
  5  6  1  0
  6 23  1  0
  7 12  2  0
  7  8  1  0
  8  9  1  0
  9 10  1  0
  9 21  2  0
 10 11  2  0
 10 19  1  0
 11 13  1  0
 11 12  1  0
 13 18  1  0
 13 14  2  0
 14 15  1  0
 15 16  2  0
 16 17  1  0
 17 18  2  0
 19 20  3  0
M  END
>  <DRUGBANK_ID>  (1) 
DB08705

>  <COMMON_NAME>  (1) 
6-(5-BROMO-2-HYDROXYPHENYL)-2-OXO-4-PHENYL-1,2-DIHYDROPYRIDINE-3-CARBONITRILE

$$$$
