
     RDKit          2D

 30 33  0  0  0  0  0  0  0  0999 V2000
    0.3208    0.1182    0.0000 C   0  0  0  0  0  0  0  0  0  0  0  0
   -1.8211   -1.0975    0.0000 C   0  0  0  0  0  0  0  0  0  0  0  0
    1.1119    0.3642    0.0000 C   0  0  0  0  0  0  0  0  0  0  0  0
   -0.4027   -1.1023    0.0000 C   0  0  0  0  0  0  0  0  0  0  0  0
    0.3159   -0.6971    0.0000 C   0  0  0  0  0  0  0  0  0  0  0  0
   -1.1119   -0.6922    0.0000 C   0  0  0  0  0  0  0  0  0  0  0  0
   -1.8211   -1.9273    0.0000 C   0  0  0  0  0  0  0  0  0  0  0  0
    3.2443    1.6234    0.0000 P   0  0  0  0  0  0  0  0  0  0  0  0
   -0.3883    0.5475    0.0000 C   0  0  0  0  0  0  0  0  0  0  0  0
   -1.1023    0.1327    0.0000 C   0  0  0  0  0  0  0  0  0  0  0  0
   -2.5351   -0.6922    0.0000 C   0  0  0  0  0  0  0  0  0  0  0  0
    1.1023    1.1891    0.0000 C   0  0  0  0  0  0  0  0  0  0  0  0
   -2.5351   -2.3325    0.0000 C   0  0  0  0  0  0  0  0  0  0  0  0
    1.5895   -0.3015    0.0000 C   0  0  0  0  0  0  0  0  0  0  0  0
    1.0975   -0.9672    0.0000 C   0  0  0  0  0  0  0  0  0  0  0  0
   -0.4027   -1.9273    0.0000 C   0  0  0  0  0  0  0  0  0  0  0  0
   -3.2539   -1.0975    0.0000 C   0  0  0  0  0  0  0  0  0  0  0  0
   -3.2539   -1.9273    0.0000 C   0  0  0  0  0  0  0  0  0  0  0  0
    1.8115    1.6185    0.0000 C   0  0  0  0  0  0  0  0  0  0  0  0
    2.5351    1.2036    0.0000 O   0  0  0  0  0  0  0  0  0  0  0  0
    3.9630    1.2132    0.0000 O   0  0  0  0  0  0  0  0  0  0  0  0
    3.6495    2.3421    0.0000 O   0  0  0  0  0  0  0  0  0  0  0  0
   -1.1119   -2.3421    0.0000 C   0  0  0  0  0  0  0  0  0  0  0  0
    2.8246    2.3421    0.0000 O   0  0  0  0  0  0  0  0  0  0  0  0
    0.3883    1.6040    0.0000 O   0  0  0  0  0  0  0  0  0  0  0  0
   -3.9630   -2.3325    0.0000 O   0  0  0  0  0  0  0  0  0  0  0  0
    1.8259    0.7839    0.0000 O   0  0  0  0  0  0  0  0  0  0  0  0
    0.3159    0.9431    0.0000 C   0  0  0  0  0  0  0  0  0  0  0  0
   -1.8211    0.5523    0.0000 O   0  0  0  0  0  0  0  0  0  0  0  0
   -1.8259   -0.2774    0.0000 C   0  0  0  0  0  0  0  0  0  0  0  0
  1 28  1  1
  2  6  1  0
  2 30  1  1
  3  1  1  0
  3 12  1  0
  3 27  1  6
  4  5  1  0
  5  1  1  0
  6 10  1  1
  6  4  1  0
  7  2  1  0
  8 20  1  0
  9  1  1  0
 10  9  1  0
 10 29  1  1
 11  2  1  0
 13  7  2  0
 14  3  1  0
 14 15  1  0
  5 15  1  1
  4 16  1  6
 17 11  2  0
 18 17  1  0
 18 13  1  0
 19 12  1  0
 20 19  1  0
 21  8  1  0
 22  8  1  0
 23 16  1  0
 23  7  1  0
 24  8  2  0
 25 12  2  0
 26 18  2  0
M  END
>  <DRUGBANK_ID>  (1) 
DB14631

>  <SECONDARY_ACCESSION_NUMBERS>  (1) 
DBSALT002204

>  <COMMON_NAME>  (1) 
Prednisolone phosphate

>  <CAS_NUMBER>  (1) 
302-25-0

>  <UNII>  (1) 
752SY38R6C

>  <SYNONYMS>  (1) 
Prednisolone 21-(dihydrogen phosphate); Prednisolone 21-monophosphate; Prednisolone 21-phosphate

$$$$
