
     RDKit          2D

 19 18  0  0  1  0  0  0  0  0999 V2000
   -1.2079    0.0000    0.0000 C   0  0  0  0  0  0  0  0  0  0  0  0
   -1.6204    0.7145    0.0000 C   0  0  0  0  0  0  0  0  0  0  0  0
   -2.0329    1.4289    0.0000 C   0  0  0  0  0  0  0  0  0  0  0  0
   -2.3349    0.3020    0.0000 C   0  0  0  0  0  0  0  0  0  0  0  0
   -3.0493    0.7145    0.0000 O   0  0  0  0  0  0  0  0  0  0  0  0
   -3.7638    0.3020    0.0000 P   0  0  0  0  0  0  0  0  0  0  0  0
   -4.4783   -0.1105    0.0000 O   0  0  0  0  0  0  0  0  0  0  0  0
   -3.3513   -0.4125    0.0000 O   0  0  0  0  0  0  0  0  0  0  0  0
   -4.1763    1.0164    0.0000 O   0  0  0  0  0  0  0  0  0  0  0  0
   -0.9059    1.1270    0.0000 C   0  0  0  0  0  0  0  0  0  0  0  0
   -0.9059    1.9520    0.0000 O   0  0  0  0  0  0  0  0  0  0  0  0
   -0.1914    0.7145    0.0000 C   0  0  0  0  0  0  0  0  0  0  0  0
   -0.1914   -0.1105    0.0000 O   0  0  0  0  0  0  0  0  0  0  0  0
    0.5230    1.1270    0.0000 N   0  0  0  0  0  0  0  0  0  0  0  0
    1.2375    0.7145    0.0000 C   0  0  0  0  0  0  0  0  0  0  0  0
    1.9520    1.1270    0.0000 C   0  0  0  0  0  0  0  0  0  0  0  0
    2.6664    0.7145    0.0000 C   0  0  0  0  0  0  0  0  0  0  0  0
    3.3809    1.1270    0.0000 O   0  0  0  0  0  0  0  0  0  0  0  0
    2.6664   -0.1105    0.0000 O   0  0  0  0  0  0  0  0  0  0  0  0
  1  2  1  0
  2  3  1  0
  2  4  1  0
  4  5  1  0
  5  6  1  0
  6  7  1  0
  6  8  1  0
  6  9  2  0
 10  2  1  0
 10 11  1  1
 10 12  1  0
 12 13  2  0
 12 14  1  0
 14 15  1  0
 15 16  1  0
 16 17  1  0
 17 18  1  0
 17 19  2  0
M  END
>  <DRUGBANK_ID>  (1) 
DB16966

>  <COMMON_NAME>  (1) 
Phosphopantothenic acid

>  <CAS_NUMBER>  (1) 
5875-50-3

>  <UNII>  (1) 
1SCE5NG3E8

>  <SYNONYMS>  (1) 
.beta.-alanine, n-((2r)-2-hydroxy-3,3-dimethyl-1-oxo-4-(phosphonooxy)butyl)-; 4'-phospho-d-pantothenic acid; 4'-phosphopantothenic acid; D-pantothenic acid 4'-phosphate; Pantothenate phosphate; Pantothenic acid, 4'-(dihydrogen phosphate)

$$$$
