EI1
     RDKit          2D

 19 21  0  0  0  0  0  0  0  0999 V2000
    0.5512   -1.7739    0.0000 C   0  0  0  0  0  0  0  0  0  0  0  0
   -0.0008   -1.1608    0.0000 C   0  0  0  0  0  0  0  0  0  0  0  0
    0.2541   -0.3762    0.0000 C   0  0  0  0  0  0  0  0  0  0  0  0
    1.0387   -0.1212    0.0000 C   0  0  0  0  0  0  0  0  0  0  0  0
    1.7532   -0.5337    0.0000 C   0  0  0  0  0  0  0  0  0  0  0  0
    2.4677   -0.1212    0.0000 C   0  0  0  0  0  0  0  0  0  0  0  0
    3.1821   -0.5337    0.0000 O   0  0  0  0  0  0  0  0  0  0  0  0
    2.4677    0.7038    0.0000 C   0  0  0  0  0  0  0  0  0  0  0  0
    1.7532    1.1163    0.0000 C   0  0  0  0  0  0  0  0  0  0  0  0
    1.0387    0.7038    0.0000 C   0  0  0  0  0  0  0  0  0  0  0  0
    0.2541    0.9587    0.0000 N   0  0  0  0  0  0  0  0  0  0  0  0
   -0.2308    0.2913    0.0000 N   0  0  0  0  0  0  0  0  0  0  0  0
   -1.0558    0.2913    0.0000 C   0  0  0  0  0  0  0  0  0  0  0  0
   -1.4683   -0.4232    0.0000 C   0  0  0  0  0  0  0  0  0  0  0  0
   -2.2933   -0.4232    0.0000 C   0  0  0  0  0  0  0  0  0  0  0  0
   -2.7058    0.2913    0.0000 C   0  0  0  0  0  0  0  0  0  0  0  0
   -3.5308    0.2913    0.0000 O   0  0  0  0  0  0  0  0  0  0  0  0
   -2.2933    1.0057    0.0000 C   0  0  0  0  0  0  0  0  0  0  0  0
   -1.4683    1.0057    0.0000 C   0  0  0  0  0  0  0  0  0  0  0  0
  1  2  1  0
  2  3  1  0
  3 12  1  0
  3  4  2  0
  4 10  1  0
  4  5  1  0
  5  6  2  0
  6  8  1  0
  6  7  1  0
  8  9  2  0
  9 10  1  0
 10 11  2  0
 11 12  1  0
 12 13  1  0
 13 14  2  0
 13 19  1  0
 14 15  1  0
 15 16  2  0
 16 17  1  0
 16 18  1  0
 18 19  2  0
M  END
>  <DRUGBANK_ID>  (1) 
DB07712

>  <COMMON_NAME>  (1) 
3-ETHYL-2-(4-HYDROXYPHENYL)-2H-INDAZOL-5-OL

$$$$
