198
     RDKit          2D

 29 30  0  0  0  0  0  0  0  0999 V2000
   -2.9292   -0.5728    0.0000 C   0  0  0  0  0  0  0  0  0  0  0  0
   -3.6437   -0.1603    0.0000 C   0  0  0  0  0  0  0  0  0  0  0  0
   -3.6437    0.6647    0.0000 C   0  0  0  0  0  0  0  0  0  0  0  0
   -4.3581    1.0772    0.0000 F   0  0  0  0  0  0  0  0  0  0  0  0
   -2.9292    1.0772    0.0000 C   0  0  0  0  0  0  0  0  0  0  0  0
   -2.2147    0.6647    0.0000 C   0  0  0  0  0  0  0  0  0  0  0  0
   -2.2147   -0.1603    0.0000 C   0  0  0  0  0  0  0  0  0  0  0  0
   -1.5002   -0.5728    0.0000 S   0  0  0  0  0  0  0  0  0  0  0  0
   -1.9127   -1.2873    0.0000 O   0  0  0  0  0  0  0  0  0  0  0  0
   -1.0877    0.1417    0.0000 O   0  0  0  0  0  0  0  0  0  0  0  0
   -0.7858   -0.9853    0.0000 C   0  0  0  0  0  0  0  0  0  0  0  0
   -0.0713   -0.5728    0.0000 C   0  0  0  0  0  0  0  0  0  0  0  0
    0.3412   -1.2873    0.0000 O   0  0  0  0  0  0  0  0  0  0  0  0
   -0.4838    0.1417    0.0000 C   0  0  0  0  0  0  0  0  0  0  0  0
    0.6432   -0.1603    0.0000 C   0  0  0  0  0  0  0  0  0  0  0  0
    0.6432    0.6647    0.0000 O   0  0  0  0  0  0  0  0  0  0  0  0
    1.3576   -0.5728    0.0000 N   0  0  0  0  0  0  0  0  0  0  0  0
    2.0721   -0.1603    0.0000 C   0  0  0  0  0  0  0  0  0  0  0  0
    2.0721    0.6647    0.0000 C   0  0  0  0  0  0  0  0  0  0  0  0
    2.7866   -0.5728    0.0000 C   0  0  0  0  0  0  0  0  0  0  0  0
    3.5011   -0.1603    0.0000 C   0  0  0  0  0  0  0  0  0  0  0  0
    3.5011    0.6647    0.0000 C   0  0  0  0  0  0  0  0  0  0  0  0
    4.2155    1.0772    0.0000 C   0  0  0  0  0  0  0  0  0  0  0  0
    4.9300    1.4897    0.0000 N   0  0  0  0  0  0  0  0  0  0  0  0
    2.7866    1.0772    0.0000 C   0  0  0  0  0  0  0  0  0  0  0  0
    2.7866    1.9022    0.0000 C   0  0  0  0  0  0  0  0  0  0  0  0
    2.7866    2.7272    0.0000 F   0  0  0  0  0  0  0  0  0  0  0  0
    3.6116    1.9022    0.0000 F   0  0  0  0  0  0  0  0  0  0  0  0
    1.9616    1.9022    0.0000 F   0  0  0  0  0  0  0  0  0  0  0  0
  1  2  2  0
  1  7  1  0
  2  3  1  0
  3  4  1  0
  3  5  2  0
  5  6  1  0
  6  7  2  0
  7  8  1  0
  8  9  2  0
  8 10  2  0
  8 11  1  0
 11 12  1  0
 12 13  1  0
 12 14  1  6
 12 15  1  0
 15 16  2  0
 15 17  1  0
 17 18  1  0
 18 19  2  0
 18 20  1  0
 19 25  1  0
 20 21  2  0
 21 22  1  0
 22 23  1  0
 22 25  2  0
 23 24  3  0
 25 26  1  0
 26 27  1  0
 26 28  1  0
 26 29  1  0
M  END
>  <DRUGBANK_ID>  (1) 
DB02932

>  <SECONDARY_ACCESSION_NUMBERS>  (1) 
EXPT00064

>  <COMMON_NAME>  (1) 
(R)-Bicalutamide

>  <CAS_NUMBER>  (1) 
113299-40-4

>  <UNII>  (1) 
Z9DL98I0AF

>  <SYNONYMS>  (1) 
(-)-Bicalutamide

$$$$
