299
     RDKit          2D

 16 16  0  0  0  0  0  0  0  0999 V2000
    1.3237    0.2665    0.0000 C   0  0  0  0  0  0  0  0  0  0  0  0
    1.3237   -0.5585    0.0000 C   0  0  0  0  0  0  0  0  0  0  0  0
    0.6093   -0.9710    0.0000 C   0  0  0  0  0  0  0  0  0  0  0  0
   -0.1052   -0.5585    0.0000 C   0  0  0  0  0  0  0  0  0  0  0  0
   -0.1052    0.2665    0.0000 C   0  0  0  0  0  0  0  0  0  0  0  0
    0.6093    0.6790    0.0000 C   0  0  0  0  0  0  0  0  0  0  0  0
    2.0382   -0.9710    0.0000 C   0  0  0  0  0  0  0  0  0  0  0  0
   -0.8197   -0.9710    0.0000 C   0  0  0  0  0  0  0  0  0  0  0  0
    0.6093    1.5040    0.0000 C   0  0  0  0  0  0  0  0  0  0  0  0
   -0.8197    0.6790    0.0000 O   0  0  0  0  0  0  0  0  0  0  0  0
   -1.5341    0.2665    0.0000 P   0  0  0  0  0  0  0  0  0  0  0  0
   -2.2486   -0.1460    0.0000 O   0  0  0  0  0  0  0  0  0  0  0  0
   -1.9466    0.9810    0.0000 O   0  0  0  0  0  0  0  0  0  0  0  0
   -1.1216   -0.4480    0.0000 O   0  0  0  0  0  0  0  0  0  0  0  0
   -1.5341   -0.5585    0.0000 O   0  0  0  0  0  0  0  0  0  0  0  0
   -0.1052    1.9165    0.0000 O   0  0  0  0  0  0  0  0  0  0  0  0
  1  2  2  0
  1  6  1  0
  2  3  1  0
  2  7  1  0
  3  4  2  0
  4  5  1  0
  4  8  1  0
  5  6  2  0
  5 10  1  0
  6  9  1  0
  8 15  2  0
  9 16  2  0
 10 11  1  0
 11 12  1  0
 11 13  1  0
 11 14  2  0
M  END
>  <DRUGBANK_ID>  (1) 
DB03828

>  <SECONDARY_ACCESSION_NUMBERS>  (1) 
EXPT00099

>  <COMMON_NAME>  (1) 
RU78299

$$$$
