
     RDKit          2D

 39 39  0  0  0  0  0  0  0  0999 V2000
   -0.7144   -1.3257    0.0000 N   0  0  0  0  0  0  0  0  0  0  0  0
   -1.3819   -1.8106    0.0000 C   0  0  0  0  0  0  0  0  0  0  0  0
   -1.1269   -2.5952    0.0000 C   0  0  0  0  0  0  0  0  0  0  0  0
   -0.3019   -2.5952    0.0000 C   0  0  0  0  0  0  0  0  0  0  0  0
   -0.0470   -1.8106    0.0000 C   0  0  0  0  0  0  0  0  0  0  0  0
    0.7375   -1.5557    0.0000 C   0  0  0  0  0  0  0  0  0  0  0  0
    0.9091   -0.7488    0.0000 O   0  0  0  0  0  0  0  0  0  0  0  0
    1.3506   -2.1078    0.0000 N   0  0  0  0  0  0  0  0  0  0  0  0
    2.1353   -1.8527    0.0000 C   0  0  0  0  0  0  0  0  0  0  0  0
    2.7483   -2.4049    0.0000 C   0  0  0  0  0  0  0  0  0  0  0  0
    2.3068   -1.0458    0.0000 C   0  0  0  0  0  0  0  0  0  0  0  0
    3.5330   -2.1499    0.0000 N   0  0  0  0  0  0  0  0  0  0  0  0
    2.5768   -3.2118    0.0000 O   0  0  0  0  0  0  0  0  0  0  0  0
   -0.7144   -0.5007    0.0000 C   0  0  0  0  0  0  0  0  0  0  0  0
    0.0000   -0.0881    0.0000 O   0  0  0  0  0  0  0  0  0  0  0  0
   -1.4289   -0.0881    0.0000 C   0  0  0  0  0  0  0  0  0  0  0  0
   -1.4289    0.7368    0.0000 N   0  0  0  0  0  0  0  0  0  0  0  0
   -2.1435    1.1492    0.0000 C   0  0  0  0  0  0  0  0  0  0  0  0
   -2.1435   -0.5007    0.0000 C   0  0  0  0  0  0  0  0  0  0  0  0
   -2.8578   -0.0881    0.0000 C   0  0  0  0  0  0  0  0  0  0  0  0
   -2.1435   -1.3257    0.0000 C   0  0  0  0  0  0  0  0  0  0  0  0
   -2.1435    1.9742    0.0000 C   0  0  0  0  0  0  0  0  0  0  0  0
   -2.8578    0.7368    0.0000 O   0  0  0  0  0  0  0  0  0  0  0  0
   -2.8578    2.3868    0.0000 C   0  0  0  0  0  0  0  0  0  0  0  0
   -2.8578    3.2118    0.0000 C   0  0  0  0  0  0  0  0  0  0  0  0
   -1.4289    2.3868    0.0000 N   0  0  0  0  0  0  0  0  0  0  0  0
   -0.7144    1.9742    0.0000 C   0  0  0  0  0  0  0  0  0  0  0  0
   -3.5723    1.9742    0.0000 C   0  0  0  0  0  0  0  0  0  0  0  0
   -4.2868    2.3868    0.0000 C   0  0  0  0  0  0  0  0  0  0  0  0
    0.0000    2.3868    0.0000 C   0  0  0  0  0  0  0  0  0  0  0  0
   -0.7144    1.1492    0.0000 O   0  0  0  0  0  0  0  0  0  0  0  0
    0.7144    1.9742    0.0000 C   0  0  0  0  0  0  0  0  0  0  0  0
    0.0000    3.2118    0.0000 N   0  0  0  0  0  0  0  0  0  0  0  0
    1.4289    2.3868    0.0000 C   0  0  0  0  0  0  0  0  0  0  0  0
    2.1435    1.9742    0.0000 C   0  0  0  0  0  0  0  0  0  0  0  0
    2.8578    2.3868    0.0000 N   0  0  0  0  0  0  0  0  0  0  0  0
    3.5723    1.9742    0.0000 C   0  0  0  0  0  0  0  0  0  0  0  0
    4.2868    2.3868    0.0000 N   0  0  0  0  0  0  0  0  0  0  0  0
    3.5723    1.1492    0.0000 N   0  0  0  0  0  0  0  0  0  0  0  0
  1  2  1  0
  1  5  1  0
  1 14  1  0
  2  3  1  0
  3  4  1  0
  4  5  1  0
  5  6  1  6
  6  7  2  0
  6  8  1  0
  8  9  1  0
  9 10  1  0
  9 11  1  1
 10 12  1  0
 10 13  2  0
 14 15  2  0
 14 16  1  0
 16 17  1  6
 16 19  1  0
 17 18  1  0
 18 22  1  0
 18 23  2  0
 19 20  1  0
 19 21  1  0
 22 24  1  0
 22 26  1  0
 24 25  1  6
 24 28  1  0
 26 27  1  0
 27 30  1  0
 27 31  2  0
 28 29  1  0
 30 32  1  0
 30 33  1  1
 32 34  1  0
 34 35  1  0
 35 36  1  0
 36 37  1  0
 37 38  1  0
 37 39  2  0
M  END
>  <DRUGBANK_ID>  (1) 
DB11879

>  <COMMON_NAME>  (1) 
Dusquetide

>  <CAS_NUMBER>  (1) 
931395-42-5

>  <UNII>  (1) 
IKX7W49NLN

>  <SYNONYMS>  (1) 
ARG-ILE-VAL-PRO-ALA-NH2; Dusquetide; L-ALANINAMIDE, L-ARGINYL-L-ISOLEUCYL-L-VALYL-L-PROLYL-; L-ARGINYL-L-ISOLEUCYL-L-VALYL-L-PROLYL-L-ALANINAMIDE; L-arginyl-L-isoleucyl-L-valyl-L-prolyl-L-alanine-amide

$$$$
