
     RDKit          2D

 17 18  0  0  0  0  0  0  0  0999 V2000
   -1.4359    0.5332    0.0000 C   0  0  0  0  0  0  0  0  0  0  0  0
   -2.1504    0.1207    0.0000 C   0  0  0  0  0  0  0  0  0  0  0  0
   -1.4359   -1.1167    0.0000 C   0  0  0  0  0  0  0  0  0  0  0  0
   -0.7214   -0.7042    0.0000 C   0  0  0  0  0  0  0  0  0  0  0  0
   -0.7214    0.1207    0.0000 C   0  0  0  0  0  0  0  0  0  0  0  0
    0.7074    0.1207    0.0000 C   0  0  0  0  0  0  0  0  0  0  0  0
    1.4146    0.5455    0.0000 C   0  0  0  0  0  0  0  0  0  0  0  0
    0.7217   -0.7041    0.0000 C   0  0  0  0  0  0  0  0  0  0  0  0
    1.4431   -1.1042    0.0000 C   0  0  0  0  0  0  0  0  0  0  0  0
    2.1361    0.1454    0.0000 C   0  0  0  0  0  0  0  0  0  0  0  0
   -0.5903    1.1166    0.0000 C   0  0  0  0  0  0  0  0  0  0  0  0
   -0.0070    0.5332    0.0000 C   0  0  0  0  0  0  0  0  0  0  0  0
    0.5763    1.1166    0.0000 C   0  0  0  0  0  0  0  0  0  0  0  0
   -2.1504   -0.7042    0.0000 C   0  0  0  0  0  0  0  0  0  0  0  0
   -2.8648   -1.1167    0.0000 O   0  0  0  0  0  0  0  0  0  0  0  0
    2.1504   -0.6794    0.0000 C   0  0  0  0  0  0  0  0  0  0  0  0
    2.8648   -1.0919    0.0000 O   0  0  0  0  0  0  0  0  0  0  0  0
  1  2  2  0
  1  5  1  0
  2 14  1  0
  3  4  1  0
  4  5  2  0
  5 12  1  0
  6  8  1  0
  7  6  2  0
  7 10  1  0
  8  9  2  0
  9 16  1  0
 12  6  1  0
 12 11  1  0
 12 13  1  0
 14  3  2  0
 14 15  1  0
 16 10  2  0
 16 17  1  0
M  END
>  <DRUGBANK_ID>  (1) 
DB06973

>  <COMMON_NAME>  (1) 
Bisphenol A

>  <CAS_NUMBER>  (1) 
80-05-7

>  <UNII>  (1) 
MLT3645I99

>  <SYNONYMS>  (1) 
4,4'-Bisphenol A; 4,4'-Isopropylidenediphenol; Bisphenol-A; BPA; Dianin's compound

$$$$
