FDI
     RDKit          2D

 21 21  0  0  0  0  0  0  0  0999 V2000
   -1.4283    1.6621    0.0000 C   0  0  0  0  0  0  0  0  0  0  0  0
   -0.7138    1.2496    0.0000 C   0  0  0  0  0  0  0  0  0  0  0  0
   -0.7138    0.4246    0.0000 C   0  0  0  0  0  0  0  0  0  0  0  0
   -1.4283    0.0121    0.0000 C   0  0  0  0  0  0  0  0  0  0  0  0
   -2.1427    0.4246    0.0000 C   0  0  0  0  0  0  0  0  0  0  0  0
   -2.1427    1.2496    0.0000 C   0  0  0  0  0  0  0  0  0  0  0  0
   -2.8572    0.0121    0.0000 C   0  0  0  0  0  0  0  0  0  0  0  0
   -3.5717    0.4246    0.0000 O   0  0  0  0  0  0  0  0  0  0  0  0
   -2.8572   -0.8129    0.0000 O   0  0  0  0  0  0  0  0  0  0  0  0
    0.0007    0.0121    0.0000 N   0  0  0  0  0  0  0  0  0  0  0  0
    0.0007   -0.8129    0.0000 C   0  0  0  0  0  0  0  0  0  0  0  0
    0.7152   -1.2254    0.0000 C   0  0  0  0  0  0  0  0  0  0  0  0
   -0.7138   -1.2254    0.0000 O   0  0  0  0  0  0  0  0  0  0  0  0
    0.7152   -2.0504    0.0000 C   0  0  0  0  0  0  0  0  0  0  0  0
    1.4296   -2.4629    0.0000 C   0  0  0  0  0  0  0  0  0  0  0  0
    1.4296   -0.8129    0.0000 C   0  0  0  0  0  0  0  0  0  0  0  0
    2.1441   -1.2254    0.0000 C   0  0  0  0  0  0  0  0  0  0  0  0
    0.0007    1.6621    0.0000 N   0  0  0  0  0  0  0  0  0  0  0  0
    0.0007    2.4871    0.0000 C   0  0  0  0  0  0  0  0  0  0  0  0
   -0.7138    2.8996    0.0000 C   0  0  0  0  0  0  0  0  0  0  0  0
    0.7152    2.8996    0.0000 O   0  0  0  0  0  0  0  0  0  0  0  0
  1  2  2  0
  1  6  1  0
  2  3  1  0
  2 18  1  0
  3  4  2  0
  3 10  1  0
  4  5  1  0
  5  6  2  0
  5  7  1  0
  7  8  1  0
  7  9  2  0
 10 11  1  0
 11 12  1  0
 11 13  2  0
 12 14  1  0
 12 16  1  0
 14 15  1  0
 16 17  1  0
 18 19  1  0
 19 20  1  0
 19 21  2  0
M  END
>  <DRUGBANK_ID>  (1) 
DB07762

>  <COMMON_NAME>  (1) 
4-(N-ACETYLAMINO)-3-[N-(2-ETHYLBUTANOYLAMINO)]BENZOIC ACID

$$$$
