
     RDKit          2D

 23 25  0  0  0  0  0  0  0  0999 V2000
   -1.4203   -1.1455    0.0000 C   0  0  0  0  0  0  0  0  0  0  0  0
   -1.4203   -0.3205    0.0000 C   0  0  0  0  0  0  0  0  0  0  0  0
   -2.1347    0.0919    0.0000 C   0  0  0  0  0  0  0  0  0  0  0  0
   -2.8492   -0.3205    0.0000 C   0  0  0  0  0  0  0  0  0  0  0  0
   -2.8492   -1.1455    0.0000 C   0  0  0  0  0  0  0  0  0  0  0  0
   -2.1347   -1.5580    0.0000 C   0  0  0  0  0  0  0  0  0  0  0  0
   -0.7058    0.0919    0.0000 N   0  0  0  0  0  0  0  0  0  0  0  0
   -0.7058   -1.5580    0.0000 C   0  0  0  0  0  0  0  0  0  0  0  0
    0.0086   -1.1455    0.0000 C   0  0  0  0  0  0  0  0  0  0  0  0
    0.0086   -0.3205    0.0000 C   0  0  0  0  0  0  0  0  0  0  0  0
    0.7231   -1.5580    0.0000 C   0  0  0  0  0  0  0  0  0  0  0  0
    1.4375   -1.1455    0.0000 O   0  0  0  0  0  0  0  0  0  0  0  0
    0.7231   -2.3830    0.0000 O   0  0  0  0  0  0  0  0  0  0  0  0
    0.8093    0.9124    0.0000 N   0  0  0  0  0  0  0  0  0  0  0  0
    0.7231    0.0919    0.0000 C   0  0  0  0  0  0  0  0  0  0  0  0
    1.4767   -0.2436    0.0000 N   0  0  0  0  0  0  0  0  0  0  0  0
    2.0288    0.3694    0.0000 C   0  0  0  0  0  0  0  0  0  0  0  0
    1.6163    1.0839    0.0000 C   0  0  0  0  0  0  0  0  0  0  0  0
    2.8492    0.2832    0.0000 O   0  0  0  0  0  0  0  0  0  0  0  0
    1.5386    1.9052    0.0000 C   0  0  0  0  0  0  0  0  0  0  0  0
    2.2786    1.5758    0.0000 C   0  0  0  0  0  0  0  0  0  0  0  0
    0.7885    2.2487    0.0000 C   0  0  0  0  0  0  0  0  0  0  0  0
    2.2111    2.3831    0.0000 C   0  0  0  0  0  0  0  0  0  0  0  0
  1  2  1  0
  1  6  2  0
  2  3  2  0
  2  7  1  0
  3  4  1  0
  4  5  2  0
  5  6  1  0
  8  1  1  0
  9  8  2  0
  9 11  1  0
 10  7  2  0
 10  9  1  0
 11 12  1  0
 11 13  2  0
 15 10  1  0
 15 14  2  0
 15 16  1  0
 17 16  1  0
 17 19  2  0
 18 14  1  0
 18 17  1  0
 18 20  1  0
 18 21  1  1
 20 23  1  0
 22 20  1  0
M  END
>  <DRUGBANK_ID>  (1) 
DB04582

>  <COMMON_NAME>  (1) 
Imazaquin

>  <UNII>  (1) 
8LZY7C31XA

>  <SYNONYMS>  (1) 
(R)-imazaquin

$$$$
