IOF
     RDKit          2D

 23 24  0  0  0  0  0  0  0  0999 V2000
    0.6092   -0.6132    0.0000 C   0  0  0  0  0  0  0  0  0  0  0  0
    1.3237   -1.0257    0.0000 C   0  0  0  0  0  0  0  0  0  0  0  0
    1.3237   -1.8507    0.0000 C   0  0  0  0  0  0  0  0  0  0  0  0
    0.6092   -2.2632    0.0000 C   0  0  0  0  0  0  0  0  0  0  0  0
   -0.1052   -1.8507    0.0000 C   0  0  0  0  0  0  0  0  0  0  0  0
   -0.1052   -1.0257    0.0000 C   0  0  0  0  0  0  0  0  0  0  0  0
   -0.8197   -0.6132    0.0000 C   0  0  0  0  0  0  0  0  0  0  0  0
   -1.5342   -1.0257    0.0000 O   0  0  0  0  0  0  0  0  0  0  0  0
   -0.8197    0.2118    0.0000 N   0  0  0  0  0  0  0  0  0  0  0  0
   -1.5342    0.6243    0.0000 C   0  0  0  0  0  0  0  0  0  0  0  0
    2.0382   -2.2632    0.0000 S   0  0  0  0  0  0  0  0  0  0  0  0
    2.7526   -2.6757    0.0000 N   0  0  0  0  0  0  0  0  0  0  0  0
    2.4507   -1.5487    0.0000 O   0  0  0  0  0  0  0  0  0  0  0  0
    1.6257   -2.9777    0.0000 O   0  0  0  0  0  0  0  0  0  0  0  0
   -1.5342    1.4493    0.0000 C   0  0  0  0  0  0  0  0  0  0  0  0
   -2.2487    1.8618    0.0000 C   0  0  0  0  0  0  0  0  0  0  0  0
   -2.2487    2.6868    0.0000 C   0  0  0  0  0  0  0  0  0  0  0  0
   -1.5342    3.0993    0.0000 C   0  0  0  0  0  0  0  0  0  0  0  0
   -0.8197    2.6868    0.0000 C   0  0  0  0  0  0  0  0  0  0  0  0
   -0.8197    1.8618    0.0000 C   0  0  0  0  0  0  0  0  0  0  0  0
   -2.9631    3.0993    0.0000 F   0  0  0  0  0  0  0  0  0  0  0  0
   -1.5342    3.9243    0.0000 F   0  0  0  0  0  0  0  0  0  0  0  0
   -0.1052    3.0993    0.0000 F   0  0  0  0  0  0  0  0  0  0  0  0
  1  2  2  0
  1  6  1  0
  2  3  1  0
  3  4  2  0
  3 11  1  0
  4  5  1  0
  5  6  2  0
  6  7  1  0
  7  8  2  0
  7  9  1  0
  9 10  1  0
 10 15  1  0
 11 12  1  0
 11 13  2  0
 11 14  2  0
 15 16  2  0
 15 20  1  0
 16 17  1  0
 17 18  2  0
 17 21  1  0
 18 19  1  0
 18 22  1  0
 19 20  2  0
 19 23  1  0
M  END
>  <DRUGBANK_ID>  (1) 
DB02861

>  <SECONDARY_ACCESSION_NUMBERS>  (1) 
EXPT01904

>  <COMMON_NAME>  (1) 
4-(Aminosulfonyl)-N-[(3,4,5-Trifluorophenyl)Methyl]-Benzamide

$$$$
