ST1
     RDKit          2D

 17 17  0  0  0  0  0  0  0  0999 V2000
    3.2484    0.2908    0.0000 C   0  0  0  0  0  0  0  0  0  0  0  0
    3.9629   -0.1217    0.0000 O   0  0  0  0  0  0  0  0  0  0  0  0
    3.2484    1.1158    0.0000 O   0  0  0  0  0  0  0  0  0  0  0  0
    2.5339   -0.1217    0.0000 C   0  0  0  0  0  0  0  0  0  0  0  0
    2.5339   -0.9467    0.0000 C   0  0  0  0  0  0  0  0  0  0  0  0
    1.8194   -1.3592    0.0000 C   0  0  0  0  0  0  0  0  0  0  0  0
    1.8194   -2.1842    0.0000 O   0  0  0  0  0  0  0  0  0  0  0  0
    1.1050   -0.9466    0.0000 C   0  0  0  0  0  0  0  0  0  0  0  0
    0.3905   -1.3591    0.0000 N   0  0  0  0  0  0  0  0  0  0  0  0
    0.3905   -2.1841    0.0000 C   0  0  0  0  0  0  0  0  0  0  0  0
    1.1050   -2.5966    0.0000 O   0  0  0  0  0  0  0  0  0  0  0  0
   -0.3240   -2.5966    0.0000 C   0  0  0  0  0  0  0  0  0  0  0  0
    1.1050   -0.1216    0.0000 C   0  0  0  0  0  0  0  0  0  0  0  0
    0.3905    0.2909    0.0000 N   0  0  0  0  0  0  0  0  0  0  0  0
    0.3905    1.1159    0.0000 O   0  0  0  0  0  0  0  0  0  0  0  0
   -0.3240   -0.1216    0.0000 O   0  0  0  0  0  0  0  0  0  0  0  0
    1.8194    0.2909    0.0000 C   0  0  0  0  0  0  0  0  0  0  0  0
  1  2  2  0
  1  3  1  0
  1  4  1  0
  4  5  2  0
  4 17  1  0
  5  6  1  0
  6  7  1  0
  6  8  2  0
  8  9  1  0
  8 13  1  0
  9 10  1  0
 10 11  2  0
 10 12  1  0
 13 14  1  0
 13 17  2  0
 14 15  2  0
 14 16  1  0
M  CHG  2  14   1  16  -1
M  END
>  <DRUGBANK_ID>  (1) 
DB08570

>  <COMMON_NAME>  (1) 
4-(ACETYLAMINO)-3-HYDROXY-5-NITROBENZOIC ACID

$$$$
