
     RDKit          2D

 16 12  0  0  0  0  0  0  0  0999 V2000
   -0.0483   -0.5459    0.0000 C   0  0  0  0  0  0  0  0  0  0  0  0
   -0.7627   -0.9585    0.0000 C   0  0  0  0  0  0  0  0  0  0  0  0
   -1.4772   -0.5459    0.0000 C   0  0  0  0  0  0  0  0  0  0  0  0
   -0.0483    0.2789    0.0000 C   0  0  0  0  0  0  0  0  0  0  0  0
    0.6661   -0.9585    0.0000 C   0  0  0  0  0  0  0  0  0  0  0  0
    1.3806   -0.5459    0.0000 C   0  0  0  0  0  0  0  0  0  0  0  0
   -0.0483   -1.3710    0.0000 O   0  0  0  0  0  0  0  0  0  0  0  0
   -1.4772    0.2789    0.0000 O   0  0  0  0  0  0  0  0  0  0  0  0
   -2.1917   -0.9585    0.0000 O   0  0  0  0  0  0  0  0  0  0  0  0
    1.3806    0.2789    0.0000 O   0  0  0  0  0  0  0  0  0  0  0  0
    2.0951   -0.9585    0.0000 O   0  0  0  0  0  0  0  0  0  0  0  0
   -0.7627    0.6914    0.0000 O   0  0  0  0  0  0  0  0  0  0  0  0
    0.6661    0.6914    0.0000 O   0  0  0  0  0  0  0  0  0  0  0  0
    2.6242    0.1413    0.0000 Li  0  0  0  0  0 15  0  0  0  0  0  0
    0.0089    1.3710    0.0000 Li  0  0  0  0  0 15  0  0  0  0  0  0
   -2.6242    0.1451    0.0000 Li  0  0  0  0  0 15  0  0  0  0  0  0
  1  7  1  0
  1  2  1  0
  1  4  1  0
  2  3  1  0
  3  9  1  0
  3  8  2  0
  4 12  1  0
  4 13  2  0
  5  1  1  0
  6  5  1  0
  6 11  1  0
  6 10  2  0
M  CHG  6   9  -1  11  -1  12  -1  14   1  15   1  16   1
M  END
>  <DRUGBANK_ID>  (1) 
DB14507

>  <SECONDARY_ACCESSION_NUMBERS>  (1) 
DBSALT001430

>  <COMMON_NAME>  (1) 
Lithium citrate

>  <CAS_NUMBER>  (1) 
919-16-4

>  <UNII>  (1) 
3655633623

>  <SYNONYMS>  (1) 
Anhydrous lithium citrate; Citric acid, trilithium salt; Lithium citrate (anhydrous); Trilithium citrate

$$$$
