
     RDKit          2D

 38 40  0  0  1  0  0  0  0  0999 V2000
   -0.8923    0.5438    0.0000 C   0  0  0  0  0  0  0  0  0  0  0  0
   -0.1778    0.1313    0.0000 N   0  0  0  0  0  0  0  0  0  0  0  0
    0.5366    0.5438    0.0000 C   0  0  0  0  0  0  0  0  0  0  0  0
    1.2511    0.1313    0.0000 C   0  0  0  0  0  0  0  0  0  0  0  0
    1.2511   -0.6936    0.0000 C   0  0  0  0  0  0  0  0  0  0  0  0
    0.5366   -1.1062    0.0000 C   0  0  0  0  0  0  0  0  0  0  0  0
    0.5366   -1.9312    0.0000 C   0  0  0  0  0  0  0  0  0  0  0  0
   -0.1778   -2.3437    0.0000 C   0  0  0  0  0  0  0  0  0  0  0  0
   -0.8923   -1.9312    0.0000 C   0  0  0  0  0  0  0  0  0  0  0  0
   -0.8923   -1.1062    0.0000 C   0  0  0  0  0  0  0  0  0  0  0  0
   -0.1778   -0.6936    0.0000 C   0  0  0  0  0  0  0  0  0  0  0  0
    1.9656    0.5438    0.0000 N   0  0  0  0  0  0  0  0  0  0  0  0
    2.6801    0.1313    0.0000 C   0  0  0  0  0  0  0  0  0  0  0  0
    2.6801   -0.6936    0.0000 O   0  0  0  0  0  0  0  0  0  0  0  0
    3.3946    0.5438    0.0000 C   0  0  0  0  0  0  0  0  0  0  0  0
    4.1091    0.1313    0.0000 C   0  0  0  0  0  0  0  0  0  0  0  0
    4.8236    0.5438    0.0000 N   0  0  0  0  0  0  0  0  0  0  0  0
    4.8236    1.3688    0.0000 C   0  0  0  0  0  0  0  0  0  0  0  0
    4.1091    1.7814    0.0000 C   0  0  0  0  0  0  0  0  0  0  0  0
    3.3946    1.3688    0.0000 N   0  0  0  0  0  0  0  0  0  0  0  0
    0.5366    1.3688    0.0000 O   0  0  0  0  0  0  0  0  0  0  0  0
   -0.8923    1.3688    0.0000 C   0  0  0  0  0  0  0  0  0  0  0  0
   -1.6067    1.7814    0.0000 C   0  0  0  0  0  0  0  0  0  0  0  0
   -2.3213    1.3688    0.0000 C   0  0  0  0  0  0  0  0  0  0  0  0
   -1.6067    2.6063    0.0000 C   0  0  0  0  0  0  0  0  0  0  0  0
   -1.6067    0.1313    0.0000 B   0  0  0  0  0  0  0  0  0  0  0  0
   -1.6930   -0.6892    0.0000 O   0  0  0  0  0  0  0  0  0  0  0  0
   -2.5000   -0.8606    0.0000 C   0  0  0  0  0  0  0  0  0  0  0  0
   -2.9125   -0.1462    0.0000 C   0  0  0  0  0  0  0  0  0  0  0  0
   -2.3605    0.4668    0.0000 O   0  0  0  0  0  0  0  0  0  0  0  0
   -3.4645    0.4668    0.0000 C   0  0  0  0  0  0  0  0  0  0  0  0
   -4.2715    0.2953    0.0000 C   0  0  0  0  0  0  0  0  0  0  0  0
   -4.8236    0.9084    0.0000 O   0  0  0  0  0  0  0  0  0  0  0  0
   -3.2097    1.2515    0.0000 O   0  0  0  0  0  0  0  0  0  0  0  0
   -3.1840   -1.3220    0.0000 C   0  0  0  0  0  0  0  0  0  0  0  0
   -3.1264   -2.1450    0.0000 C   0  0  0  0  0  0  0  0  0  0  0  0
   -3.8104   -2.6063    0.0000 O   0  0  0  0  0  0  0  0  0  0  0  0
   -3.9255   -0.9604    0.0000 O   0  0  0  0  0  0  0  0  0  0  0  0
  1  2  1  0
  1 22  1  6
  1 26  1  0
  2  3  1  0
  3  4  1  0
  3 21  2  0
  4  5  1  1
  4 12  1  0
  5  6  1  0
  6  7  2  0
  6 11  1  0
  7  8  1  0
  8  9  2  0
 10  9  1  0
 11 10  2  0
 12 13  1  0
 13 14  2  0
 13 15  1  0
 15 16  2  0
 15 20  1  0
 16 17  1  0
 17 18  2  0
 19 18  1  0
 20 19  2  0
 22 23  1  0
 23 24  1  0
 23 25  1  0
 26 27  1  0
 26 30  1  0
 28 27  1  6
 28 29  1  0
 28 35  1  0
 29 31  1  0
 29 30  1  1
 31 32  1  0
 31 34  1  1
 32 33  1  0
 35 36  1  0
 35 38  1  1
 36 37  1  0
M  END
>  <DRUGBANK_ID>  (1) 
DB16741

>  <COMMON_NAME>  (1) 
Bortezomib D-mannitol

>  <CAS_NUMBER>  (1) 
444576-08-3

>  <UNII>  (1) 
P2AWN9VSQ6

>  <SYNONYMS>  (1) 
Bortezomib D-mannitol ester; Bortezomib D-mannitol symmetrical ester; Bortezomib mannitol boronic ester

$$$$
