
     RDKit          2D

 11 11  0  0  0  0  0  0  0  0999 V2000
    1.0588   -0.3970    0.0000 N   0  0  0  0  0  0  0  0  0  0  0  0
    1.6401   -0.7610    0.0000 N   0  0  0  0  0  0  0  0  0  0  0  0
    0.3498    0.8224    0.0000 C   0  0  0  0  0  0  0  0  0  0  0  0
   -0.3639    0.4018    0.0000 C   0  0  0  0  0  0  0  0  0  0  0  0
    1.0588    0.4018    0.0000 C   0  0  0  0  0  0  0  0  0  0  0  0
   -0.3639   -0.3970    0.0000 C   0  0  0  0  0  0  0  0  0  0  0  0
   -1.0541    0.7988    0.0000 C   0  0  0  0  0  0  0  0  0  0  0  0
    1.7772    0.8224    0.0000 C   0  0  0  0  0  0  0  0  0  0  0  0
   -1.0541   -0.8224    0.0000 C   0  0  0  0  0  0  0  0  0  0  0  0
   -1.7772    0.4018    0.0000 C   0  0  0  0  0  0  0  0  0  0  0  0
   -1.7772   -0.4254    0.0000 C   0  0  0  0  0  0  0  0  0  0  0  0
  2  1  1  0
  3  5  1  0
  4  3  1  0
  5  1  1  0
  6  4  2  0
  7  4  1  0
  8  5  1  0
  9  6  1  0
 10  7  2  0
 10 11  1  0
 11  9  2  0
M  END
>  <DRUGBANK_ID>  (1) 
DB09250

>  <COMMON_NAME>  (1) 
Pheniprazine

>  <CAS_NUMBER>  (1) 
55-52-7

>  <UNII>  (1) 
37VKD7067M

>  <SYNONYMS>  (1) 
Pheniprazine

$$$$
