
     RDKit          2D

 30 35  0  0  1  0  0  0  0  0999 V2000
    7.9311   -2.2716    0.0000 C   0  0  0  0  0  0  0  0  0  0  0  0
    8.6640   -1.8929    0.0000 C   0  0  0  0  0  0  0  0  0  0  0  0
    9.2507   -2.4728    0.0000 C   0  0  0  0  0  0  0  0  0  0  0  0
   10.0743   -2.4249    0.0000 C   0  0  0  0  0  0  0  0  0  0  0  0
   10.4446   -1.6877    0.0000 C   0  0  0  0  0  0  0  0  0  0  0  0
   11.2682   -1.6397    0.0000 C   0  0  0  0  0  0  0  0  0  0  0  0
   11.7215   -2.3290    0.0000 C   0  0  0  0  0  0  0  0  0  0  0  0
   12.5451   -2.2811    0.0000 C   0  0  0  0  0  0  0  0  0  0  0  0
   12.9984   -2.9704    0.0000 C   0  0  0  0  0  0  0  0  0  0  0  0
   13.8221   -2.9224    0.0000 O   0  0  0  0  0  0  0  0  0  0  0  0
   12.6282   -3.7076    0.0000 C   0  0  0  0  0  0  0  0  0  0  0  0
   11.8046   -3.7555    0.0000 C   0  0  0  0  0  0  0  0  0  0  0  0
   11.3512   -3.0662    0.0000 C   0  0  0  0  0  0  0  0  0  0  0  0
   10.9810   -3.8035    0.0000 C   0  0  0  0  0  0  0  0  0  0  0  0
   10.5276   -3.1142    0.0000 C   0  0  0  0  0  0  0  0  0  0  0  0
   10.1573   -3.8514    0.0000 C   0  0  0  0  0  0  0  0  0  0  0  0
    9.3337   -3.8994    0.0000 C   0  0  0  0  0  0  0  0  0  0  0  0
    8.8804   -3.2101    0.0000 C   0  0  0  0  0  0  0  0  0  0  0  0
    8.4351   -3.9046    0.0000 C   0  0  0  0  0  0  0  0  0  0  0  0
    8.0648   -3.0857    0.0000 C   0  0  0  0  0  0  0  0  0  0  0  0
    7.3319   -3.4645    0.0000 C   0  0  0  0  0  0  0  0  0  0  0  0
    7.2076   -4.2801    0.0000 C   0  0  0  0  0  0  0  0  0  0  0  0
    6.7452   -2.8845    0.0000 C   0  0  0  0  0  0  0  0  0  0  0  0
    6.4540   -3.6564    0.0000 C   0  0  0  0  0  0  0  0  0  0  0  0
    5.6399   -3.7902    0.0000 C   0  0  0  0  0  0  0  0  0  0  0  0
    5.1170   -3.1521    0.0000 C   0  0  0  0  0  0  0  0  0  0  0  0
    4.3030   -3.2858    0.0000 C   0  0  0  0  0  0  0  0  0  0  0  0
    5.4082   -2.3802    0.0000 C   0  0  0  0  0  0  0  0  0  0  0  0
    6.2223   -2.2464    0.0000 O   0  0  0  0  0  0  0  0  0  0  0  0
    7.1155   -2.1473    0.0000 O   0  0  0  0  0  0  0  0  0  0  0  0
  1  2  1  1
  1 30  1  0
  3  2  1  1
  3  4  1  0
  4  5  1  6
  4 15  1  0
  5  6  1  0
  7  6  1  6
  7  8  1  0
  9  8  1  0
  9 10  1  1
  9 11  1  0
 11 12  1  0
 13 12  1  0
 13  7  1  0
 13 14  1  1
 15 13  1  0
 15 16  1  1
 16 17  1  0
 18 17  1  0
 18  3  1  0
 18 19  1  1
 20 18  1  0
 20  1  1  1
 20 21  1  0
 21 22  1  6
 21 23  1  0
 23 24  1  1
 23 29  1  0
 23 30  1  0
 24 25  1  0
 26 25  1  0
 26 27  1  6
 26 28  1  0
 28 29  1  0
M  END
>  <DRUGBANK_ID>  (1) 
DB16928

>  <COMMON_NAME>  (1) 
Sarsagenin

>  <CAS_NUMBER>  (1) 
126-19-2

>  <UNII>  (1) 
CFS802C28F

>  <SYNONYMS>  (1) 
(3.beta.,5.beta.,25s)-spirostan-3-ol; Myogane; NSC 1615; NSC-1615; Parigenin; Pure sarsasapogenin; Sarsasapogenin; Spirostan-3-ol, (3.beta.,5.beta.,25s)-

$$$$
