
     RDKit          2D

 35 39  0  0  0  0  0  0  0  0999 V2000
    1.4907    0.0617    0.0000 C   0  0  0  0  0  0  0  0  0  0  0  0
    0.7061   -0.1931    0.0000 C   0  0  0  0  0  0  0  0  0  0  0  0
    1.9756   -0.6055    0.0000 C   0  0  0  0  0  0  0  0  0  0  0  0
    1.9756    0.7292    0.0000 O   0  0  0  0  0  0  0  0  0  0  0  0
    1.4044    0.8822    0.0000 C   0  0  0  0  0  0  0  0  0  0  0  0
    0.7061   -1.0181    0.0000 C   0  0  0  0  0  0  0  0  0  0  0  0
   -0.0083    0.2194    0.0000 C   0  0  0  0  0  0  0  0  0  0  0  0
    0.6918    0.6363    0.0000 C   0  0  0  0  0  0  0  0  0  0  0  0
    1.4907   -1.2730    0.0000 C   0  0  0  0  0  0  0  0  0  0  0  0
    2.7602   -0.3506    0.0000 O   0  0  0  0  0  0  0  0  0  0  0  0
    2.7602    0.4743    0.0000 C   0  0  0  0  0  0  0  0  0  0  0  0
   -0.0083   -1.4305    0.0000 C   0  0  0  0  0  0  0  0  0  0  0  0
   -0.7228   -0.1931    0.0000 C   0  0  0  0  0  0  0  0  0  0  0  0
    2.9318    1.2813    0.0000 C   0  0  0  0  0  0  0  0  0  0  0  0
    3.5807    0.3880    0.0000 C   0  0  0  0  0  0  0  0  0  0  0  0
   -0.7228   -1.0181    0.0000 C   0  0  0  0  0  0  0  0  0  0  0  0
   -0.0083   -2.2556    0.0000 C   0  0  0  0  0  0  0  0  0  0  0  0
   -1.4373    0.2194    0.0000 O   0  0  0  0  0  0  0  0  0  0  0  0
   -1.4373   -1.4305    0.0000 C   0  0  0  0  0  0  0  0  0  0  0  0
   -0.7185   -1.9082    0.0000 F   0  0  0  0  0  0  0  0  0  0  0  0
   -0.7228   -2.6681    0.0000 C   0  0  0  0  0  0  0  0  0  0  0  0
   -1.4373   -2.2556    0.0000 C   0  0  0  0  0  0  0  0  0  0  0  0
   -2.1517   -1.0181    0.0000 C   0  0  0  0  0  0  0  0  0  0  0  0
   -1.4730   -0.6283    0.0000 C   0  0  0  0  0  0  0  0  0  0  0  0
   -0.7228   -3.4931    0.0000 F   0  0  0  0  0  0  0  0  0  0  0  0
   -2.1517   -2.6681    0.0000 C   0  0  0  0  0  0  0  0  0  0  0  0
   -2.8662   -1.4305    0.0000 C   0  0  0  0  0  0  0  0  0  0  0  0
   -2.8662   -2.2556    0.0000 C   0  0  0  0  0  0  0  0  0  0  0  0
   -3.5807   -2.6681    0.0000 O   0  0  0  0  0  0  0  0  0  0  0  0
    0.7914    1.4342    0.0000 O   0  0  0  0  0  0  0  0  0  0  0  0
    2.0719    1.3672    0.0000 C   0  0  0  0  0  0  0  0  0  0  0  0
    1.9856    2.1876    0.0000 O   0  0  0  0  0  0  0  0  0  0  0  0
    2.6531    2.6726    0.0000 C   0  0  0  0  0  0  0  0  0  0  0  0
    2.5669    3.4931    0.0000 O   0  0  0  0  0  0  0  0  0  0  0  0
    3.4068    2.3371    0.0000 C   0  0  0  0  0  0  0  0  0  0  0  0
  1  2  1  0
  1  3  1  0
  1  4  1  0
  1  5  1  1
  2  8  1  1
  2  6  1  0
  2  7  1  0
  3  9  1  6
  3 10  1  0
  4 11  1  0
  5 30  2  0
  5 31  1  0
  6 12  1  0
  6  9  1  1
  7 13  1  0
 10 11  1  0
 11 14  1  0
 11 15  1  0
 12 16  1  0
 12 17  1  6
 13 18  1  1
 13 16  1  0
 16 19  1  0
 16 20  1  6
 17 21  1  0
 19 22  1  0
 19 23  1  0
 19 24  1  1
 21 25  1  6
 21 22  1  0
 22 26  2  0
 23 27  2  0
 26 28  1  0
 27 28  1  0
 28 29  2  0
 31 32  1  0
 32 33  1  0
 33 34  2  0
 33 35  1  0
M  END
>  <DRUGBANK_ID>  (1) 
DB01047

>  <SECONDARY_ACCESSION_NUMBERS>  (1) 
APRD00978

>  <COMMON_NAME>  (1) 
Fluocinonide

>  <CAS_NUMBER>  (1) 
356-12-7

>  <UNII>  (1) 
2W4A77YPAN

>  <SYNONYMS>  (1) 
Fluocinonida; Fluocinonide; Fluocinonido; Fluocinonidum

$$$$
