
     RDKit          2D

 20 22  0  0  0  0  0  0  0  0999 V2000
   -1.0717    2.4752    0.0000 C   0  0  0  0  0  0  0  0  0  0  0  0
   -1.7862    1.2375    0.0000 C   0  0  0  0  0  0  0  0  0  0  0  0
   -1.0717    0.8250    0.0000 C   0  0  0  0  0  0  0  0  0  0  0  0
   -0.3572    2.0627    0.0000 C   0  0  0  0  0  0  0  0  0  0  0  0
   -0.3572    1.2375    0.0000 C   0  0  0  0  0  0  0  0  0  0  0  0
    0.3572    2.4752    0.0000 C   0  0  0  0  0  0  0  0  0  0  0  0
    1.0717    1.2375    0.0000 C   0  0  0  0  0  0  0  0  0  0  0  0
    1.0717    2.0627    0.0000 C   0  0  0  0  0  0  0  0  0  0  0  0
   -1.7862    2.0627    0.0000 N   0  0  0  0  0  0  0  0  0  0  0  0
    0.3572    0.8250    0.0000 C   0  0  0  0  0  0  0  0  0  0  0  0
    1.1823    0.0000    0.0000 O   0  0  0  0  0  0  0  0  0  0  0  0
   -0.4677    0.0000    0.0000 O   0  0  0  0  0  0  0  0  0  0  0  0
    0.3572    0.0000    0.0000 S   0  0  0  0  0  0  0  0  0  0  0  0
   -0.3572   -1.2376    0.0000 C   0  0  0  0  0  0  0  0  0  0  0  0
   -0.3572   -2.0627    0.0000 C   0  0  0  0  0  0  0  0  0  0  0  0
    1.0717   -2.0627    0.0000 C   0  0  0  0  0  0  0  0  0  0  0  0
    0.3572   -0.8251    0.0000 N   0  0  0  0  0  0  0  0  0  0  0  0
    0.3572   -2.4752    0.0000 N   0  0  0  0  0  0  0  0  0  0  0  0
    1.0717   -1.2376    0.0000 C   0  0  0  0  0  0  0  0  0  0  0  0
    1.7862   -0.8251    0.0000 C   0  0  0  0  0  0  0  0  0  0  0  0
  1  9  2  0
  1  4  1  0
  2  3  2  0
  3  5  1  0
  5  4  2  0
  5 10  1  0
  6  4  1  0
  6  8  2  0
  7  8  1  0
  9  2  1  0
 10  7  2  0
 10 13  1  0
 13 11  2  0
 13 12  2  0
 13 17  1  0
 14 15  1  0
 15 18  1  0
 16 19  1  0
 17 14  1  0
 17 19  1  0
 18 16  1  0
 19 20  1  0
M  END
>  <DRUGBANK_ID>  (1) 
DB07996

>  <COMMON_NAME>  (1) 
5-(2-methylpiperazine-1-sulfonyl)isoquinoline

>  <CAS_NUMBER>  (1) 
84477-87-2

>  <UNII>  (1) 
487H9Q0F9N

>  <SYNONYMS>  (1) 
1-(5-Isoquinolinesulfonyl)-2-methylpiperazine; 1-(5-Isoquinolinylsulfonyl)-2-methylpiperazine

$$$$
