
     RDKit          2D

 11 12  0  0  0  0  0  0  0  0999 V2000
   -1.3492    0.4125    0.0000 N   0  0  0  0  0  0  0  0  0  0  0  0
   -1.3492   -0.4125    0.0000 C   0  0  0  0  0  0  0  0  0  0  0  0
    0.0797    0.4125    0.0000 C   0  0  0  0  0  0  0  0  0  0  0  0
    0.0797   -0.4125    0.0000 C   0  0  0  0  0  0  0  0  0  0  0  0
   -0.6347    0.8250    0.0000 C   0  0  0  0  0  0  0  0  0  0  0  0
   -0.6347   -0.8250    0.0000 N   0  0  0  0  0  0  0  0  0  0  0  0
    0.8643    0.6674    0.0000 N   0  0  0  0  0  0  0  0  0  0  0  0
   -0.6347    1.6500    0.0000 N   0  0  0  0  0  0  0  0  0  0  0  0
    1.3492    0.0000    0.0000 C   0  0  0  0  0  0  0  0  0  0  0  0
    0.8643   -0.6674    0.0000 N   0  0  0  0  0  0  0  0  0  0  0  0
   -0.6347   -1.6500    0.0000 C   0  0  0  0  0  0  0  0  0  0  0  0
  1  2  2  0
  3  7  1  0
  3  4  1  0
  3  5  2  0
  4 10  2  0
  4  6  1  0
  5  1  1  0
  5  8  1  0
  6  2  1  0
  6 11  1  0
  7  9  2  0
 10  9  1  0
M  END
>  <DRUGBANK_ID>  (1) 
DB04104

>  <SECONDARY_ACCESSION_NUMBERS>  (1) 
EXPT00431

>  <COMMON_NAME>  (1) 
3-Methyladenine

>  <CAS_NUMBER>  (1) 
5142-23-4

>  <UNII>  (1) 
DR88TV7SNU

>  <SYNONYMS>  (1) 
3-methyl-3H-adenine; 3-methyladenine; 6-amino-3-methylpurine

$$$$
