
     RDKit          2D

 31 34  0  0  0  0  0  0  0  0999 V2000
   -4.2250   -0.8575    0.0000 C   0  0  0  0  0  0  0  0  0  0  0  0
   -4.2250   -1.6523    0.0000 C   0  0  0  0  0  0  0  0  0  0  0  0
   -3.5138   -2.0288    0.0000 C   0  0  0  0  0  0  0  0  0  0  0  0
   -2.8027   -1.6523    0.0000 C   0  0  0  0  0  0  0  0  0  0  0  0
   -2.8027   -0.8575    0.0000 C   0  0  0  0  0  0  0  0  0  0  0  0
   -3.5138   -0.4392    0.0000 C   0  0  0  0  0  0  0  0  0  0  0  0
   -2.1334   -2.0288    0.0000 C   0  0  0  0  0  0  0  0  0  0  0  0
   -1.3804   -1.6523    0.0000 C   0  0  0  0  0  0  0  0  0  0  0  0
   -1.3804   -0.8575    0.0000 C   0  0  0  0  0  0  0  0  0  0  0  0
   -2.1334   -0.4392    0.0000 C   0  0  0  0  0  0  0  0  0  0  0  0
   -0.6693   -0.4392    0.0000 C   0  0  0  0  0  0  0  0  0  0  0  0
   -0.6693    0.3974    0.0000 C   0  0  0  0  0  0  0  0  0  0  0  0
   -1.3804    0.8157    0.0000 C   0  0  0  0  0  0  0  0  0  0  0  0
   -2.1334    0.3974    0.0000 C   0  0  0  0  0  0  0  0  0  0  0  0
   -4.9361   -2.0288    0.0000 O   0  0  0  0  0  0  0  0  0  0  0  0
   -2.8027   -0.0209    0.0000 C   0  0  0  0  0  0  0  0  0  0  0  0
   -0.6693    1.2340    0.0000 C   0  0  0  0  0  0  0  0  0  0  0  0
    0.7529   -0.4392    0.0000 C   0  0  0  0  0  0  0  0  0  0  0  0
    0.7529    0.3974    0.0000 C   0  0  0  0  0  0  0  0  0  0  0  0
    0.0418    0.8157    0.0000 C   0  0  0  0  0  0  0  0  0  0  0  0
    0.0418    1.6523    0.0000 C   0  0  0  0  0  0  0  0  0  0  0  0
   -0.6693    2.0288    0.0000 O   0  0  0  0  0  0  0  0  0  0  0  0
    0.7111    2.0288    0.0000 C   0  0  0  0  0  0  0  0  0  0  0  0
    0.7111    1.2340    0.0000 O   0  0  0  0  0  0  0  0  0  0  0  0
    1.4223    0.8157    0.0000 C   0  0  0  0  0  0  0  0  0  0  0  0
    2.1334    1.2340    0.0000 C   0  0  0  0  0  0  0  0  0  0  0  0
    1.4223   -0.0209    0.0000 O   0  0  0  0  0  0  0  0  0  0  0  0
    2.8445    0.8157    0.0000 C   0  0  0  0  0  0  0  0  0  0  0  0
    3.5556    1.2340    0.0000 C   0  0  0  0  0  0  0  0  0  0  0  0
    4.2250    0.8157    0.0000 C   0  0  0  0  0  0  0  0  0  0  0  0
    4.9361    1.2340    0.0000 C   0  0  0  0  0  0  0  0  0  0  0  0
  1  2  1  0
  1  6  1  0
  2  3  1  0
  2 15  2  0
  3  4  2  0
  4  5  1  0
  4  7  1  0
  5  6  1  0
  5 10  1  0
  5 16  1  1
  7  8  1  0
  9  8  1  6
  9 10  1  0
  9 11  1  0
 10 14  1  1
 11 12  1  0
 11 18  1  1
 12 13  1  0
 12 17  1  1
 12 20  1  0
 13 14  1  0
 18 19  1  0
 19 20  1  0
 20 21  1  0
 20 24  1  6
 21 22  2  0
 21 23  1  0
 24 25  1  0
 25 26  1  0
 25 27  2  0
 26 28  1  0
 28 29  1  0
 29 30  1  0
 30 31  1  0
M  END
>  <DRUGBANK_ID>  (1) 
DB06789

>  <COMMON_NAME>  (1) 
Hydroxyprogesterone caproate

>  <CAS_NUMBER>  (1) 
630-56-8

>  <UNII>  (1) 
276F2O42F5

>  <SYNONYMS>  (1) 
17-alpha-hydroxy-progesterone caproate; 17alpha-Caproyloxypregn-4-ene-3,20-dione; 17alpha-Hydroxyprogesterone hexanoate; Caproate d'hydroxyprogesterone; Caproato de hidroxiprogesterona; Hydroxyprogesterone caproate; Hydroxyprogesterone hexanoate

$$$$
