K7I
     RDKit          2D

 22 22  0  0  0  0  0  0  0  0999 V2000
    2.5133   -0.0175    0.0000 C   0  0  0  0  0  0  0  0  0  0  0  0
    3.3234    0.1384    0.0000 C   0  0  0  0  0  0  0  0  0  0  0  0
    3.8635   -0.4852    0.0000 C   0  0  0  0  0  0  0  0  0  0  0  0
    3.5934   -1.2648    0.0000 C   0  0  0  0  0  0  0  0  0  0  0  0
    2.7833   -1.4207    0.0000 C   0  0  0  0  0  0  0  0  0  0  0  0
    2.2432   -0.7970    0.0000 C   0  0  0  0  0  0  0  0  0  0  0  0
    1.4331   -0.9529    0.0000 C   0  0  0  0  0  0  0  0  0  0  0  0
    0.8930   -0.3293    0.0000 C   0  0  0  0  0  0  0  0  0  0  0  0
    0.6230    1.0739    0.0000 O   0  0  0  0  0  0  0  0  0  0  0  0
    0.0829   -0.4852    0.0000 N   0  0  0  0  0  0  0  0  0  0  0  0
   -0.4572    0.1384    0.0000 C   0  0  0  0  0  0  0  0  0  0  0  0
   -0.1872    0.9180    0.0000 O   0  0  0  0  0  0  0  0  0  0  0  0
   -1.2674   -0.0175    0.0000 C   0  0  0  0  0  0  0  0  0  0  0  0
   -1.5374   -0.7970    0.0000 C   0  0  0  0  0  0  0  0  0  0  0  0
   -1.8074    0.6062    0.0000 N   0  0  0  0  0  0  0  0  0  0  0  0
   -2.6176    0.4503    0.0000 C   0  0  0  0  0  0  0  0  0  0  0  0
   -2.8876   -0.3293    0.0000 O   0  0  0  0  0  0  0  0  0  0  0  0
   -3.1577    1.0739    0.0000 C   0  0  0  0  0  0  0  0  0  0  0  0
   -3.9678    0.9180    0.0000 C   0  0  0  0  0  0  0  0  0  0  0  0
   -2.8876    1.8534    0.0000 N   0  0  0  0  0  0  0  0  0  0  0  0
    1.1630    0.4503    0.0000 C   0  0  0  0  0  0  0  0  0  0  0  0
    1.9732    0.6062    0.0000 C   0  0  0  0  0  0  0  0  0  0  0  0
  1  2  2  0
  1  6  1  0
  2  3  1  0
  3  4  2  0
  4  5  1  0
  5  6  2  0
  6  7  1  0
  8  7  1  6
  8 10  1  0
  8 21  1  0
 10 11  1  0
 11 12  2  0
 11 13  1  0
 13 14  1  6
 13 15  1  0
 15 16  1  0
 16 17  2  0
 16 18  1  0
 18 19  1  6
 18 20  1  0
 21  9  1  0
 21 22  1  6
M  END
>  <DRUGBANK_ID>  (1) 
DB08038

>  <COMMON_NAME>  (1) 
L-alanyl-N-[(1S,2R)-1-benzyl-2-hydroxypropyl]-L-alaninamide

$$$$
