
     RDKit          2D

 33 36  0  0  0  0  0  0  0  0999 V2000
   -0.3652    1.9360    0.0000 N   0  0  0  0  0  0  0  0  0  0  0  0
    0.3496    1.5241    0.0000 C   0  0  0  0  0  0  0  0  0  0  0  0
    0.3496    0.7003    0.0000 C   0  0  0  0  0  0  0  0  0  0  0  0
   -0.3652    0.2838    0.0000 C   0  0  0  0  0  0  0  0  0  0  0  0
   -1.0802    0.7003    0.0000 C   0  0  0  0  0  0  0  0  0  0  0  0
   -1.7950    0.2838    0.0000 C   0  0  0  0  0  0  0  0  0  0  0  0
   -2.5052    0.7003    0.0000 C   0  0  0  0  0  0  0  0  0  0  0  0
   -2.5052    1.5241    0.0000 C   0  0  0  0  0  0  0  0  0  0  0  0
   -1.7950    1.9360    0.0000 C   0  0  0  0  0  0  0  0  0  0  0  0
   -1.0802    1.5241    0.0000 C   0  0  0  0  0  0  0  0  0  0  0  0
   -0.3652   -0.5399    0.0000 C   0  0  0  0  0  0  0  0  0  0  0  0
   -1.0802   -0.9518    0.0000 O   0  0  0  0  0  0  0  0  0  0  0  0
    0.3496   -0.9518    0.0000 N   0  0  0  0  0  0  0  0  0  0  0  0
    0.3496   -1.7757    0.0000 C   0  0  0  0  0  0  0  0  0  0  0  0
    1.0645   -2.1875    0.0000 C   0  0  0  0  0  0  0  0  0  0  0  0
    1.0645   -3.0113    0.0000 C   0  0  0  0  0  0  0  0  0  0  0  0
   -0.3652   -2.1875    0.0000 C   0  0  0  0  0  0  0  0  0  0  0  0
   -0.3652   -3.0113    0.0000 C   0  0  0  0  0  0  0  0  0  0  0  0
   -1.0802   -3.4232    0.0000 C   0  0  0  0  0  0  0  0  0  0  0  0
   -1.7950   -3.0113    0.0000 C   0  0  0  0  0  0  0  0  0  0  0  0
   -1.7950   -2.1875    0.0000 C   0  0  0  0  0  0  0  0  0  0  0  0
   -1.0802   -1.7757    0.0000 C   0  0  0  0  0  0  0  0  0  0  0  0
    1.0645    0.2838    0.0000 N   0  0  0  0  0  0  0  0  0  0  0  0
    1.7863    0.6968    0.0000 S   0  0  0  0  0  0  0  0  0  0  0  0
    2.5052    0.2781    0.0000 C   0  0  0  0  0  0  0  0  0  0  0  0
    2.2023    1.4172    0.0000 O   0  0  0  0  0  0  0  0  0  0  0  0
    1.3705    1.4172    0.0000 O   0  0  0  0  0  0  0  0  0  0  0  0
    1.0639    2.1854    0.0000 C   0  0  0  0  0  0  0  0  0  0  0  0
    1.0636    3.0104    0.0000 C   0  0  0  0  0  0  0  0  0  0  0  0
    1.7786    1.7732    0.0000 C   0  0  0  0  0  0  0  0  0  0  0  0
    1.7779    3.4232    0.0000 C   0  0  0  0  0  0  0  0  0  0  0  0
    2.4929    2.1860    0.0000 C   0  0  0  0  0  0  0  0  0  0  0  0
    2.4926    3.0111    0.0000 C   0  0  0  0  0  0  0  0  0  0  0  0
  1  2  2  0
  1 10  1  0
  2  3  1  0
  2 28  1  0
  3  4  2  0
  3 23  1  0
  4  5  1  0
  4 11  1  0
  5  6  1  0
  5 10  2  0
  6  7  2  0
  7  8  1  0
  8  9  2  0
  9 10  1  0
 11 12  2  0
 11 13  1  0
 14 13  1  0
 14 15  1  1
 14 17  1  0
 15 16  1  0
 17 18  2  0
 17 22  1  0
 18 19  1  0
 19 20  2  0
 20 21  1  0
 21 22  2  0
 23 24  1  0
 24 25  1  0
 24 26  2  0
 24 27  2  0
 29 28  2  0
 30 28  1  0
 31 29  1  0
 32 30  2  0
 33 31  2  0
 33 32  1  0
M  END
>  <DRUGBANK_ID>  (1) 
DB11692

>  <COMMON_NAME>  (1) 
Pavinetant

>  <CAS_NUMBER>  (1) 
941690-55-7

>  <UNII>  (1) 
3U471ZVC5K

>  <SYNONYMS>  (1) 
Pavinetant

$$$$
