OA2
     RDKit          2D

 23 25  0  0  0  0  0  0  0  0999 V2000
   -1.3725    0.0545    0.0000 O   0  0  0  0  0  0  0  0  0  0  0  0
   -0.6581   -0.3580    0.0000 C   0  0  0  0  0  0  0  0  0  0  0  0
   -0.6581   -1.1830    0.0000 C   0  0  0  0  0  0  0  0  0  0  0  0
   -1.3255   -1.6680    0.0000 O   0  0  0  0  0  0  0  0  0  0  0  0
   -1.0706   -2.4526    0.0000 C   0  0  0  0  0  0  0  0  0  0  0  0
   -1.5555   -3.1200    0.0000 N   0  0  0  0  0  0  0  0  0  0  0  0
   -0.2456   -2.4526    0.0000 N   0  0  0  0  0  0  0  0  0  0  0  0
    0.0094   -1.6680    0.0000 C   0  0  0  0  0  0  0  0  0  0  0  0
    0.0564    0.0545    0.0000 N   0  0  0  0  0  0  0  0  0  0  0  0
    0.0564    0.8795    0.0000 C   0  0  0  0  0  0  0  0  0  0  0  0
   -0.6581    1.2920    0.0000 C   0  0  0  0  0  0  0  0  0  0  0  0
   -1.3725    0.8795    0.0000 C   0  0  0  0  0  0  0  0  0  0  0  0
   -2.0870    1.2920    0.0000 C   0  0  0  0  0  0  0  0  0  0  0  0
   -2.0870    2.1170    0.0000 C   0  0  0  0  0  0  0  0  0  0  0  0
   -1.3725    2.5295    0.0000 C   0  0  0  0  0  0  0  0  0  0  0  0
   -0.6581    2.1170    0.0000 C   0  0  0  0  0  0  0  0  0  0  0  0
    0.7709   -0.3580    0.0000 C   0  0  0  0  0  0  0  0  0  0  0  0
    1.4853    0.0545    0.0000 C   0  0  0  0  0  0  0  0  0  0  0  0
    1.4853    0.8795    0.0000 C   0  0  0  0  0  0  0  0  0  0  0  0
    2.1998    1.2920    0.0000 C   0  0  0  0  0  0  0  0  0  0  0  0
    2.9143    0.8795    0.0000 C   0  0  0  0  0  0  0  0  0  0  0  0
    2.9143    0.0545    0.0000 C   0  0  0  0  0  0  0  0  0  0  0  0
    2.1998   -0.3580    0.0000 C   0  0  0  0  0  0  0  0  0  0  0  0
  1  2  2  0
  2  3  1  0
  2  9  1  0
  3  4  1  0
  3  8  2  0
  4  5  1  0
  5  6  1  0
  5  7  2  0
  7  8  1  0
  9 10  1  0
  9 17  1  0
 10 11  1  0
 11 12  2  0
 11 16  1  0
 12 13  1  0
 13 14  2  0
 14 15  1  0
 15 16  2  0
 17 18  1  0
 18 19  2  0
 18 23  1  0
 19 20  1  0
 20 21  2  0
 21 22  1  0
 22 23  2  0
M  END
>  <DRUGBANK_ID>  (1) 
DB08315

>  <COMMON_NAME>  (1) 
2-AMINO-N,N-BIS(PHENYLMETHYL)-1,3-OXAZOLE-5-CARBOXAMIDE

$$$$
