
     RDKit          2D

 15 16  0  0  0  0  0  0  0  0999 V2000
   -0.9805   -1.6723    0.0000 S   0  0  0  0  0  0  0  0  0  0  0  0
    1.6494   -0.2381    0.0000 O   0  0  0  0  0  0  0  0  0  0  0  0
   -1.1629    0.3800    0.0000 O   0  0  0  0  0  0  0  0  0  0  0  0
   -0.4788   -1.2212    0.0000 O   0  0  0  0  0  0  0  0  0  0  0  0
   -0.2457    2.1739    0.0000 O   0  0  0  0  0  0  0  0  0  0  0  0
   -1.8217   -0.6283    0.0000 O   0  0  0  0  0  0  0  0  0  0  0  0
   -1.4821   -2.1232    0.0000 O   0  0  0  0  0  0  0  0  0  0  0  0
   -1.4315   -1.1705    0.0000 O   0  0  0  0  0  0  0  0  0  0  0  0
   -0.5295   -2.1739    0.0000 O   0  0  0  0  0  0  0  0  0  0  0  0
    0.4129    0.2736    0.0000 C   0  0  0  0  0  0  0  0  0  0  0  0
    0.0937    1.5861    0.0000 C   0  0  0  0  0  0  0  0  0  0  0  0
    0.5903    0.9273    0.0000 C   0  0  0  0  0  0  0  0  0  0  0  0
   -0.6207   -0.5625    0.0000 C   0  0  0  0  0  0  0  0  0  0  0  0
    1.8217    0.4155    0.0000 C   0  0  0  0  0  0  0  0  0  0  0  0
   -1.2339   -0.2888    0.0000 C   0  0  0  0  0  0  0  0  0  0  0  0
  1  4  1  0
  1  7  1  0
  1  8  2  0
  1  9  2  0
 10  2  1  6
  2 14  1  0
  3 12  1  0
  3 15  1  0
 10 11  1  0
 10 13  1  0
 11  5  1  1
 11 12  1  0
 12 14  1  1
 13  4  1  1
 13 15  1  0
 15  6  1  1
M  END
>  <DRUGBANK_ID>  (1) 
DB01981

>  <SECONDARY_ACCESSION_NUMBERS>  (1) 
EXPT01183

>  <COMMON_NAME>  (1) 
3,6-Anhydro-2-(hydrogen sulfate)-alpha-D-galactopyranose

>  <CAS_NUMBER>  (1) 
96519-18-5

>  <UNII>  (1) 
1EE1TT025N

$$$$
