SU9
     RDKit          2D

 18 20  0  0  0  0  0  0  0  0999 V2000
   -1.9402   -1.7559    0.0000 N   0  0  0  0  0  0  0  0  0  0  0  0
   -2.7607   -1.6696    0.0000 C   0  0  0  0  0  0  0  0  0  0  0  0
   -2.9322   -0.8627    0.0000 N   0  0  0  0  0  0  0  0  0  0  0  0
   -2.2178   -0.4502    0.0000 C   0  0  0  0  0  0  0  0  0  0  0  0
   -1.6047   -1.0022    0.0000 C   0  0  0  0  0  0  0  0  0  0  0  0
   -0.7977   -0.8307    0.0000 C   0  0  0  0  0  0  0  0  0  0  0  0
   -0.5427   -0.0460    0.0000 C   0  0  0  0  0  0  0  0  0  0  0  0
   -1.0277    0.6214    0.0000 C   0  0  0  0  0  0  0  0  0  0  0  0
   -1.8527    0.6214    0.0000 O   0  0  0  0  0  0  0  0  0  0  0  0
   -0.5427    1.2888    0.0000 N   0  0  0  0  0  0  0  0  0  0  0  0
    0.2419    1.0339    0.0000 C   0  0  0  0  0  0  0  0  0  0  0  0
    0.9563    1.4464    0.0000 C   0  0  0  0  0  0  0  0  0  0  0  0
    1.6708    1.0339    0.0000 C   0  0  0  0  0  0  0  0  0  0  0  0
    1.6708    0.2089    0.0000 C   0  0  0  0  0  0  0  0  0  0  0  0
    2.3853   -0.2036    0.0000 O   0  0  0  0  0  0  0  0  0  0  0  0
    3.0998    0.2089    0.0000 C   0  0  0  0  0  0  0  0  0  0  0  0
    0.9563   -0.2036    0.0000 C   0  0  0  0  0  0  0  0  0  0  0  0
    0.2419    0.2089    0.0000 C   0  0  0  0  0  0  0  0  0  0  0  0
  1  2  1  0
  1  5  1  0
  2  3  2  0
  3  4  1  0
  4  5  2  0
  5  6  1  0
  6  7  2  0
  7  8  1  0
  7 18  1  0
  8  9  2  0
  8 10  1  0
 10 11  1  0
 11 12  1  0
 11 18  2  0
 12 13  2  0
 13 14  1  0
 14 15  1  0
 14 17  2  0
 15 16  1  0
 17 18  1  0
M  END
>  <DRUGBANK_ID>  (1) 
DB03428

>  <SECONDARY_ACCESSION_NUMBERS>  (1) 
EXPT02974

>  <COMMON_NAME>  (1) 
SU9516

>  <UNII>  (1) 
FD2SWT2SDI

$$$$
