
     RDKit          2D

 30 33  0  0  0  0  0  0  0  0999 V2000
   -0.3922   -1.9837    0.0000 C   0  0  0  0  0  0  0  0  0  0  0  0
   -1.1068   -2.3961    0.0000 C   0  0  0  0  0  0  0  0  0  0  0  0
   -1.8212   -1.9837    0.0000 C   0  0  0  0  0  0  0  0  0  0  0  0
   -2.5357   -2.3961    0.0000 C   0  0  0  0  0  0  0  0  0  0  0  0
   -3.2503   -1.1587    0.0000 C   0  0  0  0  0  0  0  0  0  0  0  0
   -2.5357   -0.7462    0.0000 C   0  0  0  0  0  0  0  0  0  0  0  0
   -0.3922    0.4912    0.0000 C   0  0  0  0  0  0  0  0  0  0  0  0
    1.5916   -0.3337    0.0000 C   0  0  0  0  0  0  0  0  0  0  0  0
    1.1067   -1.0011    0.0000 C   0  0  0  0  0  0  0  0  0  0  0  0
   -1.1068   -0.7462    0.0000 C   0  0  0  0  0  0  0  0  0  0  0  0
    0.3221   -0.7462    0.0000 C   0  0  0  0  0  0  0  0  0  0  0  0
   -0.3922   -1.1587    0.0000 C   0  0  0  0  0  0  0  0  0  0  0  0
    0.3221    0.0787    0.0000 C   0  0  0  0  0  0  0  0  0  0  0  0
    1.1067    0.3337    0.0000 C   0  0  0  0  0  0  0  0  0  0  0  0
   -3.2503   -1.9837    0.0000 C   0  0  0  0  0  0  0  0  0  0  0  0
   -3.9647   -2.3962    0.0000 O   0  0  0  0  0  0  0  0  0  0  0  0
   -1.1068    0.0787    0.0000 C   0  0  0  0  0  0  0  0  0  0  0  0
   -1.8213    0.4912    0.0000 O   0  0  0  0  0  0  0  0  0  0  0  0
    1.1067    1.1587    0.0000 C   0  0  0  0  0  0  0  0  0  0  0  0
    0.3923    1.5712    0.0000 O   0  0  0  0  0  0  0  0  0  0  0  0
    1.8213    1.5712    0.0000 C   0  0  0  0  0  0  0  0  0  0  0  0
    2.5357    1.1587    0.0000 O   0  0  0  0  0  0  0  0  0  0  0  0
    1.8213    0.7462    0.0000 O   0  0  0  0  0  0  0  0  0  0  0  0
    0.3221    0.9037    0.0000 C   0  0  0  0  0  0  0  0  0  0  0  0
   -1.8212   -1.1587    0.0000 C   0  0  0  0  0  0  0  0  0  0  0  0
   -1.8212   -0.3337    0.0000 C   0  0  0  0  0  0  0  0  0  0  0  0
    3.2503    1.5712    0.0000 P   0  0  0  0  0  0  0  0  0  0  0  0
    3.9647    1.1587    0.0000 O   0  0  0  0  0  0  0  0  0  0  0  0
    3.2503    2.3962    0.0000 O   0  0  0  0  0  0  0  0  0  0  0  0
    3.4638    0.7743    0.0000 O   0  0  0  0  0  0  0  0  0  0  0  0
  1  2  1  0
  2  3  1  0
  3  4  2  0
  3 25  1  0
  4 15  1  0
  5  6  1  0
  6 25  1  0
  7 13  1  0
  8  9  1  0
 11  9  1  1
 10 17  1  1
 12  1  1  6
 12 10  1  0
 12 11  1  0
 13 11  1  0
 13 14  1  0
 13 24  1  1
 14  8  1  0
 14 23  1  6
 14 19  1  0
 15  5  1  0
 15 16  2  0
 17  7  1  0
 17 18  1  1
 19 21  1  0
 19 20  2  0
 21 22  1  0
 22 27  1  0
 25 10  1  0
 25 26  1  1
 27 28  1  0
 27 29  2  0
 27 30  1  0
M  END
>  <DRUGBANK_ID>  (1) 
DB14542

>  <SECONDARY_ACCESSION_NUMBERS>  (1) 
DBSALT002214

>  <COMMON_NAME>  (1) 
Hydrocortisone phosphate

>  <CAS_NUMBER>  (1) 
3863-59-0

>  <UNII>  (1) 
2Y87E22X71

>  <SYNONYMS>  (1) 
Cortisol 21-phosphate; Hydrocortisone 21-phosphate

$$$$
