
     RDKit          2D

 16 17  0  0  0  0  0  0  0  0999 V2000
   -3.6603    4.1047    0.0000 C   0  0  0  0  0  0  0  0  0  0  0  0
   -3.4888    3.2977    0.0000 C   0  0  0  0  0  0  0  0  0  0  0  0
   -4.6164    5.1666    0.0000 C   0  0  0  0  0  0  0  0  0  0  0  0
   -5.0580    3.8076    0.0000 C   0  0  0  0  0  0  0  0  0  0  0  0
   -5.4011    5.4215    0.0000 C   0  0  0  0  0  0  0  0  0  0  0  0
   -5.8426    4.0625    0.0000 C   0  0  0  0  0  0  0  0  0  0  0  0
   -1.3693    3.0428    0.0000 C   0  0  0  0  0  0  0  0  0  0  0  0
   -2.4492    2.2581    0.0000 C   0  0  0  0  0  0  0  0  0  0  0  0
   -2.0367    3.5277    0.0000 C   0  0  0  0  0  0  0  0  0  0  0  0
   -1.6242    2.2581    0.0000 N   0  0  0  0  0  0  0  0  0  0  0  0
   -4.4449    4.3596    0.0000 N   0  0  0  0  0  0  0  0  0  0  0  0
   -2.7041    3.0428    0.0000 N   0  0  0  0  0  0  0  0  0  0  0  0
   -2.0367    4.3527    0.0000 N   0  0  0  0  0  0  0  0  0  0  0  0
   -1.3222    4.7652    0.0000 O   0  0  0  0  0  0  0  0  0  0  0  0
   -2.7512    4.7652    0.0000 O   0  0  0  0  0  0  0  0  0  0  0  0
   -6.0142    4.8695    0.0000 O   0  0  0  0  0  0  0  0  0  0  0  0
  2  1  1  0
  5  3  1  0
  6  4  1  0
  9  7  2  0
 10  7  1  0
 10  8  2  0
 11  1  1  0
 11  3  1  0
 11  4  1  0
 12  2  1  0
 12  8  1  0
 12  9  1  0
 13  9  1  0
 14 13  1  0
 15 13  2  0
 16  5  1  0
 16  6  1  0
M  CHG  2  13   1  14  -1
M  END
>  <DRUGBANK_ID>  (1) 
DB12172

>  <COMMON_NAME>  (1) 
Nimorazole

>  <CAS_NUMBER>  (1) 
6506-37-2

>  <UNII>  (1) 
469ULX0H4G

>  <SYNONYMS>  (1) 
Nimorazole

$$$$
