
     RDKit          2D

 30 34  0  0  1  0  0  0  0  0999 V2000
    0.4259   -5.4126    0.0000 C   0  0  0  0  0  0  0  0  0  0  0  0
    0.1168   -4.6477    0.0000 C   0  0  0  0  0  0  0  0  0  0  0  0
    0.6247   -3.9976    0.0000 C   0  0  0  0  0  0  0  0  0  0  0  0
    0.8797   -3.2130    0.0000 C   0  0  0  0  0  0  0  0  0  0  0  0
    0.0727   -3.3845    0.0000 C   0  0  0  0  0  0  0  0  0  0  0  0
   -0.3398   -2.6700    0.0000 C   0  0  0  0  0  0  0  0  0  0  0  0
    0.2122   -2.0569    0.0000 N   0  0  0  0  0  0  0  0  0  0  0  0
    0.9659   -2.3925    0.0000 C   0  0  0  0  0  0  0  0  0  0  0  0
    0.0407   -1.2500    0.0000 C   0  0  0  0  0  0  0  0  0  0  0  0
    0.6538   -0.6979    0.0000 C   0  0  0  0  0  0  0  0  0  0  0  0
    1.1387   -0.0305    0.0000 C   0  0  0  0  0  0  0  0  0  0  0  0
    1.9233   -0.2854    0.0000 C   0  0  0  0  0  0  0  0  0  0  0  0
    2.6378    0.1271    0.0000 C   0  0  0  0  0  0  0  0  0  0  0  0
    3.3523   -0.2854    0.0000 C   0  0  0  0  0  0  0  0  0  0  0  0
    3.3523   -1.1104    0.0000 C   0  0  0  0  0  0  0  0  0  0  0  0
    2.6378   -1.5229    0.0000 C   0  0  0  0  0  0  0  0  0  0  0  0
    1.9233   -1.1104    0.0000 C   0  0  0  0  0  0  0  0  0  0  0  0
    1.1387   -1.3654    0.0000 C   0  0  0  0  0  0  0  0  0  0  0  0
    0.0407   -0.1459    0.0000 O   0  0  0  0  0  0  0  0  0  0  0  0
    1.3532   -4.3849    0.0000 C   0  0  0  0  0  0  0  0  0  0  0  0
    2.0528   -3.9477    0.0000 C   0  0  0  0  0  0  0  0  0  0  0  0
    2.7812   -4.3351    0.0000 C   0  0  0  0  0  0  0  0  0  0  0  0
    2.8100   -5.1595    0.0000 C   0  0  0  0  0  0  0  0  0  0  0  0
    2.1104   -5.5967    0.0000 C   0  0  0  0  0  0  0  0  0  0  0  0
    1.3820   -5.2094    0.0000 C   0  0  0  0  0  0  0  0  0  0  0  0
    2.1392   -6.4212    0.0000 N   0  0  0  0  0  0  0  0  0  0  0  0
    2.8676   -6.8085    0.0000 S   0  0  0  0  0  0  0  0  0  0  0  0
    3.5960   -7.1959    0.0000 O   0  0  0  0  0  0  0  0  0  0  0  0
    2.4803   -7.5370    0.0000 O   0  0  0  0  0  0  0  0  0  0  0  0
    3.2549   -6.0801    0.0000 C   0  0  0  0  0  0  0  0  0  0  0  0
  1  2  1  0
  3  2  1  1
  3  4  1  0
  3  5  1  0
  3 20  1  0
  4  5  1  0
  4  8  1  1
  5  6  1  1
  6  7  1  0
  7  8  1  0
  7  9  1  0
  9 10  1  0
 10 11  1  0
 10 18  1  0
 10 19  1  0
 11 12  1  0
 12 13  1  0
 12 17  2  0
 13 14  2  0
 14 15  1  0
 15 16  2  0
 16 17  1  0
 17 18  1  0
 20 21  2  0
 20 25  1  0
 21 22  1  0
 22 23  2  0
 23 24  1  0
 24 25  2  0
 24 26  1  0
 26 27  1  0
 27 28  2  0
 27 29  2  0
 27 30  1  0
M  END
>  <DRUGBANK_ID>  (1) 
DB12196

>  <COMMON_NAME>  (1) 
CP-866087

>  <CAS_NUMBER>  (1) 
519052-02-9

>  <UNII>  (1) 
MDH21334PI

$$$$
