
     RDKit          2D

 39 41  0  0  1  0  0  0  0  0999 V2000
    4.4449    5.8498    0.0000 N   0  0  0  0  0  0  0  0  0  0  0  0
    5.2699    5.8498    0.0000 C   0  0  0  0  0  0  0  0  0  0  0  0
    5.6824    6.5643    0.0000 N   0  0  0  0  0  0  0  0  0  0  0  0
    5.6824    5.1354    0.0000 C   0  0  0  0  0  0  0  0  0  0  0  0
    6.5074    5.1354    0.0000 C   0  0  0  0  0  0  0  0  0  0  0  0
    6.9199    4.4209    0.0000 C   0  0  0  0  0  0  0  0  0  0  0  0
    6.5074    3.7064    0.0000 C   0  0  0  0  0  0  0  0  0  0  0  0
    6.9199    2.9920    0.0000 C   0  0  0  0  0  0  0  0  0  0  0  0
    6.5074    2.2775    0.0000 N   0  0  0  0  0  0  0  0  0  0  0  0
    6.9199    1.5630    0.0000 C   0  0  0  0  0  0  0  0  0  0  0  0
    7.7449    1.5630    0.0000 O   0  0  0  0  0  0  0  0  0  0  0  0
    6.5074    0.8485    0.0000 C   0  0  0  0  0  0  0  0  0  0  0  0
    5.6824    0.8485    0.0000 C   0  0  0  0  0  0  0  0  0  0  0  0
    5.2699    0.1341    0.0000 C   0  0  0  0  0  0  0  0  0  0  0  0
    4.4449    0.1341    0.0000 C   0  0  0  0  0  0  0  0  0  0  0  0
    4.0324   -0.5804    0.0000 N   0  0  0  0  0  0  0  0  0  0  0  0
    4.0324    0.8485    0.0000 O   0  0  0  0  0  0  0  0  0  0  0  0
    6.9199    0.1341    0.0000 N   0  0  0  0  0  0  0  0  0  0  0  0
    6.5074   -0.5804    0.0000 C   0  0  0  0  0  0  0  0  0  0  0  0
    5.6824   -0.5804    0.0000 O   0  0  0  0  0  0  0  0  0  0  0  0
    6.9199   -1.2949    0.0000 C   0  0  0  0  0  0  0  0  0  0  0  0
    6.5074   -2.0093    0.0000 C   0  0  0  0  0  0  0  0  0  0  0  0
    6.9199   -2.7238    0.0000 C   0  0  0  0  0  0  0  0  0  0  0  0
    7.7404   -2.8100    0.0000 C   0  0  0  0  0  0  0  0  0  0  0  0
    7.9119   -3.6170    0.0000 N   0  0  0  0  0  0  0  0  0  0  0  0
    7.1975   -4.0295    0.0000 C   0  0  0  0  0  0  0  0  0  0  0  0
    7.0259   -4.8365    0.0000 C   0  0  0  0  0  0  0  0  0  0  0  0
    6.2413   -5.0914    0.0000 C   0  0  0  0  0  0  0  0  0  0  0  0
    5.6282   -4.5394    0.0000 C   0  0  0  0  0  0  0  0  0  0  0  0
    5.7997   -3.7324    0.0000 C   0  0  0  0  0  0  0  0  0  0  0  0
    6.5844   -3.4775    0.0000 C   0  0  0  0  0  0  0  0  0  0  0  0
    7.7449   -1.2949    0.0000 N   0  0  0  0  0  0  0  0  0  0  0  0
    8.1574   -0.5804    0.0000 S   0  0  0  0  0  0  0  0  0  0  0  0
    7.4430   -0.1679    0.0000 O   0  0  0  0  0  0  0  0  0  0  0  0
    8.8719   -0.9929    0.0000 O   0  0  0  0  0  0  0  0  0  0  0  0
    8.5699    0.1341    0.0000 C   0  0  0  0  0  0  0  0  0  0  0  0
    9.3949    0.1341    0.0000 C   0  0  0  0  0  0  0  0  0  0  0  0
    5.6824    3.7064    0.0000 C   0  0  0  0  0  0  0  0  0  0  0  0
    5.2699    4.4209    0.0000 C   0  0  0  0  0  0  0  0  0  0  0  0
  1  2  2  0
  2  3  1  0
  2  4  1  0
  4  5  2  0
  4 39  1  0
  5  6  1  0
  6  7  2  0
  7  8  1  0
  7 38  1  0
  8  9  1  0
  9 10  1  0
 10 11  2  0
 10 12  1  0
 12 13  1  1
 12 18  1  0
 13 14  1  0
 14 15  1  0
 15 16  1  0
 15 17  2  0
 18 19  1  0
 19 20  2  0
 19 21  1  0
 21 22  1  6
 21 32  1  0
 22 23  1  0
 23 24  2  0
 23 31  1  0
 24 25  1  0
 25 26  1  0
 26 27  1  0
 26 31  2  0
 27 28  2  0
 28 29  1  0
 29 30  2  0
 30 31  1  0
 32 33  1  0
 33 34  2  0
 33 35  2  0
 33 36  1  0
 36 37  1  0
 38 39  2  0
M  END
>  <DRUGBANK_ID>  (1) 
DB04758

>  <COMMON_NAME>  (1) 
2-[2-ETHANESULFONYLAMINO-3-(1H-INDOL-3-YL)-PROPIONYLAMINO]-PENTANEDIOIC ACID 5-AMIDE 1-(4-CARBAMIM IDOYL-BENZYLAMIDE)

$$$$
