FOH
     RDKit          2D

 16 15  0  0  0  0  0  0  0  0999 V2000
   -1.9455   -0.7271    0.0000 C   0  0  0  0  0  0  0  0  0  0  0  0
   -1.1206   -0.7271    0.0000 C   0  0  0  0  0  0  0  0  0  0  0  0
   -0.7081   -0.0126    0.0000 C   0  0  0  0  0  0  0  0  0  0  0  0
   -0.7081   -1.4414    0.0000 C   0  0  0  0  0  0  0  0  0  0  0  0
    0.1169   -1.4414    0.0000 C   0  0  0  0  0  0  0  0  0  0  0  0
    0.5293   -0.7271    0.0000 C   0  0  0  0  0  0  0  0  0  0  0  0
    1.3543   -0.7271    0.0000 C   0  0  0  0  0  0  0  0  0  0  0  0
    1.7668   -1.4414    0.0000 C   0  0  0  0  0  0  0  0  0  0  0  0
    1.7668   -0.0126    0.0000 C   0  0  0  0  0  0  0  0  0  0  0  0
    1.3543    0.7019    0.0000 C   0  0  0  0  0  0  0  0  0  0  0  0
    0.5293    0.7019    0.0000 C   0  0  0  0  0  0  0  0  0  0  0  0
    0.1169    1.4162    0.0000 C   0  0  0  0  0  0  0  0  0  0  0  0
    0.5293    2.1307    0.0000 C   0  0  0  0  0  0  0  0  0  0  0  0
   -0.7081    1.4162    0.0000 C   0  0  0  0  0  0  0  0  0  0  0  0
   -1.1206    0.7019    0.0000 C   0  0  0  0  0  0  0  0  0  0  0  0
   -1.9455    0.7019    0.0000 O   0  0  0  0  0  0  0  0  0  0  0  0
  1  2  1  0
  2  3  1  0
  2  4  2  3
  4  5  1  0
  5  6  1  0
  6  7  1  0
  7  8  1  0
  7  9  2  0
  9 10  1  0
 10 11  1  0
 11 12  1  0
 12 13  1  0
 12 14  2  0
 14 15  1  0
 15 16  1  0
M  END
>  <DRUGBANK_ID>  (1) 
DB02509

>  <SECONDARY_ACCESSION_NUMBERS>  (1) 
EXPT01466

>  <COMMON_NAME>  (1) 
Farnesol

>  <CAS_NUMBER>  (1) 
4602-84-0

>  <UNII>  (1) 
J03523NK03

$$$$
