796
     RDKit          2D

 28 30  0  0  0  0  0  0  0  0999 V2000
    0.1224    1.0199    0.0000 O   0  0  0  0  0  0  0  0  0  0  0  0
    0.1224    0.1950    0.0000 C   0  0  0  0  0  0  0  0  0  0  0  0
    0.8368   -0.2174    0.0000 C   0  0  0  0  0  0  0  0  0  0  0  0
    1.5905    0.1181    0.0000 S   0  0  0  0  0  0  0  0  0  0  0  0
    0.9231   -1.0380    0.0000 C   0  0  0  0  0  0  0  0  0  0  0  0
    1.7300   -1.2095    0.0000 C   0  0  0  0  0  0  0  0  0  0  0  0
    2.1426   -0.4949    0.0000 C   0  0  0  0  0  0  0  0  0  0  0  0
    2.9631   -0.4087    0.0000 C   0  0  0  0  0  0  0  0  0  0  0  0
    3.2987    0.3449    0.0000 C   0  0  0  0  0  0  0  0  0  0  0  0
    3.4479   -1.0761    0.0000 N   0  0  0  0  0  0  0  0  0  0  0  0
    4.2684   -0.9899    0.0000 C   0  0  0  0  0  0  0  0  0  0  0  0
    4.7534   -1.6574    0.0000 N   0  0  0  0  0  0  0  0  0  0  0  0
    5.5739   -1.5712    0.0000 C   0  0  0  0  0  0  0  0  0  0  0  0
    4.6041   -0.2362    0.0000 N   0  0  0  0  0  0  0  0  0  0  0  0
    4.1192    0.4311    0.0000 C   0  0  0  0  0  0  0  0  0  0  0  0
   -0.5920   -0.2174    0.0000 N   0  0  0  0  0  0  0  0  0  0  0  0
   -1.3065    0.1950    0.0000 C   0  0  0  0  0  0  0  0  0  0  0  0
   -1.3065    1.0199    0.0000 C   0  0  0  0  0  0  0  0  0  0  0  0
   -0.5920    1.4325    0.0000 N   0  0  0  0  0  0  0  0  0  0  0  0
   -2.0210   -0.2174    0.0000 C   0  0  0  0  0  0  0  0  0  0  0  0
   -2.7354    0.1950    0.0000 C   0  0  0  0  0  0  0  0  0  0  0  0
   -3.4498   -0.2174    0.0000 C   0  0  0  0  0  0  0  0  0  0  0  0
   -4.1644    0.1950    0.0000 C   0  0  0  0  0  0  0  0  0  0  0  0
   -4.1644    1.0199    0.0000 C   0  0  0  0  0  0  0  0  0  0  0  0
   -4.8788    1.4325    0.0000 Cl  0  0  0  0  0  0  0  0  0  0  0  0
   -3.4498    1.4325    0.0000 C   0  0  0  0  0  0  0  0  0  0  0  0
   -2.7354    1.0199    0.0000 C   0  0  0  0  0  0  0  0  0  0  0  0
   -2.0210    1.4325    0.0000 Cl  0  0  0  0  0  0  0  0  0  0  0  0
  1  2  2  0
  2  3  1  0
  2 16  1  0
  3  4  1  0
  3  5  2  0
  4  7  1  0
  5  6  1  0
  6  7  2  0
  7  8  1  0
  8  9  2  0
  8 10  1  0
  9 15  1  0
 10 11  2  0
 11 12  1  0
 11 14  1  0
 12 13  1  0
 14 15  2  0
 17 16  1  0
 17 18  1  1
 17 20  1  0
 18 19  1  0
 20 21  1  0
 21 22  2  0
 21 27  1  0
 22 23  1  0
 23 24  2  0
 24 25  1  0
 24 26  1  0
 26 27  2  0
 27 28  1  0
M  END
>  <DRUGBANK_ID>  (1) 
DB07235

>  <COMMON_NAME>  (1) 
N-[(1S)-2-AMINO-1-(2,4-DICHLOROBENZYL)ETHYL]-5-[2-(METHYLAMINO)PYRIMIDIN-4-YL]THIOPHENE-2-CARBOXAMIDE

$$$$
