D25
     RDKit          2D

 16 18  0  0  0  0  0  0  0  0999 V2000
  -18.9023    6.7752    0.0000 C   0  0  0  0  0  0  0  0  0  0  0  0
  -18.2349    6.2903    0.0000 C   0  0  0  0  0  0  0  0  0  0  0  0
  -17.4502    6.5452    0.0000 C   0  0  0  0  0  0  0  0  0  0  0  0
  -17.1953    7.3299    0.0000 C   0  0  0  0  0  0  0  0  0  0  0  0
  -19.5697    6.2903    0.0000 C   0  0  0  0  0  0  0  0  0  0  0  0
  -16.7828    6.0603    0.0000 O   0  0  0  0  0  0  0  0  0  0  0  0
  -16.1154    6.5452    0.0000 N   0  0  0  0  0  0  0  0  0  0  0  0
  -16.3703    7.3299    0.0000 C   0  0  0  0  0  0  0  0  0  0  0  0
  -15.8854    7.9973    0.0000 C   0  0  0  0  0  0  0  0  0  0  0  0
  -16.2209    8.7510    0.0000 C   0  0  0  0  0  0  0  0  0  0  0  0
  -15.7360    9.4184    0.0000 C   0  0  0  0  0  0  0  0  0  0  0  0
  -14.9155    9.3322    0.0000 C   0  0  0  0  0  0  0  0  0  0  0  0
  -14.5800    8.5785    0.0000 C   0  0  0  0  0  0  0  0  0  0  0  0
  -15.0649    7.9111    0.0000 C   0  0  0  0  0  0  0  0  0  0  0  0
  -18.4898    5.5057    0.0000 N   0  0  0  0  0  0  0  0  0  0  0  0
  -19.3148    5.5057    0.0000 N   0  0  0  0  0  0  0  0  0  0  0  0
  1  2  1  0
  1  5  2  0
  2  3  1  0
  2 15  2  0
  3  4  2  0
  3  6  1  0
  4  8  1  0
  5 16  1  0
  6  7  1  0
  7  8  2  0
  8  9  1  0
  9 10  2  0
  9 14  1  0
 10 11  1  0
 11 12  2  0
 12 13  1  0
 13 14  2  0
 15 16  1  0
M  END
>  <DRUGBANK_ID>  (1) 
DB07613

>  <COMMON_NAME>  (1) 
3-phenyl-5-(1H-pyrazol-3-yl)isoxazole

$$$$
