
     RDKit          2D

 18 19  0  0  0  0  0  0  0  0999 V2000
    1.5827   -0.1169    0.0000 C   0  0  0  0  0  0  0  0  0  0  0  0
    2.4031   -0.2032    0.0000 C   0  0  0  0  0  0  0  0  0  0  0  0
    2.5748   -1.0102    0.0000 N   0  0  0  0  0  0  0  0  0  0  0  0
    1.8601   -1.4227    0.0000 S   0  0  0  0  0  0  0  0  0  0  0  0
    1.2470   -0.8706    0.0000 N   0  0  0  0  0  0  0  0  0  0  0  0
   -0.8926    1.3121    0.0000 C   0  0  0  0  0  0  0  0  0  0  0  0
   -1.7176    1.3121    0.0000 C   0  0  0  0  0  0  0  0  0  0  0  0
   -2.1303    0.5977    0.0000 C   0  0  0  0  0  0  0  0  0  0  0  0
   -1.7176   -0.1169    0.0000 C   0  0  0  0  0  0  0  0  0  0  0  0
   -0.8926   -0.1169    0.0000 C   0  0  0  0  0  0  0  0  0  0  0  0
   -0.4800    0.5977    0.0000 C   0  0  0  0  0  0  0  0  0  0  0  0
   -2.9553    0.5977    0.0000 N   0  0  0  0  0  0  0  0  0  0  0  0
    0.3450    0.5977    0.0000 S   0  0  0  0  0  0  0  0  0  0  0  0
    0.3450   -0.2273    0.0000 O   0  0  0  0  0  0  0  0  0  0  0  0
    0.3450    1.4227    0.0000 O   0  0  0  0  0  0  0  0  0  0  0  0
    1.1701    0.5977    0.0000 N   0  0  0  0  0  0  0  0  0  0  0  0
    2.9554    0.4099    0.0000 O   0  0  0  0  0  0  0  0  0  0  0  0
    2.7003    1.1947    0.0000 C   0  0  0  0  0  0  0  0  0  0  0  0
  1  2  1  0
  2  3  2  0
  2 17  1  0
  3  4  1  0
  4  5  1  0
  5  1  2  0
  6 11  2  0
  6  7  1  0
  7  8  2  0
  8  9  1  0
  8 12  1  0
  9 10  2  0
 10 11  1  0
 11 13  1  0
 13 14  2  0
 13 15  2  0
 13 16  1  0
 16  1  1  0
 17 18  1  0
M  END
>  <DRUGBANK_ID>  (1) 
DB15975

>  <COMMON_NAME>  (1) 
Sulfametrole

>  <CAS_NUMBER>  (1) 
32909-92-5

>  <UNII>  (1) 
F5AK41IPQG

>  <SYNONYMS>  (1) 
Sulfametrole

$$$$
