
     RDKit          2D

  1  0  0  0  0  0  0  0  0  0999 V2000
    0.0000    0.0000    0.0000 Co  0  0  0  0  0 15  0  0  0  0  0  0
M  END
>  <DRUGBANK_ID>  (1) 
DB14574

>  <COMMON_NAME>  (1) 
Cobalt

>  <CAS_NUMBER>  (1) 
7440-48-4

>  <UNII>  (1) 
3G0H8C9362

>  <SYNONYMS>  (1) 
Cobalt; Cobalt, elemental; Cobalto; Cobaltum; Kobalt

$$$$
