SB8
     RDKit          2D

 21 22  0  0  0  0  0  0  0  0999 V2000
   -1.3912   -0.2789    0.0000 C   0  0  0  0  0  0  0  0  0  0  0  0
   -0.6767    0.1336    0.0000 C   0  0  0  0  0  0  0  0  0  0  0  0
    0.0377   -0.2789    0.0000 C   0  0  0  0  0  0  0  0  0  0  0  0
    0.0377   -1.1039    0.0000 C   0  0  0  0  0  0  0  0  0  0  0  0
   -0.6767   -1.5164    0.0000 C   0  0  0  0  0  0  0  0  0  0  0  0
   -1.3912   -1.1039    0.0000 C   0  0  0  0  0  0  0  0  0  0  0  0
   -0.6767    0.9586    0.0000 C   0  0  0  0  0  0  0  0  0  0  0  0
    0.0377    1.3711    0.0000 O   0  0  0  0  0  0  0  0  0  0  0  0
   -1.3912    1.3711    0.0000 C   0  0  0  0  0  0  0  0  0  0  0  0
   -2.1057    0.9586    0.0000 C   0  0  0  0  0  0  0  0  0  0  0  0
   -2.8202    1.3711    0.0000 C   0  0  0  0  0  0  0  0  0  0  0  0
   -2.8202    2.1961    0.0000 C   0  0  0  0  0  0  0  0  0  0  0  0
   -2.1057    2.6086    0.0000 C   0  0  0  0  0  0  0  0  0  0  0  0
   -1.3912    2.1961    0.0000 C   0  0  0  0  0  0  0  0  0  0  0  0
    0.7522   -1.5164    0.0000 O   0  0  0  0  0  0  0  0  0  0  0  0
    1.4667   -1.1039    0.0000 C   0  0  0  0  0  0  0  0  0  0  0  0
    2.1811   -1.5164    0.0000 C   0  0  0  0  0  0  0  0  0  0  0  0
    2.8956   -1.1039    0.0000 N   0  0  0  0  0  0  0  0  0  0  0  0
    2.8956   -0.2789    0.0000 O   0  0  0  0  0  0  0  0  0  0  0  0
    3.6101   -1.5164    0.0000 C   0  0  0  0  0  0  0  0  0  0  0  0
    4.3245   -1.1039    0.0000 O   0  0  0  0  0  0  0  0  0  0  0  0
  1  2  2  0
  1  6  1  0
  2  3  1  0
  2  7  1  0
  3  4  2  0
  4  5  1  0
  4 15  1  0
  5  6  2  0
  7  8  2  0
  7  9  1  0
  9 10  2  0
  9 14  1  0
 10 11  1  0
 11 12  2  0
 12 13  1  0
 13 14  2  0
 15 16  1  0
 16 17  1  0
 17 18  1  0
 18 19  1  0
 18 20  1  0
 20 21  2  0
M  END
>  <DRUGBANK_ID>  (1) 
DB08524

>  <COMMON_NAME>  (1) 
2-(3-BENZOYLPHENOXY)ETHYL(HYDROXY)FORMAMIDE

$$$$
