
     RDKit          2D

 10  9  0  0  1  0  0  0  0  0999 V2000
   -0.4903   -4.1950    0.0000 O   0  0  0  0  0  0  0  0  0  0  0  0
   -0.4903   -3.3700    0.0000 C   0  0  0  0  0  0  0  0  0  0  0  0
   -1.2048   -2.9575    0.0000 C   0  0  0  0  0  0  0  0  0  0  0  0
   -1.9193   -3.3700    0.0000 C   0  0  0  0  0  0  0  0  0  0  0  0
   -2.6337   -2.9575    0.0000 C   0  0  0  0  0  0  0  0  0  0  0  0
   -2.6337   -2.1325    0.0000 O   0  0  0  0  0  0  0  0  0  0  0  0
    0.2241   -2.9575    0.0000 C   0  0  0  0  0  0  0  0  0  0  0  0
    0.2241   -2.1325    0.0000 O   0  0  0  0  0  0  0  0  0  0  0  0
    0.9385   -3.3701    0.0000 O   0  0  0  0  0  0  0  0  0  0  0  0
   -3.3481   -3.3700    0.0000 O   0  0  0  0  0  0  0  0  0  0  0  0
  2  3  1  0
  2  7  1  0
  2  1  2  0
  3  4  1  0
  4  5  1  0
  5  6  2  0
  5 10  1  0
  7  8  2  0
  7  9  1  0
M  END
>  <DRUGBANK_ID>  (1) 
DB08845

>  <SECONDARY_ACCESSION_NUMBERS>  (1) 
DB02926; DB03806; EXPT00137

>  <COMMON_NAME>  (1) 
Oxogluric acid

>  <CAS_NUMBER>  (1) 
328-50-7

>  <UNII>  (1) 
8ID597Z82X

>  <SYNONYMS>  (1) 
2-Ketoglutaric acid; 2-oxoglutaric acid; 2-oxopentanedioic acid; alpha-Ketoglutaric acid; Ketoglutaric acid; Oxoglurate; Î±-Ketoglutarate

$$$$
