PTC
     RDKit          2D

 21 22  0  0  0  0  0  0  0  0999 V2000
   -1.6785    0.0421    0.0000 C   0  0  0  0  0  0  0  0  0  0  0  0
   -1.6785   -0.7829    0.0000 O   0  0  0  0  0  0  0  0  0  0  0  0
   -2.3930    0.4546    0.0000 N   0  0  0  0  0  0  0  0  0  0  0  0
   -3.1074    0.0421    0.0000 C   0  0  0  0  0  0  0  0  0  0  0  0
   -0.5515    1.1691    0.0000 C   0  0  0  0  0  0  0  0  0  0  0  0
   -0.5515    1.9941    0.0000 C   0  0  0  0  0  0  0  0  0  0  0  0
   -1.2660    2.4066    0.0000 O   0  0  0  0  0  0  0  0  0  0  0  0
   -0.1390    0.4546    0.0000 C   0  0  0  0  0  0  0  0  0  0  0  0
    0.5755    0.0421    0.0000 C   0  0  0  0  0  0  0  0  0  0  0  0
    1.2899    0.4546    0.0000 C   0  0  0  0  0  0  0  0  0  0  0  0
    0.5755   -0.7829    0.0000 C   0  0  0  0  0  0  0  0  0  0  0  0
    2.0044    0.0421    0.0000 C   0  0  0  0  0  0  0  0  0  0  0  0
    1.2899   -1.1954    0.0000 C   0  0  0  0  0  0  0  0  0  0  0  0
    2.0044   -0.7829    0.0000 C   0  0  0  0  0  0  0  0  0  0  0  0
    2.7189   -1.1954    0.0000 O   0  0  0  0  0  0  0  0  0  0  0  0
   -0.9640    0.4546    0.0000 C   0  0  0  0  0  0  0  0  0  0  0  0
    3.4333   -0.7829    0.0000 P   0  0  0  0  0  0  0  0  0  0  0  0
    4.1478   -0.3704    0.0000 O   0  0  0  0  0  0  0  0  0  0  0  0
    3.8458   -1.4973    0.0000 O   0  0  0  0  0  0  0  0  0  0  0  0
    3.0208   -0.0684    0.0000 O   0  0  0  0  0  0  0  0  0  0  0  0
    0.1630    2.4066    0.0000 O   0  0  0  0  0  0  0  0  0  0  0  0
  1  2  2  0
  1  3  1  0
  3  4  1  0
  5  6  1  6
  5  8  1  0
  5 16  1  0
  6  7  2  0
  6 21  1  0
  8  9  1  1
  8 16  1  0
  9 10  2  0
  9 11  1  0
 10 12  1  0
 11 13  2  0
 12 14  2  0
 13 14  1  0
 14 15  1  0
 15 17  1  0
 16  1  1  1
 17 18  2  0
 17 19  1  0
 17 20  1  0
M  END
>  <DRUGBANK_ID>  (1) 
DB08434

>  <COMMON_NAME>  (1) 
2-METHYLCARBAMOYL-3-(4-PHOSPHONOOXY-PHENYL)-CYCLOPROPANECARBOXYLIC ACID

$$$$
