
     RDKit          2D

 31 34  0  0  0  0  0  0  0  0999 V2000
    0.4609    0.9193    0.0000 N   0  0  0  0  0  0  0  0  0  0  0  0
   -0.3260    1.1678    0.0000 C   0  0  0  0  0  0  0  0  0  0  0  0
   -0.5080    1.9608    0.0000 N   0  0  0  0  0  0  0  0  0  0  0  0
    0.1089    2.5447    0.0000 C   0  0  0  0  0  0  0  0  0  0  0  0
    0.8957    2.2963    0.0000 C   0  0  0  0  0  0  0  0  0  0  0  0
    1.0654    1.4639    0.0000 C   0  0  0  0  0  0  0  0  0  0  0  0
    1.8523    1.2153    0.0000 N   0  0  0  0  0  0  0  0  0  0  0  0
    1.5003    2.8407    0.0000 N   0  0  0  0  0  0  0  0  0  0  0  0
   -0.0731    3.3376    0.0000 N   0  0  0  0  0  0  0  0  0  0  0  0
   -0.9305    0.6233    0.0000 C   0  0  0  0  0  0  0  0  0  0  0  0
   -1.3673   -0.6231    0.0000 N   0  0  0  0  0  0  0  0  0  0  0  0
   -2.0010   -0.1634    0.0000 C   0  0  0  0  0  0  0  0  0  0  0  0
   -1.7526    0.6233    0.0000 C   0  0  0  0  0  0  0  0  0  0  0  0
   -0.6574   -0.1552    0.0000 N   0  0  0  0  0  0  0  0  0  0  0  0
   -2.8209   -0.2939    0.0000 N   0  0  0  0  0  0  0  0  0  0  0  0
   -3.3655    0.3107    0.0000 C   0  0  0  0  0  0  0  0  0  0  0  0
   -3.1171    1.0974    0.0000 C   0  0  0  0  0  0  0  0  0  0  0  0
   -2.2847    1.2673    0.0000 C   0  0  0  0  0  0  0  0  0  0  0  0
   -1.1853   -1.4162    0.0000 C   0  0  0  0  0  0  0  0  0  0  0  0
   -1.7898   -1.9607    0.0000 C   0  0  0  0  0  0  0  0  0  0  0  0
   -1.6078   -2.7538    0.0000 C   0  0  0  0  0  0  0  0  0  0  0  0
   -2.2248   -3.3376    0.0000 C   0  0  0  0  0  0  0  0  0  0  0  0
   -3.0116   -3.0891    0.0000 C   0  0  0  0  0  0  0  0  0  0  0  0
   -3.1937   -2.2961    0.0000 C   0  0  0  0  0  0  0  0  0  0  0  0
   -2.5767   -1.7121    0.0000 C   0  0  0  0  0  0  0  0  0  0  0  0
   -3.6526    1.6921    0.0000 F   0  0  0  0  0  0  0  0  0  0  0  0
   -0.8289   -2.9892    0.0000 F   0  0  0  0  0  0  0  0  0  0  0  0
    2.2741    2.5894    0.0000 C   0  0  0  0  0  0  0  0  0  0  0  0
    2.4435    1.7935    0.0000 O   0  0  0  0  0  0  0  0  0  0  0  0
    2.8788    3.1339    0.0000 O   0  0  0  0  0  0  0  0  0  0  0  0
    3.6526    2.8826    0.0000 C   0  0  0  0  0  0  0  0  0  0  0  0
  1  2  2  0
  1  6  1  0
  2  3  1  0
  2 10  1  0
  3  4  2  0
  4  5  1  0
  4  9  1  0
  5  6  2  0
  5  8  1  0
  6  7  1  0
  8 28  1  0
 10 14  2  0
 11 12  1  0
 11 14  1  0
 12 13  2  0
 12 15  1  0
 13 10  1  0
 13 18  1  0
 15 16  2  0
 16 17  1  0
 17 18  2  0
 17 26  1  0
 19 11  1  0
 19 20  1  0
 20 21  2  0
 20 25  1  0
 21 22  1  0
 21 27  1  0
 22 23  2  0
 23 24  1  0
 24 25  2  0
 28 29  2  0
 28 30  1  0
 30 31  1  0
M  END
>  <DRUGBANK_ID>  (1) 
DB15456

>  <COMMON_NAME>  (1) 
Vericiguat

>  <CAS_NUMBER>  (1) 
1350653-20-1

>  <UNII>  (1) 
LV66ADM269

>  <SYNONYMS>  (1) 
Vericiguat; VÃ©riciguat; Vericiguatum

$$$$
