[NO NAME]
     RDKit          2D

  7  5  0  0  0  0  0  0  0  0999 V2000
    1.8719    1.7490    0.0000 C   0  0  0  0  0  0  0  0  0  0  0  0
    1.1575    0.5115    0.0000 C   0  0  0  0  0  0  0  0  0  0  0  0
    1.1575    1.3365    0.0000 C   0  0  0  0  0  0  0  0  0  0  0  0
    2.6061    0.0180    0.0000 N   0  0  0  0  0  0  0  0  0  0  0  0
    1.8719    2.5740    0.0000 O   0  0  0  0  0  0  0  0  0  0  0  0
    2.5864    1.3365    0.0000 O   0  0  0  0  0  0  0  0  0  0  0  0
    0.4429    1.7490    0.0000 O   0  0  0  0  0  0  0  0  0  0  0  0
  3  1  1  0
  3  2  1  0
  5  1  2  0
  6  1  1  0
  7  3  1  0
M  CHG  2   4   1   6  -1
M  END
>  <DRUGBANK_ID>  (1) 
DB06768

>  <COMMON_NAME>  (1) 
Ammonium lactate

>  <CAS_NUMBER>  (1) 
515-98-0

>  <UNII>  (1) 
67M901L9NQ

>  <SYNONYMS>  (1) 
Ammonium (+-)-lactate; Ammonium lactate; Lactic acid ammonium salt

$$$$
