DT5
     RDKit          2D

 27 30  0  0  0  0  0  0  0  0999 V2000
   -4.4474   -2.6703    0.0000 N   0  0  0  0  0  0  0  0  0  0  0  0
   -3.7329   -2.2578    0.0000 S   0  0  0  0  0  0  0  0  0  0  0  0
   -3.3204   -2.9722    0.0000 O   0  0  0  0  0  0  0  0  0  0  0  0
   -4.1454   -1.5433    0.0000 O   0  0  0  0  0  0  0  0  0  0  0  0
   -3.0185   -1.8453    0.0000 C   0  0  0  0  0  0  0  0  0  0  0  0
   -3.0185   -1.0203    0.0000 C   0  0  0  0  0  0  0  0  0  0  0  0
   -2.3040   -2.2578    0.0000 C   0  0  0  0  0  0  0  0  0  0  0  0
   -1.5895   -1.8453    0.0000 C   0  0  0  0  0  0  0  0  0  0  0  0
   -2.3040   -0.6078    0.0000 C   0  0  0  0  0  0  0  0  0  0  0  0
   -1.5895   -1.0203    0.0000 C   0  0  0  0  0  0  0  0  0  0  0  0
   -0.8751   -0.6078    0.0000 N   0  0  0  0  0  0  0  0  0  0  0  0
   -0.8751    0.2172    0.0000 C   0  0  0  0  0  0  0  0  0  0  0  0
   -1.5895    0.6297    0.0000 N   0  0  0  0  0  0  0  0  0  0  0  0
   -1.5895    1.4547    0.0000 C   0  0  0  0  0  0  0  0  0  0  0  0
   -0.8751    1.8672    0.0000 N   0  0  0  0  0  0  0  0  0  0  0  0
   -2.3741    1.7097    0.0000 N   0  0  0  0  0  0  0  0  0  0  0  0
   -2.8591    1.0422    0.0000 C   0  0  0  0  0  0  0  0  0  0  0  0
   -2.3741    0.3748    0.0000 N   0  0  0  0  0  0  0  0  0  0  0  0
   -0.1606    0.6297    0.0000 C   0  0  0  0  0  0  0  0  0  0  0  0
   -0.1606    1.4547    0.0000 C   0  0  0  0  0  0  0  0  0  0  0  0
    0.5539    1.8672    0.0000 O   0  0  0  0  0  0  0  0  0  0  0  0
    1.2684    1.4547    0.0000 C   0  0  0  0  0  0  0  0  0  0  0  0
    1.9828    1.8672    0.0000 C   0  0  0  0  0  0  0  0  0  0  0  0
    2.6973    1.4547    0.0000 C   0  0  0  0  0  0  0  0  0  0  0  0
    2.6973    0.6297    0.0000 C   0  0  0  0  0  0  0  0  0  0  0  0
    1.9828    0.2172    0.0000 C   0  0  0  0  0  0  0  0  0  0  0  0
    1.2684    0.6297    0.0000 C   0  0  0  0  0  0  0  0  0  0  0  0
  1  2  1  0
  2  3  2  0
  2  4  2  0
  2  5  1  0
  5  6  2  0
  5  7  1  0
  6  9  1  0
  7  8  2  0
  8 10  1  0
  9 10  2  0
 10 11  1  0
 11 12  1  0
 12 13  1  0
 12 19  2  0
 13 14  1  0
 13 18  1  0
 14 15  1  0
 14 16  2  0
 15 20  2  0
 16 17  1  0
 17 18  2  0
 19 20  1  0
 20 21  1  0
 21 22  1  0
 22 23  1  0
 22 27  1  0
 23 24  1  0
 24 25  1  0
 25 26  1  0
 26 27  1  0
M  END
>  <DRUGBANK_ID>  (1) 
DB07688

>  <COMMON_NAME>  (1) 
4-{[5-(CYCLOHEXYLOXY)[1,2,4]TRIAZOLO[1,5-A]PYRIMIDIN-7-YL]AMINO}BENZENESULFONAMIDE

$$$$
