
     RDKit          2D

 38 40  0  0  1  0  0  0  0  0999 V2000
    4.9482   11.5285    0.0000 C   0  0  0  0  0  0  0  0  0  0  0  0
    4.3031   11.0141    0.0000 C   0  0  0  0  0  0  0  0  0  0  0  0
    3.5352   11.3155    0.0000 C   0  0  0  0  0  0  0  0  0  0  0  0
    2.8902   10.8011    0.0000 C   0  0  0  0  0  0  0  0  0  0  0  0
    3.0131    9.9854    0.0000 C   0  0  0  0  0  0  0  0  0  0  0  0
    3.4779    9.3037    0.0000 C   0  0  0  0  0  0  0  0  0  0  0  0
    3.2347    8.5154    0.0000 S   0  0  0  0  0  0  0  0  0  0  0  0
    4.0574    8.4537    0.0000 O   0  0  0  0  0  0  0  0  0  0  0  0
    3.3576    7.6996    0.0000 O   0  0  0  0  0  0  0  0  0  0  0  0
    2.4667    8.2140    0.0000 C   0  0  0  0  0  0  0  0  0  0  0  0
    2.4667    7.3890    0.0000 C   0  0  0  0  0  0  0  0  0  0  0  0
    1.7522    6.9765    0.0000 C   0  0  0  0  0  0  0  0  0  0  0  0
    1.0378    7.3890    0.0000 C   0  0  0  0  0  0  0  0  0  0  0  0
    1.0378    8.2140    0.0000 C   0  0  0  0  0  0  0  0  0  0  0  0
    1.7522    8.6265    0.0000 C   0  0  0  0  0  0  0  0  0  0  0  0
    1.6293    9.4422    0.0000 C   0  0  0  0  0  0  0  0  0  0  0  0
    2.1904   10.0470    0.0000 N   0  0  0  0  0  0  0  0  0  0  0  0
    0.8409    9.6854    0.0000 C   0  0  0  0  0  0  0  0  0  0  0  0
    0.2362    9.1243    0.0000 C   0  0  0  0  0  0  0  0  0  0  0  0
   -0.5522    9.3674    0.0000 C   0  0  0  0  0  0  0  0  0  0  0  0
   -0.7358   10.1718    0.0000 C   0  0  0  0  0  0  0  0  0  0  0  0
   -0.1310   10.7329    0.0000 C   0  0  0  0  0  0  0  0  0  0  0  0
    0.6574   10.4897    0.0000 C   0  0  0  0  0  0  0  0  0  0  0  0
    0.3233    6.9765    0.0000 O   0  0  0  0  0  0  0  0  0  0  0  0
   -0.3912    7.3890    0.0000 C   0  0  0  0  0  0  0  0  0  0  0  0
    1.7522    6.1515    0.0000 C   0  0  0  0  0  0  0  0  0  0  0  0
    2.4667    5.7390    0.0000 N   0  0  0  0  0  0  0  0  0  0  0  0
    2.4667    4.9140    0.0000 C   0  0  0  0  0  0  0  0  0  0  0  0
    1.7522    4.5015    0.0000 C   0  0  0  0  0  0  0  0  0  0  0  0
    1.0378    4.9140    0.0000 C   0  0  0  0  0  0  0  0  0  0  0  0
    0.3233    4.5015    0.0000 O   0  0  0  0  0  0  0  0  0  0  0  0
    1.0378    5.7390    0.0000 O   0  0  0  0  0  0  0  0  0  0  0  0
    3.1812    4.5015    0.0000 C   0  0  0  0  0  0  0  0  0  0  0  0
    3.8957    4.9140    0.0000 C   0  0  0  0  0  0  0  0  0  0  0  0
    3.8957    5.7390    0.0000 O   0  0  0  0  0  0  0  0  0  0  0  0
    4.6101    4.5015    0.0000 O   0  0  0  0  0  0  0  0  0  0  0  0
    3.7811   10.2868    0.0000 C   0  0  0  0  0  0  0  0  0  0  0  0
    4.4261    9.7724    0.0000 C   0  0  0  0  0  0  0  0  0  0  0  0
  1  2  1  0
  2  3  1  0
  3  4  1  0
  5  4  1  6
  5  6  1  0
  5 17  1  0
  5 37  1  0
  6  7  1  0
  7  8  2  0
  7  9  2  0
  7 10  1  0
 10 11  2  0
 10 15  1  0
 11 12  1  0
 12 13  2  0
 12 26  1  0
 13 14  1  0
 13 24  1  0
 14 15  2  0
 15 16  1  0
 16 17  1  0
 16 18  1  1
 18 19  2  0
 18 23  1  0
 19 20  1  0
 20 21  2  0
 21 22  1  0
 22 23  2  0
 24 25  1  0
 26 27  1  0
 27 28  1  0
 28 29  1  0
 28 33  1  0
 29 30  1  0
 30 31  2  0
 30 32  1  0
 33 34  1  0
 34 35  2  0
 34 36  1  0
 37 38  1  0
M  END
>  <DRUGBANK_ID>  (1) 
DB11729

>  <COMMON_NAME>  (1) 
Linerixibat

>  <CAS_NUMBER>  (1) 
1345982-69-5

>  <UNII>  (1) 
386012Z45S

>  <SYNONYMS>  (1) 
3-((((3R,5R)-3-BUTYL-3-ETHYL-7-METHOXY-1,1-DIOXO-5-PHENYL-2,3,4,5-TETRAHYDRO- 1H-1.LAMBDA.6,4-BENZOTHIAZEPIN-8-YL)METHYL)AMINO)PENTANEDIOIC ACID; PENTANEDIOIC ACID, 3-((((3R,5R)-3-BUTYL-3-ETHYL-2,3,4,5-TETRAHYDRO-7-METHOXY-1,1-DIOXIDO-5-PHENYL-1,4-BENZOTHIAZEPIN-8-YL)METHYL)AMINO)-

$$$$
