
     RDKit          2D

 22 25  0  0  0  0  0  0  0  0999 V2000
    1.8213   -0.3823    0.0000 C   0  0  0  0  0  0  0  0  0  0  0  0
    0.3221   -1.3650    0.0000 C   0  0  0  0  0  0  0  0  0  0  0  0
    1.8213    0.9525    0.0000 C   0  0  0  0  0  0  0  0  0  0  0  0
    0.3221    1.1100    0.0000 C   0  0  0  0  0  0  0  0  0  0  0  0
    2.3061    0.2850    0.0000 C   0  0  0  0  0  0  0  0  0  0  0  0
   -1.1068   -0.5399    0.0000 C   0  0  0  0  0  0  0  0  0  0  0  0
   -0.3923    0.6975    0.0000 C   0  0  0  0  0  0  0  0  0  0  0  0
   -0.3923   -1.7775    0.0000 C   0  0  0  0  0  0  0  0  0  0  0  0
   -1.1068   -1.3650    0.0000 C   0  0  0  0  0  0  0  0  0  0  0  0
   -1.8213   -0.1274    0.0000 C   0  0  0  0  0  0  0  0  0  0  0  0
   -1.8213   -1.7775    0.0000 C   0  0  0  0  0  0  0  0  0  0  0  0
   -2.5357   -0.5399    0.0000 C   0  0  0  0  0  0  0  0  0  0  0  0
    0.3221   -0.5399    0.0000 C   0  0  0  0  0  0  0  0  0  0  0  0
   -0.3923   -0.1274    0.0000 C   0  0  0  0  0  0  0  0  0  0  0  0
    1.0365    0.6975    0.0000 C   0  0  0  0  0  0  0  0  0  0  0  0
    1.0365    1.5225    0.0000 C   0  0  0  0  0  0  0  0  0  0  0  0
    1.0365   -0.1274    0.0000 C   0  0  0  0  0  0  0  0  0  0  0  0
   -3.2502   -1.7775    0.0000 O   0  0  0  0  0  0  0  0  0  0  0  0
   -2.5357   -1.3650    0.0000 C   0  0  0  0  0  0  0  0  0  0  0  0
    2.5358    1.3650    0.0000 C   0  0  0  0  0  0  0  0  0  0  0  0
    1.8213    1.7775    0.0000 O   0  0  0  0  0  0  0  0  0  0  0  0
    3.2502    1.7775    0.0000 C   0  0  0  0  0  0  0  0  0  0  0  0
  2  8  1  0
  3  5  1  0
  3 20  1  0
  3 21  1  1
  4  7  1  0
  5  1  1  0
  6  9  1  0
  6 10  1  6
  8  9  1  0
  9 11  2  0
 10 12  1  0
 11 19  1  0
 12 19  1  0
 13 14  1  0
 13  2  1  6
 14  6  1  0
 14  7  1  1
 15  3  1  0
 15  4  1  0
 15 16  1  1
 17 13  1  0
 17 15  1  0
 17  1  1  1
 19 18  1  1
 20 22  3  0
M  END
>  <DRUGBANK_ID>  (1) 
DB13866

>  <COMMON_NAME>  (1) 
Etynodiol

>  <CAS_NUMBER>  (1) 
1231-93-2

>  <UNII>  (1) 
9E01C36A9S

>  <SYNONYMS>  (1) 
(3β,17α)-19-Norpregn-4-en-20-yne-3,17-diol; 17α-Ethynyl-19-norandrost-4-ene-3β,17β-diol; 3β-hydroxynorethisterone; Aethynodiolum; Ethinodiol; Ethynodiol; Etinodiol; étynodiol; Etynodiol; Etynodiolum

$$$$
