34O
     RDKit          2D

 25 28  0  0  0  0  0  0  0  0999 V2000
   -4.7466   -0.2806    0.0000 C   0  0  0  0  0  0  0  0  0  0  0  0
   -1.3337    0.5444    0.0000 C   0  0  0  0  0  0  0  0  0  0  0  0
   -3.4771   -0.6931    0.0000 C   0  0  0  0  0  0  0  0  0  0  0  0
   -3.4771    0.1319    0.0000 C   0  0  0  0  0  0  0  0  0  0  0  0
   -2.7626    0.5444    0.0000 C   0  0  0  0  0  0  0  0  0  0  0  0
   -2.7626   -1.1056    0.0000 C   0  0  0  0  0  0  0  0  0  0  0  0
   -2.0481   -0.6931    0.0000 C   0  0  0  0  0  0  0  0  0  0  0  0
   -2.0481    0.1319    0.0000 C   0  0  0  0  0  0  0  0  0  0  0  0
    3.7389    1.1445    0.0000 F   0  0  0  0  0  0  0  0  0  0  0  0
    3.2540    0.4770    0.0000 C   0  0  0  0  0  0  0  0  0  0  0  0
    3.5895   -0.2767    0.0000 C   0  0  0  0  0  0  0  0  0  0  0  0
    4.4100   -0.3629    0.0000 O   0  0  0  0  0  0  0  0  0  0  0  0
    4.8949    0.3045    0.0000 C   0  0  0  0  0  0  0  0  0  0  0  0
    3.1046   -0.9441    0.0000 C   0  0  0  0  0  0  0  0  0  0  0  0
    2.2841   -0.8579    0.0000 C   0  0  0  0  0  0  0  0  0  0  0  0
    2.4335    0.5632    0.0000 C   0  0  0  0  0  0  0  0  0  0  0  0
    1.9486   -0.1042    0.0000 C   0  0  0  0  0  0  0  0  0  0  0  0
    1.1281   -0.0180    0.0000 C   0  0  0  0  0  0  0  0  0  0  0  0
    0.7925    0.7357    0.0000 S   0  0  0  0  0  0  0  0  0  0  0  0
   -0.0279    0.8220    0.0000 C   0  0  0  0  0  0  0  0  0  0  0  0
   -0.4404    1.5364    0.0000 N   0  0  0  0  0  0  0  0  0  0  0  0
   -1.2474    1.3649    0.0000 N   0  0  0  0  0  0  0  0  0  0  0  0
   -0.5800    0.2089    0.0000 O   0  0  0  0  0  0  0  0  0  0  0  0
   -4.2617   -0.9480    0.0000 O   0  0  0  0  0  0  0  0  0  0  0  0
   -4.2617    0.3869    0.0000 O   0  0  0  0  0  0  0  0  0  0  0  0
  1 24  1  0
  1 25  1  0
  2  8  1  0
  2 22  2  0
  2 23  1  0
  3  4  2  0
  3  6  1  0
  3 24  1  0
  4  5  1  0
  4 25  1  0
  5  8  2  0
  6  7  2  0
  7  8  1  0
  9 10  1  0
 10 11  2  0
 10 16  1  0
 11 12  1  0
 11 14  1  0
 12 13  1  0
 14 15  2  0
 15 17  1  0
 16 17  2  0
 17 18  1  0
 18 19  1  0
 19 20  1  0
 20 21  2  0
 20 23  1  0
 21 22  1  0
M  END
>  <DRUGBANK_ID>  (1) 
DB07014

>  <COMMON_NAME>  (1) 
2-(1,3-benzodioxol-5-yl)-5-[(3-fluoro-4-methoxybenzyl)sulfanyl]-1,3,4-oxadiazole

$$$$
