
     RDKit          2D

 37 37  0  0  0  0  0  0  0  0999 V2000
    2.5006    1.6499    0.0000 C   0  0  0  0  0  0  0  0  0  0  0  0
    3.2151    2.0624    0.0000 C   0  0  0  0  0  0  0  0  0  0  0  0
    2.5006    0.8249    0.0000 C   0  0  0  0  0  0  0  0  0  0  0  0
    3.9296    1.6499    0.0000 C   0  0  0  0  0  0  0  0  0  0  0  0
    3.9296    0.8249    0.0000 C   0  0  0  0  0  0  0  0  0  0  0  0
    3.2151    0.4124    0.0000 C   0  0  0  0  0  0  0  0  0  0  0  0
    3.9296    3.2999    0.0000 O   0  0  0  0  0  0  0  0  0  0  0  0
    3.2151    2.8874    0.0000 N   0  0  0  0  0  0  0  0  0  0  0  0
    2.5006    3.2999    0.0000 O   0  0  0  0  0  0  0  0  0  0  0  0
    3.9296   -0.8250    0.0000 O   0  0  0  0  0  0  0  0  0  0  0  0
    3.2151   -0.4125    0.0000 C   0  0  0  0  0  0  0  0  0  0  0  0
    1.7862   -0.4125    0.0000 C   0  0  0  0  0  0  0  0  0  0  0  0
    2.5006   -0.8250    0.0000 C   0  0  0  0  0  0  0  0  0  0  0  0
    2.5006   -1.6500    0.0000 N   0  0  0  0  0  0  0  0  0  0  0  0
    1.7862   -2.8875    0.0000 C   0  0  0  0  0  0  0  0  0  0  0  0
    1.7862   -2.0625    0.0000 C   0  0  0  0  0  0  0  0  0  0  0  0
    1.0716   -1.6500    0.0000 O   0  0  0  0  0  0  0  0  0  0  0  0
    1.0716   -3.3000    0.0000 Cl  0  0  0  0  0  0  0  0  0  0  0  0
    2.5006   -3.3000    0.0000 Cl  0  0  0  0  0  0  0  0  0  0  0  0
    0.3572    0.4124    0.0000 C   0  0  0  0  0  0  0  0  0  0  0  0
   -0.3572    0.8249    0.0000 C   0  0  0  0  0  0  0  0  0  0  0  0
   -1.0717    0.4124    0.0000 C   0  0  0  0  0  0  0  0  0  0  0  0
    1.0716    1.6499    0.0000 O   0  0  0  0  0  0  0  0  0  0  0  0
    1.0716    0.8249    0.0000 C   0  0  0  0  0  0  0  0  0  0  0  0
    1.7862    0.4124    0.0000 O   0  0  0  0  0  0  0  0  0  0  0  0
   -1.0717   -0.4125    0.0000 C   0  0  0  0  0  0  0  0  0  0  0  0
   -0.3571   -0.8250    0.0000 C   0  0  0  0  0  0  0  0  0  0  0  0
    0.3572   -0.4125    0.0000 C   0  0  0  0  0  0  0  0  0  0  0  0
   -1.7861    0.8249    0.0000 C   0  0  0  0  0  0  0  0  0  0  0  0
   -2.5005    0.4124    0.0000 C   0  0  0  0  0  0  0  0  0  0  0  0
   -2.5006   -0.4125    0.0000 C   0  0  0  0  0  0  0  0  0  0  0  0
   -1.7861   -0.8250    0.0000 C   0  0  0  0  0  0  0  0  0  0  0  0
   -3.2150    0.8250    0.0000 C   0  0  0  0  0  0  0  0  0  0  0  0
   -3.9296    0.4125    0.0000 C   0  0  0  0  0  0  0  0  0  0  0  0
   -3.9296   -0.4125    0.0000 C   0  0  0  0  0  0  0  0  0  0  0  0
   -3.2150   -0.8250    0.0000 C   0  0  0  0  0  0  0  0  0  0  0  0
    1.0716   -0.8250    0.0000 C   0  0  0  0  0  0  0  0  0  0  0  0
  1  2  2  0
  2  8  1  0
  2  4  1  0
  3  1  1  0
  4  5  2  0
  6  3  2  0
  6  5  1  0
  6 11  1  0
  8  7  1  0
  8  9  2  0
 11 10  1  1
 11 13  1  0
 12 25  1  0
 13 12  1  6
 13 14  1  0
 14 16  1  0
 15 19  1  0
 15 18  1  0
 16 15  1  0
 16 17  2  0
 21 20  1  0
 21 22  1  0
 23 24  2  0
 24 20  1  0
 24 25  1  0
 26 27  1  0
 27 28  1  0
 28 37  1  0
 29 22  1  0
 29 30  1  0
 31 32  1  0
 32 26  1  0
 33 30  1  0
 33 34  1  0
 34 35  1  0
 35 36  1  0
 36 31  1  0
M  CHG  2   7  -1   8   1
M  END
>  <DRUGBANK_ID>  (1) 
DB14658

>  <SECONDARY_ACCESSION_NUMBERS>  (1) 
DBSALT001468

>  <COMMON_NAME>  (1) 
Chloramphenicol palmitate

>  <CAS_NUMBER>  (1) 
530-43-8

>  <UNII>  (1) 
43VU4207NW

>  <SYNONYMS>  (1) 
CAP-palmitate; Chloramphenicol monopalmitate; Chloramphenicol palmitate; Detreopal

$$$$
