Thymol
     RDKit          2D

 11 11  0  0  0  0  0  0  0  0999 V2000
   -0.1299   -0.3750    0.0000 C   0  0  0  0  0  0  0  0  0  0  0  0
    0.5846    0.0375    0.0000 C   0  0  0  0  0  0  0  0  0  0  0  0
   -0.8444    0.0375    0.0000 C   0  0  0  0  0  0  0  0  0  0  0  0
   -0.1299   -1.2000    0.0000 C   0  0  0  0  0  0  0  0  0  0  0  0
    0.5846    0.8625    0.0000 C   0  0  0  0  0  0  0  0  0  0  0  0
    1.2990   -0.3750    0.0000 O   0  0  0  0  0  0  0  0  0  0  0  0
   -0.8444    0.8625    0.0000 C   0  0  0  0  0  0  0  0  0  0  0  0
   -0.8444   -1.6125    0.0000 C   0  0  0  0  0  0  0  0  0  0  0  0
    0.5846   -1.6125    0.0000 C   0  0  0  0  0  0  0  0  0  0  0  0
   -0.1299    1.2750    0.0000 C   0  0  0  0  0  0  0  0  0  0  0  0
   -0.1299    2.1000    0.0000 C   0  0  0  0  0  0  0  0  0  0  0  0
  1  2  2  0
  1  3  1  0
  1  4  1  0
  2  5  1  0
  2  6  1  0
  3  7  2  0
  4  8  1  0
  4  9  1  0
  5 10  2  0
  7 10  1  0
 10 11  1  0
M  END
>  <DRUGBANK_ID>  (1) 
DB02513

>  <SECONDARY_ACCESSION_NUMBERS>  (1) 
EXPT01913

>  <COMMON_NAME>  (1) 
Thymol

>  <CAS_NUMBER>  (1) 
89-83-8

>  <UNII>  (1) 
3J50XA376E

>  <SYNONYMS>  (1) 
2-isopropyl-5-methylphenol; 5-Methyl-2-(1-Methylethyl)Phenol; IPMP

$$$$
