241
     RDKit          2D

 16 16  0  0  0  0  0  0  0  0999 V2000
    4.7291    0.1658    0.0000 O   0  0  0  0  0  0  0  0  0  0  0  0
    1.8711    0.1658    0.0000 O   0  0  0  0  0  0  0  0  0  0  0  0
    3.3001   -2.3092    0.0000 O   0  0  0  0  0  0  0  0  0  0  0  0
    4.0145   -1.0717    0.0000 N   0  0  0  0  0  0  0  0  0  0  0  0
    2.5856   -1.0717    0.0000 N   0  0  0  0  0  0  0  0  0  0  0  0
    3.3001    0.1658    0.0000 C   0  0  0  0  0  0  0  0  0  0  0  0
    3.7126    0.8803    0.0000 C   0  0  0  0  0  0  0  0  0  0  0  0
    3.3001    1.5948    0.0000 C   0  0  0  0  0  0  0  0  0  0  0  0
    2.8876    0.8803    0.0000 C   0  0  0  0  0  0  0  0  0  0  0  0
    4.0145   -0.2467    0.0000 C   0  0  0  0  0  0  0  0  0  0  0  0
    2.5856   -0.2467    0.0000 C   0  0  0  0  0  0  0  0  0  0  0  0
    2.4751    1.5948    0.0000 C   0  0  0  0  0  0  0  0  0  0  0  0
    3.7126    2.3092    0.0000 C   0  0  0  0  0  0  0  0  0  0  0  0
    2.0625    0.8803    0.0000 C   0  0  0  0  0  0  0  0  0  0  0  0
    3.3001   -1.4842    0.0000 C   0  0  0  0  0  0  0  0  0  0  0  0
    1.6500    1.5948    0.0000 C   0  0  0  0  0  0  0  0  0  0  0  0
  1 10  2  0
  2 11  2  0
  3 15  2  0
  4 10  1  0
  4 15  1  0
  5 11  1  0
  5 15  1  0
  6  7  1  0
  6  9  1  0
  6 10  1  0
  6 11  1  0
  7  8  1  0
  8 12  1  0
  8 13  1  0
  9 14  1  0
 14 16  2  0
M  END
>  <DRUGBANK_ID>  (1) 
DB00241

>  <SECONDARY_ACCESSION_NUMBERS>  (1) 
APRD00266

>  <COMMON_NAME>  (1) 
Butalbital

>  <CAS_NUMBER>  (1) 
77-26-9

>  <UNII>  (1) 
KHS0AZ4JVK

>  <SYNONYMS>  (1) 
5-(2-methylpropyl)-5-prop-2-enyl-1,3-diazinane-2,4,6-trione; 5-allyl-5-(2-methylpropyl)barbituric acid; 5-allyl-5-(2'-methyl-n-propyl) barbituric acid; 5-allyl-5-isobutyl-2,4,6(1H,3H,5H)-pyrimidinetrione; 5-Allyl-5-isobutyl-pyrimidine-2,4,6-trione; 5-allyl-5-isobutylbarbituric acid; 5-isobutyl-5-allylbarbituric acid; Allylbarbital; Allylbarbitone; Allylbarbituric acid; Butalbarbital; Butalbital; Butalbitalum; iso-butylallylbarbituric acid; Itobarbital; Tetrallobarbital

$$$$
