
     RDKit          2D

 31 34  0  0  0  0  0  0  0  0999 V2000
    2.1753   -0.1139    0.0000 N   0  0  0  0  0  0  0  0  0  0  0  0
    3.0003   -0.1164    0.0000 N   0  0  0  0  0  0  0  0  0  0  0  0
    3.2530   -0.9017    0.0000 C   0  0  0  0  0  0  0  0  0  0  0  0
    2.5842   -1.3846    0.0000 C   0  0  0  0  0  0  0  0  0  0  0  0
    1.9181   -0.8979    0.0000 N   0  0  0  0  0  0  0  0  0  0  0  0
    2.5818   -2.2096    0.0000 S   0  0  0  0  0  0  0  0  0  0  0  0
    1.8277   -2.5449    0.0000 C   0  0  0  0  0  0  0  0  0  0  0  0
    1.1603   -2.0599    0.0000 C   0  0  0  0  0  0  0  0  0  0  0  0
    0.4458   -2.4725    0.0000 C   0  0  0  0  0  0  0  0  0  0  0  0
   -0.2685   -2.0599    0.0000 N   0  0  0  0  0  0  0  0  0  0  0  0
   -0.2687   -1.2349    0.0000 C   0  0  0  0  0  0  0  0  0  0  0  0
    0.4458   -0.8225    0.0000 S   0  0  0  0  0  0  0  0  0  0  0  0
    1.1603   -1.2349    0.0000 C   0  0  0  0  0  0  0  0  0  0  0  0
    0.4458   -3.2975    0.0000 C   0  0  0  0  0  0  0  0  0  0  0  0
   -0.2685   -3.7100    0.0000 O   0  0  0  0  0  0  0  0  0  0  0  0
    1.1603   -3.7100    0.0000 O   0  0  0  0  0  0  0  0  0  0  0  0
   -1.0935   -2.0599    0.0000 C   0  0  0  0  0  0  0  0  0  0  0  0
   -1.0937   -1.2349    0.0000 C   0  0  0  0  0  0  0  0  0  0  0  0
   -1.6769   -2.6433    0.0000 O   0  0  0  0  0  0  0  0  0  0  0  0
   -1.8091   -0.8240    0.0000 N   0  0  0  0  0  0  0  0  0  0  0  0
   -1.8129    0.0009    0.0000 C   0  0  0  0  0  0  0  0  0  0  0  0
   -2.5292    0.4100    0.0000 C   0  0  0  0  0  0  0  0  0  0  0  0
   -1.1003    0.4165    0.0000 O   0  0  0  0  0  0  0  0  0  0  0  0
   -3.2418   -0.0056    0.0000 N   0  0  0  0  0  0  0  0  0  0  0  0
   -2.5329    1.2350    0.0000 C   0  0  0  0  0  0  0  0  0  0  0  0
   -1.8204    1.6507    0.0000 C   0  0  0  0  0  0  0  0  0  0  0  0
   -1.8241    2.4757    0.0000 C   0  0  0  0  0  0  0  0  0  0  0  0
   -2.5405    2.8850    0.0000 C   0  0  0  0  0  0  0  0  0  0  0  0
   -3.2530    2.4692    0.0000 C   0  0  0  0  0  0  0  0  0  0  0  0
   -3.2493    1.6443    0.0000 C   0  0  0  0  0  0  0  0  0  0  0  0
   -2.5442    3.7100    0.0000 O   0  0  0  0  0  0  0  0  0  0  0  0
  1  2  1  0
  2  3  1  0
  3  4  2  0
  4  5  1  0
  4  6  1  0
  5  1  2  0
  6  7  1  0
  7  8  1  0
  8  9  2  0
  9 10  1  0
  9 14  1  0
 10 11  1  0
 10 17  1  0
 11 12  1  1
 11 18  1  0
 12 13  1  0
 13  8  1  0
 14 15  2  0
 14 16  1  0
 17 19  2  0
 18 17  1  0
 18 20  1  1
 20 21  1  0
 21 22  1  0
 21 23  2  0
 22 24  1  6
 22 25  1  0
 25 26  2  0
 26 27  1  0
 27 28  2  0
 28 29  1  0
 28 31  1  0
 29 30  2  0
 30 25  1  0
M  END
>  <DRUGBANK_ID>  (1) 
DB13266

>  <COMMON_NAME>  (1) 
Cefatrizine

>  <CAS_NUMBER>  (1) 
51627-14-6

>  <UNII>  (1) 
8P4W949T8K

>  <SYNONYMS>  (1) 
cefatrizina; cÃ©fatrizine; Cefatrizine; cefatrizinum

$$$$
