BHB
     RDKit          2D

 20 21  0  0  0  0  0  0  0  0999 V2000
   -1.4763    2.3967    0.0000 N   0  0  0  0  0  0  0  0  0  0  0  0
   -1.4763    1.5717    0.0000 C   0  0  0  0  0  0  0  0  0  0  0  0
   -0.7618    1.1592    0.0000 C   0  0  0  0  0  0  0  0  0  0  0  0
   -0.7618    0.3342    0.0000 C   0  0  0  0  0  0  0  0  0  0  0  0
   -1.4763   -0.0783    0.0000 C   0  0  0  0  0  0  0  0  0  0  0  0
   -1.4763   -0.9033    0.0000 N   0  0  0  0  0  0  0  0  0  0  0  0
   -2.1908   -1.3158    0.0000 C   0  0  0  0  0  0  0  0  0  0  0  0
   -2.1908   -2.1408    0.0000 N   0  0  0  0  0  0  0  0  0  0  0  0
   -2.9052   -0.9033    0.0000 N   0  0  0  0  0  0  0  0  0  0  0  0
   -2.9052   -0.0783    0.0000 C   0  0  0  0  0  0  0  0  0  0  0  0
   -3.6197    0.3342    0.0000 O   0  0  0  0  0  0  0  0  0  0  0  0
   -2.1908    0.3342    0.0000 C   0  0  0  0  0  0  0  0  0  0  0  0
   -2.1908    1.1592    0.0000 C   0  0  0  0  0  0  0  0  0  0  0  0
   -0.0474   -0.0783    0.0000 C   0  0  0  0  0  0  0  0  0  0  0  0
    0.6671    0.3342    0.0000 S   0  0  0  0  0  0  0  0  0  0  0  0
    1.3816   -0.0783    0.0000 C   0  0  0  0  0  0  0  0  0  0  0  0
    2.0961    0.3342    0.0000 C   0  0  0  0  0  0  0  0  0  0  0  0
    2.8105   -0.0783    0.0000 N   0  0  0  0  0  0  0  0  0  0  0  0
    3.5250    0.3342    0.0000 C   0  0  0  0  0  0  0  0  0  0  0  0
    2.8105   -0.9033    0.0000 C   0  0  0  0  0  0  0  0  0  0  0  0
  1  2  1  0
  2  3  2  0
  2 13  1  0
  3  4  1  0
  4  5  2  0
  4 14  1  0
  5  6  1  0
  5 12  1  0
  6  7  2  0
  7  8  1  0
  7  9  1  0
  9 10  1  0
 10 11  2  0
 10 12  1  0
 12 13  2  0
 14 15  1  0
 15 16  1  0
 16 17  1  0
 17 18  1  0
 18 19  1  0
 18 20  1  0
M  END
>  <DRUGBANK_ID>  (1) 
DB04004

>  <SECONDARY_ACCESSION_NUMBERS>  (1) 
EXPT00694

>  <COMMON_NAME>  (1) 
2,6-Diamino-8-(2-Dimethylaminoethylsulfanylmethyl)-3h-Quinazolin-4-One

$$$$
