
     RDKit          2D

 13 12  0  0  0  0  0  0  0  0999 V2000
   -0.0192    0.1907    0.0000 C   0  0  0  0  0  0  0  0  0  0  0  0
   -0.7000   -0.2003    0.0000 C   0  0  0  0  0  0  0  0  0  0  0  0
    0.7193   -0.1859    0.0000 C   0  0  0  0  0  0  0  0  0  0  0  0
   -1.4291    0.1859    0.0000 C   0  0  0  0  0  0  0  0  0  0  0  0
   -0.0192    1.0308    0.0000 O   0  0  0  0  0  0  0  0  0  0  0  0
   -0.6904   -1.0308    0.0000 O   0  0  0  0  0  0  0  0  0  0  0  0
    2.1532   -0.1762    0.0000 N   0  0  0  0  0  0  0  0  0  0  0  0
   -1.4387    1.0162    0.0000 O   0  0  0  0  0  0  0  0  0  0  0  0
    0.7193   -1.0162    0.0000 O   0  0  0  0  0  0  0  0  0  0  0  0
    1.4146    0.2148    0.0000 C   0  0  0  0  0  0  0  0  0  0  0  0
   -2.8727    0.1568    0.0000 O   0  0  0  0  0  0  0  0  0  0  0  0
   -2.1484   -0.2052    0.0000 C   0  0  0  0  0  0  0  0  0  0  0  0
    2.8727    0.2292    0.0000 C   0  0  0  0  0  0  0  0  0  0  0  0
  1  5  1  6
  2  1  1  0
  2  6  1  6
  3  1  1  0
  3  9  1  6
  4  2  1  0
  4  8  1  1
  7 10  1  0
 10  3  1  0
 11 12  1  0
 12  4  1  0
 13  7  1  0
M  END
>  <DRUGBANK_ID>  (1) 
DB09415

>  <COMMON_NAME>  (1) 
Meglumine

>  <CAS_NUMBER>  (1) 
6284-40-8

>  <UNII>  (1) 
6HG8UB2MUY

>  <SYNONYMS>  (1) 
1-deoxy-1-methylaminosorbitol; Iosulamide; Meglumina; MÃ©glumine; Meglumine; Megluminum; N-methyl-D-glucamine

$$$$
