
     RDKit          2D

 42 46  0  0  1  0  0  0  0  0999 V2000
    5.6617   -2.2185    0.0000 O   0  0  0  0  0  0  0  0  0  0  0  0
   13.0237    0.3274    0.0000 O   0  0  0  0  0  0  0  0  0  0  0  0
   12.3189   -0.9154    0.0000 O   0  0  0  0  0  0  0  0  0  0  0  0
    4.9522   -0.9785    0.0000 O   0  0  0  0  0  0  0  0  0  0  0  0
    2.0916   -1.7924    0.0000 O   0  0  0  0  0  0  0  0  0  0  0  0
    2.8107   -0.5577    0.0000 O   0  0  0  0  0  0  0  0  0  0  0  0
    9.3960   -0.9381    0.0000 C   0  0  0  0  0  0  0  0  0  0  0  0
   10.1103   -0.5256    0.0000 C   0  0  0  0  0  0  0  0  0  0  0  0
    8.6815   -0.5256    0.0000 C   0  0  0  0  0  0  0  0  0  0  0  0
   10.1103    0.2993    0.0000 C   0  0  0  0  0  0  0  0  0  0  0  0
    7.9309   -0.9438    0.0000 C   0  0  0  0  0  0  0  0  0  0  0  0
   10.8476    0.7402    0.0000 C   0  0  0  0  0  0  0  0  0  0  0  0
    7.9243   -1.8029    0.0000 C   0  0  0  0  0  0  0  0  0  0  0  0
   11.5950    0.3165    0.0000 C   0  0  0  0  0  0  0  0  0  0  0  0
    9.4092   -1.7972    0.0000 C   0  0  0  0  0  0  0  0  0  0  0  0
    8.6815    0.2993    0.0000 C   0  0  0  0  0  0  0  0  0  0  0  0
   10.8476   -0.9667    0.0000 C   0  0  0  0  0  0  0  0  0  0  0  0
    9.3960    0.7117    0.0000 C   0  0  0  0  0  0  0  0  0  0  0  0
    8.6684   -2.2325    0.0000 C   0  0  0  0  0  0  0  0  0  0  0  0
   11.5950   -0.5428    0.0000 C   0  0  0  0  0  0  0  0  0  0  0  0
    7.1527   -2.2563    0.0000 C   0  0  0  0  0  0  0  0  0  0  0  0
   11.0209    1.5766    0.0000 C   0  0  0  0  0  0  0  0  0  0  0  0
    7.1664   -0.4784    0.0000 C   0  0  0  0  0  0  0  0  0  0  0  0
    9.9262   -1.5700    0.0000 C   0  0  0  0  0  0  0  0  0  0  0  0
   10.3925   -1.3007    0.0000 C   0  0  0  0  0  0  0  0  0  0  0  0
   12.2238    0.8944    0.0000 C   0  0  0  0  0  0  0  0  0  0  0  0
   11.8698    1.6717    0.0000 C   0  0  0  0  0  0  0  0  0  0  0  0
    7.9373   -0.1189    0.0000 C   0  0  0  0  0  0  0  0  0  0  0  0
    6.3777   -1.8089    0.0000 C   0  0  0  0  0  0  0  0  0  0  0  0
    6.3845   -0.9140    0.0000 C   0  0  0  0  0  0  0  0  0  0  0  0
   12.3126   -0.0905    0.0000 C   0  0  0  0  0  0  0  0  0  0  0  0
    7.5680   -2.9691    0.0000 C   0  0  0  0  0  0  0  0  0  0  0  0
    6.7431   -2.9723    0.0000 C   0  0  0  0  0  0  0  0  0  0  0  0
   10.4654    2.1863    0.0000 C   0  0  0  0  0  0  0  0  0  0  0  0
   10.7155    2.9723    0.0000 C   0  0  0  0  0  0  0  0  0  0  0  0
    9.6596    2.0099    0.0000 C   0  0  0  0  0  0  0  0  0  0  0  0
    4.9490   -1.8034    0.0000 C   0  0  0  0  0  0  0  0  0  0  0  0
    4.2331   -2.2130    0.0000 C   0  0  0  0  0  0  0  0  0  0  0  0
    3.5203   -1.7979    0.0000 C   0  0  0  0  0  0  0  0  0  0  0  0
    3.9355   -1.0852    0.0000 C   0  0  0  0  0  0  0  0  0  0  0  0
    3.1051   -2.5107    0.0000 C   0  0  0  0  0  0  0  0  0  0  0  0
    2.8076   -1.3826    0.0000 C   0  0  0  0  0  0  0  0  0  0  0  0
  1 37  1  0
  2 31  1  0
  3 31  2  0
  4 37  2  0
  5 42  1  0
  6 42  2  0
  7  8  1  0
  7  9  1  0
  7 15  1  0
  7 24  1  1
  8 10  1  0
  8 17  1  0
  8 25  1  6
  9 11  1  0
  9 16  1  1
 10 12  1  0
 10 18  1  6
 11 13  1  0
 11 23  1  0
 11 28  1  1
 12 14  1  0
 12 22  1  1
 13 19  1  1
 13 21  1  0
 14 20  1  0
 14 26  1  0
 14 31  1  1
 15 19  1  0
 16 18  1  0
 17 20  1  0
 21 29  1  0
 21 32  1  0
 21 33  1  0
 22 27  1  0
 22 34  1  6
 23 30  1  0
 26 27  1  0
 29  1  1  1
 29 30  1  0
 34 35  1  0
 34 36  2  0
 37 38  1  0
 38 39  1  0
 39 40  1  0
 39 41  1  0
 39 42  1  0
M  END
>  <DRUGBANK_ID>  (1) 
DB06581

>  <COMMON_NAME>  (1) 
Bevirimat

>  <CAS_NUMBER>  (1) 
174022-42-5

>  <UNII>  (1) 
S125DW66N8

>  <SYNONYMS>  (1) 
Bevirimat

$$$$
