1521
     RDKit          2D

 22 25  0  0  1  0  0  0  0  0999 V2000
    3.1440   -2.2607    0.0000 Cl  0  0  0  0  0  0  0  0  0  0  0  0
    7.1353    2.1553    0.0000 O   0  0  0  0  0  0  0  0  0  0  0  0
    1.6498   -1.3980    0.0000 O   0  0  0  0  0  0  0  0  0  0  0  0
    6.0985    0.2949    0.0000 C   0  0  0  0  0  0  0  0  0  0  0  0
    6.0985    1.1197    0.0000 C   0  0  0  0  0  0  0  0  0  0  0  0
    5.3842   -0.1176    0.0000 C   0  0  0  0  0  0  0  0  0  0  0  0
    4.6697    0.2949    0.0000 C   0  0  0  0  0  0  0  0  0  0  0  0
    3.9191   -0.1232    0.0000 C   0  0  0  0  0  0  0  0  0  0  0  0
    5.3842    1.5322    0.0000 C   0  0  0  0  0  0  0  0  0  0  0  0
    4.6697    1.1197    0.0000 C   0  0  0  0  0  0  0  0  0  0  0  0
    6.8790    1.3712    0.0000 C   0  0  0  0  0  0  0  0  0  0  0  0
    6.8790    0.0436    0.0000 C   0  0  0  0  0  0  0  0  0  0  0  0
    5.3974   -0.9767    0.0000 C   0  0  0  0  0  0  0  0  0  0  0  0
    7.3604    0.7073    0.0000 C   0  0  0  0  0  0  0  0  0  0  0  0
    3.9125   -0.9824    0.0000 C   0  0  0  0  0  0  0  0  0  0  0  0
    4.6566   -1.4120    0.0000 C   0  0  0  0  0  0  0  0  0  0  0  0
    6.0985    1.9446    0.0000 C   0  0  0  0  0  0  0  0  0  0  0  0
    3.1546    0.3422    0.0000 C   0  0  0  0  0  0  0  0  0  0  0  0
    3.9254    0.7017    0.0000 C   0  0  0  0  0  0  0  0  0  0  0  0
    2.3726   -0.0934    0.0000 C   0  0  0  0  0  0  0  0  0  0  0  0
    3.1409   -1.4358    0.0000 C   0  0  0  0  0  0  0  0  0  0  0  0
    2.3657   -0.9883    0.0000 C   0  0  0  0  0  0  0  0  0  0  0  0
  1 21  1  0
  3 22  2  0
  4  5  1  0
  4  6  1  0
  4 12  1  1
  5  9  1  0
  5 11  1  0
  5 17  1  1
  6  7  1  0
  6 13  1  6
  7  8  1  0
  7 10  1  1
  8 15  1  0
  8 18  1  0
  8 19  1  1
  9 10  1  0
 11  2  1  1
 11 14  1  0
 12 14  1  0
 13 16  1  0
 15 16  1  0
 15 21  2  0
 18 20  1  0
 20 22  1  0
 21 22  1  0
M  END
>  <DRUGBANK_ID>  (1) 
DB01521

>  <COMMON_NAME>  (1) 
Clostebol

>  <CAS_NUMBER>  (1) 
1093-58-9

>  <UNII>  (1) 
Z7D4G976SH

>  <SYNONYMS>  (1) 
Clostebol

$$$$
