MSR
     RDKit          2D

 12 13  0  0  0  0  0  0  0  0999 V2000
    0.1926   -0.1646    0.0000 C   0  0  0  0  0  0  0  0  0  0  0  0
    0.1926    0.6604    0.0000 C   0  0  0  0  0  0  0  0  0  0  0  0
    0.9071    1.0729    0.0000 C   0  0  0  0  0  0  0  0  0  0  0  0
    0.9071    1.8979    0.0000 O   0  0  0  0  0  0  0  0  0  0  0  0
    1.6215    0.6604    0.0000 C   0  0  0  0  0  0  0  0  0  0  0  0
    1.6215   -0.1646    0.0000 C   0  0  0  0  0  0  0  0  0  0  0  0
    0.9071   -0.5771    0.0000 C   0  0  0  0  0  0  0  0  0  0  0  0
    0.9071   -1.4021    0.0000 N   0  0  0  0  0  0  0  0  0  0  0  0
    1.5745   -1.8870    0.0000 C   0  0  0  0  0  0  0  0  0  0  0  0
    1.3196   -2.6716    0.0000 C   0  0  0  0  0  0  0  0  0  0  0  0
    0.4946   -2.6716    0.0000 N   0  0  0  0  0  0  0  0  0  0  0  0
    0.2396   -1.8870    0.0000 C   0  0  0  0  0  0  0  0  0  0  0  0
  1  2  2  0
  1  7  1  0
  2  3  1  0
  3  4  1  0
  3  5  2  0
  5  6  1  0
  6  7  2  0
  7  8  1  0
  8  9  1  0
  8 12  1  0
  9 10  2  0
 10 11  1  0
 11 12  2  0
M  END
>  <DRUGBANK_ID>  (1) 
DB08214

>  <COMMON_NAME>  (1) 
4-(1H-IMIDAZOL-1-YL)PHENOL

$$$$
