
     RDKit          2D

 43 48  0  0  1  0  0  0  0  0999 V2000
   -8.2630   -1.4434    0.0000 C   0  0  0  0  0  0  0  0  0  0  0  0
   -8.2630   -0.6184    0.0000 C   0  0  0  0  0  0  0  0  0  0  0  0
   -7.5485   -0.2059    0.0000 C   0  0  0  0  0  0  0  0  0  0  0  0
   -8.9775   -0.2059    0.0000 N   0  0  0  0  0  0  0  0  0  0  0  0
   -9.6920   -0.6184    0.0000 C   0  0  0  0  0  0  0  0  0  0  0  0
  -10.4064   -0.2059    0.0000 C   0  0  0  0  0  0  0  0  0  0  0  0
   -9.6920   -1.4434    0.0000 C   0  0  0  0  0  0  0  0  0  0  0  0
   -8.9775    0.6191    0.0000 C   0  0  0  0  0  0  0  0  0  0  0  0
   -8.2630    1.0316    0.0000 O   0  0  0  0  0  0  0  0  0  0  0  0
   -9.6920    1.0316    0.0000 C   0  0  0  0  0  0  0  0  0  0  0  0
  -10.4064    0.6191    0.0000 C   0  0  0  0  0  0  0  0  0  0  0  0
  -11.1209    1.0316    0.0000 C   0  0  0  0  0  0  0  0  0  0  0  0
  -11.8354    0.6191    0.0000 F   0  0  0  0  0  0  0  0  0  0  0  0
  -11.1209    1.8566    0.0000 C   0  0  0  0  0  0  0  0  0  0  0  0
  -10.4064    2.2691    0.0000 C   0  0  0  0  0  0  0  0  0  0  0  0
   -9.6920    1.8566    0.0000 C   0  0  0  0  0  0  0  0  0  0  0  0
   -8.9775    2.2691    0.0000 O   0  0  0  0  0  0  0  0  0  0  0  0
   -8.9775    3.0941    0.0000 C   0  0  0  0  0  0  0  0  0  0  0  0
   -9.6920    3.5066    0.0000 C   0  0  0  0  0  0  0  0  0  0  0  0
   -9.6920    4.3316    0.0000 N   0  0  0  0  0  0  0  0  0  0  0  0
   -8.9775    4.7441    0.0000 C   0  0  0  0  0  0  0  0  0  0  0  0
   -8.2630    4.3316    0.0000 N   0  0  0  0  0  0  0  0  0  0  0  0
   -8.2630    3.5066    0.0000 C   0  0  0  0  0  0  0  0  0  0  0  0
   -7.5485    3.0941    0.0000 N   0  0  0  0  0  0  0  0  0  0  0  0
   -6.7517    3.3076    0.0000 C   0  0  0  0  0  0  0  0  0  0  0  0
   -6.5381    2.5108    0.0000 C   0  0  0  0  0  0  0  0  0  0  0  0
   -7.3350    2.2972    0.0000 C   0  0  0  0  0  0  0  0  0  0  0  0
   -5.8237    2.9233    0.0000 C   0  0  0  0  0  0  0  0  0  0  0  0
   -5.1092    2.5108    0.0000 C   0  0  0  0  0  0  0  0  0  0  0  0
   -5.1092    1.6858    0.0000 N   0  0  0  0  0  0  0  0  0  0  0  0
   -5.8237    1.2733    0.0000 C   0  0  0  0  0  0  0  0  0  0  0  0
   -6.5381    1.6858    0.0000 C   0  0  0  0  0  0  0  0  0  0  0  0
   -4.3947    1.2733    0.0000 C   0  0  0  0  0  0  0  0  0  0  0  0
   -4.3947    0.4483    0.0000 O   0  0  0  0  0  0  0  0  0  0  0  0
   -3.6802    1.6858    0.0000 C   0  0  0  0  0  0  0  0  0  0  0  0
   -3.6802    2.5108    0.0000 N   0  0  0  0  0  0  0  0  0  0  0  0
   -2.9658    2.9233    0.0000 C   0  0  0  0  0  0  0  0  0  0  0  0
   -2.8283    2.3733    0.0000 C   0  0  0  0  0  0  0  0  0  0  0  0
   -2.8283    1.8233    0.0000 C   0  0  0  0  0  0  0  0  0  0  0  0
   -2.9658    1.2733    0.0000 C   0  0  0  0  0  0  0  0  0  0  0  0
   -2.2513    1.6858    0.0000 C   0  0  0  0  0  0  0  0  0  0  0  0
   -1.5368    1.2733    0.0000 C   0  0  0  0  0  0  0  0  0  0  0  0
   -2.2513    2.5108    0.0000 C   0  0  0  0  0  0  0  0  0  0  0  0
  1  2  1  0
  2  3  1  0
  2  4  1  0
  4  5  1  0
  4  8  1  0
  5  6  1  0
  5  7  1  0
  8  9  2  0
  8 10  1  0
 10 11  2  0
 10 16  1  0
 11 12  1  0
 12 13  1  0
 12 14  2  0
 14 15  1  0
 15 16  2  0
 16 17  1  0
 17 18  1  0
 18 19  2  0
 18 23  1  0
 19 20  1  0
 20 21  2  0
 21 22  1  0
 22 23  2  0
 23 24  1  0
 24 25  1  0
 24 27  1  0
 25 26  1  0
 26 27  1  0
 26 28  1  0
 26 32  1  0
 28 29  1  0
 29 30  1  0
 30 31  1  0
 30 33  1  0
 31 32  1  0
 33 34  2  0
 35 33  1  1
 35 36  1  0
 35 40  1  0
 37 36  1  0
 37 38  1  1
 37 43  1  0
 38 39  1  0
 40 39  1  1
 40 41  1  0
 41 42  2  0
 41 43  1  0
M  END
>  <DRUGBANK_ID>  (1) 
DB18514

>  <COMMON_NAME>  (1) 
DSP-5336

>  <CAS_NUMBER>  (1) 
2412555-70-3

>  <UNII>  (1) 
VW83Y2JLZ5

>  <SYNONYMS>  (1) 
BENZAMIDE, 5-FLUORO-2-((4-(7-(((1S,3S,4R)-5-METHYLENE-2-AZABICYCLO(2.2.2)OCT-3-YL)CARBONYL)-2,7-DIAZASPIRO(3.5)NON-2-YL)-5-PYRIMIDINYL)OXY)-N,N-BIS(1-METHYLETHYL)-

$$$$
