MKC
     RDKit          2D

 22 23  0  0  0  0  0  0  0  0999 V2000
    1.0554   -0.7707    0.0000 C   0  0  0  0  0  0  0  0  0  0  0  0
    1.7699   -1.1832    0.0000 C   0  0  0  0  0  0  0  0  0  0  0  0
    1.7699   -2.0082    0.0000 C   0  0  0  0  0  0  0  0  0  0  0  0
    1.0554   -2.4207    0.0000 C   0  0  0  0  0  0  0  0  0  0  0  0
    0.3409   -2.0082    0.0000 C   0  0  0  0  0  0  0  0  0  0  0  0
    0.3409   -1.1832    0.0000 C   0  0  0  0  0  0  0  0  0  0  0  0
    0.3409    0.4668    0.0000 C   0  0  0  0  0  0  0  0  0  0  0  0
   -0.3735    0.0543    0.0000 N   0  0  0  0  0  0  0  0  0  0  0  0
   -1.0880    0.4668    0.0000 C   0  0  0  0  0  0  0  0  0  0  0  0
   -1.8025    0.0543    0.0000 O   0  0  0  0  0  0  0  0  0  0  0  0
   -1.0880    1.2918    0.0000 N   0  0  0  0  0  0  0  0  0  0  0  0
   -0.3735    1.7043    0.0000 C   0  0  0  0  0  0  0  0  0  0  0  0
   -0.3735    2.5293    0.0000 O   0  0  0  0  0  0  0  0  0  0  0  0
    0.3409    1.2918    0.0000 C   0  0  0  0  0  0  0  0  0  0  0  0
    1.0554    0.0543    0.0000 C   0  0  0  0  0  0  0  0  0  0  0  0
    1.0554    1.7043    0.0000 C   0  0  0  0  0  0  0  0  0  0  0  0
    1.0554    2.5293    0.0000 C   0  0  0  0  0  0  0  0  0  0  0  0
    1.7699    1.2918    0.0000 C   0  0  0  0  0  0  0  0  0  0  0  0
   -0.3735   -0.7707    0.0000 C   0  0  0  0  0  0  0  0  0  0  0  0
   -1.0880   -1.1832    0.0000 O   0  0  0  0  0  0  0  0  0  0  0  0
   -1.8025   -0.7707    0.0000 C   0  0  0  0  0  0  0  0  0  0  0  0
   -2.5170   -1.1832    0.0000 C   0  0  0  0  0  0  0  0  0  0  0  0
  1  2  2  0
  1  6  1  0
  1 15  1  0
  2  3  1  0
  3  4  2  0
  4  5  1  0
  5  6  2  0
  7  8  1  0
  7 14  2  0
  7 15  1  0
  8  9  1  0
  8 19  1  0
  9 10  2  0
  9 11  1  0
 11 12  1  0
 12 13  2  0
 12 14  1  0
 14 16  1  0
 16 17  1  0
 16 18  1  0
 19 20  1  0
 20 21  1  0
 21 22  1  0
M  END
>  <DRUGBANK_ID>  (1) 
DB08188

>  <SECONDARY_ACCESSION_NUMBERS>  (1) 
DB12488

>  <COMMON_NAME>  (1) 
Emivirine

>  <CAS_NUMBER>  (1) 
149950-60-7

>  <UNII>  (1) 
X87G8IX72O

>  <SYNONYMS>  (1) 
1-(ethoxymethyl)-5-(1-methylethyl)-6-(phenylmethyl)pyrimidine-2,4(1H,3H)-dione; 6-benzyl-1-(ethoxymethyl)-5-(1-methylethyl)uracil; Emivirine

$$$$
