
     RDKit          2D

 26 28  0  0  1  0  0  0  0  0999 V2000
   -3.6917   -0.3011    0.0000 C   0  0  0  0  0  0  0  0  0  0  0  0
   -2.9772   -0.7136    0.0000 C   0  0  0  0  0  0  0  0  0  0  0  0
   -2.9772   -1.5386    0.0000 C   0  0  0  0  0  0  0  0  0  0  0  0
   -3.6917   -1.9511    0.0000 C   0  0  0  0  0  0  0  0  0  0  0  0
   -4.4061   -1.5386    0.0000 N   0  0  0  0  0  0  0  0  0  0  0  0
   -4.4061   -0.7136    0.0000 C   0  0  0  0  0  0  0  0  0  0  0  0
   -2.2627   -1.9511    0.0000 C   0  0  0  0  0  0  0  0  0  0  0  0
   -2.2627   -2.7761    0.0000 O   0  0  0  0  0  0  0  0  0  0  0  0
   -1.5483   -1.5386    0.0000 N   0  0  0  0  0  0  0  0  0  0  0  0
   -0.8338   -1.9511    0.0000 N   0  0  0  0  0  0  0  0  0  0  0  0
   -0.1193   -1.5386    0.0000 C   0  0  0  0  0  0  0  0  0  0  0  0
   -0.1193   -0.7136    0.0000 O   0  0  0  0  0  0  0  0  0  0  0  0
    0.5952   -1.9511    0.0000 C   0  0  0  0  0  0  0  0  0  0  0  0
    0.5335   -2.7738    0.0000 C   0  0  0  0  0  0  0  0  0  0  0  0
    1.1383   -3.3349    0.0000 C   0  0  0  0  0  0  0  0  0  0  0  0
    1.9541   -3.2120    0.0000 C   0  0  0  0  0  0  0  0  0  0  0  0
    1.8311   -2.2645    0.0000 C   0  0  0  0  0  0  0  0  0  0  0  0
    1.2768   -1.4864    0.0000 N   0  0  0  0  0  0  0  0  0  0  0  0
    2.0652   -1.7295    0.0000 C   0  0  0  0  0  0  0  0  0  0  0  0
    2.6263   -1.1248    0.0000 O   0  0  0  0  0  0  0  0  0  0  0  0
    2.3666   -2.4975    0.0000 N   0  0  0  0  0  0  0  0  0  0  0  0
    3.1893   -2.5592    0.0000 O   0  0  0  0  0  0  0  0  0  0  0  0
    3.6540   -1.8775    0.0000 S   0  0  0  0  0  0  0  0  0  0  0  0
    4.1187   -1.1959    0.0000 O   0  0  0  0  0  0  0  0  0  0  0  0
    4.3356   -2.3423    0.0000 O   0  0  0  0  0  0  0  0  0  0  0  0
    2.9723   -1.4128    0.0000 O   0  0  0  0  0  0  0  0  0  0  0  0
  1  2  1  0
  1  6  1  0
  2  3  1  0
  3  4  1  0
  3  7  1  1
  4  5  1  0
  5  6  1  0
  7  8  2  0
  7  9  1  0
  9 10  1  0
 10 11  1  0
 11 12  2  0
 13 11  1  1
 13 14  1  0
 13 18  1  0
 14 15  1  0
 16 15  1  6
 16 17  1  0
 16 21  1  0
 18 17  1  0
 18 19  1  0
 19 20  2  0
 19 21  1  0
 21 22  1  0
 22 23  1  0
 23 24  2  0
 23 25  2  0
 23 26  1  0
M  END
>  <DRUGBANK_ID>  (1) 
DB13090

>  <COMMON_NAME>  (1) 
Zidebactam

>  <CAS_NUMBER>  (1) 
1436861-97-0

>  <UNII>  (1) 
YPM97423DB

>  <SYNONYMS>  (1) 
Zidebactam

$$$$
