
     RDKit          2D

 25 27  0  0  0  0  0  0  0  0999 V2000
   -2.3571    1.4438    0.0000 C   0  0  0  0  0  0  0  0  0  0  0  0
   -3.0716    1.0313    0.0000 C   0  0  0  0  0  0  0  0  0  0  0  0
   -3.0716    0.2062    0.0000 C   0  0  0  0  0  0  0  0  0  0  0  0
   -2.3571   -0.2063    0.0000 C   0  0  0  0  0  0  0  0  0  0  0  0
   -1.6427    0.2062    0.0000 C   0  0  0  0  0  0  0  0  0  0  0  0
   -1.6427    1.0313    0.0000 C   0  0  0  0  0  0  0  0  0  0  0  0
   -0.8581    1.2862    0.0000 C   0  0  0  0  0  0  0  0  0  0  0  0
   -0.8581   -0.0486    0.0000 C   0  0  0  0  0  0  0  0  0  0  0  0
   -0.3732    0.6188    0.0000 C   0  0  0  0  0  0  0  0  0  0  0  0
   -2.3571   -1.0313    0.0000 C   0  0  0  0  0  0  0  0  0  0  0  0
   -3.0570   -1.6795    0.0000 C   0  0  0  0  0  0  0  0  0  0  0  0
   -3.0570   -2.5045    0.0000 C   0  0  0  0  0  0  0  0  0  0  0  0
   -3.7714   -2.9170    0.0000 C   0  0  0  0  0  0  0  0  0  0  0  0
   -3.7714   -3.7420    0.0000 C   0  0  0  0  0  0  0  0  0  0  0  0
   -3.0570   -4.1545    0.0000 C   0  0  0  0  0  0  0  0  0  0  0  0
   -2.3425   -3.7420    0.0000 C   0  0  0  0  0  0  0  0  0  0  0  0
   -2.3425   -2.9170    0.0000 C   0  0  0  0  0  0  0  0  0  0  0  0
   -3.0570   -4.9795    0.0000 C   0  0  0  0  0  0  0  0  0  0  0  0
   -1.5175   -3.7420    0.0000 O   0  0  0  0  0  0  0  0  0  0  0  0
   -4.5964   -3.7420    0.0000 O   0  0  0  0  0  0  0  0  0  0  0  0
   -0.6445    2.0831    0.0000 C   0  0  0  0  0  0  0  0  0  0  0  0
    0.1524    2.2966    0.0000 C   0  0  0  0  0  0  0  0  0  0  0  0
    0.7357    1.7133    0.0000 C   0  0  0  0  0  0  0  0  0  0  0  0
   -1.2279    2.6665    0.0000 C   0  0  0  0  0  0  0  0  0  0  0  0
   -1.6427    1.8563    0.0000 C   0  0  0  0  0  0  0  0  0  0  0  0
  1  2  1  0
  1  6  1  0
  2  3  1  0
  3  4  1  0
  4  5  1  0
  4 10  2  0
  5  8  1  1
  6  5  1  0
  6 25  1  1
  7  6  1  0
  7  9  1  1
  7 21  1  0
  8  9  1  0
 10 11  1  0
 11 12  2  0
 12 13  1  0
 12 17  1  0
 13 14  1  0
 14 15  1  0
 14 20  1  6
 15 16  1  0
 15 18  2  0
 16 17  1  0
 16 19  1  1
 21 22  1  0
 21 24  1  1
 22 23  1  0
M  END
>  <DRUGBANK_ID>  (1) 
DB04891

>  <COMMON_NAME>  (1) 
Becocalcidiol

>  <CAS_NUMBER>  (1) 
524067-21-8

>  <UNII>  (1) 
N75R59YD0F

>  <SYNONYMS>  (1) 
Becocalcidiol

$$$$
