
     RDKit          2D

 26 27  0  0  0  0  0  0  0  0999 V2000
   -0.9406    0.1352    0.0000 C   0  0  0  0  0  0  0  0  0  0  0  0
   -0.9406   -0.6897    0.0000 C   0  0  0  0  0  0  0  0  0  0  0  0
   -1.6551    0.5477    0.0000 C   0  0  0  0  0  0  0  0  0  0  0  0
   -0.2261    0.5477    0.0000 C   0  0  0  0  0  0  0  0  0  0  0  0
   -1.6551   -1.1022    0.0000 C   0  0  0  0  0  0  0  0  0  0  0  0
   -0.2261   -1.1022    0.0000 O   0  0  0  0  0  0  0  0  0  0  0  0
   -2.3695    0.1352    0.0000 C   0  0  0  0  0  0  0  0  0  0  0  0
    0.4882    0.1352    0.0000 N   0  0  0  0  0  0  0  0  0  0  0  0
   -0.2261    1.3727    0.0000 O   0  0  0  0  0  0  0  0  0  0  0  0
   -2.3695   -0.6897    0.0000 C   0  0  0  0  0  0  0  0  0  0  0  0
   -1.6551   -1.9272    0.0000 O   0  0  0  0  0  0  0  0  0  0  0  0
   -0.2261   -1.9272    0.0000 C   0  0  0  0  0  0  0  0  0  0  0  0
   -3.0840    0.5477    0.0000 S   0  0  0  0  0  0  0  0  0  0  0  0
    1.2027    0.5477    0.0000 C   0  0  0  0  0  0  0  0  0  0  0  0
   -2.3695   -2.3397    0.0000 C   0  0  0  0  0  0  0  0  0  0  0  0
   -3.7985    0.9602    0.0000 N   0  0  0  0  0  0  0  0  0  0  0  0
   -3.4965   -0.1667    0.0000 O   0  0  0  0  0  0  0  0  0  0  0  0
   -2.6715    1.2621    0.0000 O   0  0  0  0  0  0  0  0  0  0  0  0
    1.9172    0.1352    0.0000 C   0  0  0  0  0  0  0  0  0  0  0  0
    2.6709    0.4707    0.0000 N   0  0  0  0  0  0  0  0  0  0  0  0
    2.0034   -0.6852    0.0000 C   0  0  0  0  0  0  0  0  0  0  0  0
    3.2229   -0.1423    0.0000 C   0  0  0  0  0  0  0  0  0  0  0  0
    2.8424    1.2777    0.0000 C   0  0  0  0  0  0  0  0  0  0  0  0
    2.8104   -0.8568    0.0000 C   0  0  0  0  0  0  0  0  0  0  0  0
    3.6270    1.5326    0.0000 C   0  0  0  0  0  0  0  0  0  0  0  0
    3.7985    2.3396    0.0000 C   0  0  0  0  0  0  0  0  0  0  0  0
  1  2  2  0
  1  3  1  0
  1  4  1  0
  2  5  1  0
  2  6  1  0
  3  7  2  0
  4  8  1  0
  4  9  2  0
  5 10  2  0
  5 11  1  0
  6 12  1  0
  7 13  1  0
  7 10  1  0
  8 14  1  0
 11 15  1  0
 13 16  1  0
 13 17  2  0
 13 18  2  0
 14 19  1  0
 19 20  1  0
 19 21  1  0
 20 22  1  0
 20 23  1  0
 21 24  1  0
 22 24  1  0
 23 25  1  0
 25 26  2  0
M  END
>  <DRUGBANK_ID>  (1) 
DB13523

>  <COMMON_NAME>  (1) 
Veralipride

>  <CAS_NUMBER>  (1) 
66644-81-3

>  <UNII>  (1) 
S7064109UD

>  <SYNONYMS>  (1) 
Veraliprida; Veralipride; Veralipridum

$$$$
