
     RDKit          2D

 23 25  0  0  0  0  0  0  0  0999 V2000
    6.8513   -4.9500    0.0000 C   0  0  0  0  0  0  0  0  0  0  0  0
    2.5645   -1.6500    0.0000 C   0  0  0  0  0  0  0  0  0  0  0  0
    5.4223   -1.6500    0.0000 C   0  0  0  0  0  0  0  0  0  0  0  0
    4.7079   -2.8875    0.0000 C   0  0  0  0  0  0  0  0  0  0  0  0
    4.7079   -1.2375    0.0000 C   0  0  0  0  0  0  0  0  0  0  0  0
    3.9934   -2.4750    0.0000 C   0  0  0  0  0  0  0  0  0  0  0  0
    1.7798   -0.2549    0.0000 C   0  0  0  0  0  0  0  0  0  0  0  0
    1.2949    0.4125    0.0000 C   0  0  0  0  0  0  0  0  0  0  0  0
    6.1368   -2.8875    0.0000 C   0  0  0  0  0  0  0  0  0  0  0  0
    3.9934    0.8250    0.0000 C   0  0  0  0  0  0  0  0  0  0  0  0
    5.4223   -2.4750    0.0000 C   0  0  0  0  0  0  0  0  0  0  0  0
    3.9934   -1.6500    0.0000 C   0  0  0  0  0  0  0  0  0  0  0  0
    2.5645    0.0000    0.0000 C   0  0  0  0  0  0  0  0  0  0  0  0
    2.5645    0.8250    0.0000 C   0  0  0  0  0  0  0  0  0  0  0  0
    3.2789   -0.4125    0.0000 C   0  0  0  0  0  0  0  0  0  0  0  0
    6.1368   -4.5375    0.0000 N   0  0  0  0  0  0  0  0  0  0  0  0
    1.7798    1.0799    0.0000 N   0  0  0  0  0  0  0  0  0  0  0  0
    3.2789    1.2375    0.0000 N   0  0  0  0  0  0  0  0  0  0  0  0
    3.9934    0.0000    0.0000 N   0  0  0  0  0  0  0  0  0  0  0  0
    3.2789   -1.2375    0.0000 N   0  0  0  0  0  0  0  0  0  0  0  0
    6.9618   -3.7125    0.0000 O   0  0  0  0  0  0  0  0  0  0  0  0
    5.3118   -3.7125    0.0000 O   0  0  0  0  0  0  0  0  0  0  0  0
    6.1368   -3.7125    0.0000 S   0  0  0  0  0  0  0  0  0  0  0  0
  5  3  1  0
  6  4  1  0
  8  7  2  0
 11  3  1  0
 11  4  1  0
 11  9  1  0
 12  5  1  0
 12  6  1  0
 13  7  1  0
 14 13  2  0
 15 13  1  0
 16  1  1  0
 17  8  1  0
 17 14  1  0
 18 10  2  0
 18 14  1  0
 19 10  1  0
 19 15  2  0
 20  2  1  0
 20 12  1  0
 20 15  1  0
 23  9  1  0
 23 16  1  0
 23 21  2  0
 23 22  2  0
M  END
>  <DRUGBANK_ID>  (1) 
DB11441

>  <COMMON_NAME>  (1) 
Oclacitinib

>  <UNII>  (1) 
99GS5XTB51

>  <SYNONYMS>  (1) 
Oclacitinib

$$$$
