
     RDKit          2D

 25 28  0  0  1  0  0  0  0  0999 V2000
   -0.6618   -0.0421    0.0000 C   0  0  0  0  0  0  0  0  0  0  0  0
    0.7706   -0.0421    0.0000 C   0  0  0  0  0  0  0  0  0  0  0  0
    1.4974    0.3792    0.0000 C   0  0  0  0  0  0  0  0  0  0  0  0
    1.4974    1.1867    0.0000 C   0  0  0  0  0  0  0  0  0  0  0  0
    2.2699    1.4360    0.0000 C   0  0  0  0  0  0  0  0  0  0  0  0
    0.0755    0.3792    0.0000 C   0  0  0  0  0  0  0  0  0  0  0  0
   -0.6618   -0.8671    0.0000 C   0  0  0  0  0  0  0  0  0  0  0  0
   -1.3710   -1.2849    0.0000 C   0  0  0  0  0  0  0  0  0  0  0  0
   -2.0837   -0.8671    0.0000 C   0  0  0  0  0  0  0  0  0  0  0  0
   -2.8035   -1.2849    0.0000 O   0  0  0  0  0  0  0  0  0  0  0  0
   -2.0837   -0.0421    0.0000 C   0  0  0  0  0  0  0  0  0  0  0  0
   -1.3710    0.3792    0.0000 C   0  0  0  0  0  0  0  0  0  0  0  0
   -1.3710    1.2078    0.0000 H   0  0  0  0  0  0  0  0  0  0  0  0
   -2.8035    0.3757    0.0000 H   0  0  0  0  0  0  0  0  0  0  0  0
    0.0755   -1.2849    0.0000 C   0  0  0  0  0  0  0  0  0  0  0  0
    0.0650   -2.1593    0.0000 H   0  0  0  0  0  0  0  0  0  0  0  0
    0.7706   -0.8671    0.0000 C   0  0  0  0  0  0  0  0  0  0  0  0
    2.6350    2.1593    0.0000 O   0  0  0  0  0  0  0  0  0  0  0  0
    2.8035    0.7619    0.0000 C   0  0  0  0  0  0  0  0  0  0  0  0
    2.2699    0.1123    0.0000 C   0  0  0  0  0  0  0  0  0  0  0  0
    1.5045    1.9522    0.0000 C   0  0  0  0  0  0  0  0  0  0  0  0
    0.7706    1.5940    0.0000 C   0  0  0  0  0  0  0  0  0  0  0  0
    0.0755    1.1867    0.0000 C   0  0  0  0  0  0  0  0  0  0  0  0
    1.4799   -1.2779    0.0000 H   0  0  0  0  0  0  0  0  0  0  0  0
   -0.6618    0.7865    0.0000 C   0  0  0  0  0  0  0  0  0  0  0  0
  1 25  1  1
  2  6  1  0
  3  2  1  0
  4  3  1  0
  4 21  1  1
  5  4  1  0
  5 18  1  1
  6  1  1  0
  7  1  1  0
  8  7  2  0
  9  8  1  0
 10  9  2  0
 11  9  1  0
 11 12  1  0
 12  1  1  0
 13 12  1  0
 14 11  1  0
 15  7  1  0
 16 15  1  0
  2 17  1  6
 17 15  1  0
 19  5  1  0
 19 20  1  0
  3 20  1  1
 22  4  1  0
 22 23  1  0
  6 23  1  1
 24 17  1  0
M  ISO  4  13   3  14   3  16   3  24   3
M  END
>  <DRUGBANK_ID>  (1) 
DB14093

>  <COMMON_NAME>  (1) 
(1,2,6,7-3H)Testosterone

>  <CAS_NUMBER>  (1) 
67308-98-9

>  <UNII>  (1) 
P57HP4MCQZ

>  <SYNONYMS>  (1) 
Testosterone, 1,2,6,7-H-3

$$$$
