
     RDKit          2D

 26 29  0  0  0  0  0  0  0  0999 V2000
    2.1987    0.4677    0.0000 C   0  0  0  0  0  0  0  0  0  0  0  0
    1.4842    0.0552    0.0000 C   0  0  0  0  0  0  0  0  0  0  0  0
    1.4842   -0.7697    0.0000 C   0  0  0  0  0  0  0  0  0  0  0  0
    2.1987   -1.1822    0.0000 N   0  0  0  0  0  0  0  0  0  0  0  0
    2.9131   -0.7697    0.0000 C   0  0  0  0  0  0  0  0  0  0  0  0
    2.9131    0.0552    0.0000 N   0  0  0  0  0  0  0  0  0  0  0  0
    2.1987    1.2928    0.0000 N   0  0  0  0  0  0  0  0  0  0  0  0
    3.6277   -1.1822    0.0000 N   0  0  0  0  0  0  0  0  0  0  0  0
    0.7697    0.4677    0.0000 C   0  0  0  0  0  0  0  0  0  0  0  0
    0.0553    0.0552    0.0000 C   0  0  0  0  0  0  0  0  0  0  0  0
   -0.6592    0.4677    0.0000 C   0  0  0  0  0  0  0  0  0  0  0  0
   -1.3736    0.0552    0.0000 C   0  0  0  0  0  0  0  0  0  0  0  0
   -1.3736   -0.7697    0.0000 C   0  0  0  0  0  0  0  0  0  0  0  0
   -0.6592   -1.1822    0.0000 C   0  0  0  0  0  0  0  0  0  0  0  0
    0.0553   -0.7697    0.0000 C   0  0  0  0  0  0  0  0  0  0  0  0
   -0.6592    1.2928    0.0000 C   0  0  0  0  0  0  0  0  0  0  0  0
   -1.3736    1.7053    0.0000 C   0  0  0  0  0  0  0  0  0  0  0  0
   -2.0881    1.2928    0.0000 C   0  0  0  0  0  0  0  0  0  0  0  0
   -2.0881    0.4677    0.0000 O   0  0  0  0  0  0  0  0  0  0  0  0
   -0.6592   -2.0072    0.0000 O   0  0  0  0  0  0  0  0  0  0  0  0
    0.0553   -2.4197    0.0000 C   0  0  0  0  0  0  0  0  0  0  0  0
   -2.0881   -1.1822    0.0000 O   0  0  0  0  0  0  0  0  0  0  0  0
   -2.0881   -2.0072    0.0000 C   0  0  0  0  0  0  0  0  0  0  0  0
   -2.8026    1.7053    0.0000 C   0  0  0  0  0  0  0  0  0  0  0  0
   -3.2151    2.4197    0.0000 C   0  0  0  0  0  0  0  0  0  0  0  0
   -3.6277    1.7053    0.0000 C   0  0  0  0  0  0  0  0  0  0  0  0
  1  2  2  0
  1  7  1  0
  2  3  1  0
  2  9  1  0
  3  4  2  0
  4  5  1  0
  5  6  2  0
  5  8  1  0
  6  1  1  0
  9 10  1  0
 10 11  2  0
 11 16  1  0
 11 12  1  0
 12 13  2  0
 12 19  1  0
 13 14  1  0
 13 22  1  0
 14 15  2  0
 14 20  1  0
 15 10  1  0
 16 17  2  0
 17 18  1  0
 18 19  1  0
 18 24  1  1
 20 21  1  0
 22 23  1  0
 24 25  1  0
 24 26  1  0
 25 26  1  0
M  END
>  <DRUGBANK_ID>  (1) 
DB07938

>  <COMMON_NAME>  (1) 
(S)-iclaprim

>  <UNII>  (1) 
7P9VLC9Y9D

$$$$
