P21
     RDKit          2D

 29 31  0  0  0  0  0  0  0  0999 V2000
    2.9864    3.2493    0.0000 Cl  0  0  0  0  0  0  0  0  0  0  0  0
    2.2719    2.8368    0.0000 C   0  0  0  0  0  0  0  0  0  0  0  0
    2.2719    2.0118    0.0000 C   0  0  0  0  0  0  0  0  0  0  0  0
    1.5575    1.5993    0.0000 C   0  0  0  0  0  0  0  0  0  0  0  0
    1.5575    3.2493    0.0000 C   0  0  0  0  0  0  0  0  0  0  0  0
    0.8430    2.8368    0.0000 C   0  0  0  0  0  0  0  0  0  0  0  0
    0.8430    2.0118    0.0000 C   0  0  0  0  0  0  0  0  0  0  0  0
    0.1285    1.5993    0.0000 C   0  0  0  0  0  0  0  0  0  0  0  0
   -0.5860    2.0118    0.0000 O   0  0  0  0  0  0  0  0  0  0  0  0
    0.1285    0.7743    0.0000 N   0  0  0  0  0  0  0  0  0  0  0  0
    0.8430    0.3618    0.0000 C   0  0  0  0  0  0  0  0  0  0  0  0
    1.5575    0.7743    0.0000 C   0  0  0  0  0  0  0  0  0  0  0  0
   -0.5860    0.3618    0.0000 C   0  0  0  0  0  0  0  0  0  0  0  0
   -0.5860   -0.4632    0.0000 C   0  0  0  0  0  0  0  0  0  0  0  0
   -1.3004   -0.8757    0.0000 N   0  0  0  0  0  0  0  0  0  0  0  0
   -2.0149   -0.4632    0.0000 C   0  0  0  0  0  0  0  0  0  0  0  0
   -2.0149    0.3618    0.0000 C   0  0  0  0  0  0  0  0  0  0  0  0
   -1.3004    0.7743    0.0000 C   0  0  0  0  0  0  0  0  0  0  0  0
   -1.3004   -1.7007    0.0000 C   0  0  0  0  0  0  0  0  0  0  0  0
   -0.5860   -2.1132    0.0000 C   0  0  0  0  0  0  0  0  0  0  0  0
   -0.5860   -2.9382    0.0000 C   0  0  0  0  0  0  0  0  0  0  0  0
    0.1285   -3.3507    0.0000 C   0  0  0  0  0  0  0  0  0  0  0  0
    0.1285   -4.1757    0.0000 C   0  0  0  0  0  0  0  0  0  0  0  0
   -0.5860   -4.5882    0.0000 C   0  0  0  0  0  0  0  0  0  0  0  0
   -1.3004   -4.1757    0.0000 C   0  0  0  0  0  0  0  0  0  0  0  0
   -1.3004   -3.3507    0.0000 C   0  0  0  0  0  0  0  0  0  0  0  0
    2.2719    0.3618    0.0000 C   0  0  0  0  0  0  0  0  0  0  0  0
    2.9864    0.7743    0.0000 O   0  0  0  0  0  0  0  0  0  0  0  0
    3.7009    0.3618    0.0000 C   0  0  0  0  0  0  0  0  0  0  0  0
  1  2  1  0
  2  3  2  0
  2  5  1  0
  3  4  1  0
  4  7  2  0
  5  6  2  0
  6  7  1  0
  7  8  1  0
  8  9  2  0
  8 10  1  0
 10 11  1  0
 11 12  1  0
 12 27  1  0
 13 10  1  6
 13 14  1  0
 13 18  1  0
 14 15  1  0
 15 16  1  0
 15 19  1  0
 16 17  1  0
 17 18  1  0
 19 20  1  0
 20 21  1  0
 21 22  2  0
 21 26  1  0
 22 23  1  0
 23 24  2  0
 24 25  1  0
 25 26  2  0
 27 28  1  0
 28 29  1  0
M  END
>  <DRUGBANK_ID>  (1) 
DB08344

>  <COMMON_NAME>  (1) 
4-chloro-N-(3-methoxypropyl)-N-[(3S)-1-(2-phenylethyl)piperidin-3-yl]benzamide

$$$$
