
     RDKit          2D

  9  8  0  0  0  0  0  0  0  0999 V2000
    0.0000    0.2062    0.0000 C   0  0  0  0  0  0  0  0  0  0  0  0
    0.7145   -0.2062    0.0000 C   0  0  0  0  0  0  0  0  0  0  0  0
   -0.7145   -0.2062    0.0000 C   0  0  0  0  0  0  0  0  0  0  0  0
    1.4289    0.2062    0.0000 C   0  0  0  0  0  0  0  0  0  0  0  0
    2.1434   -0.2062    0.0000 O   0  0  0  0  0  0  0  0  0  0  0  0
   -1.4289    0.2062    0.0000 S   0  0  0  0  0  0  0  0  0  0  0  0
   -2.1434   -0.2062    0.0000 C   0  0  0  0  0  0  0  0  0  0  0  0
    1.4290    1.0312    0.0000 O   0  0  0  0  0  0  0  0  0  0  0  0
    0.7145   -1.0312    0.0000 O   0  0  0  0  0  0  0  0  0  0  0  0
  2  1  1  0
  3  1  1  0
  3  6  1  0
  4  2  1  0
  4  5  1  0
  7  6  1  0
  8  4  2  0
  9  2  2  0
M  END
>  <DRUGBANK_ID>  (1) 
DB02238

>  <SECONDARY_ACCESSION_NUMBERS>  (1) 
EXPT01977

>  <COMMON_NAME>  (1) 
4-methylthio-2-oxobutanoic acid

>  <CAS_NUMBER>  (1) 
583-92-6

>  <UNII>  (1) 
286060413U

>  <SYNONYMS>  (1) 
2-Keto-4-methylthiobutyric acid; 2-Oxo-4-thiomethylbutyric acid; 4-Methylmercapto-2-oxobutyrate; 4-Methylthio-2-ketobutyric acid; alpha-Keto-gamma-methiolbutyrate; alpha-Ketomethionine; gamma-Methiol-keto-butyric acid; S-Methyl-alpha-ketobutyric acid

$$$$
