SCZ
     RDKit          2D

 26 30  0  0  0  0  0  0  0  0999 V2000
   -1.2769    1.0517    0.0000 C   0  0  0  0  0  0  0  0  0  0  0  0
   -0.4923    0.7968    0.0000 C   0  0  0  0  0  0  0  0  0  0  0  0
   -0.4923   -0.0282    0.0000 N   0  0  0  0  0  0  0  0  0  0  0  0
   -1.2769   -0.2832    0.0000 N   0  0  0  0  0  0  0  0  0  0  0  0
   -1.7618    0.3843    0.0000 C   0  0  0  0  0  0  0  0  0  0  0  0
    0.2222    1.2093    0.0000 N   0  0  0  0  0  0  0  0  0  0  0  0
    0.9367    0.7968    0.0000 C   0  0  0  0  0  0  0  0  0  0  0  0
    0.9367   -0.0282    0.0000 C   0  0  0  0  0  0  0  0  0  0  0  0
    0.2222   -0.4407    0.0000 C   0  0  0  0  0  0  0  0  0  0  0  0
    0.2222   -1.2657    0.0000 N   0  0  0  0  0  0  0  0  0  0  0  0
    1.6512    1.2093    0.0000 C   0  0  0  0  0  0  0  0  0  0  0  0
   -0.4923   -1.6782    0.0000 C   0  0  0  0  0  0  0  0  0  0  0  0
   -0.4923   -2.5032    0.0000 C   0  0  0  0  0  0  0  0  0  0  0  0
   -1.2067   -2.9157    0.0000 C   0  0  0  0  0  0  0  0  0  0  0  0
   -1.2067   -3.7407    0.0000 N   0  0  0  0  0  0  0  0  0  0  0  0
   -0.4923   -4.1532    0.0000 C   0  0  0  0  0  0  0  0  0  0  0  0
    0.2222   -3.7407    0.0000 C   0  0  0  0  0  0  0  0  0  0  0  0
    0.2222   -2.9157    0.0000 C   0  0  0  0  0  0  0  0  0  0  0  0
    2.3656    0.7968    0.0000 C   0  0  0  0  0  0  0  0  0  0  0  0
    3.0801    1.2093    0.0000 C   0  0  0  0  0  0  0  0  0  0  0  0
    3.0801    2.0343    0.0000 C   0  0  0  0  0  0  0  0  0  0  0  0
    2.3656    2.4468    0.0000 C   0  0  0  0  0  0  0  0  0  0  0  0
    1.6512    2.0343    0.0000 C   0  0  0  0  0  0  0  0  0  0  0  0
   -1.5318    1.8363    0.0000 C   0  0  0  0  0  0  0  0  0  0  0  0
   -2.1449    2.3884    0.0000 C   0  0  0  0  0  0  0  0  0  0  0  0
   -1.3603    2.6433    0.0000 C   0  0  0  0  0  0  0  0  0  0  0  0
  1  2  2  0
  1 24  1  0
  2  6  1  0
  3  2  1  0
  4  5  2  0
  4  3  1  0
  5  1  1  0
  7  6  2  0
  7 11  1  0
  8  7  1  0
  9  3  1  0
  9  8  2  0
 10 12  1  0
 10  9  1  0
 11 23  1  0
 11 19  2  0
 13 18  1  0
 13 12  1  0
 14 13  2  0
 15 16  2  0
 15 14  1  0
 16 17  1  0
 17 18  2  0
 19 20  1  0
 20 21  2  0
 22 21  1  0
 23 22  2  0
 24 25  1  0
 24 26  1  0
 25 26  1  0
M  END
>  <DRUGBANK_ID>  (1) 
DB08539

>  <COMMON_NAME>  (1) 
3-cyclopropyl-5-phenyl-N-(pyridin-3-ylmethyl)pyrazolo[1,5-a]pyrimidin-7-amine

$$$$
