
     RDKit          2D

  5  4  0  0  0  0  0  0  0  0999 V2000
    0.0000   -0.8250    0.0000 C   0  0  0  0  0  0  0  0  0  0  0  0
    0.0000    0.8250    0.0000 C   0  0  0  0  0  0  0  0  0  0  0  0
    0.0000    0.0000    0.0000 As  0  0  0  0  0  5  0  0  0  0  0  0
    0.8250    0.0000    0.0000 O   0  0  0  0  0  0  0  0  0  0  0  0
   -0.8250    0.0000    0.0000 O   0  0  0  0  0  0  0  0  0  0  0  0
  3  1  1  0
  3  2  1  0
  4  3  1  0
  5  3  2  0
M  END
>  <DRUGBANK_ID>  (1) 
DB02994

>  <SECONDARY_ACCESSION_NUMBERS>  (1) 
EXPT00823

>  <COMMON_NAME>  (1) 
Cacodylic acid

>  <CAS_NUMBER>  (1) 
75-60-5

>  <UNII>  (1) 
AJ2HL7EU8K

>  <SYNONYMS>  (1) 
Dimethylarsenic acid; Dimethylarsinic acid; Hydroxydimethylarsine oxide

$$$$
