
     RDKit          2D

 44 48  0  0  0  0  0  0  0  0999 V2000
   -7.2514    7.2402    0.0000 C   0  0  0  0  0  0  0  0  0  0  0  0
   -6.5369    6.8277    0.0000 C   0  0  0  0  0  0  0  0  0  0  0  0
   -5.8225    7.2402    0.0000 C   0  0  0  0  0  0  0  0  0  0  0  0
   -5.1080    6.8277    0.0000 C   0  0  0  0  0  0  0  0  0  0  0  0
   -4.3935    7.2402    0.0000 C   0  0  0  0  0  0  0  0  0  0  0  0
   -3.6791    6.8277    0.0000 C   0  0  0  0  0  0  0  0  0  0  0  0
   -2.9646    7.2402    0.0000 C   0  0  0  0  0  0  0  0  0  0  0  0
   -2.2501    6.8277    0.0000 C   0  0  0  0  0  0  0  0  0  0  0  0
   -2.2501    6.0027    0.0000 C   0  0  0  0  0  0  0  0  0  0  0  0
   -2.9646    5.5902    0.0000 C   0  0  0  0  0  0  0  0  0  0  0  0
   -3.6791    6.0027    0.0000 C   0  0  0  0  0  0  0  0  0  0  0  0
   -1.5356    5.5902    0.0000 C   0  0  0  0  0  0  0  0  0  0  0  0
   -1.5356    4.7652    0.0000 O   0  0  0  0  0  0  0  0  0  0  0  0
   -0.8212    6.0027    0.0000 N   0  0  0  0  0  0  0  0  0  0  0  0
   -0.8212    6.8277    0.0000 C   0  0  0  0  0  0  0  0  0  0  0  0
   -0.1067    7.2402    0.0000 C   0  0  0  0  0  0  0  0  0  0  0  0
   -0.1067    8.0652    0.0000 C   0  0  0  0  0  0  0  0  0  0  0  0
    0.6078    8.4777    0.0000 C   0  0  0  0  0  0  0  0  0  0  0  0
    1.3222    8.0652    0.0000 C   0  0  0  0  0  0  0  0  0  0  0  0
    1.3222    7.2402    0.0000 C   0  0  0  0  0  0  0  0  0  0  0  0
    0.6078    6.8277    0.0000 C   0  0  0  0  0  0  0  0  0  0  0  0
    2.0367    8.4777    0.0000 C   0  0  0  0  0  0  0  0  0  0  0  0
    2.0367    9.3027    0.0000 C   0  0  0  0  0  0  0  0  0  0  0  0
    2.7512    9.7152    0.0000 C   0  0  0  0  0  0  0  0  0  0  0  0
    3.4656    9.3027    0.0000 C   0  0  0  0  0  0  0  0  0  0  0  0
    4.1801    9.7152    0.0000 C   0  0  0  0  0  0  0  0  0  0  0  0
    4.1801   10.5402    0.0000 C   0  0  0  0  0  0  0  0  0  0  0  0
    3.4656   10.9527    0.0000 O   0  0  0  0  0  0  0  0  0  0  0  0
    4.8946   10.9527    0.0000 O   0  0  0  0  0  0  0  0  0  0  0  0
    4.8946   11.7777    0.0000 C   0  0  0  0  0  0  0  0  0  0  0  0
    3.4656    8.4777    0.0000 C   0  0  0  0  0  0  0  0  0  0  0  0
    2.7512    8.0652    0.0000 C   0  0  0  0  0  0  0  0  0  0  0  0
   -0.1067    5.5902    0.0000 C   0  0  0  0  0  0  0  0  0  0  0  0
    0.6078    6.0027    0.0000 C   0  0  0  0  0  0  0  0  0  0  0  0
    1.3222    5.5902    0.0000 C   0  0  0  0  0  0  0  0  0  0  0  0
    1.3222    4.7652    0.0000 N   0  0  0  0  0  0  0  0  0  0  0  0
    0.6078    4.3527    0.0000 C   0  0  0  0  0  0  0  0  0  0  0  0
   -0.1067    4.7652    0.0000 C   0  0  0  0  0  0  0  0  0  0  0  0
    2.0367    4.3527    0.0000 C   0  0  0  0  0  0  0  0  0  0  0  0
    2.0367    3.5277    0.0000 C   0  0  0  0  0  0  0  0  0  0  0  0
    2.7041    3.0428    0.0000 N   0  0  0  0  0  0  0  0  0  0  0  0
    2.4492    2.2581    0.0000 C   0  0  0  0  0  0  0  0  0  0  0  0
    1.6242    2.2581    0.0000 C   0  0  0  0  0  0  0  0  0  0  0  0
    1.3693    3.0428    0.0000 N   0  0  0  0  0  0  0  0  0  0  0  0
  1  2  1  0
  2  3  1  0
  3  4  1  0
  4  5  1  0
  5  6  1  0
  6  7  2  0
  6 11  1  0
  7  8  1  0
  8  9  2  0
  9 10  1  0
  9 12  1  0
 10 11  2  0
 12 13  2  0
 12 14  1  0
 14 15  1  0
 14 33  1  0
 15 16  1  0
 16 17  2  0
 16 21  1  0
 17 18  1  0
 18 19  2  0
 19 20  1  0
 19 22  1  0
 20 21  2  0
 22 23  2  0
 22 32  1  0
 23 24  1  0
 24 25  2  0
 25 26  1  0
 25 31  1  0
 26 27  1  0
 27 28  2  0
 27 29  1  0
 29 30  1  0
 31 32  2  0
 33 34  1  0
 33 38  1  0
 34 35  1  0
 35 36  1  0
 36 37  1  0
 36 39  1  0
 37 38  1  0
 39 40  1  0
 40 41  2  0
 40 44  1  0
 41 42  1  0
 42 43  2  0
 43 44  1  0
M  END
>  <DRUGBANK_ID>  (1) 
DB02505

>  <SECONDARY_ACCESSION_NUMBERS>  (1) 
EXPT01851

>  <COMMON_NAME>  (1) 
N-(R-Carboxy-Ethyl)-Alpha-(S)-(2-Phenylethyl)

$$$$
