
     RDKit          2D

 12 11  0  0  1  0  0  0  0  0999 V2000
    0.5230    1.1270    0.0000 C   0  0  0  0  0  0  0  0  0  0  0  0
    4.0954    0.7145    0.0000 C   0  0  0  0  0  0  0  0  0  0  0  0
    1.2375    0.7145    0.0000 C   0  0  0  0  0  0  0  0  0  0  0  0
    3.3809    1.1270    0.0000 C   0  0  0  0  0  0  0  0  0  0  0  0
    1.9520    1.1270    0.0000 C   0  0  0  0  0  0  0  0  0  0  0  0
    2.6664    0.7145    0.0000 C   0  0  0  0  0  0  0  0  0  0  0  0
   -0.1914    0.7145    0.0000 O   0  0  0  0  0  0  0  0  0  0  0  0
    4.8099    1.1270    0.0000 O   0  0  0  0  0  0  0  0  0  0  0  0
    1.2375   -0.1105    0.0000 O   0  0  0  0  0  0  0  0  0  0  0  0
    3.3809    1.9520    0.0000 O   0  0  0  0  0  0  0  0  0  0  0  0
    1.9520    1.9520    0.0000 O   0  0  0  0  0  0  0  0  0  0  0  0
    2.6664   -0.1105    0.0000 O   0  0  0  0  0  0  0  0  0  0  0  0
  3  1  1  0
  3  9  1  6
  4  2  1  0
  4 10  1  6
  5  3  1  0
  5 11  1  1
  6  4  1  0
  6  5  1  0
  6 12  1  1
  7  1  2  0
  8  2  1  0
M  END
>  <DRUGBANK_ID>  (1) 
DB12907

>  <COMMON_NAME>  (1) 
Mannose

>  <CAS_NUMBER>  (1) 
3458-28-4

>  <UNII>  (1) 
PHA4727WTP

>  <SYNONYMS>  (1) 
D-mannose

$$$$
