
     RDKit          2D

 33 37  0  0  1  0  0  0  0  0999 V2000
   -5.7713   -3.3320    0.0000 C   0  0  0  0  0  0  0  0  0  0  0  0
   -5.0568   -2.9195    0.0000 N   0  0  0  0  0  0  0  0  0  0  0  0
   -4.9706   -2.0991    0.0000 C   0  0  0  0  0  0  0  0  0  0  0  0
   -4.1636   -1.9275    0.0000 C   0  0  0  0  0  0  0  0  0  0  0  0
   -3.6116   -1.3144    0.0000 C   0  0  0  0  0  0  0  0  0  0  0  0
   -2.8579   -1.6500    0.0000 C   0  0  0  0  0  0  0  0  0  0  0  0
   -2.9441   -2.4705    0.0000 C   0  0  0  0  0  0  0  0  0  0  0  0
   -3.7511   -2.6420    0.0000 C   0  0  0  0  0  0  0  0  0  0  0  0
   -4.3031   -3.2551    0.0000 C   0  0  0  0  0  0  0  0  0  0  0  0
   -2.1434   -1.2375    0.0000 C   0  0  0  0  0  0  0  0  0  0  0  0
   -1.4289   -1.6500    0.0000 O   0  0  0  0  0  0  0  0  0  0  0  0
   -0.7145   -1.2375    0.0000 C   0  0  0  0  0  0  0  0  0  0  0  0
    0.0000   -1.6500    0.0000 C   0  0  0  0  0  0  0  0  0  0  0  0
    0.7145   -1.2375    0.0000 C   0  0  0  0  0  0  0  0  0  0  0  0
    0.7145   -0.4125    0.0000 C   0  0  0  0  0  0  0  0  0  0  0  0
    0.0000   -0.0000    0.0000 C   0  0  0  0  0  0  0  0  0  0  0  0
   -0.7145   -0.4125    0.0000 C   0  0  0  0  0  0  0  0  0  0  0  0
   -1.4289    0.0000    0.0000 O   0  0  0  0  0  0  0  0  0  0  0  0
   -2.1434   -0.4125    0.0000 C   0  0  0  0  0  0  0  0  0  0  0  0
    1.4289   -0.0000    0.0000 C   0  0  0  0  0  0  0  0  0  0  0  0
    2.1434   -0.4125    0.0000 N   0  0  0  0  0  0  0  0  0  0  0  0
    2.1434   -1.2375    0.0000 C   0  0  0  0  0  0  0  0  0  0  0  0
    1.4289   -1.6500    0.0000 N   0  0  0  0  0  0  0  0  0  0  0  0
    1.4289    0.8250    0.0000 N   0  0  0  0  0  0  0  0  0  0  0  0
    2.1434    1.2375    0.0000 C   0  0  0  0  0  0  0  0  0  0  0  0
    2.1434    2.0625    0.0000 C   0  0  0  0  0  0  0  0  0  0  0  0
    2.8579    2.4750    0.0000 C   0  0  0  0  0  0  0  0  0  0  0  0
    3.5724    2.0625    0.0000 C   0  0  0  0  0  0  0  0  0  0  0  0
    3.5724    1.2375    0.0000 C   0  0  0  0  0  0  0  0  0  0  0  0
    2.8579    0.8250    0.0000 C   0  0  0  0  0  0  0  0  0  0  0  0
    2.8579    0.0000    0.0000 F   0  0  0  0  0  0  0  0  0  0  0  0
    4.2868    0.8250    0.0000 Cl  0  0  0  0  0  0  0  0  0  0  0  0
    4.2868    2.4750    0.0000 Cl  0  0  0  0  0  0  0  0  0  0  0  0
  1  2  1  0
  2  3  1  0
  2  9  1  0
  4  3  1  1
  4  5  1  0
  4  8  1  0
  5  6  1  0
  6  7  1  0
  6 10  1  1
  8  7  1  1
  8  9  1  0
 10 11  1  0
 11 12  1  0
 12 13  2  0
 12 17  1  0
 13 14  1  0
 14 15  2  0
 14 23  1  0
 15 16  1  0
 15 20  1  0
 16 17  2  0
 17 18  1  0
 18 19  1  0
 20 21  2  0
 20 24  1  0
 21 22  1  0
 22 23  2  0
 24 25  1  0
 25 26  2  0
 25 30  1  0
 26 27  1  0
 27 28  2  0
 28 29  1  0
 28 33  1  0
 29 30  2  0
 29 32  1  0
 30 31  1  0
M  END
>  <DRUGBANK_ID>  (1) 
DB11973

>  <SECONDARY_ACCESSION_NUMBERS>  (1) 
DB05007

>  <COMMON_NAME>  (1) 
Tesevatinib

>  <CAS_NUMBER>  (1) 
781613-23-8

>  <UNII>  (1) 
F6XM2TN5A1

>  <SYNONYMS>  (1) 
Tesevatinib

$$$$
