
     RDKit          2D

 24 27  0  0  1  0  0  0  0  0999 V2000
    6.2068    1.2552    0.0000 O   0  0  0  0  0  0  0  0  0  0  0  0
    4.1129    1.6713    0.0000 O   0  0  0  0  0  0  0  0  0  0  0  0
    5.1704    3.1215    0.0000 O   0  0  0  0  0  0  0  0  0  0  0  0
    1.6500   -2.7866    0.0000 O   0  0  0  0  0  0  0  0  0  0  0  0
    7.6296    2.2271    0.0000 O   0  0  0  0  0  0  0  0  0  0  0  0
    5.1654    0.2174    0.0000 N   0  0  0  0  0  0  0  0  0  0  0  0
    3.6703   -2.0965    0.0000 N   0  0  0  0  0  0  0  0  0  0  0  0
    5.1654   -1.1105    0.0000 N   0  0  0  0  0  0  0  0  0  0  0  0
    3.6703    0.3785    0.0000 N   0  0  0  0  0  0  0  0  0  0  0  0
    2.9558   -0.8590    0.0000 N   0  0  0  0  0  0  0  0  0  0  0  0
    5.4217    1.0016    0.0000 C   0  0  0  0  0  0  0  0  0  0  0  0
    4.9379    1.6698    0.0000 C   0  0  0  0  0  0  0  0  0  0  0  0
    5.4240    2.3365    0.0000 C   0  0  0  0  0  0  0  0  0  0  0  0
    6.2082    2.0802    0.0000 C   0  0  0  0  0  0  0  0  0  0  0  0
    6.8765    2.5640    0.0000 C   0  0  0  0  0  0  0  0  0  0  0  0
    2.9558   -2.5090    0.0000 C   0  0  0  0  0  0  0  0  0  0  0  0
    4.3847   -0.0340    0.0000 C   0  0  0  0  0  0  0  0  0  0  0  0
    2.8695   -3.3296    0.0000 C   0  0  0  0  0  0  0  0  0  0  0  0
    4.3847   -0.8590    0.0000 C   0  0  0  0  0  0  0  0  0  0  0  0
    5.6469   -0.4465    0.0000 C   0  0  0  0  0  0  0  0  0  0  0  0
    2.2021   -2.1735    0.0000 C   0  0  0  0  0  0  0  0  0  0  0  0
    3.6703   -1.2715    0.0000 C   0  0  0  0  0  0  0  0  0  0  0  0
    2.0625   -3.5011    0.0000 C   0  0  0  0  0  0  0  0  0  0  0  0
    2.9558   -0.0340    0.0000 C   0  0  0  0  0  0  0  0  0  0  0  0
  1 11  1  0
  1 14  1  0
  4 21  1  0
  4 23  1  0
  5 15  1  0
  6 17  1  0
  6 20  1  0
  7 22  1  0
  8 19  1  0
  8 20  2  0
  9 17  1  0
  9 24  2  0
 10 22  2  0
 10 24  1  0
 11  6  1  1
 11 12  1  0
 12  2  1  6
 12 13  1  0
 13  3  1  6
 13 14  1  0
 14 15  1  1
 16  7  1  6
 16 18  1  0
 16 21  1  0
 17 19  2  0
 18 23  1  0
 19 22  1  0
M  END
>  <DRUGBANK_ID>  (1) 
DB04954

>  <COMMON_NAME>  (1) 
Tecadenoson

>  <CAS_NUMBER>  (1) 
204512-90-3

>  <UNII>  (1) 
GZ1X96601Z

>  <SYNONYMS>  (1) 
Tecadenoson

$$$$
