
     RDKit          2D

 19 20  0  0  0  0  0  0  0  0999 V2000
    3.3306   -0.7917    0.0000 S   0  0  0  0  0  0  0  0  0  0  0  0
    1.8354    1.5222    0.0000 O   0  0  0  0  0  0  0  0  0  0  0  0
    0.4064   -0.9529    0.0000 O   0  0  0  0  0  0  0  0  0  0  0  0
    1.8354   -1.7780    0.0000 O   0  0  0  0  0  0  0  0  0  0  0  0
    3.3306    0.5360    0.0000 N   0  0  0  0  0  0  0  0  0  0  0  0
   -1.0227    0.6971    0.0000 C   0  0  0  0  0  0  0  0  0  0  0  0
   -0.3081    0.2846    0.0000 C   0  0  0  0  0  0  0  0  0  0  0  0
   -1.7372    0.2846    0.0000 C   0  0  0  0  0  0  0  0  0  0  0  0
    0.4064    0.6971    0.0000 C   0  0  0  0  0  0  0  0  0  0  0  0
   -2.4517    0.6971    0.0000 C   0  0  0  0  0  0  0  0  0  0  0  0
    1.1209    0.2846    0.0000 C   0  0  0  0  0  0  0  0  0  0  0  0
   -3.1662    0.2846    0.0000 C   0  0  0  0  0  0  0  0  0  0  0  0
    1.8354    0.6971    0.0000 C   0  0  0  0  0  0  0  0  0  0  0  0
    1.1209   -0.5404    0.0000 C   0  0  0  0  0  0  0  0  0  0  0  0
    2.5500    0.2846    0.0000 C   0  0  0  0  0  0  0  0  0  0  0  0
   -3.8807    0.6971    0.0000 C   0  0  0  0  0  0  0  0  0  0  0  0
    2.5500   -0.5404    0.0000 C   0  0  0  0  0  0  0  0  0  0  0  0
    1.8354   -0.9529    0.0000 C   0  0  0  0  0  0  0  0  0  0  0  0
    3.8122   -0.1278    0.0000 C   0  0  0  0  0  0  0  0  0  0  0  0
  1 17  1  0
  1 19  1  0
  2 13  1  0
  3 14  2  0
  4 18  2  0
  5 15  1  0
  5 19  2  0
  6  7  1  0
  6  8  1  0
  7  9  1  0
  8 10  1  0
  9 11  1  0
 10 12  1  0
 11 13  2  0
 11 14  1  0
 12 16  1  0
 13 15  1  0
 14 18  1  0
 15 17  2  0
 17 18  1  0
M  END
>  <DRUGBANK_ID>  (1) 
DB07636

>  <COMMON_NAME>  (1) 
5-Heptyl-6-hydroxy-1,3-benzothiazole-4,7-dione

>  <CAS_NUMBER>  (1) 
611207-02-4

$$$$
