24U
     RDKit          2D

 23 24  0  0  0  0  0  0  0  0999 V2000
    0.8678   -1.6349    0.0000 N   0  0  0  0  0  0  0  0  0  0  0  0
    0.2003   -1.1500    0.0000 C   0  0  0  0  0  0  0  0  0  0  0  0
    0.2003   -0.3250    0.0000 C   0  0  0  0  0  0  0  0  0  0  0  0
    0.9148    0.0875    0.0000 O   0  0  0  0  0  0  0  0  0  0  0  0
   -0.5141    0.0875    0.0000 N   0  0  0  0  0  0  0  0  0  0  0  0
   -0.5141    0.9125    0.0000 C   0  0  0  0  0  0  0  0  0  0  0  0
   -1.2286    1.3250    0.0000 C   0  0  0  0  0  0  0  0  0  0  0  0
   -1.2286    2.1500    0.0000 C   0  0  0  0  0  0  0  0  0  0  0  0
   -1.9431    2.5625    0.0000 C   0  0  0  0  0  0  0  0  0  0  0  0
   -2.6576    2.1500    0.0000 C   0  0  0  0  0  0  0  0  0  0  0  0
   -3.3720    2.5625    0.0000 C   0  0  0  0  0  0  0  0  0  0  0  0
   -4.0865    2.1500    0.0000 N   0  0  0  0  0  0  0  0  0  0  0  0
   -3.3720    3.3875    0.0000 N   0  0  0  0  0  0  0  0  0  0  0  0
   -2.6576    1.3250    0.0000 C   0  0  0  0  0  0  0  0  0  0  0  0
   -1.9431    0.9125    0.0000 C   0  0  0  0  0  0  0  0  0  0  0  0
   -0.4671   -1.6349    0.0000 C   0  0  0  0  0  0  0  0  0  0  0  0
   -0.2122   -2.4195    0.0000 C   0  0  0  0  0  0  0  0  0  0  0  0
    0.6128   -2.4195    0.0000 C   0  0  0  0  0  0  0  0  0  0  0  0
    1.6524   -1.3800    0.0000 C   0  0  0  0  0  0  0  0  0  0  0  0
    1.8239   -0.5730    0.0000 C   0  0  0  0  0  0  0  0  0  0  0  0
    2.6085   -0.3181    0.0000 C   0  0  0  0  0  0  0  0  0  0  0  0
    3.2216   -0.8701    0.0000 C   0  0  0  0  0  0  0  0  0  0  0  0
    2.2655   -1.9320    0.0000 O   0  0  0  0  0  0  0  0  0  0  0  0
  1 19  1  0
  2  1  1  0
  2  3  1  1
  3  5  1  0
  4  3  2  0
  6  5  1  0
  6  7  1  0
  7 15  1  0
  7  8  2  0
  8  9  1  0
  9 10  2  0
 10 11  1  0
 11 13  2  0
 11 12  1  0
 14 10  1  0
 15 14  2  0
 16  2  1  0
 16 17  1  0
 17 18  1  0
 18  1  1  0
 19 23  2  0
 19 20  1  0
 20 21  1  0
 21 22  1  0
M  END
>  <DRUGBANK_ID>  (1) 
DB06929

>  <COMMON_NAME>  (1) 
1-butanoyl-N-(4-carbamimidoylbenzyl)-L-prolinamide

$$$$
