
     RDKit          2D

 15 14  0  0  0  0  0  0  0  0999 V2000
   -4.3164    2.1434    0.0000 C   0  0  0  0  0  0  0  0  0  0  0  0
    2.1138    0.9059    0.0000 C   0  0  0  0  0  0  0  0  0  0  0  0
   -0.0296    2.9684    0.0000 C   0  0  0  0  0  0  0  0  0  0  0  0
   -3.6020    1.7309    0.0000 C   0  0  0  0  0  0  0  0  0  0  0  0
   -2.8875    2.1434    0.0000 C   0  0  0  0  0  0  0  0  0  0  0  0
   -2.1730    1.7309    0.0000 C   0  0  0  0  0  0  0  0  0  0  0  0
   -1.4586    2.1434    0.0000 C   0  0  0  0  0  0  0  0  0  0  0  0
   -0.7441    1.7309    0.0000 C   0  0  0  0  0  0  0  0  0  0  0  0
    2.8283    2.1434    0.0000 C   0  0  0  0  0  0  0  0  0  0  0  0
    2.1138    1.7309    0.0000 C   0  0  0  0  0  0  0  0  0  0  0  0
   -0.0296    2.1434    0.0000 C   0  0  0  0  0  0  0  0  0  0  0  0
    1.3993    2.1434    0.0000 C   0  0  0  0  0  0  0  0  0  0  0  0
    3.5427    2.5559    0.0000 N   0  0  0  0  0  0  0  0  0  0  0  0
    1.3993    2.9684    0.0000 O   0  0  0  0  0  0  0  0  0  0  0  0
    0.6849    1.7309    0.0000 O   0  0  0  0  0  0  0  0  0  0  0  0
  4  1  1  0
  5  4  1  0
  6  5  1  0
  7  6  1  0
  8  7  1  0
 10  2  2  0
 10  9  1  0
 11  3  1  0
 11  8  1  0
 12 10  1  0
 13  9  3  0
 14 12  2  0
 15 11  1  0
 15 12  1  0
M  END
>  <DRUGBANK_ID>  (1) 
DB12040

>  <COMMON_NAME>  (1) 
2-octyl cyanoacrylate

>  <CAS_NUMBER>  (1) 
133978-15-1

>  <UNII>  (1) 
L23GHX71SK

>  <SYNONYMS>  (1) 
1-methylheptyl cyanoacrylate; 2-octylcyanoacrylate; Liquid bandage

$$$$
