CYK
     RDKit          2D

 15 14  0  0  0  0  0  0  0  0999 V2000
   -2.8244    0.2152    0.0000 C   0  0  0  0  0  0  0  0  0  0  0  0
   -0.6810   -0.1973    0.0000 C   0  0  0  0  0  0  0  0  0  0  0  0
   -2.1099   -1.0223    0.0000 C   0  0  0  0  0  0  0  0  0  0  0  0
   -0.6810   -1.0223    0.0000 O   0  0  0  0  0  0  0  0  0  0  0  0
   -1.3955    0.2152    0.0000 N   0  0  0  0  0  0  0  0  0  0  0  0
   -2.1099   -0.1973    0.0000 C   0  0  0  0  0  0  0  0  0  0  0  0
   -2.8244   -1.4348    0.0000 O   0  0  0  0  0  0  0  0  0  0  0  0
   -1.3955   -1.4348    0.0000 O   0  0  0  0  0  0  0  0  0  0  0  0
   -3.5389   -0.1973    0.0000 C   0  0  0  0  0  0  0  0  0  0  0  0
   -4.2533    0.2152    0.0000 S   0  0  0  0  0  0  0  0  0  0  0  0
    0.0335    0.2152    0.0000 C   0  0  0  0  0  0  0  0  0  0  0  0
    0.7480   -0.1973    0.0000 C   0  0  0  0  0  0  0  0  0  0  0  0
    1.4624    0.2152    0.0000 C   0  0  0  0  0  0  0  0  0  0  0  0
    2.1769   -0.1973    0.0000 C   0  0  0  0  0  0  0  0  0  0  0  0
    2.8914    0.2152    0.0000 C   0  0  0  0  0  0  0  0  0  0  0  0
  1  9  1  0
  2  5  1  0
  3  6  1  0
  3  7  1  0
  4  2  2  0
  6  5  1  0
  6  1  1  6
  8  3  2  0
  9 10  1  0
 11  2  1  0
 12 11  1  0
 12 13  1  0
 14 13  1  0
 15 14  1  0
M  END
>  <DRUGBANK_ID>  (1) 
DB07603

>  <COMMON_NAME>  (1) 
N-hexanoyl-L-homocysteine

$$$$
