
     RDKit          2D

 23 22  0  0  1  0  0  0  0  0999 V2000
    0.7013   -0.6616    0.0000 C   0  0  0  0  0  0  0  0  0  0  0  0
   -0.1237   -0.6616    0.0000 C   0  0  0  0  0  0  0  0  0  0  0  0
   -0.3786    0.1230    0.0000 N   0  0  0  0  0  0  0  0  0  0  0  0
    0.2888    0.6079    0.0000 C   0  0  0  0  0  0  0  0  0  0  0  0
    0.9563    0.1230    0.0000 S   0  0  0  0  0  0  0  0  0  0  0  0
    0.2888    1.4329    0.0000 C   0  0  0  0  0  0  0  0  0  0  0  0
    1.0033    1.8454    0.0000 O   0  0  0  0  0  0  0  0  0  0  0  0
   -0.4256    1.8454    0.0000 O   0  0  0  0  0  0  0  0  0  0  0  0
   -0.6086   -1.3290    0.0000 C   0  0  0  0  0  0  0  0  0  0  0  0
   -0.2730   -2.0827    0.0000 O   0  0  0  0  0  0  0  0  0  0  0  0
   -1.4291   -1.2428    0.0000 O   0  0  0  0  0  0  0  0  0  0  0  0
    5.6290    0.2750    0.0000 C   0  0  0  0  0  0  0  0  0  0  0  0
    4.9146   -0.1375    0.0000 C   0  0  0  0  0  0  0  0  0  0  0  0
    4.2001    0.2750    0.0000 C   0  0  0  0  0  0  0  0  0  0  0  0
    3.4856   -0.1375    0.0000 C   0  0  0  0  0  0  0  0  0  0  0  0
    2.7712    0.2750    0.0000 O   0  0  0  0  0  0  0  0  0  0  0  0
    3.4856   -0.9625    0.0000 O   0  0  0  0  0  0  0  0  0  0  0  0
    4.2001    1.1000    0.0000 N   0  0  0  0  0  0  0  0  0  0  0  0
    6.3435   -0.1375    0.0000 C   0  0  0  0  0  0  0  0  0  0  0  0
    7.0580    0.2750    0.0000 N   0  0  0  0  0  0  0  0  0  0  0  0
    7.7725   -0.1375    0.0000 C   0  0  0  0  0  0  0  0  0  0  0  0
    8.4869    0.2750    0.0000 N   0  0  0  0  0  0  0  0  0  0  0  0
    7.7725   -0.9625    0.0000 N   0  0  0  0  0  0  0  0  0  0  0  0
  1  2  1  0
  1  5  1  0
  2  3  1  0
  2  9  1  0
  3  4  1  0
  4  5  1  0
  4  6  1  0
  6  7  2  0
  6  8  1  0
  9 10  2  0
  9 11  1  0
 12 13  1  0
 12 19  1  0
 13 14  1  0
 14 15  1  0
 14 18  1  1
 15 16  2  0
 15 17  1  0
 19 20  1  0
 20 21  1  0
 21 22  2  0
 21 23  1  0
M  END
>  <DRUGBANK_ID>  (1) 
DB13748

>  <COMMON_NAME>  (1) 
Tidiacic arginine

>  <CAS_NUMBER>  (1) 
30986-62-0

>  <UNII>  (1) 
A9539XWW0P

$$$$
