
     RDKit          2D

 26 28  0  0  0  0  0  0  0  0999 V2000
    1.5356   10.5402    0.0000 C   0  0  0  0  0  0  0  0  0  0  0  0
    1.5356    9.7152    0.0000 O   0  0  0  0  0  0  0  0  0  0  0  0
    2.2501    9.3027    0.0000 C   0  0  0  0  0  0  0  0  0  0  0  0
    2.9646    9.7152    0.0000 C   0  0  0  0  0  0  0  0  0  0  0  0
    3.6791    9.3027    0.0000 C   0  0  0  0  0  0  0  0  0  0  0  0
    3.6791    8.4777    0.0000 C   0  0  0  0  0  0  0  0  0  0  0  0
    2.9646    8.0652    0.0000 C   0  0  0  0  0  0  0  0  0  0  0  0
    2.2501    8.4777    0.0000 C   0  0  0  0  0  0  0  0  0  0  0  0
    2.9646    7.2402    0.0000 C   0  0  0  0  0  0  0  0  0  0  0  0
    3.6791    6.8277    0.0000 O   0  0  0  0  0  0  0  0  0  0  0  0
    2.2501    6.8277    0.0000 C   0  0  0  0  0  0  0  0  0  0  0  0
    2.2501    6.0027    0.0000 O   0  0  0  0  0  0  0  0  0  0  0  0
    1.5356    5.5902    0.0000 C   0  0  0  0  0  0  0  0  0  0  0  0
    1.5356    4.7652    0.0000 C   0  0  0  0  0  0  0  0  0  0  0  0
    0.8212    4.3527    0.0000 C   0  0  0  0  0  0  0  0  0  0  0  0
    0.1067    4.7652    0.0000 C   0  0  0  0  0  0  0  0  0  0  0  0
   -0.6078    4.3527    0.0000 C   0  0  0  0  0  0  0  0  0  0  0  0
   -0.6078    3.5277    0.0000 C   0  0  0  0  0  0  0  0  0  0  0  0
    0.0597    3.0428    0.0000 S   0  0  0  0  0  0  0  0  0  0  0  0
   -0.1953    2.2581    0.0000 C   0  0  0  0  0  0  0  0  0  0  0  0
    0.2897    1.5907    0.0000 O   0  0  0  0  0  0  0  0  0  0  0  0
   -1.0203    2.2581    0.0000 N   0  0  0  0  0  0  0  0  0  0  0  0
   -1.2752    3.0428    0.0000 C   0  0  0  0  0  0  0  0  0  0  0  0
   -2.0598    3.2977    0.0000 O   0  0  0  0  0  0  0  0  0  0  0  0
    0.1067    5.5902    0.0000 C   0  0  0  0  0  0  0  0  0  0  0  0
    0.8212    6.0027    0.0000 C   0  0  0  0  0  0  0  0  0  0  0  0
  1  2  1  0
  2  3  1  0
  3  4  2  0
  3  8  1  0
  4  5  1  0
  5  6  2  0
  6  7  1  0
  7  8  2  0
  7  9  1  0
  9 10  2  0
  9 11  1  0
 11 12  1  0
 12 13  1  0
 13 14  2  0
 13 26  1  0
 14 15  1  0
 15 16  2  0
 16 17  1  0
 16 25  1  0
 17 18  1  0
 18 19  1  0
 18 23  1  0
 19 20  1  0
 20 21  2  0
 20 22  1  0
 22 23  1  0
 23 24  2  0
 25 26  2  0
M  END
>  <DRUGBANK_ID>  (1) 
DB16028

>  <COMMON_NAME>  (1) 
Azemiglitazone

>  <CAS_NUMBER>  (1) 
1133819-87-0

>  <UNII>  (1) 
81MXZ6QOBM

>  <SYNONYMS>  (1) 
Azemiglitazone

$$$$
