AIA
     RDKit          2D

 18 19  0  0  0  0  0  0  0  0999 V2000
    1.5130    0.6759    0.0000 C   0  0  0  0  0  0  0  0  0  0  0  0
    1.1005   -0.5937    0.0000 C   0  0  0  0  0  0  0  0  0  0  0  0
    0.0610    0.4459    0.0000 C   0  0  0  0  0  0  0  0  0  0  0  0
    2.1805    0.1910    0.0000 C   0  0  0  0  0  0  0  0  0  0  0  0
    1.5130    1.5009    0.0000 C   0  0  0  0  0  0  0  0  0  0  0  0
    1.9255   -0.5937    0.0000 C   0  0  0  0  0  0  0  0  0  0  0  0
    0.6156   -1.2611    0.0000 C   0  0  0  0  0  0  0  0  0  0  0  0
   -0.5521   -0.1061    0.0000 C   0  0  0  0  0  0  0  0  0  0  0  0
    0.8456    0.1910    0.0000 N   0  0  0  0  0  0  0  0  0  0  0  0
   -0.1106    1.2529    0.0000 O   0  0  0  0  0  0  0  0  0  0  0  0
    1.5130    2.3259    0.0000 C   0  0  0  0  0  0  0  0  0  0  0  0
    0.9512   -2.0148    0.0000 N   0  0  0  0  0  0  0  0  0  0  0  0
   -1.3368    0.1488    0.0000 C   0  0  0  0  0  0  0  0  0  0  0  0
   -0.3806   -0.9131    0.0000 N   0  0  0  0  0  0  0  0  0  0  0  0
   -2.0042   -0.3361    0.0000 C   0  0  0  0  0  0  0  0  0  0  0  0
   -1.5917    0.9334    0.0000 C   0  0  0  0  0  0  0  0  0  0  0  0
   -2.6716    0.1488    0.0000 C   0  0  0  0  0  0  0  0  0  0  0  0
   -2.4167    0.9334    0.0000 C   0  0  0  0  0  0  0  0  0  0  0  0
  1  4  1  0
  1  5  1  1
  1  9  1  0
  2  6  1  0
  2  7  1  1
  2  9  1  0
  3  8  1  0
  3  9  1  0
  3 10  2  0
  4  6  1  0
  5 11  3  0
  7 12  1  0
  8 13  1  0
  8 14  1  1
 13 15  1  0
 13 16  1  0
 15 17  1  0
 16 18  1  0
 17 18  1  0
M  END
>  <DRUGBANK_ID>  (1) 
DB07356

>  <COMMON_NAME>  (1) 
(1S)-2-[(2S,5R)-2-(AMINOMETHYL)-5-ETHYNYLPYRROLIDIN-1-YL]-1-CYCLOPENTYL-2-OXOETHANAMINE

$$$$
