SX2
     RDKit          2D

 15 15  0  0  0  0  0  0  0  0999 V2000
   -2.4029    0.9800    0.0000 Br  0  0  0  0  0  0  0  0  0  0  0  0
   -1.6884    0.5675    0.0000 C   0  0  0  0  0  0  0  0  0  0  0  0
   -1.6884   -0.2575    0.0000 C   0  0  0  0  0  0  0  0  0  0  0  0
   -0.9739   -0.6700    0.0000 N   0  0  0  0  0  0  0  0  0  0  0  0
   -0.9739    0.9800    0.0000 C   0  0  0  0  0  0  0  0  0  0  0  0
   -0.2595    0.5675    0.0000 C   0  0  0  0  0  0  0  0  0  0  0  0
   -0.2595   -0.2575    0.0000 C   0  0  0  0  0  0  0  0  0  0  0  0
    0.4550   -0.6700    0.0000 N   0  0  0  0  0  0  0  0  0  0  0  0
    1.1695   -0.2575    0.0000 C   0  0  0  0  0  0  0  0  0  0  0  0
    1.1695    0.5675    0.0000 O   0  0  0  0  0  0  0  0  0  0  0  0
    1.8839   -0.6700    0.0000 C   0  0  0  0  0  0  0  0  0  0  0  0
    2.5984   -0.2575    0.0000 C   0  0  0  0  0  0  0  0  0  0  0  0
    3.3129   -0.6700    0.0000 C   0  0  0  0  0  0  0  0  0  0  0  0
    4.0274   -0.2575    0.0000 O   0  0  0  0  0  0  0  0  0  0  0  0
    3.3129   -1.4950    0.0000 O   0  0  0  0  0  0  0  0  0  0  0  0
  1  2  1  0
  2  5  2  0
  2  3  1  0
  3  4  2  0
  4  7  1  0
  5  6  1  0
  6  7  2  0
  7  8  1  0
  9  8  1  0
  9 11  1  0
 10  9  2  0
 11 12  1  0
 13 12  1  0
 13 14  1  0
 15 13  2  0
M  END
>  <DRUGBANK_ID>  (1) 
DB08578

>  <COMMON_NAME>  (1) 
4-[(5-bromopyridin-2-yl)amino]-4-oxobutanoic acid

$$$$
