
     RDKit          2D

 24 27  0  0  0  0  0  0  0  0999 V2000
   -2.5848   -1.4745    0.0000 C   0  0  0  0  0  0  0  0  0  0  0  0
   -2.5848   -0.6495    0.0000 C   0  0  0  0  0  0  0  0  0  0  0  0
   -1.8689   -0.2370    0.0000 C   0  0  0  0  0  0  0  0  0  0  0  0
   -3.3007   -1.8869    0.0000 O   0  0  0  0  0  0  0  0  0  0  0  0
   -1.8689   -1.8869    0.0000 C   0  0  0  0  0  0  0  0  0  0  0  0
   -1.1531   -1.4745    0.0000 C   0  0  0  0  0  0  0  0  0  0  0  0
   -0.4414   -1.8869    0.0000 C   0  0  0  0  0  0  0  0  0  0  0  0
    0.2743   -1.4745    0.0000 C   0  0  0  0  0  0  0  0  0  0  0  0
    0.2743   -0.6495    0.0000 C   0  0  0  0  0  0  0  0  0  0  0  0
    0.9861   -0.2370    0.0000 C   0  0  0  0  0  0  0  0  0  0  0  0
    1.7707   -0.4941    0.0000 C   0  0  0  0  0  0  0  0  0  0  0  0
    2.2596    0.1754    0.0000 C   0  0  0  0  0  0  0  0  0  0  0  0
    1.7707    0.8408    0.0000 C   0  0  0  0  0  0  0  0  0  0  0  0
    2.0278    1.6255    0.0000 O   0  0  0  0  0  0  0  0  0  0  0  0
    0.9861    0.5879    0.0000 C   0  0  0  0  0  0  0  0  0  0  0  0
    0.9861    1.4129    0.0000 C   0  0  0  0  0  0  0  0  0  0  0  0
    0.2743    1.0004    0.0000 C   0  0  0  0  0  0  0  0  0  0  0  0
   -0.4414    0.5879    0.0000 C   0  0  0  0  0  0  0  0  0  0  0  0
   -0.4414   -0.2370    0.0000 C   0  0  0  0  0  0  0  0  0  0  0  0
   -1.1531   -0.6495    0.0000 C   0  0  0  0  0  0  0  0  0  0  0  0
   -1.1531    0.1754    0.0000 C   0  0  0  0  0  0  0  0  0  0  0  0
    2.8619    1.5994    0.0000 C   0  0  0  0  0  0  0  0  0  0  0  0
    3.3007    2.3074    0.0000 C   0  0  0  0  0  0  0  0  0  0  0  0
    3.2556    0.8655    0.0000 O   0  0  0  0  0  0  0  0  0  0  0  0
  1  2  1  0
  1  4  2  0
  1  5  1  0
  2  3  1  0
  3 20  1  0
  6  5  1  1
  6  7  1  0
  6 20  1  0
  7  8  1  0
  9  8  1  6
  9 10  1  0
  9 19  1  0
 10 11  1  1
 10 15  1  0
 11 12  1  0
 12 13  1  0
 13 14  1  1
 13 15  1  0
 14 22  1  0
 15 16  1  1
 15 17  1  0
 17 18  1  0
 19 18  1  1
 19 20  1  0
 20 21  1  1
 22 23  1  0
 22 24  2  0
M  END
>  <DRUGBANK_ID>  (1) 
DB13951

>  <SECONDARY_ACCESSION_NUMBERS>  (1) 
DBSALT002357

>  <COMMON_NAME>  (1) 
Stanolone acetate

>  <CAS_NUMBER>  (1) 
1164-91-6

>  <UNII>  (1) 
63Z2Y83W8N

>  <SYNONYMS>  (1) 
Androstanolone acetate; Dihydrotestosterone acetate

$$$$
