BRX
     RDKit          2D

 20 20  0  0  0  0  0  0  0  0999 V2000
   23.5599   20.9627    0.0000 O   0  0  0  0  0  0  0  0  0  0  0  0
   23.5599   20.1377    0.0000 C   0  0  0  0  0  0  0  0  0  0  0  0
   22.8455   19.7252    0.0000 N   0  0  0  0  0  0  0  0  0  0  0  0
   22.1310   20.1377    0.0000 C   0  0  0  0  0  0  0  0  0  0  0  0
   22.1310   20.9627    0.0000 C   0  0  0  0  0  0  0  0  0  0  0  0
   21.4165   21.3752    0.0000 O   0  0  0  0  0  0  0  0  0  0  0  0
   21.4165   19.7252    0.0000 C   0  0  0  0  0  0  0  0  0  0  0  0
   21.4165   18.9002    0.0000 O   0  0  0  0  0  0  0  0  0  0  0  0
   20.7020   20.1377    0.0000 C   0  0  0  0  0  0  0  0  0  0  0  0
   19.9876   19.7252    0.0000 C   0  0  0  0  0  0  0  0  0  0  0  0
   19.2731   20.1377    0.0000 C   0  0  0  0  0  0  0  0  0  0  0  0
   19.2731   20.9627    0.0000 C   0  0  0  0  0  0  0  0  0  0  0  0
   18.5586   21.3752    0.0000 N   0  0  0  0  0  0  0  0  0  0  0  0
   18.5586   22.2002    0.0000 O   0  0  0  0  0  0  0  0  0  0  0  0
   17.8442   20.9627    0.0000 O   0  0  0  0  0  0  0  0  0  0  0  0
   19.9876   21.3752    0.0000 C   0  0  0  0  0  0  0  0  0  0  0  0
   20.7020   20.9627    0.0000 C   0  0  0  0  0  0  0  0  0  0  0  0
   24.2744   19.7252    0.0000 C   0  0  0  0  0  0  0  0  0  0  0  0
   24.9889   20.1377    0.0000 Br  0  0  0  0  0  0  0  0  0  0  0  0
   24.2744   18.9002    0.0000 Br  0  0  0  0  0  0  0  0  0  0  0  0
  1  2  2  0
  2  3  1  0
  2 18  1  0
  4  3  1  0
  4  5  1  1
  4  7  1  0
  5  6  1  0
  7  8  1  6
  7  9  1  0
  9 10  2  0
  9 17  1  0
 10 11  1  0
 11 12  2  0
 12 13  1  0
 12 16  1  0
 13 14  1  0
 13 15  2  0
 16 17  2  0
 18 19  1  0
 18 20  1  0
M  CHG  2  13   1  14  -1
M  END
>  <DRUGBANK_ID>  (1) 
DB07492

>  <COMMON_NAME>  (1) 
Bromamphenicol

>  <CAS_NUMBER>  (1) 
16803-75-1

$$$$
