
     RDKit          2D

 30 35  0  0  1  0  0  0  0  0999 V2000
    7.1015   -8.5658    0.0000 C   0  0  0  0  0  0  0  0  0  0  0  0
    7.1015   -9.3909    0.0000 O   0  0  0  0  0  0  0  0  0  0  0  0
    7.8862   -9.6458    0.0000 C   0  0  0  0  0  0  0  0  0  0  0  0
    8.3711   -8.9784    0.0000 C   0  0  0  0  0  0  0  0  0  0  0  0
    7.8862   -8.3109    0.0000 C   0  0  0  0  0  0  0  0  0  0  0  0
    9.1558  -10.0583    0.0000 C   0  0  0  0  0  0  0  0  0  0  0  0
    9.1558   -9.2333    0.0000 C   0  0  0  0  0  0  0  0  0  0  0  0
    9.9404  -10.3132    0.0000 C   0  0  0  0  0  0  0  0  0  0  0  0
   10.4254   -9.6458    0.0000 C   0  0  0  0  0  0  0  0  0  0  0  0
    9.9404   -8.9784    0.0000 O   0  0  0  0  0  0  0  0  0  0  0  0
   11.2100   -9.9007    0.0000 O   0  0  0  0  0  0  0  0  0  0  0  0
   11.2100  -10.7257    0.0000 C   0  0  0  0  0  0  0  0  0  0  0  0
   10.4254  -10.9807    0.0000 C   0  0  0  0  0  0  0  0  0  0  0  0
    6.4341   -8.0809    0.0000 O   0  0  0  0  0  0  0  0  0  0  0  0
    8.3711  -10.3132    0.0000 C   0  0  0  0  0  0  0  0  0  0  0  0
    8.6708  -10.7257    0.0000 C   0  0  0  0  0  0  0  0  0  0  0  0
    9.9404  -11.1382    0.0000 C   0  0  0  0  0  0  0  0  0  0  0  0
    9.1558  -11.3932    0.0000 C   0  0  0  0  0  0  0  0  0  0  0  0
   11.8075  -11.1408    0.0000 O   0  0  0  0  0  0  0  0  0  0  0  0
    7.9764  -11.0280    0.0000 O   0  0  0  0  0  0  0  0  0  0  0  0
    7.8195   -7.5123    0.0000 C   0  0  0  0  0  0  0  0  0  0  0  0
    9.0053   -8.5159    0.0000 C   0  0  0  0  0  0  0  0  0  0  0  0
    8.5019   -9.5087    0.0000 O   0  0  0  0  0  0  0  0  0  0  0  0
    9.0053   -7.8727    0.0000 O   0  0  0  0  0  0  0  0  0  0  0  0
   10.8231  -11.6621    0.0000 O   0  0  0  0  0  0  0  0  0  0  0  0
    9.9981  -11.8299    0.0000 C   0  0  0  0  0  0  0  0  0  0  0  0
    9.4947  -12.4871    0.0000 C   0  0  0  0  0  0  0  0  0  0  0  0
   10.1519  -12.6549    0.0000 C   0  0  0  0  0  0  0  0  0  0  0  0
   10.6553  -12.3193    0.0000 C   0  0  0  0  0  0  0  0  0  0  0  0
    8.6697  -11.9978    0.0000 O   0  0  0  0  0  0  0  0  0  0  0  0
  1  2  1  0
  1 14  2  0
  3  2  1  6
  3  4  1  0
  3 15  1  0
  4  5  1  0
  5  1  1  0
  5 21  1  1
  6  7  1  0
  6  8  1  0
  6 16  1  0
  7  4  1  0
  7 22  1  0
  8  9  1  0
  8 17  1  0
  9 10  1  0
  9 11  1  0
 10  7  1  0
 11 12  1  0
 12 13  1  0
 12 19  2  0
 13  8  1  0
 13 25  1  0
 15  6  1  0
 15 20  1  0
 16 23  1  0
 17 18  1  0
 17 26  1  0
 18 16  1  0
 18 30  1  0
 22 23  1  0
 22 24  2  0
 26 27  1  0
 26 28  1  0
 26 29  1  0
M  END
>  <DRUGBANK_ID>  (1) 
DB06747

>  <COMMON_NAME>  (1) 
ginkgolide-M

>  <CAS_NUMBER>  (1) 
15291-78-8

>  <UNII>  (1) 
Z9XSZ8ZK7U

$$$$
