
     RDKit          2D

 27 27  0  0  0  0  0  0  0  0999 V2000
   -3.6233   -1.4461    0.0000 O   0  0  0  0  0  0  0  0  0  0  0  0
   -3.8618    1.3985    0.0000 O   0  0  0  0  0  0  0  0  0  0  0  0
   -1.1680   -1.7084    0.0000 O   0  0  0  0  0  0  0  0  0  0  0  0
    3.2579    0.4688    0.0000 O   0  0  0  0  0  0  0  0  0  0  0  0
    2.5348    1.7084    0.0000 O   0  0  0  0  0  0  0  0  0  0  0  0
   -2.7254   -0.3416    0.0000 C   0  0  0  0  0  0  0  0  0  0  0  0
   -2.7175    0.4688    0.0000 C   0  0  0  0  0  0  0  0  0  0  0  0
   -3.4406   -0.6595    0.0000 C   0  0  0  0  0  0  0  0  0  0  0  0
   -3.5518    0.6515    0.0000 C   0  0  0  0  0  0  0  0  0  0  0  0
   -3.9730   -0.0397    0.0000 C   0  0  0  0  0  0  0  0  0  0  0  0
   -1.9865   -0.9694    0.0000 C   0  0  0  0  0  0  0  0  0  0  0  0
   -2.0103    0.8820    0.0000 C   0  0  0  0  0  0  0  0  0  0  0  0
   -0.5879   -1.0011    0.0000 C   0  0  0  0  0  0  0  0  0  0  0  0
   -1.2792   -0.5800    0.0000 C   0  0  0  0  0  0  0  0  0  0  0  0
   -1.2872    0.4688    0.0000 C   0  0  0  0  0  0  0  0  0  0  0  0
    0.1271   -0.6118    0.0000 C   0  0  0  0  0  0  0  0  0  0  0  0
    0.0000   -1.6290    0.0000 C   0  0  0  0  0  0  0  0  0  0  0  0
   -0.4608    0.4688    0.0000 C   0  0  0  0  0  0  0  0  0  0  0  0
    0.8342   -1.0409    0.0000 C   0  0  0  0  0  0  0  0  0  0  0  0
    0.3655    0.4688    0.0000 C   0  0  0  0  0  0  0  0  0  0  0  0
    1.5494   -0.6435    0.0000 C   0  0  0  0  0  0  0  0  0  0  0  0
    1.1045    0.8820    0.0000 C   0  0  0  0  0  0  0  0  0  0  0  0
    1.8197    0.4688    0.0000 C   0  0  0  0  0  0  0  0  0  0  0  0
    2.5348    0.8820    0.0000 C   0  0  0  0  0  0  0  0  0  0  0  0
    2.2408   -1.0647    0.0000 C   0  0  0  0  0  0  0  0  0  0  0  0
    2.9638   -0.6674    0.0000 C   0  0  0  0  0  0  0  0  0  0  0  0
    3.9730    0.8820    0.0000 C   0  0  0  0  0  0  0  0  0  0  0  0
  4 24  1  0
  4 27  1  0
  5 24  2  0
  6  7  1  0
  6  8  1  0
  6 11  1  1
  7  9  1  0
  7 12  1  6
  8  1  1  6
  8 10  1  0
  9  2  1  6
  9 10  1  0
 11 14  2  0
 12 15  1  0
 13  3  1  0
 13 14  1  0
 13 16  1  0
 13 17  1  6
 15 18  2  0
 16 19  1  0
 18 20  2  0
 19 21  1  0
 20 22  1  0
 21 25  1  0
 22 23  1  0
 23 24  1  0
 25 26  1  0
M  END
>  <DRUGBANK_ID>  (1) 
DB11454

>  <COMMON_NAME>  (1) 
Prostalene

>  <CAS_NUMBER>  (1) 
54120-61-5

>  <UNII>  (1) 
O02SWY8981

>  <SYNONYMS>  (1) 
Prostalene; Prostaleno

$$$$
