272
     RDKit          2D

 18 20  0  0  0  0  0  0  0  0999 V2000
    1.8405   -1.3710    0.0000 C   0  0  0  0  0  0  0  0  0  0  0  0
    1.1260   -1.7835    0.0000 C   0  0  0  0  0  0  0  0  0  0  0  0
    0.4115   -1.3710    0.0000 C   0  0  0  0  0  0  0  0  0  0  0  0
    0.4115   -0.5460    0.0000 C   0  0  0  0  0  0  0  0  0  0  0  0
    1.1260   -0.1335    0.0000 C   0  0  0  0  0  0  0  0  0  0  0  0
    1.8405   -0.5460    0.0000 C   0  0  0  0  0  0  0  0  0  0  0  0
   -0.3731   -1.6260    0.0000 O   0  0  0  0  0  0  0  0  0  0  0  0
   -0.8580   -0.9585    0.0000 N   0  0  0  0  0  0  0  0  0  0  0  0
   -0.3731   -0.2911    0.0000 C   0  0  0  0  0  0  0  0  0  0  0  0
   -0.6280    0.4935    0.0000 C   0  0  0  0  0  0  0  0  0  0  0  0
   -1.4350    0.6651    0.0000 C   0  0  0  0  0  0  0  0  0  0  0  0
   -1.6899    1.4497    0.0000 C   0  0  0  0  0  0  0  0  0  0  0  0
   -1.1379    2.0628    0.0000 C   0  0  0  0  0  0  0  0  0  0  0  0
   -0.3309    1.8913    0.0000 C   0  0  0  0  0  0  0  0  0  0  0  0
   -0.0760    1.1066    0.0000 C   0  0  0  0  0  0  0  0  0  0  0  0
   -1.3928    2.8474    0.0000 O   0  0  0  0  0  0  0  0  0  0  0  0
   -1.9870    0.0520    0.0000 O   0  0  0  0  0  0  0  0  0  0  0  0
    2.5550   -1.7835    0.0000 O   0  0  0  0  0  0  0  0  0  0  0  0
  1  2  2  0
  1  6  1  0
  1 18  1  0
  2  3  1  0
  3  4  2  0
  3  7  1  0
  4  5  1  0
  4  9  1  0
  5  6  2  0
  7  8  1  0
  8  9  2  0
  9 10  1  0
 10 11  2  0
 10 15  1  0
 11 12  1  0
 11 17  1  0
 12 13  2  0
 13 14  1  0
 13 16  1  0
 14 15  2  0
M  END
>  <DRUGBANK_ID>  (1) 
DB06937

>  <COMMON_NAME>  (1) 
4-(6-HYDROXY-BENZO[D]ISOXAZOL-3-YL)BENZENE-1,3-DIOL

$$$$
