
     RDKit          2D

 16 15  0  0  1  0  0  0  0  0999 V2000
    4.1250   -2.8579    0.0000 C   0  0  0  0  0  0  0  0  0  0  0  0
    3.7125   -2.1434    0.0000 C   0  0  0  0  0  0  0  0  0  0  0  0
    3.3000   -1.4289    0.0000 O   0  0  0  0  0  0  0  0  0  0  0  0
    2.9980   -2.5559    0.0000 C   0  0  0  0  0  0  0  0  0  0  0  0
    2.2836   -2.1434    0.0000 Br  0  0  0  0  0  0  0  0  0  0  0  0
    4.4270   -1.7309    0.0000 C   0  0  0  0  0  0  0  0  0  0  0  0
    5.1414   -2.1434    0.0000 C   0  0  0  0  0  0  0  0  0  0  0  0
    5.8559   -1.7309    0.0000 O   0  0  0  0  0  0  0  0  0  0  0  0
    6.5704   -2.1434    0.0000 P   0  0  0  0  0  0  0  0  0  0  0  0
    6.1579   -2.8579    0.0000 O   0  0  0  0  0  0  0  0  0  0  0  0
    6.9829   -1.4289    0.0000 O   0  0  0  0  0  0  0  0  0  0  0  0
    7.2849   -2.5559    0.0000 O   0  0  0  0  0  0  0  0  0  0  0  0
    7.9993   -2.1434    0.0000 P   0  0  0  0  0  0  0  0  0  0  0  0
    8.7138   -1.7309    0.0000 O   0  0  0  0  0  0  0  0  0  0  0  0
    8.4118   -2.8579    0.0000 O   0  0  0  0  0  0  0  0  0  0  0  0
    7.5868   -1.4289    0.0000 O   0  0  0  0  0  0  0  0  0  0  0  0
  2  1  1  1
  2  3  1  0
  2  4  1  0
  2  6  1  0
  4  5  1  0
  6  7  1  0
  7  8  1  0
  9  8  1  0
  9 10  1  0
  9 11  2  0
  9 12  1  0
 12 13  1  0
 13 14  1  0
 13 15  1  0
 13 16  2  0
M  END
>  <DRUGBANK_ID>  (1) 
DB04170

>  <SECONDARY_ACCESSION_NUMBERS>  (1) 
EXPT00699

>  <COMMON_NAME>  (1) 
4-bromo-3-hydroxy-3-methyl butyl diphosphate

$$$$
