M1N
     RDKit          2D

 32 34  0  0  0  0  0  0  0  0999 V2000
   -1.1504   -1.3054    0.0000 O   0  0  0  0  0  0  0  0  0  0  0  0
   -0.7379   -0.5910    0.0000 C   0  0  0  0  0  0  0  0  0  0  0  0
   -1.1504    0.1235    0.0000 N   0  0  0  0  0  0  0  0  0  0  0  0
   -1.9754    0.1235    0.0000 C   0  0  0  0  0  0  0  0  0  0  0  0
   -2.3879   -0.5910    0.0000 B   0  0  0  0  0  0  0  0  0  0  0  0
   -3.2129   -0.5910    0.0000 O   0  0  0  0  0  0  0  0  0  0  0  0
   -1.9754   -1.3054    0.0000 O   0  0  0  0  0  0  0  0  0  0  0  0
   -2.3879    0.8380    0.0000 C   0  0  0  0  0  0  0  0  0  0  0  0
   -3.2129    0.8380    0.0000 C   0  0  0  0  0  0  0  0  0  0  0  0
   -3.6254    1.5525    0.0000 C   0  0  0  0  0  0  0  0  0  0  0  0
   -3.6254    0.1235    0.0000 C   0  0  0  0  0  0  0  0  0  0  0  0
    0.0871   -0.5910    0.0000 C   0  0  0  0  0  0  0  0  0  0  0  0
    0.4996    0.1235    0.0000 N   0  0  0  0  0  0  0  0  0  0  0  0
    0.0871    0.8380    0.0000 C   0  0  0  0  0  0  0  0  0  0  0  0
    0.4996    1.5525    0.0000 N   0  0  0  0  0  0  0  0  0  0  0  0
    0.0871    2.2669    0.0000 C   0  0  0  0  0  0  0  0  0  0  0  0
    0.4996    2.9814    0.0000 C   0  0  0  0  0  0  0  0  0  0  0  0
    1.3246    2.9814    0.0000 O   0  0  0  0  0  0  0  0  0  0  0  0
    1.7371    2.2669    0.0000 C   0  0  0  0  0  0  0  0  0  0  0  0
    1.3246    1.5525    0.0000 C   0  0  0  0  0  0  0  0  0  0  0  0
   -0.7379    0.8380    0.0000 O   0  0  0  0  0  0  0  0  0  0  0  0
    0.4996   -1.3054    0.0000 C   0  0  0  0  0  0  0  0  0  0  0  0
    1.3246   -1.3054    0.0000 C   0  0  0  0  0  0  0  0  0  0  0  0
    1.7371   -0.5910    0.0000 C   0  0  0  0  0  0  0  0  0  0  0  0
    2.5621   -0.5910    0.0000 C   0  0  0  0  0  0  0  0  0  0  0  0
    2.9746   -1.3054    0.0000 C   0  0  0  0  0  0  0  0  0  0  0  0
    2.5621   -2.0199    0.0000 C   0  0  0  0  0  0  0  0  0  0  0  0
    2.9746   -2.7344    0.0000 C   0  0  0  0  0  0  0  0  0  0  0  0
    2.5621   -3.4488    0.0000 C   0  0  0  0  0  0  0  0  0  0  0  0
    1.7371   -3.4488    0.0000 C   0  0  0  0  0  0  0  0  0  0  0  0
    1.3246   -2.7344    0.0000 C   0  0  0  0  0  0  0  0  0  0  0  0
    1.7371   -2.0199    0.0000 C   0  0  0  0  0  0  0  0  0  0  0  0
  1  2  2  0
  2  3  1  0
  2 12  1  0
  3  4  1  0
  4  5  1  0
  4  8  1  6
  5  6  1  0
  5  7  1  0
  8  9  1  0
  9 10  1  0
  9 11  1  0
 12 13  1  0
 12 22  1  6
 13 14  1  0
 14 15  1  0
 14 21  2  0
 15 16  1  0
 15 20  1  0
 16 17  1  0
 17 18  1  0
 18 19  1  0
 19 20  1  0
 22 23  1  0
 23 24  2  0
 23 32  1  0
 24 25  1  0
 25 26  2  0
 26 27  1  0
 27 28  1  0
 27 32  2  0
 28 29  2  0
 29 30  1  0
 30 31  2  0
 31 32  1  0
M  END
>  <DRUGBANK_ID>  (1) 
DB04732

>  <COMMON_NAME>  (1) 
N-(4-MORPHOLINE)CARBONYL-B-(1-NAPHTHYL)-L-ALANINE-L-LEUCINE BORONIC ACID

$$$$
