L0H
     RDKit          2D

 23 26  0  0  0  0  0  0  0  0999 V2000
   15.1047    3.7788    0.0000 O   0  0  0  0  0  0  0  0  0  0  0  0
   14.5527    3.1657    0.0000 C   0  0  0  0  0  0  0  0  0  0  0  0
   13.7457    3.3372    0.0000 N   0  0  0  0  0  0  0  0  0  0  0  0
   13.4908    4.1218    0.0000 C   0  0  0  0  0  0  0  0  0  0  0  0
   12.7062    4.3767    0.0000 C   0  0  0  0  0  0  0  0  0  0  0  0
   12.7062    5.2017    0.0000 N   0  0  0  0  0  0  0  0  0  0  0  0
   13.4908    5.4567    0.0000 N   0  0  0  0  0  0  0  0  0  0  0  0
   13.9757    4.7892    0.0000 C   0  0  0  0  0  0  0  0  0  0  0  0
   14.8007    4.7892    0.0000 C   0  0  0  0  0  0  0  0  0  0  0  0
   15.2856    5.4567    0.0000 N   0  0  0  0  0  0  0  0  0  0  0  0
   16.0703    5.2017    0.0000 C   0  0  0  0  0  0  0  0  0  0  0  0
   16.7847    5.6142    0.0000 C   0  0  0  0  0  0  0  0  0  0  0  0
   17.4992    5.2017    0.0000 C   0  0  0  0  0  0  0  0  0  0  0  0
   17.4992    4.3767    0.0000 C   0  0  0  0  0  0  0  0  0  0  0  0
   16.7847    3.9642    0.0000 C   0  0  0  0  0  0  0  0  0  0  0  0
   16.0703    4.3767    0.0000 C   0  0  0  0  0  0  0  0  0  0  0  0
   15.2856    4.1218    0.0000 N   0  0  0  0  0  0  0  0  0  0  0  0
   14.8076    2.3810    0.0000 C   0  0  0  0  0  0  0  0  0  0  0  0
   15.6146    2.2095    0.0000 C   0  0  0  0  0  0  0  0  0  0  0  0
   15.8695    1.4249    0.0000 C   0  0  0  0  0  0  0  0  0  0  0  0
   15.3175    0.8118    0.0000 C   0  0  0  0  0  0  0  0  0  0  0  0
   14.5105    0.9833    0.0000 C   0  0  0  0  0  0  0  0  0  0  0  0
   14.2556    1.7679    0.0000 C   0  0  0  0  0  0  0  0  0  0  0  0
  1  2  2  0
  2  3  1  0
  2 18  1  0
  3  4  1  0
  4  5  2  0
  4  8  1  0
  5  6  1  0
  6  7  1  0
  7  8  2  0
  8  9  1  0
  9 10  2  0
  9 17  1  0
 10 11  1  0
 11 12  2  0
 11 16  1  0
 12 13  1  0
 13 14  2  0
 14 15  1  0
 15 16  2  0
 16 17  1  0
 18 19  2  0
 18 23  1  0
 19 20  1  0
 20 21  2  0
 21 22  1  0
 22 23  2  0
M  END
>  <DRUGBANK_ID>  (1) 
DB08066

>  <COMMON_NAME>  (1) 
N-[3-(1H-BENZIMIDAZOL-2-YL)-1H-PYRAZOL-4-YL]BENZAMIDE

>  <UNII>  (1) 
XX88F9S4A4

$$$$
