
     RDKit          2D

  8  8  0  0  0  0  0  0  0  0999 V2000
   -1.7587   -0.4034    0.0000 O   0  0  0  0  0  0  0  0  0  0  0  0
    1.7587    0.1486    0.0000 O   0  0  0  0  0  0  0  0  0  0  0  0
   -0.3065   -0.6334    0.0000 N   0  0  0  0  0  0  0  0  0  0  0  0
    0.3609   -0.1484    0.0000 C   0  0  0  0  0  0  0  0  0  0  0  0
    0.1059    0.6362    0.0000 C   0  0  0  0  0  0  0  0  0  0  0  0
   -0.7190    0.6362    0.0000 C   0  0  0  0  0  0  0  0  0  0  0  0
   -0.9740   -0.1484    0.0000 C   0  0  0  0  0  0  0  0  0  0  0  0
    1.1456   -0.4034    0.0000 C   0  0  0  0  0  0  0  0  0  0  0  0
  1  7  2  0
  2  8  2  0
  3  4  1  0
  3  7  1  0
  4  5  1  0
  4  8  1  1
  5  6  1  0
  6  7  1  0
M  END
>  <DRUGBANK_ID>  (1) 
DB03901

>  <SECONDARY_ACCESSION_NUMBERS>  (1) 
EXPT00900

>  <COMMON_NAME>  (1) 
5-Oxoprolinal

>  <CAS_NUMBER>  (1) 
96914-00-0

>  <SYNONYMS>  (1) 
(2S)-5-Oxo-2-pyrrolidinecarbaldehyde; 5-Ketoprolinal

$$$$
