
     RDKit          2D

 18 19  0  0  0  0  0  0  0  0999 V2000
   -0.6266   -1.2035    0.0000 S   0  0  0  0  0  0  0  0  0  0  0  0
   -1.9991   -1.7305    0.0000 S   0  0  0  0  0  0  0  0  0  0  0  0
    0.8416    2.9984    0.0000 F   0  0  0  0  0  0  0  0  0  0  0  0
    1.6666    2.1734    0.0000 F   0  0  0  0  0  0  0  0  0  0  0  0
    0.0165    2.1734    0.0000 F   0  0  0  0  0  0  0  0  0  0  0  0
    0.6540   -2.9116    0.0000 O   0  0  0  0  0  0  0  0  0  0  0  0
   -0.7661   -2.5311    0.0000 N   0  0  0  0  0  0  0  0  0  0  0  0
    0.1271   -1.5391    0.0000 C   0  0  0  0  0  0  0  0  0  0  0  0
    0.8416   -1.1266    0.0000 C   0  0  0  0  0  0  0  0  0  0  0  0
    0.8416   -0.3015    0.0000 C   0  0  0  0  0  0  0  0  0  0  0  0
    0.0409   -2.3596    0.0000 C   0  0  0  0  0  0  0  0  0  0  0  0
    0.1271    0.1108    0.0000 C   0  0  0  0  0  0  0  0  0  0  0  0
    1.5560    0.1108    0.0000 C   0  0  0  0  0  0  0  0  0  0  0  0
    0.8416    1.3483    0.0000 C   0  0  0  0  0  0  0  0  0  0  0  0
    0.1271    0.9359    0.0000 C   0  0  0  0  0  0  0  0  0  0  0  0
    1.5560    0.9359    0.0000 C   0  0  0  0  0  0  0  0  0  0  0  0
   -1.1786   -1.8167    0.0000 C   0  0  0  0  0  0  0  0  0  0  0  0
    0.8416    2.1734    0.0000 C   0  0  0  0  0  0  0  0  0  0  0  0
  1  8  1  0
  1 17  1  0
  2 17  2  0
  3 18  1  0
  4 18  1  0
  5 18  1  0
  6 11  2  0
  7 11  1  0
  7 17  1  0
  8  9  1  6
  8 11  1  0
  9 10  1  0
 10 12  2  0
 10 13  1  0
 12 15  1  0
 13 16  2  0
 14 15  2  0
 14 16  1  0
 14 18  1  0
M  END
>  <DRUGBANK_ID>  (1) 
DB08574

>  <COMMON_NAME>  (1) 
(5R)-2-sulfanyl-5-[4-(trifluoromethyl)benzyl]-1,3-thiazol-4(5H)-one

$$$$
