LNQ
     RDKit          2D

 21 21  0  0  0  0  0  0  0  0999 V2000
   -5.6087    0.0626    0.0000 C   0  0  0  0  0  0  0  0  0  0  0  0
   -4.8943    0.4751    0.0000 C   0  0  0  0  0  0  0  0  0  0  0  0
   -4.1798    0.0626    0.0000 C   0  0  0  0  0  0  0  0  0  0  0  0
   -3.4653    0.4751    0.0000 O   0  0  0  0  0  0  0  0  0  0  0  0
   -2.7509    0.0626    0.0000 C   0  0  0  0  0  0  0  0  0  0  0  0
   -2.0364    0.4751    0.0000 C   0  0  0  0  0  0  0  0  0  0  0  0
   -1.3219    0.0626    0.0000 O   0  0  0  0  0  0  0  0  0  0  0  0
   -0.6075    0.4751    0.0000 C   0  0  0  0  0  0  0  0  0  0  0  0
    0.1070    0.0626    0.0000 C   0  0  0  0  0  0  0  0  0  0  0  0
    0.8215    0.4751    0.0000 O   0  0  0  0  0  0  0  0  0  0  0  0
    1.5360    0.0626    0.0000 C   0  0  0  0  0  0  0  0  0  0  0  0
    2.2504    0.4751    0.0000 C   0  0  0  0  0  0  0  0  0  0  0  0
    2.9649    0.0626    0.0000 C   0  0  0  0  0  0  0  0  0  0  0  0
    3.6794    0.4751    0.0000 N   0  0  0  0  0  0  0  0  0  0  0  0
    4.3938    0.0626    0.0000 C   0  0  0  0  0  0  0  0  0  0  0  0
    5.1907    0.2761    0.0000 C   0  0  0  0  0  0  0  0  0  0  0  0
    5.4043   -0.5208    0.0000 C   0  0  0  0  0  0  0  0  0  0  0  0
    4.6074   -0.7343    0.0000 C   0  0  0  0  0  0  0  0  0  0  0  0
    5.6032    0.9906    0.0000 O   0  0  0  0  0  0  0  0  0  0  0  0
    6.1187   -0.9333    0.0000 O   0  0  0  0  0  0  0  0  0  0  0  0
    4.1949   -1.4488    0.0000 N   0  0  0  0  0  0  0  0  0  0  0  0
  1  2  1  0
  2  3  1  0
  3  4  1  0
  4  5  1  0
  5  6  1  0
  6  7  1  0
  7  8  1  0
  8  9  1  0
  9 10  1  0
 10 11  1  0
 11 12  1  0
 12 13  1  0
 13 14  1  0
 14 15  1  0
 15 16  1  0
 15 18  2  0
 16 17  1  0
 16 19  2  0
 17 18  1  0
 17 20  2  0
 18 21  1  0
M  END
>  <DRUGBANK_ID>  (1) 
DB03077

>  <SECONDARY_ACCESSION_NUMBERS>  (1) 
EXPT02049

>  <COMMON_NAME>  (1) 
3-Amino-4-{3-[2-(2-Propoxy-Ethoxy)-Ethoxy]-Propylamino}-Cyclobut-3-Ene-1,2-Dione

$$$$
