
     RDKit          2D

 16 15  0  0  1  0  0  0  0  0999 V2000
   -2.4750    1.4289    0.0000 C   0  0  0  0  0  0  0  0  0  0  0  0
   -1.2375    0.7145    0.0000 C   0  0  0  0  0  0  0  0  0  0  0  0
    1.2375   -0.7145    0.0000 C   0  0  0  0  0  0  0  0  0  0  0  0
   -2.0625    0.7145    0.0000 C   0  0  0  0  0  0  0  0  0  0  0  0
    2.0625   -0.7145    0.0000 C   0  0  0  0  0  0  0  0  0  0  0  0
    2.4750   -1.4289    0.0000 C   0  0  0  0  0  0  0  0  0  0  0  0
    2.4750   -0.0000    0.0000 N   0  0  0  0  0  0  0  0  0  0  0  0
   -3.3000    1.4289    0.0000 O   0  0  0  0  0  0  0  0  0  0  0  0
   -2.4750    0.0000    0.0000 O   0  0  0  0  0  0  0  0  0  0  0  0
    3.3000   -1.4289    0.0000 O   0  0  0  0  0  0  0  0  0  0  0  0
    2.0625   -2.1434    0.0000 O   0  0  0  0  0  0  0  0  0  0  0  0
    0.0000   -0.8250    0.0000 O   0  0  0  0  0  0  0  0  0  0  0  0
   -0.0000    0.8250    0.0000 O   0  0  0  0  0  0  0  0  0  0  0  0
   -0.8250   -0.0000    0.0000 O   0  0  0  0  0  0  0  0  0  0  0  0
    0.8250    0.0000    0.0000 O   0  0  0  0  0  0  0  0  0  0  0  0
    0.0000    0.0000    0.0000 P   0  0  0  0  0  0  0  0  0  0  0  0
  4  1  1  0
  4  2  1  0
  4  9  1  6
  5  3  1  0
  5  7  1  6
  6  5  1  0
  8  1  1  0
 10  6  2  0
 11  6  1  0
 14  2  1  0
 15  3  1  0
 16 12  1  0
 16 13  2  0
 16 14  1  0
 16 15  1  0
M  END
>  <DRUGBANK_ID>  (1) 
DB02497

>  <SECONDARY_ACCESSION_NUMBERS>  (1) 
EXPT01649

>  <COMMON_NAME>  (1) 
L-Alpha-Glycerophosphorylserine

$$$$
