
     RDKit          2D

 15 18  0  0  0  0  0  0  0  0999 V2000
    0.7145    0.0000    0.0000 N   0  0  0  0  0  0  0  0  0  0  0  0
    0.0000   -0.4125    0.0000 C   0  0  0  0  0  0  0  0  0  0  0  0
   -0.7145    0.0000    0.0000 N   0  0  0  0  0  0  0  0  0  0  0  0
   -0.7145    0.8250    0.0000 C   0  0  0  0  0  0  0  0  0  0  0  0
    0.0000    1.2374    0.0000 N   0  0  0  0  0  0  0  0  0  0  0  0
    0.7145    0.8250    0.0000 C   0  0  0  0  0  0  0  0  0  0  0  0
    0.0000   -1.2374    0.0000 N   0  0  0  0  0  0  0  0  0  0  0  0
    0.4125   -1.9520    0.0000 C   0  0  0  0  0  0  0  0  0  0  0  0
   -0.4125   -1.9520    0.0000 C   0  0  0  0  0  0  0  0  0  0  0  0
   -1.4289    1.2374    0.0000 N   0  0  0  0  0  0  0  0  0  0  0  0
   -2.2538    1.2374    0.0000 C   0  0  0  0  0  0  0  0  0  0  0  0
   -1.8414    1.9520    0.0000 C   0  0  0  0  0  0  0  0  0  0  0  0
    1.4289    1.2374    0.0000 N   0  0  0  0  0  0  0  0  0  0  0  0
    1.8414    1.9520    0.0000 C   0  0  0  0  0  0  0  0  0  0  0  0
    2.2538    1.2374    0.0000 C   0  0  0  0  0  0  0  0  0  0  0  0
  2  1  2  0
  3  2  1  0
  4  3  2  0
  5  4  1  0
  6  1  1  0
  6  5  2  0
  7  2  1  0
  8  7  1  0
  9  7  1  0
  9  8  1  0
 10  4  1  0
 11 10  1  0
 12 10  1  0
 12 11  1  0
 13  6  1  0
 14 13  1  0
 15 13  1  0
 15 14  1  0
M  END
>  <DRUGBANK_ID>  (1) 
DB14031

>  <COMMON_NAME>  (1) 
Tretamine

>  <CAS_NUMBER>  (1) 
51-18-3

>  <UNII>  (1) 
F7IY6HZG9D

>  <SYNONYMS>  (1) 
2,4,6-tri(1-aziridinyl)-1,3,5-triazine; 2,4,6-tris(1-aziridinyl)-1,3,5-triazine; 2,4,6-tris(1-aziridinyl)-s-triazine; 2,4,6-tris(aziridin-1-yl)-1,3,5-triazine; TEM; Tretamina; Tretamine; Tretaminum; Triaethylenmelamin; Triethylenemelamine; Trisaziridinyltriazine

$$$$
