
     RDKit          2D

 13 12  0  0  0  0  0  0  0  0999 V2000
    2.1420   -0.2066    0.0000 C   0  0  0  0  0  0  0  0  0  0  0  0
    1.4280    0.2066    0.0000 C   0  0  0  0  0  0  0  0  0  0  0  0
    0.7139   -0.2066    0.0000 N   0  0  0  0  0  0  0  0  0  0  0  0
    0.0000    0.2066    0.0000 C   0  0  0  0  0  0  0  0  0  0  0  0
   -0.7139   -0.2066    0.0000 C   0  0  0  0  0  0  0  0  0  0  0  0
   -1.4280    0.2066    0.0000 C   0  0  0  0  0  0  0  0  0  0  0  0
   -2.1420   -0.2066    0.0000 C   0  0  0  0  0  0  0  0  0  0  0  0
   -2.8561    0.2066    0.0000 O   0  0  0  0  0  0  0  0  0  0  0  0
    2.1378   -1.0334    0.0000 C   0  0  0  0  0  0  0  0  0  0  0  0
    2.8561    0.2107    0.0000 C   0  0  0  0  0  0  0  0  0  0  0  0
    2.8561   -0.6200    0.0000 C   0  0  0  0  0  0  0  0  0  0  0  0
    1.4238    1.0334    0.0000 O   0  0  0  0  0  0  0  0  0  0  0  0
   -2.1462   -1.0334    0.0000 O   0  0  0  0  0  0  0  0  0  0  0  0
  1  9  1  0
  1 10  1  0
  1 11  1  0
  1  2  1  0
  2  3  1  0
  2 12  2  0
  3  4  1  0
  4  5  1  0
  5  6  1  0
  6  7  1  0
  7  8  1  0
  7 13  2  0
M  END
>  <DRUGBANK_ID>  (1) 
DB12951

>  <COMMON_NAME>  (1) 
Pivagabine

>  <CAS_NUMBER>  (1) 
69542-93-4

>  <UNII>  (1) 
C53SV0WO4V

>  <SYNONYMS>  (1) 
4-Pivalamidobutyric acid; Pivagabina; Pivagabine; Pivagabinum

$$$$
