
     RDKit          2D

 14 14  0  0  1  0  0  0  0  0999 V2000
   18.8444   -9.9859    0.0000 C   0  0  0  0  0  0  0  0  0  0  0  0
   18.1361   -9.5813    0.0000 C   0  0  0  0  0  0  0  0  0  0  0  0
   17.4243   -9.9859    0.0000 C   0  0  0  0  0  0  0  0  0  0  0  0
   16.7154   -9.5813    0.0000 C   0  0  0  0  0  0  0  0  0  0  0  0
   16.0036   -9.9859    0.0000 O   0  0  0  0  0  0  0  0  0  0  0  0
   15.1706   -9.9849    0.0000 P   0  0  0  0  0  0  0  0  0  0  0  0
   15.1663   -9.1535    0.0000 O   0  0  0  0  0  0  0  0  0  0  0  0
   14.3392   -9.9849    0.0000 O   0  0  0  0  0  0  0  0  0  0  0  0
   15.1663  -10.8163    0.0000 O   0  0  0  0  0  0  0  0  0  0  0  0
   17.4226  -10.8172    0.0000 N   0  0  0  0  0  0  0  0  0  0  0  0
   18.9353  -10.8135    0.0000 C   0  0  0  0  0  0  0  0  0  0  0  0
   19.7506  -10.9829    0.0000 N   0  0  0  0  0  0  0  0  0  0  0  0
   20.1635  -10.2599    0.0000 C   0  0  0  0  0  0  0  0  0  0  0  0
   19.6035   -9.6436    0.0000 N   0  0  0  0  0  0  0  0  0  0  0  0
  1  2  1  0
  1 11  2  0
  1 14  1  0
  2  3  1  0
  3  4  1  0
  3 10  1  6
  4  5  1  0
  5  6  1  0
  6  7  1  0
  6  8  1  0
  6  9  2  0
 11 12  1  0
 12 13  1  0
 13 14  2  0
M  END
>  <DRUGBANK_ID>  (1) 
DB03997

>  <SECONDARY_ACCESSION_NUMBERS>  (1) 
EXPT01781

>  <COMMON_NAME>  (1) 
L-histidinol phosphate

>  <CAS_NUMBER>  (1) 
25679-93-0

>  <SYNONYMS>  (1) 
phosphoric acid mono-[2-amino-3-(3H-imidazol-4-yl)-propyl]ester

$$$$
