
     RDKit          2D

 24 26  0  0  0  0  0  0  0  0999 V2000
   -1.8414    3.5382    0.0000 C   0  0  0  0  0  0  0  0  0  0  0  0
   -2.5559    3.1257    0.0000 C   0  0  0  0  0  0  0  0  0  0  0  0
   -1.1270    3.1257    0.0000 C   0  0  0  0  0  0  0  0  0  0  0  0
   -2.5559    2.3007    0.0000 C   0  0  0  0  0  0  0  0  0  0  0  0
   -1.1270    2.3007    0.0000 C   0  0  0  0  0  0  0  0  0  0  0  0
   -4.3974    2.4112    0.0000 C   0  0  0  0  0  0  0  0  0  0  0  0
   -3.6829    1.1737    0.0000 C   0  0  0  0  0  0  0  0  0  0  0  0
   -1.4289    0.3487    0.0000 C   0  0  0  0  0  0  0  0  0  0  0  0
   -5.1118    0.3487    0.0000 C   0  0  0  0  0  0  0  0  0  0  0  0
   -1.8414    1.8882    0.0000 C   0  0  0  0  0  0  0  0  0  0  0  0
   -4.3974    1.5862    0.0000 C   0  0  0  0  0  0  0  0  0  0  0  0
   -1.8414    1.0632    0.0000 C   0  0  0  0  0  0  0  0  0  0  0  0
   -5.1118    2.8237    0.0000 C   0  0  0  0  0  0  0  0  0  0  0  0
   -2.2539    0.3487    0.0000 C   0  0  0  0  0  0  0  0  0  0  0  0
   -3.6829    0.3487    0.0000 C   0  0  0  0  0  0  0  0  0  0  0  0
   -5.1118    1.1737    0.0000 C   0  0  0  0  0  0  0  0  0  0  0  0
   -4.3974   -0.0638    0.0000 C   0  0  0  0  0  0  0  0  0  0  0  0
   -5.1118    3.6487    0.0000 C   0  0  0  0  0  0  0  0  0  0  0  0
   -5.8263    2.4112    0.0000 N   0  0  0  0  0  0  0  0  0  0  0  0
   -2.9684   -0.0638    0.0000 N   0  0  0  0  0  0  0  0  0  0  0  0
   -5.8263    1.5862    0.0000 O   0  0  0  0  0  0  0  0  0  0  0  0
   -4.3974   -0.8888    0.0000 O   0  0  0  0  0  0  0  0  0  0  0  0
   -5.8263    4.0612    0.0000 O   0  0  0  0  0  0  0  0  0  0  0  0
   -4.3974    4.0612    0.0000 O   0  0  0  0  0  0  0  0  0  0  0  0
  2  1  2  0
  3  1  1  0
  4  2  1  0
  5  3  2  0
 10  4  2  0
 10  5  1  0
 11  6  1  0
 11  7  1  0
 12  8  1  0
 12 10  1  0
 13  6  1  0
 14  8  1  0
 14 12  1  0
 15  7  1  0
 16  9  1  0
 16 11  1  0
 17  9  2  0
 17 15  1  0
 18 13  1  0
 19 13  1  0
 20 14  1  0
 20 15  2  0
 21 16  2  0
 22 17  1  0
 23 18  2  0
 24 18  1  0
M  END
>  <DRUGBANK_ID>  (1) 
DB01657

>  <SECONDARY_ACCESSION_NUMBERS>  (1) 
EXPT03142

>  <COMMON_NAME>  (1) 
2-amino-3-[4-hydroxy-6-oxo-3-(2-phenyl-cyclopropylimino)-cyclohexa-1,4-dienyl]-propionic acid

$$$$
