
     RDKit          2D

 27 28  0  0  0  0  0  0  0  0999 V2000
    1.9472    0.4071    0.0000 C   0  0  0  0  0  0  0  0  0  0  0  0
    1.9472   -0.4188    0.0000 O   0  0  0  0  0  0  0  0  0  0  0  0
    2.6626    0.8230    0.0000 C   0  0  0  0  0  0  0  0  0  0  0  0
    3.3752   -0.4188    0.0000 C   0  0  0  0  0  0  0  0  0  0  0  0
    3.3752    0.4071    0.0000 C   0  0  0  0  0  0  0  0  0  0  0  0
    1.2287    0.8202    0.0000 C   0  0  0  0  0  0  0  0  0  0  0  0
   -0.2078    0.8289    0.0000 C   0  0  0  0  0  0  0  0  0  0  0  0
    0.5104    0.4158    0.0000 N   0  0  0  0  0  0  0  0  0  0  0  0
    2.6626   -0.8318    0.0000 C   0  0  0  0  0  0  0  0  0  0  0  0
   -1.5837    0.8958    0.0000 N   0  0  0  0  0  0  0  0  0  0  0  0
   -0.9176    0.4101    0.0000 C   0  0  0  0  0  0  0  0  0  0  0  0
   -2.2525    0.4101    0.0000 C   0  0  0  0  0  0  0  0  0  0  0  0
   -0.2078    1.6519    0.0000 O   0  0  0  0  0  0  0  0  0  0  0  0
   -1.1706   -0.3751    0.0000 C   0  0  0  0  0  0  0  0  0  0  0  0
    1.2287    1.6432    0.0000 C   0  0  0  0  0  0  0  0  0  0  0  0
    2.6626   -1.6548    0.0000 S   0  0  0  0  0  0  0  0  0  0  0  0
   -1.9937   -0.3751    0.0000 C   0  0  0  0  0  0  0  0  0  0  0  0
    4.0906   -0.8318    0.0000 O   0  0  0  0  0  0  0  0  0  0  0  0
    2.6713    1.6461    0.0000 O   0  0  0  0  0  0  0  0  0  0  0  0
    4.0936    0.8144    0.0000 O   0  0  0  0  0  0  0  0  0  0  0  0
   -1.5923    1.7188    0.0000 C   0  0  0  0  0  0  0  0  0  0  0  0
    0.5162    2.0591    0.0000 Cl  0  0  0  0  0  0  0  0  0  0  0  0
   -2.6597   -0.8580    0.0000 C   0  0  0  0  0  0  0  0  0  0  0  0
    3.3781   -2.0678    0.0000 C   0  0  0  0  0  0  0  0  0  0  0  0
    1.9385    2.0678    0.0000 C   0  0  0  0  0  0  0  0  0  0  0  0
   -3.3811   -0.4536    0.0000 C   0  0  0  0  0  0  0  0  0  0  0  0
   -4.0936   -0.8667    0.0000 C   0  0  0  0  0  0  0  0  0  0  0  0
  1  2  1  6
  3  1  1  0
  3 19  1  6
  4  5  1  0
  4 18  1  1
  5  3  1  0
  5 20  1  6
  6  1  1  0
  7  8  1  0
  6  8  1  6
  9  2  1  0
  9 16  1  1
  9  4  1  0
 10 11  1  0
 11  7  1  6
 12 10  1  0
 12 17  1  0
 13  7  2  0
 14 11  1  0
 15  6  1  0
 15 22  1  0
 17 14  1  0
 17 23  1  1
 21 10  1  0
 24 16  1  0
 15 25  1  1
 26 23  1  0
 27 26  1  0
M  END
>  <DRUGBANK_ID>  (1) 
DB01190

>  <SECONDARY_ACCESSION_NUMBERS>  (1) 
APRD00566

>  <COMMON_NAME>  (1) 
Clindamycin

>  <CAS_NUMBER>  (1) 
18323-44-9

>  <UNII>  (1) 
3U02EL437C

>  <SYNONYMS>  (1) 
7-CDL; 7(S)-Chloro-7-deoxylincomycin; Clindamicina; Clindamycin; Clindamycine; Clindamycinum; Methyl 7-chloro-6,7,8-trideoxy-6-(1-methyl-trans-4-propyl-L-2-pyrrolidinecarboxamido)-1-thio-L-threo-alpha-D-galacto-octopyranoside

$$$$
