
     RDKit          2D

 32 33  0  0  1  0  0  0  0  0999 V2000
   -1.8414    0.2382    0.0000 C   0  0  0  0  0  0  0  0  0  0  0  0
   -1.8414    1.0632    0.0000 C   0  0  0  0  0  0  0  0  0  0  0  0
   -2.5559    1.4757    0.0000 O   0  0  0  0  0  0  0  0  0  0  0  0
   -1.1270    1.4757    0.0000 O   0  0  0  0  0  0  0  0  0  0  0  0
   -1.1270    2.3007    0.0000 C   0  0  0  0  0  0  0  0  0  0  0  0
   -1.8414    2.7132    0.0000 C   0  0  0  0  0  0  0  0  0  0  0  0
   -2.5559    2.3007    0.0000 O   0  0  0  0  0  0  0  0  0  0  0  0
   -3.2704    2.7132    0.0000 C   0  0  0  0  0  0  0  0  0  0  0  0
   -3.9849    2.3007    0.0000 O   0  0  0  0  0  0  0  0  0  0  0  0
   -3.9849    1.4757    0.0000 C   0  0  0  0  0  0  0  0  0  0  0  0
   -3.2704    1.0632    0.0000 C   0  0  0  0  0  0  0  0  0  0  0  0
   -3.2704    0.2382    0.0000 N   0  0  0  0  0  0  0  0  0  0  0  0
   -4.0954    0.2382    0.0000 C   0  0  0  0  0  0  0  0  0  0  0  0
   -2.4454    0.2382    0.0000 C   0  0  0  0  0  0  0  0  0  0  0  0
   -3.2704   -0.5868    0.0000 C   0  0  0  0  0  0  0  0  0  0  0  0
   -2.8579   -1.3013    0.0000 C   0  0  0  0  0  0  0  0  0  0  0  0
   -3.6829   -1.3013    0.0000 C   0  0  0  0  0  0  0  0  0  0  0  0
   -3.2704    3.5382    0.0000 C   0  0  0  0  0  0  0  0  0  0  0  0
   -3.9849    3.9507    0.0000 O   0  0  0  0  0  0  0  0  0  0  0  0
   -4.6993    3.5382    0.0000 C   0  0  0  0  0  0  0  0  0  0  0  0
   -4.6993    2.7132    0.0000 C   0  0  0  0  0  0  0  0  0  0  0  0
   -5.4138    3.9507    0.0000 O   0  0  0  0  0  0  0  0  0  0  0  0
   -2.5559    3.9507    0.0000 C   0  0  0  0  0  0  0  0  0  0  0  0
   -2.5559    4.7757    0.0000 O   0  0  0  0  0  0  0  0  0  0  0  0
   -3.2704    5.1882    0.0000 C   0  0  0  0  0  0  0  0  0  0  0  0
   -3.9849    4.7757    0.0000 C   0  0  0  0  0  0  0  0  0  0  0  0
   -3.2704    6.0132    0.0000 O   0  0  0  0  0  0  0  0  0  0  0  0
   -1.8414    3.5382    0.0000 C   0  0  0  0  0  0  0  0  0  0  0  0
   -1.1270    3.9507    0.0000 O   0  0  0  0  0  0  0  0  0  0  0  0
   -1.1270    4.7757    0.0000 C   0  0  0  0  0  0  0  0  0  0  0  0
   -1.8414    5.1882    0.0000 C   0  0  0  0  0  0  0  0  0  0  0  0
   -0.4125    5.1882    0.0000 O   0  0  0  0  0  0  0  0  0  0  0  0
  1  2  1  0
  2  3  2  0
  2  4  1  0
  4  5  1  0
  6  5  1  1
  6  7  1  0
  8  7  1  0
  8  9  1  1
  9 10  1  0
 10 11  1  0
 11 12  1  0
 12 13  1  0
 12 14  1  0
 12 15  1  0
 15 16  1  0
 15 17  1  0
 16 17  1  0
 18  8  1  0
 18 19  1  6
 18 23  1  0
 19 20  1  0
 20 21  1  0
 20 22  2  0
 23 24  1  1
 23 28  1  0
 24 25  1  0
 25 26  1  0
 25 27  2  0
 28  6  1  0
 28 29  1  6
 29 30  1  0
 30 31  1  0
 30 32  2  0
M  CHG  1  12   1
M  END
>  <DRUGBANK_ID>  (1) 
DB18308

>  <COMMON_NAME>  (1) 
N,N-dimethyl-N-(2-(((2R,3R,4S,5R,6R)-3,4,5-tris(acetyloxy)-6-((acetyloxy)methyl)oxan-2-yl)oxy)ethyl)cyclopropylammonium

>  <CAS_NUMBER>  (1) 
2440155-89-3

>  <UNII>  (1) 
J6QN4FZ2UG

$$$$
