
     RDKit          2D

 39 41  0  0  0  0  0  0  0  0999 V2000
   -0.2025    0.3997    0.0000 C   0  0  0  0  0  0  0  0  0  0  0  0
   -0.6193   -0.3128    0.0000 C   0  0  0  0  0  0  0  0  0  0  0  0
   -0.2127   -1.0259    0.0000 C   0  0  0  0  0  0  0  0  0  0  0  0
    0.6119   -1.0328    0.0000 C   0  0  0  0  0  0  0  0  0  0  0  0
    1.0286   -0.3203    0.0000 C   0  0  0  0  0  0  0  0  0  0  0  0
    0.6205    0.3991    0.0000 C   0  0  0  0  0  0  0  0  0  0  0  0
   -0.6128    1.1155    0.0000 N   0  0  0  0  0  0  0  0  0  0  0  0
   -1.4443   -0.3082    0.0000 O   0  0  0  0  0  0  0  0  0  0  0  0
   -0.6303   -1.7375    0.0000 O   0  0  0  0  0  0  0  0  0  0  0  0
    1.0195   -1.7501    0.0000 O   0  0  0  0  0  0  0  0  0  0  0  0
    1.8536   -0.3257    0.0000 N   0  0  0  0  0  0  0  0  0  0  0  0
   -0.1980    1.8286    0.0000 C   0  0  0  0  0  0  0  0  0  0  0  0
   -0.6082    2.5444    0.0000 C   0  0  0  0  0  0  0  0  0  0  0  0
    0.6269    1.8260    0.0000 O   0  0  0  0  0  0  0  0  0  0  0  0
   -0.1935    3.2576    0.0000 O   0  0  0  0  0  0  0  0  0  0  0  0
   -1.4333    2.5470    0.0000 C   0  0  0  0  0  0  0  0  0  0  0  0
   -1.8435    3.2628    0.0000 N   0  0  0  0  0  0  0  0  0  0  0  0
    1.8444   -1.7559    0.0000 C   0  0  0  0  0  0  0  0  0  0  0  0
    2.2488   -2.4743    0.0000 C   0  0  0  0  0  0  0  0  0  0  0  0
    3.0703   -2.4820    0.0000 C   0  0  0  0  0  0  0  0  0  0  0  0
    3.4915   -1.7723    0.0000 C   0  0  0  0  0  0  0  0  0  0  0  0
    3.0853   -1.0531    0.0000 C   0  0  0  0  0  0  0  0  0  0  0  0
    2.2576   -1.0437    0.0000 O   0  0  0  0  0  0  0  0  0  0  0  0
    3.5051   -0.3430    0.0000 C   0  0  0  0  0  0  0  0  0  0  0  0
    4.3301   -0.3515    0.0000 N   0  0  0  0  0  0  0  0  0  0  0  0
    4.3165   -1.7811    0.0000 O   0  0  0  0  0  0  0  0  0  0  0  0
    3.4750   -3.2008    0.0000 O   0  0  0  0  0  0  0  0  0  0  0  0
    1.8291   -3.1846    0.0000 O   0  0  0  0  0  0  0  0  0  0  0  0
   -1.8607   -1.0204    0.0000 C   0  0  0  0  0  0  0  0  0  0  0  0
   -2.6829   -1.0136    0.0000 C   0  0  0  0  0  0  0  0  0  0  0  0
   -3.0994   -1.7217    0.0000 C   0  0  0  0  0  0  0  0  0  0  0  0
   -2.6943   -2.4409    0.0000 C   0  0  0  0  0  0  0  0  0  0  0  0
   -1.8684   -2.4474    0.0000 C   0  0  0  0  0  0  0  0  0  0  0  0
   -1.4474   -1.7348    0.0000 O   0  0  0  0  0  0  0  0  0  0  0  0
   -3.0897   -0.2957    0.0000 O   0  0  0  0  0  0  0  0  0  0  0  0
   -3.9242   -1.7139    0.0000 N   0  0  0  0  0  0  0  0  0  0  0  0
   -3.5234   -2.4337    0.0000 C   0  0  0  0  0  0  0  0  0  0  0  0
   -2.7026   -3.2628    0.0000 O   0  0  0  0  0  0  0  0  0  0  0  0
   -4.3301   -0.9956    0.0000 C   0  0  0  0  0  0  0  0  0  0  0  0
  1  7  1  6
  1  2  1  0
  1  6  1  0
  2  8  1  1
  2  3  1  0
  3  4  1  0
  3  9  1  6
  4  5  1  0
  4 10  1  1
  5 11  1  6
  5  6  1  0
  7 12  1  0
 29  8  1  1
 18 10  1  1
 12 13  1  0
 12 14  2  0
 13 15  1  6
 13 16  1  0
 16 17  1  0
 18 23  1  0
 18 19  1  0
 19 20  1  0
 19 28  1  1
 20 21  1  0
 20 27  1  6
 21 22  1  0
 21 26  1  1
 22 23  1  0
 22 24  1  6
 24 25  1  0
 29 30  1  0
 29 34  1  0
 30 31  1  0
 30 35  1  1
 31 32  1  0
 31 36  1  6
 32 33  1  0
 32 37  1  1
 32 38  1  0
 33 34  1  0
 36 39  1  0
M  END
>  <DRUGBANK_ID>  (1) 
DB13540

>  <COMMON_NAME>  (1) 
Isepamicin

>  <CAS_NUMBER>  (1) 
58152-03-7

>  <UNII>  (1) 
G7K224460P

>  <SYNONYMS>  (1) 
HAPA-B; HAPA-gentamycin B; Isepamicin; Isepamicina; Isepamicinum

$$$$
