GG5
     RDKit          2D

 18 20  0  0  0  0  0  0  0  0999 V2000
    0.5645    1.7703    0.0000 C   0  0  0  0  0  0  0  0  0  0  0  0
   -0.1500    2.1828    0.0000 N   0  0  0  0  0  0  0  0  0  0  0  0
   -0.8644    1.7703    0.0000 C   0  0  0  0  0  0  0  0  0  0  0  0
   -0.8644    0.9453    0.0000 C   0  0  0  0  0  0  0  0  0  0  0  0
   -0.1500    0.5328    0.0000 C   0  0  0  0  0  0  0  0  0  0  0  0
    0.5645    0.9453    0.0000 C   0  0  0  0  0  0  0  0  0  0  0  0
   -0.1500   -0.2922    0.0000 C   0  0  0  0  0  0  0  0  0  0  0  0
   -0.8174   -0.7771    0.0000 C   0  0  0  0  0  0  0  0  0  0  0  0
   -0.5625   -1.5618    0.0000 N   0  0  0  0  0  0  0  0  0  0  0  0
    0.2625   -1.5618    0.0000 N   0  0  0  0  0  0  0  0  0  0  0  0
    0.5175   -0.7771    0.0000 C   0  0  0  0  0  0  0  0  0  0  0  0
    1.3021   -0.5222    0.0000 C   0  0  0  0  0  0  0  0  0  0  0  0
    1.4736    0.2848    0.0000 C   0  0  0  0  0  0  0  0  0  0  0  0
    2.2582    0.5397    0.0000 C   0  0  0  0  0  0  0  0  0  0  0  0
    2.8713   -0.0123    0.0000 C   0  0  0  0  0  0  0  0  0  0  0  0
    2.6998   -0.8193    0.0000 C   0  0  0  0  0  0  0  0  0  0  0  0
    1.9152   -1.0742    0.0000 C   0  0  0  0  0  0  0  0  0  0  0  0
    3.6560    0.2426    0.0000 F   0  0  0  0  0  0  0  0  0  0  0  0
  1  6  2  0
  1  2  1  0
  2  3  2  0
  3  4  1  0
  4  5  2  0
  5  6  1  0
  5  7  1  0
  7 11  1  0
  7  8  2  0
  8  9  1  0
  9 10  1  0
 10 11  2  0
 11 12  1  0
 12 13  2  0
 12 17  1  0
 13 14  1  0
 14 15  2  0
 15 18  1  0
 15 16  1  0
 16 17  2  0
M  END
>  <DRUGBANK_ID>  (1) 
DB07829

>  <COMMON_NAME>  (1) 
4-[3-(4-FLUOROPHENYL)-1H-PYRAZOL-4-YL]PYRIDINE

$$$$
