9HP
     RDKit          2D

 21 24  0  0  0  0  0  0  0  0999 V2000
    1.2810   -0.7017    0.0000 C   0  0  0  0  0  0  0  0  0  0  0  0
    1.6935   -1.4161    0.0000 C   0  0  0  0  0  0  0  0  0  0  0  0
    2.5185   -1.4161    0.0000 C   0  0  0  0  0  0  0  0  0  0  0  0
    2.9310   -0.7017    0.0000 C   0  0  0  0  0  0  0  0  0  0  0  0
    2.5185    0.0128    0.0000 N   0  0  0  0  0  0  0  0  0  0  0  0
    1.6935    0.0128    0.0000 C   0  0  0  0  0  0  0  0  0  0  0  0
    0.4560   -0.7017    0.0000 C   0  0  0  0  0  0  0  0  0  0  0  0
    0.0435   -1.4161    0.0000 C   0  0  0  0  0  0  0  0  0  0  0  0
    0.4560   -2.1306    0.0000 C   0  0  0  0  0  0  0  0  0  0  0  0
    1.2810   -2.1306    0.0000 C   0  0  0  0  0  0  0  0  0  0  0  0
    0.0435    0.0128    0.0000 C   0  0  0  0  0  0  0  0  0  0  0  0
   -0.7815    0.0128    0.0000 C   0  0  0  0  0  0  0  0  0  0  0  0
   -1.1940   -0.7017    0.0000 C   0  0  0  0  0  0  0  0  0  0  0  0
   -0.7815   -1.4161    0.0000 N   0  0  0  0  0  0  0  0  0  0  0  0
   -1.1940    2.1562    0.0000 C   0  0  0  0  0  0  0  0  0  0  0  0
   -0.7815    1.4417    0.0000 C   0  0  0  0  0  0  0  0  0  0  0  0
   -1.1940    0.7273    0.0000 C   0  0  0  0  0  0  0  0  0  0  0  0
   -2.0190    0.7273    0.0000 C   0  0  0  0  0  0  0  0  0  0  0  0
   -2.4315    1.4417    0.0000 C   0  0  0  0  0  0  0  0  0  0  0  0
   -2.0190    2.1562    0.0000 C   0  0  0  0  0  0  0  0  0  0  0  0
   -2.4315    2.8707    0.0000 O   0  0  0  0  0  0  0  0  0  0  0  0
  1  2  1  0
  1  6  2  0
  1  7  1  0
  2  3  2  0
  2 10  1  0
  3  4  1  0
  4  5  2  0
  5  6  1  0
  7  8  2  0
  7 11  1  0
  8  9  1  0
  8 14  1  0
  9 10  2  0
 11 12  2  0
 12 13  1  0
 12 17  1  0
 13 14  2  0
 15 16  2  0
 15 20  1  0
 16 17  1  0
 17 18  2  0
 18 19  1  0
 19 20  2  0
 20 21  1  0
M  END
>  <DRUGBANK_ID>  (1) 
DB03623

>  <SECONDARY_ACCESSION_NUMBERS>  (1) 
EXPT00358

>  <COMMON_NAME>  (1) 
9-(4-Hydroxyphenyl)-2,7-Phenanthroline

$$$$
