4MP
     RDKit          2D

 16 17  0  0  0  0  0  0  0  0999 V2000
   -0.7502   -0.5399    0.0000 O   0  0  0  0  0  0  0  0  0  0  0  0
   -0.0240    1.9741    0.0000 O   0  0  0  0  0  0  0  0  0  0  0  0
    2.2568   -1.0410    0.0000 O   0  0  0  0  0  0  0  0  0  0  0  0
   -0.9802    0.9122    0.0000 N   0  0  0  0  0  0  0  0  0  0  0  0
   -1.2351    0.1276    0.0000 C   0  0  0  0  0  0  0  0  0  0  0  0
   -2.0601    0.1276    0.0000 C   0  0  0  0  0  0  0  0  0  0  0  0
   -2.3151    0.9122    0.0000 C   0  0  0  0  0  0  0  0  0  0  0  0
   -1.6476    1.3971    0.0000 C   0  0  0  0  0  0  0  0  0  0  0  0
   -0.1956    1.1671    0.0000 C   0  0  0  0  0  0  0  0  0  0  0  0
    0.4175    0.6151    0.0000 C   0  0  0  0  0  0  0  0  0  0  0  0
    1.2021    0.8700    0.0000 C   0  0  0  0  0  0  0  0  0  0  0  0
    1.8152    0.3180    0.0000 C   0  0  0  0  0  0  0  0  0  0  0  0
    1.6437   -0.4890    0.0000 C   0  0  0  0  0  0  0  0  0  0  0  0
    0.8591   -0.7439    0.0000 C   0  0  0  0  0  0  0  0  0  0  0  0
    0.2460   -0.1919    0.0000 C   0  0  0  0  0  0  0  0  0  0  0  0
    3.0414   -0.7861    0.0000 C   0  0  0  0  0  0  0  0  0  0  0  0
  1  5  2  0
  2  9  2  0
  3 13  1  0
  3 16  1  0
  4  5  1  0
  4  8  1  0
  4  9  1  0
  5  6  1  0
  6  7  1  0
  7  8  1  0
  9 10  1  0
 10 11  2  0
 10 15  1  0
 11 12  1  0
 12 13  2  0
 13 14  1  0
 14 15  2  0
M  END
>  <DRUGBANK_ID>  (1) 
DB04599

>  <COMMON_NAME>  (1) 
Aniracetam

>  <CAS_NUMBER>  (1) 
72432-10-1

>  <UNII>  (1) 
5L16LKN964

>  <SYNONYMS>  (1) 
1-p-anisoylpyrrolidin-2-one; Aniracetam; Aniracetamun

$$$$
