
     RDKit          2D

 18 18  0  0  0  0  0  0  0  0999 V2000
   -0.0543   -0.0533    0.0000 P   0  0  0  0  0  0  0  0  0  0  0  0
    2.7955   -0.5804    0.0000 O   0  0  0  0  0  0  0  0  0  0  0  0
    3.2080    0.6891    0.0000 O   0  0  0  0  0  0  0  0  0  0  0  0
    0.7303    0.2015    0.0000 O   0  0  0  0  0  0  0  0  0  0  0  0
   -0.3092    0.7313    0.0000 O   0  0  0  0  0  0  0  0  0  0  0  0
    0.2005   -0.8380    0.0000 O   0  0  0  0  0  0  0  0  0  0  0  0
    2.1281   -0.0955    0.0000 C   0  0  0  0  0  0  0  0  0  0  0  0
    3.4630   -0.0955    0.0000 C   0  0  0  0  0  0  0  0  0  0  0  0
    2.3830    0.6891    0.0000 C   0  0  0  0  0  0  0  0  0  0  0  0
    1.3433   -0.3504    0.0000 C   0  0  0  0  0  0  0  0  0  0  0  0
    3.9479   -0.7630    0.0000 C   0  0  0  0  0  0  0  0  0  0  0  0
    4.2476    0.1593    0.0000 C   0  0  0  0  0  0  0  0  0  0  0  0
   -0.8390   -0.3082    0.0000 C   0  0  0  0  0  0  0  0  0  0  0  0
   -1.4521    0.2436    0.0000 C   0  0  0  0  0  0  0  0  0  0  0  0
   -2.2368   -0.0112    0.0000 C   0  0  0  0  0  0  0  0  0  0  0  0
   -2.8498    0.5408    0.0000 C   0  0  0  0  0  0  0  0  0  0  0  0
   -3.6346    0.2858    0.0000 C   0  0  0  0  0  0  0  0  0  0  0  0
   -4.2476    0.8380    0.0000 C   0  0  0  0  0  0  0  0  0  0  0  0
  1  4  1  0
  1  5  1  0
  1  6  2  0
  1 13  1  0
  2  7  1  0
  2  8  1  0
  3  8  1  0
  3  9  1  0
  4 10  1  0
  7  9  1  0
  7 10  1  1
  8 11  1  0
  8 12  1  0
 13 14  1  0
 14 15  1  0
 15 16  1  0
 16 17  1  0
 17 18  2  0
M  END
>  <DRUGBANK_ID>  (1) 
DB08548

>  <COMMON_NAME>  (1) 
[(4S)-2,2-dimethyl-1,3-dioxolan-4-yl]methyl hydrogen hex-5-enylphosphonate

$$$$
