
     RDKit          2D

 32 36  0  0  1  0  0  0  0  0999 V2000
   -3.4827    2.2253    0.0000 C   0  0  0  0  0  0  0  0  0  0  0  0
   -2.8754    2.7837    0.0000 O   0  0  0  0  0  0  0  0  0  0  0  0
   -2.0882    2.5370    0.0000 C   0  0  0  0  0  0  0  0  0  0  0  0
   -1.9082    1.7319    0.0000 C   0  0  0  0  0  0  0  0  0  0  0  0
   -1.1209    1.4851    0.0000 C   0  0  0  0  0  0  0  0  0  0  0  0
   -0.9410    0.6800    0.0000 C   0  0  0  0  0  0  0  0  0  0  0  0
   -0.1537    0.4333    0.0000 O   0  0  0  0  0  0  0  0  0  0  0  0
   -1.5483    0.1216    0.0000 N   0  0  0  0  0  0  0  0  0  0  0  0
   -2.3570    0.2847    0.0000 C   0  0  0  0  0  0  0  0  0  0  0  0
   -2.7620   -0.4341    0.0000 C   0  0  0  0  0  0  0  0  0  0  0  0
   -2.2035   -1.0414    0.0000 C   0  0  0  0  0  0  0  0  0  0  0  0
   -1.4534   -0.6979    0.0000 C   0  0  0  0  0  0  0  0  0  0  0  0
   -1.0261   -1.4036    0.0000 C   0  0  0  0  0  0  0  0  0  0  0  0
   -0.6284   -0.6979    0.0000 C   0  0  0  0  0  0  0  0  0  0  0  0
   -0.1435   -1.3654    0.0000 N   0  0  0  0  0  0  0  0  0  0  0  0
    0.6411   -1.1104    0.0000 C   0  0  0  0  0  0  0  0  0  0  0  0
    0.6411   -0.2854    0.0000 C   0  0  0  0  0  0  0  0  0  0  0  0
   -0.1435   -0.0305    0.0000 N   0  0  0  0  0  0  0  0  0  0  0  0
    1.3556    0.1271    0.0000 C   0  0  0  0  0  0  0  0  0  0  0  0
    2.0701   -0.2854    0.0000 C   0  0  0  0  0  0  0  0  0  0  0  0
    2.0701   -1.1104    0.0000 C   0  0  0  0  0  0  0  0  0  0  0  0
    2.7845   -1.5229    0.0000 Cl  0  0  0  0  0  0  0  0  0  0  0  0
    1.3556   -1.5229    0.0000 C   0  0  0  0  0  0  0  0  0  0  0  0
    1.3556   -2.3479    0.0000 C   0  0  0  0  0  0  0  0  0  0  0  0
   -0.5137    2.0436    0.0000 C   0  0  0  0  0  0  0  0  0  0  0  0
   -0.6936    2.8487    0.0000 C   0  0  0  0  0  0  0  0  0  0  0  0
   -1.4809    3.0954    0.0000 C   0  0  0  0  0  0  0  0  0  0  0  0
    0.2736    1.7969    0.0000 N   0  0  0  0  0  0  0  0  0  0  0  0
    0.9359    2.2887    0.0000 N   0  0  0  0  0  0  0  0  0  0  0  0
    1.6084    1.8108    0.0000 C   0  0  0  0  0  0  0  0  0  0  0  0
    1.3617    1.0236    0.0000 C   0  0  0  0  0  0  0  0  0  0  0  0
    0.5367    1.0149    0.0000 N   0  0  0  0  0  0  0  0  0  0  0  0
  1  2  1  0
  2  3  1  0
  3  4  2  0
  3 27  1  0
  4  5  1  0
  5  6  1  0
  5 25  2  0
  6  7  2  0
  6  8  1  0
  8  9  1  0
  9 10  1  0
 10 11  1  0
 12 11  1  0
 12  8  1  0
 12 13  1  1
 12 14  1  0
 14 15  2  0
 14 18  1  0
 15 16  1  0
 16 17  2  0
 16 23  1  0
 17 18  1  0
 17 19  1  0
 19 20  2  0
 20 21  1  0
 21 22  1  0
 21 23  2  0
 23 24  1  0
 25 26  1  0
 25 28  1  0
 26 27  2  0
 28 29  1  0
 28 32  1  0
 29 30  2  0
 30 31  1  0
 31 32  2  0
M  END
>  <DRUGBANK_ID>  (1) 
DB15031

>  <COMMON_NAME>  (1) 
Daridorexant

>  <CAS_NUMBER>  (1) 
1505484-82-1

>  <UNII>  (1) 
LMQ24G57E9

>  <SYNONYMS>  (1) 
ACT-541468; Nemorexant

$$$$
