1475
     RDKit          2D

 26 28  0  0  0  0  0  0  0  0999 V2000
    1.6500    0.7145    0.0000 O   0  0  0  0  0  0  0  0  0  0  0  0
    6.6001   -0.7145    0.0000 O   0  0  0  0  0  0  0  0  0  0  0  0
    6.6001    0.7145    0.0000 O   0  0  0  0  0  0  0  0  0  0  0  0
    3.3001    0.7145    0.0000 N   0  0  0  0  0  0  0  0  0  0  0  0
    5.3626    0.0000    0.0000 C   0  0  0  0  0  0  0  0  0  0  0  0
    4.5376    0.0000    0.0000 C   0  0  0  0  0  0  0  0  0  0  0  0
    4.1251    0.7145    0.0000 C   0  0  0  0  0  0  0  0  0  0  0  0
    2.8876    1.4290    0.0000 C   0  0  0  0  0  0  0  0  0  0  0  0
    2.8876    0.0000    0.0000 C   0  0  0  0  0  0  0  0  0  0  0  0
    5.3626    0.8250    0.0000 C   0  0  0  0  0  0  0  0  0  0  0  0
    5.3626   -0.8250    0.0000 C   0  0  0  0  0  0  0  0  0  0  0  0
    6.1876    0.0000    0.0000 C   0  0  0  0  0  0  0  0  0  0  0  0
    2.0625    1.4290    0.0000 C   0  0  0  0  0  0  0  0  0  0  0  0
    2.0625    0.0000    0.0000 C   0  0  0  0  0  0  0  0  0  0  0  0
    4.6482    1.2375    0.0000 C   0  0  0  0  0  0  0  0  0  0  0  0
    6.0771   -1.2375    0.0000 C   0  0  0  0  0  0  0  0  0  0  0  0
    6.0771    1.2375    0.0000 C   0  0  0  0  0  0  0  0  0  0  0  0
    4.6482   -1.2375    0.0000 C   0  0  0  0  0  0  0  0  0  0  0  0
    4.6482    2.0625    0.0000 C   0  0  0  0  0  0  0  0  0  0  0  0
    6.0771   -2.0625    0.0000 C   0  0  0  0  0  0  0  0  0  0  0  0
    6.0771    2.0625    0.0000 C   0  0  0  0  0  0  0  0  0  0  0  0
    4.6482   -2.0625    0.0000 C   0  0  0  0  0  0  0  0  0  0  0  0
    5.3626    2.4751    0.0000 C   0  0  0  0  0  0  0  0  0  0  0  0
    5.3626   -2.4751    0.0000 C   0  0  0  0  0  0  0  0  0  0  0  0
    7.4252   -0.7145    0.0000 C   0  0  0  0  0  0  0  0  0  0  0  0
    7.8377   -1.4290    0.0000 C   0  0  0  0  0  0  0  0  0  0  0  0
  1 13  1  0
  1 14  1  0
  2 12  1  0
  2 25  1  0
  3 12  2  0
  4  7  1  0
  4  8  1  0
  4  9  1  0
  5  6  1  0
  5 10  1  0
  5 11  1  0
  5 12  1  0
  6  7  1  0
  8 13  1  0
  9 14  1  0
 10 15  2  0
 10 17  1  0
 11 16  2  0
 11 18  1  0
 15 19  1  0
 16 20  1  0
 17 21  2  0
 18 22  2  0
 19 23  2  0
 20 24  2  0
 21 23  1  0
 22 24  1  0
 25 26  1  0
M  END
>  <DRUGBANK_ID>  (1) 
DB01475

>  <COMMON_NAME>  (1) 
Dioxaphetyl butyrate

>  <CAS_NUMBER>  (1) 
467-86-7

>  <UNII>  (1) 
G751H98FY4

>  <SYNONYMS>  (1) 
Dioxaphetyl butyrate

$$$$
