
     RDKit          2D

 21 23  0  0  0  0  0  0  0  0999 V2000
   -2.4897   -0.6236    0.0000 C   0  0  0  0  0  0  0  0  0  0  0  0
   -2.4909   -1.4519    0.0000 C   0  0  0  0  0  0  0  0  0  0  0  0
   -1.7752   -1.8652    0.0000 C   0  0  0  0  0  0  0  0  0  0  0  0
   -1.0580   -1.4514    0.0000 C   0  0  0  0  0  0  0  0  0  0  0  0
   -1.0609   -0.6200    0.0000 C   0  0  0  0  0  0  0  0  0  0  0  0
   -1.7770   -0.2103    0.0000 C   0  0  0  0  0  0  0  0  0  0  0  0
   -0.3501   -0.2056    0.0000 C   0  0  0  0  0  0  0  0  0  0  0  0
    0.3669   -0.6176    0.0000 C   0  0  0  0  0  0  0  0  0  0  0  0
    0.3556    1.0342    0.0000 C   0  0  0  0  0  0  0  0  0  0  0  0
   -0.3546    0.6169    0.0000 C   0  0  0  0  0  0  0  0  0  0  0  0
    1.0775    0.6242    0.0000 C   0  0  0  0  0  0  0  0  0  0  0  0
    1.0798   -0.2005    0.0000 C   0  0  0  0  0  0  0  0  0  0  0  0
    1.7941   -0.6090    0.0000 C   0  0  0  0  0  0  0  0  0  0  0  0
    2.5065   -0.1939    0.0000 C   0  0  0  0  0  0  0  0  0  0  0  0
    2.5001    0.6338    0.0000 C   0  0  0  0  0  0  0  0  0  0  0  0
    1.7854    1.0385    0.0000 C   0  0  0  0  0  0  0  0  0  0  0  0
    3.2099    1.0533    0.0000 O   0  0  0  0  0  0  0  0  0  0  0  0
   -3.2099   -1.8584    0.0000 O   0  0  0  0  0  0  0  0  0  0  0  0
   -1.7832   -2.6885    0.0000 F   0  0  0  0  0  0  0  0  0  0  0  0
    0.3483    1.8625    0.0000 C   0  0  0  0  0  0  0  0  0  0  0  0
    0.3441    2.6885    0.0000 N   0  0  0  0  0  0  0  0  0  0  0  0
  1  2  2  0
  2  3  1  0
  2 18  1  0
  3  4  2  0
  3 19  1  0
  4  5  1  0
  5  7  1  0
  5  6  2  0
  6  1  1  0
  7  8  2  0
  8 12  1  0
  9 20  1  0
  9 10  2  0
 10  7  1  0
 11 12  2  0
 11  9  1  0
 12 13  1  0
 13 14  2  0
 14 15  1  0
 15 16  2  0
 15 17  1  0
 16 11  1  0
 20 21  3  0
M  END
>  <DRUGBANK_ID>  (1) 
DB06875

>  <COMMON_NAME>  (1) 
ERB-196

>  <CAS_NUMBER>  (1) 
550997-55-2

>  <UNII>  (1) 
470CL5L4AC

$$$$
