
     RDKit          2D

 27 30  0  0  0  0  0  0  0  0999 V2000
   -3.7343    0.0337    0.0000 C   0  0  0  0  0  0  0  0  0  0  0  0
   -4.4488   -0.3787    0.0000 C   0  0  0  0  0  0  0  0  0  0  0  0
   -4.4488   -1.2038    0.0000 C   0  0  0  0  0  0  0  0  0  0  0  0
   -3.7343   -1.6162    0.0000 C   0  0  0  0  0  0  0  0  0  0  0  0
   -3.0198   -1.2038    0.0000 C   0  0  0  0  0  0  0  0  0  0  0  0
   -3.0198   -0.3787    0.0000 C   0  0  0  0  0  0  0  0  0  0  0  0
   -2.3053    0.0337    0.0000 S   0  0  0  0  0  0  0  0  0  0  0  0
   -1.5908   -0.3787    0.0000 C   0  0  0  0  0  0  0  0  0  0  0  0
   -0.8763    0.0337    0.0000 C   0  0  0  0  0  0  0  0  0  0  0  0
   -0.1617   -0.3787    0.0000 C   0  0  0  0  0  0  0  0  0  0  0  0
    0.5527    0.0337    0.0000 C   0  0  0  0  0  0  0  0  0  0  0  0
   -0.1617   -1.2038    0.0000 C   0  0  0  0  0  0  0  0  0  0  0  0
    0.5527   -1.6163    0.0000 C   0  0  0  0  0  0  0  0  0  0  0  0
    1.2672   -1.2038    0.0000 C   0  0  0  0  0  0  0  0  0  0  0  0
    1.2672   -0.3787    0.0000 C   0  0  0  0  0  0  0  0  0  0  0  0
    2.0519   -0.1237    0.0000 C   0  0  0  0  0  0  0  0  0  0  0  0
    2.0519   -1.4587    0.0000 N   0  0  0  0  0  0  0  0  0  0  0  0
    2.5369   -0.7912    0.0000 C   0  0  0  0  0  0  0  0  0  0  0  0
    2.3068    0.6608    0.0000 C   0  0  0  0  0  0  0  0  0  0  0  0
    3.1138    0.8324    0.0000 C   0  0  0  0  0  0  0  0  0  0  0  0
    4.4488    0.8283    0.0000 C   0  0  0  0  0  0  0  0  0  0  0  0
    3.7798    0.3454    0.0000 N   0  0  0  0  0  0  0  0  0  0  0  0
    3.3712    1.6163    0.0000 C   0  0  0  0  0  0  0  0  0  0  0  0
    4.1962    1.6138    0.0000 C   0  0  0  0  0  0  0  0  0  0  0  0
    3.7774   -0.4796    0.0000 C   0  0  0  0  0  0  0  0  0  0  0  0
   -1.8861    0.7525    0.0000 O   0  0  0  0  0  0  0  0  0  0  0  0
   -2.7111    0.7525    0.0000 O   0  0  0  0  0  0  0  0  0  0  0  0
  1  2  2  0
  1  6  1  0
  2  3  1  0
  3  4  2  0
  4  5  1  0
  5  6  2  0
  6  7  1  0
  7  8  1  0
  7 26  2  0
  7 27  2  0
  8  9  1  0
  9 10  1  0
 10 12  1  0
 11 10  2  0
 11 15  1  0
 12 13  2  0
 13 14  1  0
 14 17  1  0
 14 15  2  0
 16 15  1  0
 16 18  2  0
 16 19  1  0
 17 18  1  0
 20 19  1  1
 20 23  1  0
 21 22  1  0
 21 24  1  0
 22 20  1  0
 22 25  1  0
 23 24  1  0
M  END
>  <DRUGBANK_ID>  (1) 
DB00216

>  <SECONDARY_ACCESSION_NUMBERS>  (1) 
APRD00945

>  <COMMON_NAME>  (1) 
Eletriptan

>  <CAS_NUMBER>  (1) 
143322-58-1

>  <UNII>  (1) 
22QOO9B8KI

>  <SYNONYMS>  (1) 
Eletriptan; élétriptan; Eletriptán; Eletriptanum

$$$$
