R04
     RDKit          2D

 28 30  0  0  0  0  0  0  0  0999 V2000
   -5.4744   -1.6664    0.0000 C   0  0  0  0  0  0  0  0  0  0  0  0
   -4.7600   -1.2539    0.0000 C   0  0  0  0  0  0  0  0  0  0  0  0
   -4.0455   -1.6664    0.0000 C   0  0  0  0  0  0  0  0  0  0  0  0
   -3.3310   -1.2539    0.0000 N   0  0  0  0  0  0  0  0  0  0  0  0
   -2.6165   -1.6664    0.0000 C   0  0  0  0  0  0  0  0  0  0  0  0
   -1.9021   -1.2539    0.0000 C   0  0  0  0  0  0  0  0  0  0  0  0
   -1.1876   -1.6664    0.0000 C   0  0  0  0  0  0  0  0  0  0  0  0
   -0.4731   -1.2539    0.0000 C   0  0  0  0  0  0  0  0  0  0  0  0
   -0.4731   -0.4289    0.0000 O   0  0  0  0  0  0  0  0  0  0  0  0
    0.2413   -0.0164    0.0000 C   0  0  0  0  0  0  0  0  0  0  0  0
    0.2413    0.8086    0.0000 C   0  0  0  0  0  0  0  0  0  0  0  0
    0.9558    1.2211    0.0000 C   0  0  0  0  0  0  0  0  0  0  0  0
    1.1273    2.0281    0.0000 N   0  0  0  0  0  0  0  0  0  0  0  0
    1.9478    2.1143    0.0000 N   0  0  0  0  0  0  0  0  0  0  0  0
    2.2834    1.3606    0.0000 C   0  0  0  0  0  0  0  0  0  0  0  0
    1.6703    0.8086    0.0000 C   0  0  0  0  0  0  0  0  0  0  0  0
    1.6703   -0.0164    0.0000 C   0  0  0  0  0  0  0  0  0  0  0  0
    0.9558   -0.4289    0.0000 C   0  0  0  0  0  0  0  0  0  0  0  0
    3.0904    1.1891    0.0000 C   0  0  0  0  0  0  0  0  0  0  0  0
    3.6424    1.8022    0.0000 C   0  0  0  0  0  0  0  0  0  0  0  0
    4.4494    1.6307    0.0000 C   0  0  0  0  0  0  0  0  0  0  0  0
    4.7043    0.8461    0.0000 C   0  0  0  0  0  0  0  0  0  0  0  0
    4.1523    0.2330    0.0000 C   0  0  0  0  0  0  0  0  0  0  0  0
    3.3453    0.4045    0.0000 C   0  0  0  0  0  0  0  0  0  0  0  0
    0.9558   -1.2539    0.0000 F   0  0  0  0  0  0  0  0  0  0  0  0
    5.5113    0.6745    0.0000 Br  0  0  0  0  0  0  0  0  0  0  0  0
    0.5753    2.6412    0.0000 C   0  0  0  0  0  0  0  0  0  0  0  0
   -3.3310   -0.4289    0.0000 C   0  0  0  0  0  0  0  0  0  0  0  0
  1  2  2  0
  2  3  1  0
  3  4  1  0
  4  5  1  0
  4 28  1  0
  5  6  1  0
  6  7  2  0
  7  8  1  0
  8  9  1  0
  9 10  1  0
 10 11  2  0
 10 18  1  0
 11 12  1  0
 12 13  1  0
 12 16  2  0
 13 14  1  0
 13 27  1  0
 14 15  2  0
 15 16  1  0
 15 19  1  0
 16 17  1  0
 17 18  2  0
 18 25  1  0
 19 20  2  0
 19 24  1  0
 20 21  1  0
 21 22  2  0
 22 23  1  0
 22 26  1  0
 23 24  2  0
M  END
>  <DRUGBANK_ID>  (1) 
DB02139

>  <SECONDARY_ACCESSION_NUMBERS>  (1) 
EXPT02738

>  <COMMON_NAME>  (1) 
(2e)-N-Allyl-4-{[3-(4-Bromophenyl)-5-Fluoro-1-Methyl-1h-Indazol-6-Yl]Oxy}-N-Methyl-2-Buten-1-Amine

$$$$
