
     RDKit          2D

 24 25  0  0  0  0  0  0  0  0999 V2000
    2.1434   -1.3884    0.0000 Cl  0  0  0  0  0  0  0  0  0  0  0  0
    0.7144   -3.8634    0.0000 Cl  0  0  0  0  0  0  0  0  0  0  0  0
   -0.7144   -1.3884    0.0000 O   0  0  0  0  0  0  0  0  0  0  0  0
   -0.7144    1.9115    0.0000 C   0  0  0  0  0  0  0  0  0  0  0  0
   -0.7144    1.0865    0.0000 C   0  0  0  0  0  0  0  0  0  0  0  0
    0.0000   -0.1509    0.0000 C   0  0  0  0  0  0  0  0  0  0  0  0
    0.0000    0.6740    0.0000 C   0  0  0  0  0  0  0  0  0  0  0  0
   -0.7144   -0.5634    0.0000 C   0  0  0  0  0  0  0  0  0  0  0  0
    0.7144   -1.3884    0.0000 C   0  0  0  0  0  0  0  0  0  0  0  0
   -0.7144    2.7365    0.0000 C   0  0  0  0  0  0  0  0  0  0  0  0
    0.7144   -0.5634    0.0000 C   0  0  0  0  0  0  0  0  0  0  0  0
   -1.4289    0.6740    0.0000 C   0  0  0  0  0  0  0  0  0  0  0  0
   -1.4289   -0.1509    0.0000 C   0  0  0  0  0  0  0  0  0  0  0  0
   -1.4289    3.1490    0.0000 C   0  0  0  0  0  0  0  0  0  0  0  0
    1.4289   -1.8009    0.0000 C   0  0  0  0  0  0  0  0  0  0  0  0
    0.1105    1.9115    0.0000 C   0  0  0  0  0  0  0  0  0  0  0  0
   -1.5394    1.9115    0.0000 C   0  0  0  0  0  0  0  0  0  0  0  0
    0.0000   -1.8009    0.0000 C   0  0  0  0  0  0  0  0  0  0  0  0
    1.4289   -2.6259    0.0000 C   0  0  0  0  0  0  0  0  0  0  0  0
    0.7144   -3.0384    0.0000 C   0  0  0  0  0  0  0  0  0  0  0  0
    0.0000   -2.6259    0.0000 C   0  0  0  0  0  0  0  0  0  0  0  0
   -2.1433    3.5615    0.0000 C   0  0  0  0  0  0  0  0  0  0  0  0
   -1.0165    3.8634    0.0000 C   0  0  0  0  0  0  0  0  0  0  0  0
   -1.8414    2.4345    0.0000 C   0  0  0  0  0  0  0  0  0  0  0  0
  1 15  1  0
  2 20  1  0
  3  8  1  0
  4  5  1  0
  4 10  1  0
  4 16  1  0
  4 17  1  0
  5  7  2  0
  5 12  1  0
  6  7  1  0
  6  8  2  0
  6 11  1  0
  8 13  1  0
  9 11  1  0
  9 15  2  0
  9 18  1  0
 10 14  1  0
 12 13  2  0
 14 22  1  0
 14 23  1  0
 14 24  1  0
 15 19  1  0
 18 21  2  0
 19 20  2  0
 20 21  1  0
M  END
>  <DRUGBANK_ID>  (1) 
DB13237

>  <COMMON_NAME>  (1) 
Clofoctol

>  <CAS_NUMBER>  (1) 
37693-01-9

>  <UNII>  (1) 
704083NI0R

>  <SYNONYMS>  (1) 
Clofoctol; Clofoctolum; Octofene

$$$$
