
     RDKit          2D

 15 14  0  0  1  0  0  0  0  0999 V2000
    1.4289   -0.8250    0.0000 C   0  0  0  0  0  0  0  0  0  0  0  0
   -0.7145    1.2375    0.0000 C   0  0  0  0  0  0  0  0  0  0  0  0
   -0.0000   -0.8250    0.0000 C   0  0  0  0  0  0  0  0  0  0  0  0
    0.7145   -1.2375    0.0000 C   0  0  0  0  0  0  0  0  0  0  0  0
    0.0000    0.8250    0.0000 C   0  0  0  0  0  0  0  0  0  0  0  0
   -0.7145    2.0625    0.0000 C   0  0  0  0  0  0  0  0  0  0  0  0
    0.7145   -2.0625    0.0000 C   0  0  0  0  0  0  0  0  0  0  0  0
    0.7145    1.2375    0.0000 N   0  0  0  0  0  0  0  0  0  0  0  0
   -1.4289    2.4750    0.0000 O   0  0  0  0  0  0  0  0  0  0  0  0
   -0.0000    2.4750    0.0000 O   0  0  0  0  0  0  0  0  0  0  0  0
    1.4289   -2.4750    0.0000 O   0  0  0  0  0  0  0  0  0  0  0  0
   -0.0000   -2.4750    0.0000 O   0  0  0  0  0  0  0  0  0  0  0  0
   -0.8250    0.0000    0.0000 O   0  0  0  0  0  0  0  0  0  0  0  0
    0.8250    0.0000    0.0000 O   0  0  0  0  0  0  0  0  0  0  0  0
    0.0000    0.0000    0.0000 P   0  0  0  0  0  0  0  0  0  0  0  0
  4  1  1  1
  4  3  1  0
  5  2  1  0
  5  8  1  6
  6  2  1  0
  7  4  1  0
  9  6  2  0
 10  6  1  0
 11  7  2  0
 12  7  1  0
 15  3  1  0
 15  5  1  0
 15 13  1  0
 15 14  2  0
M  END
>  <DRUGBANK_ID>  (1) 
DB03340

>  <SECONDARY_ACCESSION_NUMBERS>  (1) 
EXPT00448

>  <COMMON_NAME>  (1) 
3-[(1-Amino-2-Carboxy-Ethyl)-Hydroxy-Phosphinoyl]-2-Methyl-Propionic Acid

$$$$
