P41
     RDKit          2D

 25 28  0  0  0  0  0  0  0  0999 V2000
   -1.0768   -0.7662    0.0000 C   0  0  0  0  0  0  0  0  0  0  0  0
   -4.4088    0.3607    0.0000 C   0  0  0  0  0  0  0  0  0  0  0  0
   -3.1713    1.0752    0.0000 C   0  0  0  0  0  0  0  0  0  0  0  0
   -2.3463   -0.3537    0.0000 C   0  0  0  0  0  0  0  0  0  0  0  0
    1.0666   -1.1787    0.0000 C   0  0  0  0  0  0  0  0  0  0  0  0
   -3.5838    0.3607    0.0000 C   0  0  0  0  0  0  0  0  0  0  0  0
   -1.0768    0.0588    0.0000 C   0  0  0  0  0  0  0  0  0  0  0  0
    2.7765    0.2187    0.0000 C   0  0  0  0  0  0  0  0  0  0  0  0
    1.5503    1.3228    0.0000 C   0  0  0  0  0  0  0  0  0  0  0  0
    2.3349    1.5777    0.0000 C   0  0  0  0  0  0  0  0  0  0  0  0
    1.3787    0.5158    0.0000 C   0  0  0  0  0  0  0  0  0  0  0  0
    0.3522    0.0588    0.0000 C   0  0  0  0  0  0  0  0  0  0  0  0
   -0.3623    0.4713    0.0000 C   0  0  0  0  0  0  0  0  0  0  0  0
    2.9480    1.0257    0.0000 C   0  0  0  0  0  0  0  0  0  0  0  0
   -0.3623   -1.1787    0.0000 C   0  0  0  0  0  0  0  0  0  0  0  0
    1.9598   -2.1707    0.0000 C   0  0  0  0  0  0  0  0  0  0  0  0
    0.3522   -0.7662    0.0000 C   0  0  0  0  0  0  0  0  0  0  0  0
    1.9918   -0.0362    0.0000 C   0  0  0  0  0  0  0  0  0  0  0  0
    1.8203   -0.8432    0.0000 C   0  0  0  0  0  0  0  0  0  0  0  0
    2.3723   -1.4563    0.0000 N   0  0  0  0  0  0  0  0  0  0  0  0
   -1.8614    0.3137    0.0000 N   0  0  0  0  0  0  0  0  0  0  0  0
   -3.1713   -0.3537    0.0000 N   0  0  0  0  0  0  0  0  0  0  0  0
    1.1529   -1.9992    0.0000 O   0  0  0  0  0  0  0  0  0  0  0  0
    3.3895   -0.3333    0.0000 F   0  0  0  0  0  0  0  0  0  0  0  0
   -1.8614   -1.0212    0.0000 S   0  0  0  0  0  0  0  0  0  0  0  0
  1  7  2  0
  1 15  1  0
  1 25  1  0
  2  6  1  0
  3  6  1  0
  4 21  2  0
  4 22  1  0
  4 25  1  0
  5 17  1  0
  5 19  2  0
  5 23  1  0
  6 22  1  0
  7 13  1  0
  7 21  1  0
  8 14  2  0
  8 18  1  0
  8 24  1  0
  9 10  2  0
  9 11  1  0
 10 14  1  0
 11 18  2  0
 12 13  2  0
 12 17  1  0
 15 17  2  0
 16 20  2  0
 16 23  1  0
 18 19  1  0
 19 20  1  0
M  END
>  <DRUGBANK_ID>  (1) 
DB08352

>  <COMMON_NAME>  (1) 
6-[4-(2-fluorophenyl)-1,3-oxazol-5-yl]-N-(1-methylethyl)-1,3-benzothiazol-2-amine

$$$$
