
     RDKit          2D

 33 34  0  0  0  0  0  0  0  0999 V2000
   -2.7523   -0.1153    0.0000 S   0  0  0  0  0  0  0  0  0  0  0  0
   -0.6239    1.7100    0.0000 O   0  0  0  0  0  0  0  0  0  0  0  0
   -4.8956    1.1220    0.0000 O   0  0  0  0  0  0  0  0  0  0  0  0
   -3.4667    2.7719    0.0000 O   0  0  0  0  0  0  0  0  0  0  0  0
   -2.0378    2.7719    0.0000 O   0  0  0  0  0  0  0  0  0  0  0  0
    0.3884    0.7174    0.0000 O   0  0  0  0  0  0  0  0  0  0  0  0
   -5.6100    2.3595    0.0000 O   0  0  0  0  0  0  0  0  0  0  0  0
    3.8812   -2.7896    0.0000 O   0  0  0  0  0  0  0  0  0  0  0  0
    2.5017   -2.4170    0.0000 O   0  0  0  0  0  0  0  0  0  0  0  0
    4.6784   -2.5777    0.0000 O   0  0  0  0  0  0  0  0  0  0  0  0
   -2.0378    1.1220    0.0000 N   0  0  0  0  0  0  0  0  0  0  0  0
   -0.6239   -0.2907    0.0000 N   0  0  0  0  0  0  0  0  0  0  0  0
    4.3115   -1.1969    0.0000 N   0  0  0  0  0  0  0  0  0  0  0  0
    6.2730   -2.1540    0.0000 N   0  0  0  0  0  0  0  0  0  0  0  0
   -2.0378    0.2971    0.0000 C   0  0  0  0  0  0  0  0  0  0  0  0
   -2.7523    1.5345    0.0000 C   0  0  0  0  0  0  0  0  0  0  0  0
   -3.4667    1.1220    0.0000 C   0  0  0  0  0  0  0  0  0  0  0  0
   -1.2061    0.2936    0.0000 C   0  0  0  0  0  0  0  0  0  0  0  0
   -1.2061    1.1254    0.0000 C   0  0  0  0  0  0  0  0  0  0  0  0
   -3.4667    0.2971    0.0000 C   0  0  0  0  0  0  0  0  0  0  0  0
   -4.1811    1.5345    0.0000 C   0  0  0  0  0  0  0  0  0  0  0  0
   -2.7523    2.3595    0.0000 C   0  0  0  0  0  0  0  0  0  0  0  0
    0.1732   -0.0789    0.0000 C   0  0  0  0  0  0  0  0  0  0  0  0
    0.7554   -0.6634    0.0000 C   0  0  0  0  0  0  0  0  0  0  0  0
    1.5526   -0.4515    0.0000 C   0  0  0  0  0  0  0  0  0  0  0  0
    2.1348   -1.0361    0.0000 C   0  0  0  0  0  0  0  0  0  0  0  0
   -5.6100    1.5345    0.0000 C   0  0  0  0  0  0  0  0  0  0  0  0
    2.9321   -0.8242    0.0000 C   0  0  0  0  0  0  0  0  0  0  0  0
    3.5142   -1.4087    0.0000 C   0  0  0  0  0  0  0  0  0  0  0  0
   -6.3244    1.1220    0.0000 C   0  0  0  0  0  0  0  0  0  0  0  0
    3.2990   -2.2051    0.0000 C   0  0  0  0  0  0  0  0  0  0  0  0
    4.8936   -1.7813    0.0000 C   0  0  0  0  0  0  0  0  0  0  0  0
    5.6909   -1.5695    0.0000 C   0  0  0  0  0  0  0  0  0  0  0  0
  1 20  1  0
  2 19  2  0
  3 21  1  0
  3 27  1  0
  4 22  1  0
  5 22  2  0
  6 23  1  0
  7 27  2  0
  8 31  1  0
  9 31  2  0
 10 32  2  0
 11 16  1  0
 11 19  1  0
 11 15  1  0
 12 23  2  0
 13 32  1  0
 14 33  1  0
 15  1  1  1
 15 18  1  0
 16 17  1  0
 16 22  1  1
 17 20  1  0
 17 21  1  1
 18 12  1  1
 18 19  1  0
 23 24  1  0
 24 25  1  0
 25 26  1  0
 26 28  1  0
 27 30  1  0
 29 28  1  6
 29 13  1  0
 29 31  1  0
 32 33  1  0
M  CHG  1   6  -1
M  END
>  <DRUGBANK_ID>  (1) 
DB04488

>  <SECONDARY_ACCESSION_NUMBERS>  (1) 
EXPT01675

>  <COMMON_NAME>  (1) 
(6S)-N-[(2S,3R,6R,7R)-3-(Acetyloxymethyl)-2-carboxy-8-oxo-5-thia-1-azabicyclo[4.2.0]octan-7-yl]-6-[(2-aminoacetyl)amino]-7-hydroxy-7-oxoheptanimidate

$$$$
