
     RDKit          2D

 23 26  0  0  0  0  0  0  0  0999 V2000
   -0.3957   -0.5343    0.0000 C   0  0  0  0  0  0  0  0  0  0  0  0
    0.2736   -0.9524    0.0000 C   0  0  0  0  0  0  0  0  0  0  0  0
   -0.3957    0.3024    0.0000 C   0  0  0  0  0  0  0  0  0  0  0  0
   -1.1485   -0.9524    0.0000 C   0  0  0  0  0  0  0  0  0  0  0  0
    0.2736   -1.7473    0.0000 C   0  0  0  0  0  0  0  0  0  0  0  0
    0.3155    0.6788    0.0000 C   0  0  0  0  0  0  0  0  0  0  0  0
   -1.1485   -1.7473    0.0000 C   0  0  0  0  0  0  0  0  0  0  0  0
   -1.8178   -0.5343    0.0000 C   0  0  0  0  0  0  0  0  0  0  0  0
   -0.4374   -2.1656    0.0000 C   0  0  0  0  0  0  0  0  0  0  0  0
   -1.8178   -2.1656    0.0000 C   0  0  0  0  0  0  0  0  0  0  0  0
   -2.5290   -0.9524    0.0000 C   0  0  0  0  0  0  0  0  0  0  0  0
   -2.5290   -1.7473    0.0000 C   0  0  0  0  0  0  0  0  0  0  0  0
   -3.2402   -2.1656    0.0000 O   0  0  0  0  0  0  0  0  0  0  0  0
    1.0266    1.2645    0.0000 C   0  0  0  0  0  0  0  0  0  0  0  0
    1.8112    0.5155    0.0000 C   0  0  0  0  0  0  0  0  0  0  0  0
    1.0266    0.2606    0.0000 C   0  0  0  0  0  0  0  0  0  0  0  0
    1.0267   -0.5343    0.0000 C   0  0  0  0  0  0  0  0  0  0  0  0
    1.8113   -0.8192    0.0000 C   0  0  0  0  0  0  0  0  0  0  0  0
    2.2962   -0.1517    0.0000 C   0  0  0  0  0  0  0  0  0  0  0  0
    1.8112    1.3405    0.0000 C   0  0  0  0  0  0  0  0  0  0  0  0
    2.5257    1.7530    0.0000 C   0  0  0  0  0  0  0  0  0  0  0  0
    3.2402    2.1656    0.0000 N   0  0  0  0  0  0  0  0  0  0  0  0
    2.5257    0.9280    0.0000 O   0  0  0  0  0  0  0  0  0  0  0  0
  1  2  1  0
  1  3  1  0
  1  4  2  0
  2  5  1  6
  2 17  1  0
  3  6  1  0
  4  7  1  0
  4  8  1  0
  5  9  1  0
  6 16  1  0
  7 10  2  0
  7  9  1  0
  8 11  1  0
 10 12  1  0
 11 12  1  0
 12 13  2  0
 15 16  1  0
 15 19  1  0
 15 20  1  0
 15 23  1  1
 16 14  1  1
 16 17  1  0
 17 18  1  1
 18 19  1  0
 20 21  1  0
 21 22  3  0
M  END
>  <DRUGBANK_ID>  (1) 
DB09123

>  <COMMON_NAME>  (1) 
Dienogest

>  <CAS_NUMBER>  (1) 
65928-58-7

>  <UNII>  (1) 
46M3EV8HHE

>  <SYNONYMS>  (1) 
17-alpha-Cyanomethyl-17-beta-hydroxy-estra-4,9(10)-dien-3-one; 17alpha-17-Hydroxy-3-oxo-19-norpregna-4,9-diene-21-nitrile; Dienogest; Dienogestril; Dienogestum; Endometrion

$$$$
