
     RDKit          2D

 14 15  0  0  0  0  0  0  0  0999 V2000
    1.3556   -2.3479    0.0000 C   0  0  0  0  0  0  0  0  0  0  0  0
    2.7845    0.1271    0.0000 C   0  0  0  0  0  0  0  0  0  0  0  0
    0.6411   -0.2854    0.0000 C   0  0  0  0  0  0  0  0  0  0  0  0
    0.6411   -1.1104    0.0000 C   0  0  0  0  0  0  0  0  0  0  0  0
    1.3556    0.1271    0.0000 C   0  0  0  0  0  0  0  0  0  0  0  0
   -0.6284   -0.6979    0.0000 C   0  0  0  0  0  0  0  0  0  0  0  0
    2.0701   -1.1104    0.0000 C   0  0  0  0  0  0  0  0  0  0  0  0
   -1.4534   -0.6979    0.0000 N   0  0  0  0  0  0  0  0  0  0  0  0
   -0.1435   -0.0305    0.0000 N   0  0  0  0  0  0  0  0  0  0  0  0
   -0.1435   -1.3654    0.0000 N   0  0  0  0  0  0  0  0  0  0  0  0
    1.3556   -1.5229    0.0000 N   0  0  0  0  0  0  0  0  0  0  0  0
    2.0701   -0.2854    0.0000 N   0  0  0  0  0  0  0  0  0  0  0  0
    1.3556    0.9521    0.0000 O   0  0  0  0  0  0  0  0  0  0  0  0
    2.7845   -1.5229    0.0000 O   0  0  0  0  0  0  0  0  0  0  0  0
  4  3  2  0
  5  3  1  0
  8  6  2  0
  9  3  1  0
  9  6  1  0
 10  4  1  0
 10  6  1  0
 11  1  1  0
 11  4  1  0
 11  7  1  0
 12  2  1  0
 12  5  1  0
 12  7  1  0
 13  5  2  0
 14  7  2  0
M  END
>  <DRUGBANK_ID>  (1) 
DB01778

>  <SECONDARY_ACCESSION_NUMBERS>  (1) 
EXPT00087

>  <COMMON_NAME>  (1) 
8-Aminotheophylline

>  <CAS_NUMBER>  (1) 
19410-53-8

>  <SYNONYMS>  (1) 
8-Amino-1,3-dimethyl-3,7-dihydropurine-2,6-dione

$$$$
