ODE
     RDKit          2D

 31 34  0  0  0  0  0  0  0  0999 V2000
   -1.1673    1.9576    0.0000 C   0  0  0  0  0  0  0  0  0  0  0  0
   -1.7812    2.5087    0.0000 C   0  0  0  0  0  0  0  0  0  0  0  0
   -2.5655    2.2527    0.0000 C   0  0  0  0  0  0  0  0  0  0  0  0
   -3.1794    2.8038    0.0000 O   0  0  0  0  0  0  0  0  0  0  0  0
   -2.7359    1.4455    0.0000 C   0  0  0  0  0  0  0  0  0  0  0  0
   -2.1220    0.8943    0.0000 C   0  0  0  0  0  0  0  0  0  0  0  0
   -1.3377    1.1504    0.0000 C   0  0  0  0  0  0  0  0  0  0  0  0
   -0.7238    0.5992    0.0000 C   0  0  0  0  0  0  0  0  0  0  0  0
   -0.0835    1.0494    0.0000 C   0  0  0  0  0  0  0  0  0  0  0  0
   -0.2435    1.8648    0.0000 O   0  0  0  0  0  0  0  0  0  0  0  0
    0.7120    0.5841    0.0000 C   0  0  0  0  0  0  0  0  0  0  0  0
    1.5001    0.8282    0.0000 C   0  0  0  0  0  0  0  0  0  0  0  0
    1.6827    1.6327    0.0000 O   0  0  0  0  0  0  0  0  0  0  0  0
    2.1055    0.2677    0.0000 O   0  0  0  0  0  0  0  0  0  0  0  0
    2.8935    0.5118    0.0000 C   0  0  0  0  0  0  0  0  0  0  0  0
    3.4989   -0.0486    0.0000 C   0  0  0  0  0  0  0  0  0  0  0  0
    0.4169   -0.0413    0.0000 C   0  0  0  0  0  0  0  0  0  0  0  0
    0.6845   -0.8216    0.0000 C   0  0  0  0  0  0  0  0  0  0  0  0
    0.1425   -1.4436    0.0000 O   0  0  0  0  0  0  0  0  0  0  0  0
    1.4942   -0.9801    0.0000 O   0  0  0  0  0  0  0  0  0  0  0  0
    1.7618   -1.7604    0.0000 C   0  0  0  0  0  0  0  0  0  0  0  0
    2.5714   -1.9189    0.0000 C   0  0  0  0  0  0  0  0  0  0  0  0
   -0.3136    0.3290    0.0000 C   0  0  0  0  0  0  0  0  0  0  0  0
   -1.0891   -0.0613    0.0000 C   0  0  0  0  0  0  0  0  0  0  0  0
   -1.6837   -0.6332    0.0000 C   0  0  0  0  0  0  0  0  0  0  0  0
   -2.4763   -0.4042    0.0000 C   0  0  0  0  0  0  0  0  0  0  0  0
   -3.0709   -0.9761    0.0000 C   0  0  0  0  0  0  0  0  0  0  0  0
   -2.8729   -1.7770    0.0000 C   0  0  0  0  0  0  0  0  0  0  0  0
   -3.4675   -2.3489    0.0000 O   0  0  0  0  0  0  0  0  0  0  0  0
   -2.0803   -2.0060    0.0000 C   0  0  0  0  0  0  0  0  0  0  0  0
   -1.4857   -1.4341    0.0000 C   0  0  0  0  0  0  0  0  0  0  0  0
  1  7  2  0
  1  2  1  0
  2  3  2  0
  3  5  1  0
  3  4  1  0
  5  6  2  0
  6  7  1  0
  7  8  1  0
  9  8  1  6
  8 24  2  0
  9 10  1  0
  9 11  1  0
 10 23  1  0
 11 17  1  0
 11 12  1  1
 12 14  1  0
 12 13  2  0
 14 15  1  0
 15 16  1  0
 17 18  1  1
 17 23  1  0
 18 20  1  0
 18 19  2  0
 20 21  1  0
 21 22  1  0
 23 24  1  1
 24 25  1  0
 25 31  1  0
 25 26  2  0
 26 27  1  0
 27 28  2  0
 28 30  1  0
 28 29  1  0
 30 31  2  0
M  END
>  <DRUGBANK_ID>  (1) 
DB08320

>  <COMMON_NAME>  (1) 
DIETHYL (1R,2S,3R,4S)-5,6-BIS(4-HYDROXYPHENYL)-7-OXABICYCLO[2.2.1]HEPT-5-ENE-2,3-DICARBOXYLATE

$$$$
