
     RDKit          2D

 23 25  0  0  0  0  0  0  0  0999 V2000
    1.5909   -0.5790    0.0000 C   0  0  0  0  0  0  0  0  0  0  0  0
    1.8731   -1.3543    0.0000 C   0  0  0  0  0  0  0  0  0  0  0  0
    1.3428   -1.9863    0.0000 C   0  0  0  0  0  0  0  0  0  0  0  0
    0.5303   -1.8430    0.0000 C   0  0  0  0  0  0  0  0  0  0  0  0
    0.2481   -1.0678    0.0000 C   0  0  0  0  0  0  0  0  0  0  0  0
    0.7784   -0.4358    0.0000 C   0  0  0  0  0  0  0  0  0  0  0  0
    0.0000   -2.4750    0.0000 C   0  0  0  0  0  0  0  0  0  0  0  0
   -0.2822   -3.2502    0.0000 C   0  0  0  0  0  0  0  0  0  0  0  0
   -1.0946   -3.3935    0.0000 C   0  0  0  0  0  0  0  0  0  0  0  0
   -1.6249   -2.7615    0.0000 C   0  0  0  0  0  0  0  0  0  0  0  0
   -1.3428   -1.9863    0.0000 C   0  0  0  0  0  0  0  0  0  0  0  0
   -0.5303   -1.8430    0.0000 C   0  0  0  0  0  0  0  0  0  0  0  0
    0.7145   -2.8875    0.0000 C   0  0  0  0  0  0  0  0  0  0  0  0
    0.7145   -3.7125    0.0000 O   0  0  0  0  0  0  0  0  0  0  0  0
    1.4289   -2.4750    0.0000 O   0  0  0  0  0  0  0  0  0  0  0  0
    2.1434   -2.8875    0.0000 C   0  0  0  0  0  0  0  0  0  0  0  0
    2.8579   -2.4750    0.0000 C   0  0  0  0  0  0  0  0  0  0  0  0
    3.5724   -2.8875    0.0000 N   0  0  0  0  0  0  0  0  0  0  0  0
    4.2868   -2.4750    0.0000 C   0  0  0  0  0  0  0  0  0  0  0  0
    5.0013   -2.8875    0.0000 C   0  0  0  0  0  0  0  0  0  0  0  0
    5.0013   -3.7125    0.0000 C   0  0  0  0  0  0  0  0  0  0  0  0
    4.2868   -4.1250    0.0000 C   0  0  0  0  0  0  0  0  0  0  0  0
    3.5724   -3.7125    0.0000 C   0  0  0  0  0  0  0  0  0  0  0  0
  1  2  1  0
  1  6  1  0
  2  3  1  0
  3  4  1  0
  4  5  1  0
  4  7  1  0
  5  6  1  0
  7  8  1  0
  7 12  1  0
  7 13  1  0
  8  9  1  0
  9 10  1  0
 10 11  1  0
 11 12  1  0
 13 14  2  0
 13 15  1  0
 15 16  1  0
 16 17  1  0
 17 18  1  0
 18 19  1  0
 18 23  1  0
 19 20  1  0
 20 21  1  0
 21 22  1  0
 22 23  1  0
M  END
>  <DRUGBANK_ID>  (1) 
DB13678

>  <COMMON_NAME>  (1) 
Dihexyverine

>  <CAS_NUMBER>  (1) 
561-77-3

>  <UNII>  (1) 
J2FQ66RU9W

>  <SYNONYMS>  (1) 
Dihexyverine

$$$$
