1390
     RDKit          2D

  5  3  0  0  0  0  0  0  0  0999 V2000
    2.5864    0.8250    0.0000 Na  0  0  0  0  0 15  0  0  0  0  0  0
    0.4429    1.2375    0.0000 O   0  0  0  0  0  0  0  0  0  0  0  0
    1.8719    1.2375    0.0000 O   0  0  0  0  0  0  0  0  0  0  0  0
    1.1575    0.0000    0.0000 O   0  0  0  0  0  0  0  0  0  0  0  0
    1.1575    0.8250    0.0000 C   0  0  0  0  0  0  0  0  0  0  0  0
  2  5  1  0
  3  5  1  0
  4  5  2  0
M  CHG  2   1   1   3  -1
M  END
>  <DRUGBANK_ID>  (1) 
DB01390

>  <COMMON_NAME>  (1) 
Sodium bicarbonate

>  <CAS_NUMBER>  (1) 
144-55-8

>  <UNII>  (1) 
8MDF5V39QO

>  <SYNONYMS>  (1) 
Baking soda; Bicarbonate of soda; Carbonic acid monosodium salt; NaHCO3; Natriumhydrogenkarbonat; Sodio bicarbonato; Sodium acid carbonate; Sodium bicarbonate; Sodium hydrogen carbonate; Sodium hydrogencarbonate

$$$$
