
     RDKit          2D

  8  8  0  0  0  0  0  0  0  0999 V2000
   -0.0316    0.1387    0.0000 C   0  0  0  0  0  0  0  0  0  0  0  0
   -0.2864    0.9233    0.0000 C   0  0  0  0  0  0  0  0  0  0  0  0
    0.7704   -0.1218    0.0000 C   0  0  0  0  0  0  0  0  0  0  0  0
   -0.6991   -0.3461    0.0000 N   0  0  0  0  0  0  0  0  0  0  0  0
   -1.1114    0.9233    0.0000 C   0  0  0  0  0  0  0  0  0  0  0  0
    0.9248   -0.9233    0.0000 O   0  0  0  0  0  0  0  0  0  0  0  0
    1.3663    0.4357    0.0000 O   0  0  0  0  0  0  0  0  0  0  0  0
   -1.3663    0.1386    0.0000 C   0  0  0  0  0  0  0  0  0  0  0  0
  1  2  1  0
  1  3  1  1
  1  4  1  0
  2  5  1  0
  3  6  1  0
  3  7  2  0
  4  8  1  0
  5  8  1  0
M  END
>  <DRUGBANK_ID>  (1) 
DB00172

>  <SECONDARY_ACCESSION_NUMBERS>  (1) 
NUTR00047

>  <COMMON_NAME>  (1) 
Proline

>  <CAS_NUMBER>  (1) 
147-85-3

>  <UNII>  (1) 
9DLQ4CIU6V

>  <SYNONYMS>  (1) 
(-)-2-Pyrrolidinecarboxylic acid; (−)-(S)-proline; (−)-2-pyrrolidinecarboxylic acid; (−)-proline; (2S)-pyrrolidine-2-carboxylic acid; (S)-2-Carboxypyrrolidine; (S)-2-Pyrrolidinecarboxylic acid; (S)-pyrrolidine-2-carboxylic acid; 2-Pyrrolidinecarboxylic acid; L-(−)-proline; L-alpha-pyrrolidinecarboxylic acid; L-Prolin; L-Prolina; L-Proline; L-pyrrolidine-2-carboxylic acid; L-α-pyrrolidinecarboxylic acid; P; Prolina; Proline; Prolinum

$$$$
