5IG
     RDKit          2D

 28 30  0  0  0  0  0  0  0  0999 V2000
   -1.8389    2.0981    0.0000 C   0  0  0  0  0  0  0  0  0  0  0  0
   -1.8389    2.9231    0.0000 N   0  0  0  0  0  0  0  0  0  0  0  0
   -1.1245    3.3356    0.0000 C   0  0  0  0  0  0  0  0  0  0  0  0
   -0.4100    2.9231    0.0000 N   0  0  0  0  0  0  0  0  0  0  0  0
   -0.4100    2.0981    0.0000 C   0  0  0  0  0  0  0  0  0  0  0  0
   -1.1245    1.6856    0.0000 C   0  0  0  0  0  0  0  0  0  0  0  0
   -2.5534    1.6856    0.0000 N   0  0  0  0  0  0  0  0  0  0  0  0
   -1.1245    4.1606    0.0000 N   0  0  0  0  0  0  0  0  0  0  0  0
    0.3045    1.6856    0.0000 C   0  0  0  0  0  0  0  0  0  0  0  0
   -1.8389    0.4481    0.0000 C   0  0  0  0  0  0  0  0  0  0  0  0
   -1.8389   -0.3769    0.0000 C   0  0  0  0  0  0  0  0  0  0  0  0
   -1.1245   -0.7894    0.0000 C   0  0  0  0  0  0  0  0  0  0  0  0
   -0.4100   -0.3769    0.0000 C   0  0  0  0  0  0  0  0  0  0  0  0
   -0.4100    0.4481    0.0000 C   0  0  0  0  0  0  0  0  0  0  0  0
   -1.1245    0.8606    0.0000 C   0  0  0  0  0  0  0  0  0  0  0  0
   -1.1245   -1.6144    0.0000 O   0  0  0  0  0  0  0  0  0  0  0  0
   -0.4100   -2.0269    0.0000 C   0  0  0  0  0  0  0  0  0  0  0  0
    0.3045   -1.6144    0.0000 C   0  0  0  0  0  0  0  0  0  0  0  0
    0.3045   -0.7894    0.0000 N   0  0  0  0  0  0  0  0  0  0  0  0
    1.0190   -0.3769    0.0000 C   0  0  0  0  0  0  0  0  0  0  0  0
    1.7334   -0.7894    0.0000 C   0  0  0  0  0  0  0  0  0  0  0  0
    2.4479   -0.3769    0.0000 C   0  0  0  0  0  0  0  0  0  0  0  0
    3.1624   -0.7894    0.0000 O   0  0  0  0  0  0  0  0  0  0  0  0
    3.8768   -0.3769    0.0000 C   0  0  0  0  0  0  0  0  0  0  0  0
   -0.7973   -2.7554    0.0000 C   0  0  0  0  0  0  0  0  0  0  0  0
   -0.0227   -2.7554    0.0000 C   0  0  0  0  0  0  0  0  0  0  0  0
    1.0190   -2.0269    0.0000 O   0  0  0  0  0  0  0  0  0  0  0  0
    0.3045    0.8606    0.0000 C   0  0  0  0  0  0  0  0  0  0  0  0
  1  2  2  0
  1  6  1  0
  1  7  1  0
  2  3  1  0
  3  4  2  0
  3  8  1  0
  4  5  1  0
  5  6  2  0
  5  9  1  0
  6 15  1  0
  9 28  1  0
 10 11  2  0
 10 15  1  0
 11 12  1  0
 12 13  2  0
 12 16  1  0
 13 14  1  0
 13 19  1  0
 14 15  2  0
 16 17  1  0
 17 18  1  0
 17 25  1  0
 17 26  1  0
 18 19  1  0
 18 27  2  0
 19 20  1  0
 20 21  1  0
 21 22  1  0
 22 23  1  0
 23 24  1  0
M  END
>  <DRUGBANK_ID>  (1) 
DB07174

>  <COMMON_NAME>  (1) 
6-(2,4-DIAMINO-6-ETHYLPYRIMIDIN-5-YL)-4-(3-METHOXYPROPYL)-2,2-DIMETHYL-2H-1,4-BENZOXAZIN-3(4H)-ONE

$$$$
