
     RDKit          2D

 36 38  0  0  0  0  0  0  0  0999 V2000
   -1.5333    3.0009    0.0000 C   0  0  0  0  0  0  0  0  0  0  0  0
   -1.5333    2.1759    0.0000 O   0  0  0  0  0  0  0  0  0  0  0  0
   -0.8188    1.7634    0.0000 P   0  0  0  0  0  0  0  0  0  0  0  0
   -0.4063    2.4777    0.0000 O   0  0  0  0  0  0  0  0  0  0  0  0
   -1.2313    1.0489    0.0000 O   0  0  0  0  0  0  0  0  0  0  0  0
   -0.1043    1.3509    0.0000 O   0  0  0  0  0  0  0  0  0  0  0  0
   -0.1043    0.5259    0.0000 P   0  0  0  0  0  0  0  0  0  0  0  0
    0.7206    0.5259    0.0000 O   0  0  0  0  0  0  0  0  0  0  0  0
   -0.9293    0.5259    0.0000 O   0  0  0  0  0  0  0  0  0  0  0  0
   -0.1043   -0.2990    0.0000 O   0  0  0  0  0  0  0  0  0  0  0  0
    0.6100   -0.7115    0.0000 C   0  0  0  0  0  0  0  0  0  0  0  0
    0.6100   -1.5365    0.0000 C   0  0  0  0  0  0  0  0  0  0  0  0
    1.2775   -2.0214    0.0000 O   0  0  0  0  0  0  0  0  0  0  0  0
    1.0225   -2.8061    0.0000 C   0  0  0  0  0  0  0  0  0  0  0  0
    0.1975   -2.8061    0.0000 C   0  0  0  0  0  0  0  0  0  0  0  0
   -0.0573   -2.0214    0.0000 C   0  0  0  0  0  0  0  0  0  0  0  0
   -0.8419   -1.7666    0.0000 O   0  0  0  0  0  0  0  0  0  0  0  0
   -0.2873   -3.4735    0.0000 O   0  0  0  0  0  0  0  0  0  0  0  0
    1.5074   -3.4735    0.0000 N   0  0  0  0  0  0  0  0  0  0  0  0
    1.1719   -4.2272    0.0000 C   0  0  0  0  0  0  0  0  0  0  0  0
    0.3514   -4.3135    0.0000 O   0  0  0  0  0  0  0  0  0  0  0  0
    1.6568   -4.8946    0.0000 N   0  0  0  0  0  0  0  0  0  0  0  0
    2.4773   -4.8084    0.0000 C   0  0  0  0  0  0  0  0  0  0  0  0
    2.9622   -5.4759    0.0000 O   0  0  0  0  0  0  0  0  0  0  0  0
    2.8129   -4.0548    0.0000 C   0  0  0  0  0  0  0  0  0  0  0  0
    2.3279   -3.3874    0.0000 C   0  0  0  0  0  0  0  0  0  0  0  0
   -2.2478    3.4133    0.0000 C   0  0  0  0  0  0  0  0  0  0  0  0
   -2.9622    3.0009    0.0000 F   0  0  0  0  0  0  0  0  0  0  0  0
   -2.2478    4.2384    0.0000 C   0  0  0  0  0  0  0  0  0  0  0  0
   -2.9622    4.6509    0.0000 O   0  0  0  0  0  0  0  0  0  0  0  0
   -1.5333    4.6509    0.0000 C   0  0  0  0  0  0  0  0  0  0  0  0
   -1.5333    5.4759    0.0000 O   0  0  0  0  0  0  0  0  0  0  0  0
   -0.8188    4.2384    0.0000 C   0  0  0  0  0  0  0  0  0  0  0  0
   -0.1043    4.6509    0.0000 C   0  0  0  0  0  0  0  0  0  0  0  0
    0.6100    4.2384    0.0000 O   0  0  0  0  0  0  0  0  0  0  0  0
   -0.8188    3.4133    0.0000 O   0  0  0  0  0  0  0  0  0  0  0  0
  1  2  1  6
  1 27  1  0
  1 36  1  0
  3  2  1  0
  3  5  1  0
  4  3  2  0
  6  3  1  0
  7  6  1  0
  7  9  1  0
  8  7  2  0
 10  7  1  0
 11 10  1  0
 12 11  1  1
 12 13  1  0
 14 13  1  0
 14 15  1  0
 14 19  1  1
 15 16  1  0
 15 18  1  6
 16 12  1  0
 16 17  1  6
 20 19  1  0
 20 21  2  0
 20 22  1  0
 23 22  1  0
 23 24  2  0
 23 25  1  0
 25 26  2  0
 26 19  1  0
 27 28  1  6
 27 29  1  0
 29 30  1  1
 29 31  1  0
 31 32  1  6
 31 33  1  0
 33 34  1  1
 33 36  1  0
 34 35  1  0
M  END
>  <DRUGBANK_ID>  (1) 
DB03488

>  <SECONDARY_ACCESSION_NUMBERS>  (1) 
EXPT03157

>  <COMMON_NAME>  (1) 
Uridine-5'-diphosphate-2-deoxy-2-fluoro-alpha-D-galactose

$$$$
