
     RDKit          2D

 32 33  0  0  0  0  0  0  0  0999 V2000
    0.3469    1.7735    0.0000 C   0  0  0  0  0  0  0  0  0  0  0  0
   -1.0474    0.9612    0.0000 C   0  0  0  0  0  0  0  0  0  0  0  0
    0.3469    2.5960    0.0000 C   0  0  0  0  0  0  0  0  0  0  0  0
    1.0510    1.3673    0.0000 C   0  0  0  0  0  0  0  0  0  0  0  0
   -1.0474   -0.5313    0.0000 C   0  0  0  0  0  0  0  0  0  0  0  0
    1.0510    3.0224    0.0000 C   0  0  0  0  0  0  0  0  0  0  0  0
   -0.3773    3.0462    0.0000 O   0  0  0  0  0  0  0  0  0  0  0  0
    1.7617    1.7735    0.0000 C   0  0  0  0  0  0  0  0  0  0  0  0
    1.0510    0.5313    0.0000 O   0  0  0  0  0  0  0  0  0  0  0  0
   -1.7616   -0.9544    0.0000 C   0  0  0  0  0  0  0  0  0  0  0  0
   -0.3401   -0.9544    0.0000 C   0  0  0  0  0  0  0  0  0  0  0  0
    1.7617    2.5960    0.0000 C   0  0  0  0  0  0  0  0  0  0  0  0
   -1.1456    2.6298    0.0000 C   0  0  0  0  0  0  0  0  0  0  0  0
    2.5199    1.3673    0.0000 C   0  0  0  0  0  0  0  0  0  0  0  0
   -1.7616   -1.7870    0.0000 C   0  0  0  0  0  0  0  0  0  0  0  0
   -2.5198   -0.5313    0.0000 O   0  0  0  0  0  0  0  0  0  0  0  0
   -0.3401   -1.7870    0.0000 C   0  0  0  0  0  0  0  0  0  0  0  0
    0.3774   -0.5313    0.0000 O   0  0  0  0  0  0  0  0  0  0  0  0
    2.5199    3.0462    0.0000 O   0  0  0  0  0  0  0  0  0  0  0  0
    3.2442    1.7735    0.0000 C   0  0  0  0  0  0  0  0  0  0  0  0
    2.5199    0.5077    0.0000 O   0  0  0  0  0  0  0  0  0  0  0  0
   -1.0474   -2.1999    0.0000 C   0  0  0  0  0  0  0  0  0  0  0  0
   -2.5468   -2.1999    0.0000 C   0  0  0  0  0  0  0  0  0  0  0  0
    0.0051   -2.4741    0.0000 C   0  0  0  0  0  0  0  0  0  0  0  0
    0.4856   -1.7736    0.0000 C   0  0  0  0  0  0  0  0  0  0  0  0
    3.9414    1.3673    0.0000 C   0  0  0  0  0  0  0  0  0  0  0  0
   -1.0474   -3.0462    0.0000 O   0  0  0  0  0  0  0  0  0  0  0  0
   -3.2543   -1.7870    0.0000 C   0  0  0  0  0  0  0  0  0  0  0  0
   -2.5468   -3.0462    0.0000 O   0  0  0  0  0  0  0  0  0  0  0  0
    4.6657    1.7599    0.0000 C   0  0  0  0  0  0  0  0  0  0  0  0
   -3.9718   -2.1797    0.0000 C   0  0  0  0  0  0  0  0  0  0  0  0
   -4.6657   -1.7397    0.0000 C   0  0  0  0  0  0  0  0  0  0  0  0
  1  2  1  0
  1  3  2  0
  1  4  1  0
  2  5  1  0
  3  6  1  0
  3  7  1  0
  4  8  2  0
  4  9  1  0
  5 10  1  0
  5 11  2  0
  6 12  2  0
  7 13  1  0
  8 14  1  0
  8 12  1  0
 10 15  1  0
 10 16  2  0
 11 17  1  0
 11 18  1  0
 12 19  1  0
 14 20  1  0
 14 21  2  0
 15 22  2  0
 15 23  1  0
 17 24  1  0
 17 25  1  0
 17 22  1  0
 20 26  1  0
 22 27  1  0
 23 28  1  0
 23 29  2  0
 26 30  1  0
 28 31  1  0
 31 32  1  0
M  END
>  <DRUGBANK_ID>  (1) 
DB13567

>  <COMMON_NAME>  (1) 
Desaspidin

>  <CAS_NUMBER>  (1) 
114-43-2

>  <UNII>  (1) 
KV3495SGKS

>  <SYNONYMS>  (1) 
Desaspidin; Desaspidina; Desaspidine; Desaspidinum; Rosapin

$$$$
