
     RDKit          2D

 27 28  0  0  0  0  0  0  0  0999 V2000
   -1.9071   -2.7118    0.0000 C   0  0  0  0  0  0  0  0  0  0  0  0
   -1.0946   -2.5685    0.0000 C   0  0  0  0  0  0  0  0  0  0  0  0
   -0.8125   -1.7933    0.0000 C   0  0  0  0  0  0  0  0  0  0  0  0
   -1.3428   -1.1613    0.0000 C   0  0  0  0  0  0  0  0  0  0  0  0
   -1.0606   -0.3860    0.0000 C   0  0  0  0  0  0  0  0  0  0  0  0
    0.0000   -1.6500    0.0000 C   0  0  0  0  0  0  0  0  0  0  0  0
    0.5303   -2.2820    0.0000 C   0  0  0  0  0  0  0  0  0  0  0  0
    1.2448   -2.6945    0.0000 C   0  0  0  0  0  0  0  0  0  0  0  0
    1.2448   -3.5195    0.0000 C   0  0  0  0  0  0  0  0  0  0  0  0
    0.5303   -3.9320    0.0000 C   0  0  0  0  0  0  0  0  0  0  0  0
   -0.1842   -3.5195    0.0000 C   0  0  0  0  0  0  0  0  0  0  0  0
   -0.1842   -2.6945    0.0000 C   0  0  0  0  0  0  0  0  0  0  0  0
    1.0606   -1.6500    0.0000 C   0  0  0  0  0  0  0  0  0  0  0  0
    0.7784   -0.8748    0.0000 O   0  0  0  0  0  0  0  0  0  0  0  0
    1.8731   -1.7933    0.0000 N   0  0  0  0  0  0  0  0  0  0  0  0
    2.4034   -1.1613    0.0000 C   0  0  0  0  0  0  0  0  0  0  0  0
    2.1212   -0.3860    0.0000 C   0  0  0  0  0  0  0  0  0  0  0  0
    2.6515    0.2460    0.0000 C   0  0  0  0  0  0  0  0  0  0  0  0
    3.4640    0.1027    0.0000 C   0  0  0  0  0  0  0  0  0  0  0  0
    3.7461   -0.6725    0.0000 C   0  0  0  0  0  0  0  0  0  0  0  0
    3.2158   -1.3045    0.0000 C   0  0  0  0  0  0  0  0  0  0  0  0
    3.4980   -2.0798    0.0000 S   0  0  0  0  0  0  0  0  0  0  0  0
    4.3105   -2.2230    0.0000 C   0  0  0  0  0  0  0  0  0  0  0  0
    4.8408   -1.5911    0.0000 O   0  0  0  0  0  0  0  0  0  0  0  0
    4.5926   -2.9983    0.0000 C   0  0  0  0  0  0  0  0  0  0  0  0
    5.4051   -3.1415    0.0000 C   0  0  0  0  0  0  0  0  0  0  0  0
    4.0623   -3.6303    0.0000 C   0  0  0  0  0  0  0  0  0  0  0  0
  1  2  1  0
  2  3  1  0
  3  4  1  0
  3  6  1  0
  4  5  1  0
  6  7  1  0
  7  8  1  0
  7 12  1  0
  7 13  1  0
  8  9  1  0
  9 10  1  0
 10 11  1  0
 11 12  1  0
 13 14  2  0
 13 15  1  0
 15 16  1  0
 16 17  2  0
 16 21  1  0
 17 18  1  0
 18 19  2  0
 19 20  1  0
 20 21  2  0
 21 22  1  0
 22 23  1  0
 23 24  2  0
 23 25  1  0
 25 26  1  0
 25 27  1  0
M  END
>  <DRUGBANK_ID>  (1) 
DB12181

>  <COMMON_NAME>  (1) 
Dalcetrapib

>  <CAS_NUMBER>  (1) 
211513-37-0

>  <UNII>  (1) 
3D050LIQ3H

>  <SYNONYMS>  (1) 
Dalcetrapib

$$$$
