397
     RDKit          2D

 17 19  0  0  0  0  0  0  0  0999 V2000
    2.5142   -0.4999    0.0000 C   0  0  0  0  0  0  0  0  0  0  0  0
    1.7998   -0.9124    0.0000 C   0  0  0  0  0  0  0  0  0  0  0  0
    1.0853   -0.4999    0.0000 C   0  0  0  0  0  0  0  0  0  0  0  0
    1.0853    0.3251    0.0000 C   0  0  0  0  0  0  0  0  0  0  0  0
    1.7998    0.7376    0.0000 C   0  0  0  0  0  0  0  0  0  0  0  0
    2.5142    0.3251    0.0000 C   0  0  0  0  0  0  0  0  0  0  0  0
    0.3007   -0.7548    0.0000 O   0  0  0  0  0  0  0  0  0  0  0  0
   -0.1843   -0.0874    0.0000 C   0  0  0  0  0  0  0  0  0  0  0  0
    0.3007    0.5801    0.0000 C   0  0  0  0  0  0  0  0  0  0  0  0
   -1.0093   -0.0874    0.0000 C   0  0  0  0  0  0  0  0  0  0  0  0
   -1.4218   -0.8018    0.0000 C   0  0  0  0  0  0  0  0  0  0  0  0
   -2.2468   -0.8018    0.0000 C   0  0  0  0  0  0  0  0  0  0  0  0
   -2.6593   -0.0874    0.0000 C   0  0  0  0  0  0  0  0  0  0  0  0
   -2.2468    0.6271    0.0000 C   0  0  0  0  0  0  0  0  0  0  0  0
   -1.4218    0.6271    0.0000 C   0  0  0  0  0  0  0  0  0  0  0  0
    3.2287    0.7376    0.0000 O   0  0  0  0  0  0  0  0  0  0  0  0
   -3.4843   -0.0874    0.0000 O   0  0  0  0  0  0  0  0  0  0  0  0
  1  2  2  0
  1  6  1  0
  2  3  1  0
  3  4  2  0
  3  7  1  0
  4  5  1  0
  4  9  1  0
  5  6  2  0
  6 16  1  0
  7  8  1  0
  8  9  2  0
  8 10  1  0
 10 11  2  0
 10 15  1  0
 11 12  1  0
 12 13  2  0
 13 14  1  0
 13 17  1  0
 14 15  2  0
M  END
>  <DRUGBANK_ID>  (1) 
DB07032

>  <COMMON_NAME>  (1) 
2-(4-HYDROXY-PHENYL)BENZOFURAN-5-OL

$$$$
