
     RDKit          2D

 41 42  0  0  0  0  0  0  0  0999 V2000
   -3.2082    2.4726    0.0000 O   0  0  0  0  0  0  0  0  0  0  0  0
   -3.2082    3.2886    0.0000 C   0  0  0  0  0  0  0  0  0  0  0  0
   -2.4911    3.7089    0.0000 C   0  0  0  0  0  0  0  0  0  0  0  0
   -3.9252    3.7089    0.0000 O   0  0  0  0  0  0  0  0  0  0  0  0
   -2.4911    4.5373    0.0000 C   0  0  0  0  0  0  0  0  0  0  0  0
   -1.7864    3.2886    0.0000 N   0  0  0  0  0  0  0  0  0  0  0  0
   -3.2082    4.9452    0.0000 C   0  0  0  0  0  0  0  0  0  0  0  0
   -3.9252    4.5373    0.0000 C   0  0  0  0  0  0  0  0  0  0  0  0
   -3.2082    5.7736    0.0000 C   0  0  0  0  0  0  0  0  0  0  0  0
   -1.0694    3.7089    0.0000 C   0  0  0  0  0  0  0  0  0  0  0  0
   -0.3523    3.2886    0.0000 C   0  0  0  0  0  0  0  0  0  0  0  0
   -1.0694    4.5373    0.0000 O   0  0  0  0  0  0  0  0  0  0  0  0
    0.3523    3.7089    0.0000 C   0  0  0  0  0  0  0  0  0  0  0  0
   -0.3523    2.4726    0.0000 N   0  0  0  0  0  0  0  0  0  0  0  0
    0.3523    4.5373    0.0000 C   0  0  0  0  0  0  0  0  0  0  0  0
   -0.3523    4.9452    0.0000 C   0  0  0  0  0  0  0  0  0  0  0  0
    1.0694    4.9452    0.0000 C   0  0  0  0  0  0  0  0  0  0  0  0
    1.0694    5.7736    0.0000 C   0  0  0  0  0  0  0  0  0  0  0  0
   -0.3523    5.7736    0.0000 C   0  0  0  0  0  0  0  0  0  0  0  0
    0.3523    6.1816    0.0000 C   0  0  0  0  0  0  0  0  0  0  0  0
    0.3523    2.0523    0.0000 C   0  0  0  0  0  0  0  0  0  0  0  0
    1.0694    2.4726    0.0000 O   0  0  0  0  0  0  0  0  0  0  0  0
    0.3523    1.2363    0.0000 C   0  0  0  0  0  0  0  0  0  0  0  0
    1.0694    0.8160    0.0000 N   0  0  0  0  0  0  0  0  0  0  0  0
    1.0694    0.0000    0.0000 C   0  0  0  0  0  0  0  0  0  0  0  0
    0.3523   -0.4079    0.0000 O   0  0  0  0  0  0  0  0  0  0  0  0
    1.7864   -0.4079    0.0000 C   0  0  0  0  0  0  0  0  0  0  0  0
    1.7864   -1.2363    0.0000 N   0  0  0  0  0  0  0  0  0  0  0  0
    2.5035    0.0000    0.0000 C   0  0  0  0  0  0  0  0  0  0  0  0
    2.5035   -1.6443    0.0000 C   0  0  0  0  0  0  0  0  0  0  0  0
    2.5035   -2.4725    0.0000 C   0  0  0  0  0  0  0  0  0  0  0  0
    3.2082   -1.2363    0.0000 O   0  0  0  0  0  0  0  0  0  0  0  0
    3.2082   -2.8805    0.0000 C   0  0  0  0  0  0  0  0  0  0  0  0
    3.2082   -3.7089    0.0000 C   0  0  0  0  0  0  0  0  0  0  0  0
    1.7864   -2.8930    0.0000 N   0  0  0  0  0  0  0  0  0  0  0  0
    3.2082   -5.3531    0.0000 C   0  0  0  0  0  0  0  0  0  0  0  0
    2.5035   -4.1169    0.0000 C   0  0  0  0  0  0  0  0  0  0  0  0
    3.9252   -4.1169    0.0000 C   0  0  0  0  0  0  0  0  0  0  0  0
    2.5035   -4.9451    0.0000 C   0  0  0  0  0  0  0  0  0  0  0  0
    3.9252   -4.9451    0.0000 C   0  0  0  0  0  0  0  0  0  0  0  0
    3.2082   -6.1816    0.0000 O   0  0  0  0  0  0  0  0  0  0  0  0
  1  2  1  0
  2  3  1  0
  2  4  2  0
  3  5  1  1
  3  6  1  0
  5  7  1  0
  6 10  1  0
  7  8  1  0
  7  9  1  0
 10 11  1  0
 10 12  2  0
 11 13  1  6
 11 14  1  0
 13 15  1  0
 14 21  1  0
 15 16  2  0
 15 17  1  0
 16 19  1  0
 17 18  2  0
 18 20  1  0
 19 20  2  0
 21 23  1  0
 21 22  2  0
 23 24  1  0
 24 25  1  0
 25 26  2  0
 25 27  1  0
 27 28  1  0
 27 29  1  1
 28 30  1  0
 30 31  1  0
 30 32  2  0
 31 33  1  0
 31 35  1  6
 33 34  1  0
 34 37  1  0
 34 38  2  0
 36 40  2  0
 36 41  1  0
 36 39  1  0
 37 39  2  0
 38 40  1  0
M  END
>  <DRUGBANK_ID>  (1) 
DB08856

>  <COMMON_NAME>  (1) 
DADLE

>  <CAS_NUMBER>  (1) 
63631-40-3

>  <UNII>  (1) 
CQK2YXW6EZ

>  <SYNONYMS>  (1) 
[D-Ala2, D-Leu5]-Enkephalin; H-Tyr-D-Ala-Gly-Phe-D-Leu; L-Tyrosyl-D-alanylglycyl-L-phenylalanyl-D-leucine

$$$$
