
     RDKit          2D

 36 39  0  0  1  0  0  0  0  0999 V2000
   -0.4125    3.3513    0.0000 C   0  0  0  0  0  0  0  0  0  0  0  0
    0.0000    2.6368    0.0000 C   0  0  0  0  0  0  0  0  0  0  0  0
    0.8250    2.6368    0.0000 O   0  0  0  0  0  0  0  0  0  0  0  0
   -0.4125    1.9224    0.0000 N   0  0  0  0  0  0  0  0  0  0  0  0
    0.0000    1.2079    0.0000 C   0  0  0  0  0  0  0  0  0  0  0  0
   -0.4125    0.4934    0.0000 C   0  0  0  0  0  0  0  0  0  0  0  0
   -1.2375    0.4934    0.0000 N   0  0  0  0  0  0  0  0  0  0  0  0
   -1.6500    1.2079    0.0000 C   0  0  0  0  0  0  0  0  0  0  0  0
   -1.2375    1.9224    0.0000 C   0  0  0  0  0  0  0  0  0  0  0  0
   -1.6500   -0.2211    0.0000 C   0  0  0  0  0  0  0  0  0  0  0  0
   -2.4750   -0.2211    0.0000 O   0  0  0  0  0  0  0  0  0  0  0  0
   -1.2375   -0.9355    0.0000 C   0  0  0  0  0  0  0  0  0  0  0  0
   -1.6500   -1.6500    0.0000 C   0  0  0  0  0  0  0  0  0  0  0  0
   -2.4750   -1.6500    0.0000 C   0  0  0  0  0  0  0  0  0  0  0  0
   -2.8875   -2.3645    0.0000 C   0  0  0  0  0  0  0  0  0  0  0  0
   -3.7125   -2.3645    0.0000 C   0  0  0  0  0  0  0  0  0  0  0  0
   -4.1250   -1.6500    0.0000 C   0  0  0  0  0  0  0  0  0  0  0  0
   -3.7125   -0.9355    0.0000 C   0  0  0  0  0  0  0  0  0  0  0  0
   -2.8875   -0.9355    0.0000 C   0  0  0  0  0  0  0  0  0  0  0  0
   -4.1250   -0.2211    0.0000 C   0  0  0  0  0  0  0  0  0  0  0  0
   -4.9500   -0.2211    0.0000 N   0  0  0  0  0  0  0  0  0  0  0  0
   -3.7125    0.4934    0.0000 N   0  0  0  0  0  0  0  0  0  0  0  0
   -0.4125   -0.9355    0.0000 N   0  0  0  0  0  0  0  0  0  0  0  0
    0.0000   -1.6500    0.0000 S   0  0  0  0  0  0  0  0  0  0  0  0
    0.4125   -2.3645    0.0000 O   0  0  0  0  0  0  0  0  0  0  0  0
   -0.7145   -2.0625    0.0000 O   0  0  0  0  0  0  0  0  0  0  0  0
    0.7145   -1.2375    0.0000 C   0  0  0  0  0  0  0  0  0  0  0  0
    0.7145   -0.4125    0.0000 C   0  0  0  0  0  0  0  0  0  0  0  0
    1.4289    0.0000    0.0000 C   0  0  0  0  0  0  0  0  0  0  0  0
    2.1434   -0.4125    0.0000 C   0  0  0  0  0  0  0  0  0  0  0  0
    2.8579    0.0000    0.0000 C   0  0  0  0  0  0  0  0  0  0  0  0
    3.5724   -0.4125    0.0000 C   0  0  0  0  0  0  0  0  0  0  0  0
    3.5724   -1.2375    0.0000 C   0  0  0  0  0  0  0  0  0  0  0  0
    2.8579   -1.6500    0.0000 C   0  0  0  0  0  0  0  0  0  0  0  0
    2.1434   -1.2375    0.0000 C   0  0  0  0  0  0  0  0  0  0  0  0
    1.4289   -1.6500    0.0000 C   0  0  0  0  0  0  0  0  0  0  0  0
  1  2  1  0
  2  3  2  0
  2  4  1  0
  4  5  1  0
  4  9  1  0
  5  6  1  0
  6  7  1  0
  7  8  1  0
  7 10  1  0
  8  9  1  0
 10 11  2  0
 10 12  1  0
 12 13  1  1
 12 23  1  0
 13 14  1  0
 14 15  2  0
 14 19  1  0
 15 16  1  0
 16 17  2  0
 17 18  1  0
 18 19  2  0
 18 20  1  0
 20 21  1  0
 20 22  2  0
 23 24  1  0
 24 25  2  0
 24 26  2  0
 24 27  1  0
 27 28  2  0
 27 36  1  0
 28 29  1  0
 29 30  2  0
 30 31  1  0
 30 35  1  0
 31 32  2  0
 32 33  1  0
 33 34  2  0
 34 35  1  0
 35 36  2  0
M  END
>  <DRUGBANK_ID>  (1) 
DB04125

>  <SECONDARY_ACCESSION_NUMBERS>  (1) 
EXPT01411

>  <COMMON_NAME>  (1) 
N-Alpha-(2-Naphthylsulfonyl)-N(3-Amidino-L-Phenylalaninyl)-4-Acetyl-Piperazine

$$$$
