
     RDKit          2D

 14 13  0  0  0  0  0  0  0  0999 V2000
   -4.9508   -0.3412    0.0000 Br  0  0  0  0  0  0  0  0  0  0  0  0
    4.5019    0.0771    0.0000 O   0  0  0  0  0  0  0  0  0  0  0  0
   -4.1989    0.0771    0.0000 C   0  0  0  0  0  0  0  0  0  0  0  0
    3.7909   -0.3412    0.0000 C   0  0  0  0  0  0  0  0  0  0  0  0
   -3.4873   -0.3412    0.0000 C   0  0  0  0  0  0  0  0  0  0  0  0
    3.0384    0.0771    0.0000 C   0  0  0  0  0  0  0  0  0  0  0  0
   -0.6016   -0.3412    0.0000 C   0  0  0  0  0  0  0  0  0  0  0  0
    0.1093    0.0771    0.0000 C   0  0  0  0  0  0  0  0  0  0  0  0
   -2.7762    0.0771    0.0000 C   0  0  0  0  0  0  0  0  0  0  0  0
   -2.0237   -0.3412    0.0000 C   0  0  0  0  0  0  0  0  0  0  0  0
   -1.3126    0.0771    0.0000 C   0  0  0  0  0  0  0  0  0  0  0  0
    2.3274   -0.3412    0.0000 C   0  0  0  0  0  0  0  0  0  0  0  0
    1.5742    0.0771    0.0000 C   0  0  0  0  0  0  0  0  0  0  0  0
    0.8631   -0.3412    0.0000 C   0  0  0  0  0  0  0  0  0  0  0  0
  2  4  1  0
  3  1  1  0
  4  6  1  0
  5  3  1  0
  6 12  1  0
  7 11  1  0
  8  7  1  0
  9  5  1  0
 10  9  1  0
 11 10  1  0
 12 13  1  0
 13 14  1  0
 14  8  1  0
M  END
>  <DRUGBANK_ID>  (1) 
DB02619

>  <SECONDARY_ACCESSION_NUMBERS>  (1) 
EXPT00648

>  <COMMON_NAME>  (1) 
12-Bromo-1-dodecanol

>  <CAS_NUMBER>  (1) 
3344-77-2

>  <UNII>  (1) 
L7CYF0086V

$$$$
