
     RDKit          2D

  1  0  0  0  0  0  0  0  0  0999 V2000
    0.0000    0.0000    0.0000 Tc  0  0  0  0  0 15  0  0  0  0  0  0
M  ISO  1   1  99
M  END
>  <DRUGBANK_ID>  (1) 
DB14227

>  <COMMON_NAME>  (1) 
Technetium Tc-99m

>  <CAS_NUMBER>  (1) 
14133-76-7

>  <UNII>  (1) 
6EW75241VU

>  <SYNONYMS>  (1) 
99Tc; Tc 99; Technetium (99mTc); Technetium (Tc 99m); Technetium 99m; Technetium Tc 99m; Technetium-99; Technetium-99m; Technetium-99mTc; Technetium, isotope of mass 99; Technetium, Tc-99m; Technetium,Tc-99m

$$$$
