
     RDKit          2D

  7  7  0  0  0  0  0  0  0  0999 V2000
    0.0202   -0.3010    0.0000 C   0  0  0  0  0  0  0  0  0  0  0  0
    0.2751    0.4836    0.0000 N   0  0  0  0  0  0  0  0  0  0  0  0
   -0.8048   -0.3010    0.0000 C   0  0  0  0  0  0  0  0  0  0  0  0
    0.5052   -0.9685    0.0000 O   0  0  0  0  0  0  0  0  0  0  0  0
   -0.3922    0.9685    0.0000 S   0  0  0  0  0  0  0  0  0  0  0  0
    1.0598    0.7386    0.0000 C   0  0  0  0  0  0  0  0  0  0  0  0
   -1.0598    0.4836    0.0000 C   0  0  0  0  0  0  0  0  0  0  0  0
  1  2  1  0
  1  3  1  0
  1  4  2  0
  2  5  1  0
  2  6  1  0
  3  7  2  0
  5  7  1  0
M  END
>  <DRUGBANK_ID>  (1) 
DB15884

>  <COMMON_NAME>  (1) 
Methylisothiazolinone

>  <CAS_NUMBER>  (1) 
2682-20-4

>  <UNII>  (1) 
229D0E1QFA

>  <SYNONYMS>  (1) 
2-Methyl-3-isothiazolone; 2-Methyl-3(2H)-isothiazolone; 2-Methyl-4-isothiazolin-3-one; 2-Methyl-4-isothiazoline-3-ketone; 2-Methyl-4-isothiazoline-3-one; N-Methylisothiazolin-3-one

$$$$
