
     RDKit          2D

 15 14  0  0  0  0  0  0  0  0999 V2000
    5.4730   -3.9849    0.0000 C   0  0  0  0  0  0  0  0  0  0  0  0
    6.1875   -3.5724    0.0000 C   0  0  0  0  0  0  0  0  0  0  0  0
    6.9020   -3.9849    0.0000 C   0  0  0  0  0  0  0  0  0  0  0  0
    7.6164   -3.5724    0.0000 C   0  0  0  0  0  0  0  0  0  0  0  0
    8.3309   -3.9849    0.0000 C   0  0  0  0  0  0  0  0  0  0  0  0
    9.0454   -3.5724    0.0000 C   0  0  0  0  0  0  0  0  0  0  0  0
    9.7599   -3.9849    0.0000 C   0  0  0  0  0  0  0  0  0  0  0  0
   10.4743   -3.5724    0.0000 C   0  0  0  0  0  0  0  0  0  0  0  0
   11.1888   -3.9849    0.0000 O   0  0  0  0  0  0  0  0  0  0  0  0
   11.9033   -3.5724    0.0000 C   0  0  0  0  0  0  0  0  0  0  0  0
   11.9033   -2.7474    0.0000 O   0  0  0  0  0  0  0  0  0  0  0  0
   12.6177   -3.9849    0.0000 C   0  0  0  0  0  0  0  0  0  0  0  0
   12.6177   -4.8099    0.0000 C   0  0  0  0  0  0  0  0  0  0  0  0
   13.3322   -3.5724    0.0000 C   0  0  0  0  0  0  0  0  0  0  0  0
   14.0467   -3.1599    0.0000 N   0  0  0  0  0  0  0  0  0  0  0  0
  1  2  1  0
  2  3  1  0
  3  4  1  0
  4  5  1  0
  5  6  1  0
  6  7  1  0
  7  8  1  0
  8  9  1  0
  9 10  1  0
 10 11  2  0
 10 12  1  0
 12 13  2  0
 12 14  1  0
 14 15  3  0
M  END
>  <DRUGBANK_ID>  (1) 
DB15086

>  <COMMON_NAME>  (1) 
Ocrylate

>  <CAS_NUMBER>  (1) 
6701-17-3

>  <UNII>  (1) 
6C655P1XVG

>  <SYNONYMS>  (1) 
Ocrylate; OCTYL-2-CYANOACRYLATE

$$$$
