
     RDKit          2D

  9  8  0  0  0  0  0  0  0  0999 V2000
    0.7212   -0.2115    0.0000 C   0  0  0  0  0  0  0  0  0  0  0  0
    1.4295    0.2115    0.0000 C   0  0  0  0  0  0  0  0  0  0  0  0
    0.0055    0.1984    0.0000 C   0  0  0  0  0  0  0  0  0  0  0  0
    0.7212   -1.0316    0.0000 O   0  0  0  0  0  0  0  0  0  0  0  0
    2.1377   -0.2115    0.0000 O   0  0  0  0  0  0  0  0  0  0  0  0
    1.4295    1.0316    0.0000 O   0  0  0  0  0  0  0  0  0  0  0  0
   -0.7064   -0.2208    0.0000 C   0  0  0  0  0  0  0  0  0  0  0  0
   -1.4202    0.1984    0.0000 S   0  0  0  0  0  0  0  0  0  0  0  0
   -2.1377   -0.2208    0.0000 C   0  0  0  0  0  0  0  0  0  0  0  0
  1  2  1  0
  1  3  1  0
  1  4  1  0
  2  5  1  0
  2  6  2  0
  3  7  1  0
  7  8  1  0
  8  9  1  0
M  END
>  <DRUGBANK_ID>  (1) 
DB15832

>  <COMMON_NAME>  (1) 
Desmeninol

>  <CAS_NUMBER>  (1) 
583-91-5

>  <UNII>  (1) 
Z94465H1Y7

>  <SYNONYMS>  (1) 
2-Hydroxy-4-(methylthio) butanoic acid; 2-Hydroxy-4-(methylthio)butanoic acid; alpha-Hydroxy-gamma-(methylmercapto)butyric acid; alpha-Hydroxy-gamma-(methylthio)butyric acid; Desmeninol; DL-2-hydroxy-4-(methylthio)-butyric acid; Methionine hydroxy analog

$$$$
