
     RDKit          2D

 17 18  0  0  0  0  0  0  0  0999 V2000
    0.1086   -0.9688    0.0000 C   0  0  0  0  0  0  0  0  0  0  0  0
    0.8221   -0.5596    0.0000 C   0  0  0  0  0  0  0  0  0  0  0  0
    0.8221    0.2672    0.0000 C   0  0  0  0  0  0  0  0  0  0  0  0
    0.1086    0.6849    0.0000 C   0  0  0  0  0  0  0  0  0  0  0  0
   -0.6051   -0.5596    0.0000 C   0  0  0  0  0  0  0  0  0  0  0  0
   -0.6026    0.2654    0.0000 C   0  0  0  0  0  0  0  0  0  0  0  0
   -1.3146    0.6784    0.0000 C   0  0  0  0  0  0  0  0  0  0  0  0
   -2.0299    0.2674    0.0000 C   0  0  0  0  0  0  0  0  0  0  0  0
   -2.0284   -0.5607    0.0000 C   0  0  0  0  0  0  0  0  0  0  0  0
   -1.3158   -0.9700    0.0000 C   0  0  0  0  0  0  0  0  0  0  0  0
    0.1069    1.5118    0.0000 O   0  0  0  0  0  0  0  0  0  0  0  0
    0.1086   -1.7958    0.0000 O   0  0  0  0  0  0  0  0  0  0  0  0
    1.2325    0.9939    0.0000 S   0  0  0  0  0  0  0  0  0  0  0  0
    1.6167    0.0542    0.0000 C   0  0  0  0  0  0  0  0  0  0  0  0
    2.0299    1.2127    0.0000 O   0  0  0  0  0  0  0  0  0  0  0  0
    0.6442    1.5752    0.0000 O   0  0  0  0  0  0  0  0  0  0  0  0
    1.4455    1.7958    0.0000 O   0  0  0  0  0  0  0  0  0  0  0  0
  1 12  2  0
  1  2  1  0
  2  3  1  0
  3  4  1  0
  3 13  1  0
  3 14  1  0
  4 11  2  0
  5  6  2  0
  5  1  1  0
  6  4  1  0
  6  7  1  0
  7  8  2  0
  8  9  1  0
  9 10  2  0
 10  5  1  0
 13 15  1  0
 13 16  2  0
 13 17  2  0
M  END
>  <DRUGBANK_ID>  (1) 
DB15944

>  <COMMON_NAME>  (1) 
Menadione bisulfite

>  <CAS_NUMBER>  (1) 
130-36-9

>  <UNII>  (1) 
I2BE1ZEN8I

$$$$
