
     RDKit          2D

 37 38  0  0  1  0  0  0  0  0999 V2000
   -5.6498   -8.4464    0.0000 C   0  0  0  0  0  0  0  0  0  0  0  0
   -4.9354   -8.8589    0.0000 C   0  0  0  0  0  0  0  0  0  0  0  0
   -4.2209   -8.4464    0.0000 C   0  0  0  0  0  0  0  0  0  0  0  0
   -3.5064   -8.8589    0.0000 C   0  0  0  0  0  0  0  0  0  0  0  0
   -2.7919   -8.4464    0.0000 C   0  0  0  0  0  0  0  0  0  0  0  0
   -2.0775   -8.8589    0.0000 C   0  0  0  0  0  0  0  0  0  0  0  0
   -1.3630   -8.4464    0.0000 C   0  0  0  0  0  0  0  0  0  0  0  0
   -0.6485   -8.8589    0.0000 C   0  0  0  0  0  0  0  0  0  0  0  0
    0.0659   -8.4464    0.0000 C   0  0  0  0  0  0  0  0  0  0  0  0
    0.7804   -8.8589    0.0000 C   0  0  0  0  0  0  0  0  0  0  0  0
    1.4949   -8.4464    0.0000 C   0  0  0  0  0  0  0  0  0  0  0  0
    2.2094   -8.8589    0.0000 C   0  0  0  0  0  0  0  0  0  0  0  0
    2.9238   -8.4464    0.0000 C   0  0  0  0  0  0  0  0  0  0  0  0
    3.6383   -8.8589    0.0000 C   0  0  0  0  0  0  0  0  0  0  0  0
    4.3528   -8.4464    0.0000 C   0  0  0  0  0  0  0  0  0  0  0  0
    5.0672   -8.8589    0.0000 C   0  0  0  0  0  0  0  0  0  0  0  0
    5.7817   -8.4464    0.0000 C   0  0  0  0  0  0  0  0  0  0  0  0
    6.4962   -8.8589    0.0000 C   0  0  0  0  0  0  0  0  0  0  0  0
    6.4962   -9.6839    0.0000 O   0  0  0  0  0  0  0  0  0  0  0  0
    7.2107   -8.4464    0.0000 O   0  0  0  0  0  0  0  0  0  0  0  0
    7.9251   -8.8589    0.0000 C   0  0  0  0  0  0  0  0  0  0  0  0
    8.6396   -8.4464    0.0000 C   0  0  0  0  0  0  0  0  0  0  0  0
    8.7258   -7.6260    0.0000 C   0  0  0  0  0  0  0  0  0  0  0  0
    9.5328   -7.4544    0.0000 C   0  0  0  0  0  0  0  0  0  0  0  0
    9.9453   -8.1689    0.0000 C   0  0  0  0  0  0  0  0  0  0  0  0
    9.3933   -8.7820    0.0000 O   0  0  0  0  0  0  0  0  0  0  0  0
   10.7658   -8.2551    0.0000 N   0  0  0  0  0  0  0  0  0  0  0  0
   11.2507   -7.5877    0.0000 C   0  0  0  0  0  0  0  0  0  0  0  0
   12.0712   -7.6739    0.0000 C   0  0  0  0  0  0  0  0  0  0  0  0
   12.4067   -8.4276    0.0000 C   0  0  0  0  0  0  0  0  0  0  0  0
   11.9218   -9.0950    0.0000 N   0  0  0  0  0  0  0  0  0  0  0  0
   11.1013   -9.0088    0.0000 C   0  0  0  0  0  0  0  0  0  0  0  0
   10.6164   -9.6763    0.0000 O   0  0  0  0  0  0  0  0  0  0  0  0
   13.2272   -8.5138    0.0000 N   0  0  0  0  0  0  0  0  0  0  0  0
    9.4552   -6.6331    0.0000 F   0  0  0  0  0  0  0  0  0  0  0  0
   10.1951   -6.9625    0.0000 F   0  0  0  0  0  0  0  0  0  0  0  0
    8.1127   -7.0739    0.0000 O   0  0  0  0  0  0  0  0  0  0  0  0
  1  2  1  0
  2  3  1  0
  3  4  1  0
  4  5  1  0
  5  6  1  0
  6  7  1  0
  7  8  1  0
  8  9  1  0
  9 10  2  0
 10 11  1  0
 11 12  1  0
 12 13  1  0
 13 14  1  0
 14 15  1  0
 15 16  1  0
 16 17  1  0
 17 18  1  0
 18 19  2  0
 18 20  1  0
 20 21  1  0
 22 21  1  6
 22 23  1  0
 22 26  1  0
 23 24  1  0
 23 37  1  1
 24 25  1  0
 24 35  1  0
 24 36  1  0
 25 26  1  0
 25 27  1  6
 27 28  1  0
 27 32  1  0
 28 29  2  0
 29 30  1  0
 30 31  2  0
 30 34  1  0
 31 32  1  0
 32 33  2  0
M  END
>  <DRUGBANK_ID>  (1) 
DB12564

>  <COMMON_NAME>  (1) 
Gemcitabine elaidate

>  <CAS_NUMBER>  (1) 
210829-30-4

>  <UNII>  (1) 
231C73W7LG

>  <SYNONYMS>  (1) 
2'-Deoxy-2',2'-difluorocytidine 5'-(9E)-octadec-9-enoate; 5'-O-(TRANS-9''-OCTADECENOYL)-1-.BETA.-D-2'DEOXY-2',2'-DIFLUOROCYTIDINE; 5'-O-(trans-9"-octadecenoyl)-1-beta-D-2'deoxy-2',2'-difluorocytidine; Gemcitabine elaidate

$$$$
