N4T
     RDKit          2D

 26 29  0  0  0  0  0  0  0  0999 V2000
    1.0624   -2.6877    0.0000 C   0  0  0  0  0  0  0  0  0  0  0  0
    0.7269   -1.9341    0.0000 C   0  0  0  0  0  0  0  0  0  0  0  0
    1.2118   -1.2666    0.0000 C   0  0  0  0  0  0  0  0  0  0  0  0
    2.0323   -1.3529    0.0000 C   0  0  0  0  0  0  0  0  0  0  0  0
    2.3678   -2.1065    0.0000 C   0  0  0  0  0  0  0  0  0  0  0  0
    1.8829   -2.7740    0.0000 C   0  0  0  0  0  0  0  0  0  0  0  0
    0.8763   -0.5129    0.0000 C   0  0  0  0  0  0  0  0  0  0  0  0
    0.0693   -0.3414    0.0000 C   0  0  0  0  0  0  0  0  0  0  0  0
   -0.0170    0.4791    0.0000 N   0  0  0  0  0  0  0  0  0  0  0  0
    0.7367    0.8146    0.0000 C   0  0  0  0  0  0  0  0  0  0  0  0
    1.2888    0.2015    0.0000 C   0  0  0  0  0  0  0  0  0  0  0  0
    0.9082    1.6216    0.0000 C   0  0  0  0  0  0  0  0  0  0  0  0
    0.2952    2.1736    0.0000 C   0  0  0  0  0  0  0  0  0  0  0  0
    0.4667    2.9806    0.0000 C   0  0  0  0  0  0  0  0  0  0  0  0
    1.2513    3.2355    0.0000 C   0  0  0  0  0  0  0  0  0  0  0  0
    1.8644    2.6835    0.0000 C   0  0  0  0  0  0  0  0  0  0  0  0
    1.6929    1.8765    0.0000 C   0  0  0  0  0  0  0  0  0  0  0  0
   -0.7314    0.8916    0.0000 C   0  0  0  0  0  0  0  0  0  0  0  0
   -1.4459    0.4791    0.0000 C   0  0  0  0  0  0  0  0  0  0  0  0
   -1.4459   -0.3459    0.0000 C   0  0  0  0  0  0  0  0  0  0  0  0
    2.5172   -0.6854    0.0000 F   0  0  0  0  0  0  0  0  0  0  0  0
    0.5775   -3.3552    0.0000 F   0  0  0  0  0  0  0  0  0  0  0  0
   -0.7314    1.7166    0.0000 O   0  0  0  0  0  0  0  0  0  0  0  0
   -1.0334   -1.0604    0.0000 C   0  0  0  0  0  0  0  0  0  0  0  0
   -2.1604    0.8916    0.0000 N   0  0  0  0  0  0  0  0  0  0  0  0
   -1.8584   -1.0604    0.0000 C   0  0  0  0  0  0  0  0  0  0  0  0
  1  2  2  0
  1  6  1  0
  1 22  1  0
  2  3  1  0
  3  4  2  0
  3  7  1  0
  4  5  1  0
  4 21  1  0
  5  6  2  0
  7  8  1  0
  7 11  2  0
  8  9  1  0
  9 10  1  0
  9 18  1  0
 10 11  1  0
 10 12  1  6
 12 13  2  0
 12 17  1  0
 13 14  1  0
 14 15  2  0
 15 16  1  0
 16 17  2  0
 18 19  1  0
 18 23  2  0
 19 20  1  0
 19 25  1  6
 20 24  1  0
 20 26  1  0
 24 26  1  0
M  END
>  <DRUGBANK_ID>  (1) 
DB08244

>  <COMMON_NAME>  (1) 
(1S)-1-CYCLOPROPYL-2-[(2S)-4-(2,5-DIFLUOROPHENYL)-2-PHENYL-2,5-DIHYDRO-1H-PYRROL-1-YL]-2-OXOETHANAMINE

$$$$
