AAP
     RDKit          2D

 23 24  0  0  0  0  0  0  0  0999 V2000
    1.0631   -0.1060    0.0000 C   0  0  0  0  0  0  0  0  0  0  0  0
    0.3486   -0.5185    0.0000 C   0  0  0  0  0  0  0  0  0  0  0  0
    1.7776   -0.5185    0.0000 O   0  0  0  0  0  0  0  0  0  0  0  0
    1.0631    0.7190    0.0000 N   0  0  0  0  0  0  0  0  0  0  0  0
    0.3486   -1.3435    0.0000 C   0  0  0  0  0  0  0  0  0  0  0  0
    1.0631   -1.7560    0.0000 C   0  0  0  0  0  0  0  0  0  0  0  0
    1.0631   -2.5810    0.0000 C   0  0  0  0  0  0  0  0  0  0  0  0
    0.3486   -2.9935    0.0000 C   0  0  0  0  0  0  0  0  0  0  0  0
   -0.3658   -2.5810    0.0000 C   0  0  0  0  0  0  0  0  0  0  0  0
   -0.3658   -1.7560    0.0000 C   0  0  0  0  0  0  0  0  0  0  0  0
    1.7776   -1.3435    0.0000 Cl  0  0  0  0  0  0  0  0  0  0  0  0
   -1.0803   -1.3435    0.0000 Cl  0  0  0  0  0  0  0  0  0  0  0  0
   -0.3658   -0.1060    0.0000 N   0  0  0  0  0  0  0  0  0  0  0  0
   -0.3658    0.7190    0.0000 C   0  0  0  0  0  0  0  0  0  0  0  0
   -1.0803    1.1315    0.0000 C   0  0  0  0  0  0  0  0  0  0  0  0
   -1.0803    1.9565    0.0000 C   0  0  0  0  0  0  0  0  0  0  0  0
   -0.3658    2.3690    0.0000 C   0  0  0  0  0  0  0  0  0  0  0  0
    0.3486    1.9565    0.0000 C   0  0  0  0  0  0  0  0  0  0  0  0
    0.3486    1.1315    0.0000 C   0  0  0  0  0  0  0  0  0  0  0  0
   -1.7948    0.7190    0.0000 C   0  0  0  0  0  0  0  0  0  0  0  0
   -2.5093    1.1315    0.0000 O   0  0  0  0  0  0  0  0  0  0  0  0
   -1.7948   -0.1060    0.0000 C   0  0  0  0  0  0  0  0  0  0  0  0
    1.0631    2.3690    0.0000 C   0  0  0  0  0  0  0  0  0  0  0  0
  1  2  1  0
  1  3  2  0
  1  4  1  0
  2  5  1  0
  2 13  1  6
  5  6  2  0
  5 10  1  0
  6  7  1  0
  6 11  1  0
  7  8  2  0
  8  9  1  0
  9 10  2  0
 10 12  1  0
 13 14  1  0
 14 15  2  0
 14 19  1  0
 15 16  1  0
 15 20  1  0
 16 17  2  0
 17 18  1  0
 18 19  2  0
 18 23  1  0
 20 21  2  0
 20 22  1  0
M  END
>  <DRUGBANK_ID>  (1) 
DB07332

>  <COMMON_NAME>  (1) 
ALPHA-(2,6-DICHLOROPHENYL)-ALPHA-(2-ACETYL-5-METHYLANILINO)ACETAMIDE

$$$$
