TUN
     RDKit          2D

 11 10  0  0  0  0  0  0  0  0999 V2000
   -2.6431    0.1434    0.0000 C   0  0  0  0  0  0  0  0  0  0  0  0
   -1.8181    0.1434    0.0000 C   0  0  0  0  0  0  0  0  0  0  0  0
   -1.4056   -0.5711    0.0000 O   0  0  0  0  0  0  0  0  0  0  0  0
   -0.5806   -0.5711    0.0000 P   0  0  0  0  0  0  0  0  0  0  0  0
   -0.5806   -1.3961    0.0000 O   0  0  0  0  0  0  0  0  0  0  0  0
    0.2444   -0.5711    0.0000 N   0  0  0  0  0  0  0  0  0  0  0  0
    0.6569   -1.2855    0.0000 C   0  0  0  0  0  0  0  0  0  0  0  0
    1.4819   -1.2855    0.0000 C   0  0  0  0  0  0  0  0  0  0  0  0
    0.6569    0.1434    0.0000 C   0  0  0  0  0  0  0  0  0  0  0  0
    1.4819    0.1434    0.0000 C   0  0  0  0  0  0  0  0  0  0  0  0
   -0.5806    0.2539    0.0000 O   0  0  0  0  0  0  0  0  0  0  0  0
  1  2  1  0
  2  3  1  0
  3  4  1  0
  4  5  2  0
  4  6  1  0
  4 11  1  0
  6  7  1  0
  6  9  1  0
  7  8  1  0
  9 10  1  0
M  END
>  <DRUGBANK_ID>  (1) 
DB08658

>  <COMMON_NAME>  (1) 
Ethyl hydrogen diethylamidophosphate

$$$$
