
     RDKit          2D

 17 18  0  0  0  0  0  0  0  0999 V2000
    0.0000    0.2467    0.0000 C   0  0  0  0  0  0  0  0  0  0  0  0
   -0.7145    0.6592    0.0000 C   0  0  0  0  0  0  0  0  0  0  0  0
    0.7145    0.6592    0.0000 C   0  0  0  0  0  0  0  0  0  0  0  0
   -0.7145    1.4842    0.0000 C   0  0  0  0  0  0  0  0  0  0  0  0
   -1.4290    0.2467    0.0000 N   0  0  0  0  0  0  0  0  0  0  0  0
    1.4290    0.2467    0.0000 O   0  0  0  0  0  0  0  0  0  0  0  0
    0.7145    1.4842    0.0000 O   0  0  0  0  0  0  0  0  0  0  0  0
   -1.4290    1.8967    0.0000 C   0  0  0  0  0  0  0  0  0  0  0  0
   -2.1435    0.6592    0.0000 C   0  0  0  0  0  0  0  0  0  0  0  0
    2.1435    0.6592    0.0000 C   0  0  0  0  0  0  0  0  0  0  0  0
   -2.1435    1.4843    0.0000 C   0  0  0  0  0  0  0  0  0  0  0  0
    0.4125   -0.4676    0.0000 C   0  0  0  0  0  0  0  0  0  0  0  0
    1.2374   -0.4677    0.0000 C   0  0  0  0  0  0  0  0  0  0  0  0
    0.0000   -1.1822    0.0000 C   0  0  0  0  0  0  0  0  0  0  0  0
    1.6499   -1.1822    0.0000 C   0  0  0  0  0  0  0  0  0  0  0  0
    0.4124   -1.8966    0.0000 C   0  0  0  0  0  0  0  0  0  0  0  0
    1.2374   -1.8967    0.0000 C   0  0  0  0  0  0  0  0  0  0  0  0
  1  2  1  0
  1  3  1  6
  2  4  1  6
  2  5  1  0
  3  6  1  0
  3  7  2  0
  4  8  1  0
  5  9  1  0
  6 10  1  0
  8 11  1  0
  9 11  1  0
 12  1  1  0
 13 12  2  0
 14 12  1  0
 15 13  1  0
 16 14  2  0
 17 15  2  0
 17 16  1  0
M  END
>  <DRUGBANK_ID>  (1) 
DB06701

>  <COMMON_NAME>  (1) 
Dexmethylphenidate

>  <CAS_NUMBER>  (1) 
40431-64-9

>  <UNII>  (1) 
M32RH9MFGP

>  <SYNONYMS>  (1) 
(+)-threo-methylphenidate; d-threo-methylphenidate; D-TMP; Dexméthylphénidate; Dexmethylphenidate; Dexmethylphenidatum; Dexmetilfenidato; methyl (R)-phenyl[(R)-piperidin-2-yl]acetate

$$$$
