
     RDKit          2D

 24 25  0  0  1  0  0  0  0  0999 V2000
    0.5435   -7.6496    0.0000 C   0  0  0  0  0  0  0  0  0  0  0  0
    1.0856   -7.0276    0.0000 C   0  0  0  0  0  0  0  0  0  0  0  0
    0.8179   -6.2472    0.0000 C   0  0  0  0  0  0  0  0  0  0  0  0
    1.3600   -5.6253    0.0000 C   0  0  0  0  0  0  0  0  0  0  0  0
    1.0923   -4.8449    0.0000 C   0  0  0  0  0  0  0  0  0  0  0  0
    1.6343   -4.2229    0.0000 C   0  0  0  0  0  0  0  0  0  0  0  0
    3.6950   -0.1221    0.0000 C   0  0  0  0  0  0  0  0  0  0  0  0
    4.3004   -0.6826    0.0000 C   0  0  0  0  0  0  0  0  0  0  0  0
    1.3667   -3.4425    0.0000 C   0  0  0  0  0  0  0  0  0  0  0  0
    2.9069   -0.3662    0.0000 C   0  0  0  0  0  0  0  0  0  0  0  0
    5.0885   -0.4385    0.0000 C   0  0  0  0  0  0  0  0  0  0  0  0
    1.9087   -2.8206    0.0000 C   0  0  0  0  0  0  0  0  0  0  0  0
    2.7243   -1.1707    0.0000 C   0  0  0  0  0  0  0  0  0  0  0  0
    5.2712    0.3660    0.0000 C   0  0  0  0  0  0  0  0  0  0  0  0
    0.9807   -0.1341    0.0000 C   0  0  0  0  0  0  0  0  0  0  0  0
    1.6411   -2.0402    0.0000 C   0  0  0  0  0  0  0  0  0  0  0  0
    1.9362   -1.4148    0.0000 C   0  0  0  0  0  0  0  0  0  0  0  0
    0.9106   -1.6699    0.0000 C   0  0  0  0  0  0  0  0  0  0  0  0
    1.1407   -0.9495    0.0000 C   0  0  0  0  0  0  0  0  0  0  0  0
    6.0592    0.6100    0.0000 C   0  0  0  0  0  0  0  0  0  0  0  0
    0.1351   -2.0602    0.0000 N   0  0  0  0  0  0  0  0  0  0  0  0
    0.5004   -1.3997    0.0000 N   0  0  0  0  0  0  0  0  0  0  0  0
    6.2419    1.4146    0.0000 O   0  0  0  0  0  0  0  0  0  0  0  0
    6.6646    0.0496    0.0000 O   0  0  0  0  0  0  0  0  0  0  0  0
  2  1  1  0
  3  2  1  0
  4  3  1  0
  5  4  1  0
  6  5  1  0
  8  7  1  0
  9  6  1  0
 10  7  2  0
 11  8  1  0
 12  9  2  0
 13 10  1  0
 14 11  1  0
 16 12  1  1
 17 13  1  6
 17 16  1  0
 18 15  1  0
 18 16  1  0
 19 15  1  0
 19 17  1  0
 20 14  1  0
 18 21  1  6
 19 22  1  1
 22 21  2  0
 23 20  2  0
 24 20  1  0
M  END
>  <DRUGBANK_ID>  (1) 
DB08675

>  <COMMON_NAME>  (1) 
(5Z)-7-{(1R,4S,5R,6R)-6-[(1E)-1-Octen-1-yl]-2,3-diazabicyclo[2.2.1]hept-2-en-5-yl}-5-heptenoic acid

$$$$
