
     RDKit          2D

 10  9  0  0  0  0  0  0  0  0999 V2000
    0.0040    0.2353    0.0000 C   0  0  0  0  0  0  0  0  0  0  0  0
   -0.6873   -0.2311    0.0000 C   0  0  0  0  0  0  0  0  0  0  0  0
    0.6914   -0.2478    0.0000 C   0  0  0  0  0  0  0  0  0  0  0  0
   -2.0246   -0.2227    0.0000 O   0  0  0  0  0  0  0  0  0  0  0  0
   -1.3414    0.2478    0.0000 C   0  0  0  0  0  0  0  0  0  0  0  0
    0.0083    1.0560    0.0000 O   0  0  0  0  0  0  0  0  0  0  0  0
   -0.6998   -1.0561    0.0000 O   0  0  0  0  0  0  0  0  0  0  0  0
    0.6956   -1.0727    0.0000 O   0  0  0  0  0  0  0  0  0  0  0  0
    2.0246   -0.2478    0.0000 O   0  0  0  0  0  0  0  0  0  0  0  0
    1.3414    0.2227    0.0000 C   0  0  0  0  0  0  0  0  0  0  0  0
  1  6  1  1
  2  1  1  0
  2  7  1  1
  3  1  1  0
  3  8  1  6
  4  5  2  0
  5  2  1  0
  9 10  1  0
 10  3  1  0
M  END
>  <DRUGBANK_ID>  (1) 
DB16873

>  <COMMON_NAME>  (1) 
L-Arabinose

>  <CAS_NUMBER>  (1) 
5328-37-0

>  <UNII>  (1) 
B40ROO395Z

>  <SYNONYMS>  (1) 
Arabinose, L-; Pectinose

$$$$
