
     RDKit          2D

 13 13  0  0  1  0  0  0  0  0999 V2000
    2.3907    0.2063    0.0000 C   0  0  0  0  0  0  0  0  0  0  0  0
    1.6763    0.6188    0.0000 O   0  0  0  0  0  0  0  0  0  0  0  0
    0.9618    0.2063    0.0000 C   0  0  0  0  0  0  0  0  0  0  0  0
    0.2473    0.6188    0.0000 O   0  0  0  0  0  0  0  0  0  0  0  0
   -0.4672    0.2063    0.0000 C   0  0  0  0  0  0  0  0  0  0  0  0
   -1.1816    0.6188    0.0000 C   0  0  0  0  0  0  0  0  0  0  0  0
   -1.1816    1.4438    0.0000 O   0  0  0  0  0  0  0  0  0  0  0  0
   -0.4672   -0.6187    0.0000 C   0  0  0  0  0  0  0  0  0  0  0  0
   -1.1816   -1.0312    0.0000 O   0  0  0  0  0  0  0  0  0  0  0  0
    0.2473   -1.0312    0.0000 C   0  0  0  0  0  0  0  0  0  0  0  0
    0.2473   -1.8562    0.0000 O   0  0  0  0  0  0  0  0  0  0  0  0
    0.9618   -0.6187    0.0000 C   0  0  0  0  0  0  0  0  0  0  0  0
    1.6763   -1.0312    0.0000 O   0  0  0  0  0  0  0  0  0  0  0  0
  1  2  1  0
  3  2  1  1
  3  4  1  0
  3 12  1  0
  4  5  1  0
  5  6  1  1
  5  8  1  0
  6  7  1  0
  8  9  1  1
  8 10  1  0
 10 11  1  1
 10 12  1  0
 12 13  1  6
M  END
>  <DRUGBANK_ID>  (1) 
DB04046

>  <SECONDARY_ACCESSION_NUMBERS>  (1) 
EXPT02122; DB03324

>  <COMMON_NAME>  (1) 
Methyl beta-galactoside

>  <UNII>  (1) 
64RYD088RJ

$$$$
