BDL
     RDKit          2D

 24 25  0  0  0  0  0  0  0  0999 V2000
   -0.6192   -0.8120    0.0000 O   0  0  0  0  0  0  0  0  0  0  0  0
   -1.3337   -0.3995    0.0000 C   0  0  0  0  0  0  0  0  0  0  0  0
   -2.0481   -0.8120    0.0000 O   0  0  0  0  0  0  0  0  0  0  0  0
   -1.3337    0.4255    0.0000 C   0  0  0  0  0  0  0  0  0  0  0  0
   -2.0481    0.8380    0.0000 C   0  0  0  0  0  0  0  0  0  0  0  0
   -2.7626    0.4255    0.0000 C   0  0  0  0  0  0  0  0  0  0  0  0
   -3.4771    0.8380    0.0000 C   0  0  0  0  0  0  0  0  0  0  0  0
   -2.7626   -0.3995    0.0000 C   0  0  0  0  0  0  0  0  0  0  0  0
   -0.6192    0.8380    0.0000 N   0  0  0  0  0  0  0  0  0  0  0  0
    0.0953    0.4255    0.0000 S   0  0  0  0  0  0  0  0  0  0  0  0
   -0.3172   -0.2889    0.0000 O   0  0  0  0  0  0  0  0  0  0  0  0
    0.5078    1.1400    0.0000 O   0  0  0  0  0  0  0  0  0  0  0  0
    0.8098    0.0130    0.0000 C   0  0  0  0  0  0  0  0  0  0  0  0
    1.5242    0.4255    0.0000 C   0  0  0  0  0  0  0  0  0  0  0  0
    2.2387    0.0130    0.0000 C   0  0  0  0  0  0  0  0  0  0  0  0
    0.8098   -0.8120    0.0000 C   0  0  0  0  0  0  0  0  0  0  0  0
    1.5242   -1.2245    0.0000 C   0  0  0  0  0  0  0  0  0  0  0  0
    2.2387   -0.8120    0.0000 C   0  0  0  0  0  0  0  0  0  0  0  0
    2.9532   -1.2245    0.0000 C   0  0  0  0  0  0  0  0  0  0  0  0
    3.6676   -0.8120    0.0000 C   0  0  0  0  0  0  0  0  0  0  0  0
    4.3821   -1.2245    0.0000 C   0  0  0  0  0  0  0  0  0  0  0  0
    4.3821   -2.0495    0.0000 C   0  0  0  0  0  0  0  0  0  0  0  0
    3.6676   -2.4620    0.0000 C   0  0  0  0  0  0  0  0  0  0  0  0
    2.9532   -2.0495    0.0000 C   0  0  0  0  0  0  0  0  0  0  0  0
  1  2  2  0
  2  3  1  0
  2  4  1  0
  4  5  1  1
  4  9  1  0
  5  6  1  0
  6  7  1  0
  6  8  1  0
  9 10  1  0
 10 11  2  0
 10 12  2  0
 10 13  1  0
 13 14  2  0
 13 16  1  0
 14 15  1  0
 15 18  2  0
 16 17  2  0
 17 18  1  0
 18 19  1  0
 19 20  2  0
 19 24  1  0
 20 21  1  0
 21 22  2  0
 22 23  1  0
 23 24  2  0
M  END
>  <DRUGBANK_ID>  (1) 
DB07446

>  <COMMON_NAME>  (1) 
N-(biphenyl-4-ylsulfonyl)-D-leucine

$$$$
