
     RDKit          2D

 23 26  0  0  0  0  0  0  0  0999 V2000
   -2.7795    1.2918    0.0000 C   0  0  0  0  0  0  0  0  0  0  0  0
   -2.1382    1.9754    0.0000 C   0  0  0  0  0  0  0  0  0  0  0  0
   -1.9750    1.5168    0.0000 C   0  0  0  0  0  0  0  0  0  0  0  0
   -1.4269    1.7128    0.0000 C   0  0  0  0  0  0  0  0  0  0  0  0
   -1.2223    1.2140    0.0000 C   0  0  0  0  0  0  0  0  0  0  0  0
   -0.6790    1.8983    0.0000 C   0  0  0  0  0  0  0  0  0  0  0  0
   -1.9777    2.3693    0.0000 C   0  0  0  0  0  0  0  0  0  0  0  0
   -1.4211    3.0272    0.0000 C   0  0  0  0  0  0  0  0  0  0  0  0
   -2.1427    2.7708    0.0000 C   0  0  0  0  0  0  0  0  0  0  0  0
   -0.6732    2.7172    0.0000 C   0  0  0  0  0  0  0  0  0  0  0  0
    0.1452    1.9309    0.0000 N   0  0  0  0  0  0  0  0  0  0  0  0
    0.5856    1.2333    0.0000 C   0  0  0  0  0  0  0  0  0  0  0  0
    1.4100    1.2659    0.0000 O   0  0  0  0  0  0  0  0  0  0  0  0
    0.2007    0.5016    0.0000 N   0  0  0  0  0  0  0  0  0  0  0  0
    0.6409   -0.1960    0.0000 C   0  0  0  0  0  0  0  0  0  0  0  0
    0.2559   -0.9316    0.0000 C   0  0  0  0  0  0  0  0  0  0  0  0
    0.6926   -1.6273    0.0000 C   0  0  0  0  0  0  0  0  0  0  0  0
    1.5174   -1.5992    0.0000 N   0  0  0  0  0  0  0  0  0  0  0  0
    1.9038   -0.8691    0.0000 C   0  0  0  0  0  0  0  0  0  0  0  0
    1.4653   -0.1672    0.0000 C   0  0  0  0  0  0  0  0  0  0  0  0
    1.9550   -2.2986    0.0000 C   0  0  0  0  0  0  0  0  0  0  0  0
    1.5681   -3.0272    0.0000 C   0  0  0  0  0  0  0  0  0  0  0  0
    2.7795   -2.2693    0.0000 O   0  0  0  0  0  0  0  0  0  0  0  0
  1  2  1  0
  1  3  1  0
  2  4  1  0
  2  9  1  0
  3  5  1  0
  3  7  1  0
  4  6  1  0
  5  6  1  0
  6 11  1  0
  6 10  1  0
  7  8  1  0
  8  9  1  0
 10  8  1  0
 11 12  1  0
 12 13  2  0
 12 14  1  0
 14 15  1  0
 15 16  1  0
 15 20  1  0
 16 17  1  0
 17 18  1  0
 18 19  1  0
 18 21  1  0
 19 20  1  0
 21 22  1  0
 21 23  2  0
M  END
>  <DRUGBANK_ID>  (1) 
DB06345

>  <COMMON_NAME>  (1) 
AR-9281

>  <CAS_NUMBER>  (1) 
913548-29-5

>  <UNII>  (1) 
4HA03Q8EZ9

>  <SYNONYMS>  (1) 
APAU

$$$$
