
     RDKit          2D

 33 35  0  0  1  0  0  0  0  0999 V2000
    1.9520    2.5559    0.0000 C   0  0  0  0  0  0  0  0  0  0  0  0
    2.3645    1.8414    0.0000 O   0  0  0  0  0  0  0  0  0  0  0  0
    1.9520    1.1270    0.0000 C   0  0  0  0  0  0  0  0  0  0  0  0
    2.3645    0.4125    0.0000 C   0  0  0  0  0  0  0  0  0  0  0  0
    1.9520   -0.3020    0.0000 C   0  0  0  0  0  0  0  0  0  0  0  0
    1.1270   -0.3020    0.0000 C   0  0  0  0  0  0  0  0  0  0  0  0
    0.7145    0.4125    0.0000 C   0  0  0  0  0  0  0  0  0  0  0  0
   -0.0000    0.0000    0.0000 C   0  0  0  0  0  0  0  0  0  0  0  0
    0.0000    0.8250    0.0000 O   0  0  0  0  0  0  0  0  0  0  0  0
    1.1270    1.1270    0.0000 C   0  0  0  0  0  0  0  0  0  0  0  0
    0.7145    1.8414    0.0000 C   0  0  0  0  0  0  0  0  0  0  0  0
    1.3465    2.3717    0.0000 C   0  0  0  0  0  0  0  0  0  0  0  0
   -0.0608    1.5593    0.0000 O   0  0  0  0  0  0  0  0  0  0  0  0
    0.0825    2.3717    0.0000 C   0  0  0  0  0  0  0  0  0  0  0  0
   -0.1997    3.1470    0.0000 C   0  0  0  0  0  0  0  0  0  0  0  0
   -1.0121    3.2902    0.0000 C   0  0  0  0  0  0  0  0  0  0  0  0
   -1.2943    4.0655    0.0000 C   0  0  0  0  0  0  0  0  0  0  0  0
   -2.1068    4.2088    0.0000 C   0  0  0  0  0  0  0  0  0  0  0  0
   -0.7640    4.6975    0.0000 C   0  0  0  0  0  0  0  0  0  0  0  0
    3.1895    0.4125    0.0000 O   0  0  0  0  0  0  0  0  0  0  0  0
    3.6020   -0.3020    0.0000 C   0  0  0  0  0  0  0  0  0  0  0  0
    3.1895   -1.0164    0.0000 O   0  0  0  0  0  0  0  0  0  0  0  0
    4.4270   -0.3020    0.0000 C   0  0  0  0  0  0  0  0  0  0  0  0
    4.8395   -1.0164    0.0000 C   0  0  0  0  0  0  0  0  0  0  0  0
    5.6645   -1.0164    0.0000 C   0  0  0  0  0  0  0  0  0  0  0  0
    6.0770   -1.7309    0.0000 C   0  0  0  0  0  0  0  0  0  0  0  0
    6.9020   -1.7309    0.0000 C   0  0  0  0  0  0  0  0  0  0  0  0
    7.3145   -2.4454    0.0000 C   0  0  0  0  0  0  0  0  0  0  0  0
    8.1395   -2.4454    0.0000 C   0  0  0  0  0  0  0  0  0  0  0  0
    8.5520   -3.1599    0.0000 C   0  0  0  0  0  0  0  0  0  0  0  0
    9.3770   -3.1599    0.0000 C   0  0  0  0  0  0  0  0  0  0  0  0
    9.7895   -2.4454    0.0000 O   0  0  0  0  0  0  0  0  0  0  0  0
    9.7895   -3.8743    0.0000 O   0  0  0  0  0  0  0  0  0  0  0  0
  1  2  1  0
  3  2  1  6
  3  4  1  0
  3 10  1  0
  4  5  1  0
  4 20  1  6
  5  6  1  0
  7  6  1  1
  7  8  1  0
  7  9  1  0
 10  7  1  1
  8  9  1  0
 10 11  1  0
 11 12  1  6
 11 13  1  0
 11 14  1  0
 13 14  1  0
 14 15  1  6
 15 16  1  0
 16 17  2  3
 17 18  1  0
 17 19  1  0
 20 21  1  0
 21 22  2  0
 21 23  1  0
 23 24  2  0
 24 25  1  0
 25 26  2  0
 26 27  1  0
 27 28  2  0
 28 29  1  0
 29 30  2  0
 30 31  1  0
 31 32  1  0
 31 33  2  0
M  END
>  <DRUGBANK_ID>  (1) 
DB02640

>  <SECONDARY_ACCESSION_NUMBERS>  (1) 
EXPT01509

>  <COMMON_NAME>  (1) 
Fumagillin

>  <CAS_NUMBER>  (1) 
23110-15-8

>  <UNII>  (1) 
7OW73204U1

>  <SYNONYMS>  (1) 
fumagilina; Fumagillin

$$$$
