
     RDKit          2D

 26 29  0  0  0  0  0  0  0  0999 V2000
    0.7214   -0.1600    0.0000 C   0  0  0  0  0  0  0  0  0  0  0  0
    0.0003    0.2409    0.0000 C   0  0  0  0  0  0  0  0  0  0  0  0
    0.0003    1.0421    0.0000 C   0  0  0  0  0  0  0  0  0  0  0  0
    0.7214    1.4430    0.0000 C   0  0  0  0  0  0  0  0  0  0  0  0
    1.4430    1.0421    0.0000 C   0  0  0  0  0  0  0  0  0  0  0  0
    1.4430    0.2409    0.0000 C   0  0  0  0  0  0  0  0  0  0  0  0
    2.1647   -0.1600    0.0000 F   0  0  0  0  0  0  0  0  0  0  0  0
    1.4430    2.6458    0.0000 O   0  0  0  0  0  0  0  0  0  0  0  0
    0.7214    2.2449    0.0000 C   0  0  0  0  0  0  0  0  0  0  0  0
    0.0003    2.6458    0.0000 C   0  0  0  0  0  0  0  0  0  0  0  0
   -0.7214    2.2449    0.0000 C   0  0  0  0  0  0  0  0  0  0  0  0
   -0.7214    1.4430    0.0000 N   0  0  0  0  0  0  0  0  0  0  0  0
   -0.7214    3.8487    0.0000 O   0  0  0  0  0  0  0  0  0  0  0  0
    0.0003    3.4478    0.0000 C   0  0  0  0  0  0  0  0  0  0  0  0
    0.7214    3.8487    0.0000 O   0  0  0  0  0  0  0  0  0  0  0  0
    1.4430   -3.8487    0.0000 C   0  0  0  0  0  0  0  0  0  0  0  0
    0.7214   -3.4478    0.0000 C   0  0  0  0  0  0  0  0  0  0  0  0
   -1.3629    1.0421    0.0000 C   0  0  0  0  0  0  0  0  0  0  0  0
   -2.1647    1.0421    0.0000 C   0  0  0  0  0  0  0  0  0  0  0  0
   -1.7638    0.3211    0.0000 C   0  0  0  0  0  0  0  0  0  0  0  0
    1.4430   -1.4430    0.0000 C   0  0  0  0  0  0  0  0  0  0  0  0
    1.4430   -2.2449    0.0000 C   0  0  0  0  0  0  0  0  0  0  0  0
    0.7214   -2.6458    0.0000 N   0  0  0  0  0  0  0  0  0  0  0  0
    0.0003   -2.2449    0.0000 C   0  0  0  0  0  0  0  0  0  0  0  0
    0.0003   -1.4430    0.0000 C   0  0  0  0  0  0  0  0  0  0  0  0
    0.7214   -1.0421    0.0000 N   0  0  0  0  0  0  0  0  0  0  0  0
  1  2  2  0
  1  6  1  0
  1 26  1  0
  2  3  1  0
  3  4  2  0
  3 12  1  0
  4  5  1  0
  4  9  1  0
  5  6  2  0
  6  7  1  0
  8  9  2  0
  9 10  1  0
 10 11  2  0
 10 14  1  0
 11 12  1  0
 12 18  1  0
 13 14  2  0
 14 15  1  0
 16 17  1  0
 17 23  1  0
 18 19  1  0
 18 20  1  0
 19 20  1  0
 21 22  1  0
 21 26  1  0
 22 23  1  0
 23 24  1  0
 24 25  1  0
 25 26  1  0
M  END
>  <DRUGBANK_ID>  (1) 
DB11404

>  <COMMON_NAME>  (1) 
Enrofloxacin

>  <CAS_NUMBER>  (1) 
93106-60-6

>  <UNII>  (1) 
3DX3XEK1BN

>  <SYNONYMS>  (1) 
Enrofloxacin; Enrofloxacine; Enrofloxacino; Enrofloxacinum

$$$$
