
     RDKit          2D

 30 33  0  0  0  0  0  0  0  0999 V2000
    6.4235   -1.0837    0.0000 C   0  0  0  0  0  0  0  0  0  0  0  0
    5.6165   -1.2553    0.0000 C   0  0  0  0  0  0  0  0  0  0  0  0
    5.3615   -2.0399    0.0000 C   0  0  0  0  0  0  0  0  0  0  0  0
    5.0645   -0.6422    0.0000 O   0  0  0  0  0  0  0  0  0  0  0  0
    4.2575   -0.8137    0.0000 C   0  0  0  0  0  0  0  0  0  0  0  0
    4.0025   -1.5983    0.0000 O   0  0  0  0  0  0  0  0  0  0  0  0
    3.7054   -0.2006    0.0000 C   0  0  0  0  0  0  0  0  0  0  0  0
    2.8985   -0.3721    0.0000 C   0  0  0  0  0  0  0  0  0  0  0  0
    2.3464    0.2410    0.0000 C   0  0  0  0  0  0  0  0  0  0  0  0
    2.6014    1.0256    0.0000 C   0  0  0  0  0  0  0  0  0  0  0  0
    3.4084    1.1971    0.0000 C   0  0  0  0  0  0  0  0  0  0  0  0
    3.9604    0.5840    0.0000 N   0  0  0  0  0  0  0  0  0  0  0  0
    1.9339    1.5105    0.0000 N   0  0  0  0  0  0  0  0  0  0  0  0
    1.2665    1.0256    0.0000 C   0  0  0  0  0  0  0  0  0  0  0  0
    1.5214    0.2410    0.0000 C   0  0  0  0  0  0  0  0  0  0  0  0
    0.9694   -0.3721    0.0000 C   0  0  0  0  0  0  0  0  0  0  0  0
    0.1624   -0.2006    0.0000 C   0  0  0  0  0  0  0  0  0  0  0  0
   -0.0925    0.5840    0.0000 C   0  0  0  0  0  0  0  0  0  0  0  0
    0.4595    1.1971    0.0000 C   0  0  0  0  0  0  0  0  0  0  0  0
    1.2243   -1.1567    0.0000 O   0  0  0  0  0  0  0  0  0  0  0  0
    0.6723   -1.7698    0.0000 C   0  0  0  0  0  0  0  0  0  0  0  0
    0.9273   -2.5545    0.0000 C   0  0  0  0  0  0  0  0  0  0  0  0
    0.3752   -3.1676    0.0000 C   0  0  0  0  0  0  0  0  0  0  0  0
   -0.4317   -2.9960    0.0000 C   0  0  0  0  0  0  0  0  0  0  0  0
   -0.6867   -2.2114    0.0000 C   0  0  0  0  0  0  0  0  0  0  0  0
   -0.1347   -1.5983    0.0000 C   0  0  0  0  0  0  0  0  0  0  0  0
   -0.9838   -3.6091    0.0000 Cl  0  0  0  0  0  0  0  0  0  0  0  0
    2.6435   -1.1567    0.0000 C   0  0  0  0  0  0  0  0  0  0  0  0
    3.1956   -1.7698    0.0000 O   0  0  0  0  0  0  0  0  0  0  0  0
    2.9406   -2.5545    0.0000 C   0  0  0  0  0  0  0  0  0  0  0  0
  1  2  1  0
  2  3  1  0
  2  4  1  0
  4  5  1  0
  5  6  2  0
  5  7  1  0
  7  8  2  0
  7 12  1  0
  8  9  1  0
  8 28  1  0
  9 10  2  0
  9 15  1  0
 10 11  1  0
 10 13  1  0
 11 12  2  0
 13 14  1  0
 14 15  2  0
 14 19  1  0
 15 16  1  0
 16 17  2  0
 16 20  1  0
 17 18  1  0
 18 19  2  0
 20 21  1  0
 21 22  2  0
 21 26  1  0
 22 23  1  0
 23 24  2  0
 24 25  1  0
 24 27  1  0
 25 26  2  0
 28 29  1  0
 29 30  1  0
M  END
>  <DRUGBANK_ID>  (1) 
DB13534

>  <COMMON_NAME>  (1) 
Gedocarnil

>  <CAS_NUMBER>  (1) 
109623-97-4

>  <UNII>  (1) 
BWP53NPW3F

>  <SYNONYMS>  (1) 
Gedocarnil

$$$$
