
     RDKit          2D

 20 23  0  0  0  0  0  0  0  0999 V2000
   -1.4306    0.0304    0.0000 O   0  0  0  0  0  0  0  0  0  0  0  0
    1.1491    2.0242    0.0000 N   0  0  0  0  0  0  0  0  0  0  0  0
   -0.0837   -0.4109    0.0000 N   0  0  0  0  0  0  0  0  0  0  0  0
   -0.6621   -2.0242    0.0000 N   0  0  0  0  0  0  0  0  0  0  0  0
   -1.1414   -2.6864    0.0000 N   0  0  0  0  0  0  0  0  0  0  0  0
    1.5220    1.2861    0.0000 C   0  0  0  0  0  0  0  0  0  0  0  0
    0.1750    0.3653    0.0000 C   0  0  0  0  0  0  0  0  0  0  0  0
    2.0014    2.9146    0.0000 C   0  0  0  0  0  0  0  0  0  0  0  0
    3.0821    0.7762    0.0000 C   0  0  0  0  0  0  0  0  0  0  0  0
   -0.1979    1.1034    0.0000 C   0  0  0  0  0  0  0  0  0  0  0  0
    1.2176    3.1733    0.0000 C   0  0  0  0  0  0  0  0  0  0  0  0
    3.3408    1.5600    0.0000 C   0  0  0  0  0  0  0  0  0  0  0  0
   -0.8827   -0.5783    0.0000 C   0  0  0  0  0  0  0  0  0  0  0  0
   -1.1414   -1.3621    0.0000 C   0  0  0  0  0  0  0  0  0  0  0  0
   -1.9177   -1.6133    0.0000 C   0  0  0  0  0  0  0  0  0  0  0  0
   -1.9177   -2.4352    0.0000 C   0  0  0  0  0  0  0  0  0  0  0  0
   -2.6255   -1.2023    0.0000 C   0  0  0  0  0  0  0  0  0  0  0  0
   -2.6255   -2.8461    0.0000 C   0  0  0  0  0  0  0  0  0  0  0  0
   -3.3408   -1.6133    0.0000 C   0  0  0  0  0  0  0  0  0  0  0  0
   -3.3408   -2.4352    0.0000 C   0  0  0  0  0  0  0  0  0  0  0  0
  1 13  2  0
  2 10  1  0
  2 11  1  0
  2 12  1  0
  3 13  1  0
  4  5  1  0
  4 14  2  0
  5 16  1  0
  6  7  1  0
  6  8  1  0
  6  9  1  0
  7  3  1  6
  7 10  1  0
  8 11  1  0
  9 12  1  0
 13 14  1  0
 14 15  1  0
 15 16  2  0
 15 17  1  0
 16 18  1  0
 17 19  2  0
 18 20  2  0
 19 20  1  0
M  END
>  <DRUGBANK_ID>  (1) 
DB05586

>  <COMMON_NAME>  (1) 
Facinicline

>  <CAS_NUMBER>  (1) 
677306-35-3

>  <UNII>  (1) 
6A6FX0J03K

>  <SYNONYMS>  (1) 
Facinicline

$$$$
