
     RDKit          2D

 31 34  0  0  0  0  0  0  0  0999 V2000
    1.2362    1.3151    0.0000 S   0  0  0  0  0  0  0  0  0  0  0  0
    0.6675    1.6500    0.0000 C   0  0  0  0  0  0  0  0  0  0  0  0
   -0.0506    1.2432    0.0000 N   0  0  0  0  0  0  0  0  0  0  0  0
   -0.0580    0.4178    0.0000 C   0  0  0  0  0  0  0  0  0  0  0  0
   -0.7753    0.0103    0.0000 C   0  0  0  0  0  0  0  0  0  0  0  0
   -0.7810   -0.8146    0.0000 C   0  0  0  0  0  0  0  0  0  0  0  0
   -1.5946   -0.9540    0.0000 C   0  0  0  0  0  0  0  0  0  0  0  0
   -2.1226   -0.3195    0.0000 O   0  0  0  0  0  0  0  0  0  0  0  0
   -1.8231   -1.5732    0.0000 O   0  0  0  0  0  0  0  0  0  0  0  0
    0.6535    0.0004    0.0000 C   0  0  0  0  0  0  0  0  0  0  0  0
    0.6477   -0.8245    0.0000 C   0  0  0  0  0  0  0  0  0  0  0  0
   -0.0695   -1.2320    0.0000 C   0  0  0  0  0  0  0  0  0  0  0  0
   -0.0720   -2.0575    0.0000 C   0  0  0  0  0  0  0  0  0  0  0  0
   -0.7864   -2.4700    0.0000 C   0  0  0  0  0  0  0  0  0  0  0  0
   -0.7864   -3.2951    0.0000 C   0  0  0  0  0  0  0  0  0  0  0  0
   -0.0720   -3.7077    0.0000 O   0  0  0  0  0  0  0  0  0  0  0  0
   -1.5009   -3.7077    0.0000 C   0  0  0  0  0  0  0  0  0  0  0  0
   -1.5009   -2.0575    0.0000 C   0  0  0  0  0  0  0  0  0  0  0  0
   -2.2152   -2.4700    0.0000 C   0  0  0  0  0  0  0  0  0  0  0  0
   -2.2152   -3.2951    0.0000 C   0  0  0  0  0  0  0  0  0  0  0  0
   -2.7868   -3.6251    0.0000 O   0  0  0  0  0  0  0  0  0  0  0  0
    0.6322   -2.4700    0.0000 C   0  0  0  0  0  0  0  0  0  0  0  0
    0.6322   -3.2951    0.0000 C   0  0  0  0  0  0  0  0  0  0  0  0
    1.3567   -3.7077    0.0000 C   0  0  0  0  0  0  0  0  0  0  0  0
    1.3567   -2.0575    0.0000 C   0  0  0  0  0  0  0  0  0  0  0  0
    2.0712   -2.4700    0.0000 C   0  0  0  0  0  0  0  0  0  0  0  0
    2.0712   -3.2951    0.0000 C   0  0  0  0  0  0  0  0  0  0  0  0
    2.7868   -3.7063    0.0000 O   0  0  0  0  0  0  0  0  0  0  0  0
    0.6749    2.4755    0.0000 N   0  0  0  0  0  0  0  0  0  0  0  0
    1.3932    2.8822    0.0000 C   0  0  0  0  0  0  0  0  0  0  0  0
    1.4006    3.7077    0.0000 C   0  0  0  0  0  0  0  0  0  0  0  0
  2  1  2  0
  2 29  1  0
  2  3  1  0
  4  3  1  0
  4  5  2  0
  5  6  1  0
  6  7  1  0
  7  8  1  0
  7  9  2  0
 10  4  1  0
 11 10  2  0
 12  6  2  0
 12 11  1  0
 13 12  1  0
 13 14  2  0
 13 22  1  0
 15 14  1  0
 15 16  1  0
 15 17  2  0
 17 20  1  0
 18 14  1  0
 19 18  2  0
 20 19  1  0
 20 21  2  0
 22 23  2  0
 22 25  1  0
 23 16  1  0
 24 23  1  0
 25 26  2  0
 27 24  2  0
 27 26  1  0
 27 28  1  0
 30 29  1  0
 30 31  1  0
M  END
>  <DRUGBANK_ID>  (1) 
DB02455

>  <SECONDARY_ACCESSION_NUMBERS>  (1) 
EXPT01443

>  <COMMON_NAME>  (1) 
Fluoresceinylthioureido

$$$$
