1HP
     RDKit          2D

 18 20  0  0  0  0  0  0  0  0999 V2000
   -0.3099    0.1356    0.0000 C   0  0  0  0  0  0  0  0  0  0  0  0
   -1.0244    0.5481    0.0000 C   0  0  0  0  0  0  0  0  0  0  0  0
   -1.8090    0.2931    0.0000 N   0  0  0  0  0  0  0  0  0  0  0  0
   -2.0639   -0.4915    0.0000 C   0  0  0  0  0  0  0  0  0  0  0  0
   -2.2939    0.9606    0.0000 C   0  0  0  0  0  0  0  0  0  0  0  0
   -3.1189    0.9606    0.0000 N   0  0  0  0  0  0  0  0  0  0  0  0
   -1.8090    1.6280    0.0000 N   0  0  0  0  0  0  0  0  0  0  0  0
   -1.0244    1.3731    0.0000 C   0  0  0  0  0  0  0  0  0  0  0  0
   -0.3099    1.7856    0.0000 N   0  0  0  0  0  0  0  0  0  0  0  0
    0.4046    1.3731    0.0000 C   0  0  0  0  0  0  0  0  0  0  0  0
    0.4046    0.5481    0.0000 C   0  0  0  0  0  0  0  0  0  0  0  0
    1.1191    0.1356    0.0000 C   0  0  0  0  0  0  0  0  0  0  0  0
    1.1191   -0.6894    0.0000 C   0  0  0  0  0  0  0  0  0  0  0  0
    1.8335   -1.1019    0.0000 C   0  0  0  0  0  0  0  0  0  0  0  0
    2.5480   -0.6894    0.0000 C   0  0  0  0  0  0  0  0  0  0  0  0
    3.2625   -1.1019    0.0000 O   0  0  0  0  0  0  0  0  0  0  0  0
    2.5480    0.1356    0.0000 C   0  0  0  0  0  0  0  0  0  0  0  0
    1.8335    0.5481    0.0000 C   0  0  0  0  0  0  0  0  0  0  0  0
  1  2  2  0
  2  3  1  0
  3  5  1  0
  3  4  1  0
  5  6  1  0
  7  5  2  0
  8  2  1  0
  8  7  1  0
  9  8  2  0
 10  9  1  0
 10 11  2  0
 11  1  1  0
 12 11  1  0
 12 18  1  0
 13 12  2  0
 14 13  1  0
 14 15  2  0
 15 17  1  0
 16 15  1  0
 17 18  2  0
M  END
>  <DRUGBANK_ID>  (1) 
DB06898

>  <COMMON_NAME>  (1) 
4-(2-amino-1-methyl-1H-imidazo[4,5-b]pyridin-6-yl)phenol

>  <UNII>  (1) 
YL9NJ9QS6V

$$$$
