Indole-3-acetic acid.mol
     RDKit          2D

 10 10  0  0  0  0  0  0  0  0999 V2000
   -2.2687   -0.7145    0.0000 N   0  0  0  0  0  0  0  0  0  0  0  0
   -1.4438   -0.7145    0.0000 C   0  0  0  0  0  0  0  0  0  0  0  0
   -1.0312    0.0000    0.0000 C   0  0  0  0  0  0  0  0  0  0  0  0
   -0.2062    0.0000    0.0000 C   0  0  0  0  0  0  0  0  0  0  0  0
    0.2062    0.7145    0.0000 C   0  0  0  0  0  0  0  0  0  0  0  0
    1.0313    0.7145    0.0000 C   0  0  0  0  0  0  0  0  0  0  0  0
    1.4438    0.0000    0.0000 C   0  0  0  0  0  0  0  0  0  0  0  0
    2.2687    0.0000    0.0000 O   0  0  0  0  0  0  0  0  0  0  0  0
    1.0313   -0.7145    0.0000 C   0  0  0  0  0  0  0  0  0  0  0  0
    0.2062   -0.7145    0.0000 C   0  0  0  0  0  0  0  0  0  0  0  0
  1  2  1  0
  2  3  1  0
  3  4  1  0
  4  5  2  0
  4 10  1  0
  5  6  1  0
  6  7  2  0
  7  8  1  0
  7  9  1  0
  9 10  2  0
M  END
>  <DRUGBANK_ID>  (1) 
DB08841

>  <COMMON_NAME>  (1) 
Tyramine

>  <CAS_NUMBER>  (1) 
51-67-2

>  <UNII>  (1) 
X8ZC7V0OX3

$$$$
