I17
     RDKit          2D

 30 34  0  0  0  0  0  0  0  0999 V2000
   -1.8720    1.7963    0.0000 C   0  0  0  0  0  0  0  0  0  0  0  0
   -1.6170    1.0116    0.0000 N   0  0  0  0  0  0  0  0  0  0  0  0
   -0.8324    0.7567    0.0000 C   0  0  0  0  0  0  0  0  0  0  0  0
   -0.1179    1.1692    0.0000 N   0  0  0  0  0  0  0  0  0  0  0  0
    0.5965    0.7567    0.0000 C   0  0  0  0  0  0  0  0  0  0  0  0
   -0.1179   -0.4808    0.0000 C   0  0  0  0  0  0  0  0  0  0  0  0
    0.5965   -0.0683    0.0000 N   0  0  0  0  0  0  0  0  0  0  0  0
   -0.8324   -0.0683    0.0000 C   0  0  0  0  0  0  0  0  0  0  0  0
   -1.6170   -0.3232    0.0000 N   0  0  0  0  0  0  0  0  0  0  0  0
   -2.1020    0.3442    0.0000 C   0  0  0  0  0  0  0  0  0  0  0  0
   -0.1179   -1.3058    0.0000 N   0  0  0  0  0  0  0  0  0  0  0  0
   -0.8324   -1.7183    0.0000 C   0  0  0  0  0  0  0  0  0  0  0  0
   -0.1179   -2.9558    0.0000 C   0  0  0  0  0  0  0  0  0  0  0  0
   -0.1179   -3.7808    0.0000 C   0  0  0  0  0  0  0  0  0  0  0  0
   -0.8324   -4.1933    0.0000 C   0  0  0  0  0  0  0  0  0  0  0  0
   -1.5469   -3.7808    0.0000 C   0  0  0  0  0  0  0  0  0  0  0  0
   -1.5469   -2.9558    0.0000 C   0  0  0  0  0  0  0  0  0  0  0  0
   -0.8324   -2.5433    0.0000 C   0  0  0  0  0  0  0  0  0  0  0  0
    1.3110    1.1692    0.0000 N   0  0  0  0  0  0  0  0  0  0  0  0
    2.0255    0.7567    0.0000 C   0  0  0  0  0  0  0  0  0  0  0  0
    3.4544   -0.0683    0.0000 C   0  0  0  0  0  0  0  0  0  0  0  0
    3.4544    0.7567    0.0000 C   0  0  0  0  0  0  0  0  0  0  0  0
    2.7399    1.1692    0.0000 C   0  0  0  0  0  0  0  0  0  0  0  0
    2.0255   -0.0683    0.0000 C   0  0  0  0  0  0  0  0  0  0  0  0
    2.7399   -0.4808    0.0000 C   0  0  0  0  0  0  0  0  0  0  0  0
    4.1689   -0.4808    0.0000 N   0  0  0  0  0  0  0  0  0  0  0  0
   -2.6566    2.0512    0.0000 C   0  0  0  0  0  0  0  0  0  0  0  0
   -2.6566    2.8762    0.0000 C   0  0  0  0  0  0  0  0  0  0  0  0
   -1.3870    2.4637    0.0000 C   0  0  0  0  0  0  0  0  0  0  0  0
   -1.8720    3.1311    0.0000 C   0  0  0  0  0  0  0  0  0  0  0  0
  1  2  1  0
  1 27  1  0
  1 29  1  0
  2  3  1  0
  2 10  1  0
  3  4  2  0
  3  8  1  0
  4  5  1  0
  5  7  2  0
  5 19  1  0
  6  7  1  0
  6  8  2  0
  6 11  1  0
  8  9  1  0
  9 10  2  0
 11 12  1  0
 12 18  1  0
 13 14  2  0
 13 18  1  0
 14 15  1  0
 15 16  2  0
 16 17  1  0
 17 18  2  0
 20 19  1  1
 20 23  1  0
 20 24  1  0
 21 22  1  0
 21 25  1  0
 21 26  1  6
 22 23  1  0
 24 25  1  0
 27 28  1  0
 28 30  1  0
 29 30  1  0
M  END
>  <DRUGBANK_ID>  (1) 
DB04288

>  <SECONDARY_ACCESSION_NUMBERS>  (1) 
EXPT01808

>  <COMMON_NAME>  (1) 
2-[Trans-(4-Aminocyclohexyl)Amino]-6-(Benzyl-Amino)-9-Cyclopentylpurine

$$$$
