928
     RDKit          2D

 17 18  0  0  1  0  0  0  0  0999 V2000
    4.1497   -1.0607    0.0000 O   0  0  0  0  0  0  0  0  0  0  0  0
    2.0301   -0.8057    0.0000 O   0  0  0  0  0  0  0  0  0  0  0  0
    2.5848   -2.5128    0.0000 O   0  0  0  0  0  0  0  0  0  0  0  0
    5.2002   -2.4265    0.0000 O   0  0  0  0  0  0  0  0  0  0  0  0
    2.0533    0.2492    0.0000 O   0  0  0  0  0  0  0  0  0  0  0  0
    3.4822    0.2492    0.0000 N   0  0  0  0  0  0  0  0  0  0  0  0
    2.7678    1.4868    0.0000 N   0  0  0  0  0  0  0  0  0  0  0  0
    4.1967    1.4868    0.0000 N   0  0  0  0  0  0  0  0  0  0  0  0
    3.4822    2.7243    0.0000 N   0  0  0  0  0  0  0  0  0  0  0  0
    2.8148   -1.0607    0.0000 C   0  0  0  0  0  0  0  0  0  0  0  0
    3.0697   -1.8453    0.0000 C   0  0  0  0  0  0  0  0  0  0  0  0
    3.8947   -1.8453    0.0000 C   0  0  0  0  0  0  0  0  0  0  0  0
    3.4822   -0.5758    0.0000 C   0  0  0  0  0  0  0  0  0  0  0  0
    4.3797   -2.5128    0.0000 C   0  0  0  0  0  0  0  0  0  0  0  0
    2.7678    0.6617    0.0000 C   0  0  0  0  0  0  0  0  0  0  0  0
    4.1967    0.6617    0.0000 C   0  0  0  0  0  0  0  0  0  0  0  0
    3.4822    1.8993    0.0000 C   0  0  0  0  0  0  0  0  0  0  0  0
  1 12  1  0
  1 13  1  0
  4 14  1  0
  5 15  2  0
  6 15  1  0
  6 16  1  0
  7 15  1  0
  7 17  2  0
  8 16  2  0
  8 17  1  0
  9 17  1  0
 10  2  1  1
 10 11  1  0
 10 13  1  0
 11  3  1  1
 11 12  1  0
 12 14  1  6
 13  6  1  6
M  END
>  <DRUGBANK_ID>  (1) 
DB00928

>  <SECONDARY_ACCESSION_NUMBERS>  (1) 
APRD00809

>  <COMMON_NAME>  (1) 
Azacitidine

>  <CAS_NUMBER>  (1) 
320-67-2

>  <UNII>  (1) 
M801H13NRU

>  <SYNONYMS>  (1) 
4-amino-1-beta-D-ribofuranosyl-s-triazin-2(1H)-one; 5-azacytidine; Azacitidina; Azacitidine; Azacitidinum; Azacytidine

$$$$
