AL1
     RDKit          2D

 23 25  0  0  0  0  0  0  0  0999 V2000
   -2.7609   -0.4012    0.0000 C   0  0  0  0  0  0  0  0  0  0  0  0
   -0.0624   -0.8137    0.0000 C   0  0  0  0  0  0  0  0  0  0  0  0
   -0.7768   -1.2262    0.0000 C   0  0  0  0  0  0  0  0  0  0  0  0
    1.3666    1.6613    0.0000 C   0  0  0  0  0  0  0  0  0  0  0  0
    2.0810    1.2488    0.0000 C   0  0  0  0  0  0  0  0  0  0  0  0
    2.0810    0.4238    0.0000 C   0  0  0  0  0  0  0  0  0  0  0  0
    1.3666    0.0113    0.0000 C   0  0  0  0  0  0  0  0  0  0  0  0
    3.5100    0.4238    0.0000 C   0  0  0  0  0  0  0  0  0  0  0  0
   -4.4109   -0.4012    0.0000 N   0  0  0  0  0  0  0  0  0  0  0  0
   -3.5859   -0.4012    0.0000 S   0  0  0  0  0  0  0  0  0  0  0  0
   -3.5859    0.4238    0.0000 O   0  0  0  0  0  0  0  0  0  0  0  0
   -3.5859   -1.2262    0.0000 O   0  0  0  0  0  0  0  0  0  0  0  0
   -2.2759    0.2662    0.0000 S   0  0  0  0  0  0  0  0  0  0  0  0
   -1.4913    0.0113    0.0000 C   0  0  0  0  0  0  0  0  0  0  0  0
   -1.4913   -0.8137    0.0000 C   0  0  0  0  0  0  0  0  0  0  0  0
   -2.2759   -1.0687    0.0000 C   0  0  0  0  0  0  0  0  0  0  0  0
   -0.0624    0.0113    0.0000 N   0  0  0  0  0  0  0  0  0  0  0  0
   -0.7768    0.4238    0.0000 S   0  0  0  0  0  0  0  0  0  0  0  0
   -1.1642    1.1522    0.0000 O   0  0  0  0  0  0  0  0  0  0  0  0
   -0.3895    1.1522    0.0000 O   0  0  0  0  0  0  0  0  0  0  0  0
    0.6521    0.4238    0.0000 C   0  0  0  0  0  0  0  0  0  0  0  0
    0.6521    1.2488    0.0000 C   0  0  0  0  0  0  0  0  0  0  0  0
    2.7955    0.0113    0.0000 O   0  0  0  0  0  0  0  0  0  0  0  0
  1 10  1  0
  1 13  1  0
  1 16  2  0
  2  3  1  0
  2 17  1  0
  3 15  1  0
  4  5  2  0
  4 22  1  0
  5  6  1  0
  6  7  2  0
  6 23  1  0
  7 21  1  0
  8 23  1  0
  9 10  1  0
 10 11  2  0
 10 12  2  0
 13 14  1  0
 14 15  2  0
 14 18  1  0
 15 16  1  0
 17 18  1  0
 17 21  1  0
 18 19  2  0
 18 20  2  0
 21 22  2  0
M  END
>  <DRUGBANK_ID>  (1) 
DB02602

>  <SECONDARY_ACCESSION_NUMBERS>  (1) 
EXPT00486

>  <COMMON_NAME>  (1) 
AL7182

$$$$
