059
     RDKit          2D

 32 33  0  0  0  0  0  0  0  0999 V2000
   -3.6483   -1.6913    0.0000 C   0  0  0  0  0  0  0  0  0  0  0  0
   -4.3265   -2.1611    0.0000 C   0  0  0  0  0  0  0  0  0  0  0  0
   -5.0724   -1.8087    0.0000 C   0  0  0  0  0  0  0  0  0  0  0  0
   -5.1402   -0.9865    0.0000 C   0  0  0  0  0  0  0  0  0  0  0  0
   -4.4621   -0.5167    0.0000 C   0  0  0  0  0  0  0  0  0  0  0  0
   -3.7161   -0.8691    0.0000 C   0  0  0  0  0  0  0  0  0  0  0  0
   -3.0380   -0.3992    0.0000 C   0  0  0  0  0  0  0  0  0  0  0  0
   -2.2920   -0.7516    0.0000 C   0  0  0  0  0  0  0  0  0  0  0  0
   -1.6139   -0.2818    0.0000 S   0  0  0  0  0  0  0  0  0  0  0  0
   -2.0837    0.3964    0.0000 O   0  0  0  0  0  0  0  0  0  0  0  0
   -1.1440   -0.9599    0.0000 O   0  0  0  0  0  0  0  0  0  0  0  0
   -0.9357    0.1881    0.0000 N   0  0  0  0  0  0  0  0  0  0  0  0
   -0.1898   -0.1643    0.0000 C   0  0  0  0  0  0  0  0  0  0  0  0
   -0.1219   -0.9865    0.0000 C   0  0  0  0  0  0  0  0  0  0  0  0
    0.6240   -1.3389    0.0000 C   0  0  0  0  0  0  0  0  0  0  0  0
   -0.8001   -1.4564    0.0000 C   0  0  0  0  0  0  0  0  0  0  0  0
    0.4884    0.3055    0.0000 P   0  0  0  0  0  0  0  0  0  0  0  0
    0.0185    0.9837    0.0000 O   0  0  0  0  0  0  0  0  0  0  0  0
    0.9582   -0.3726    0.0000 O   0  0  0  0  0  0  0  0  0  0  0  0
    1.1665    0.7754    0.0000 C   0  0  0  0  0  0  0  0  0  0  0  0
    1.9125    0.4230    0.0000 C   0  0  0  0  0  0  0  0  0  0  0  0
    1.9803   -0.3992    0.0000 C   0  0  0  0  0  0  0  0  0  0  0  0
    2.7263   -0.7516    0.0000 O   0  0  0  0  0  0  0  0  0  0  0  0
    1.3022   -0.8691    0.0000 O   0  0  0  0  0  0  0  0  0  0  0  0
    2.5906    0.8928    0.0000 C   0  0  0  0  0  0  0  0  0  0  0  0
    3.3366    0.5404    0.0000 C   0  0  0  0  0  0  0  0  0  0  0  0
    2.5228    1.7150    0.0000 C   0  0  0  0  0  0  0  0  0  0  0  0
    3.2010    2.1849    0.0000 C   0  0  0  0  0  0  0  0  0  0  0  0
    3.9469    1.8325    0.0000 C   0  0  0  0  0  0  0  0  0  0  0  0
    4.0147    1.0103    0.0000 C   0  0  0  0  0  0  0  0  0  0  0  0
    4.7607    0.6579    0.0000 C   0  0  0  0  0  0  0  0  0  0  0  0
    5.4388    1.1277    0.0000 N   0  0  0  0  0  0  0  0  0  0  0  0
  1  2  2  0
  1  6  1  0
  2  3  1  0
  3  4  2  0
  4  5  1  0
  5  6  2  0
  6  7  1  0
  7  8  1  0
  8  9  1  0
  9 12  1  0
  9 11  2  0
  9 10  2  0
 13 12  1  6
 13 17  1  0
 13 14  1  0
 14 15  1  0
 14 16  1  0
 17 20  1  0
 17 19  2  0
 17 18  1  0
 21 20  1  1
 21 25  1  0
 21 22  1  0
 22 23  2  0
 22 24  1  0
 25 27  1  0
 25 26  2  0
 26 30  1  0
 27 28  2  0
 28 29  1  0
 29 30  2  0
 30 31  1  0
 31 32  1  0
M  END
>  <DRUGBANK_ID>  (1) 
DB06835

>  <COMMON_NAME>  (1) 
(2S)-2-[3-(AMINOMETHYL)PHENYL]-3-{(S)-HYDROXY[(1R)-2-METHYL-1-{[(2-PHENYLETHYL)SULFONYL]AMINO}PROPYL]PHOSPHORYL}PROPANOIC ACID

$$$$
