P04
     RDKit          2D

 27 31  0  0  0  0  0  0  0  0999 V2000
   -0.7082   -0.2397    0.0000 N   0  0  0  0  0  0  0  0  0  0  0  0
   -1.3738   -0.5073    0.0000 C   0  0  0  0  0  0  0  0  0  0  0  0
   -2.0197    0.0094    0.0000 C   0  0  0  0  0  0  0  0  0  0  0  0
   -1.6228    0.7326    0.0000 C   0  0  0  0  0  0  0  0  0  0  0  0
   -0.9737    0.4101    0.0000 N   0  0  0  0  0  0  0  0  0  0  0  0
   -0.7980    0.7506    0.0000 N   0  0  0  0  0  0  0  0  0  0  0  0
   -0.4011    1.4738    0.0000 C   0  0  0  0  0  0  0  0  0  0  0  0
   -0.5456    1.9825    0.0000 N   0  0  0  0  0  0  0  0  0  0  0  0
   -0.2737    1.2036    0.0000 C   0  0  0  0  0  0  0  0  0  0  0  0
    0.4529    0.9997    0.0000 N   0  0  0  0  0  0  0  0  0  0  0  0
    1.0754    1.6746    0.0000 C   0  0  0  0  0  0  0  0  0  0  0  0
    1.2566    2.4794    0.0000 C   0  0  0  0  0  0  0  0  0  0  0  0
    1.8630    1.9201    0.0000 C   0  0  0  0  0  0  0  0  0  0  0  0
    0.4237    1.4917    0.0000 N   0  0  0  0  0  0  0  0  0  0  0  0
    0.8516    0.7864    0.0000 C   0  0  0  0  0  0  0  0  0  0  0  0
    0.4547    0.0631    0.0000 C   0  0  0  0  0  0  0  0  0  0  0  0
    0.8827   -0.6422    0.0000 C   0  0  0  0  0  0  0  0  0  0  0  0
    1.7075   -0.6243    0.0000 C   0  0  0  0  0  0  0  0  0  0  0  0
    2.1044    0.0989    0.0000 C   0  0  0  0  0  0  0  0  0  0  0  0
    1.6764    0.8043    0.0000 C   0  0  0  0  0  0  0  0  0  0  0  0
    0.4858   -1.3655    0.0000 N   0  0  0  0  0  0  0  0  0  0  0  0
   -0.3390   -1.3834    0.0000 C   0  0  0  0  0  0  0  0  0  0  0  0
   -0.7502   -0.8292    0.0000 O   0  0  0  0  0  0  0  0  0  0  0  0
   -0.7359   -2.1067    0.0000 C   0  0  0  0  0  0  0  0  0  0  0  0
   -1.5607   -2.1246    0.0000 C   0  0  0  0  0  0  0  0  0  0  0  0
   -1.9887   -1.4192    0.0000 C   0  0  0  0  0  0  0  0  0  0  0  0
   -1.5918   -0.6960    0.0000 C   0  0  0  0  0  0  0  0  0  0  0  0
  1  5  1  0
  2  1  2  0
  3  2  1  0
  3  4  2  0
  4  6  1  0
  4  5  1  0
  5  9  1  0
  6  7  2  0
  7 14  1  0
  7  8  1  0
  9  8  2  0
  9 10  1  0
 10 11  1  0
 11 12  1  0
 11 13  1  0
 12 13  1  0
 15 14  1  0
 15 20  2  0
 16 15  1  0
 17 16  2  0
 17 18  1  0
 18 19  2  0
 19 20  1  0
 21 17  1  0
 22 21  1  0
 22 24  1  0
 23 22  2  0
 24 25  1  0
 25 26  1  0
 26 27  1  0
 27  3  1  0
M  END
>  <DRUGBANK_ID>  (1) 
DB08338

>  <COMMON_NAME>  (1) 
19-(cyclopropylamino)-4,6,7,15-tetrahydro-5H-16,1-(azenometheno)-10,14-(metheno)pyrazolo[4,3-o][1,3,9]triazacyclohexadecin-8(9H)-one

$$$$
