
     RDKit          2D

 18 19  0  0  0  0  0  0  0  0999 V2000
   -0.4603    0.0000    0.0000 N   0  0  0  0  0  0  0  0  0  0  0  0
   -0.0478    0.7145    0.0000 C   0  0  0  0  0  0  0  0  0  0  0  0
   -0.4603    1.4290    0.0000 O   0  0  0  0  0  0  0  0  0  0  0  0
    0.7772    0.7145    0.0000 N   0  0  0  0  0  0  0  0  0  0  0  0
    1.1897    0.0000    0.0000 C   0  0  0  0  0  0  0  0  0  0  0  0
    2.0102   -0.0862    0.0000 N   0  0  0  0  0  0  0  0  0  0  0  0
    2.1818   -0.8933    0.0000 C   0  0  0  0  0  0  0  0  0  0  0  0
    1.4673   -1.3058    0.0000 C   0  0  0  0  0  0  0  0  0  0  0  0
    0.8542   -0.7537    0.0000 N   0  0  0  0  0  0  0  0  0  0  0  0
    2.9356   -1.2288    0.0000 O   0  0  0  0  0  0  0  0  0  0  0  0
    0.0471   -0.9252    0.0000 C   0  0  0  0  0  0  0  0  0  0  0  0
   -1.2854    0.0000    0.0000 C   0  0  0  0  0  0  0  0  0  0  0  0
   -1.6979   -0.7145    0.0000 C   0  0  0  0  0  0  0  0  0  0  0  0
   -2.5231   -0.7145    0.0000 C   0  0  0  0  0  0  0  0  0  0  0  0
   -2.9356    0.0000    0.0000 C   0  0  0  0  0  0  0  0  0  0  0  0
   -2.5231    0.7145    0.0000 C   0  0  0  0  0  0  0  0  0  0  0  0
   -1.6979    0.7145    0.0000 C   0  0  0  0  0  0  0  0  0  0  0  0
   -2.9356   -1.4290    0.0000 Cl  0  0  0  0  0  0  0  0  0  0  0  0
  1  2  1  0
  1 12  1  0
  2  3  2  0
  2  4  1  0
  4  5  1  0
  5  6  2  0
  5  9  1  0
  6  7  1  0
  7  8  1  0
  7 10  2  0
  8  9  1  0
  9 11  1  0
 12 13  2  0
 12 17  1  0
 13 14  1  0
 14 15  2  0
 14 18  1  0
 15 16  1  0
 16 17  2  0
M  END
>  <DRUGBANK_ID>  (1) 
DB12931

>  <COMMON_NAME>  (1) 
Fenobam

>  <CAS_NUMBER>  (1) 
57653-26-6

>  <UNII>  (1) 
078RCY7I27

>  <SYNONYMS>  (1) 
Fenobam; Fenobam anhydrous; Fenobamum

$$$$
