
     RDKit          2D

 29 32  0  0  0  0  0  0  0  0999 V2000
    0.6649   -0.8302    0.0000 C   0  0  0  0  0  0  0  0  0  0  0  0
    1.0748   -1.5462    0.0000 C   0  0  0  0  0  0  0  0  0  0  0  0
   -0.7155   -0.8954    0.0000 C   0  0  0  0  0  0  0  0  0  0  0  0
   -0.0462   -0.4127    0.0000 C   0  0  0  0  0  0  0  0  0  0  0  0
   -0.3030    0.3755    0.0000 N   0  0  0  0  0  0  0  0  0  0  0  0
   -1.1281    0.3755    0.0000 O   0  0  0  0  0  0  0  0  0  0  0  0
   -1.3849   -0.4127    0.0000 C   0  0  0  0  0  0  0  0  0  0  0  0
    2.0906   -0.8329    0.0000 C   0  0  0  0  0  0  0  0  0  0  0  0
    2.8071   -0.4194    0.0000 C   0  0  0  0  0  0  0  0  0  0  0  0
    2.8042    0.4110    0.0000 C   0  0  0  0  0  0  0  0  0  0  0  0
    2.0888    0.8203    0.0000 C   0  0  0  0  0  0  0  0  0  0  0  0
    3.5143    0.8250    0.0000 C   0  0  0  0  0  0  0  0  0  0  0  0
    4.2306    0.4134    0.0000 C   0  0  0  0  0  0  0  0  0  0  0  0
    4.9431    0.8280    0.0000 C   0  0  0  0  0  0  0  0  0  0  0  0
    4.9405    1.6539    0.0000 C   0  0  0  0  0  0  0  0  0  0  0  0
    4.2193    2.0636    0.0000 C   0  0  0  0  0  0  0  0  0  0  0  0
    3.5099    1.6466    0.0000 C   0  0  0  0  0  0  0  0  0  0  0  0
    1.3757   -0.4199    0.0000 C   0  0  0  0  0  0  0  0  0  0  0  0
    1.3799    0.4029    0.0000 C   0  0  0  0  0  0  0  0  0  0  0  0
   -4.9431   -0.8302    0.0000 C   0  0  0  0  0  0  0  0  0  0  0  0
   -4.9431   -1.6552    0.0000 O   0  0  0  0  0  0  0  0  0  0  0  0
   -4.2311   -2.0636    0.0000 C   0  0  0  0  0  0  0  0  0  0  0  0
   -4.2311   -0.4134    0.0000 C   0  0  0  0  0  0  0  0  0  0  0  0
   -3.5190   -0.8302    0.0000 N   0  0  0  0  0  0  0  0  0  0  0  0
   -3.5179   -1.6552    0.0000 C   0  0  0  0  0  0  0  0  0  0  0  0
   -2.8088   -0.4143    0.0000 C   0  0  0  0  0  0  0  0  0  0  0  0
   -2.0932   -0.8283    0.0000 N   0  0  0  0  0  0  0  0  0  0  0  0
   -2.8110    0.4105    0.0000 N   0  0  0  0  0  0  0  0  0  0  0  0
    3.5224   -0.8310    0.0000 F   0  0  0  0  0  0  0  0  0  0  0  0
  1  2  1  6
  3  4  1  0
  4  5  2  0
  4  1  1  0
  5  6  1  0
  6  7  1  0
  7  3  2  0
  8  9  2  0
  9 10  1  0
  9 29  1  0
 10 12  1  0
 10 11  2  0
 11 19  1  0
 12 13  2  0
 13 14  1  0
 14 15  2  0
 15 16  1  0
 16 17  2  0
 17 12  1  0
 18  8  1  0
 18 19  2  0
 18  1  1  0
 20 21  1  0
 20 23  1  0
 21 22  1  0
 22 25  1  0
 24 23  1  0
 24 25  1  0
 24 26  1  0
 26 28  2  0
 27 26  1  0
 27  7  1  0
M  END
>  <DRUGBANK_ID>  (1) 
DB12571

>  <COMMON_NAME>  (1) 
Rimacalib

>  <CAS_NUMBER>  (1) 
215174-50-8

>  <UNII>  (1) 
BZ76J3N815

>  <SYNONYMS>  (1) 
Rimacalib

$$$$
