
     RDKit          2D

 30 33  0  0  0  0  0  0  0  0999 V2000
   -2.8732   -0.9476    0.0000 C   0  0  0  0  0  0  0  0  0  0  0  0
   -3.5958   -1.3443    0.0000 C   0  0  0  0  0  0  0  0  0  0  0  0
   -3.5958   -2.1834    0.0000 C   0  0  0  0  0  0  0  0  0  0  0  0
   -2.8732   -2.5956    0.0000 C   0  0  0  0  0  0  0  0  0  0  0  0
   -2.1735   -2.1834    0.0000 C   0  0  0  0  0  0  0  0  0  0  0  0
   -1.4586   -2.5956    0.0000 C   0  0  0  0  0  0  0  0  0  0  0  0
   -2.1735   -1.3443    0.0000 C   0  0  0  0  0  0  0  0  0  0  0  0
   -1.4586   -0.1395    0.0000 C   0  0  0  0  0  0  0  0  0  0  0  0
   -0.7278    0.2804    0.0000 C   0  0  0  0  0  0  0  0  0  0  0  0
   -0.0280   -0.1395    0.0000 C   0  0  0  0  0  0  0  0  0  0  0  0
   -0.0280   -0.9476    0.0000 C   0  0  0  0  0  0  0  0  0  0  0  0
    0.7566   -1.2043    0.0000 C   0  0  0  0  0  0  0  0  0  0  0  0
    1.2229   -0.5513    0.0000 C   0  0  0  0  0  0  0  0  0  0  0  0
    0.7566    0.1169    0.0000 C   0  0  0  0  0  0  0  0  0  0  0  0
   -0.0280    0.7079    0.0000 C   0  0  0  0  0  0  0  0  0  0  0  0
   -2.1735   -0.5358    0.0000 C   0  0  0  0  0  0  0  0  0  0  0  0
   -4.3291   -2.6143    0.0000 O   0  0  0  0  0  0  0  0  0  0  0  0
   -1.4586   -0.9476    0.0000 C   0  0  0  0  0  0  0  0  0  0  0  0
    0.0421    1.3767    0.0000 C   0  0  0  0  0  0  0  0  0  0  0  0
   -0.7278   -1.3443    0.0000 C   0  0  0  0  0  0  0  0  0  0  0  0
   -0.7278   -2.1834    0.0000 C   0  0  0  0  0  0  0  0  0  0  0  0
    2.1857    0.9643    0.0000 C   0  0  0  0  0  0  0  0  0  0  0  0
    2.9000    1.3767    0.0000 C   0  0  0  0  0  0  0  0  0  0  0  0
    3.6145    0.9643    0.0000 C   0  0  0  0  0  0  0  0  0  0  0  0
    3.6145    0.1393    0.0000 C   0  0  0  0  0  0  0  0  0  0  0  0
    1.4711    1.3767    0.0000 C   0  0  0  0  0  0  0  0  0  0  0  0
    0.7566    0.9643    0.0000 C   0  0  0  0  0  0  0  0  0  0  0  0
    4.3291    1.3767    0.0000 C   0  0  0  0  0  0  0  0  0  0  0  0
    2.9000    2.2018    0.0000 C   0  0  0  0  0  0  0  0  0  0  0  0
    3.6145    2.6143    0.0000 C   0  0  0  0  0  0  0  0  0  0  0  0
  1  7  1  0
  2  1  1  0
  3  4  1  0
  3  2  1  0
  3 17  1  1
  4  5  1  0
  5  7  1  0
  6 21  1  0
  6  5  2  0
  7 18  1  0
  7 16  1  1
 18  8  1  1
  8  9  1  0
  9 10  1  0
 10 15  1  1
 11 10  1  0
 11 12  1  1
 14 13  1  1
 13 12  1  0
 14 10  1  0
 20 11  1  0
 20 18  1  0
 20 21  1  6
 23 22  1  1
 23 29  1  0
 24 23  1  0
 25 24  1  0
 26 22  1  0
 26 27  1  0
 27 14  1  0
 27 19  1  6
 28 24  1  0
 29 30  1  0
M  END
>  <DRUGBANK_ID>  (1) 
DB14038

>  <COMMON_NAME>  (1) 
beta-Sitosterol

>  <CAS_NUMBER>  (1) 
83-46-5

>  <UNII>  (1) 
S347WMO6M4

>  <SYNONYMS>  (1) 
(-)-β-Sitosterol; (24R)-Ethylcholest-5-en-3beta-ol; (24R)-ethylcholest-5-en-3β-ol; (24R)-Stigmast-5-en-3beta-ol; (3β)-Stigmast-5-en-3-ol; 22,23-Dihydrostigmasterol; 24α-Ethylcholesterol; Azuprostat; Cupreol; Nimbosterol; Sitosterol; Triastonal; α-Dihydrofucosterol; β-Sitosterin

$$$$
