1356
     RDKit          2D

  1  0  0  0  0  0  0  0  0  0999 V2000
    2.0000    0.0000    0.0000 Li  0  0  0  0  0 15  0  0  0  0  0  0
M  CHG  1   1   1
M  END
>  <DRUGBANK_ID>  (1) 
DB01356

>  <COMMON_NAME>  (1) 
Lithium cation

>  <CAS_NUMBER>  (1) 
7439-93-2

>  <UNII>  (1) 
8H8Z5UER66

>  <SYNONYMS>  (1) 
Li(+); Lithium ion; Lithium, ion; Lithium, ion (li1+)

$$$$
