
     RDKit          2D

 21 23  0  0  0  0  0  0  0  0999 V2000
    2.9440   -0.3134    0.0000 C   0  0  0  0  0  0  0  0  0  0  0  0
    2.5315   -1.0280    0.0000 C   0  0  0  0  0  0  0  0  0  0  0  0
    1.7065   -1.0280    0.0000 C   0  0  0  0  0  0  0  0  0  0  0  0
    1.2940   -0.3134    0.0000 C   0  0  0  0  0  0  0  0  0  0  0  0
    1.7065    0.4009    0.0000 N   0  0  0  0  0  0  0  0  0  0  0  0
    2.5315    0.4009    0.0000 N   0  0  0  0  0  0  0  0  0  0  0  0
    3.7690   -0.3134    0.0000 O   0  0  0  0  0  0  0  0  0  0  0  0
    0.4690   -0.3134    0.0000 S   0  0  0  0  0  0  0  0  0  0  0  0
    0.4690   -1.1385    0.0000 O   0  0  0  0  0  0  0  0  0  0  0  0
    0.4690    0.5115    0.0000 O   0  0  0  0  0  0  0  0  0  0  0  0
   -0.8409   -0.9810    0.0000 O   0  0  0  0  0  0  0  0  0  0  0  0
   -0.3560   -0.3134    0.0000 C   0  0  0  0  0  0  0  0  0  0  0  0
   -0.8409    0.3539    0.0000 C   0  0  0  0  0  0  0  0  0  0  0  0
   -1.6256    0.0990    0.0000 C   0  0  0  0  0  0  0  0  0  0  0  0
   -1.6256   -0.7260    0.0000 C   0  0  0  0  0  0  0  0  0  0  0  0
   -2.3400    0.5115    0.0000 C   0  0  0  0  0  0  0  0  0  0  0  0
   -3.0545    0.0990    0.0000 C   0  0  0  0  0  0  0  0  0  0  0  0
   -3.0545   -0.7260    0.0000 C   0  0  0  0  0  0  0  0  0  0  0  0
   -2.3400   -1.1385    0.0000 C   0  0  0  0  0  0  0  0  0  0  0  0
   -0.5860    1.1385    0.0000 C   0  0  0  0  0  0  0  0  0  0  0  0
   -3.7690    0.5115    0.0000 Cl  0  0  0  0  0  0  0  0  0  0  0  0
  1  2  1  0
  1  6  1  0
  1  7  2  0
  2  3  2  0
  3  4  1  0
  4  5  2  0
  4  8  1  0
  5  6  1  0
  8  9  2  0
  8 10  2  0
  8 12  1  0
 11 12  1  0
 11 15  1  0
 12 13  2  0
 13 14  1  0
 13 20  1  0
 14 15  2  0
 16 17  2  0
 16 14  1  0
 17 18  1  0
 17 21  1  0
 18 19  2  0
 19 15  1  0
M  END
>  <DRUGBANK_ID>  (1) 
DB07187

>  <COMMON_NAME>  (1) 
CP-744809

>  <CAS_NUMBER>  (1) 
463976-07-0

>  <UNII>  (1) 
U63F8E95J1

$$$$
