
     RDKit          2D

 38 43  0  0  0  0  0  0  0  0999 V2000
    2.7269    5.5761    0.0000 C   0  0  0  0  0  0  0  0  0  0  0  0
    1.9423    5.3212    0.0000 C   0  0  0  0  0  0  0  0  0  0  0  0
    1.3292    5.8732    0.0000 C   0  0  0  0  0  0  0  0  0  0  0  0
    1.7708    4.5142    0.0000 C   0  0  0  0  0  0  0  0  0  0  0  0
    0.9861    4.2593    0.0000 C   0  0  0  0  0  0  0  0  0  0  0  0
    0.3730    4.8113    0.0000 O   0  0  0  0  0  0  0  0  0  0  0  0
    0.8146    3.4523    0.0000 N   0  0  0  0  0  0  0  0  0  0  0  0
    0.0300    3.1974    0.0000 C   0  0  0  0  0  0  0  0  0  0  0  0
   -0.1415    2.3904    0.0000 C   0  0  0  0  0  0  0  0  0  0  0  0
   -0.9262    2.1355    0.0000 C   0  0  0  0  0  0  0  0  0  0  0  0
   -1.5393    2.6875    0.0000 C   0  0  0  0  0  0  0  0  0  0  0  0
   -1.3677    3.4945    0.0000 N   0  0  0  0  0  0  0  0  0  0  0  0
   -0.5831    3.7494    0.0000 C   0  0  0  0  0  0  0  0  0  0  0  0
   -1.0977    1.3285    0.0000 C   0  0  0  0  0  0  0  0  0  0  0  0
   -0.4846    0.7765    0.0000 C   0  0  0  0  0  0  0  0  0  0  0  0
   -0.6561   -0.0305    0.0000 C   0  0  0  0  0  0  0  0  0  0  0  0
   -1.4407   -0.2854    0.0000 C   0  0  0  0  0  0  0  0  0  0  0  0
   -1.4407   -1.1104    0.0000 N   0  0  0  0  0  0  0  0  0  0  0  0
   -0.6561   -1.3654    0.0000 N   0  0  0  0  0  0  0  0  0  0  0  0
   -0.1712   -0.6979    0.0000 C   0  0  0  0  0  0  0  0  0  0  0  0
    0.6538   -0.6979    0.0000 C   0  0  0  0  0  0  0  0  0  0  0  0
    1.1387   -0.0305    0.0000 N   0  0  0  0  0  0  0  0  0  0  0  0
    1.9233   -0.2854    0.0000 C   0  0  0  0  0  0  0  0  0  0  0  0
    2.6378    0.1271    0.0000 C   0  0  0  0  0  0  0  0  0  0  0  0
    3.3523   -0.2854    0.0000 C   0  0  0  0  0  0  0  0  0  0  0  0
    3.3523   -1.1104    0.0000 N   0  0  0  0  0  0  0  0  0  0  0  0
    2.6378   -1.5229    0.0000 C   0  0  0  0  0  0  0  0  0  0  0  0
    1.9233   -1.1104    0.0000 C   0  0  0  0  0  0  0  0  0  0  0  0
    1.1387   -1.3654    0.0000 N   0  0  0  0  0  0  0  0  0  0  0  0
    2.6378    0.9521    0.0000 C   0  0  0  0  0  0  0  0  0  0  0  0
    1.9233    1.3646    0.0000 C   0  0  0  0  0  0  0  0  0  0  0  0
    1.9233    2.1896    0.0000 C   0  0  0  0  0  0  0  0  0  0  0  0
    2.6378    2.6021    0.0000 C   0  0  0  0  0  0  0  0  0  0  0  0
    3.3523    2.1896    0.0000 C   0  0  0  0  0  0  0  0  0  0  0  0
    4.0668    2.6021    0.0000 F   0  0  0  0  0  0  0  0  0  0  0  0
    3.3523    1.3646    0.0000 C   0  0  0  0  0  0  0  0  0  0  0  0
   -2.0538    0.2666    0.0000 C   0  0  0  0  0  0  0  0  0  0  0  0
   -1.8823    1.0736    0.0000 C   0  0  0  0  0  0  0  0  0  0  0  0
  1  2  1  0
  2  3  1  0
  2  4  1  0
  4  5  1  0
  5  6  2  0
  5  7  1  0
  7  8  1  0
  8  9  2  0
  8 13  1  0
  9 10  1  0
 10 11  2  0
 10 14  1  0
 11 12  1  0
 12 13  2  0
 14 15  2  0
 14 38  1  0
 15 16  1  0
 16 17  2  0
 16 20  1  0
 17 18  1  0
 17 37  1  0
 18 19  1  0
 19 20  2  0
 20 21  1  0
 21 22  2  0
 21 29  1  0
 22 23  1  0
 23 24  2  0
 23 28  1  0
 24 25  1  0
 24 30  1  0
 25 26  2  0
 26 27  1  0
 27 28  2  0
 28 29  1  0
 30 31  2  0
 30 36  1  0
 31 32  1  0
 32 33  2  0
 33 34  1  0
 34 35  1  0
 34 36  2  0
 37 38  2  0
M  END
>  <DRUGBANK_ID>  (1) 
DB14883

>  <COMMON_NAME>  (1) 
Lorecivivint

>  <CAS_NUMBER>  (1) 
1467093-03-3

>  <UNII>  (1) 
42EK42WHI5

>  <SYNONYMS>  (1) 
Lorecivivint

$$$$
