
     RDKit          2D

 28 30  0  0  0  0  0  0  0  0999 V2000
   -0.6804    0.7050    0.0000 C   0  0  0  0  0  0  0  0  0  0  0  0
    0.0340    0.2925    0.0000 N   0  0  0  0  0  0  0  0  0  0  0  0
    0.7485    0.7050    0.0000 C   0  0  0  0  0  0  0  0  0  0  0  0
    0.0340   -0.5325    0.0000 C   0  0  0  0  0  0  0  0  0  0  0  0
    0.7485   -0.9450    0.0000 C   0  0  0  0  0  0  0  0  0  0  0  0
    0.7485   -1.7700    0.0000 C   0  0  0  0  0  0  0  0  0  0  0  0
    1.4630   -2.1825    0.0000 C   0  0  0  0  0  0  0  0  0  0  0  0
    1.4630   -3.0075    0.0000 C   0  0  0  0  0  0  0  0  0  0  0  0
    0.7485   -3.4200    0.0000 C   0  0  0  0  0  0  0  0  0  0  0  0
    0.7485   -4.2450    0.0000 O   0  0  0  0  0  0  0  0  0  0  0  0
    0.0340   -4.6575    0.0000 C   0  0  0  0  0  0  0  0  0  0  0  0
   -0.6804   -4.2450    0.0000 O   0  0  0  0  0  0  0  0  0  0  0  0
    0.0340   -5.4825    0.0000 C   0  0  0  0  0  0  0  0  0  0  0  0
    0.7485   -5.8950    0.0000 C   0  0  0  0  0  0  0  0  0  0  0  0
    0.7485   -6.7200    0.0000 C   0  0  0  0  0  0  0  0  0  0  0  0
    0.0340   -7.1325    0.0000 C   0  0  0  0  0  0  0  0  0  0  0  0
    0.0340   -7.9575    0.0000 C   0  0  0  0  0  0  0  0  0  0  0  0
   -0.6804   -6.7200    0.0000 C   0  0  0  0  0  0  0  0  0  0  0  0
   -0.6804   -5.8950    0.0000 C   0  0  0  0  0  0  0  0  0  0  0  0
    0.0340   -3.0075    0.0000 C   0  0  0  0  0  0  0  0  0  0  0  0
    0.0340   -2.1825    0.0000 C   0  0  0  0  0  0  0  0  0  0  0  0
    1.4630   -0.5325    0.0000 C   0  0  0  0  0  0  0  0  0  0  0  0
    1.7451   -1.3077    0.0000 O   0  0  0  0  0  0  0  0  0  0  0  0
    0.9327    0.0995    0.0000 C   0  0  0  0  0  0  0  0  0  0  0  0
    1.2148    0.8748    0.0000 C   0  0  0  0  0  0  0  0  0  0  0  0
    2.0273    1.0180    0.0000 C   0  0  0  0  0  0  0  0  0  0  0  0
    2.5576    0.3860    0.0000 C   0  0  0  0  0  0  0  0  0  0  0  0
    2.2754   -0.3892    0.0000 C   0  0  0  0  0  0  0  0  0  0  0  0
  1  2  1  0
  2  3  1  0
  2  4  1  0
  4  5  1  0
  5  6  1  0
  5 22  1  0
  6  7  2  0
  6 21  1  0
  7  8  1  0
  8  9  2  0
  9 10  1  0
  9 20  1  0
 10 11  1  0
 11 12  2  0
 11 13  1  0
 13 14  2  0
 13 19  1  0
 14 15  1  0
 15 16  2  0
 16 17  1  0
 16 18  1  0
 18 19  2  0
 20 21  2  0
 22 23  1  0
 22 24  1  0
 22 28  1  0
 24 25  1  0
 25 26  1  0
 26 27  1  0
 27 28  1  0
M  END
>  <DRUGBANK_ID>  (1) 
DB15052

>  <COMMON_NAME>  (1) 
Ansofaxine

>  <CAS_NUMBER>  (1) 
916918-80-4

>  <UNII>  (1) 
A7CGH459FN

$$$$
