
     RDKit          2D

 12 11  0  0  0  0  0  0  0  0999 V2000
    2.1306    0.2165    0.0000 C   0  0  0  0  0  0  0  0  0  0  0  0
   -0.7260    0.1336    0.0000 C   0  0  0  0  0  0  0  0  0  0  0  0
    2.1067    1.0411    0.0000 O   0  0  0  0  0  0  0  0  0  0  0  0
    1.4284   -0.2165    0.0000 C   0  0  0  0  0  0  0  0  0  0  0  0
   -0.7499    0.9583    0.0000 O   0  0  0  0  0  0  0  0  0  0  0  0
    0.7022    0.1750    0.0000 C   0  0  0  0  0  0  0  0  0  0  0  0
    0.0000   -0.2579    0.0000 C   0  0  0  0  0  0  0  0  0  0  0  0
   -1.4282   -0.2993    0.0000 N   0  0  0  0  0  0  0  0  0  0  0  0
    2.8567   -0.1750    0.0000 O   0  0  0  0  0  0  0  0  0  0  0  0
    1.4523   -1.0411    0.0000 N   0  0  0  0  0  0  0  0  0  0  0  0
   -2.8567   -0.3407    0.0000 C   0  0  0  0  0  0  0  0  0  0  0  0
   -2.1544    0.0922    0.0000 C   0  0  0  0  0  0  0  0  0  0  0  0
  2  7  1  0
  3  1  2  0
  4  1  1  0
  4 10  1  1
  5  2  2  0
  6  4  1  0
  7  6  1  0
  8  2  1  0
  9  1  1  0
 12 11  1  0
 12  8  1  0
M  END
>  <DRUGBANK_ID>  (1) 
DB12444

>  <COMMON_NAME>  (1) 
Theanine

>  <CAS_NUMBER>  (1) 
3081-61-6

>  <UNII>  (1) 
8021PR16QO

>  <SYNONYMS>  (1) 
L-theanine; N-ethyl-L-glutamine; N(5)-ethyl-L-glutamine; N5-ethyl-L-glutamine; Suntheanine; Theanin

$$$$
