
     RDKit          2D

 38 42  0  0  0  0  0  0  0  0999 V2000
   -3.5106   -0.2061    0.0000 C   0  0  0  0  0  0  0  0  0  0  0  0
   -3.5106    0.6187    0.0000 C   0  0  0  0  0  0  0  0  0  0  0  0
   -0.6529   -0.2061    0.0000 C   0  0  0  0  0  0  0  0  0  0  0  0
   -0.6529    0.6187    0.0000 C   0  0  0  0  0  0  0  0  0  0  0  0
   -1.3673   -0.6187    0.0000 C   0  0  0  0  0  0  0  0  0  0  0  0
   -1.3673    1.0312    0.0000 C   0  0  0  0  0  0  0  0  0  0  0  0
   -2.0818   -0.2061    0.0000 C   0  0  0  0  0  0  0  0  0  0  0  0
   -2.0818    0.6187    0.0000 C   0  0  0  0  0  0  0  0  0  0  0  0
   -2.7962    1.0312    0.0000 C   0  0  0  0  0  0  0  0  0  0  0  0
   -2.7962   -0.6187    0.0000 C   0  0  0  0  0  0  0  0  0  0  0  0
    0.0615   -0.6187    0.0000 C   0  0  0  0  0  0  0  0  0  0  0  0
    0.0615    1.0312    0.0000 C   0  0  0  0  0  0  0  0  0  0  0  0
   -0.6529    1.4437    0.0000 O   0  0  0  0  0  0  0  0  0  0  0  0
    0.7759   -0.2061    0.0000 C   0  0  0  0  0  0  0  0  0  0  0  0
    0.0615   -1.4437    0.0000 N   0  0  0  0  0  0  0  0  0  0  0  0
   -1.3673    1.8562    0.0000 O   0  0  0  0  0  0  0  0  0  0  0  0
    0.7759    0.6187    0.0000 C   0  0  0  0  0  0  0  0  0  0  0  0
    0.0615    1.8562    0.0000 O   0  0  0  0  0  0  0  0  0  0  0  0
    1.4905   -0.6187    0.0000 O   0  0  0  0  0  0  0  0  0  0  0  0
    0.7759   -1.8562    0.0000 C   0  0  0  0  0  0  0  0  0  0  0  0
   -0.6529   -1.8562    0.0000 C   0  0  0  0  0  0  0  0  0  0  0  0
    1.4905    1.0312    0.0000 C   0  0  0  0  0  0  0  0  0  0  0  0
   -2.7962    1.8562    0.0000 O   0  0  0  0  0  0  0  0  0  0  0  0
    2.2048    0.6187    0.0000 N   0  0  0  0  0  0  0  0  0  0  0  0
    1.4905    1.8562    0.0000 O   0  0  0  0  0  0  0  0  0  0  0  0
   -4.2251   -0.6187    0.0000 C   0  0  0  0  0  0  0  0  0  0  0  0
   -4.2251    1.0312    0.0000 C   0  0  0  0  0  0  0  0  0  0  0  0
   -4.9396   -0.2061    0.0000 C   0  0  0  0  0  0  0  0  0  0  0  0
   -4.9396    0.6187    0.0000 C   0  0  0  0  0  0  0  0  0  0  0  0
   -4.2251    1.8562    0.0000 O   0  0  0  0  0  0  0  0  0  0  0  0
   -3.5106   -1.0312    0.0000 O   0  0  0  0  0  0  0  0  0  0  0  0
   -2.7962   -1.4437    0.0000 C   0  0  0  0  0  0  0  0  0  0  0  0
    2.9193    1.0312    0.0000 C   0  0  0  0  0  0  0  0  0  0  0  0
    3.6339    0.6186    0.0000 N   0  0  0  0  0  0  0  0  0  0  0  0
    4.3875    0.9542    0.0000 C   0  0  0  0  0  0  0  0  0  0  0  0
    3.7200   -0.2018    0.0000 C   0  0  0  0  0  0  0  0  0  0  0  0
    4.9396    0.3410    0.0000 C   0  0  0  0  0  0  0  0  0  0  0  0
    4.5272   -0.3733    0.0000 C   0  0  0  0  0  0  0  0  0  0  0  0
  1 26  1  0
  1  2  2  0
  2 27  1  0
  3 11  1  0
  3  4  1  0
  3  5  1  6
  4 12  1  0
  4 13  1  1
  4  6  1  0
  7  5  1  6
  6 16  1  0
  6  8  2  0
  7  8  1  0
  7 10  1  0
  8  9  1  0
  9  2  1  0
  9 23  2  0
 10  1  1  0
 10 32  1  1
 10 31  1  0
 11 14  1  0
 11 15  1  1
 12 17  1  0
 12 18  2  0
 14 19  1  0
 14 17  2  0
 15 20  1  0
 15 21  1  0
 17 22  1  0
 22 24  1  0
 22 25  2  0
 24 33  1  0
 26 28  2  0
 27 29  2  0
 27 30  1  0
 28 29  1  0
 33 34  1  0
 35 34  1  0
 36 34  1  0
 37 35  1  0
 38 36  1  0
 38 37  1  0
M  END
>  <DRUGBANK_ID>  (1) 
DB01301

>  <COMMON_NAME>  (1) 
Rolitetracycline

>  <CAS_NUMBER>  (1) 
751-97-3

>  <UNII>  (1) 
GH9IW85221

>  <SYNONYMS>  (1) 
N-(1-Pyrrolidinylmethyl)-tetracycline; N-(Pyrrolidinomethyl)tetracycline; Pyrrolidino-methyl-tetracycline; Rolitetraciclina; Rolitetracycline; Rolitetracyclinum

$$$$
