9IP
     RDKit          2D

 23 25  0  0  0  0  0  0  0  0999 V2000
    4.1914    3.2790    0.0000 C   0  0  0  0  0  0  0  0  0  0  0  0
    3.4769    2.8665    0.0000 O   0  0  0  0  0  0  0  0  0  0  0  0
    3.4769    2.0415    0.0000 C   0  0  0  0  0  0  0  0  0  0  0  0
    4.1914    1.6290    0.0000 C   0  0  0  0  0  0  0  0  0  0  0  0
    4.1914    0.8040    0.0000 N   0  0  0  0  0  0  0  0  0  0  0  0
    3.4769    0.3915    0.0000 C   0  0  0  0  0  0  0  0  0  0  0  0
    2.7625    0.8040    0.0000 C   0  0  0  0  0  0  0  0  0  0  0  0
    2.7625    1.6290    0.0000 C   0  0  0  0  0  0  0  0  0  0  0  0
    2.0480    0.3915    0.0000 C   0  0  0  0  0  0  0  0  0  0  0  0
    1.3335    0.8040    0.0000 C   0  0  0  0  0  0  0  0  0  0  0  0
    0.6191    0.3915    0.0000 C   0  0  0  0  0  0  0  0  0  0  0  0
    0.6191   -0.4335    0.0000 C   0  0  0  0  0  0  0  0  0  0  0  0
    1.3335   -0.8460    0.0000 C   0  0  0  0  0  0  0  0  0  0  0  0
    1.3335   -1.6710    0.0000 C   0  0  0  0  0  0  0  0  0  0  0  0
    0.6191   -2.0835    0.0000 N   0  0  0  0  0  0  0  0  0  0  0  0
    0.6191   -2.9085    0.0000 C   0  0  0  0  0  0  0  0  0  0  0  0
   -0.0954   -3.3210    0.0000 C   0  0  0  0  0  0  0  0  0  0  0  0
   -0.0954   -4.1460    0.0000 C   0  0  0  0  0  0  0  0  0  0  0  0
    0.6191   -4.5585    0.0000 C   0  0  0  0  0  0  0  0  0  0  0  0
    1.3335   -4.1460    0.0000 N   0  0  0  0  0  0  0  0  0  0  0  0
    1.3335   -3.3210    0.0000 C   0  0  0  0  0  0  0  0  0  0  0  0
    2.0480   -2.9085    0.0000 N   0  0  0  0  0  0  0  0  0  0  0  0
    2.0480   -0.4335    0.0000 C   0  0  0  0  0  0  0  0  0  0  0  0
  1  2  1  0
  2  3  1  0
  3  4  2  0
  3  8  1  0
  4  5  1  0
  5  6  2  0
  6  7  1  0
  7  8  2  0
  7  9  1  0
  9 23  1  0
  9 10  2  0
 10 11  1  0
 11 12  2  0
 12 13  1  0
 13 23  2  0
 13 14  1  0
 14 15  1  0
 15 16  1  0
 16 21  1  0
 16 17  2  0
 17 18  1  0
 18 19  2  0
 19 20  1  0
 20 21  2  0
 21 22  1  0
M  END
>  <DRUGBANK_ID>  (1) 
DB07303

>  <COMMON_NAME>  (1) 
N~3~-[3-(5-METHOXYPYRIDIN-3-YL)BENZYL]PYRIDINE-2,3-DIAMINE

$$$$
