
     RDKit          2D

 14 14  0  0  0  0  0  0  0  0999 V2000
   -2.5028    0.4113    0.0000 O   0  0  0  0  0  0  0  0  0  0  0  0
   -2.5053    1.2381    0.0000 C   0  0  0  0  0  0  0  0  0  0  0  0
   -0.3527   -0.0019    0.0000 C   0  0  0  0  0  0  0  0  0  0  0  0
   -1.0626    0.4113    0.0000 C   0  0  0  0  0  0  0  0  0  0  0  0
   -0.3527   -0.8194    0.0000 C   0  0  0  0  0  0  0  0  0  0  0  0
    0.3625    0.4092    0.0000 C   0  0  0  0  0  0  0  0  0  0  0  0
   -1.7817   -0.0019    0.0000 C   0  0  0  0  0  0  0  0  0  0  0  0
   -1.0626   -1.2382    0.0000 C   0  0  0  0  0  0  0  0  0  0  0  0
    1.0763   -0.0045    0.0000 C   0  0  0  0  0  0  0  0  0  0  0  0
   -1.7817   -0.8194    0.0000 C   0  0  0  0  0  0  0  0  0  0  0  0
    1.7915    0.4065    0.0000 C   0  0  0  0  0  0  0  0  0  0  0  0
   -2.5028   -1.2382    0.0000 O   0  0  0  0  0  0  0  0  0  0  0  0
    1.7930    1.2317    0.0000 O   0  0  0  0  0  0  0  0  0  0  0  0
    2.5053   -0.0072    0.0000 C   0  0  0  0  0  0  0  0  0  0  0  0
  1  2  1  0
  3  6  1  0
  3  4  2  0
  3  5  1  0
  4  7  1  0
  5  8  2  0
  6  9  1  0
  7 10  2  0
  7  1  1  0
  8 10  1  0
  9 11  1  0
 10 12  1  0
 11 13  2  0
 11 14  1  0
M  END
>  <DRUGBANK_ID>  (1) 
DB15589

>  <COMMON_NAME>  (1) 
Zingerone

>  <CAS_NUMBER>  (1) 
122-48-5

>  <UNII>  (1) 
4MMW850892

>  <SYNONYMS>  (1) 
Gingerone; Vanillyl acetone; Vanillylacetone; Zingerone; Zingherone; Zingiberone

$$$$
