
     RDKit          2D

 17 17  0  0  0  0  0  0  0  0999 V2000
   -2.1433    1.2375    0.0000 C   0  0  0  0  0  0  0  0  0  0  0  0
   -2.8579    0.8250    0.0000 C   0  0  0  0  0  0  0  0  0  0  0  0
   -2.8579    0.0000    0.0000 C   0  0  0  0  0  0  0  0  0  0  0  0
   -1.4288    0.8250    0.0000 C   0  0  0  0  0  0  0  0  0  0  0  0
   -0.7144    1.2375    0.0000 C   0  0  0  0  0  0  0  0  0  0  0  0
   -2.1433   -0.4125    0.0000 C   0  0  0  0  0  0  0  0  0  0  0  0
   -2.1433   -1.2375    0.0000 C   0  0  0  0  0  0  0  0  0  0  0  0
   -1.4288    0.0000    0.0000 C   0  0  0  0  0  0  0  0  0  0  0  0
   -0.7144   -0.4125    0.0000 N   0  0  0  0  0  0  0  0  0  0  0  0
    0.0000    0.0000    0.0000 C   0  0  0  0  0  0  0  0  0  0  0  0
    0.0000    0.8249    0.0000 O   0  0  0  0  0  0  0  0  0  0  0  0
    0.7145   -0.4125    0.0000 C   0  0  0  0  0  0  0  0  0  0  0  0
    1.4289    0.8249    0.0000 C   0  0  0  0  0  0  0  0  0  0  0  0
    2.1434    1.2374    0.0000 C   0  0  0  0  0  0  0  0  0  0  0  0
    1.4289    0.0000    0.0000 N   0  0  0  0  0  0  0  0  0  0  0  0
    2.1434   -0.4125    0.0000 C   0  0  0  0  0  0  0  0  0  0  0  0
    2.8579    0.0000    0.0000 C   0  0  0  0  0  0  0  0  0  0  0  0
  1  2  2  0
  1  4  1  0
  2  3  1  0
  3  6  2  0
  4  5  1  0
  6  8  1  0
  6  7  1  0
  8  4  2  0
  8  9  1  0
  9 10  1  0
 10 12  1  0
 10 11  2  0
 12 15  1  0
 13 14  1  0
 15 13  1  0
 15 16  1  0
 16 17  1  0
M  END
>  <DRUGBANK_ID>  (1) 
DB00281

>  <SECONDARY_ACCESSION_NUMBERS>  (1) 
APRD00479; DB05291

>  <COMMON_NAME>  (1) 
Lidocaine

>  <CAS_NUMBER>  (1) 
137-58-6

>  <UNII>  (1) 
98PI200987

>  <SYNONYMS>  (1) 
2-(Diethylamino)-2',6'-acetoxylidide; 2-(Diethylamino)-N-(2,6-dimethylphenyl)acetamide; alpha-diethylamino-2,6-dimethylacetanilide; Lidocaína; Lidocaina; Lidocaine; Lidocainum; Lignocaine; α-diethylamino-2,6-dimethylacetanilide

$$$$
