
     RDKit          2D

 28 30  0  0  0  0  0  0  0  0999 V2000
   -1.4141    0.6230    0.0000 C   0  0  0  0  0  0  0  0  0  0  0  0
   -0.7004    0.2095    0.0000 C   0  0  0  0  0  0  0  0  0  0  0  0
    0.0132    0.6229    0.0000 C   0  0  0  0  0  0  0  0  0  0  0  0
    0.0149    1.4441    0.0000 C   0  0  0  0  0  0  0  0  0  0  0  0
   -0.6988    1.8576    0.0000 C   0  0  0  0  0  0  0  0  0  0  0  0
   -1.4141    1.4498    0.0000 C   0  0  0  0  0  0  0  0  0  0  0  0
    0.7274    1.8565    0.0000 C   0  0  0  0  0  0  0  0  0  0  0  0
    1.4425    1.4480    0.0000 C   0  0  0  0  0  0  0  0  0  0  0  0
    2.1552    1.8603    0.0000 C   0  0  0  0  0  0  0  0  0  0  0  0
    2.1516    2.6824    0.0000 C   0  0  0  0  0  0  0  0  0  0  0  0
    2.8685    3.0989    0.0000 C   0  0  0  0  0  0  0  0  0  0  0  0
    3.5834    2.6864    0.0000 C   0  0  0  0  0  0  0  0  0  0  0  0
    3.5857    1.8614    0.0000 C   0  0  0  0  0  0  0  0  0  0  0  0
    2.8731    1.4491    0.0000 C   0  0  0  0  0  0  0  0  0  0  0  0
   -2.1273    1.8644    0.0000 O   0  0  0  0  0  0  0  0  0  0  0  0
    4.2960    3.1027    0.0000 O   0  0  0  0  0  0  0  0  0  0  0  0
   -1.4187   -1.0327    0.0000 C   0  0  0  0  0  0  0  0  0  0  0  0
   -2.1393   -0.6134    0.0000 O   0  0  0  0  0  0  0  0  0  0  0  0
   -1.4187   -1.8596    0.0000 C   0  0  0  0  0  0  0  0  0  0  0  0
   -2.8594   -1.0327    0.0000 C   0  0  0  0  0  0  0  0  0  0  0  0
   -2.1393   -2.2753    0.0000 C   0  0  0  0  0  0  0  0  0  0  0  0
   -0.6987   -2.2719    0.0000 O   0  0  0  0  0  0  0  0  0  0  0  0
   -2.8594   -1.8596    0.0000 C   0  0  0  0  0  0  0  0  0  0  0  0
   -3.5761   -0.6168    0.0000 C   0  0  0  0  0  0  0  0  0  0  0  0
   -2.1359   -3.1027    0.0000 O   0  0  0  0  0  0  0  0  0  0  0  0
   -3.5761   -2.2753    0.0000 O   0  0  0  0  0  0  0  0  0  0  0  0
   -4.2960   -1.0321    0.0000 O   0  0  0  0  0  0  0  0  0  0  0  0
   -0.7004   -0.6155    0.0000 O   0  0  0  0  0  0  0  0  0  0  0  0
  1  2  2  0
  2  3  1  0
  2 28  1  0
  3  4  2  0
  4  7  1  0
  4  5  1  0
  5  6  2  0
  6 15  1  0
  6  1  1  0
  7  8  2  0
  8  9  1  0
  9 10  2  0
 10 11  1  0
 11 12  2  0
 12 16  1  0
 12 13  1  0
 13 14  2  0
 14  9  1  0
 17 28  1  1
 17 18  1  0
 17 19  1  0
 18 20  1  0
 19 21  1  0
 19 22  1  6
 20 23  1  0
 20 24  1  1
 21 25  1  1
 21 23  1  0
 23 26  1  6
 24 27  1  0
M  END
>  <DRUGBANK_ID>  (1) 
DB11263

>  <COMMON_NAME>  (1) 
Polydatin

>  <CAS_NUMBER>  (1) 
27208-80-6

>  <UNII>  (1) 
XM261C37CQ

>  <SYNONYMS>  (1) 
3,4,5-Trihydroxystilbene-3-beta-monoglucoside; 3,4',5-trihydroxystilbene-3-β-d-glucoside; Piceid; Polydatin (E)-isomer; Resveratrol 3-O-beta-glucopyranoside; resveratrol-3-O-b-mono-D-glucoside; trans-piceid; trans-resveratrol 3-O-β-D-glucoside; trans-resveratrol 3-β-D-glucoside; trans-resveratrol 3-β-glucoside

$$$$
