A25
     RDKit          2D

 24 26  0  0  0  0  0  0  0  0999 V2000
    0.3404   -2.1879    0.0000 C   0  0  0  0  0  0  0  0  0  0  0  0
   -0.3953   -1.8147    0.0000 C   0  0  0  0  0  0  0  0  0  0  0  0
   -0.4400   -0.9909    0.0000 C   0  0  0  0  0  0  0  0  0  0  0  0
    0.2511   -0.5403    0.0000 C   0  0  0  0  0  0  0  0  0  0  0  0
    0.9869   -0.9136    0.0000 C   0  0  0  0  0  0  0  0  0  0  0  0
    1.0316   -1.7373    0.0000 C   0  0  0  0  0  0  0  0  0  0  0  0
    1.6780   -0.4629    0.0000 Cl  0  0  0  0  0  0  0  0  0  0  0  0
    0.1633   -2.4219    0.0000 O   0  0  0  0  0  0  0  0  0  0  0  0
   -0.2415   -3.1408    0.0000 C   0  0  0  0  0  0  0  0  0  0  0  0
   -1.1632   -0.5084    0.0000 N   0  0  0  0  0  0  0  0  0  0  0  0
   -1.8732   -0.9286    0.0000 C   0  0  0  0  0  0  0  0  0  0  0  0
   -2.5921   -0.5237    0.0000 N   0  0  0  0  0  0  0  0  0  0  0  0
   -1.8643   -1.7536    0.0000 O   0  0  0  0  0  0  0  0  0  0  0  0
   -3.3021   -0.9440    0.0000 C   0  0  0  0  0  0  0  0  0  0  0  0
   -3.2933   -1.7689    0.0000 N   0  0  0  0  0  0  0  0  0  0  0  0
   -4.0034   -2.1891    0.0000 C   0  0  0  0  0  0  0  0  0  0  0  0
   -4.7222   -1.7843    0.0000 C   0  0  0  0  0  0  0  0  0  0  0  0
   -4.7311   -0.9594    0.0000 N   0  0  0  0  0  0  0  0  0  0  0  0
   -4.0211   -0.5391    0.0000 C   0  0  0  0  0  0  0  0  0  0  0  0
   -3.9945   -3.0141    0.0000 O   0  0  0  0  0  0  0  0  0  0  0  0
   -3.2755   -3.4189    0.0000 C   0  0  0  0  0  0  0  0  0  0  0  0
   -2.5655   -2.9988    0.0000 C   0  0  0  0  0  0  0  0  0  0  0  0
   -1.0504   -2.9780    0.0000 C   0  0  0  0  0  0  0  0  0  0  0  0
   -1.8466   -3.4036    0.0000 C   0  0  0  0  0  0  0  0  0  0  0  0
  1  2  2  0
  1  6  1  0
  2  8  1  0
  2  3  1  0
  3  4  2  0
  3 10  1  0
  4  5  1  0
  5  6  2  0
  5  7  1  0
  8  9  1  0
  9 23  1  0
 10 11  1  0
 11 13  2  0
 11 12  1  0
 12 14  1  0
 14 19  2  0
 14 15  1  0
 15 16  2  0
 16 17  1  0
 16 20  1  0
 17 18  2  0
 18 19  1  0
 20 21  1  0
 21 22  1  0
 22 24  1  0
 23 24  1  0
M  END
>  <DRUGBANK_ID>  (1) 
DB07311

>  <COMMON_NAME>  (1) 
18-CHLORO-11,12,13,14-TETRAHYDRO-1H,10H-8,4-(AZENO)-9,15,1,3,6-BENZODIOXATRIAZACYCLOHEPTADECIN-2-ONE

$$$$
