
     RDKit          2D

 37 40  0  0  0  0  0  0  0  0999 V2000
   -4.3973    0.0552    0.0000 C   0  0  0  0  0  0  0  0  0  0  0  0
   -5.1118    0.4676    0.0000 C   0  0  0  0  0  0  0  0  0  0  0  0
   -5.8263    0.0551    0.0000 C   0  0  0  0  0  0  0  0  0  0  0  0
   -5.8263   -0.7698    0.0000 C   0  0  0  0  0  0  0  0  0  0  0  0
   -5.1118   -1.1823    0.0000 C   0  0  0  0  0  0  0  0  0  0  0  0
   -4.3973   -0.7697    0.0000 C   0  0  0  0  0  0  0  0  0  0  0  0
   -6.5408    0.4676    0.0000 Cl  0  0  0  0  0  0  0  0  0  0  0  0
   -6.5408   -1.1823    0.0000 N   0  0  0  0  0  0  0  0  0  0  0  0
   -3.6829    0.4677    0.0000 C   0  0  0  0  0  0  0  0  0  0  0  0
   -3.6829    1.2927    0.0000 O   0  0  0  0  0  0  0  0  0  0  0  0
   -2.9684    0.0552    0.0000 N   0  0  0  0  0  0  0  0  0  0  0  0
   -3.6829   -1.1822    0.0000 O   0  0  0  0  0  0  0  0  0  0  0  0
   -2.2539    0.4677    0.0000 C   0  0  0  0  0  0  0  0  0  0  0  0
   -1.5395    1.7052    0.0000 C   0  0  0  0  0  0  0  0  0  0  0  0
   -2.2539    1.2927    0.0000 C   0  0  0  0  0  0  0  0  0  0  0  0
   -1.5395    0.0551    0.0000 C   0  0  0  0  0  0  0  0  0  0  0  0
   -0.8250    0.4677    0.0000 C   0  0  0  0  0  0  0  0  0  0  0  0
   -0.8250    1.2927    0.0000 N   0  0  0  0  0  0  0  0  0  0  0  0
   -0.9561   -0.5281    0.0000 O   0  0  0  0  0  0  0  0  0  0  0  0
   -0.1105    1.7052    0.0000 C   0  0  0  0  0  0  0  0  0  0  0  0
    0.6039    1.2927    0.0000 C   0  0  0  0  0  0  0  0  0  0  0  0
    1.3184    1.7052    0.0000 C   0  0  0  0  0  0  0  0  0  0  0  0
    2.0328    1.2927    0.0000 C   0  0  0  0  0  0  0  0  0  0  0  0
    2.7474    1.7052    0.0000 C   0  0  0  0  0  0  0  0  0  0  0  0
    3.4618    1.2927    0.0000 C   0  0  0  0  0  0  0  0  0  0  0  0
    4.1762    1.7052    0.0000 O   0  0  0  0  0  0  0  0  0  0  0  0
    3.4618    0.4677    0.0000 O   0  0  0  0  0  0  0  0  0  0  0  0
    4.8907    1.2927    0.0000 C   0  0  0  0  0  0  0  0  0  0  0  0
    5.3033    0.5782    0.0000 C   0  0  0  0  0  0  0  0  0  0  0  0
    6.1282    0.5782    0.0000 N   0  0  0  0  0  0  0  0  0  0  0  0
    6.5408    1.2927    0.0000 C   0  0  0  0  0  0  0  0  0  0  0  0
    6.1282    2.0071    0.0000 C   0  0  0  0  0  0  0  0  0  0  0  0
    5.3033    2.0071    0.0000 C   0  0  0  0  0  0  0  0  0  0  0  0
    6.0178    1.5946    0.0000 C   0  0  0  0  0  0  0  0  0  0  0  0
    5.4344    1.0113    0.0000 C   0  0  0  0  0  0  0  0  0  0  0  0
   -3.6829   -2.0072    0.0000 C   0  0  0  0  0  0  0  0  0  0  0  0
   -0.1592   -0.3145    0.0000 C   0  0  0  0  0  0  0  0  0  0  0  0
  1  2  2  0
  1  6  1  0
  1  9  1  0
  2  3  1  0
  3  4  2  0
  3  7  1  0
  4  5  1  0
  4  8  1  0
  5  6  2  0
  6 12  1  0
  9 10  2  0
  9 11  1  0
 12 36  1  0
 13 11  1  6
 13 16  1  0
 14 15  1  0
 14 18  1  0
 15 13  1  0
 16 17  1  0
 16 19  1  6
 17 18  1  0
 18 20  1  0
 19 37  1  0
 20 21  1  0
 21 22  1  0
 22 23  1  0
 23 24  1  0
 24 25  1  0
 25 26  1  0
 25 27  2  0
 28 26  1  6
 28 29  1  0
 28 33  1  0
 29 30  1  0
 30 31  1  0
 31 32  1  0
 32 33  1  0
 33 34  1  0
 34 35  1  0
 35 30  1  0
M  END
>  <DRUGBANK_ID>  (1) 
DB05542

>  <COMMON_NAME>  (1) 
Naronapride

>  <CAS_NUMBER>  (1) 
860174-12-5

>  <UNII>  (1) 
058896B00B

>  <SYNONYMS>  (1) 
Naronapride

$$$$
