
     RDKit          2D

 34 33  0  0  0  0  0  0  0  0999 V2000
   -0.7251    0.1989    0.0000 C   0  0  0  0  0  0  0  0  0  0  0  0
   -0.0001    0.5966    0.0000 O   0  0  0  0  0  0  0  0  0  0  0  0
   -1.4269    0.6198    0.0000 C   0  0  0  0  0  0  0  0  0  0  0  0
   -0.7251   -0.6198    0.0000 O   0  0  0  0  0  0  0  0  0  0  0  0
    0.7173    0.1989    0.0000 C   0  0  0  0  0  0  0  0  0  0  0  0
   -2.1441    0.1989    0.0000 C   0  0  0  0  0  0  0  0  0  0  0  0
    1.4269    0.5966    0.0000 C   0  0  0  0  0  0  0  0  0  0  0  0
   -2.8693    0.6198    0.0000 C   0  0  0  0  0  0  0  0  0  0  0  0
    2.1520    0.1989    0.0000 C   0  0  0  0  0  0  0  0  0  0  0  0
   -3.5868    0.1989    0.0000 C   0  0  0  0  0  0  0  0  0  0  0  0
    2.8693    0.5966    0.0000 C   0  0  0  0  0  0  0  0  0  0  0  0
   -4.2963    0.6198    0.0000 C   0  0  0  0  0  0  0  0  0  0  0  0
    3.5711    0.1989    0.0000 C   0  0  0  0  0  0  0  0  0  0  0  0
   -5.0213    0.1989    0.0000 C   0  0  0  0  0  0  0  0  0  0  0  0
    4.2961    0.5966    0.0000 C   0  0  0  0  0  0  0  0  0  0  0  0
   -5.7309    0.6198    0.0000 C   0  0  0  0  0  0  0  0  0  0  0  0
    4.9901    0.1989    0.0000 C   0  0  0  0  0  0  0  0  0  0  0  0
   -6.4404    0.1989    0.0000 C   0  0  0  0  0  0  0  0  0  0  0  0
    5.7232    0.5966    0.0000 C   0  0  0  0  0  0  0  0  0  0  0  0
   -7.1656    0.6198    0.0000 C   0  0  0  0  0  0  0  0  0  0  0  0
    6.4483    0.1989    0.0000 C   0  0  0  0  0  0  0  0  0  0  0  0
   -7.8831    0.1989    0.0000 C   0  0  0  0  0  0  0  0  0  0  0  0
    7.1656    0.5966    0.0000 C   0  0  0  0  0  0  0  0  0  0  0  0
   -8.5926    0.6198    0.0000 C   0  0  0  0  0  0  0  0  0  0  0  0
    7.8675    0.1989    0.0000 C   0  0  0  0  0  0  0  0  0  0  0  0
   -9.3176    0.1989    0.0000 C   0  0  0  0  0  0  0  0  0  0  0  0
    8.5924    0.5966    0.0000 C   0  0  0  0  0  0  0  0  0  0  0  0
  -10.0195    0.6198    0.0000 C   0  0  0  0  0  0  0  0  0  0  0  0
    9.3098    0.1989    0.0000 C   0  0  0  0  0  0  0  0  0  0  0  0
  -10.7603    0.1989    0.0000 C   0  0  0  0  0  0  0  0  0  0  0  0
   10.0195    0.5966    0.0000 C   0  0  0  0  0  0  0  0  0  0  0  0
  -11.4619    0.6198    0.0000 C   0  0  0  0  0  0  0  0  0  0  0  0
   10.7446    0.1989    0.0000 C   0  0  0  0  0  0  0  0  0  0  0  0
   11.4619    0.5966    0.0000 C   0  0  0  0  0  0  0  0  0  0  0  0
  1  2  1  0
  1  3  1  0
  1  4  2  0
  2  5  1  0
  3  6  1  0
  5  7  1  0
  6  8  1  0
  7  9  1  0
  8 10  1  0
  9 11  1  0
 10 12  1  0
 11 13  1  0
 12 14  1  0
 13 15  1  0
 14 16  1  0
 15 17  1  0
 16 18  1  0
 17 19  1  0
 18 20  1  0
 19 21  1  0
 20 22  1  0
 21 23  1  0
 22 24  1  0
 23 25  1  0
 24 26  1  0
 25 27  1  0
 26 28  1  0
 27 29  1  0
 28 30  1  0
 29 31  1  0
 30 32  1  0
 31 33  1  0
 33 34  1  0
M  END
>  <DRUGBANK_ID>  (1) 
DB15782

>  <COMMON_NAME>  (1) 
Cetyl palmitate

>  <CAS_NUMBER>  (1) 
540-10-3

>  <UNII>  (1) 
5ZA2S6B08X

>  <SYNONYMS>  (1) 
Hexadecanoic acid, hexadecyl ester; Hexadecyl palmitate; n-Hexadecyl hexadecanoate; Palmityl palmitate

$$$$
