
     RDKit          2D

 42 46  0  0  0  0  0  0  0  0999 V2000
   -8.7354    2.7742    0.0000 C   0  0  0  0  0  0  0  0  0  0  0  0
    8.8006    0.7206    0.0000 C   0  0  0  0  0  0  0  0  0  0  0  0
   -7.9361   -2.7742    0.0000 C   0  0  0  0  0  0  0  0  0  0  0  0
   -8.8006   -0.4599    0.0000 C   0  0  0  0  0  0  0  0  0  0  0  0
   -8.5371   -1.2447    0.0000 C   0  0  0  0  0  0  0  0  0  0  0  0
   -5.4801    1.5394    0.0000 C   0  0  0  0  0  0  0  0  0  0  0  0
   -6.2223    1.8822    0.0000 C   0  0  0  0  0  0  0  0  0  0  0  0
   -6.7540    1.8003    0.0000 C   0  0  0  0  0  0  0  0  0  0  0  0
   -7.2758    2.5238    0.0000 C   0  0  0  0  0  0  0  0  0  0  0  0
    7.3717    0.7206    0.0000 C   0  0  0  0  0  0  0  0  0  0  0  0
    6.6572    0.3081    0.0000 C   0  0  0  0  0  0  0  0  0  0  0  0
    5.2283    0.3081    0.0000 C   0  0  0  0  0  0  0  0  0  0  0  0
    4.5138    0.7206    0.0000 C   0  0  0  0  0  0  0  0  0  0  0  0
    3.0849    0.7206    0.0000 C   0  0  0  0  0  0  0  0  0  0  0  0
    2.3704    0.3081    0.0000 C   0  0  0  0  0  0  0  0  0  0  0  0
    0.9415    0.3081    0.0000 C   0  0  0  0  0  0  0  0  0  0  0  0
    0.2270    0.7206    0.0000 C   0  0  0  0  0  0  0  0  0  0  0  0
   -1.2018    0.7206    0.0000 C   0  0  0  0  0  0  0  0  0  0  0  0
   -1.9163    0.3081    0.0000 C   0  0  0  0  0  0  0  0  0  0  0  0
   -3.3453    0.3081    0.0000 C   0  0  0  0  0  0  0  0  0  0  0  0
   -4.0597    0.7206    0.0000 C   0  0  0  0  0  0  0  0  0  0  0  0
   -8.5752    0.8820    0.0000 C   0  0  0  0  0  0  0  0  0  0  0  0
   -8.2526    0.1527    0.0000 C   0  0  0  0  0  0  0  0  0  0  0  0
   -7.7110   -1.3631    0.0000 C   0  0  0  0  0  0  0  0  0  0  0  0
   -5.4887    0.7206    0.0000 C   0  0  0  0  0  0  0  0  0  0  0  0
   -8.0190    1.4876    0.0000 C   0  0  0  0  0  0  0  0  0  0  0  0
   -7.4545    0.0553    0.0000 C   0  0  0  0  0  0  0  0  0  0  0  0
   -7.1594   -0.7050    0.0000 C   0  0  0  0  0  0  0  0  0  0  0  0
   -6.2147    0.2913    0.0000 C   0  0  0  0  0  0  0  0  0  0  0  0
   -6.9335    0.7702    0.0000 C   0  0  0  0  0  0  0  0  0  0  0  0
   -7.0336    1.3386    0.0000 C   0  0  0  0  0  0  0  0  0  0  0  0
   -8.0628    2.2964    0.0000 N   0  0  0  0  0  0  0  0  0  0  0  0
   -7.2138    2.1437    0.0000 O   0  0  0  0  0  0  0  0  0  0  0  0
    8.0862    0.3081    0.0000 O   0  0  0  0  0  0  0  0  0  0  0  0
   -7.4162   -2.1337    0.0000 O   0  0  0  0  0  0  0  0  0  0  0  0
    5.9428    0.7206    0.0000 O   0  0  0  0  0  0  0  0  0  0  0  0
    3.7994    0.3081    0.0000 O   0  0  0  0  0  0  0  0  0  0  0  0
    1.6559    0.7206    0.0000 O   0  0  0  0  0  0  0  0  0  0  0  0
   -0.4874    0.3081    0.0000 O   0  0  0  0  0  0  0  0  0  0  0  0
   -2.6308    0.7206    0.0000 O   0  0  0  0  0  0  0  0  0  0  0  0
   -4.7742    0.3081    0.0000 O   0  0  0  0  0  0  0  0  0  0  0  0
   -6.3444   -0.5339    0.0000 O   0  0  0  0  0  0  0  0  0  0  0  0
  5  4  2  0
  7  6  1  0
  9  8  1  0
 11 10  1  0
 13 12  1  0
 15 14  1  0
 17 16  1  0
 19 18  1  0
 21 20  1  0
 23  4  1  0
 23 22  1  0
 24  5  1  0
 25  6  1  0
 25 41  1  6
 26 22  1  1
 26 32  1  0
 27 23  2  0
 28 24  2  0
 28 27  1  0
 29 25  1  0
 29 30  1  0
 29 42  1  6
 30  8  1  1
 30 27  1  0
 30 31  1  0
 31  7  1  0
 31 26  1  0
 31 33  1  1
 32  1  1  0
 32  9  1  0
 34  2  1  0
 34 10  1  0
 35  3  1  0
 35 24  1  0
 36 11  1  0
 36 12  1  0
 37 13  1  0
 37 14  1  0
 38 15  1  0
 38 16  1  0
 39 17  1  0
 39 18  1  0
 40 19  1  0
 40 20  1  0
 41 21  1  0
 42 28  1  0
M  END
>  <DRUGBANK_ID>  (1) 
DB14146

>  <COMMON_NAME>  (1) 
Loxicodegol

>  <CAS_NUMBER>  (1) 
1211231-76-3

>  <UNII>  (1) 
J2WIV0JMML

$$$$
