
     RDKit          2D

 24 26  0  0  0  0  0  0  0  0999 V2000
   -1.5255   -3.0924    0.0000 O   0  0  0  0  0  0  0  0  0  0  0  0
   -1.6075   -2.2680    0.0000 C   0  0  0  0  0  0  0  0  0  0  0  0
   -2.3500   -1.9373    0.0000 O   0  0  0  0  0  0  0  0  0  0  0  0
    0.7831    3.0924    0.0000 O   0  0  0  0  0  0  0  0  0  0  0  0
    1.1957    2.3500    0.0000 C   0  0  0  0  0  0  0  0  0  0  0  0
    2.1030    2.4328    0.0000 O   0  0  0  0  0  0  0  0  0  0  0  0
   -1.5255    1.5255    0.0000 O   0  0  0  0  0  0  0  0  0  0  0  0
   -1.1128    0.7831    0.0000 C   0  0  0  0  0  0  0  0  0  0  0  0
   -1.6904    0.1234    0.0000 O   0  0  0  0  0  0  0  0  0  0  0  0
    1.6904   -1.9373    0.0000 O   0  0  0  0  0  0  0  0  0  0  0  0
    1.1957   -1.2778    0.0000 C   0  0  0  0  0  0  0  0  0  0  0  0
    1.5255   -0.5353    0.0000 C   0  0  0  0  0  0  0  0  0  0  0  0
    2.3500   -0.4533    0.0000 O   0  0  0  0  0  0  0  0  0  0  0  0
    0.3704   -1.3606    0.0000 C   0  0  0  0  0  0  0  0  0  0  0  0
   -0.1234   -0.7002    0.0000 C   0  0  0  0  0  0  0  0  0  0  0  0
   -0.9479   -0.9479    0.0000 N   0  0  0  0  0  0  0  0  0  0  0  0
   -0.9479   -1.7724    0.0000 C   0  0  0  0  0  0  0  0  0  0  0  0
   -0.1234   -2.0201    0.0000 C   0  0  0  0  0  0  0  0  0  0  0  0
    0.2055    0.0406    0.0000 C   0  0  0  0  0  0  0  0  0  0  0  0
    1.0308    0.2055    0.0000 C   0  0  0  0  0  0  0  0  0  0  0  0
    1.3606    0.9479    0.0000 N   0  0  0  0  0  0  0  0  0  0  0  0
    0.8659    1.6075    0.0000 C   0  0  0  0  0  0  0  0  0  0  0  0
    0.0414    1.5255    0.0000 C   0  0  0  0  0  0  0  0  0  0  0  0
   -0.2884    0.7831    0.0000 C   0  0  0  0  0  0  0  0  0  0  0  0
  1  2  1  0
  2  3  2  0
  2 17  1  0
  4  5  2  0
  5  6  1  0
  5 22  1  0
  7  8  2  0
  8  9  1  0
  8 24  1  0
 10 11  2  0
 11 12  1  0
 11 14  1  0
 12 13  2  0
 12 20  1  0
 14 15  2  0
 14 18  1  0
 15 16  1  0
 15 19  1  0
 16 17  1  0
 17 18  2  0
 19 20  2  0
 19 24  1  0
 20 21  1  0
 21 22  2  0
 22 23  1  0
 23 24  2  0
M  END
>  <DRUGBANK_ID>  (1) 
DB03205

>  <SECONDARY_ACCESSION_NUMBERS>  (1) 
EXPT02652

>  <COMMON_NAME>  (1) 
Pyrroloquinoline Quinone

>  <CAS_NUMBER>  (1) 
72909-34-3

>  <UNII>  (1) 
47819QGH5L

$$$$
