
     RDKit          2D

 24 24  0  0  0  0  0  0  0  0999 V2000
   -4.9963    0.1900    0.0000 C   0  0  0  0  0  0  0  0  0  0  0  0
   -4.9963   -0.6367    0.0000 C   0  0  0  0  0  0  0  0  0  0  0  0
   -4.2827   -1.0460    0.0000 C   0  0  0  0  0  0  0  0  0  0  0  0
   -3.5691   -0.6367    0.0000 C   0  0  0  0  0  0  0  0  0  0  0  0
   -3.5691    0.1900    0.0000 C   0  0  0  0  0  0  0  0  0  0  0  0
   -4.2827    0.6076    0.0000 C   0  0  0  0  0  0  0  0  0  0  0  0
   -2.8582    0.5992    0.0000 C   0  0  0  0  0  0  0  0  0  0  0  0
   -2.1441    0.1858    0.0000 C   0  0  0  0  0  0  0  0  0  0  0  0
   -1.4302    0.5950    0.0000 C   0  0  0  0  0  0  0  0  0  0  0  0
   -0.7161    0.1816    0.0000 C   0  0  0  0  0  0  0  0  0  0  0  0
   -0.0020    0.5909    0.0000 C   0  0  0  0  0  0  0  0  0  0  0  0
    0.7120    0.1775    0.0000 C   0  0  0  0  0  0  0  0  0  0  0  0
    1.4260    0.5867    0.0000 C   0  0  0  0  0  0  0  0  0  0  0  0
    2.1400    0.1733    0.0000 C   0  0  0  0  0  0  0  0  0  0  0  0
    2.8541    0.5825    0.0000 C   0  0  0  0  0  0  0  0  0  0  0  0
    3.5682    0.1690    0.0000 N   0  0  0  0  0  0  0  0  0  0  0  0
   -4.2827    1.4344    0.0000 C   0  0  0  0  0  0  0  0  0  0  0  0
   -3.3678   -1.4344    0.0000 C   0  0  0  0  0  0  0  0  0  0  0  0
   -2.7497   -0.6326    0.0000 C   0  0  0  0  0  0  0  0  0  0  0  0
   -1.4284    1.4218    0.0000 C   0  0  0  0  0  0  0  0  0  0  0  0
    1.4218    1.4093    0.0000 C   0  0  0  0  0  0  0  0  0  0  0  0
    2.8559    1.4093    0.0000 O   0  0  0  0  0  0  0  0  0  0  0  0
    4.2823    0.5825    0.0000 C   0  0  0  0  0  0  0  0  0  0  0  0
    4.9963    0.1690    0.0000 C   0  0  0  0  0  0  0  0  0  0  0  0
  1  2  1  0
  1  6  1  0
  2  3  1  0
  3  4  1  0
  4 18  1  0
  4 19  1  0
  4  5  1  0
  5  6  2  0
  5  7  1  0
  6 17  1  0
  7  8  2  0
  8  9  1  0
  9 20  1  0
  9 10  2  0
 10 11  1  0
 11 12  2  0
 12 13  1  0
 13 14  2  0
 13 21  1  0
 14 15  1  0
 15 16  1  0
 15 22  2  0
 16 23  1  0
 23 24  1  0
M  END
>  <DRUGBANK_ID>  (1) 
DB03917

>  <SECONDARY_ACCESSION_NUMBERS>  (1) 
EXPT01372

>  <COMMON_NAME>  (1) 
N-Ethylretinamide

>  <CAS_NUMBER>  (1) 
33631-41-3

>  <UNII>  (1) 
6LM987K76Y

>  <SYNONYMS>  (1) 
all-trans-N-Ethylretinamide; Ethyl retinamide; Vitamin A acid ethylamide

$$$$
