PTG
     RDKit          2D

 23 23  0  0  0  0  0  0  0  0999 V2000
   -3.9683   -3.3131    0.0000 C   0  0  0  0  0  0  0  0  0  0  0  0
   -3.1837   -3.0582    0.0000 C   0  0  0  0  0  0  0  0  0  0  0  0
   -3.0122   -2.2512    0.0000 C   0  0  0  0  0  0  0  0  0  0  0  0
   -2.2275   -1.9963    0.0000 C   0  0  0  0  0  0  0  0  0  0  0  0
   -2.0560   -1.1893    0.0000 C   0  0  0  0  0  0  0  0  0  0  0  0
   -1.2714   -0.9344    0.0000 C   0  0  0  0  0  0  0  0  0  0  0  0
   -1.0999   -0.1274    0.0000 C   0  0  0  0  0  0  0  0  0  0  0  0
   -0.3153    0.1275    0.0000 C   0  0  0  0  0  0  0  0  0  0  0  0
   -0.1437    0.9345    0.0000 C   0  0  0  0  0  0  0  0  0  0  0  0
   -0.6958    1.5476    0.0000 C   0  0  0  0  0  0  0  0  0  0  0  0
   -1.5162    1.4614    0.0000 O   0  0  0  0  0  0  0  0  0  0  0  0
   -0.2833    2.2621    0.0000 C   0  0  0  0  0  0  0  0  0  0  0  0
    0.5237    2.0905    0.0000 C   0  0  0  0  0  0  0  0  0  0  0  0
    0.6100    1.2701    0.0000 C   0  0  0  0  0  0  0  0  0  0  0  0
    1.3244    0.8576    0.0000 C   0  0  0  0  0  0  0  0  0  0  0  0
    2.0389    1.2701    0.0000 C   0  0  0  0  0  0  0  0  0  0  0  0
    2.7534    0.8576    0.0000 C   0  0  0  0  0  0  0  0  0  0  0  0
    3.4678    1.2701    0.0000 C   0  0  0  0  0  0  0  0  0  0  0  0
    4.1823    0.8576    0.0000 C   0  0  0  0  0  0  0  0  0  0  0  0
    4.8968    1.2701    0.0000 C   0  0  0  0  0  0  0  0  0  0  0  0
    5.6112    0.8576    0.0000 C   0  0  0  0  0  0  0  0  0  0  0  0
    6.3257    1.2701    0.0000 O   0  0  0  0  0  0  0  0  0  0  0  0
    5.6112    0.0326    0.0000 O   0  0  0  0  0  0  0  0  0  0  0  0
  1  2  1  0
  2  3  1  0
  3  4  1  0
  4  5  1  0
  5  6  1  0
  6  7  2  0
  7  8  1  0
  8  9  2  0
  9 10  1  0
  9 14  1  0
 10 11  2  0
 12 13  2  0
 12 10  1  0
 13 14  1  0
 14 15  1  6
 15 16  1  0
 16 17  2  0
 17 18  1  0
 18 19  1  0
 19 20  1  0
 20 21  1  0
 21 22  2  0
 21 23  1  0
M  END
>  <DRUGBANK_ID>  (1) 
DB08435

>  <COMMON_NAME>  (1) 
(5E,14E)-11-oxoprosta-5,9,12,14-tetraen-1-oic acid

$$$$
