236
     RDKit          2D

 16 16  0  0  0  0  0  0  0  0999 V2000
    1.6500   -3.3000    0.0000 Br  0  0  0  0  0  0  0  0  0  0  0  0
    4.5079    3.3000    0.0000 Br  0  0  0  0  0  0  0  0  0  0  0  0
    3.7935   -2.0625    0.0000 O   0  0  0  0  0  0  0  0  0  0  0  0
    2.3645    2.0625    0.0000 O   0  0  0  0  0  0  0  0  0  0  0  0
    3.0790   -0.8250    0.0000 N   0  0  0  0  0  0  0  0  0  0  0  0
    3.0790    0.8250    0.0000 N   0  0  0  0  0  0  0  0  0  0  0  0
    3.7935   -0.4125    0.0000 C   0  0  0  0  0  0  0  0  0  0  0  0
    2.3645   -0.4125    0.0000 C   0  0  0  0  0  0  0  0  0  0  0  0
    3.7935    0.4125    0.0000 C   0  0  0  0  0  0  0  0  0  0  0  0
    2.3645    0.4125    0.0000 C   0  0  0  0  0  0  0  0  0  0  0  0
    3.0790   -1.6500    0.0000 C   0  0  0  0  0  0  0  0  0  0  0  0
    3.0790    1.6500    0.0000 C   0  0  0  0  0  0  0  0  0  0  0  0
    2.3645   -2.0625    0.0000 C   0  0  0  0  0  0  0  0  0  0  0  0
    3.7935    2.0625    0.0000 C   0  0  0  0  0  0  0  0  0  0  0  0
    2.3645   -2.8875    0.0000 C   0  0  0  0  0  0  0  0  0  0  0  0
    3.7935    2.8875    0.0000 C   0  0  0  0  0  0  0  0  0  0  0  0
  1 15  1  0
  2 16  1  0
  3 11  2  0
  4 12  2  0
  5  7  1  0
  5  8  1  0
  5 11  1  0
  6  9  1  0
  6 10  1  0
  6 12  1  0
  7  9  1  0
  8 10  1  0
 11 13  1  0
 12 14  1  0
 13 15  1  0
 14 16  1  0
M  END
>  <DRUGBANK_ID>  (1) 
DB00236

>  <SECONDARY_ACCESSION_NUMBERS>  (1) 
APRD00693

>  <COMMON_NAME>  (1) 
Pipobroman

>  <CAS_NUMBER>  (1) 
54-91-1

>  <UNII>  (1) 
6Q99RDT97R

>  <SYNONYMS>  (1) 
1,4-bis(3-bromopropionyl)piperazine; N,N-bis-(3-bromopropionyl)-piperazine; Pipobroman; Pipobromanum

$$$$
