2148
     RDKit          2D

 14 14  0  0  0  0  0  0  0  0999 V2000
    1.6500    0.8250    0.0000 O   0  0  0  0  0  0  0  0  0  0  0  0
    3.7935    2.8876    0.0000 O   0  0  0  0  0  0  0  0  0  0  0  0
    4.5080    1.6500    0.0000 O   0  0  0  0  0  0  0  0  0  0  0  0
    3.0790    0.8250    0.0000 N   0  0  0  0  0  0  0  0  0  0  0  0
    2.3645   -2.8876    0.0000 N   0  0  0  0  0  0  0  0  0  0  0  0
    2.3645   -0.4125    0.0000 C   0  0  0  0  0  0  0  0  0  0  0  0
    2.3645    0.4125    0.0000 C   0  0  0  0  0  0  0  0  0  0  0  0
    1.6500   -0.8250    0.0000 C   0  0  0  0  0  0  0  0  0  0  0  0
    3.0790   -0.8250    0.0000 C   0  0  0  0  0  0  0  0  0  0  0  0
    2.3645   -2.0625    0.0000 C   0  0  0  0  0  0  0  0  0  0  0  0
    1.6500   -1.6500    0.0000 C   0  0  0  0  0  0  0  0  0  0  0  0
    3.0790   -1.6500    0.0000 C   0  0  0  0  0  0  0  0  0  0  0  0
    3.0790    1.6500    0.0000 C   0  0  0  0  0  0  0  0  0  0  0  0
    3.7935    2.0625    0.0000 C   0  0  0  0  0  0  0  0  0  0  0  0
  1  7  2  0
  2 14  1  0
  3 14  2  0
  4  7  1  0
  4 13  1  0
  5 10  1  0
  6  7  1  0
  6  8  2  0
  6  9  1  0
  8 11  1  0
  9 12  2  0
 10 11  2  0
 10 12  1  0
 13 14  1  0
M  END
>  <DRUGBANK_ID>  (1) 
DB00345

>  <SECONDARY_ACCESSION_NUMBERS>  (1) 
APRD00792

>  <COMMON_NAME>  (1) 
Aminohippuric acid

>  <CAS_NUMBER>  (1) 
61-78-9

>  <UNII>  (1) 
Y79XT83BJ9

>  <SYNONYMS>  (1) 
4-aminohippuric acid; Aminohippurate; Aminohippuric acid; N-(p-Aminobenzoyl)aminoacetic acid; N-(p-Aminobenzoyl)glycine; N-(para-aminobenzoyl)glycine; p-aminohippurate; p-aminohippuric acid; PAH; PAHA; para-aminohippurate; para-aminohippuric acid ; paraaminohippuric acid

$$$$
