
     RDKit          2D

 22 23  0  0  0  0  0  0  0  0999 V2000
    0.3325   -1.0295    0.0000 C   0  0  0  0  0  0  0  0  0  0  0  0
    0.3325   -1.8546    0.0000 C   0  0  0  0  0  0  0  0  0  0  0  0
    1.0472   -2.2669    0.0000 C   0  0  0  0  0  0  0  0  0  0  0  0
    1.7616   -1.8546    0.0000 C   0  0  0  0  0  0  0  0  0  0  0  0
    1.7616   -1.0295    0.0000 C   0  0  0  0  0  0  0  0  0  0  0  0
    1.0472   -0.6170    0.0000 C   0  0  0  0  0  0  0  0  0  0  0  0
    2.4761   -2.2669    0.0000 C   0  0  0  0  0  0  0  0  0  0  0  0
    3.1906   -1.8546    0.0000 C   0  0  0  0  0  0  0  0  0  0  0  0
    3.1906   -1.0295    0.0000 C   0  0  0  0  0  0  0  0  0  0  0  0
    2.4761   -0.6170    0.0000 C   0  0  0  0  0  0  0  0  0  0  0  0
    2.4761    0.2079    0.0000 C   0  0  0  0  0  0  0  0  0  0  0  0
    1.7605    0.6211    0.0000 N   0  0  0  0  0  0  0  0  0  0  0  0
    1.0553    0.2139    0.0000 C   0  0  0  0  0  0  0  0  0  0  0  0
    1.7605    1.4453    0.0000 C   0  0  0  0  0  0  0  0  0  0  0  0
    0.3560    0.6178    0.0000 C   0  0  0  0  0  0  0  0  0  0  0  0
   -0.3461    0.2123    0.0000 C   0  0  0  0  0  0  0  0  0  0  0  0
   -1.0470    0.6168    0.0000 C   0  0  0  0  0  0  0  0  0  0  0  0
   -1.7616    1.0294    0.0000 C   0  0  0  0  0  0  0  0  0  0  0  0
   -2.4759    1.4419    0.0000 C   0  0  0  0  0  0  0  0  0  0  0  0
   -3.1906    1.8545    0.0000 C   0  0  0  0  0  0  0  0  0  0  0  0
   -2.4759    2.2669    0.0000 C   0  0  0  0  0  0  0  0  0  0  0  0
   -3.1905    1.0295    0.0000 C   0  0  0  0  0  0  0  0  0  0  0  0
  1  2  2  0
  1  6  1  0
  2  3  1  0
  3  4  2  0
  4  5  1  0
  4  7  1  0
  5  6  2  0
  5 10  1  0
  7  8  2  0
  8  9  1  0
  9 10  2  0
 10 11  1  0
 11 12  1  0
 12 13  1  0
 12 14  1  0
 13 15  1  0
 15 16  2  0
 16 17  1  0
 17 18  3  0
 18 19  1  0
 19 20  1  0
 19 21  1  0
 19 22  1  0
M  END
>  <DRUGBANK_ID>  (1) 
DB00857

>  <SECONDARY_ACCESSION_NUMBERS>  (1) 
APRD00508

>  <COMMON_NAME>  (1) 
Terbinafine

>  <CAS_NUMBER>  (1) 
91161-71-6

>  <UNII>  (1) 
G7RIW8S0XP

>  <SYNONYMS>  (1) 
(E)-N-(6,6-Dimethyl-2-hepten-4-ynyl)-N-methyl-1-naphthalene methanamine; (E)-N-(6,6-Dimethyl-2-hepten-4-ynyl)-N-methyl-1-naphthalenemethylamine; Terbinafina; Terbinafine; Terbinafinum

$$$$
