
     RDKit          2D

 38 45  0  0  0  0  0  0  0  0999 V2000
    8.6736    0.4723    0.0000 C   0  0  0  0  0  0  0  0  0  0  0  0
    4.9014   -4.4332    0.0000 C   0  0  0  0  0  0  0  0  0  0  0  0
    0.8285   -0.8804    0.0000 C   0  0  0  0  0  0  0  0  0  0  0  0
    3.3158   -3.4355    0.0000 C   0  0  0  0  0  0  0  0  0  0  0  0
    5.0631    0.3365    0.0000 C   0  0  0  0  0  0  0  0  0  0  0  0
    7.6930   -1.1164    0.0000 C   0  0  0  0  0  0  0  0  0  0  0  0
    7.8608    0.7187    0.0000 C   0  0  0  0  0  0  0  0  0  0  0  0
    5.1462   -3.6201    0.0000 C   0  0  0  0  0  0  0  0  0  0  0  0
    3.6643    0.2950    0.0000 C   0  0  0  0  0  0  0  0  0  0  0  0
    3.8835   -0.5003    0.0000 C   0  0  0  0  0  0  0  0  0  0  0  0
    1.6294    0.3584    0.0000 C   0  0  0  0  0  0  0  0  0  0  0  0
    2.9495    1.4992    0.0000 C   0  0  0  0  0  0  0  0  0  0  0  0
    2.7546   -1.4847    0.0000 C   0  0  0  0  0  0  0  0  0  0  0  0
    5.9333    1.3044    0.0000 C   0  0  0  0  0  0  0  0  0  0  0  0
    1.5756   -0.4648    0.0000 C   0  0  0  0  0  0  0  0  0  0  0  0
    3.8954   -2.8048    0.0000 C   0  0  0  0  0  0  0  0  0  0  0  0
    4.6904    1.0585    0.0000 C   0  0  0  0  0  0  0  0  0  0  0  0
    7.0586   -0.5388    0.0000 C   0  0  0  0  0  0  0  0  0  0  0  0
    2.4289    0.5617    0.0000 C   0  0  0  0  0  0  0  0  0  0  0  0
    7.1124    0.2845    0.0000 C   0  0  0  0  0  0  0  0  0  0  0  0
    4.7186   -2.8585    0.0000 C   0  0  0  0  0  0  0  0  0  0  0  0
    3.8671    1.1123    0.0000 C   0  0  0  0  0  0  0  0  0  0  0  0
    2.3420   -0.7703    0.0000 C   0  0  0  0  0  0  0  0  0  0  0  0
    4.9959    1.8249    0.0000 C   0  0  0  0  0  0  0  0  0  0  0  0
    3.6921   -2.0052    0.0000 C   0  0  0  0  0  0  0  0  0  0  0  0
    3.6638    1.9119    0.0000 C   0  0  0  0  0  0  0  0  0  0  0  0
    6.3460    0.5900    0.0000 C   0  0  0  0  0  0  0  0  0  0  0  0
    4.6350   -0.8710    0.0000 C   0  0  0  0  0  0  0  0  0  0  0  0
    6.2590   -0.7421    0.0000 C   0  0  0  0  0  0  0  0  0  0  0  0
    5.0241   -2.0922    0.0000 C   0  0  0  0  0  0  0  0  0  0  0  0
    4.3598    0.1518    0.0000 Fe  0  0  0  0  0  4  0  0  0  0  0  0
    2.8693   -0.1359    0.0000 N   0  0  0  0  0  0  0  0  0  0  0  0
    4.3615    2.3523    0.0000 N   0  0  0  0  0  0  0  0  0  0  0  0
    4.3897   -1.5648    0.0000 N   0  0  0  0  0  0  0  0  0  0  0  0
    5.8186   -0.0444    0.0000 N   0  0  0  0  0  0  0  0  0  0  0  0
    5.2033   -1.4965    0.0000 O   0  0  0  0  0  0  0  0  0  0  0  0
    4.9909   -0.1605    0.0000 O   0  0  0  0  0  0  0  0  0  0  0  0
    5.7385   -1.6795    0.0000 O   0  0  0  0  0  0  0  0  0  0  0  0
  7  1  2  0
  8  2  2  0
 10  9  1  0
 15  3  1  0
 15 11  2  0
 16  4  1  0
 17  5  1  0
 18  6  1  0
 19 11  1  0
 19 12  2  0
 20  7  1  0
 20 18  1  0
 21  8  1  0
 21 16  1  0
 22  9  1  0
 22 17  2  0
 23 13  2  0
 23 15  1  0
 24 14  2  0
 24 17  1  0
 25 13  1  0
 25 16  2  0
 26 12  1  0
 26 22  1  0
 27 14  1  0
 27 20  2  0
 28 10  1  0
 29 18  2  0
 30 21  2  0
 32 19  1  0
 32 23  1  0
 32 31  1  0
 33 24  1  0
 33 26  2  0
 33 31  1  0
 34 25  1  0
 34 30  1  0
 34 31  1  0
 35 27  1  0
 35 29  1  0
 35 31  1  0
 36 28  1  0
 37 28  2  0
 38 29  1  0
 38 30  1  0
M  CHG  1  33   1
M  END
>  <DRUGBANK_ID>  (1) 
DB04803

>  <COMMON_NAME>  (1) 
Verdoheme

$$$$
