373
     RDKit          2D

 29 33  0  0  0  0  0  0  0  0999 V2000
   -4.5134   -1.4249    0.0000 C   0  0  0  0  0  0  0  0  0  0  0  0
   -4.9259   -2.1394    0.0000 C   0  0  0  0  0  0  0  0  0  0  0  0
   -5.7509   -2.1394    0.0000 C   0  0  0  0  0  0  0  0  0  0  0  0
   -6.1634   -1.4249    0.0000 C   0  0  0  0  0  0  0  0  0  0  0  0
   -5.7509   -0.7105    0.0000 C   0  0  0  0  0  0  0  0  0  0  0  0
   -4.9259   -0.7105    0.0000 C   0  0  0  0  0  0  0  0  0  0  0  0
   -4.5134    0.0040    0.0000 N   0  0  0  0  0  0  0  0  0  0  0  0
   -3.6884    0.0040    0.0000 C   0  0  0  0  0  0  0  0  0  0  0  0
   -3.2759   -0.7105    0.0000 C   0  0  0  0  0  0  0  0  0  0  0  0
   -3.6884   -1.4249    0.0000 C   0  0  0  0  0  0  0  0  0  0  0  0
   -2.4509   -0.7105    0.0000 C   0  0  0  0  0  0  0  0  0  0  0  0
   -1.9660   -0.0430    0.0000 N   0  0  0  0  0  0  0  0  0  0  0  0
   -1.1814   -0.2980    0.0000 C   0  0  0  0  0  0  0  0  0  0  0  0
   -1.1814   -1.1230    0.0000 C   0  0  0  0  0  0  0  0  0  0  0  0
   -1.9660   -1.3779    0.0000 C   0  0  0  0  0  0  0  0  0  0  0  0
   -0.4669    0.1145    0.0000 C   0  0  0  0  0  0  0  0  0  0  0  0
    0.2476   -0.2980    0.0000 C   0  0  0  0  0  0  0  0  0  0  0  0
    0.2476   -1.1230    0.0000 C   0  0  0  0  0  0  0  0  0  0  0  0
   -0.4669   -1.5355    0.0000 C   0  0  0  0  0  0  0  0  0  0  0  0
    0.9620   -1.5355    0.0000 C   0  0  0  0  0  0  0  0  0  0  0  0
    0.9620   -2.3605    0.0000 N   0  0  0  0  0  0  0  0  0  0  0  0
    1.6765   -2.7730    0.0000 C   0  0  0  0  0  0  0  0  0  0  0  0
    1.6765   -3.5980    0.0000 C   0  0  0  0  0  0  0  0  0  0  0  0
    0.9620   -4.0105    0.0000 C   0  0  0  0  0  0  0  0  0  0  0  0
    0.2476   -3.5980    0.0000 C   0  0  0  0  0  0  0  0  0  0  0  0
    0.2476   -2.7730    0.0000 C   0  0  0  0  0  0  0  0  0  0  0  0
    0.9620   -4.8355    0.0000 C   0  0  0  0  0  0  0  0  0  0  0  0
    1.6765   -5.2480    0.0000 N   0  0  0  0  0  0  0  0  0  0  0  0
   -3.2759    0.7185    0.0000 O   0  0  0  0  0  0  0  0  0  0  0  0
  1  6  1  0
  1 10  1  0
  1  2  2  0
  2  3  1  0
  3  4  2  0
  4  5  1  0
  5  6  2  0
  6  7  1  0
  7  8  1  0
  8 29  2  0
  8  9  1  0
  9 11  1  0
  9 10  2  0
 11 12  1  0
 11 15  2  0
 12 13  1  0
 13 16  2  0
 13 14  1  0
 14 19  2  0
 14 15  1  0
 16 17  1  0
 17 18  2  0
 18 20  1  0
 18 19  1  0
 20 21  1  0
 21 22  1  0
 21 26  1  0
 22 23  1  0
 23 24  1  0
 24 27  1  0
 24 25  1  0
 25 26  1  0
 27 28  1  0
M  END
>  <DRUGBANK_ID>  (1) 
DB07025

>  <COMMON_NAME>  (1) 
3-(5-{[4-(AMINOMETHYL)PIPERIDIN-1-YL]METHYL}-1H-INDOL-2-YL)QUINOLIN-2(1H)-ONE

$$$$
