
     RDKit          2D

 23 25  0  0  0  0  0  0  0  0999 V2000
   -2.1433   -0.6187    0.0000 C   0  0  0  0  0  0  0  0  0  0  0  0
   -2.1433   -1.4437    0.0000 C   0  0  0  0  0  0  0  0  0  0  0  0
   -1.4288   -0.2062    0.0000 N   0  0  0  0  0  0  0  0  0  0  0  0
   -2.8577   -0.2062    0.0000 C   0  0  0  0  0  0  0  0  0  0  0  0
   -1.4288   -1.8562    0.0000 N   0  0  0  0  0  0  0  0  0  0  0  0
   -2.8577   -1.8562    0.0000 N   0  0  0  0  0  0  0  0  0  0  0  0
   -0.7143   -0.6187    0.0000 C   0  0  0  0  0  0  0  0  0  0  0  0
   -3.5722   -0.6187    0.0000 N   0  0  0  0  0  0  0  0  0  0  0  0
   -2.8577    0.6187    0.0000 O   0  0  0  0  0  0  0  0  0  0  0  0
   -0.7143   -1.4437    0.0000 C   0  0  0  0  0  0  0  0  0  0  0  0
   -3.5722   -1.4437    0.0000 C   0  0  0  0  0  0  0  0  0  0  0  0
   -4.2867   -1.8562    0.0000 N   0  0  0  0  0  0  0  0  0  0  0  0
    0.0001   -0.2062    0.0000 C   0  0  0  0  0  0  0  0  0  0  0  0
    0.7146   -0.6187    0.0000 N   0  0  0  0  0  0  0  0  0  0  0  0
    1.4289   -0.2062    0.0000 C   0  0  0  0  0  0  0  0  0  0  0  0
    1.4289    0.6187    0.0000 C   0  0  0  0  0  0  0  0  0  0  0  0
    2.1434    1.0311    0.0000 C   0  0  0  0  0  0  0  0  0  0  0  0
    2.8579    0.6187    0.0000 C   0  0  0  0  0  0  0  0  0  0  0  0
    3.5723    1.0311    0.0000 C   0  0  0  0  0  0  0  0  0  0  0  0
    3.5723    1.8562    0.0000 O   0  0  0  0  0  0  0  0  0  0  0  0
    2.1434   -0.6187    0.0000 C   0  0  0  0  0  0  0  0  0  0  0  0
    2.8579   -0.2062    0.0000 C   0  0  0  0  0  0  0  0  0  0  0  0
    4.2867    0.6187    0.0000 O   0  0  0  0  0  0  0  0  0  0  0  0
  1  2  1  0
  1  3  2  0
  1  4  1  0
  2  5  2  0
  2  6  1  0
  3  7  1  0
  4  8  2  0
  4  9  1  0
  5 10  1  0
  6 11  2  0
  7 13  1  0
  7 10  2  0
  8 11  1  0
 11 12  1  0
 13 14  1  0
 14 15  1  0
 15 16  2  0
 15 21  1  0
 16 17  1  0
 17 18  2  0
 18 19  1  0
 19 23  1  0
 19 20  2  0
 21 22  2  0
 22 18  1  0
M  CHG  1   6   1
M  END
>  <DRUGBANK_ID>  (1) 
DB04357

>  <SECONDARY_ACCESSION_NUMBERS>  (1) 
EXPT00546

>  <COMMON_NAME>  (1) 
Pteric acid

$$$$
