
     RDKit          2D

 11 12  0  0  0  0  0  0  0  0999 V2000
    0.4442   -0.7329    0.0000 C   0  0  0  0  0  0  0  0  0  0  0  0
    0.4674    0.0977    0.0000 C   0  0  0  0  0  0  0  0  0  0  0  0
    1.2422   -1.0045    0.0000 S   0  0  0  0  0  0  0  0  0  0  0  0
   -0.2860   -1.1168    0.0000 C   0  0  0  0  0  0  0  0  0  0  0  0
    1.2790    0.3160    0.0000 C   0  0  0  0  0  0  0  0  0  0  0  0
   -0.2227    0.5327    0.0000 C   0  0  0  0  0  0  0  0  0  0  0  0
    1.7411   -0.3820    0.0000 N   0  0  0  0  0  0  0  0  0  0  0  0
   -0.9819   -0.6816    0.0000 C   0  0  0  0  0  0  0  0  0  0  0  0
    1.5507    1.1168    0.0000 O   0  0  0  0  0  0  0  0  0  0  0  0
   -0.9819    0.1410    0.0000 C   0  0  0  0  0  0  0  0  0  0  0  0
   -1.7411   -1.0762    0.0000 Cl  0  0  0  0  0  0  0  0  0  0  0  0
  1  2  2  0
  1  3  1  0
  1  4  1  0
  2  5  1  0
  2  6  1  0
  3  7  1  0
  4  8  2  0
  5  9  2  0
  5  7  1  0
  6 10  2  0
  8 11  1  0
  8 10  1  0
M  END
>  <DRUGBANK_ID>  (1) 
DB13613

>  <COMMON_NAME>  (1) 
Ticlatone

>  <CAS_NUMBER>  (1) 
70-10-0

>  <UNII>  (1) 
BHW384Q9GI

>  <SYNONYMS>  (1) 
Ticlatona; Ticlatone; Ticlatonum

$$$$
