
     RDKit          2D

 19 21  0  0  1  0  0  0  0  0999 V2000
   -0.5546    2.5320    0.0000 C   0  0  0  0  0  0  0  0  0  0  0  0
   -2.4916    3.4294    0.0000 C   0  0  0  0  0  0  0  0  0  0  0  0
   -1.2695    0.4125    0.0000 C   0  0  0  0  0  0  0  0  0  0  0  0
   -1.0396    3.1994    0.0000 C   0  0  0  0  0  0  0  0  0  0  0  0
   -1.8242    2.9445    0.0000 C   0  0  0  0  0  0  0  0  0  0  0  0
   -1.0396    1.8646    0.0000 C   0  0  0  0  0  0  0  0  0  0  0  0
    0.0000    0.0000    0.0000 C   0  0  0  0  0  0  0  0  0  0  0  0
    0.7145   -0.4125    0.0000 C   0  0  0  0  0  0  0  0  0  0  0  0
    0.0000    0.8250    0.0000 C   0  0  0  0  0  0  0  0  0  0  0  0
    1.4289    0.8250    0.0000 C   0  0  0  0  0  0  0  0  0  0  0  0
    2.1434    1.2375    0.0000 F   0  0  0  0  0  0  0  0  0  0  0  0
    0.7145   -1.2375    0.0000 N   0  0  0  0  0  0  0  0  0  0  0  0
   -0.7846   -0.2549    0.0000 N   0  0  0  0  0  0  0  0  0  0  0  0
    1.4289    0.0000    0.0000 N   0  0  0  0  0  0  0  0  0  0  0  0
    0.7145    1.2375    0.0000 N   0  0  0  0  0  0  0  0  0  0  0  0
   -0.7846    1.0799    0.0000 N   0  0  0  0  0  0  0  0  0  0  0  0
   -3.2453    3.0939    0.0000 O   0  0  0  0  0  0  0  0  0  0  0  0
   -0.7846    3.9841    0.0000 O   0  0  0  0  0  0  0  0  0  0  0  0
   -1.8242    2.1195    0.0000 O   0  0  0  0  0  0  0  0  0  0  0  0
  4  1  1  0
  4 18  1  1
  5  2  1  6
  5  4  1  0
  6  1  1  0
  6 16  1  6
  8  7  2  0
  9  7  1  0
 11 10  1  0
 12  8  1  0
 13  3  2  0
 13  7  1  0
 14  8  1  0
 14 10  2  0
 15  9  2  0
 15 10  1  0
 16  3  1  0
 16  9  1  0
 17  2  1  0
 19  5  1  0
 19  6  1  0
M  END
>  <DRUGBANK_ID>  (1) 
DB02947

>  <SECONDARY_ACCESSION_NUMBERS>  (1) 
EXPT00115

>  <COMMON_NAME>  (1) 
2-Fluoro-2'-Deoxyadenosine

>  <UNII>  (1) 
2T63DT4KWU

$$$$
