
     RDKit          2D

 24 26  0  0  0  0  0  0  0  0999 V2000
    0.3530    0.6503    0.0000 O   0  0  0  0  0  0  0  0  0  0  0  0
   -1.0989    1.4467    0.0000 O   0  0  0  0  0  0  0  0  0  0  0  0
   -2.5279   -1.0283    0.0000 O   0  0  0  0  0  0  0  0  0  0  0  0
   -1.0989   -1.8533    0.0000 O   0  0  0  0  0  0  0  0  0  0  0  0
   -2.5279    0.6217    0.0000 O   0  0  0  0  0  0  0  0  0  0  0  0
    0.3435   -1.8818    0.0000 O   0  0  0  0  0  0  0  0  0  0  0  0
    2.5327   -0.5931    0.0000 O   0  0  0  0  0  0  0  0  0  0  0  0
   -0.3845   -0.6158    0.0000 C   0  0  0  0  0  0  0  0  0  0  0  0
   -0.3845    0.2092    0.0000 C   0  0  0  0  0  0  0  0  0  0  0  0
   -1.0989    0.6217    0.0000 C   0  0  0  0  0  0  0  0  0  0  0  0
   -1.0989   -1.0283    0.0000 C   0  0  0  0  0  0  0  0  0  0  0  0
    1.1005    0.2263    0.0000 C   0  0  0  0  0  0  0  0  0  0  0  0
    0.3530   -1.0569    0.0000 C   0  0  0  0  0  0  0  0  0  0  0  0
   -1.8133   -0.6158    0.0000 C   0  0  0  0  0  0  0  0  0  0  0  0
   -1.8133    0.2092    0.0000 C   0  0  0  0  0  0  0  0  0  0  0  0
    1.1005   -0.6330    0.0000 C   0  0  0  0  0  0  0  0  0  0  0  0
    1.8134    0.6415    0.0000 C   0  0  0  0  0  0  0  0  0  0  0  0
    2.5295    0.2319    0.0000 C   0  0  0  0  0  0  0  0  0  0  0  0
    1.8102    1.4666    0.0000 C   0  0  0  0  0  0  0  0  0  0  0  0
    3.2424    0.6471    0.0000 C   0  0  0  0  0  0  0  0  0  0  0  0
    2.5232    1.8818    0.0000 C   0  0  0  0  0  0  0  0  0  0  0  0
    3.2392    1.4721    0.0000 C   0  0  0  0  0  0  0  0  0  0  0  0
   -1.8133    1.8592    0.0000 C   0  0  0  0  0  0  0  0  0  0  0  0
   -3.2424   -0.6158    0.0000 C   0  0  0  0  0  0  0  0  0  0  0  0
  1  9  1  0
  1 12  1  0
  2 10  1  0
  2 23  1  0
  3 14  1  0
  3 24  1  0
  4 11  1  0
  5 15  1  0
  6 13  2  0
  7 18  1  0
  8  9  2  0
  8 11  1  0
  8 13  1  0
  9 10  1  0
 10 15  2  0
 11 14  2  0
 12 16  2  0
 12 17  1  0
 13 16  1  0
 14 15  1  0
 17 18  2  0
 17 19  1  0
 18 20  1  0
 19 21  2  0
 20 22  2  0
 21 22  1  0
M  END
>  <DRUGBANK_ID>  (1) 
DB13983

>  <COMMON_NAME>  (1) 
5,7,2â€²-trihydroxy-6,8-dimethoxyflavone

>  <CAS_NUMBER>  (1) 
159359-22-5

>  <SYNONYMS>  (1) 
5,7-Dihydroxy-2-(2-hydroxyphenyl)-6,8-dimethoxy-4H-1-benzopyran-4-one

$$$$
