
     RDKit          2D

 20 22  0  0  1  0  0  0  0  0999 V2000
    0.0000   -0.0000    0.0000 C   0  0  0  0  0  0  0  0  0  0  0  0
   -0.7145   -0.4125    0.0000 C   0  0  0  0  0  0  0  0  0  0  0  0
   -0.7145   -1.2375    0.0000 C   0  0  0  0  0  0  0  0  0  0  0  0
    0.0000   -1.6500    0.0000 C   0  0  0  0  0  0  0  0  0  0  0  0
    0.7145   -1.2375    0.0000 C   0  0  0  0  0  0  0  0  0  0  0  0
    0.7145   -0.4125    0.0000 C   0  0  0  0  0  0  0  0  0  0  0  0
    1.4289   -0.0000    0.0000 C   0  0  0  0  0  0  0  0  0  0  0  0
    2.1434   -0.4125    0.0000 C   0  0  0  0  0  0  0  0  0  0  0  0
    2.1434   -1.2375    0.0000 C   0  0  0  0  0  0  0  0  0  0  0  0
    1.4289   -1.6500    0.0000 C   0  0  0  0  0  0  0  0  0  0  0  0
    2.8579   -0.0000    0.0000 N   0  0  0  0  0  0  0  0  0  0  0  0
    2.9441    0.8205    0.0000 C   0  0  0  0  0  0  0  0  0  0  0  0
    3.7511    0.9920    0.0000 C   0  0  0  0  0  0  0  0  0  0  0  0
    4.1636    0.2775    0.0000 N   0  0  0  0  0  0  0  0  0  0  0  0
    3.6116   -0.3356    0.0000 C   0  0  0  0  0  0  0  0  0  0  0  0
    3.7831   -1.1425    0.0000 S   0  0  0  0  0  0  0  0  0  0  0  0
    2.3310    1.3725    0.0000 C   0  0  0  0  0  0  0  0  0  0  0  0
    1.5464    1.1176    0.0000 N   0  0  0  0  0  0  0  0  0  0  0  0
    0.0000   -2.4750    0.0000 F   0  0  0  0  0  0  0  0  0  0  0  0
   -1.4289   -0.0000    0.0000 F   0  0  0  0  0  0  0  0  0  0  0  0
  1  2  2  0
  1  6  1  0
  2  3  1  0
  2 20  1  0
  3  4  2  0
  4  5  1  0
  4 19  1  0
  5  6  2  0
  5 10  1  0
  6  7  1  0
  7  8  1  0
  8  9  1  0
  8 11  1  1
  9 10  1  0
 11 12  1  0
 11 15  1  0
 12 13  2  0
 12 17  1  0
 13 14  1  0
 14 15  1  0
 15 16  2  0
 17 18  1  0
M  END
>  <DRUGBANK_ID>  (1) 
DB12979

>  <COMMON_NAME>  (1) 
Nepicastat

>  <CAS_NUMBER>  (1) 
173997-05-2

>  <UNII>  (1) 
VPG12K4540

>  <SYNONYMS>  (1) 
(S)-5-aminomethyl-1-(5,7-difluoro-1,2,3,4-tetrahydronaphthalen-2-yl)-1,3-dihydroimidazole-2-thione; NÃ©picastat; Nepicastat; Nepicastatum

$$$$
