F1G
     RDKit          2D

 19 20  0  0  0  0  0  0  0  0999 V2000
   -1.4444   -2.5530    0.0000 F   0  0  0  0  0  0  0  0  0  0  0  0
   -1.6159   -1.7460    0.0000 C   0  0  0  0  0  0  0  0  0  0  0  0
   -0.8089   -1.5745    0.0000 F   0  0  0  0  0  0  0  0  0  0  0  0
   -2.4229   -1.9175    0.0000 F   0  0  0  0  0  0  0  0  0  0  0  0
   -1.7874   -0.9390    0.0000 C   0  0  0  0  0  0  0  0  0  0  0  0
   -1.2354   -0.3259    0.0000 C   0  0  0  0  0  0  0  0  0  0  0  0
   -1.6479    0.3885    0.0000 C   0  0  0  0  0  0  0  0  0  0  0  0
   -2.4549    0.2170    0.0000 N   0  0  0  0  0  0  0  0  0  0  0  0
   -3.0679    0.7690    0.0000 C   0  0  0  0  0  0  0  0  0  0  0  0
   -2.5411   -0.6035    0.0000 N   0  0  0  0  0  0  0  0  0  0  0  0
   -1.0959    1.0016    0.0000 S   0  0  0  0  0  0  0  0  0  0  0  0
   -0.4284   -0.1544    0.0000 C   0  0  0  0  0  0  0  0  0  0  0  0
   -0.3422    0.6661    0.0000 C   0  0  0  0  0  0  0  0  0  0  0  0
    0.3723    1.0786    0.0000 C   0  0  0  0  0  0  0  0  0  0  0  0
    0.3723    1.9036    0.0000 O   0  0  0  0  0  0  0  0  0  0  0  0
    1.0868    0.6661    0.0000 N   0  0  0  0  0  0  0  0  0  0  0  0
    1.8012    1.0786    0.0000 C   0  0  0  0  0  0  0  0  0  0  0  0
    2.5157    0.6661    0.0000 C   0  0  0  0  0  0  0  0  0  0  0  0
    3.2302    1.0786    0.0000 S   0  0  0  0  0  0  0  0  0  0  0  0
  1  2  1  0
  2  3  1  0
  2  4  1  0
  2  5  1  0
  5  6  1  0
  5 10  2  0
  6  7  2  0
  6 12  1  0
  7  8  1  0
  7 11  1  0
  8  9  1  0
  8 10  1  0
 11 13  1  0
 12 13  2  0
 13 14  1  0
 14 15  2  0
 14 16  1  0
 16 17  1  0
 17 18  1  0
 18 19  1  0
M  END
>  <DRUGBANK_ID>  (1) 
DB07733

>  <COMMON_NAME>  (1) 
1-METHYL-3-TRIFLUOROMETHYL-1H-THIENO[2,3-C]PYRAZOLE-5-CARBOXYLIC ACID (2-MERCAPTO-ETHYL)-AMIDE

$$$$
