812
     RDKit          2D

 21 23  0  0  0  0  0  0  0  0999 V2000
    2.3933    3.3864    0.0000 C   0  0  0  0  0  0  0  0  0  0  0  0
    1.7259    2.9014    0.0000 N   0  0  0  0  0  0  0  0  0  0  0  0
    3.0608    2.9014    0.0000 C   0  0  0  0  0  0  0  0  0  0  0  0
    2.8058    2.1168    0.0000 C   0  0  0  0  0  0  0  0  0  0  0  0
    1.9808    2.1168    0.0000 C   0  0  0  0  0  0  0  0  0  0  0  0
    1.4959    1.4494    0.0000 C   0  0  0  0  0  0  0  0  0  0  0  0
    0.6754    1.5356    0.0000 O   0  0  0  0  0  0  0  0  0  0  0  0
    0.1905    0.8682    0.0000 C   0  0  0  0  0  0  0  0  0  0  0  0
   -0.6300    0.9544    0.0000 C   0  0  0  0  0  0  0  0  0  0  0  0
   -1.1149    0.2870    0.0000 C   0  0  0  0  0  0  0  0  0  0  0  0
   -0.7793   -0.4667    0.0000 C   0  0  0  0  0  0  0  0  0  0  0  0
    0.0411   -0.5529    0.0000 C   0  0  0  0  0  0  0  0  0  0  0  0
    0.5261    0.1145    0.0000 C   0  0  0  0  0  0  0  0  0  0  0  0
   -1.2643   -1.1342    0.0000 N   0  0  0  0  0  0  0  0  0  0  0  0
   -0.9287   -1.8878    0.0000 C   0  0  0  0  0  0  0  0  0  0  0  0
   -1.4136   -2.5553    0.0000 C   0  0  0  0  0  0  0  0  0  0  0  0
   -1.0781   -3.3089    0.0000 C   0  0  0  0  0  0  0  0  0  0  0  0
   -1.5630   -3.9764    0.0000 C   0  0  0  0  0  0  0  0  0  0  0  0
   -2.3835   -3.8901    0.0000 C   0  0  0  0  0  0  0  0  0  0  0  0
   -2.7190   -3.1365    0.0000 C   0  0  0  0  0  0  0  0  0  0  0  0
   -2.2341   -2.4690    0.0000 C   0  0  0  0  0  0  0  0  0  0  0  0
  1  3  1  0
  2  1  1  0
  4  3  1  0
  5  2  1  0
  5  4  1  0
  5  6  1  6
  6  7  1  0
  7  8  1  0
  8 13  1  0
  9  8  2  0
  9 10  1  0
 10 11  2  0
 11 14  1  0
 11 12  1  0
 13 12  2  0
 14 15  1  0
 15 16  1  0
 16 17  2  0
 17 18  1  0
 19 18  2  0
 20 19  1  0
 21 16  1  0
 21 20  2  0
M  END
>  <DRUGBANK_ID>  (1) 
DB07260

>  <COMMON_NAME>  (1) 
N-benzyl-4-[(2R)-pyrrolidin-2-ylmethoxy]aniline

$$$$
