
     RDKit          2D

 17 18  0  0  1  0  0  0  0  0999 V2000
    1.2564   -0.1802    0.0000 O   0  0  0  0  0  0  0  0  0  0  0  0
    1.2564   -1.0052    0.0000 C   0  0  0  0  0  0  0  0  0  0  0  0
    1.9239   -1.4901    0.0000 C   0  0  0  0  0  0  0  0  0  0  0  0
    2.7085   -1.2352    0.0000 O   0  0  0  0  0  0  0  0  0  0  0  0
    1.6689   -2.2748    0.0000 C   0  0  0  0  0  0  0  0  0  0  0  0
    0.8439   -2.2748    0.0000 O   0  0  0  0  0  0  0  0  0  0  0  0
    0.5890   -1.4901    0.0000 C   0  0  0  0  0  0  0  0  0  0  0  0
   -0.1956   -1.2352    0.0000 C   0  0  0  0  0  0  0  0  0  0  0  0
   -0.3672   -0.4282    0.0000 F   0  0  0  0  0  0  0  0  0  0  0  0
    2.1538   -2.9422    0.0000 N   0  0  0  0  0  0  0  0  0  0  0  0
    2.9788   -2.9422    0.0000 C   0  0  0  0  0  0  0  0  0  0  0  0
    3.2338   -3.7268    0.0000 C   0  0  0  0  0  0  0  0  0  0  0  0
    2.5663   -4.2117    0.0000 N   0  0  0  0  0  0  0  0  0  0  0  0
    1.8989   -3.7268    0.0000 C   0  0  0  0  0  0  0  0  0  0  0  0
    1.1143   -3.9818    0.0000 N   0  0  0  0  0  0  0  0  0  0  0  0
    0.9428   -4.7887    0.0000 O   0  0  0  0  0  0  0  0  0  0  0  0
    0.5012   -3.4297    0.0000 O   0  0  0  0  0  0  0  0  0  0  0  0
  2  1  1  1
  2  3  1  0
  2  7  1  0
  3  4  1  6
  3  5  1  0
  5  6  1  0
  5 10  1  1
  7  6  1  0
  7  8  1  6
  8  9  1  0
 10 11  1  0
 10 14  1  0
 11 12  2  0
 12 13  1  0
 13 14  2  0
 14 15  1  0
 15 16  1  0
 15 17  2  0
M  CHG  2  15   1  16  -1
M  ISO  1   9  18
M  END
>  <DRUGBANK_ID>  (1) 
DB15134

>  <COMMON_NAME>  (1) 
Fluoroazomycin arabinoside F-18

>  <CAS_NUMBER>  (1) 
864084-85-5

>  <UNII>  (1) 
UG7I3Y42PV

>  <SYNONYMS>  (1) 
18F-FAZA

$$$$
