
     RDKit          2D

 22 23  0  0  0  0  0  0  0  0999 V2000
    0.1279   -6.5534    0.0000 C   0  0  0  0  0  0  0  0  0  0  0  0
    0.4101   -5.7782    0.0000 C   0  0  0  0  0  0  0  0  0  0  0  0
   -0.1202   -5.1462    0.0000 C   0  0  0  0  0  0  0  0  0  0  0  0
   -0.9327   -5.2895    0.0000 O   0  0  0  0  0  0  0  0  0  0  0  0
    0.1620   -4.3710    0.0000 C   0  0  0  0  0  0  0  0  0  0  0  0
    0.1620   -3.5460    0.0000 C   0  0  0  0  0  0  0  0  0  0  0  0
    0.8764   -3.1335    0.0000 C   0  0  0  0  0  0  0  0  0  0  0  0
    1.5909   -3.5460    0.0000 N   0  0  0  0  0  0  0  0  0  0  0  0
    1.5909   -4.3710    0.0000 C   0  0  0  0  0  0  0  0  0  0  0  0
    0.8764   -4.7835    0.0000 C   0  0  0  0  0  0  0  0  0  0  0  0
    2.3054   -3.1335    0.0000 C   0  0  0  0  0  0  0  0  0  0  0  0
    3.0198   -3.5460    0.0000 C   0  0  0  0  0  0  0  0  0  0  0  0
    3.7343   -3.1335    0.0000 O   0  0  0  0  0  0  0  0  0  0  0  0
    4.4488   -3.5460    0.0000 C   0  0  0  0  0  0  0  0  0  0  0  0
    5.1633   -3.1335    0.0000 C   0  0  0  0  0  0  0  0  0  0  0  0
    5.8777   -3.5460    0.0000 O   0  0  0  0  0  0  0  0  0  0  0  0
   -0.6505   -4.2277    0.0000 C   0  0  0  0  0  0  0  0  0  0  0  0
   -1.1808   -4.8597    0.0000 C   0  0  0  0  0  0  0  0  0  0  0  0
   -1.9933   -4.7164    0.0000 C   0  0  0  0  0  0  0  0  0  0  0  0
   -2.2754   -3.9412    0.0000 C   0  0  0  0  0  0  0  0  0  0  0  0
   -1.7451   -3.3092    0.0000 C   0  0  0  0  0  0  0  0  0  0  0  0
   -0.9327   -3.4525    0.0000 C   0  0  0  0  0  0  0  0  0  0  0  0
  1  2  1  0
  2  3  1  0
  3  4  2  0
  3  5  1  0
  5  6  1  0
  5 10  1  0
  5 17  1  0
  6  7  1  0
  7  8  1  0
  8  9  1  0
  8 11  1  0
  9 10  1  0
 11 12  1  0
 12 13  1  0
 13 14  1  0
 14 15  1  0
 15 16  1  0
 17 18  2  0
 17 22  1  0
 18 19  1  0
 19 20  2  0
 20 21  1  0
 21 22  2  0
M  END
>  <DRUGBANK_ID>  (1) 
DB13436

>  <COMMON_NAME>  (1) 
Droxypropine

>  <CAS_NUMBER>  (1) 
15599-26-5

>  <UNII>  (1) 
94J1SMK20X

>  <SYNONYMS>  (1) 
Droxypropine

$$$$
