
     RDKit          2D

 38 41  0  0  1  0  0  0  0  0999 V2000
    1.0015   -8.1306    0.0000 C   0  0  0  0  0  0  0  0  0  0  0  0
    1.6831   -7.6659    0.0000 C   0  0  0  0  0  0  0  0  0  0  0  0
    1.5601   -6.8501    0.0000 C   0  0  0  0  0  0  0  0  0  0  0  0
    2.1213   -6.2454    0.0000 C   0  0  0  0  0  0  0  0  0  0  0  0
    2.9440   -6.3070    0.0000 C   0  0  0  0  0  0  0  0  0  0  0  0
    3.4087   -6.9887    0.0000 C   0  0  0  0  0  0  0  0  0  0  0  0
    4.2245   -6.8657    0.0000 O   0  0  0  0  0  0  0  0  0  0  0  0
    3.1655   -7.7770    0.0000 C   0  0  0  0  0  0  0  0  0  0  0  0
    2.3976   -8.0784    0.0000 N   0  0  0  0  0  0  0  0  0  0  0  0
    2.3359   -8.9011    0.0000 S   0  0  0  0  0  0  0  0  0  0  0  0
    3.1586   -8.9628    0.0000 O   0  0  0  0  0  0  0  0  0  0  0  0
    1.5132   -8.8394    0.0000 O   0  0  0  0  0  0  0  0  0  0  0  0
    2.2743   -9.7238    0.0000 C   0  0  0  0  0  0  0  0  0  0  0  0
    2.9559  -10.1885    0.0000 C   0  0  0  0  0  0  0  0  0  0  0  0
    2.8943  -11.0112    0.0000 C   0  0  0  0  0  0  0  0  0  0  0  0
    2.1510  -11.3692    0.0000 C   0  0  0  0  0  0  0  0  0  0  0  0
    1.4693  -10.9044    0.0000 C   0  0  0  0  0  0  0  0  0  0  0  0
    1.5310  -10.0817    0.0000 N   0  0  0  0  0  0  0  0  0  0  0  0
    3.3565   -5.5925    0.0000 N   0  0  0  0  0  0  0  0  0  0  0  0
    4.1815   -5.5925    0.0000 C   0  0  0  0  0  0  0  0  0  0  0  0
    4.5940   -6.3070    0.0000 O   0  0  0  0  0  0  0  0  0  0  0  0
    4.5940   -4.8781    0.0000 C   0  0  0  0  0  0  0  0  0  0  0  0
    4.1815   -4.1636    0.0000 C   0  0  0  0  0  0  0  0  0  0  0  0
    3.3565   -4.1636    0.0000 C   0  0  0  0  0  0  0  0  0  0  0  0
    2.9440   -4.8781    0.0000 C   0  0  0  0  0  0  0  0  0  0  0  0
    2.9440   -3.4491    0.0000 C   0  0  0  0  0  0  0  0  0  0  0  0
    5.4190   -4.8781    0.0000 N   0  0  0  0  0  0  0  0  0  0  0  0
    5.8315   -4.1636    0.0000 C   0  0  0  0  0  0  0  0  0  0  0  0
    5.4190   -3.4491    0.0000 O   0  0  0  0  0  0  0  0  0  0  0  0
    6.6565   -4.1636    0.0000 C   0  0  0  0  0  0  0  0  0  0  0  0
    7.1414   -3.4962    0.0000 C   0  0  0  0  0  0  0  0  0  0  0  0
    7.9260   -3.7511    0.0000 C   0  0  0  0  0  0  0  0  0  0  0  0
    8.6405   -3.3386    0.0000 C   0  0  0  0  0  0  0  0  0  0  0  0
    9.3550   -3.7511    0.0000 C   0  0  0  0  0  0  0  0  0  0  0  0
    9.3550   -4.5761    0.0000 C   0  0  0  0  0  0  0  0  0  0  0  0
    8.6405   -4.9886    0.0000 C   0  0  0  0  0  0  0  0  0  0  0  0
    7.9260   -4.5761    0.0000 C   0  0  0  0  0  0  0  0  0  0  0  0
    7.1414   -4.8310    0.0000 O   0  0  0  0  0  0  0  0  0  0  0  0
  2  1  1  6
  2  3  1  0
  2  9  1  0
  3  4  1  0
  4  5  1  0
  5  6  1  0
  5 19  1  6
  6  7  2  0
  6  8  1  0
  8  9  1  0
  9 10  1  0
 10 11  2  0
 10 12  2  0
 10 13  1  0
 13 14  2  0
 13 18  1  0
 14 15  1  0
 15 16  2  0
 16 17  1  0
 17 18  2  0
 19 20  1  0
 20 21  2  0
 20 22  1  0
 22 23  1  6
 22 27  1  0
 23 24  1  0
 24 25  1  0
 24 26  1  0
 27 28  1  0
 28 29  2  0
 28 30  1  0
 30 31  2  0
 30 38  1  0
 31 32  1  0
 32 33  2  0
 32 37  1  0
 33 34  1  0
 34 35  2  0
 35 36  1  0
 36 37  2  0
 37 38  1  0
M  END
>  <DRUGBANK_ID>  (1) 
DB06367

>  <COMMON_NAME>  (1) 
Relacatib

>  <CAS_NUMBER>  (1) 
362505-84-8

>  <UNII>  (1) 
BL51M8CB8R

>  <SYNONYMS>  (1) 
Relacatib

$$$$
