
     RDKit          2D

 17 18  0  0  1  0  0  0  0  0999 V2000
    4.5621    1.8437    0.0000 N   0  0  0  0  0  0  0  0  0  0  0  0
    3.7738    2.0868    0.0000 C   0  0  0  0  0  0  0  0  0  0  0  0
    3.1690    1.5257    0.0000 C   0  0  0  0  0  0  0  0  0  0  0  0
    3.3526    0.7214    0.0000 C   0  0  0  0  0  0  0  0  0  0  0  0
    4.1569    0.5378    0.0000 C   0  0  0  0  0  0  0  0  0  0  0  0
    4.5149   -0.2055    0.0000 C   0  0  0  0  0  0  0  0  0  0  0  0
    4.1569   -0.9488    0.0000 C   0  0  0  0  0  0  0  0  0  0  0  0
    3.3526   -1.1324    0.0000 C   0  0  0  0  0  0  0  0  0  0  0  0
    2.7076   -0.6180    0.0000 C   0  0  0  0  0  0  0  0  0  0  0  0
    2.7076    0.2070    0.0000 C   0  0  0  0  0  0  0  0  0  0  0  0
    1.9230    0.4619    0.0000 C   0  0  0  0  0  0  0  0  0  0  0  0
    1.6680    1.2466    0.0000 O   0  0  0  0  0  0  0  0  0  0  0  0
    1.4380   -0.2055    0.0000 N   0  0  0  0  0  0  0  0  0  0  0  0
    1.9230   -0.8729    0.0000 O   0  0  0  0  0  0  0  0  0  0  0  0
    3.5902    2.8912    0.0000 C   0  0  0  0  0  0  0  0  0  0  0  0
    2.8019    3.1343    0.0000 O   0  0  0  0  0  0  0  0  0  0  0  0
    4.1950    3.4523    0.0000 O   0  0  0  0  0  0  0  0  0  0  0  0
  2  1  1  1
  2  3  1  0
  2 15  1  0
  3  4  1  0
  4  5  2  0
  4 10  1  0
  5  6  1  0
  6  7  1  0
  7  8  1  0
  8  9  1  0
  9 10  2  0
  9 14  1  0
 10 11  1  0
 11 12  2  0
 11 13  1  0
 13 14  1  0
 15 16  1  0
 15 17  2  0
M  END
>  <DRUGBANK_ID>  (1) 
DB04152

>  <SECONDARY_ACCESSION_NUMBERS>  (1) 
EXPT01825

>  <COMMON_NAME>  (1) 
2-Amino-3-(3-Hydroxy-7,8-Dihydro-6h-Cyclohepta[D]-4-Isoxazolyl)Propionic Acid

$$$$
