
     RDKit          2D

 13 13  0  0  1  0  0  0  0  0999 V2000
    1.8098    1.4608    0.0000 O   0  0  0  0  0  0  0  0  0  0  0  0
    1.8098    0.6358    0.0000 C   0  0  0  0  0  0  0  0  0  0  0  0
    2.5243    0.2233    0.0000 O   0  0  0  0  0  0  0  0  0  0  0  0
    1.0953    0.2233    0.0000 C   0  0  0  0  0  0  0  0  0  0  0  0
    1.0953   -0.6017    0.0000 N   0  0  0  0  0  0  0  0  0  0  0  0
    0.3809    0.6358    0.0000 C   0  0  0  0  0  0  0  0  0  0  0  0
   -0.3336    0.2233    0.0000 C   0  0  0  0  0  0  0  0  0  0  0  0
   -0.3336   -0.6017    0.0000 C   0  0  0  0  0  0  0  0  0  0  0  0
   -1.0481    0.6358    0.0000 C   0  0  0  0  0  0  0  0  0  0  0  0
   -1.7625    0.2233    0.0000 C   0  0  0  0  0  0  0  0  0  0  0  0
   -1.0481   -1.0142    0.0000 C   0  0  0  0  0  0  0  0  0  0  0  0
   -1.7625   -0.6017    0.0000 C   0  0  0  0  0  0  0  0  0  0  0  0
   -2.4770   -1.0142    0.0000 O   0  0  0  0  0  0  0  0  0  0  0  0
  2  1  2  0
  3  2  1  0
  4  2  1  0
  4  5  1  6
  6  4  1  0
  7  6  1  0
  8  7  2  0
  9  7  1  0
 10  9  2  0
 11  8  1  0
 11 12  2  0
 12 10  1  0
 13 12  1  0
M  END
>  <DRUGBANK_ID>  (1) 
DB03839

>  <SECONDARY_ACCESSION_NUMBERS>  (1) 
EXPT01295

>  <COMMON_NAME>  (1) 
D-Tyrosine

>  <CAS_NUMBER>  (1) 
556-02-5

>  <UNII>  (1) 
WQ5G9JQ7GC

>  <SYNONYMS>  (1) 
(R)-2-Amino-3-(p-hydroxyphenyl)propionic acid; (R)-3-(p-Hydroxyphenyl)alanine; D-Tyr; D-Tyrosin

$$$$
