
     RDKit          2D

 12 12  0  0  0  0  0  0  0  0999 V2000
    0.3746    0.8124    0.0000 C   0  0  0  0  0  0  0  0  0  0  0  0
   -0.3719    0.3926    0.0000 C   0  0  0  0  0  0  0  0  0  0  0  0
    1.0827    0.3926    0.0000 C   0  0  0  0  0  0  0  0  0  0  0  0
    0.3746    1.6956    0.0000 C   0  0  0  0  0  0  0  0  0  0  0  0
   -0.3719   -0.4312    0.0000 C   0  0  0  0  0  0  0  0  0  0  0  0
   -1.0827    0.8124    0.0000 O   0  0  0  0  0  0  0  0  0  0  0  0
    1.0827   -0.4312    0.0000 C   0  0  0  0  0  0  0  0  0  0  0  0
   -0.3719    2.0689    0.0000 C   0  0  0  0  0  0  0  0  0  0  0  0
    1.0827    2.1100    0.0000 O   0  0  0  0  0  0  0  0  0  0  0  0
    0.3746   -0.8535    0.0000 C   0  0  0  0  0  0  0  0  0  0  0  0
    0.3746   -1.6904    0.0000 O   0  0  0  0  0  0  0  0  0  0  0  0
    1.0827   -2.1100    0.0000 C   0  0  0  0  0  0  0  0  0  0  0  0
  1  2  2  0
  1  3  1  0
  1  4  1  0
  2  5  1  0
  2  6  1  0
  3  7  2  0
  4  8  1  0
  4  9  2  0
  5 10  2  0
  7 10  1  0
 10 11  1  0
 11 12  1  0
M  END
>  <DRUGBANK_ID>  (1) 
DB16830

>  <COMMON_NAME>  (1) 
Paeonol

>  <CAS_NUMBER>  (1) 
552-41-0

>  <UNII>  (1) 
3R834EPI82

>  <SYNONYMS>  (1) 
Peonol

$$$$
