
     RDKit          2D

 32 36  0  0  0  0  0  0  0  0999 V2000
    5.3942   -4.4349    0.0000 C   0  0  0  0  0  0  0  0  0  0  0  0
    5.0587   -3.6812    0.0000 C   0  0  0  0  0  0  0  0  0  0  0  0
    5.8123   -3.3456    0.0000 C   0  0  0  0  0  0  0  0  0  0  0  0
    4.3050   -4.0167    0.0000 O   0  0  0  0  0  0  0  0  0  0  0  0
    4.7231   -2.9275    0.0000 C   0  0  0  0  0  0  0  0  0  0  0  0
    3.9026   -2.8413    0.0000 C   0  0  0  0  0  0  0  0  0  0  0  0
    3.5671   -2.0876    0.0000 C   0  0  0  0  0  0  0  0  0  0  0  0
    2.7466   -2.0014    0.0000 N   0  0  0  0  0  0  0  0  0  0  0  0
    2.4110   -1.2477    0.0000 C   0  0  0  0  0  0  0  0  0  0  0  0
    1.5905   -1.1614    0.0000 C   0  0  0  0  0  0  0  0  0  0  0  0
    1.2550   -0.4078    0.0000 C   0  0  0  0  0  0  0  0  0  0  0  0
    0.4345   -0.3215    0.0000 O   0  0  0  0  0  0  0  0  0  0  0  0
   -0.0504   -0.9890    0.0000 C   0  0  0  0  0  0  0  0  0  0  0  0
    0.2045   -1.7736    0.0000 C   0  0  0  0  0  0  0  0  0  0  0  0
   -0.4629   -2.2585    0.0000 N   0  0  0  0  0  0  0  0  0  0  0  0
   -1.1304   -1.7736    0.0000 N   0  0  0  0  0  0  0  0  0  0  0  0
   -0.8754   -0.9890    0.0000 C   0  0  0  0  0  0  0  0  0  0  0  0
   -1.3603   -0.3215    0.0000 C   0  0  0  0  0  0  0  0  0  0  0  0
   -2.1808   -0.4078    0.0000 C   0  0  0  0  0  0  0  0  0  0  0  0
   -2.6657    0.2597    0.0000 C   0  0  0  0  0  0  0  0  0  0  0  0
   -2.3302    1.0133    0.0000 O   0  0  0  0  0  0  0  0  0  0  0  0
   -1.5097    1.0996    0.0000 C   0  0  0  0  0  0  0  0  0  0  0  0
   -1.0248    0.4321    0.0000 C   0  0  0  0  0  0  0  0  0  0  0  0
   -0.4629   -3.0835    0.0000 C   0  0  0  0  0  0  0  0  0  0  0  0
   -0.0504   -3.7980    0.0000 C   0  0  0  0  0  0  0  0  0  0  0  0
   -0.8754   -3.7980    0.0000 C   0  0  0  0  0  0  0  0  0  0  0  0
    1.7399    0.2597    0.0000 C   0  0  0  0  0  0  0  0  0  0  0  0
    2.5604    0.1734    0.0000 C   0  0  0  0  0  0  0  0  0  0  0  0
    2.8959   -0.5802    0.0000 N   0  0  0  0  0  0  0  0  0  0  0  0
    4.0520   -1.4202    0.0000 C   0  0  0  0  0  0  0  0  0  0  0  0
    4.8725   -1.5064    0.0000 C   0  0  0  0  0  0  0  0  0  0  0  0
    5.2080   -2.2601    0.0000 N   0  0  0  0  0  0  0  0  0  0  0  0
  1  2  1  0
  2  3  1  0
  2  4  1  0
  2  5  1  0
  5  6  2  0
  5 32  1  0
  6  7  1  0
  7  8  1  0
  7 30  2  0
  8  9  1  0
  9 10  2  0
  9 29  1  0
 10 11  1  0
 11 12  1  0
 11 27  2  0
 12 13  1  0
 13 14  2  0
 13 17  1  0
 14 15  1  0
 15 16  1  0
 15 24  1  0
 16 17  2  0
 17 18  1  0
 18 19  1  0
 18 23  1  0
 19 20  1  0
 20 21  1  0
 21 22  1  0
 22 23  1  0
 24 25  1  0
 24 26  1  0
 25 26  1  0
 27 28  1  0
 28 29  2  0
 30 31  1  0
 31 32  2  0
M  END
>  <DRUGBANK_ID>  (1) 
DB16064

>  <COMMON_NAME>  (1) 
LY-3200882

>  <CAS_NUMBER>  (1) 
1898283-02-7

>  <UNII>  (1) 
19HY34R6UN

$$$$
