
     RDKit          2D

 36 39  0  0  1  0  0  0  0  0999 V2000
   -1.3979    4.8583    0.0000 C   0  0  0  0  0  0  0  0  0  0  0  0
   -0.6502    4.5096    0.0000 C   0  0  0  0  0  0  0  0  0  0  0  0
   -0.5783    3.6878    0.0000 C   0  0  0  0  0  0  0  0  0  0  0  0
    0.1694    3.3391    0.0000 C   0  0  0  0  0  0  0  0  0  0  0  0
    0.2413    2.5172    0.0000 C   0  0  0  0  0  0  0  0  0  0  0  0
    0.7145    1.8414    0.0000 C   0  0  0  0  0  0  0  0  0  0  0  0
   -0.1074    1.7695    0.0000 O   0  0  0  0  0  0  0  0  0  0  0  0
    1.5269    1.9847    0.0000 C   0  0  0  0  0  0  0  0  0  0  0  0
    1.1270    1.1270    0.0000 C   0  0  0  0  0  0  0  0  0  0  0  0
    1.9520    1.1270    0.0000 C   0  0  0  0  0  0  0  0  0  0  0  0
    2.3645    0.4125    0.0000 C   0  0  0  0  0  0  0  0  0  0  0  0
    1.9520   -0.3020    0.0000 C   0  0  0  0  0  0  0  0  0  0  0  0
    1.1270   -0.3020    0.0000 C   0  0  0  0  0  0  0  0  0  0  0  0
    0.7145    0.4125    0.0000 C   0  0  0  0  0  0  0  0  0  0  0  0
    0.0000    0.0000    0.0000 C   0  0  0  0  0  0  0  0  0  0  0  0
   -0.0000    0.8250    0.0000 O   0  0  0  0  0  0  0  0  0  0  0  0
    3.1895    0.4125    0.0000 O   0  0  0  0  0  0  0  0  0  0  0  0
    3.6020    1.1270    0.0000 C   0  0  0  0  0  0  0  0  0  0  0  0
    4.4270    1.1270    0.0000 O   0  0  0  0  0  0  0  0  0  0  0  0
    3.1895    1.8414    0.0000 C   0  0  0  0  0  0  0  0  0  0  0  0
    3.6020    2.5559    0.0000 C   0  0  0  0  0  0  0  0  0  0  0  0
    3.1895    3.2704    0.0000 C   0  0  0  0  0  0  0  0  0  0  0  0
    2.3645    3.2704    0.0000 C   0  0  0  0  0  0  0  0  0  0  0  0
    1.9520    3.9849    0.0000 C   0  0  0  0  0  0  0  0  0  0  0  0
    2.3645    4.6993    0.0000 C   0  0  0  0  0  0  0  0  0  0  0  0
    3.1895    4.6993    0.0000 C   0  0  0  0  0  0  0  0  0  0  0  0
    3.6020    3.9849    0.0000 C   0  0  0  0  0  0  0  0  0  0  0  0
    1.9520    5.4138    0.0000 O   0  0  0  0  0  0  0  0  0  0  0  0
    2.3645    6.1283    0.0000 C   0  0  0  0  0  0  0  0  0  0  0  0
    1.9520    6.8427    0.0000 C   0  0  0  0  0  0  0  0  0  0  0  0
    2.3645    7.5572    0.0000 N   0  0  0  0  0  0  0  0  0  0  0  0
    1.9520    8.2717    0.0000 C   0  0  0  0  0  0  0  0  0  0  0  0
    3.1895    7.5572    0.0000 C   0  0  0  0  0  0  0  0  0  0  0  0
    2.3645    1.8414    0.0000 O   0  0  0  0  0  0  0  0  0  0  0  0
    1.9520    2.5559    0.0000 C   0  0  0  0  0  0  0  0  0  0  0  0
    0.0256    4.9828    0.0000 C   0  0  0  0  0  0  0  0  0  0  0  0
  1  2  1  0
  2  3  2  3
  2 36  1  0
  3  4  1  0
  5  4  1  6
  5  6  1  0
  5  7  1  0
  6  7  1  0
  6  8  1  6
  6  9  1  0
  9 10  1  0
  9 14  1  1
 10 11  1  0
 10 34  1  6
 11 12  1  0
 11 17  1  6
 12 13  1  0
 14 13  1  1
 14 15  1  0
 14 16  1  0
 15 16  1  0
 17 18  1  0
 18 19  2  0
 18 20  1  0
 20 21  2  0
 21 22  1  0
 22 23  2  0
 22 27  1  0
 23 24  1  0
 24 25  2  0
 25 26  1  0
 25 28  1  0
 26 27  2  0
 28 29  1  0
 29 30  1  0
 30 31  1  0
 31 32  1  0
 31 33  1  0
 34 35  1  0
M  END
>  <DRUGBANK_ID>  (1) 
DB12671

>  <COMMON_NAME>  (1) 
Beloranib

>  <CAS_NUMBER>  (1) 
251111-30-5

>  <UNII>  (1) 
FI471K8BU6

>  <SYNONYMS>  (1) 
Beloranib

$$$$
