
     RDKit          2D

 17 20  0  0  0  0  0  0  0  0999 V2000
    1.7840    0.2269    0.0000 N   0  0  0  0  0  0  0  0  0  0  0  0
    1.2271   -0.6187    0.0000 N   0  0  0  0  0  0  0  0  0  0  0  0
    0.4021    0.4537    0.0000 C   0  0  0  0  0  0  0  0  0  0  0  0
    0.4021   -0.4537    0.0000 C   0  0  0  0  0  0  0  0  0  0  0  0
    1.1653    0.8456    0.0000 C   0  0  0  0  0  0  0  0  0  0  0  0
   -1.0622    0.4537    0.0000 C   0  0  0  0  0  0  0  0  0  0  0  0
   -0.2990   -0.8456    0.0000 C   0  0  0  0  0  0  0  0  0  0  0  0
   -0.2990    0.8456    0.0000 C   0  0  0  0  0  0  0  0  0  0  0  0
   -1.0622   -0.4537    0.0000 C   0  0  0  0  0  0  0  0  0  0  0  0
   -0.2990   -1.6705    0.0000 C   0  0  0  0  0  0  0  0  0  0  0  0
   -1.7428   -0.8456    0.0000 C   0  0  0  0  0  0  0  0  0  0  0  0
   -0.2990    1.6706    0.0000 C   0  0  0  0  0  0  0  0  0  0  0  0
   -1.7428   -1.6705    0.0000 C   0  0  0  0  0  0  0  0  0  0  0  0
    1.1653    1.6706    0.0000 C   0  0  0  0  0  0  0  0  0  0  0  0
    0.4021    2.0624    0.0000 C   0  0  0  0  0  0  0  0  0  0  0  0
   -1.0622   -2.0624    0.0000 C   0  0  0  0  0  0  0  0  0  0  0  0
   -1.7840    0.9074    0.0000 O   0  0  0  0  0  0  0  0  0  0  0  0
  2  1  1  0
  4  2  2  0
  4  3  1  0
  5  1  1  0
  5  3  2  0
  7  4  1  0
  8  3  1  0
  8  6  1  0
  9  6  1  0
  9  7  2  0
 10  7  1  0
 11  9  1  0
 12  8  2  0
 13 11  2  0
 14  5  1  0
 15 12  1  0
 15 14  2  0
 16 10  2  0
 16 13  1  0
 17  6  2  0
M  END
>  <DRUGBANK_ID>  (1) 
DB01782

>  <SECONDARY_ACCESSION_NUMBERS>  (1) 
EXPT00232

>  <COMMON_NAME>  (1) 
Pyrazolanthrone

>  <CAS_NUMBER>  (1) 
129-56-6

>  <UNII>  (1) 
1TW30Y2766

>  <SYNONYMS>  (1) 
1,9-Pyrazoloanthrone; Anthra(1,9-cd)pyrazol-6(2H)-one; Pyrazoleanthrone

$$$$
