740
     RDKit          2D

 32 36  0  0  0  0  0  0  0  0999 V2000
   -3.1901   -1.0934    0.0000 C   0  0  0  0  0  0  0  0  0  0  0  0
   -2.6381   -1.7065    0.0000 C   0  0  0  0  0  0  0  0  0  0  0  0
   -1.8311   -1.5350    0.0000 C   0  0  0  0  0  0  0  0  0  0  0  0
   -1.5762   -0.7504    0.0000 C   0  0  0  0  0  0  0  0  0  0  0  0
   -2.1282   -0.1373    0.0000 C   0  0  0  0  0  0  0  0  0  0  0  0
   -2.9352   -0.3088    0.0000 C   0  0  0  0  0  0  0  0  0  0  0  0
   -0.7692   -0.5789    0.0000 C   0  0  0  0  0  0  0  0  0  0  0  0
   -0.5143    0.2058    0.0000 C   0  0  0  0  0  0  0  0  0  0  0  0
    0.2927    0.3773    0.0000 N   0  0  0  0  0  0  0  0  0  0  0  0
    0.5476    1.1619    0.0000 C   0  0  0  0  0  0  0  0  0  0  0  0
    0.0627    1.8293    0.0000 N   0  0  0  0  0  0  0  0  0  0  0  0
    0.5476    2.4968    0.0000 N   0  0  0  0  0  0  0  0  0  0  0  0
    1.3323    2.2418    0.0000 C   0  0  0  0  0  0  0  0  0  0  0  0
    2.0467    2.6543    0.0000 C   0  0  0  0  0  0  0  0  0  0  0  0
    2.7612    2.2418    0.0000 C   0  0  0  0  0  0  0  0  0  0  0  0
    2.7612    1.4168    0.0000 C   0  0  0  0  0  0  0  0  0  0  0  0
    2.0467    1.0043    0.0000 C   0  0  0  0  0  0  0  0  0  0  0  0
    1.3323    1.4168    0.0000 C   0  0  0  0  0  0  0  0  0  0  0  0
    3.4757    1.0043    0.0000 N   0  0  0  0  0  0  0  0  0  0  0  0
    4.2293    1.3399    0.0000 C   0  0  0  0  0  0  0  0  0  0  0  0
   -1.0663    0.8189    0.0000 O   0  0  0  0  0  0  0  0  0  0  0  0
    4.7814    0.7268    0.0000 C   0  0  0  0  0  0  0  0  0  0  0  0
    3.5619    0.1839    0.0000 S   0  0  0  0  0  0  0  0  0  0  0  0
    4.3689    0.0123    0.0000 C   0  0  0  0  0  0  0  0  0  0  0  0
    2.7568    0.0039    0.0000 O   0  0  0  0  0  0  0  0  0  0  0  0
    3.2988   -0.5980    0.0000 O   0  0  0  0  0  0  0  0  0  0  0  0
   -4.2520   -2.0496    0.0000 C   0  0  0  0  0  0  0  0  0  0  0  0
   -3.9971   -1.2650    0.0000 N   0  0  0  0  0  0  0  0  0  0  0  0
   -4.5491   -0.6519    0.0000 C   0  0  0  0  0  0  0  0  0  0  0  0
   -5.3561   -0.8234    0.0000 C   0  0  0  0  0  0  0  0  0  0  0  0
   -5.6110   -1.6080    0.0000 C   0  0  0  0  0  0  0  0  0  0  0  0
   -5.0590   -2.2211    0.0000 C   0  0  0  0  0  0  0  0  0  0  0  0
  1  6  1  0
  1  2  2  0
  1 28  1  0
  2  3  1  0
  3  4  2  0
  4  7  1  0
  4  5  1  0
  5  6  2  0
  7  8  1  0
  8 21  2  0
  8  9  1  0
  9 10  1  0
 10 11  2  0
 10 18  1  0
 11 12  1  0
 12 13  1  0
 13 14  1  0
 13 18  2  0
 14 15  2  0
 15 16  1  0
 16 17  2  0
 16 19  1  0
 17 18  1  0
 19 20  1  0
 19 23  1  0
 20 22  1  0
 22 24  1  0
 23 24  1  0
 23 25  2  0
 23 26  2  0
 27 32  1  0
 27 28  1  0
 28 29  1  0
 29 30  1  0
 30 31  1  0
 31 32  1  0
M  END
>  <DRUGBANK_ID>  (1) 
DB07220

>  <COMMON_NAME>  (1) 
N-[5-(1,1-DIOXIDOISOTHIAZOLIDIN-2-YL)-1H-INDAZOL-3-YL]-2-(4-PIPERIDIN-1-YLPHENYL)ACETAMIDE

$$$$
