
     RDKit          2D

 27 30  0  0  1  0  0  0  0  0999 V2000
    4.6965    0.4118    0.0000 C   0  0  0  0  0  0  0  0  0  0  0  0
    3.9816    0.0000    0.0000 C   0  0  0  0  0  0  0  0  0  0  0  0
    3.9816   -0.8238    0.0000 C   0  0  0  0  0  0  0  0  0  0  0  0
    3.2714   -1.2356    0.0000 C   0  0  0  0  0  0  0  0  0  0  0  0
    2.5565   -0.8238    0.0000 C   0  0  0  0  0  0  0  0  0  0  0  0
    2.5565    0.0000    0.0000 C   0  0  0  0  0  0  0  0  0  0  0  0
    3.2714    0.4118    0.0000 C   0  0  0  0  0  0  0  0  0  0  0  0
    1.8415   -1.2356    0.0000 C   0  0  0  0  0  0  0  0  0  0  0  0
    1.1267   -0.8238    0.0000 N   0  0  0  0  0  0  0  0  0  0  0  0
    0.4119   -1.2356    0.0000 C   0  0  0  0  0  0  0  0  0  0  0  0
   -0.3030   -0.8238    0.0000 C   0  0  0  0  0  0  0  0  0  0  0  0
   -0.3030    0.0000    0.0000 C   0  0  0  0  0  0  0  0  0  0  0  0
    0.4119    0.4118    0.0000 C   0  0  0  0  0  0  0  0  0  0  0  0
    1.1267    0.0000    0.0000 C   0  0  0  0  0  0  0  0  0  0  0  0
   -1.0179    0.4118    0.0000 C   0  0  0  0  0  0  0  0  0  0  0  0
   -1.7281    0.0000    0.0000 N   0  0  0  0  0  0  0  0  0  0  0  0
   -2.4430    0.4118    0.0000 C   0  0  0  0  0  0  0  0  0  0  0  0
   -3.2715    0.4118    0.0000 C   0  0  0  0  0  0  0  0  0  0  0  0
   -2.8550    1.1268    0.0000 C   0  0  0  0  0  0  0  0  0  0  0  0
   -3.9818    0.0000    0.0000 C   0  0  0  0  0  0  0  0  0  0  0  0
   -3.9818   -0.8238    0.0000 C   0  0  0  0  0  0  0  0  0  0  0  0
   -4.6965   -1.2356    0.0000 C   0  0  0  0  0  0  0  0  0  0  0  0
   -5.4115   -0.8238    0.0000 C   0  0  0  0  0  0  0  0  0  0  0  0
   -5.4115    0.0000    0.0000 C   0  0  0  0  0  0  0  0  0  0  0  0
   -4.6965    0.4118    0.0000 C   0  0  0  0  0  0  0  0  0  0  0  0
    4.6965    1.2356    0.0000 O   0  0  0  0  0  0  0  0  0  0  0  0
    5.4115    0.0000    0.0000 O   0  0  0  0  0  0  0  0  0  0  0  0
  1  2  1  0
  1 26  2  0
  1 27  1  0
  2  3  2  0
  2  7  1  0
  3  4  1  0
  4  5  2  0
  5  6  1  0
  5  8  1  0
  6  7  2  0
  8  9  1  0
  9 10  1  0
  9 14  1  0
 10 11  1  0
 11 12  1  0
 12 13  1  0
 12 15  1  0
 13 14  1  0
 15 16  1  0
 17 16  1  1
 17 18  1  0
 17 19  1  0
 18 19  1  0
 18 20  1  6
 20 21  2  0
 20 25  1  0
 21 22  1  0
 22 23  2  0
 23 24  1  0
 24 25  2  0
M  END
>  <DRUGBANK_ID>  (1) 
DB16895

>  <COMMON_NAME>  (1) 
GSK-2879552

>  <CAS_NUMBER>  (1) 
1401966-69-5

>  <UNII>  (1) 
GT77Z6Y09Z

>  <SYNONYMS>  (1) 
GSK2879552

$$$$
