
     RDKit          2D

 28 31  0  0  0  0  0  0  0  0999 V2000
   -1.6092   -1.6641    0.0000 C   0  0  0  0  0  0  0  0  0  0  0  0
   -1.6092   -2.4899    0.0000 C   0  0  0  0  0  0  0  0  0  0  0  0
   -0.8965   -2.8984    0.0000 C   0  0  0  0  0  0  0  0  0  0  0  0
   -0.1838   -2.4899    0.0000 O   0  0  0  0  0  0  0  0  0  0  0  0
   -0.1838   -1.6641    0.0000 P   0  0  0  0  0  0  0  0  0  0  0  0
   -0.8965   -1.2470    0.0000 O   0  0  0  0  0  0  0  0  0  0  0  0
    3.8004    0.4223    0.0000 N   0  0  0  0  0  0  0  0  0  0  0  0
    4.4633    0.8360    0.0000 C   0  0  0  0  0  0  0  0  0  0  0  0
    4.4605    1.6632    0.0000 N   0  0  0  0  0  0  0  0  0  0  0  0
    3.7987    2.0727    0.0000 C   0  0  0  0  0  0  0  0  0  0  0  0
    3.1434    0.8355    0.0000 C   0  0  0  0  0  0  0  0  0  0  0  0
    3.1446    1.6611    0.0000 C   0  0  0  0  0  0  0  0  0  0  0  0
    2.4184    1.9146    0.0000 N   0  0  0  0  0  0  0  0  0  0  0  0
    1.9755    1.2523    0.0000 C   0  0  0  0  0  0  0  0  0  0  0  0
    2.4164    0.5805    0.0000 N   0  0  0  0  0  0  0  0  0  0  0  0
    3.7968    2.8984    0.0000 N   0  0  0  0  0  0  0  0  0  0  0  0
    2.0605   -0.1494    0.0000 C   0  0  0  0  0  0  0  0  0  0  0  0
    1.2966   -0.1765    0.0000 C   0  0  0  0  0  0  0  0  0  0  0  0
    0.9360   -0.9064    0.0000 O   0  0  0  0  0  0  0  0  0  0  0  0
    0.1805   -0.9344    0.0000 C   0  0  0  0  0  0  0  0  0  0  0  0
    0.4924   -2.0545    0.0000 O   0  0  0  0  0  0  0  0  0  0  0  0
   -2.3255   -1.2533    0.0000 C   0  0  0  0  0  0  0  0  0  0  0  0
   -2.3290   -0.4283    0.0000 C   0  0  0  0  0  0  0  0  0  0  0  0
   -3.0446   -0.0175    0.0000 C   0  0  0  0  0  0  0  0  0  0  0  0
   -3.7530   -0.4327    0.0000 C   0  0  0  0  0  0  0  0  0  0  0  0
   -3.7498   -1.2626    0.0000 C   0  0  0  0  0  0  0  0  0  0  0  0
   -3.0383   -1.6696    0.0000 C   0  0  0  0  0  0  0  0  0  0  0  0
   -4.4633   -1.6784    0.0000 Cl  0  0  0  0  0  0  0  0  0  0  0  0
  1  2  1  0
  1  6  1  0
  1 22  1  1
  2  3  1  0
  3  4  1  0
  4  5  1  0
  5 20  1  0
  5 21  2  0
  5  6  1  0
  7  8  2  0
  8  9  1  0
  9 10  2  0
 10 16  1  0
 10 12  1  0
 11 12  2  0
 11  7  1  0
 12 13  1  0
 13 14  2  0
 14 15  1  0
 15 11  1  0
 15 17  1  0
 17 18  1  0
 18 19  1  0
 19 20  1  0
 22 23  2  0
 23 24  1  0
 24 25  2  0
 25 26  1  0
 26 27  2  0
 26 28  1  0
 27 22  1  0
M  END
>  <DRUGBANK_ID>  (1) 
DB15550

>  <COMMON_NAME>  (1) 
Pradefovir

>  <CAS_NUMBER>  (1) 
625095-60-5

>  <UNII>  (1) 
GZE85Q9Q61

>  <SYNONYMS>  (1) 
Pradefovir

$$$$
