
     RDKit          2D

 14 13  0  0  0  0  0  0  0  0999 V2000
    5.3625   -2.1434    0.0000 C   0  0  0  0  0  0  0  0  0  0  0  0
    4.5375   -1.3184    0.0000 C   0  0  0  0  0  0  0  0  0  0  0  0
    4.5375   -2.9684    0.0000 C   0  0  0  0  0  0  0  0  0  0  0  0
   -0.8250    0.0000    0.0000 C   0  0  0  0  0  0  0  0  0  0  0  0
    0.0000    0.8250    0.0000 C   0  0  0  0  0  0  0  0  0  0  0  0
    0.0000   -0.8250    0.0000 C   0  0  0  0  0  0  0  0  0  0  0  0
    2.4750   -1.4289    0.0000 C   0  0  0  0  0  0  0  0  0  0  0  0
    2.0625   -0.7144    0.0000 C   0  0  0  0  0  0  0  0  0  0  0  0
    3.3000   -1.4289    0.0000 C   0  0  0  0  0  0  0  0  0  0  0  0
    1.2375   -0.7144    0.0000 C   0  0  0  0  0  0  0  0  0  0  0  0
    3.7125   -2.1434    0.0000 C   0  0  0  0  0  0  0  0  0  0  0  0
    0.8250    0.0000    0.0000 C   0  0  0  0  0  0  0  0  0  0  0  0
    4.5375   -2.1434    0.0000 N   0  0  0  0  0  0  0  0  0  0  0  0
    0.0000    0.0000    0.0000 N   0  0  0  0  0  0  0  0  0  0  0  0
  8  7  1  0
  9  7  1  0
 10  8  1  0
 11  9  1  0
 12 10  1  0
 13  1  1  0
 13  2  1  0
 13  3  1  0
 13 11  1  0
 14  4  1  0
 14  5  1  0
 14  6  1  0
 14 12  1  0
M  CHG  2  13   1  14   1
M  END
>  <DRUGBANK_ID>  (1) 
DB08960

>  <COMMON_NAME>  (1) 
Hexamethonium

>  <CAS_NUMBER>  (1) 
60-26-4

>  <UNII>  (1) 
3C9PSP36Z2

>  <SYNONYMS>  (1) 
N,N,N,N',N',N'-hexamethylhexane-1,6-diaminium

$$$$
