PVC
     RDKit          2D

 30 29  0  0  0  0  0  0  0  0999 V2000
    4.2465    0.1574    0.0000 C   0  0  0  0  0  0  0  0  0  0  0  0
    4.2465    0.9825    0.0000 O   0  0  0  0  0  0  0  0  0  0  0  0
    3.5321   -0.2551    0.0000 C   0  0  0  0  0  0  0  0  0  0  0  0
    2.8175    0.1574    0.0000 C   0  0  0  0  0  0  0  0  0  0  0  0
    2.1030   -0.2551    0.0000 C   0  0  0  0  0  0  0  0  0  0  0  0
    1.3884    0.1574    0.0000 C   0  0  0  0  0  0  0  0  0  0  0  0
    0.6740   -0.2551    0.0000 C   0  0  0  0  0  0  0  0  0  0  0  0
   -0.0406    0.1574    0.0000 C   0  0  0  0  0  0  0  0  0  0  0  0
   -0.7552   -0.2551    0.0000 C   0  0  0  0  0  0  0  0  0  0  0  0
   -1.4696    0.1574    0.0000 C   0  0  0  0  0  0  0  0  0  0  0  0
   -2.1842   -0.2551    0.0000 C   0  0  0  0  0  0  0  0  0  0  0  0
   -2.8987    0.1574    0.0000 C   0  0  0  0  0  0  0  0  0  0  0  0
   -3.6133   -0.2551    0.0000 C   0  0  0  0  0  0  0  0  0  0  0  0
   -4.3277    0.1574    0.0000 C   0  0  0  0  0  0  0  0  0  0  0  0
    5.6756    0.1574    0.0000 C   0  0  0  0  0  0  0  0  0  0  0  0
    6.3901   -0.2551    0.0000 C   0  0  0  0  0  0  0  0  0  0  0  0
    7.1046    0.1574    0.0000 C   0  0  0  0  0  0  0  0  0  0  0  0
    7.8192   -0.2551    0.0000 C   0  0  0  0  0  0  0  0  0  0  0  0
    8.5336    0.1574    0.0000 C   0  0  0  0  0  0  0  0  0  0  0  0
    8.5336    0.9825    0.0000 C   0  0  0  0  0  0  0  0  0  0  0  0
    9.2482   -0.2551    0.0000 O   0  0  0  0  0  0  0  0  0  0  0  0
    7.8192   -1.0802    0.0000 O   0  0  0  0  0  0  0  0  0  0  0  0
    7.1046    0.9825    0.0000 O   0  0  0  0  0  0  0  0  0  0  0  0
    6.3901   -1.0802    0.0000 O   0  0  0  0  0  0  0  0  0  0  0  0
    4.9611   -0.2551    0.0000 O   0  0  0  0  0  0  0  0  0  0  0  0
    9.2482    1.3950    0.0000 O   0  0  0  0  0  0  0  0  0  0  0  0
    7.8192    1.3950    0.0000 O   0  0  0  0  0  0  0  0  0  0  0  0
   -5.0423   -0.2551    0.0000 C   0  0  0  0  0  0  0  0  0  0  0  0
   -5.7568    0.1574    0.0000 C   0  0  0  0  0  0  0  0  0  0  0  0
   -6.4713   -0.2551    0.0000 C   0  0  0  0  0  0  0  0  0  0  0  0
  1  2  2  0
  1  3  1  0
  1 25  1  0
  3  4  1  0
  4  5  1  0
  5  6  1  0
  6  7  1  0
  7  8  1  0
  8  9  1  0
  9 10  1  0
 10 11  1  0
 11 12  1  0
 12 13  1  0
 13 14  1  0
 14 28  1  0
 15 16  1  0
 15 25  1  0
 16 17  1  0
 16 24  1  1
 17 18  1  0
 17 23  1  1
 18 19  2  0
 18 22  1  0
 19 20  1  0
 19 21  1  0
 20 26  2  0
 20 27  1  0
 28 29  1  0
 29 30  1  0
M  END
>  <DRUGBANK_ID>  (1) 
DB08438

>  <COMMON_NAME>  (1) 
(2E,4R,5S)-2,3,4,5-TETRAHYDROXY-6-(PALMITOYLOXY)HEX-2-ENOIC ACID

$$$$
