U1N
     RDKit          2D

 24 25  0  0  0  0  0  0  0  0999 V2000
   -5.4795    2.4520    0.0000 C   0  0  0  0  0  0  0  0  0  0  0  0
   -5.4795    1.6270    0.0000 C   0  0  0  0  0  0  0  0  0  0  0  0
   -4.7650    1.2145    0.0000 C   0  0  0  0  0  0  0  0  0  0  0  0
   -4.0505    1.6270    0.0000 C   0  0  0  0  0  0  0  0  0  0  0  0
   -4.0505    2.4520    0.0000 C   0  0  0  0  0  0  0  0  0  0  0  0
   -4.7650    2.8645    0.0000 C   0  0  0  0  0  0  0  0  0  0  0  0
   -3.3361    1.2145    0.0000 C   0  0  0  0  0  0  0  0  0  0  0  0
   -2.6216    1.6270    0.0000 C   0  0  0  0  0  0  0  0  0  0  0  0
   -1.9071    1.2145    0.0000 C   0  0  0  0  0  0  0  0  0  0  0  0
   -1.9071    0.3895    0.0000 C   0  0  0  0  0  0  0  0  0  0  0  0
   -1.1927    1.6270    0.0000 N   0  0  0  0  0  0  0  0  0  0  0  0
   -0.4782    1.2145    0.0000 C   0  0  0  0  0  0  0  0  0  0  0  0
    0.2363    1.6270    0.0000 C   0  0  0  0  0  0  0  0  0  0  0  0
    0.2363    2.4520    0.0000 O   0  0  0  0  0  0  0  0  0  0  0  0
    0.9508    1.2145    0.0000 C   0  0  0  0  0  0  0  0  0  0  0  0
    0.9508    0.3895    0.0000 C   0  0  0  0  0  0  0  0  0  0  0  0
    1.6652   -0.0230    0.0000 C   0  0  0  0  0  0  0  0  0  0  0  0
    2.3797    0.3895    0.0000 C   0  0  0  0  0  0  0  0  0  0  0  0
    3.0942   -0.0230    0.0000 F   0  0  0  0  0  0  0  0  0  0  0  0
    2.3797    1.2145    0.0000 C   0  0  0  0  0  0  0  0  0  0  0  0
    1.6652    1.6270    0.0000 C   0  0  0  0  0  0  0  0  0  0  0  0
   -6.1940    2.8645    0.0000 C   0  0  0  0  0  0  0  0  0  0  0  0
   -6.9084    2.4520    0.0000 N   0  0  0  0  0  0  0  0  0  0  0  0
   -6.1940    3.6895    0.0000 O   0  0  0  0  0  0  0  0  0  0  0  0
  1  6  2  0
  1 22  1  0
  1  2  1  0
  2  3  2  0
  3  4  1  0
  4  5  2  0
  4  7  1  0
  5  6  1  0
  7  8  1  0
  8  9  1  0
  9 11  1  0
  9 10  1  6
 11 12  1  0
 12 13  1  0
 13 15  1  0
 13 14  2  0
 15 21  1  0
 15 16  2  0
 16 17  1  0
 17 18  2  0
 18 19  1  0
 18 20  1  0
 20 21  2  0
 22 24  2  0
 22 23  1  0
M  END
>  <DRUGBANK_ID>  (1) 
DB08672

>  <COMMON_NAME>  (1) 
4-[(3R)-3-{[2-(4-FLUOROPHENYL)-2-OXOETHYL]AMINO}BUTYL]BENZAMIDE

$$$$
