1AE
     RDKit          2D

 13 12  0  0  0  0  0  0  0  0999 V2000
    3.6284    2.6541    0.0000 C   0  0  0  0  0  0  0  0  0  0  0  0
    2.8034    2.6541    0.0000 C   0  0  0  0  0  0  0  0  0  0  0  0
    2.3909    1.9396    0.0000 C   0  0  0  0  0  0  0  0  0  0  0  0
    1.5659    1.9396    0.0000 C   0  0  0  0  0  0  0  0  0  0  0  0
    1.1534    2.6541    0.0000 O   0  0  0  0  0  0  0  0  0  0  0  0
    1.1534    1.2251    0.0000 C   0  0  0  0  0  0  0  0  0  0  0  0
    1.5659    0.5106    0.0000 O   0  0  0  0  0  0  0  0  0  0  0  0
    0.3284    1.2251    0.0000 C   0  0  0  0  0  0  0  0  0  0  0  0
   -0.0841    0.5106    0.0000 O   0  0  0  0  0  0  0  0  0  0  0  0
    0.3284   -0.2038    0.0000 P   0  0  0  0  0  0  0  0  0  0  0  0
    0.7409   -0.9183    0.0000 O   0  0  0  0  0  0  0  0  0  0  0  0
   -0.3860   -0.6163    0.0000 O   0  0  0  0  0  0  0  0  0  0  0  0
    1.0429    0.2087    0.0000 O   0  0  0  0  0  0  0  0  0  0  0  0
  1  2  1  0
  2  3  1  0
  3  4  1  0
  4  6  1  0
  4  5  2  0
  6  8  2  0
  6  7  1  0
  8  9  1  0
  9 10  1  0
 10 12  2  0
 10 11  1  0
 10 13  1  0
M  END
>  <DRUGBANK_ID>  (1) 
DB06881

>  <COMMON_NAME>  (1) 
(1Z)-2-HYDROXY-3-OXOHEX-1-EN-1-YL DIHYDROGEN PHOSPHATE

$$$$
