A41
     RDKit          2D

 20 21  0  0  0  0  0  0  0  0999 V2000
    1.1023    2.4294    0.0000 C   0  0  0  0  0  0  0  0  0  0  0  0
    1.8168    2.0169    0.0000 C   0  0  0  0  0  0  0  0  0  0  0  0
    1.8168    1.1919    0.0000 C   0  0  0  0  0  0  0  0  0  0  0  0
    1.1023    0.7794    0.0000 C   0  0  0  0  0  0  0  0  0  0  0  0
    0.3878    1.1919    0.0000 C   0  0  0  0  0  0  0  0  0  0  0  0
    0.3878    2.0169    0.0000 C   0  0  0  0  0  0  0  0  0  0  0  0
    1.1023   -0.0456    0.0000 S   0  0  0  0  0  0  0  0  0  0  0  0
    1.1023   -0.8706    0.0000 N   0  0  0  0  0  0  0  0  0  0  0  0
    0.2773   -0.0456    0.0000 O   0  0  0  0  0  0  0  0  0  0  0  0
    1.9273   -0.0456    0.0000 O   0  0  0  0  0  0  0  0  0  0  0  0
    0.3878   -1.2831    0.0000 C   0  0  0  0  0  0  0  0  0  0  0  0
    0.3878   -2.1081    0.0000 C   0  0  0  0  0  0  0  0  0  0  0  0
   -0.3266   -2.5206    0.0000 C   0  0  0  0  0  0  0  0  0  0  0  0
   -1.0411   -2.1081    0.0000 C   0  0  0  0  0  0  0  0  0  0  0  0
   -1.0411   -1.2831    0.0000 C   0  0  0  0  0  0  0  0  0  0  0  0
   -0.3266   -0.8706    0.0000 C   0  0  0  0  0  0  0  0  0  0  0  0
   -0.3266   -0.0456    0.0000 C   0  0  0  0  0  0  0  0  0  0  0  0
   -1.0411    0.3669    0.0000 O   0  0  0  0  0  0  0  0  0  0  0  0
    0.3878    0.3669    0.0000 O   0  0  0  0  0  0  0  0  0  0  0  0
   -1.7556   -2.5206    0.0000 C   0  0  0  0  0  0  0  0  0  0  0  0
  1  2  2  0
  1  6  1  0
  2  3  1  0
  3  4  2  0
  4  5  1  0
  4  7  1  0
  5  6  2  0
  7  8  1  0
  7  9  2  0
  7 10  2  0
  8 11  1  0
 11 12  2  0
 11 16  1  0
 12 13  1  0
 13 14  2  0
 14 15  1  0
 14 20  1  0
 15 16  2  0
 16 17  1  0
 17 18  1  0
 17 19  2  0
M  END
>  <DRUGBANK_ID>  (1) 
DB07313

>  <COMMON_NAME>  (1) 
5-METHYL-2-[(PHENYLSULFONYL)AMINO]BENZOIC ACID

>  <UNII>  (1) 
BQ6W7H7DKV

$$$$
