
     RDKit          2D

  5  4  0  0  0  0  0  0  0  0999 V2000
    0.0000    0.8250    0.0000 O   0  0  0  0  0  0  0  0  0  0  0  0
   -0.0000   -0.8250    0.0000 O   0  0  0  0  0  0  0  0  0  0  0  0
   -0.8250    0.0000    0.0000 O   0  0  0  0  0  0  0  0  0  0  0  0
    0.8250    0.0000    0.0000 O   0  0  0  0  0  0  0  0  0  0  0  0
    0.0000    0.0000    0.0000 P   0  0  0  0  0  0  0  0  0  0  0  0
  5  1  1  0
  5  2  1  0
  5  3  1  0
  5  4  2  0
M  CHG  3   1  -1   2  -1   3  -1
M  END
>  <DRUGBANK_ID>  (1) 
DB14523

>  <COMMON_NAME>  (1) 
Phosphate ion

>  <CAS_NUMBER>  (1) 
14265-44-2

>  <UNII>  (1) 
NK08V8K8HR

>  <SYNONYMS>  (1) 
Orthophosphate; Phosphate

$$$$
