HDI
     RDKit          2D

 17 18  0  0  0  0  0  0  0  0999 V2000
   -3.4797   -0.7420    0.0000 C   0  0  0  0  0  0  0  0  0  0  0  0
   -2.0820   -0.4449    0.0000 C   0  0  0  0  0  0  0  0  0  0  0  0
   -1.9104   -1.2518    0.0000 O   0  0  0  0  0  0  0  0  0  0  0  0
   -2.8666   -0.1899    0.0000 O   0  0  0  0  0  0  0  0  0  0  0  0
   -1.4689    0.1072    0.0000 C   0  0  0  0  0  0  0  0  0  0  0  0
    0.3957   -0.9324    0.0000 N   0  0  0  0  0  0  0  0  0  0  0  0
   -0.4293   -0.9324    0.0000 O   0  0  0  0  0  0  0  0  0  0  0  0
   -0.6842   -0.1478    0.0000 C   0  0  0  0  0  0  0  0  0  0  0  0
   -0.0168    0.3371    0.0000 C   0  0  0  0  0  0  0  0  0  0  0  0
    0.6506   -0.1478    0.0000 C   0  0  0  0  0  0  0  0  0  0  0  0
    3.7891    0.8720    0.0000 O   0  0  0  0  0  0  0  0  0  0  0  0
    2.0484   -0.4449    0.0000 C   0  0  0  0  0  0  0  0  0  0  0  0
    1.4353    0.1072    0.0000 C   0  0  0  0  0  0  0  0  0  0  0  0
    1.6068    0.9141    0.0000 C   0  0  0  0  0  0  0  0  0  0  0  0
    2.3914    1.1691    0.0000 C   0  0  0  0  0  0  0  0  0  0  0  0
    3.0045    0.6170    0.0000 C   0  0  0  0  0  0  0  0  0  0  0  0
    2.8330   -0.1899    0.0000 C   0  0  0  0  0  0  0  0  0  0  0  0
  1  4  1  0
  2  3  2  0
  2  4  1  0
  2  5  1  0
  6  7  1  0
  6 10  2  0
  7  8  1  0
  8  5  1  1
  8  9  1  0
  9 10  1  0
 10 13  1  0
 11 16  1  0
 12 13  2  0
 12 17  1  0
 13 14  1  0
 14 15  2  0
 15 16  1  0
 16 17  2  0
M  END
>  <DRUGBANK_ID>  (1) 
DB07888

>  <COMMON_NAME>  (1) 
3-(4-HYDROXYPHENYL)-4,5-DIHYDRO-5-ISOXAZOLE-ACETIC ACID METHYL ESTER

$$$$
