RE2
     RDKit          2D

 17 18  0  0  0  0  0  0  0  0999 V2000
   -1.7998    1.4238    0.0000 C   0  0  0  0  0  0  0  0  0  0  0  0
   -2.5143    1.0113    0.0000 C   0  0  0  0  0  0  0  0  0  0  0  0
   -2.5143    0.1863    0.0000 C   0  0  0  0  0  0  0  0  0  0  0  0
    0.3436    0.1863    0.0000 C   0  0  0  0  0  0  0  0  0  0  0  0
   -0.3709   -0.2262    0.0000 C   0  0  0  0  0  0  0  0  0  0  0  0
   -1.7998   -0.2262    0.0000 C   0  0  0  0  0  0  0  0  0  0  0  0
   -1.0853    0.1863    0.0000 C   0  0  0  0  0  0  0  0  0  0  0  0
   -1.0853    1.0113    0.0000 C   0  0  0  0  0  0  0  0  0  0  0  0
   -3.2288   -0.2262    0.0000 O   0  0  0  0  0  0  0  0  0  0  0  0
   -1.7998    2.2488    0.0000 O   0  0  0  0  0  0  0  0  0  0  0  0
    1.0581   -0.2262    0.0000 C   0  0  0  0  0  0  0  0  0  0  0  0
    1.7725    0.1863    0.0000 C   0  0  0  0  0  0  0  0  0  0  0  0
    2.4870   -0.2262    0.0000 C   0  0  0  0  0  0  0  0  0  0  0  0
    2.4870   -1.0512    0.0000 C   0  0  0  0  0  0  0  0  0  0  0  0
    3.2015   -1.4637    0.0000 O   0  0  0  0  0  0  0  0  0  0  0  0
    1.7725   -1.4637    0.0000 C   0  0  0  0  0  0  0  0  0  0  0  0
    1.0581   -1.0512    0.0000 C   0  0  0  0  0  0  0  0  0  0  0  0
  1  8  2  0
  2  1  1  0
  2  3  2  0
  3  6  1  0
  4 11  1  0
  5  4  1  0
  6  7  2  0
  7  5  1  0
  8  7  1  0
  9  3  1  0
 10  1  1  0
 11 12  2  0
 12 13  1  0
 14 13  2  0
 14 15  1  0
 16 14  1  0
 17 11  1  0
 17 16  2  0
M  END
>  <DRUGBANK_ID>  (1) 
DB08466

>  <COMMON_NAME>  (1) 
5-[2-(4-hydroxyphenyl)ethyl]benzene-1,3-diol

>  <UNII>  (1) 
CBY43AY0TT

$$$$
