
     RDKit          2D

 21 18  0  0  1  0  0  0  0  0999 V2000
   -2.1434   -0.4875    0.0000 C   0  0  0  0  0  0  0  0  0  0  0  0
   -1.4289   -0.0750    0.0000 C   0  0  0  0  0  0  0  0  0  0  0  0
   -1.4289    0.7500    0.0000 O   0  0  0  0  0  0  0  0  0  0  0  0
   -0.7145   -0.4875    0.0000 N   0  0  0  0  0  0  0  0  0  0  0  0
    0.0000   -0.0750    0.0000 C   0  0  0  0  0  0  0  0  0  0  0  0
    0.0000    0.7500    0.0000 C   0  0  0  0  0  0  0  0  0  0  0  0
    0.7145    1.1625    0.0000 S   0  0  0  0  0  0  0  0  0  0  0  0
    0.7145   -0.4875    0.0000 C   0  0  0  0  0  0  0  0  0  0  0  0
    0.7145   -1.3125    0.0000 O   0  0  0  0  0  0  0  0  0  0  0  0
    1.4289   -0.0750    0.0000 O   0  0  0  0  0  0  0  0  0  0  0  0
    4.5006    1.1963    0.0000 C   0  0  0  0  0  0  0  0  0  0  0  0
    5.2150    0.7837    0.0000 C   0  0  0  0  0  0  0  0  0  0  0  0
    5.9295    1.1963    0.0000 O   0  0  0  0  0  0  0  0  0  0  0  0
    5.2150   -0.0413    0.0000 N   0  0  0  0  0  0  0  0  0  0  0  0
    5.9295   -0.4538    0.0000 C   0  0  0  0  0  0  0  0  0  0  0  0
    5.9295   -1.2788    0.0000 C   0  0  0  0  0  0  0  0  0  0  0  0
    6.6440   -1.6913    0.0000 S   0  0  0  0  0  0  0  0  0  0  0  0
    6.6440   -0.0412    0.0000 C   0  0  0  0  0  0  0  0  0  0  0  0
    6.6440    0.7838    0.0000 O   0  0  0  0  0  0  0  0  0  0  0  0
    7.3584   -0.4538    0.0000 O   0  0  0  0  0  0  0  0  0  0  0  0
    2.1434    0.3375    0.0000 Zn  0  0  0  0  0 15  0  0  0  0  0  0
  1  2  1  0
  2  3  2  0
  2  4  1  0
  5  4  1  0
  5  6  1  1
  5  8  1  0
  6  7  1  0
  8  9  2  0
  8 10  1  0
 11 12  1  0
 12 13  2  0
 12 14  1  0
 15 14  1  0
 15 16  1  6
 15 18  1  0
 16 17  1  0
 18 19  2  0
 18 20  1  0
M  CHG  3  10  -1  20  -1  21   2
M  END
>  <DRUGBANK_ID>  (1) 
DB14479

>  <SECONDARY_ACCESSION_NUMBERS>  (1) 
DBSALT001548

>  <COMMON_NAME>  (1) 
Acetylcysteine zinc

>  <CAS_NUMBER>  (1) 
49793-39-7

>  <UNII>  (1) 
LP811J9FA1

>  <SYNONYMS>  (1) 
N-acetyl-L-cysteine zinc salt; Zinc acetylcysteine

$$$$
