BIT
     RDKit          2D

 22 25  0  0  0  0  0  0  0  0999 V2000
    0.3399    2.1503    0.0000 O   0  0  0  0  0  0  0  0  0  0  0  0
    0.3399    1.3253    0.0000 C   0  0  0  0  0  0  0  0  0  0  0  0
    1.0544    0.9128    0.0000 C   0  0  0  0  0  0  0  0  0  0  0  0
    1.7689    1.3253    0.0000 C   0  0  0  0  0  0  0  0  0  0  0  0
    2.4833    0.9128    0.0000 C   0  0  0  0  0  0  0  0  0  0  0  0
    3.1978    1.3253    0.0000 C   0  0  0  0  0  0  0  0  0  0  0  0
    2.4833    0.0878    0.0000 C   0  0  0  0  0  0  0  0  0  0  0  0
    1.0544    0.0878    0.0000 C   0  0  0  0  0  0  0  0  0  0  0  0
    1.7689   -0.3247    0.0000 C   0  0  0  0  0  0  0  0  0  0  0  0
   -0.3745    0.9128    0.0000 C   0  0  0  0  0  0  0  0  0  0  0  0
   -0.3745    0.0878    0.0000 C   0  0  0  0  0  0  0  0  0  0  0  0
    0.3399   -0.3247    0.0000 N   0  0  0  0  0  0  0  0  0  0  0  0
   -0.4608    1.7333    0.0000 O   0  0  0  0  0  0  0  0  0  0  0  0
   -1.1592    1.1678    0.0000 C   0  0  0  0  0  0  0  0  0  0  0  0
   -1.6441    0.5003    0.0000 C   0  0  0  0  0  0  0  0  0  0  0  0
   -1.1592   -0.1671    0.0000 N   0  0  0  0  0  0  0  0  0  0  0  0
   -1.4141   -0.9517    0.0000 C   0  0  0  0  0  0  0  0  0  0  0  0
   -0.8621   -1.5648    0.0000 C   0  0  0  0  0  0  0  0  0  0  0  0
   -1.1170   -2.3494    0.0000 C   0  0  0  0  0  0  0  0  0  0  0  0
   -1.9240   -2.5210    0.0000 C   0  0  0  0  0  0  0  0  0  0  0  0
   -2.4760   -1.9079    0.0000 C   0  0  0  0  0  0  0  0  0  0  0  0
   -2.2211   -1.1232    0.0000 C   0  0  0  0  0  0  0  0  0  0  0  0
  1  2  2  0
  2  3  1  0
  2 10  1  0
  3  4  1  0
  3  8  2  0
  4  5  2  0
  5  6  1  0
  5  7  1  0
  7  9  2  0
  8  9  1  0
  8 12  1  0
 10 11  1  0
 10 13  1  6
 10 14  1  0
 11 12  2  0
 11 16  1  0
 14 15  1  0
 15 16  1  0
 16 17  1  0
 17 18  2  0
 17 22  1  0
 18 19  1  0
 19 20  2  0
 20 21  1  0
 21 22  2  0
M  END
>  <DRUGBANK_ID>  (1) 
DB01944

>  <SECONDARY_ACCESSION_NUMBERS>  (1) 
EXPT00711

>  <COMMON_NAME>  (1) 
(S)-blebbistatin

>  <UNII>  (1) 
8WII7624I5

$$$$
