
     RDKit          2D

 28 31  0  0  0  0  0  0  0  0999 V2000
    2.3024   -0.7062    0.0000 C   0  0  0  0  0  0  0  0  0  0  0  0
    2.0475    0.0783    0.0000 C   0  0  0  0  0  0  0  0  0  0  0  0
    1.2225    0.0783    0.0000 C   0  0  0  0  0  0  0  0  0  0  0  0
    0.9675   -0.7062    0.0000 C   0  0  0  0  0  0  0  0  0  0  0  0
    1.6350   -1.1911    0.0000 N   0  0  0  0  0  0  0  0  0  0  0  0
    1.6350   -2.0161    0.0000 C   0  0  0  0  0  0  0  0  0  0  0  0
    0.1606   -0.8777    0.0000 C   0  0  0  0  0  0  0  0  0  0  0  0
   -0.3914   -0.2646    0.0000 C   0  0  0  0  0  0  0  0  0  0  0  0
   -0.1364    0.5199    0.0000 C   0  0  0  0  0  0  0  0  0  0  0  0
    0.6704    0.6914    0.0000 C   0  0  0  0  0  0  0  0  0  0  0  0
   -0.6885    1.1330    0.0000 O   0  0  0  0  0  0  0  0  0  0  0  0
   -1.4954    0.9615    0.0000 C   0  0  0  0  0  0  0  0  0  0  0  0
   -1.7504    0.1768    0.0000 O   0  0  0  0  0  0  0  0  0  0  0  0
   -2.0475    1.5746    0.0000 N   0  0  0  0  0  0  0  0  0  0  0  0
   -2.8544    1.4030    0.0000 C   0  0  0  0  0  0  0  0  0  0  0  0
   -3.1094    0.6184    0.0000 C   0  0  0  0  0  0  0  0  0  0  0  0
   -2.5573    0.0053    0.0000 C   0  0  0  0  0  0  0  0  0  0  0  0
   -2.8123   -0.7792    0.0000 C   0  0  0  0  0  0  0  0  0  0  0  0
   -3.9164    0.4469    0.0000 C   0  0  0  0  0  0  0  0  0  0  0  0
   -4.4684    1.0600    0.0000 C   0  0  0  0  0  0  0  0  0  0  0  0
   -4.2134    1.8446    0.0000 C   0  0  0  0  0  0  0  0  0  0  0  0
   -3.4065    2.0161    0.0000 C   0  0  0  0  0  0  0  0  0  0  0  0
    2.5995    0.6914    0.0000 C   0  0  0  0  0  0  0  0  0  0  0  0
    3.4065    0.5199    0.0000 C   0  0  0  0  0  0  0  0  0  0  0  0
    3.6614   -0.2646    0.0000 N   0  0  0  0  0  0  0  0  0  0  0  0
    3.1094   -0.8777    0.0000 O   0  0  0  0  0  0  0  0  0  0  0  0
    4.4684   -0.4362    0.0000 C   0  0  0  0  0  0  0  0  0  0  0  0
    1.7119    0.8320    0.0000 C   0  0  0  0  0  0  0  0  0  0  0  0
  1  2  1  0
  1  5  1  0
  1 26  1  6
  2  3  1  0
  2 23  1  0
  2 28  1  1
  3  4  2  0
  3 10  1  0
  4  5  1  0
  4  7  1  0
  5  6  1  0
  7  8  2  0
  8  9  1  0
  9 10  2  0
  9 11  1  0
 11 12  1  0
 12 13  2  0
 12 14  1  0
 14 15  1  0
 15 16  2  0
 15 22  1  0
 16 17  1  0
 16 19  1  0
 17 18  1  0
 19 20  2  0
 20 21  1  0
 21 22  2  0
 23 24  1  0
 24 25  1  0
 25 26  1  0
 25 27  1  0
M  END
>  <DRUGBANK_ID>  (1) 
DB06525

>  <COMMON_NAME>  (1) 
Ganstigmine

>  <CAS_NUMBER>  (1) 
457075-21-7

>  <UNII>  (1) 
QRR9SV89XI

>  <SYNONYMS>  (1) 
Ganstigmine

$$$$
