14C
     RDKit          2D

 19 21  0  0  0  0  0  0  0  0999 V2000
    0.9711   -0.7669    0.0000 C   0  0  0  0  0  0  0  0  0  0  0  0
    0.9711   -1.5919    0.0000 C   0  0  0  0  0  0  0  0  0  0  0  0
   -3.4879    1.4870    0.0000 Cl  0  0  0  0  0  0  0  0  0  0  0  0
   -3.0754    0.7725    0.0000 C   0  0  0  0  0  0  0  0  0  0  0  0
   -2.2504    0.7725    0.0000 C   0  0  0  0  0  0  0  0  0  0  0  0
   -3.4879    0.0581    0.0000 N   0  0  0  0  0  0  0  0  0  0  0  0
   -3.0754   -0.6564    0.0000 C   0  0  0  0  0  0  0  0  0  0  0  0
   -2.2504   -0.6564    0.0000 C   0  0  0  0  0  0  0  0  0  0  0  0
   -1.8379    0.0581    0.0000 C   0  0  0  0  0  0  0  0  0  0  0  0
   -1.0129    0.0581    0.0000 N   0  0  0  0  0  0  0  0  0  0  0  0
   -0.5280    0.7255    0.0000 C   0  0  0  0  0  0  0  0  0  0  0  0
   -0.7829    1.5101    0.0000 O   0  0  0  0  0  0  0  0  0  0  0  0
    0.2567    0.4706    0.0000 C   0  0  0  0  0  0  0  0  0  0  0  0
    0.9711    0.8831    0.0000 C   0  0  0  0  0  0  0  0  0  0  0  0
    1.6856    0.4706    0.0000 C   0  0  0  0  0  0  0  0  0  0  0  0
   -0.5280   -0.6094    0.0000 C   0  0  0  0  0  0  0  0  0  0  0  0
   -0.7829   -1.3940    0.0000 O   0  0  0  0  0  0  0  0  0  0  0  0
    0.2567   -0.3544    0.0000 C   0  0  0  0  0  0  0  0  0  0  0  0
    1.6856   -0.3544    0.0000 C   0  0  0  0  0  0  0  0  0  0  0  0
  1  2  1  0
  1 18  2  0
  1 19  1  0
  3  4  1  0
  4  5  2  0
  4  6  1  0
  5  9  1  0
  6  7  2  0
  7  8  1  0
  8  9  2  0
  9 10  1  0
 10 11  1  0
 10 16  1  0
 11 12  2  0
 11 13  1  0
 13 14  2  0
 13 18  1  0
 14 15  1  0
 15 19  2  0
 16 17  2  0
 16 18  1  0
M  END
>  <DRUGBANK_ID>  (1) 
DB06860

>  <COMMON_NAME>  (1) 
2-(2-chloropyridin-4-yl)-4-methyl-1H-isoindole-1,3(2H)-dione

$$$$
