BB2
     RDKit          2D

 27 27  0  0  0  0  0  0  0  0999 V2000
    0.8750   -1.0076    0.0000 C   0  0  0  0  0  0  0  0  0  0  0  0
    1.5895   -1.4201    0.0000 C   0  0  0  0  0  0  0  0  0  0  0  0
    1.5895   -2.2451    0.0000 O   0  0  0  0  0  0  0  0  0  0  0  0
    2.3039   -1.0076    0.0000 N   0  0  0  0  0  0  0  0  0  0  0  0
    3.0184   -1.4201    0.0000 O   0  0  0  0  0  0  0  0  0  0  0  0
    0.8750   -0.1826    0.0000 C   0  0  0  0  0  0  0  0  0  0  0  0
    0.1605    0.2299    0.0000 C   0  0  0  0  0  0  0  0  0  0  0  0
    0.1605    1.0549    0.0000 O   0  0  0  0  0  0  0  0  0  0  0  0
    1.5895    0.2299    0.0000 C   0  0  0  0  0  0  0  0  0  0  0  0
    2.3039   -0.1826    0.0000 C   0  0  0  0  0  0  0  0  0  0  0  0
    3.0184    0.2299    0.0000 C   0  0  0  0  0  0  0  0  0  0  0  0
    3.7329   -0.1826    0.0000 C   0  0  0  0  0  0  0  0  0  0  0  0
    4.4473    0.2299    0.0000 C   0  0  0  0  0  0  0  0  0  0  0  0
   -0.5540   -0.1826    0.0000 N   0  0  0  0  0  0  0  0  0  0  0  0
   -1.2684    0.2299    0.0000 C   0  0  0  0  0  0  0  0  0  0  0  0
   -1.2684    1.0549    0.0000 C   0  0  0  0  0  0  0  0  0  0  0  0
   -1.9829    1.4674    0.0000 C   0  0  0  0  0  0  0  0  0  0  0  0
   -0.5540    1.4674    0.0000 C   0  0  0  0  0  0  0  0  0  0  0  0
   -1.9829   -0.1826    0.0000 C   0  0  0  0  0  0  0  0  0  0  0  0
   -1.9829   -1.0076    0.0000 O   0  0  0  0  0  0  0  0  0  0  0  0
   -2.6974    0.2299    0.0000 N   0  0  0  0  0  0  0  0  0  0  0  0
   -3.4510   -0.1057    0.0000 C   0  0  0  0  0  0  0  0  0  0  0  0
   -2.7836    1.0504    0.0000 C   0  0  0  0  0  0  0  0  0  0  0  0
   -3.5906    1.2219    0.0000 C   0  0  0  0  0  0  0  0  0  0  0  0
   -4.0031    0.5074    0.0000 C   0  0  0  0  0  0  0  0  0  0  0  0
   -3.6226   -0.9126    0.0000 C   0  0  0  0  0  0  0  0  0  0  0  0
   -3.0095   -1.4647    0.0000 O   0  0  0  0  0  0  0  0  0  0  0  0
  1  2  1  0
  6  1  1  6
  2  3  2  0
  2  4  1  0
  4  5  1  0
  6  7  1  0
  6  9  1  0
  7  8  2  0
  7 14  1  0
  9 10  1  0
 10 11  1  0
 11 12  1  0
 12 13  1  0
 15 14  1  6
 15 16  1  0
 15 19  1  0
 16 17  1  0
 16 18  1  0
 19 20  2  0
 19 21  1  0
 21 22  1  0
 21 23  1  0
 22 25  1  0
 22 26  1  6
 23 24  1  0
 24 25  1  0
 26 27  1  0
M  END
>  <DRUGBANK_ID>  (1) 
DB04310

>  <SECONDARY_ACCESSION_NUMBERS>  (1) 
EXPT00630

>  <COMMON_NAME>  (1) 
2-[(Formyl-Hydroxy-Amino)-Methyl]-Heptanoic Acid [1-(2-Hydroxymethyl-Pyrrolidine-1-Carbonyl)-2-Methyl-Propyl]-Amide

>  <CAS_NUMBER>  (1) 
13434-13-4

>  <UNII>  (1) 
P18SPA8N0K

$$$$
