
     RDKit          2D

 34 37  0  0  1  0  0  0  0  0999 V2000
    6.2342    2.0980    0.0000 C   0  0  0  0  0  0  0  0  0  0  0  0
    5.4458    2.3412    0.0000 C   0  0  0  0  0  0  0  0  0  0  0  0
    4.8410    1.7800    0.0000 C   0  0  0  0  0  0  0  0  0  0  0  0
    4.0527    2.0232    0.0000 C   0  0  0  0  0  0  0  0  0  0  0  0
    3.8691    2.8275    0.0000 C   0  0  0  0  0  0  0  0  0  0  0  0
    4.4739    3.3886    0.0000 C   0  0  0  0  0  0  0  0  0  0  0  0
    5.2622    3.1455    0.0000 C   0  0  0  0  0  0  0  0  0  0  0  0
    5.8670    3.7066    0.0000 C   0  0  0  0  0  0  0  0  0  0  0  0
    5.6834    4.5109    0.0000 N   0  0  0  0  0  0  0  0  0  0  0  0
    6.2882    5.0721    0.0000 C   0  0  0  0  0  0  0  0  0  0  0  0
    7.0765    4.8289    0.0000 O   0  0  0  0  0  0  0  0  0  0  0  0
    6.1046    5.8764    0.0000 N   0  0  0  0  0  0  0  0  0  0  0  0
    5.3460    6.2006    0.0000 C   0  0  0  0  0  0  0  0  0  0  0  0
    5.4199    7.0223    0.0000 C   0  0  0  0  0  0  0  0  0  0  0  0
    6.2243    7.2059    0.0000 C   0  0  0  0  0  0  0  0  0  0  0  0
    6.6474    6.4977    0.0000 C   0  0  0  0  0  0  0  0  0  0  0  0
    7.4691    6.4237    0.0000 C   0  0  0  0  0  0  0  0  0  0  0  0
    7.8159    5.6752    0.0000 O   0  0  0  0  0  0  0  0  0  0  0  0
    7.9440    7.0983    0.0000 N   0  0  0  0  0  0  0  0  0  0  0  0
    8.7656    7.0244    0.0000 C   0  0  0  0  0  0  0  0  0  0  0  0
    7.5972    7.8469    0.0000 C   0  0  0  0  0  0  0  0  0  0  0  0
    3.4479    1.4620    0.0000 C   0  0  0  0  0  0  0  0  0  0  0  0
    2.6596    1.7052    0.0000 O   0  0  0  0  0  0  0  0  0  0  0  0
    3.6315    0.6577    0.0000 N   0  0  0  0  0  0  0  0  0  0  0  0
    4.4358    0.4742    0.0000 C   0  0  0  0  0  0  0  0  0  0  0  0
    4.7938   -0.2691    0.0000 C   0  0  0  0  0  0  0  0  0  0  0  0
    4.4358   -1.0124    0.0000 C   0  0  0  0  0  0  0  0  0  0  0  0
    3.6315   -1.1960    0.0000 C   0  0  0  0  0  0  0  0  0  0  0  0
    2.9865   -0.6816    0.0000 C   0  0  0  0  0  0  0  0  0  0  0  0
    2.9865    0.1434    0.0000 C   0  0  0  0  0  0  0  0  0  0  0  0
    2.2720    0.5559    0.0000 C   0  0  0  0  0  0  0  0  0  0  0  0
    1.5575    0.1434    0.0000 C   0  0  0  0  0  0  0  0  0  0  0  0
    1.5575   -0.6816    0.0000 C   0  0  0  0  0  0  0  0  0  0  0  0
    2.2720   -1.0941    0.0000 C   0  0  0  0  0  0  0  0  0  0  0  0
  1  2  1  0
  2  3  2  0
  2  7  1  0
  3  4  1  0
  4  5  2  0
  4 22  1  0
  5  6  1  0
  6  7  2  0
  7  8  1  0
  8  9  1  0
  9 10  1  0
 10 11  2  0
 10 12  1  0
 12 13  1  0
 12 16  1  0
 13 14  1  0
 14 15  1  0
 15 16  1  0
 16 17  1  1
 17 18  2  0
 17 19  1  0
 19 20  1  0
 19 21  1  0
 22 23  2  0
 22 24  1  0
 24 25  1  0
 24 30  1  0
 25 26  1  0
 26 27  1  0
 27 28  1  0
 28 29  1  0
 29 30  2  0
 29 34  1  0
 30 31  1  0
 31 32  2  0
 32 33  1  0
 33 34  2  0
M  END
>  <DRUGBANK_ID>  (1) 
DB11734

>  <COMMON_NAME>  (1) 
Fedovapagon

>  <CAS_NUMBER>  (1) 
347887-36-9

>  <UNII>  (1) 
VX2GBO4I0V

>  <SYNONYMS>  (1) 
Fedovapagon

$$$$
