P4O
     RDKit          2D

 26 30  0  0  0  0  0  0  0  0999 V2000
   -3.1596    0.9434    0.0000 C   0  0  0  0  0  0  0  0  0  0  0  0
   -3.5721    1.6579    0.0000 C   0  0  0  0  0  0  0  0  0  0  0  0
   -4.3971    1.6579    0.0000 C   0  0  0  0  0  0  0  0  0  0  0  0
   -4.8096    2.3723    0.0000 C   0  0  0  0  0  0  0  0  0  0  0  0
   -4.3971    3.0868    0.0000 C   0  0  0  0  0  0  0  0  0  0  0  0
   -3.5721    3.0868    0.0000 C   0  0  0  0  0  0  0  0  0  0  0  0
   -3.1596    2.3723    0.0000 C   0  0  0  0  0  0  0  0  0  0  0  0
   -2.3346    2.3723    0.0000 N   0  0  0  0  0  0  0  0  0  0  0  0
   -1.9221    1.6579    0.0000 C   0  0  0  0  0  0  0  0  0  0  0  0
   -2.3346    0.9434    0.0000 C   0  0  0  0  0  0  0  0  0  0  0  0
   -1.9221    0.2289    0.0000 C   0  0  0  0  0  0  0  0  0  0  0  0
   -1.0971    0.2289    0.0000 C   0  0  0  0  0  0  0  0  0  0  0  0
   -2.3346   -0.4856    0.0000 N   0  0  0  0  0  0  0  0  0  0  0  0
   -1.9221   -1.2000    0.0000 C   0  0  0  0  0  0  0  0  0  0  0  0
   -1.0971   -1.2000    0.0000 C   0  0  0  0  0  0  0  0  0  0  0  0
   -0.6846   -0.4856    0.0000 C   0  0  0  0  0  0  0  0  0  0  0  0
    0.1404   -0.4856    0.0000 C   0  0  0  0  0  0  0  0  0  0  0  0
    0.6253    0.1819    0.0000 C   0  0  0  0  0  0  0  0  0  0  0  0
    1.4099   -0.0731    0.0000 C   0  0  0  0  0  0  0  0  0  0  0  0
    2.1244    0.3394    0.0000 C   0  0  0  0  0  0  0  0  0  0  0  0
    2.1244    1.1644    0.0000 O   0  0  0  0  0  0  0  0  0  0  0  0
    2.8389   -0.0731    0.0000 N   0  0  0  0  0  0  0  0  0  0  0  0
    2.8389   -0.8981    0.0000 C   0  0  0  0  0  0  0  0  0  0  0  0
    2.1244   -1.3106    0.0000 C   0  0  0  0  0  0  0  0  0  0  0  0
    1.4099   -0.8981    0.0000 C   0  0  0  0  0  0  0  0  0  0  0  0
    0.6253   -1.1530    0.0000 N   0  0  0  0  0  0  0  0  0  0  0  0
  1  2  2  0
  1 10  1  0
  2  3  1  0
  2  7  1  0
  3  4  2  0
  4  5  1  0
  5  6  2  0
  6  7  1  0
  7  8  2  0
  8  9  1  0
  9 10  2  0
 10 11  1  0
 11 12  2  0
 11 13  1  0
 12 16  1  0
 13 14  2  0
 14 15  1  0
 15 16  2  0
 16 17  1  0
 17 18  2  0
 17 26  1  0
 18 19  1  0
 19 20  1  0
 19 25  2  0
 20 21  2  0
 20 22  1  0
 22 23  1  0
 23 24  1  0
 24 25  1  0
 25 26  1  0
M  END
>  <DRUGBANK_ID>  (1) 
DB08358

>  <COMMON_NAME>  (1) 
2-(2-QUINOLIN-3-YLPYRIDIN-4-YL)-1,5,6,7-TETRAHYDRO-4H-PYRROLO[3,2-C]PYRIDIN-4-ONE

$$$$
