
     RDKit          2D

 34 36  0  0  0  0  0  0  0  0999 V2000
    1.7862    3.0938    0.0000 S   0  0  0  0  0  0  0  0  0  0  0  0
    0.3572   -1.0312    0.0000 O   0  0  0  0  0  0  0  0  0  0  0  0
   -0.3572    1.8562    0.0000 O   0  0  0  0  0  0  0  0  0  0  0  0
    2.1987    2.3793    0.0000 O   0  0  0  0  0  0  0  0  0  0  0  0
    1.3736    3.8082    0.0000 O   0  0  0  0  0  0  0  0  0  0  0  0
   -0.3572    0.2062    0.0000 N   0  0  0  0  0  0  0  0  0  0  0  0
    1.0717    2.6813    0.0000 N   0  0  0  0  0  0  0  0  0  0  0  0
    2.5006    4.3313    0.0000 N   0  0  0  0  0  0  0  0  0  0  0  0
   -1.0717   -1.0312    0.0000 C   0  0  0  0  0  0  0  0  0  0  0  0
   -1.7862   -0.6187    0.0000 C   0  0  0  0  0  0  0  0  0  0  0  0
   -2.5006   -1.0312    0.0000 C   0  0  0  0  0  0  0  0  0  0  0  0
   -1.0717   -1.8562    0.0000 C   0  0  0  0  0  0  0  0  0  0  0  0
   -0.3572   -0.6187    0.0000 C   0  0  0  0  0  0  0  0  0  0  0  0
   -3.2152   -0.6187    0.0000 C   0  0  0  0  0  0  0  0  0  0  0  0
   -2.5006   -1.8562    0.0000 C   0  0  0  0  0  0  0  0  0  0  0  0
    0.3572    0.6187    0.0000 C   0  0  0  0  0  0  0  0  0  0  0  0
   -1.7862   -2.2687    0.0000 C   0  0  0  0  0  0  0  0  0  0  0  0
    0.3572    1.4437    0.0000 C   0  0  0  0  0  0  0  0  0  0  0  0
   -0.3572   -2.2687    0.0000 C   0  0  0  0  0  0  0  0  0  0  0  0
   -1.7862   -3.0938    0.0000 C   0  0  0  0  0  0  0  0  0  0  0  0
    1.0717    1.8562    0.0000 C   0  0  0  0  0  0  0  0  0  0  0  0
   -0.3572   -3.0938    0.0000 C   0  0  0  0  0  0  0  0  0  0  0  0
   -1.0717   -3.5063    0.0000 C   0  0  0  0  0  0  0  0  0  0  0  0
   -2.5006   -3.5063    0.0000 C   0  0  0  0  0  0  0  0  0  0  0  0
   -2.5006   -4.3313    0.0000 C   0  0  0  0  0  0  0  0  0  0  0  0
   -3.2152   -3.0938    0.0000 C   0  0  0  0  0  0  0  0  0  0  0  0
    2.5006    3.5063    0.0000 C   0  0  0  0  0  0  0  0  0  0  0  0
   -3.2152   -4.7438    0.0000 C   0  0  0  0  0  0  0  0  0  0  0  0
   -3.9296   -3.5063    0.0000 C   0  0  0  0  0  0  0  0  0  0  0  0
   -3.9296   -4.3313    0.0000 C   0  0  0  0  0  0  0  0  0  0  0  0
    3.2152    3.0938    0.0000 C   0  0  0  0  0  0  0  0  0  0  0  0
    3.9296    3.5063    0.0000 C   0  0  0  0  0  0  0  0  0  0  0  0
    3.2152    4.7438    0.0000 C   0  0  0  0  0  0  0  0  0  0  0  0
    3.9296    4.3313    0.0000 C   0  0  0  0  0  0  0  0  0  0  0  0
  1  4  2  0
  1  5  2  0
  1  7  1  0
  1 27  1  0
  2 13  2  0
  6 13  1  0
  6 16  1  0
  7 21  1  0
  8 27  2  0
  8 33  1  0
  9 10  1  1
  9 12  1  0
  9 13  1  0
 10 11  1  0
 11 14  1  0
 11 15  1  0
 12 17  2  0
 12 19  1  0
 16 18  1  0
 17 20  1  0
 18  3  1  1
 18 21  1  0
 19 22  2  0
 20 23  2  0
 20 24  1  0
 22 23  1  0
 24 25  2  0
 24 26  1  0
 25 28  1  0
 26 29  2  0
 27 31  1  0
 28 30  2  0
 29 30  1  0
 31 32  2  0
 32 34  1  0
 33 34  2  0
M  END
>  <DRUGBANK_ID>  (1) 
DB04244

>  <SECONDARY_ACCESSION_NUMBERS>  (1) 
EXPT01807

>  <COMMON_NAME>  (1) 
(2R)-2-(3-Biphenylyl)-N-{(2R)-2-hydroxy-3-[(2-pyridinylsulfonyl)amino]propyl}-4-methylpentanamide

$$$$
