
     RDKit          2D

 34 38  0  0  1  0  0  0  0  0999 V2000
    1.1270    1.1270    0.0000 C   0  0  0  0  0  0  0  0  0  0  0  0
    1.9520    1.1270    0.0000 C   0  0  0  0  0  0  0  0  0  0  0  0
    2.3645    1.8414    0.0000 O   0  0  0  0  0  0  0  0  0  0  0  0
    3.1895    1.8414    0.0000 C   0  0  0  0  0  0  0  0  0  0  0  0
    2.3645    0.4125    0.0000 C   0  0  0  0  0  0  0  0  0  0  0  0
    1.9520   -0.3020    0.0000 C   0  0  0  0  0  0  0  0  0  0  0  0
    1.1270   -0.3020    0.0000 C   0  0  0  0  0  0  0  0  0  0  0  0
    0.7145    0.4125    0.0000 C   0  0  0  0  0  0  0  0  0  0  0  0
    0.0000    0.0000    0.0000 C   0  0  0  0  0  0  0  0  0  0  0  0
   -0.0000    0.8250    0.0000 O   0  0  0  0  0  0  0  0  0  0  0  0
    3.1895    0.4125    0.0000 O   0  0  0  0  0  0  0  0  0  0  0  0
    3.6020   -0.3020    0.0000 C   0  0  0  0  0  0  0  0  0  0  0  0
    3.1895   -1.0164    0.0000 O   0  0  0  0  0  0  0  0  0  0  0  0
    4.4270   -0.3020    0.0000 N   0  0  0  0  0  0  0  0  0  0  0  0
    5.0103    0.2814    0.0000 C   0  0  0  0  0  0  0  0  0  0  0  0
    5.5937   -0.3020    0.0000 C   0  0  0  0  0  0  0  0  0  0  0  0
    6.4187   -0.3020    0.0000 C   0  0  0  0  0  0  0  0  0  0  0  0
    6.8312   -1.0164    0.0000 C   0  0  0  0  0  0  0  0  0  0  0  0
    7.6562   -1.0164    0.0000 N   0  0  0  0  0  0  0  0  0  0  0  0
    8.0687   -0.3020    0.0000 C   0  0  0  0  0  0  0  0  0  0  0  0
    8.8937   -0.3020    0.0000 C   0  0  0  0  0  0  0  0  0  0  0  0
    9.3062   -1.0164    0.0000 O   0  0  0  0  0  0  0  0  0  0  0  0
    8.8937   -1.7309    0.0000 C   0  0  0  0  0  0  0  0  0  0  0  0
    8.0687   -1.7309    0.0000 C   0  0  0  0  0  0  0  0  0  0  0  0
    5.0103   -0.8853    0.0000 C   0  0  0  0  0  0  0  0  0  0  0  0
    0.7145    1.8414    0.0000 C   0  0  0  0  0  0  0  0  0  0  0  0
    1.3465    2.3717    0.0000 C   0  0  0  0  0  0  0  0  0  0  0  0
   -0.0608    1.5593    0.0000 O   0  0  0  0  0  0  0  0  0  0  0  0
    0.0825    2.3717    0.0000 C   0  0  0  0  0  0  0  0  0  0  0  0
   -0.1997    3.1470    0.0000 C   0  0  0  0  0  0  0  0  0  0  0  0
   -1.0121    3.2902    0.0000 C   0  0  0  0  0  0  0  0  0  0  0  0
   -1.2943    4.0655    0.0000 C   0  0  0  0  0  0  0  0  0  0  0  0
   -2.1068    4.2088    0.0000 C   0  0  0  0  0  0  0  0  0  0  0  0
   -0.7640    4.6975    0.0000 C   0  0  0  0  0  0  0  0  0  0  0  0
  1  2  1  0
  1  8  1  1
  1 26  1  0
  2  3  1  6
  2  5  1  0
  3  4  1  0
  5  6  1  0
  5 11  1  6
  6  7  1  0
  8  7  1  1
  8  9  1  0
  8 10  1  0
  9 10  1  0
 11 12  1  0
 12 13  2  0
 12 14  1  0
 14 15  1  0
 14 25  1  0
 15 16  1  0
 16 17  1  0
 16 25  1  0
 17 18  1  0
 18 19  1  0
 19 20  1  0
 19 24  1  0
 20 21  1  0
 21 22  1  0
 22 23  1  0
 23 24  1  0
 26 27  1  6
 26 28  1  0
 26 29  1  0
 29 28  1  0
 29 30  1  6
 30 31  1  0
 31 32  2  3
 32 33  1  0
 32 34  1  0
M  END
>  <DRUGBANK_ID>  (1) 
DB16079

>  <COMMON_NAME>  (1) 
Aclimostat

>  <CAS_NUMBER>  (1) 
2082752-83-6

>  <UNII>  (1) 
X150A3JK8R

>  <SYNONYMS>  (1) 
Aclimostat

$$$$
