
     RDKit          2D

 28 31  0  0  0  0  0  0  0  0999 V2000
    4.3330   -1.6277    0.0000 O   0  0  0  0  0  0  0  0  0  0  0  0
   -0.6724   -0.6197    0.0000 O   0  0  0  0  0  0  0  0  0  0  0  0
   -0.9748    0.7768    0.0000 O   0  0  0  0  0  0  0  0  0  0  0  0
    3.5488   -1.3714    0.0000 N   0  0  0  0  0  0  0  0  0  0  0  0
    2.6316   -0.1030    0.0000 N   0  0  0  0  0  0  0  0  0  0  0  0
   -2.0331   -0.1833    0.0000 N   0  0  0  0  0  0  0  0  0  0  0  0
    2.2191   -1.3726    0.0000 C   0  0  0  0  0  0  0  0  0  0  0  0
    2.8866   -0.8876    0.0000 C   0  0  0  0  0  0  0  0  0  0  0  0
    2.4746   -2.1519    0.0000 C   0  0  0  0  0  0  0  0  0  0  0  0
    3.2947   -2.1512    0.0000 C   0  0  0  0  0  0  0  0  0  0  0  0
    1.5516   -0.8876    0.0000 C   0  0  0  0  0  0  0  0  0  0  0  0
    1.8066   -0.1030    0.0000 C   0  0  0  0  0  0  0  0  0  0  0  0
    1.5516   -1.8575    0.0000 C   0  0  0  0  0  0  0  0  0  0  0  0
    4.0349   -0.7048    0.0000 C   0  0  0  0  0  0  0  0  0  0  0  0
    3.1165    0.5644    0.0000 C   0  0  0  0  0  0  0  0  0  0  0  0
    0.7139   -1.0792    0.0000 C   0  0  0  0  0  0  0  0  0  0  0  0
    1.2415    0.5443    0.0000 C   0  0  0  0  0  0  0  0  0  0  0  0
    0.1339   -0.4450    0.0000 C   0  0  0  0  0  0  0  0  0  0  0  0
    0.3995    0.3722    0.0000 C   0  0  0  0  0  0  0  0  0  0  0  0
   -1.2267   -0.0087    0.0000 C   0  0  0  0  0  0  0  0  0  0  0  0
   -2.5875    0.4275    0.0000 C   0  0  0  0  0  0  0  0  0  0  0  0
   -2.3355    1.2132    0.0000 C   0  0  0  0  0  0  0  0  0  0  0  0
   -3.3938    0.2529    0.0000 C   0  0  0  0  0  0  0  0  0  0  0  0
   -1.5292    1.3878    0.0000 C   0  0  0  0  0  0  0  0  0  0  0  0
   -2.8900    1.8241    0.0000 C   0  0  0  0  0  0  0  0  0  0  0  0
   -3.9482    0.8639    0.0000 C   0  0  0  0  0  0  0  0  0  0  0  0
   -3.6963    1.6495    0.0000 C   0  0  0  0  0  0  0  0  0  0  0  0
   -1.2773    2.1735    0.0000 C   0  0  0  0  0  0  0  0  0  0  0  0
  1  4  1  0
  2 18  1  0
  2 20  1  0
  3 20  2  0
  4  8  1  0
  4 10  1  0
  4 14  1  0
  5  8  1  0
  5 12  1  0
  5 15  1  0
  6 20  1  0
  6 21  1  0
  7  8  1  0
  7  9  1  0
  7 11  1  0
  7 13  1  0
  9 10  1  0
 11 12  2  0
 11 16  1  0
 12 17  1  0
 16 18  2  0
 17 19  2  0
 18 19  1  0
 21 22  2  0
 21 23  1  0
 22 24  1  0
 22 25  1  0
 23 26  2  0
 24 28  1  0
 25 27  2  0
 26 27  1  0
M  CHG  2   1  -1   4   1
M  END
>  <DRUGBANK_ID>  (1) 
DB07846

>  <COMMON_NAME>  (1) 
(3,4,8b-Trimethyl-3-oxido-2,3a-dihydro-1H-pyrrolo[2,3-b]indol-3-ium-7-yl) N-(2-ethylphenyl)carbamate

$$$$
