
     RDKit          2D

 10  9  0  0  0  0  0  0  0  0999 V2000
    0.3546    0.2066    0.0000 C   0  0  0  0  0  0  0  0  0  0  0  0
   -0.3545   -0.2065    0.0000 C   0  0  0  0  0  0  0  0  0  0  0  0
    1.0708   -0.2030    0.0000 C   0  0  0  0  0  0  0  0  0  0  0  0
    0.3546    1.0329    0.0000 S   0  0  0  0  0  0  0  0  0  0  0  0
   -1.0707    0.2031    0.0000 C   0  0  0  0  0  0  0  0  0  0  0  0
   -0.3545   -1.0329    0.0000 S   0  0  0  0  0  0  0  0  0  0  0  0
    1.7870    0.2100    0.0000 O   0  0  0  0  0  0  0  0  0  0  0  0
    1.0743   -1.0294    0.0000 O   0  0  0  0  0  0  0  0  0  0  0  0
   -1.7870   -0.2100    0.0000 O   0  0  0  0  0  0  0  0  0  0  0  0
   -1.0742    1.0294    0.0000 O   0  0  0  0  0  0  0  0  0  0  0  0
  1  2  1  0
  1  3  1  0
  1  4  1  1
  2  5  1  0
  2  6  1  6
  3  7  1  0
  3  8  2  0
  5  9  1  0
  5 10  2  0
M  END
>  <DRUGBANK_ID>  (1) 
DB00566

>  <SECONDARY_ACCESSION_NUMBERS>  (1) 
APRD01236

>  <COMMON_NAME>  (1) 
Succimer

>  <CAS_NUMBER>  (1) 
304-55-2

>  <UNII>  (1) 
DX1U2629QE

>  <SYNONYMS>  (1) 
DIM-SA; DMS; DMS-A; DMSA; meso-2,3-Dimercaptobernsteins√§ure; meso-2,3-dimercaptosuccinic acid; meso-dimercaptosuccinic acid; Succimer; succimero

$$$$
