
     RDKit          2D

 35 36  0  0  1  0  0  0  0  0999 V2000
    1.8640   -2.2370    0.0000 C   0  0  0  0  0  0  0  0  0  0  0  0
    2.5785   -2.6495    0.0000 C   0  0  0  0  0  0  0  0  0  0  0  0
    2.5785   -3.4745    0.0000 C   0  0  0  0  0  0  0  0  0  0  0  0
    3.2929   -2.2370    0.0000 C   0  0  0  0  0  0  0  0  0  0  0  0
    3.2929   -1.4120    0.0000 O   0  0  0  0  0  0  0  0  0  0  0  0
    4.0074   -2.6495    0.0000 O   0  0  0  0  0  0  0  0  0  0  0  0
    4.7219   -2.2370    0.0000 C   0  0  0  0  0  0  0  0  0  0  0  0
    5.4364   -2.6495    0.0000 C   0  0  0  0  0  0  0  0  0  0  0  0
    6.2210   -2.9044    0.0000 C   0  0  0  0  0  0  0  0  0  0  0  0
    6.2210   -3.7294    0.0000 C   0  0  0  0  0  0  0  0  0  0  0  0
    5.4364   -3.9844    0.0000 C   0  0  0  0  0  0  0  0  0  0  0  0
    4.9514   -3.3169    0.0000 O   0  0  0  0  0  0  0  0  0  0  0  0
    5.1814   -4.7690    0.0000 N   0  0  0  0  0  0  0  0  0  0  0  0
    5.7335   -5.3821    0.0000 C   0  0  0  0  0  0  0  0  0  0  0  0
    5.4785   -6.1667    0.0000 C   0  0  0  0  0  0  0  0  0  0  0  0
    4.6715   -6.3382    0.0000 C   0  0  0  0  0  0  0  0  0  0  0  0
    4.1195   -5.7252    0.0000 N   0  0  0  0  0  0  0  0  0  0  0  0
    4.3744   -4.9405    0.0000 C   0  0  0  0  0  0  0  0  0  0  0  0
    3.8224   -4.3274    0.0000 O   0  0  0  0  0  0  0  0  0  0  0  0
    4.4166   -7.1229    0.0000 N   0  0  0  0  0  0  0  0  0  0  0  0
    6.8884   -4.2144    0.0000 O   0  0  0  0  0  0  0  0  0  0  0  0
    7.6421   -3.8788    0.0000 C   0  0  0  0  0  0  0  0  0  0  0  0
    7.7283   -3.0583    0.0000 O   0  0  0  0  0  0  0  0  0  0  0  0
    8.3095   -4.3637    0.0000 C   0  0  0  0  0  0  0  0  0  0  0  0
    9.0632   -4.0282    0.0000 C   0  0  0  0  0  0  0  0  0  0  0  0
    8.2233   -5.1842    0.0000 C   0  0  0  0  0  0  0  0  0  0  0  0
    6.8884   -2.4195    0.0000 O   0  0  0  0  0  0  0  0  0  0  0  0
    6.8022   -1.5990    0.0000 C   0  0  0  0  0  0  0  0  0  0  0  0
    6.0485   -1.2635    0.0000 O   0  0  0  0  0  0  0  0  0  0  0  0
    7.4696   -1.1141    0.0000 C   0  0  0  0  0  0  0  0  0  0  0  0
    7.3834   -0.2936    0.0000 C   0  0  0  0  0  0  0  0  0  0  0  0
    8.2233   -1.4497    0.0000 C   0  0  0  0  0  0  0  0  0  0  0  0
    5.7719   -1.8958    0.0000 N   0  0  0  0  0  0  0  0  0  0  0  0
    5.2870   -1.2284    0.0000 N   0  0  0  0  0  0  0  0  0  0  0  0
    4.8021   -0.5610    0.0000 N   0  0  0  0  0  0  0  0  0  0  0  0
  1  2  1  0
  2  3  1  0
  2  4  1  0
  4  5  2  0
  4  6  1  0
  6  7  1  0
  8  7  1  6
  8  9  1  0
  8 12  1  0
  8 33  1  0
  9 10  1  0
  9 27  1  1
 10 11  1  0
 10 21  1  1
 11 12  1  0
 11 13  1  6
 13 14  1  0
 13 18  1  0
 14 15  2  0
 15 16  1  0
 16 17  2  0
 16 20  1  0
 17 18  1  0
 18 19  2  0
 21 22  1  0
 22 23  2  0
 22 24  1  0
 24 25  1  0
 24 26  1  0
 27 28  1  0
 28 29  2  0
 28 30  1  0
 30 31  1  0
 30 32  1  0
 33 34  2  0
 34 35  2  0
M  CHG  2  34   1  35  -1
M  END
>  <DRUGBANK_ID>  (1) 
DB12283

>  <COMMON_NAME>  (1) 
Balapiravir

>  <CAS_NUMBER>  (1) 
690270-29-2

>  <UNII>  (1) 
VOT0LP7I9K

>  <SYNONYMS>  (1) 
Balapiravir

$$$$
