
     RDKit          2D

 27 30  0  0  0  0  0  0  0  0999 V2000
    2.5648   -1.6373    0.0000 O   0  0  0  0  0  0  0  0  0  0  0  0
    1.9051   -1.6421    0.0000 C   0  0  0  0  0  0  0  0  0  0  0  0
    1.4240   -0.9906    0.0000 C   0  0  0  0  0  0  0  0  0  0  0  0
    0.6423   -1.2412    0.0000 C   0  0  0  0  0  0  0  0  0  0  0  0
   -0.0692   -0.8203    0.0000 C   0  0  0  0  0  0  0  0  0  0  0  0
   -0.7908   -1.2412    0.0000 C   0  0  0  0  0  0  0  0  0  0  0  0
   -0.7908   -2.0631    0.0000 C   0  0  0  0  0  0  0  0  0  0  0  0
   -0.0692   -2.4840    0.0000 C   0  0  0  0  0  0  0  0  0  0  0  0
    0.6423   -2.0631    0.0000 C   0  0  0  0  0  0  0  0  0  0  0  0
    1.4240   -2.3136    0.0000 N   0  0  0  0  0  0  0  0  0  0  0  0
    1.6775   -0.2055    0.0000 C   0  0  0  0  0  0  0  0  0  0  0  0
    1.2438    0.4683    0.0000 C   0  0  0  0  0  0  0  0  0  0  0  0
    1.7637    1.1036    0.0000 C   0  0  0  0  0  0  0  0  0  0  0  0
    1.6331    1.9200    0.0000 C   0  0  0  0  0  0  0  0  0  0  0  0
    2.2894    2.4369    0.0000 C   0  0  0  0  0  0  0  0  0  0  0  0
    3.0540    2.1355    0.0000 C   0  0  0  0  0  0  0  0  0  0  0  0
    3.1808    1.3098    0.0000 C   0  0  0  0  0  0  0  0  0  0  0  0
    2.5282    0.8022    0.0000 C   0  0  0  0  0  0  0  0  0  0  0  0
    2.4745   -0.0169    0.0000 N   0  0  0  0  0  0  0  0  0  0  0  0
    0.4211    0.5095    0.0000 N   0  0  0  0  0  0  0  0  0  0  0  0
    0.0445    1.2435    0.0000 O   0  0  0  0  0  0  0  0  0  0  0  0
   -0.7795    1.2848    0.0000 C   0  0  0  0  0  0  0  0  0  0  0  0
   -1.1561    2.0189    0.0000 C   0  0  0  0  0  0  0  0  0  0  0  0
   -1.9801    2.0602    0.0000 C   0  0  0  0  0  0  0  0  0  0  0  0
   -2.4277    1.3672    0.0000 O   0  0  0  0  0  0  0  0  0  0  0  0
   -2.3568    2.7943    0.0000 C   0  0  0  0  0  0  0  0  0  0  0  0
   -3.1808    2.8355    0.0000 O   0  0  0  0  0  0  0  0  0  0  0  0
  2  1  2  0
  2 10  1  0
  3  2  1  0
  3  4  1  0
  4  5  1  0
  4  9  2  0
  5  6  2  0
  6  7  1  0
  7  8  2  0
  9  8  1  0
  9 10  1  0
 11  3  2  0
 11 19  1  0
 12 11  1  0
 12 20  2  0
 13 12  1  0
 13 18  2  0
 14 13  1  0
 15 14  2  0
 15 16  1  0
 16 17  2  0
 18 17  1  0
 18 19  1  0
 20 21  1  0
 22 21  1  0
 22 23  1  0
 23 24  1  0
 24 25  1  1
 24 26  1  0
 26 27  1  0
M  END
>  <DRUGBANK_ID>  (1) 
DB07766

>  <COMMON_NAME>  (1) 
(2Z,3E)-2,3'-biindole-2',3(1H,1'H)-dione 3-{O-[(3R)-3,4-dihydroxybutyl]oxime}

$$$$
