
     RDKit          2D

  5  3  0  0  0  0  0  0  0  0999 V2000
    0.0000    0.0000    0.0000 K   0  0  0  0  0 15  0  0  0  0  0  0
    3.2411    0.7145    0.0000 O   0  0  0  0  0  0  0  0  0  0  0  0
    2.8286    0.0000    0.0000 N   0  0  0  0  0  0  0  0  0  0  0  0
    3.2411   -0.7145    0.0000 O   0  0  0  0  0  0  0  0  0  0  0  0
    2.0036    0.0000    0.0000 O   0  0  0  0  0  0  0  0  0  0  0  0
  2  3  1  0
  3  4  1  0
  3  5  2  0
M  CHG  4   1   1   2  -1   3   1   4  -1
M  END
>  <DRUGBANK_ID>  (1) 
DB11090

>  <COMMON_NAME>  (1) 
Potassium nitrate

>  <CAS_NUMBER>  (1) 
7757-79-1

>  <UNII>  (1) 
RU45X2JN0Z

>  <SYNONYMS>  (1) 
Potassium nitrate

$$$$
