DFM
     RDKit          2D

 33 34  0  0  0  0  0  0  0  0999 V2000
   -4.1895    1.4081    0.0000 C   0  0  0  0  0  0  0  0  0  0  0  0
   -5.6184    2.2331    0.0000 O   0  0  0  0  0  0  0  0  0  0  0  0
   -5.3165    1.1061    0.0000 O   0  0  0  0  0  0  0  0  0  0  0  0
   -4.4915    2.5351    0.0000 O   0  0  0  0  0  0  0  0  0  0  0  0
   -3.4750    0.9956    0.0000 C   0  0  0  0  0  0  0  0  0  0  0  0
   -2.7606    1.4081    0.0000 C   0  0  0  0  0  0  0  0  0  0  0  0
   -2.0461    0.9956    0.0000 C   0  0  0  0  0  0  0  0  0  0  0  0
   -2.0461    0.1706    0.0000 C   0  0  0  0  0  0  0  0  0  0  0  0
   -2.7606   -0.2419    0.0000 C   0  0  0  0  0  0  0  0  0  0  0  0
   -3.4750    0.1706    0.0000 C   0  0  0  0  0  0  0  0  0  0  0  0
   -1.3316   -0.2419    0.0000 C   0  0  0  0  0  0  0  0  0  0  0  0
   -0.6172    0.1706    0.0000 C   0  0  0  0  0  0  0  0  0  0  0  0
   -0.6172    0.9956    0.0000 C   0  0  0  0  0  0  0  0  0  0  0  0
   -1.3316    1.4081    0.0000 O   0  0  0  0  0  0  0  0  0  0  0  0
    0.0973    1.4081    0.0000 N   0  0  0  0  0  0  0  0  0  0  0  0
    0.0973   -0.2419    0.0000 N   0  0  0  0  0  0  0  0  0  0  0  0
    0.8118    0.1706    0.0000 C   0  0  0  0  0  0  0  0  0  0  0  0
    1.5263   -0.2419    0.0000 C   0  0  0  0  0  0  0  0  0  0  0  0
    0.8118    0.9956    0.0000 O   0  0  0  0  0  0  0  0  0  0  0  0
    2.2407    0.1706    0.0000 N   0  0  0  0  0  0  0  0  0  0  0  0
    1.5263   -1.0669    0.0000 C   0  0  0  0  0  0  0  0  0  0  0  0
    0.8118   -1.4794    0.0000 C   0  0  0  0  0  0  0  0  0  0  0  0
    0.8118   -2.3044    0.0000 C   0  0  0  0  0  0  0  0  0  0  0  0
    0.0973   -2.7169    0.0000 C   0  0  0  0  0  0  0  0  0  0  0  0
   -0.6172   -2.3044    0.0000 C   0  0  0  0  0  0  0  0  0  0  0  0
   -0.6172   -1.4794    0.0000 C   0  0  0  0  0  0  0  0  0  0  0  0
    0.0973   -1.0669    0.0000 C   0  0  0  0  0  0  0  0  0  0  0  0
    2.2407    0.9956    0.0000 C   0  0  0  0  0  0  0  0  0  0  0  0
    2.9552    1.4081    0.0000 O   0  0  0  0  0  0  0  0  0  0  0  0
    1.5263    1.4081    0.0000 C   0  0  0  0  0  0  0  0  0  0  0  0
   -4.6020    0.6936    0.0000 F   0  0  0  0  0  0  0  0  0  0  0  0
   -3.7770    2.1226    0.0000 F   0  0  0  0  0  0  0  0  0  0  0  0
   -4.9040    1.8206    0.0000 P   0  0  0  0  0  0  0  0  0  0  0  0
  1  5  1  0
  1 31  1  0
  1 32  1  0
  1 33  1  0
  2 33  1  0
  3 33  1  0
  4 33  2  0
  5  6  2  0
  5 10  1  0
  6  7  1  0
  7  8  2  0
  8  9  1  0
  8 11  1  0
  9 10  2  0
 12 11  1  1
 12 13  1  0
 12 16  1  0
 13 14  2  0
 13 15  1  0
 16 17  1  0
 17 18  1  0
 17 19  2  0
 18 20  1  0
 18 21  1  1
 20 28  1  0
 21 22  1  0
 22 23  2  0
 22 27  1  0
 23 24  1  0
 24 25  2  0
 25 26  1  0
 26 27  2  0
 28 29  2  0
 28 30  1  0
M  END
>  <DRUGBANK_ID>  (1) 
DB07651

>  <COMMON_NAME>  (1) 
N-ACETYL-L-PHENYLALANYL-4-[DIFLUORO(PHOSPHONO)METHYL]-L-PHENYLALANINAMIDE

$$$$
