
     RDKit          2D

 13 12  0  0  1  0  0  0  0  0999 V2000
    1.0461   -1.4289    0.0000 C   0  0  0  0  0  0  0  0  0  0  0  0
    1.7605   -1.8414    0.0000 C   0  0  0  0  0  0  0  0  0  0  0  0
    1.7605   -2.6664    0.0000 O   0  0  0  0  0  0  0  0  0  0  0  0
    2.4750   -1.4289    0.0000 C   0  0  0  0  0  0  0  0  0  0  0  0
    2.4750   -0.6039    0.0000 O   0  0  0  0  0  0  0  0  0  0  0  0
    3.1895   -1.8414    0.0000 C   0  0  0  0  0  0  0  0  0  0  0  0
    3.1895   -2.6664    0.0000 O   0  0  0  0  0  0  0  0  0  0  0  0
    3.9039   -1.4289    0.0000 C   0  0  0  0  0  0  0  0  0  0  0  0
    4.6184   -1.8414    0.0000 O   0  0  0  0  0  0  0  0  0  0  0  0
    5.3329   -1.4289    0.0000 P   0  0  0  0  0  0  0  0  0  0  0  0
    6.0474   -1.0164    0.0000 O   0  0  0  0  0  0  0  0  0  0  0  0
    5.7454   -2.1434    0.0000 O   0  0  0  0  0  0  0  0  0  0  0  0
    4.9204   -0.7145    0.0000 O   0  0  0  0  0  0  0  0  0  0  0  0
  1  2  1  0
  2  3  2  0
  2  4  1  0
  4  5  1  1
  4  6  1  0
  6  7  1  1
  6  8  1  0
  8  9  1  0
  9 10  1  0
 10 11  1  0
 10 12  1  0
 10 13  2  0
M  END
>  <DRUGBANK_ID>  (1) 
DB02496

>  <SECONDARY_ACCESSION_NUMBERS>  (1) 
EXPT01308

>  <COMMON_NAME>  (1) 
1-Deoxy-D-xylulose 5-phosphate

>  <CAS_NUMBER>  (1) 
190079-18-6

>  <UNII>  (1) 
I4C288B3TN

$$$$
