
     RDKit          2D

 17 12  0  0  0  0  0  0  0  0999 V2000
   -1.8266   -2.6219    0.0000 Al  0  0  0  0  0 15  0  0  0  0  0  0
   -1.8266   -0.4415    0.0000 O   0  0  0  0  0  0  0  0  0  0  0  0
   -1.0013   -0.4415    0.0000 S   0  0  0  0  0  0  0  0  0  0  0  0
   -0.1772   -0.4415    0.0000 O   0  0  0  0  0  0  0  0  0  0  0  0
   -1.0013   -1.2668    0.0000 O   0  0  0  0  0  0  0  0  0  0  0  0
   -1.0013    0.4415    0.0000 O   0  0  0  0  0  0  0  0  0  0  0  0
    1.2374   -0.5598    0.0000 O   0  0  0  0  0  0  0  0  0  0  0  0
    2.0626   -0.5598    0.0000 S   0  0  0  0  0  0  0  0  0  0  0  0
    2.8874   -0.5598    0.0000 O   0  0  0  0  0  0  0  0  0  0  0  0
    2.0626   -1.3845    0.0000 O   0  0  0  0  0  0  0  0  0  0  0  0
    2.0626    0.2649    0.0000 O   0  0  0  0  0  0  0  0  0  0  0  0
   -2.8874   -2.5630    0.0000 Al  0  0  0  0  0 15  0  0  0  0  0  0
   -1.8266    1.7972    0.0000 O   0  0  0  0  0  0  0  0  0  0  0  0
   -1.0013    1.7972    0.0000 S   0  0  0  0  0  0  0  0  0  0  0  0
   -0.1772    1.7972    0.0000 O   0  0  0  0  0  0  0  0  0  0  0  0
   -1.0013    0.9719    0.0000 O   0  0  0  0  0  0  0  0  0  0  0  0
   -1.0013    2.6219    0.0000 O   0  0  0  0  0  0  0  0  0  0  0  0
  2  3  1  0
  3  4  1  0
  3  5  2  0
  3  6  2  0
  7  8  1  0
  8  9  1  0
  8 10  2  0
  8 11  2  0
 13 14  1  0
 14 15  1  0
 14 16  2  0
 14 17  2  0
M  CHG  8   1   3   2  -1   4  -1   7  -1   9  -1  12   3  13  -1  15  -1
M  END
>  <DRUGBANK_ID>  (1) 
DB11239

>  <COMMON_NAME>  (1) 
Aluminum sulfate

>  <CAS_NUMBER>  (1) 
10043-01-3

>  <UNII>  (1) 
I7T908772F

>  <SYNONYMS>  (1) 
Aluminium sulfate; Aluminium sulfate anhydrous; Aluminum sulfate anhydrous; Aluminum sulphate anhydrous; Dialuminum sulfate; Dialuminum trisulfate

$$$$
