
     RDKit          2D

 36 37  0  0  0  0  0  0  0  0999 V2000
    2.5974    1.2897    0.0000 O   0  0  0  0  0  0  0  0  0  0  0  0
   -0.9920    2.2985    0.0000 C   0  0  0  0  0  0  0  0  0  0  0  0
   -0.9920    1.4736    0.0000 N   0  0  0  0  0  0  0  0  0  0  0  0
   -1.7066    2.7111    0.0000 C   0  0  0  0  0  0  0  0  0  0  0  0
   -1.7066    1.0611    0.0000 C   0  0  0  0  0  0  0  0  0  0  0  0
   -2.4210    2.2985    0.0000 C   0  0  0  0  0  0  0  0  0  0  0  0
   -2.4210    1.4736    0.0000 O   0  0  0  0  0  0  0  0  0  0  0  0
   -0.2776    2.7111    0.0000 C   0  0  0  0  0  0  0  0  0  0  0  0
    0.4368    2.2985    0.0000 N   0  0  0  0  0  0  0  0  0  0  0  0
   -0.2776    3.5361    0.0000 O   0  0  0  0  0  0  0  0  0  0  0  0
    1.1512    2.7111    0.0000 C   0  0  0  0  0  0  0  0  0  0  0  0
    2.1739    2.3583    0.0000 C   0  0  0  0  0  0  0  0  0  0  0  0
    1.1512    3.5361    0.0000 C   0  0  0  0  0  0  0  0  0  0  0  0
    1.8657    3.9485    0.0000 C   0  0  0  0  0  0  0  0  0  0  0  0
    0.4368    3.9485    0.0000 C   0  0  0  0  0  0  0  0  0  0  0  0
   -1.7066    0.2360    0.0000 C   0  0  0  0  0  0  0  0  0  0  0  0
   -0.9922   -0.1764    0.0000 N   0  0  0  0  0  0  0  0  0  0  0  0
   -0.9922   -1.0014    0.0000 C   0  0  0  0  0  0  0  0  0  0  0  0
   -0.2777   -1.4139    0.0000 C   0  0  0  0  0  0  0  0  0  0  0  0
   -0.2778   -2.2389    0.0000 C   0  0  0  0  0  0  0  0  0  0  0  0
    0.4367   -1.0015    0.0000 N   0  0  0  0  0  0  0  0  0  0  0  0
    0.4367   -0.1765    0.0000 C   0  0  0  0  0  0  0  0  0  0  0  0
    1.1512    0.2359    0.0000 C   0  0  0  0  0  0  0  0  0  0  0  0
   -0.2776    0.2360    0.0000 O   0  0  0  0  0  0  0  0  0  0  0  0
   -0.9922   -2.6514    0.0000 C   0  0  0  0  0  0  0  0  0  0  0  0
    0.4366   -2.6515    0.0000 C   0  0  0  0  0  0  0  0  0  0  0  0
   -1.7066   -1.4139    0.0000 O   0  0  0  0  0  0  0  0  0  0  0  0
    2.0843    0.1116    0.0000 C   0  0  0  0  0  0  0  0  0  0  0  0
    2.7600    2.9710    0.0000 O   0  0  0  0  0  0  0  0  0  0  0  0
   -2.4807   -0.4249    0.0000 C   0  0  0  0  0  0  0  0  0  0  0  0
   -2.7601   -1.7717    0.0000 S   0  0  0  0  0  0  0  0  0  0  0  0
   -2.3228   -3.1633    0.0000 S   0  0  0  0  0  0  0  0  0  0  0  0
   -0.2752   -3.9486    0.0000 C   0  0  0  0  0  0  0  0  0  0  0  0
    1.9313   -2.9844    0.0000 C   0  0  0  0  0  0  0  0  0  0  0  0
    1.8418   -1.7419    0.0000 C   0  0  0  0  0  0  0  0  0  0  0  0
    2.5875   -0.7380    0.0000 C   0  0  0  0  0  0  0  0  0  0  0  0
  1 12  1  0
  1 28  1  0
  2  8  1  0
  3  2  1  0
  4  2  2  0
  5  3  1  0
  5 16  1  0
  6  4  1  0
  7  5  2  0
  8  9  1  0
  8 10  2  0
  9 11  1  0
 11 12  1  0
 11 13  1  1
 12 29  2  0
 13 14  1  0
 13 15  1  0
 16 17  1  0
 16 30  1  6
 17 18  1  0
 18 19  1  0
 18 27  2  0
 19 20  1  6
 19 21  1  0
 20 25  1  0
 20 26  1  0
 21 22  1  0
 22 23  1  0
 22 24  2  0
 23 28  1  0
 28 36  1  6
 30 31  1  0
 31 32  1  0
 32 33  1  0
 33 34  1  0
 34 35  1  0
 35 36  2  0
M  END
>  <DRUGBANK_ID>  (1) 
DB06176

>  <COMMON_NAME>  (1) 
Romidepsin

>  <CAS_NUMBER>  (1) 
128517-07-7

>  <UNII>  (1) 
CX3T89XQBK

>  <SYNONYMS>  (1) 
Romidepsin; Romidepsina; Romidepsine; Romidepsinum

$$$$
