
     RDKit          2D

 24 27  0  0  1  0  0  0  0  0999 V2000
    0.5242    0.0972    0.0000 C   0  0  0  0  0  0  0  0  0  0  0  0
    1.2724   -0.2502    0.0000 C   0  0  0  0  0  0  0  0  0  0  0  0
    2.0943   -0.3209    0.0000 N   0  0  0  0  0  0  0  0  0  0  0  0
    2.0290   -1.0802    0.0000 C   0  0  0  0  0  0  0  0  0  0  0  0
    1.2153   -0.9146    0.0000 C   0  0  0  0  0  0  0  0  0  0  0  0
    1.1499   -1.6739    0.0000 C   0  0  0  0  0  0  0  0  0  0  0  0
    1.9719   -1.7446    0.0000 C   0  0  0  0  0  0  0  0  0  0  0  0
    2.4441   -1.0682    0.0000 C   0  0  0  0  0  0  0  0  0  0  0  0
    2.3216   -2.4918    0.0000 C   0  0  0  0  0  0  0  0  0  0  0  0
    3.1436   -2.5625    0.0000 C   0  0  0  0  0  0  0  0  0  0  0  0
    0.8002   -0.9267    0.0000 C   0  0  0  0  0  0  0  0  0  0  0  0
    0.4511    0.9190    0.0000 C   0  0  0  0  0  0  0  0  0  0  0  0
    1.1262    1.3931    0.0000 C   0  0  0  0  0  0  0  0  0  0  0  0
    1.0531    2.2149    0.0000 C   0  0  0  0  0  0  0  0  0  0  0  0
    0.3049    2.5625    0.0000 N   0  0  0  0  0  0  0  0  0  0  0  0
   -0.3701    2.0883    0.0000 C   0  0  0  0  0  0  0  0  0  0  0  0
   -1.1183    2.4358    0.0000 C   0  0  0  0  0  0  0  0  0  0  0  0
   -1.7934    1.9617    0.0000 C   0  0  0  0  0  0  0  0  0  0  0  0
   -1.7203    1.1399    0.0000 C   0  0  0  0  0  0  0  0  0  0  0  0
   -2.3954    0.6658    0.0000 O   0  0  0  0  0  0  0  0  0  0  0  0
   -3.1436    1.0134    0.0000 C   0  0  0  0  0  0  0  0  0  0  0  0
   -0.9721    0.7924    0.0000 C   0  0  0  0  0  0  0  0  0  0  0  0
   -0.2970    1.2666    0.0000 C   0  0  0  0  0  0  0  0  0  0  0  0
   -0.1508   -0.3769    0.0000 O   0  0  0  0  0  0  0  0  0  0  0  0
  1  2  1  0
  1 12  1  0
  1 24  1  1
  2  3  1  0
  2 11  1  6
  3  4  1  0
  3  8  1  0
  4  5  1  0
  6  5  1  1
  6  7  1  0
  7  9  1  6
  8  7  1  0
  9 10  1  0
 11  6  1  0
 12 13  2  0
 12 23  1  0
 13 14  1  0
 14 15  2  0
 16 15  1  0
 16 17  2  0
 17 18  1  0
 19 18  2  0
 19 20  1  0
 20 21  1  0
 22 19  1  0
 23 22  2  0
 23 16  1  0
M  END
>  <DRUGBANK_ID>  (1) 
DB15300

>  <COMMON_NAME>  (1) 
Hydroquinidine

>  <CAS_NUMBER>  (1) 
1435-55-8

>  <UNII>  (1) 
8P68XPY4HG

$$$$
