
     RDKit          2D

 24 25  0  0  0  0  0  0  0  0999 V2000
   -1.0716   -0.5403    0.0000 O   0  0  0  0  0  0  0  0  0  0  0  0
    0.3572   -0.5403    0.0000 O   0  0  0  0  0  0  0  0  0  0  0  0
   -1.0716   -3.0154    0.0000 O   0  0  0  0  0  0  0  0  0  0  0  0
   -2.5007   -2.1904    0.0000 O   0  0  0  0  0  0  0  0  0  0  0  0
    0.3572   -2.1904    0.0000 O   0  0  0  0  0  0  0  0  0  0  0  0
   -2.5007    0.2846    0.0000 O   0  0  0  0  0  0  0  0  0  0  0  0
   -1.7861    1.5221    0.0000 O   0  0  0  0  0  0  0  0  0  0  0  0
    1.7862    2.7596    0.0000 O   0  0  0  0  0  0  0  0  0  0  0  0
    2.5007    1.5221    0.0000 O   0  0  0  0  0  0  0  0  0  0  0  0
    1.7862    1.9346    0.0000 N   0  0  0  0  0  0  0  0  0  0  0  0
   -1.0716    2.7596    0.0000 N   0  0  0  0  0  0  0  0  0  0  0  0
   -1.0716   -2.1904    0.0000 C   0  0  0  0  0  0  0  0  0  0  0  0
   -1.7861   -1.7779    0.0000 C   0  0  0  0  0  0  0  0  0  0  0  0
   -0.3572   -1.7779    0.0000 C   0  0  0  0  0  0  0  0  0  0  0  0
   -1.7861   -0.9528    0.0000 C   0  0  0  0  0  0  0  0  0  0  0  0
   -0.3572   -0.9528    0.0000 C   0  0  0  0  0  0  0  0  0  0  0  0
   -2.5007   -0.5403    0.0000 C   0  0  0  0  0  0  0  0  0  0  0  0
    0.3572    0.2846    0.0000 C   0  0  0  0  0  0  0  0  0  0  0  0
   -0.3572    0.6971    0.0000 C   0  0  0  0  0  0  0  0  0  0  0  0
    1.0717    0.6971    0.0000 C   0  0  0  0  0  0  0  0  0  0  0  0
   -0.3572    1.5221    0.0000 C   0  0  0  0  0  0  0  0  0  0  0  0
    1.0717    1.5221    0.0000 C   0  0  0  0  0  0  0  0  0  0  0  0
    0.3572    1.9346    0.0000 C   0  0  0  0  0  0  0  0  0  0  0  0
   -1.0716    1.9346    0.0000 C   0  0  0  0  0  0  0  0  0  0  0  0
  1 15  1  0
  1 16  1  0
  2 18  1  0
  6 17  1  0
  7 24  2  0
  8 10  1  0
  9 10  2  0
 10 22  1  0
 11 24  1  0
 12  3  1  1
 12 13  1  0
 12 14  1  0
 13  4  1  1
 13 15  1  0
 14  5  1  6
 14 16  1  0
 15 17  1  1
 16  2  1  6
 18 19  2  0
 18 20  1  0
 19 21  1  0
 20 22  2  0
 21 23  2  0
 21 24  1  0
 22 23  1  0
M  CHG  2   8  -1  10   1
M  END
>  <DRUGBANK_ID>  (1) 
DB02802

>  <SECONDARY_ACCESSION_NUMBERS>  (1) 
EXPT01462

>  <COMMON_NAME>  (1) 
3-(alpha-D-Galactopyranosyloxy)-5-nitrobenzamide

>  <SYNONYMS>  (1) 
3-(Î±-D-Galactopyranosyloxy)-5-nitrobenzamide; 5-aminocarbonyl-3-nitrophenyl-alpha-D-galactopyranose

$$$$
