
     RDKit          2D

  3  0  0  0  0  0  0  0  0  0999 V2000
   -0.4125    0.0000    0.0000 Mg  0  0  0  0  0 15  0  0  0  0  0  0
    0.4125   -0.8250    0.0000 Cl  0  0  0  0  0  0  0  0  0  0  0  0
    0.4125    0.8250    0.0000 Cl  0  0  0  0  0  0  0  0  0  0  0  0
M  CHG  3   1   2   2  -1   3  -1
M  END
>  <DRUGBANK_ID>  (1) 
DB09407

>  <COMMON_NAME>  (1) 
Magnesium chloride

>  <CAS_NUMBER>  (1) 
7786-30-3

>  <UNII>  (1) 
59XN63C8VM

>  <SYNONYMS>  (1) 
Anhydrous magnesium chloride; Magnesium chloride anhydrous

$$$$
