
     RDKit          2D

 34 38  0  0  1  0  0  0  0  0999 V2000
    5.7904   -3.2626    0.0000 C   0  0  0  0  0  0  0  0  0  0  0  0
    6.2029   -2.5481    0.0000 C   0  0  0  0  0  0  0  0  0  0  0  0
    4.9654   -3.2626    0.0000 C   0  0  0  0  0  0  0  0  0  0  0  0
    4.8678    2.1639    0.0000 C   0  0  0  0  0  0  0  0  0  0  0  0
    5.7904   -1.8336    0.0000 C   0  0  0  0  0  0  0  0  0  0  0  0
    4.5529   -2.5481    0.0000 C   0  0  0  0  0  0  0  0  0  0  0  0
    4.1792    1.7094    0.0000 C   0  0  0  0  0  0  0  0  0  0  0  0
    0.4917   -1.5316    0.0000 C   0  0  0  0  0  0  0  0  0  0  0  0
    1.2062   -1.9441    0.0000 C   0  0  0  0  0  0  0  0  0  0  0  0
    5.5128    1.6496    0.0000 C   0  0  0  0  0  0  0  0  0  0  0  0
    1.2062   -0.2941    0.0000 C   0  0  0  0  0  0  0  0  0  0  0  0
    4.5529   -1.1191    0.0000 C   0  0  0  0  0  0  0  0  0  0  0  0
   -0.2228   -0.2941    0.0000 C   0  0  0  0  0  0  0  0  0  0  0  0
    1.3271   -3.8742    0.0000 C   0  0  0  0  0  0  0  0  0  0  0  0
    2.5656   -0.1923    0.0000 C   0  0  0  0  0  0  0  0  0  0  0  0
    2.3821   -2.8503    0.0000 C   0  0  0  0  0  0  0  0  0  0  0  0
    3.3700   -1.8624    0.0000 C   0  0  0  0  0  0  0  0  0  0  0  0
    0.2590   -3.0735    0.0000 C   0  0  0  0  0  0  0  0  0  0  0  0
    4.9654   -1.8336    0.0000 C   0  0  0  0  0  0  0  0  0  0  0  0
    0.4917   -0.7066    0.0000 C   0  0  0  0  0  0  0  0  0  0  0  0
    1.9206   -0.7066    0.0000 C   0  0  0  0  0  0  0  0  0  0  0  0
    1.5937   -3.0935    0.0000 C   0  0  0  0  0  0  0  0  0  0  0  0
    3.7279   -1.1191    0.0000 C   0  0  0  0  0  0  0  0  0  0  0  0
    1.9206   -1.5316    0.0000 C   0  0  0  0  0  0  0  0  0  0  0  0
    4.3987    0.9142    0.0000 C   0  0  0  0  0  0  0  0  0  0  0  0
   -0.9373    0.1184    0.0000 N   0  0  0  0  0  0  0  0  0  0  0  0
    0.5022   -3.8619    0.0000 N   0  0  0  0  0  0  0  0  0  0  0  0
    0.9336   -2.5987    0.0000 N   0  0  0  0  0  0  0  0  0  0  0  0
    2.5656   -2.0460    0.0000 N   0  0  0  0  0  0  0  0  0  0  0  0
    3.3700   -0.3758    0.0000 N   0  0  0  0  0  0  0  0  0  0  0  0
    4.5293   -0.2452    0.0000 O   0  0  0  0  0  0  0  0  0  0  0  0
    3.2393    0.7835    0.0000 O   0  0  0  0  0  0  0  0  0  0  0  0
    5.2229    0.8772    0.0000 S   0  0  0  0  0  0  0  0  0  0  0  0
    3.8843    0.2692    0.0000 S   0  0  0  0  0  0  0  0  0  0  0  0
  2  1  2  0
  3  1  1  0
  5  2  1  0
  6  3  2  0
  7  4  1  0
  9  8  2  0
 10  4  2  0
 19  5  2  0
 19  6  1  0
 19 12  1  0
 20  8  1  0
 20 11  2  0
 20 13  1  0
 21 11  1  0
 21 15  1  0
 22 14  2  0
 22 16  1  0
 23 12  1  6
 23 17  1  0
 24  9  1  0
 24 21  2  0
 25  7  2  0
 26 13  3  0
 27 14  1  0
 27 18  2  0
 28 18  1  0
 28 22  1  0
 29 16  1  0
 29 17  1  0
 29 24  1  0
 30 15  1  0
 30 23  1  0
 33 10  1  0
 33 25  1  0
 34 25  1  0
 34 30  1  0
 34 31  2  0
 34 32  2  0
M  END
>  <DRUGBANK_ID>  (1) 
DB12234

>  <SECONDARY_ACCESSION_NUMBERS>  (1) 
DB06509

>  <COMMON_NAME>  (1) 
BMS-214662

>  <CAS_NUMBER>  (1) 
195987-41-8

>  <UNII>  (1) 
L2U9GFD244

$$$$
