
     RDKit          2D

 13 14  0  0  0  0  0  0  0  0999 V2000
    0.3615   -0.8269    0.0000 C   0  0  0  0  0  0  0  0  0  0  0  0
   -0.3595   -0.4260    0.0000 C   0  0  0  0  0  0  0  0  0  0  0  0
   -0.3594    0.3989    0.0000 C   0  0  0  0  0  0  0  0  0  0  0  0
    0.3615    0.8232    0.0000 C   0  0  0  0  0  0  0  0  0  0  0  0
    1.0827   -0.4025    0.0000 C   0  0  0  0  0  0  0  0  0  0  0  0
    1.0827    0.4224    0.0000 C   0  0  0  0  0  0  0  0  0  0  0  0
    0.3594   -1.6483    0.0000 N   0  0  0  0  0  0  0  0  0  0  0  0
    0.3615    1.6483    0.0000 O   0  0  0  0  0  0  0  0  0  0  0  0
   -1.0806   -0.8501    0.0000 C   0  0  0  0  0  0  0  0  0  0  0  0
    1.8017   -0.8000    0.0000 C   0  0  0  0  0  0  0  0  0  0  0  0
   -1.0807    0.7999    0.0000 C   0  0  0  0  0  0  0  0  0  0  0  0
   -1.7981   -0.4472    0.0000 C   0  0  0  0  0  0  0  0  0  0  0  0
   -1.8017    0.3757    0.0000 C   0  0  0  0  0  0  0  0  0  0  0  0
  2  1  2  0
  3  2  1  0
  4  6  1  0
  4  3  2  0
  5  1  1  0
  6  5  2  0
  7  1  1  0
  8  4  1  0
  9  2  1  0
 10  5  1  0
 11  3  1  0
 11 13  2  0
 12  9  2  0
 13 12  1  0
M  END
>  <DRUGBANK_ID>  (1) 
DB15664

>  <COMMON_NAME>  (1) 
Vitamin K7

>  <CAS_NUMBER>  (1) 
83-69-2

>  <UNII>  (1) 
HEE4JPA7DF

>  <SYNONYMS>  (1) 
1-amino-2-methyl-4-naphthol; 1-hydroxy-3-methyl-4-aminonaphthalene; 2-methyl-4-hydroxy-1-naphthylamine; 3-methyl-4-amino-1-naphthol; 4-amino-3-methyl-1-naphthol; 4-Amino-3-methylnaphthol

$$$$
