
     RDKit          2D

 24 27  0  0  0  0  0  0  0  0999 V2000
    2.8478   -1.9193    0.0000 F   0  0  0  0  0  0  0  0  0  0  0  0
   -0.6322   -0.4556    0.0000 N   0  0  0  0  0  0  0  0  0  0  0  0
   -0.6322    0.8770    0.0000 N   0  0  0  0  0  0  0  0  0  0  0  0
    0.6834    0.2107    0.0000 N   0  0  0  0  0  0  0  0  0  0  0  0
    1.9194    2.3579    0.0000 N   0  0  0  0  0  0  0  0  0  0  0  0
   -1.4182   -0.1993    0.0000 C   0  0  0  0  0  0  0  0  0  0  0  0
   -0.1480    0.2107    0.0000 C   0  0  0  0  0  0  0  0  0  0  0  0
   -1.4182    0.6264    0.0000 C   0  0  0  0  0  0  0  0  0  0  0  0
   -0.3815   -1.2302    0.0000 C   0  0  0  0  0  0  0  0  0  0  0  0
   -2.1358   -0.6151    0.0000 C   0  0  0  0  0  0  0  0  0  0  0  0
   -2.1358    1.0365    0.0000 C   0  0  0  0  0  0  0  0  0  0  0  0
    0.4214   -1.4011    0.0000 C   0  0  0  0  0  0  0  0  0  0  0  0
    1.0992    0.9283    0.0000 C   0  0  0  0  0  0  0  0  0  0  0  0
   -2.8478   -0.1993    0.0000 C   0  0  0  0  0  0  0  0  0  0  0  0
   -2.8478    0.6264    0.0000 C   0  0  0  0  0  0  0  0  0  0  0  0
    0.6721   -2.1871    0.0000 C   0  0  0  0  0  0  0  0  0  0  0  0
    0.9682   -0.7917    0.0000 C   0  0  0  0  0  0  0  0  0  0  0  0
    1.9194    0.9283    0.0000 C   0  0  0  0  0  0  0  0  0  0  0  0
    0.6834    1.6403    0.0000 C   0  0  0  0  0  0  0  0  0  0  0  0
    2.0333   -1.7428    0.0000 C   0  0  0  0  0  0  0  0  0  0  0  0
    1.4808   -2.3579    0.0000 C   0  0  0  0  0  0  0  0  0  0  0  0
    1.7770   -0.9625    0.0000 C   0  0  0  0  0  0  0  0  0  0  0  0
    2.3351    1.6403    0.0000 C   0  0  0  0  0  0  0  0  0  0  0  0
    1.0992    2.3579    0.0000 C   0  0  0  0  0  0  0  0  0  0  0  0
  1 20  1  0
  2  6  1  0
  2  7  1  0
  2  9  1  0
  3  7  2  0
  3  8  1  0
  4  7  1  0
  4 13  1  0
  5 23  1  0
  5 24  1  0
  6  8  2  0
  6 10  1  0
  8 11  1  0
  9 12  1  0
 10 14  2  0
 11 15  2  0
 12 16  2  0
 12 17  1  0
 13 18  1  0
 13 19  1  0
 14 15  1  0
 16 21  1  0
 17 22  2  0
 18 23  1  0
 19 24  1  0
 20 21  2  0
 20 22  1  0
M  END
>  <DRUGBANK_ID>  (1) 
DB06457

>  <COMMON_NAME>  (1) 
Tecastemizole

>  <CAS_NUMBER>  (1) 
75970-99-9

>  <UNII>  (1) 
W5DCO14M05

>  <SYNONYMS>  (1) 
Norastemizole; Tecastemizole

$$$$
