
     RDKit          2D

 11 11  0  0  0  0  0  0  0  0999 V2000
    2.4210    0.7462    0.0000 C   0  0  0  0  0  0  0  0  0  0  0  0
    1.7065    0.3337    0.0000 C   0  0  0  0  0  0  0  0  0  0  0  0
    1.7065   -0.4913    0.0000 O   0  0  0  0  0  0  0  0  0  0  0  0
    0.9920    0.7462    0.0000 N   0  0  0  0  0  0  0  0  0  0  0  0
    0.2774    0.3337    0.0000 C   0  0  0  0  0  0  0  0  0  0  0  0
   -0.4369    0.7462    0.0000 C   0  0  0  0  0  0  0  0  0  0  0  0
   -1.1514    0.3337    0.0000 C   0  0  0  0  0  0  0  0  0  0  0  0
   -2.4210   -0.0787    0.0000 N   0  0  0  0  0  0  0  0  0  0  0  0
   -1.1514   -0.4913    0.0000 N   0  0  0  0  0  0  0  0  0  0  0  0
   -1.9361    0.5886    0.0000 C   0  0  0  0  0  0  0  0  0  0  0  0
   -1.9361   -0.7462    0.0000 C   0  0  0  0  0  0  0  0  0  0  0  0
  2  1  1  0
  2  3  2  0
  4  2  1  0
  4  5  1  0
  5  6  1  0
  6  7  1  0
  7 10  2  0
  9  7  1  0
 10  8  1  0
 11  9  2  0
 11  8  1  0
M  END
>  <DRUGBANK_ID>  (1) 
DB04622

>  <COMMON_NAME>  (1) 
N-acetylhistamine

>  <CAS_NUMBER>  (1) 
673-49-4

>  <UNII>  (1) 
E65S46EBQ6

>  <SYNONYMS>  (1) 
4-(2-acetamidoethyl)imidazole; 4-(2-acetylaminoethyl)imidazole; 4-(beta-Acetylaminoethyl)imidazole; Î±-N-acetylhistamine

$$$$
