BB1
     RDKit          2D

 23 22  0  0  0  0  0  0  0  0999 V2000
    1.0695   -1.2399    0.0000 C   0  0  0  0  0  0  0  0  0  0  0  0
    1.0695   -0.4149    0.0000 C   0  0  0  0  0  0  0  0  0  0  0  0
    0.3551   -0.0024    0.0000 C   0  0  0  0  0  0  0  0  0  0  0  0
    0.3551    0.8226    0.0000 O   0  0  0  0  0  0  0  0  0  0  0  0
   -0.3594   -0.4149    0.0000 N   0  0  0  0  0  0  0  0  0  0  0  0
   -1.0739   -0.0024    0.0000 C   0  0  0  0  0  0  0  0  0  0  0  0
    1.7840   -0.0024    0.0000 C   0  0  0  0  0  0  0  0  0  0  0  0
    2.4985   -0.4149    0.0000 C   0  0  0  0  0  0  0  0  0  0  0  0
    3.2130   -0.0024    0.0000 C   0  0  0  0  0  0  0  0  0  0  0  0
    3.9274   -0.4149    0.0000 C   0  0  0  0  0  0  0  0  0  0  0  0
    1.7840   -1.6524    0.0000 N   0  0  0  0  0  0  0  0  0  0  0  0
    2.4985   -1.2399    0.0000 C   0  0  0  0  0  0  0  0  0  0  0  0
    3.2130   -1.6524    0.0000 O   0  0  0  0  0  0  0  0  0  0  0  0
    1.7840   -2.4774    0.0000 O   0  0  0  0  0  0  0  0  0  0  0  0
   -1.7883   -0.4149    0.0000 C   0  0  0  0  0  0  0  0  0  0  0  0
   -2.5028   -0.0024    0.0000 N   0  0  0  0  0  0  0  0  0  0  0  0
   -3.2173   -0.4149    0.0000 C   0  0  0  0  0  0  0  0  0  0  0  0
   -2.5028    0.8226    0.0000 C   0  0  0  0  0  0  0  0  0  0  0  0
   -1.7883   -1.2399    0.0000 O   0  0  0  0  0  0  0  0  0  0  0  0
   -1.0739    0.8226    0.0000 C   0  0  0  0  0  0  0  0  0  0  0  0
   -1.0739    1.6476    0.0000 C   0  0  0  0  0  0  0  0  0  0  0  0
   -1.8989    0.8226    0.0000 C   0  0  0  0  0  0  0  0  0  0  0  0
   -0.2489    0.8226    0.0000 C   0  0  0  0  0  0  0  0  0  0  0  0
  2  1  1  6
  1 11  1  0
  2  3  1  0
  2  7  1  0
  3  4  2  0
  3  5  1  0
  6  5  1  6
  6 15  1  0
  6 20  1  0
  7  8  1  0
  8  9  1  0
  9 10  1  0
 11 12  1  0
 11 14  1  0
 12 13  2  0
 15 16  1  0
 15 19  2  0
 16 17  1  0
 16 18  1  0
 20 21  1  0
 20 22  1  0
 20 23  1  0
M  END
>  <DRUGBANK_ID>  (1) 
DB04368

>  <SECONDARY_ACCESSION_NUMBERS>  (1) 
EXPT00629

>  <COMMON_NAME>  (1) 
Bb-3497

>  <CAS_NUMBER>  (1) 
235784-88-0

$$$$
