4MD
     RDKit          2D

 23 24  0  0  0  0  0  0  0  0999 V2000
    2.6791    0.0122    0.0000 C   0  0  0  0  0  0  0  0  0  0  0  0
    3.3936   -0.4003    0.0000 C   0  0  0  0  0  0  0  0  0  0  0  0
    3.3936   -1.2253    0.0000 C   0  0  0  0  0  0  0  0  0  0  0  0
    4.1080   -1.6378    0.0000 Cl  0  0  0  0  0  0  0  0  0  0  0  0
    2.6791   -1.6378    0.0000 C   0  0  0  0  0  0  0  0  0  0  0  0
    1.9646   -1.2253    0.0000 C   0  0  0  0  0  0  0  0  0  0  0  0
    1.9646   -0.4003    0.0000 C   0  0  0  0  0  0  0  0  0  0  0  0
    1.2502    0.0122    0.0000 C   0  0  0  0  0  0  0  0  0  0  0  0
    0.5357   -0.4003    0.0000 N   0  0  0  0  0  0  0  0  0  0  0  0
    0.5357   -1.2253    0.0000 C   0  0  0  0  0  0  0  0  0  0  0  0
   -0.1788    0.0122    0.0000 S   0  0  0  0  0  0  0  0  0  0  0  0
    0.2337    0.7266    0.0000 O   0  0  0  0  0  0  0  0  0  0  0  0
   -0.5913   -0.7023    0.0000 O   0  0  0  0  0  0  0  0  0  0  0  0
   -0.8933    0.4247    0.0000 C   0  0  0  0  0  0  0  0  0  0  0  0
   -1.6077    0.0122    0.0000 C   0  0  0  0  0  0  0  0  0  0  0  0
   -2.3222    0.4247    0.0000 C   0  0  0  0  0  0  0  0  0  0  0  0
   -0.8933    1.2497    0.0000 C   0  0  0  0  0  0  0  0  0  0  0  0
   -1.6077    1.6622    0.0000 C   0  0  0  0  0  0  0  0  0  0  0  0
   -2.3222    1.2497    0.0000 C   0  0  0  0  0  0  0  0  0  0  0  0
   -3.0367    1.6622    0.0000 S   0  0  0  0  0  0  0  0  0  0  0  0
   -3.7511    2.0747    0.0000 O   0  0  0  0  0  0  0  0  0  0  0  0
   -2.6242    2.3766    0.0000 O   0  0  0  0  0  0  0  0  0  0  0  0
   -3.4492    0.9477    0.0000 N   0  0  0  0  0  0  0  0  0  0  0  0
  1  2  2  0
  1  7  1  0
  2  3  1  0
  3  4  1  0
  3  5  2  0
  5  6  1  0
  6  7  2  0
  7  8  1  0
  8  9  1  0
  9 10  1  0
  9 11  1  0
 11 12  2  0
 11 13  2  0
 11 14  1  0
 14 15  2  0
 14 17  1  0
 15 16  1  0
 16 19  2  0
 17 18  2  0
 18 19  1  0
 19 20  1  0
 20 21  2  0
 20 22  2  0
 20 23  1  0
M  END
>  <DRUGBANK_ID>  (1) 
DB07115

>  <COMMON_NAME>  (1) 
N-(4-chlorobenzyl)-N-methylbenzene-1,4-disulfonamide

$$$$
