
     RDKit          2D

 14 13  0  0  0  0  0  0  0  0999 V2000
    1.0709    0.8246    0.0000 C   0  0  0  0  0  0  0  0  0  0  0  0
    0.3610   -0.4155    0.0000 N   0  0  0  0  0  0  0  0  0  0  0  0
    0.3569    0.4113    0.0000 C   0  0  0  0  0  0  0  0  0  0  0  0
    1.0709   -0.8245    0.0000 C   0  0  0  0  0  0  0  0  0  0  0  0
   -1.7849    0.8163    0.0000 C   0  0  0  0  0  0  0  0  0  0  0  0
    1.0709    1.6513    0.0000 O   0  0  0  0  0  0  0  0  0  0  0  0
    1.0750   -1.6512    0.0000 O   0  0  0  0  0  0  0  0  0  0  0  0
   -1.7849    1.6430    0.0000 O   0  0  0  0  0  0  0  0  0  0  0  0
   -0.3569    0.8246    0.0000 C   0  0  0  0  0  0  0  0  0  0  0  0
   -1.0709    0.4113    0.0000 C   0  0  0  0  0  0  0  0  0  0  0  0
   -2.4989    0.4029    0.0000 N   0  0  0  0  0  0  0  0  0  0  0  0
    1.7849    0.4155    0.0000 O   0  0  0  0  0  0  0  0  0  0  0  0
    2.4989   -0.8162    0.0000 N   0  0  0  0  0  0  0  0  0  0  0  0
    1.7890   -0.4069    0.0000 C   0  0  0  0  0  0  0  0  0  0  0  0
  3  2  1  0
  3  1  1  0
  4  2  1  0
  5 10  1  0
  6  1  2  0
  7  4  2  0
  8  5  2  0
  3  9  1  1
 10  9  1  0
 11  5  1  0
 12  1  1  0
 13 14  1  0
 14  4  1  0
M  END
>  <DRUGBANK_ID>  (1) 
DB15990

>  <COMMON_NAME>  (1) 
Glycylglutamine

>  <CAS_NUMBER>  (1) 
13115-71-4

>  <UNII>  (1) 
H7125Z98HT

>  <SYNONYMS>  (1) 
Gly-gln; Glycyl-glutamine; Glycyl-L-glutamine

$$$$
