A49
     RDKit          2D

 32 35  0  0  0  0  0  0  0  0999 V2000
   -3.7897    2.1685    0.0000 O   0  0  0  0  0  0  0  0  0  0  0  0
   -3.9330    1.3561    0.0000 C   0  0  0  0  0  0  0  0  0  0  0  0
   -4.7082    1.0739    0.0000 N   0  0  0  0  0  0  0  0  0  0  0  0
   -3.3010    0.8258    0.0000 C   0  0  0  0  0  0  0  0  0  0  0  0
   -2.8885    0.1113    0.0000 C   0  0  0  0  0  0  0  0  0  0  0  0
   -3.7135    0.1113    0.0000 C   0  0  0  0  0  0  0  0  0  0  0  0
   -2.6690    1.3561    0.0000 C   0  0  0  0  0  0  0  0  0  0  0  0
   -1.8938    1.0739    0.0000 N   0  0  0  0  0  0  0  0  0  0  0  0
   -1.2618    1.6042    0.0000 C   0  0  0  0  0  0  0  0  0  0  0  0
   -0.4865    1.3220    0.0000 C   0  0  0  0  0  0  0  0  0  0  0  0
   -1.7505    0.2614    0.0000 C   0  0  0  0  0  0  0  0  0  0  0  0
   -0.9753   -0.0207    0.0000 C   0  0  0  0  0  0  0  0  0  0  0  0
   -0.3433    0.5096    0.0000 C   0  0  0  0  0  0  0  0  0  0  0  0
    0.4320    0.2274    0.0000 N   0  0  0  0  0  0  0  0  0  0  0  0
    0.5752   -0.5851    0.0000 C   0  0  0  0  0  0  0  0  0  0  0  0
    0.2931   -1.3603    0.0000 C   0  0  0  0  0  0  0  0  0  0  0  0
    1.1055   -1.2171    0.0000 C   0  0  0  0  0  0  0  0  0  0  0  0
    1.0640    0.7577    0.0000 C   0  0  0  0  0  0  0  0  0  0  0  0
    0.9207    1.5702    0.0000 O   0  0  0  0  0  0  0  0  0  0  0  0
    1.8392    0.4755    0.0000 C   0  0  0  0  0  0  0  0  0  0  0  0
    2.4712    1.0058    0.0000 C   0  0  0  0  0  0  0  0  0  0  0  0
    3.2464    0.7237    0.0000 C   0  0  0  0  0  0  0  0  0  0  0  0
    1.9825   -0.3369    0.0000 C   0  0  0  0  0  0  0  0  0  0  0  0
    2.7577   -0.6191    0.0000 C   0  0  0  0  0  0  0  0  0  0  0  0
    3.3897   -0.0888    0.0000 C   0  0  0  0  0  0  0  0  0  0  0  0
    4.1649   -0.3710    0.0000 C   0  0  0  0  0  0  0  0  0  0  0  0
    3.8828   -1.1462    0.0000 C   0  0  0  0  0  0  0  0  0  0  0  0
    4.4471    0.4043    0.0000 O   0  0  0  0  0  0  0  0  0  0  0  0
    4.9402   -0.6531    0.0000 C   0  0  0  0  0  0  0  0  0  0  0  0
    5.7154   -0.9353    0.0000 F   0  0  0  0  0  0  0  0  0  0  0  0
    5.2224    0.1221    0.0000 F   0  0  0  0  0  0  0  0  0  0  0  0
    4.6580   -1.4284    0.0000 F   0  0  0  0  0  0  0  0  0  0  0  0
  1  2  2  0
  2  4  1  0
  3  2  1  0
  4  5  1  0
  6  4  1  0
  6  5  1  0
  7  4  1  0
  7  8  1  0
  8  9  1  0
  9 10  1  0
 11  8  1  0
 11 12  1  0
 12 13  1  0
 13 10  1  0
 13 14  1  0
 14 15  1  0
 14 18  1  0
 15 17  1  0
 16 15  1  0
 16 17  1  0
 18 19  2  0
 20 18  1  0
 20 21  2  0
 22 21  1  0
 23 20  1  0
 24 23  2  0
 24 25  1  0
 25 22  2  0
 26 25  1  0
 26 27  1  1
 26 28  1  0
 29 26  1  0
 29 32  1  0
 30 29  1  0
 31 29  1  0
M  END
>  <DRUGBANK_ID>  (1) 
DB07316

>  <COMMON_NAME>  (1) 
N-{1-[(1-carbamoylcyclopropyl)methyl]piperidin-4-yl}-N-cyclopropyl-4-[(1S)-2,2,2-trifluoro-1-hydroxy-1-methylethyl]benzamide

$$$$
