
     RDKit          2D

 14 15  0  0  0  0  0  0  0  0999 V2000
   -0.3704   -0.4184    0.0000 C   0  0  0  0  0  0  0  0  0  0  0  0
   -0.3704    0.4164    0.0000 C   0  0  0  0  0  0  0  0  0  0  0  0
    0.3778   -0.8330    0.0000 C   0  0  0  0  0  0  0  0  0  0  0  0
   -1.0836   -0.8330    0.0000 C   0  0  0  0  0  0  0  0  0  0  0  0
    0.3778    0.8330    0.0000 C   0  0  0  0  0  0  0  0  0  0  0  0
   -1.0836    0.8330    0.0000 C   0  0  0  0  0  0  0  0  0  0  0  0
    1.0873   -0.4184    0.0000 C   0  0  0  0  0  0  0  0  0  0  0  0
    0.3778   -1.6733    0.0000 O   0  0  0  0  0  0  0  0  0  0  0  0
   -1.7951   -0.4184    0.0000 C   0  0  0  0  0  0  0  0  0  0  0  0
    1.0873    0.4164    0.0000 C   0  0  0  0  0  0  0  0  0  0  0  0
    0.3778    1.6733    0.0000 O   0  0  0  0  0  0  0  0  0  0  0  0
   -1.7951    0.4164    0.0000 C   0  0  0  0  0  0  0  0  0  0  0  0
    1.7951   -0.8330    0.0000 C   0  0  0  0  0  0  0  0  0  0  0  0
    1.7951    0.8330    0.0000 C   0  0  0  0  0  0  0  0  0  0  0  0
  1  2  2  0
  1  3  1  0
  1  4  1  0
  2  5  1  0
  2  6  1  0
  3  7  1  0
  3  8  2  0
  4  9  2  0
  5 10  1  0
  5 11  2  0
  6 12  2  0
  7 13  1  0
  7 10  2  0
  9 12  1  0
 10 14  1  0
M  END
>  <DRUGBANK_ID>  (1) 
DB07669

>  <COMMON_NAME>  (1) 
2,3-Dimethyl-1,4-naphthoquinone

>  <CAS_NUMBER>  (1) 
2197-57-1

>  <UNII>  (1) 
SY9IO0B44O

>  <SYNONYMS>  (1) 
2,3-Dimethylnaphthoquinone

$$$$
