IPP
     RDKit          2D

 15 15  0  0  0  0  0  0  0  0999 V2000
   -2.3822   -0.3676    0.0000 P   0  0  0  0  0  0  0  0  0  0  0  0
   -3.0967   -0.7801    0.0000 O   0  0  0  0  0  0  0  0  0  0  0  0
   -2.3822    0.4574    0.0000 O   0  0  0  0  0  0  0  0  0  0  0  0
   -1.6677   -0.7801    0.0000 C   0  0  0  0  0  0  0  0  0  0  0  0
   -0.9532   -0.3676    0.0000 N   0  0  0  0  0  0  0  0  0  0  0  0
   -0.2388   -0.7801    0.0000 C   0  0  0  0  0  0  0  0  0  0  0  0
   -0.2388   -1.6051    0.0000 O   0  0  0  0  0  0  0  0  0  0  0  0
    0.4757   -0.3676    0.0000 C   0  0  0  0  0  0  0  0  0  0  0  0
    1.1902   -0.7801    0.0000 C   0  0  0  0  0  0  0  0  0  0  0  0
    1.9046   -0.3676    0.0000 C   0  0  0  0  0  0  0  0  0  0  0  0
    2.6191   -0.7801    0.0000 C   0  0  0  0  0  0  0  0  0  0  0  0
    2.6191   -1.6051    0.0000 C   0  0  0  0  0  0  0  0  0  0  0  0
    3.3336   -2.0176    0.0000 I   0  0  0  0  0  0  0  0  0  0  0  0
    1.9046   -2.0176    0.0000 C   0  0  0  0  0  0  0  0  0  0  0  0
    1.1902   -1.6051    0.0000 C   0  0  0  0  0  0  0  0  0  0  0  0
  1  2  1  1
  1  3  2  0
  1  4  1  0
  4  5  1  0
  5  6  1  0
  6  7  2  0
  6  8  1  0
  8  9  1  0
  9 10  2  0
  9 15  1  0
 10 11  1  0
 11 12  2  0
 12 13  1  0
 12 14  1  0
 14 15  2  0
M  END
>  <DRUGBANK_ID>  (1) 
DB04123

>  <SECONDARY_ACCESSION_NUMBERS>  (1) 
EXPT01921

>  <COMMON_NAME>  (1) 
(P-Iodophenylacetylamino)Methylphosphinic Acid

$$$$
