
     RDKit          2D

 16 17  0  0  1  0  0  0  0  0999 V2000
    1.3556   -0.1271    0.0000 C   0  0  0  0  0  0  0  0  0  0  0  0
    1.3556    0.6979    0.0000 C   0  0  0  0  0  0  0  0  0  0  0  0
    2.0701    1.1104    0.0000 C   0  0  0  0  0  0  0  0  0  0  0  0
    2.0701    1.9354    0.0000 C   0  0  0  0  0  0  0  0  0  0  0  0
    1.3556    2.3479    0.0000 C   0  0  0  0  0  0  0  0  0  0  0  0
    0.6411    1.9354    0.0000 C   0  0  0  0  0  0  0  0  0  0  0  0
   -0.6284    1.5229    0.0000 C   0  0  0  0  0  0  0  0  0  0  0  0
   -0.1435    0.8555    0.0000 C   0  0  0  0  0  0  0  0  0  0  0  0
   -0.1435    2.1904    0.0000 N   0  0  0  0  0  0  0  0  0  0  0  0
    0.6411    1.1104    0.0000 N   0  0  0  0  0  0  0  0  0  0  0  0
    0.6411   -0.5396    0.0000 O   0  0  0  0  0  0  0  0  0  0  0  0
    2.7845    0.6979    0.0000 O   0  0  0  0  0  0  0  0  0  0  0  0
    2.7845    2.3479    0.0000 O   0  0  0  0  0  0  0  0  0  0  0  0
    1.3556    3.1729    0.0000 O   0  0  0  0  0  0  0  0  0  0  0  0
   -1.4534    1.5229    0.0000 O   0  0  0  0  0  0  0  0  0  0  0  0
   -0.3984    0.0709    0.0000 O   0  0  0  0  0  0  0  0  0  0  0  0
  2  1  1  1
  3  2  1  0
  3 12  1  6
  4  3  1  0
  4 13  1  1
  5  4  1  0
  5 14  1  1
  6  5  1  0
  8  7  1  0
  6  9  1  6
  9  7  1  0
 10  2  1  0
 10  6  1  0
 10  8  1  0
 11  1  1  0
 15  7  2  0
 16  8  2  0
M  END
>  <DRUGBANK_ID>  (1) 
DB02742

>  <SECONDARY_ACCESSION_NUMBERS>  (1) 
EXPT01973

>  <COMMON_NAME>  (1) 
Kifunensine

>  <CAS_NUMBER>  (1) 
109944-15-2

>  <UNII>  (1) 
0NI8960271

$$$$
