KPV
     RDKit          2D

 14 14  0  0  0  0  0  0  0  0999 V2000
   -0.6062   -0.0468    0.0000 C   0  0  0  0  0  0  0  0  0  0  0  0
   -0.6062    0.7782    0.0000 C   0  0  0  0  0  0  0  0  0  0  0  0
   -1.3207    1.1907    0.0000 C   0  0  0  0  0  0  0  0  0  0  0  0
   -2.0352    0.7782    0.0000 C   0  0  0  0  0  0  0  0  0  0  0  0
   -2.0352   -0.0468    0.0000 C   0  0  0  0  0  0  0  0  0  0  0  0
   -1.3207   -0.4593    0.0000 C   0  0  0  0  0  0  0  0  0  0  0  0
    0.1082   -0.4593    0.0000 C   0  0  0  0  0  0  0  0  0  0  0  0
    0.8227   -0.0468    0.0000 C   0  0  0  0  0  0  0  0  0  0  0  0
    1.5372   -0.4593    0.0000 C   0  0  0  0  0  0  0  0  0  0  0  0
    2.2517   -0.0468    0.0000 C   0  0  0  0  0  0  0  0  0  0  0  0
    2.9661   -0.4593    0.0000 C   0  0  0  0  0  0  0  0  0  0  0  0
    3.6806   -0.0468    0.0000 O   0  0  0  0  0  0  0  0  0  0  0  0
    2.9661   -1.2843    0.0000 O   0  0  0  0  0  0  0  0  0  0  0  0
    2.2517    0.7782    0.0000 O   0  0  0  0  0  0  0  0  0  0  0  0
  1  6  2  0
  1  2  1  0
  1  7  1  0
  2  3  2  0
  3  4  1  0
  4  5  2  0
  5  6  1  0
  7  8  1  0
  8  9  1  0
  9 10  1  0
 10 11  1  0
 10 14  2  0
 11 12  2  0
 11 13  1  0
M  END
>  <DRUGBANK_ID>  (1) 
DB08050

>  <COMMON_NAME>  (1) 
5-phenyl-2-keto-valeric acid

$$$$
