
     RDKit          2D

 32 35  0  0  1  0  0  0  0  0999 V2000
   -2.7171    2.0100    0.0000 C   0  0  0  0  0  0  0  0  0  0  0  0
   -1.8966    2.0962    0.0000 C   0  0  0  0  0  0  0  0  0  0  0  0
   -1.4117    1.4288    0.0000 C   0  0  0  0  0  0  0  0  0  0  0  0
   -1.7473    0.6751    0.0000 O   0  0  0  0  0  0  0  0  0  0  0  0
   -0.5912    1.5150    0.0000 N   0  0  0  0  0  0  0  0  0  0  0  0
   -0.1787    2.2295    0.0000 C   0  0  0  0  0  0  0  0  0  0  0  0
    0.6282    2.0580    0.0000 C   0  0  0  0  0  0  0  0  0  0  0  0
    0.7145    1.2375    0.0000 C   0  0  0  0  0  0  0  0  0  0  0  0
   -0.0392    0.9019    0.0000 C   0  0  0  0  0  0  0  0  0  0  0  0
    1.4289    0.8250    0.0000 N   0  0  0  0  0  0  0  0  0  0  0  0
    1.4289    0.0000    0.0000 C   0  0  0  0  0  0  0  0  0  0  0  0
    2.1434   -0.4125    0.0000 C   0  0  0  0  0  0  0  0  0  0  0  0
    2.8579    0.0000    0.0000 C   0  0  0  0  0  0  0  0  0  0  0  0
    3.5724   -0.4125    0.0000 N   0  0  0  0  0  0  0  0  0  0  0  0
    3.5724   -1.2375    0.0000 C   0  0  0  0  0  0  0  0  0  0  0  0
    2.8579   -1.6500    0.0000 C   0  0  0  0  0  0  0  0  0  0  0  0
    2.1434   -1.2375    0.0000 C   0  0  0  0  0  0  0  0  0  0  0  0
    1.4289   -1.6500    0.0000 N   0  0  0  0  0  0  0  0  0  0  0  0
    0.7145   -1.2375    0.0000 C   0  0  0  0  0  0  0  0  0  0  0  0
    0.7145   -0.4125    0.0000 N   0  0  0  0  0  0  0  0  0  0  0  0
    4.2868    0.0000    0.0000 C   0  0  0  0  0  0  0  0  0  0  0  0
    4.2868    0.8250    0.0000 C   0  0  0  0  0  0  0  0  0  0  0  0
    5.0013    1.2375    0.0000 N   0  0  0  0  0  0  0  0  0  0  0  0
    5.7158    0.8250    0.0000 C   0  0  0  0  0  0  0  0  0  0  0  0
    6.4302    1.2375    0.0000 O   0  0  0  0  0  0  0  0  0  0  0  0
    6.4302    2.0625    0.0000 C   0  0  0  0  0  0  0  0  0  0  0  0
    5.7158    0.0000    0.0000 C   0  0  0  0  0  0  0  0  0  0  0  0
    5.0013   -0.4125    0.0000 C   0  0  0  0  0  0  0  0  0  0  0  0
    6.4302   -0.4125    0.0000 C   0  0  0  0  0  0  0  0  0  0  0  0
    7.1447   -0.8250    0.0000 F   0  0  0  0  0  0  0  0  0  0  0  0
    6.0177   -1.1270    0.0000 F   0  0  0  0  0  0  0  0  0  0  0  0
    6.8427    0.3020    0.0000 F   0  0  0  0  0  0  0  0  0  0  0  0
  1  2  1  0
  2  3  1  0
  3  4  2  0
  3  5  1  0
  5  6  1  0
  5  9  1  0
  6  7  1  0
  8  7  1  0
  8  9  1  0
  8 10  1  6
 10 11  1  0
 11 12  1  0
 11 20  2  0
 12 13  1  0
 12 17  2  0
 13 14  1  0
 14 15  1  0
 14 21  1  0
 15 16  1  0
 16 17  1  0
 17 18  1  0
 18 19  2  0
 19 20  1  0
 21 22  2  0
 21 28  1  0
 22 23  1  0
 23 24  2  0
 24 25  1  0
 24 27  1  0
 25 26  1  0
 27 28  2  0
 27 29  1  0
 29 30  1  0
 29 31  1  0
 29 32  1  0
M  END
>  <DRUGBANK_ID>  (1) 
DB16217

>  <COMMON_NAME>  (1) 
Leniolisib

>  <CAS_NUMBER>  (1) 
1354690-24-6

>  <UNII>  (1) 
L22772Z9CP

>  <SYNONYMS>  (1) 
Cdz-173 free base; Cdz173 free base; Leniolisib

$$$$
