4815
     RDKit          2D

 13 14  0  0  0  0  0  0  0  0999 V2000
    1.6498   -0.6970    0.0000 I   0  0  0  0  0  0  0  0  0  0  0  0
    3.0786    1.7777    0.0000 Cl  0  0  0  0  0  0  0  0  0  0  0  0
    3.0786   -1.5219    0.0000 O   0  0  0  0  0  0  0  0  0  0  0  0
    4.5303   -0.7257    0.0000 N   0  0  0  0  0  0  0  0  0  0  0  0
    3.7929    0.5403    0.0000 C   0  0  0  0  0  0  0  0  0  0  0  0
    3.7929   -0.2846    0.0000 C   0  0  0  0  0  0  0  0  0  0  0  0
    3.0786   -0.6970    0.0000 C   0  0  0  0  0  0  0  0  0  0  0  0
    3.0786    0.9528    0.0000 C   0  0  0  0  0  0  0  0  0  0  0  0
    4.5303    0.9814    0.0000 C   0  0  0  0  0  0  0  0  0  0  0  0
    2.3641   -0.2846    0.0000 C   0  0  0  0  0  0  0  0  0  0  0  0
    2.3641    0.5403    0.0000 C   0  0  0  0  0  0  0  0  0  0  0  0
    5.2777    0.5574    0.0000 C   0  0  0  0  0  0  0  0  0  0  0  0
    5.2777   -0.3018    0.0000 C   0  0  0  0  0  0  0  0  0  0  0  0
  1 10  1  0
  2  8  1  0
  3  7  1  0
  4  6  2  0
  4 13  1  0
  5  6  1  0
  5  8  1  0
  5  9  2  0
  6  7  1  0
  7 10  2  0
  8 11  2  0
  9 12  1  0
 10 11  1  0
 12 13  2  0
M  END
>  <DRUGBANK_ID>  (1) 
DB04815

>  <COMMON_NAME>  (1) 
Clioquinol

>  <CAS_NUMBER>  (1) 
130-26-7

>  <UNII>  (1) 
7BHQ856EJ5

>  <SYNONYMS>  (1) 
5-Chlor-7-jod-8-hydroxy-chinolin; 5-Chloro-7-iodo-8-hydroxyquinoline; 5-Chloro-7-iodo-8-quinolinol; 5-chloro-7-iodoquinolin-8-ol; 5-Chloro-8-hydroxy-7-iodoquinoline; 7-Iodo-5-chloro-8-hydroxyquinoline; 7-Iodo-5-chloroxine; Chloroiodoquin; Clioquinol; Clioquinolum; Iodochlorhydroxyquin; Iodochlorhydroxyquinoline; Iodochlorohydroxyquin; Iodochloroxyquinoline

$$$$
