
     RDKit          2D

 28 30  0  0  1  0  0  0  0  0999 V2000
    9.5655  -18.6756    0.0000 C   0  0  0  0  0  0  0  0  0  0  0  0
    9.5655  -17.8474    0.0000 C   0  0  0  0  0  0  0  0  0  0  0  0
   10.2695  -17.4333    0.0000 C   0  0  0  0  0  0  0  0  0  0  0  0
   11.0148  -17.8474    0.0000 C   0  0  0  0  0  0  0  0  0  0  0  0
   11.0148  -18.6756    0.0000 C   0  0  0  0  0  0  0  0  0  0  0  0
   10.2695  -19.0897    0.0000 C   0  0  0  0  0  0  0  0  0  0  0  0
   11.7188  -19.0897    0.0000 C   0  0  0  0  0  0  0  0  0  0  0  0
   12.4227  -18.6756    0.0000 C   0  0  0  0  0  0  0  0  0  0  0  0
   13.1268  -19.0897    0.0000 N   0  0  0  0  0  0  0  0  0  0  0  0
   13.8306  -18.6756    0.0000 C   0  0  0  0  0  0  0  0  0  0  0  0
   14.5346  -19.0897    0.0000 C   0  0  0  0  0  0  0  0  0  0  0  0
   15.2386  -18.6756    0.0000 C   0  0  0  0  0  0  0  0  0  0  0  0
   15.2386  -17.8474    0.0000 C   0  0  0  0  0  0  0  0  0  0  0  0
   15.9840  -17.4333    0.0000 C   0  0  0  0  0  0  0  0  0  0  0  0
   16.6879  -17.8474    0.0000 C   0  0  0  0  0  0  0  0  0  0  0  0
   16.6879  -18.6756    0.0000 C   0  0  0  0  0  0  0  0  0  0  0  0
   15.9840  -19.0897    0.0000 C   0  0  0  0  0  0  0  0  0  0  0  0
   17.3919  -17.4333    0.0000 N   0  0  0  0  0  0  0  0  0  0  0  0
   18.0958  -17.8474    0.0000 C   0  0  0  0  0  0  0  0  0  0  0  0
   18.0958  -18.6756    0.0000 O   0  0  0  0  0  0  0  0  0  0  0  0
   11.7188  -19.9178    0.0000 O   0  0  0  0  0  0  0  0  0  0  0  0
   18.8148  -17.4362    0.0000 C   0  0  0  0  0  0  0  0  0  0  0  0
   19.5177  -17.8461    0.0000 C   0  0  0  0  0  0  0  0  0  0  0  0
   19.7666  -18.6327    0.0000 C   0  0  0  0  0  0  0  0  0  0  0  0
   20.5946  -18.6395    0.0000 S   0  0  0  0  0  0  0  0  0  0  0  0
   20.8570  -17.8542    0.0000 C   0  0  0  0  0  0  0  0  0  0  0  0
   20.1911  -17.3620    0.0000 N   0  0  0  0  0  0  0  0  0  0  0  0
   21.6607  -17.6003    0.0000 N   0  0  0  0  0  0  0  0  0  0  0  0
  1  2  2  0
  1  6  1  0
  2  3  1  0
  3  4  2  0
  4  5  1  0
  5  6  2  0
  5  7  1  0
  7  8  1  0
  7 21  1  6
  8  9  1  0
  9 10  1  0
 10 11  1  0
 11 12  1  0
 12 13  2  0
 12 17  1  0
 13 14  1  0
 14 15  2  0
 15 16  1  0
 15 18  1  0
 16 17  2  0
 18 19  1  0
 19 20  2  0
 19 22  1  0
 22 23  1  0
 23 24  2  0
 23 27  1  0
 24 25  1  0
 25 26  1  0
 26 27  2  0
 26 28  1  0
M  END
>  <DRUGBANK_ID>  (1) 
DB08893

>  <SECONDARY_ACCESSION_NUMBERS>  (1) 
DB05702

>  <COMMON_NAME>  (1) 
Mirabegron

>  <CAS_NUMBER>  (1) 
223673-61-8

>  <UNII>  (1) 
MVR3JL3B2V

>  <SYNONYMS>  (1) 
Mirabegron

$$$$
