
     RDKit          2D

 10 10  0  0  0  0  0  0  0  0999 V2000
    0.3779    0.0014    0.0000 C   0  0  0  0  0  0  0  0  0  0  0  0
    1.0807    0.4067    0.0000 C   0  0  0  0  0  0  0  0  0  0  0  0
    0.3779   -0.8321    0.0000 C   0  0  0  0  0  0  0  0  0  0  0  0
   -0.3564    0.4181    0.0000 C   0  0  0  0  0  0  0  0  0  0  0  0
    1.7993    0.0014    0.0000 C   0  0  0  0  0  0  0  0  0  0  0  0
    1.0807   -1.2345    0.0000 C   0  0  0  0  0  0  0  0  0  0  0  0
   -1.0807   -0.0100    0.0000 O   0  0  0  0  0  0  0  0  0  0  0  0
    1.7993   -0.8321    0.0000 C   0  0  0  0  0  0  0  0  0  0  0  0
   -1.7993    0.4009    0.0000 C   0  0  0  0  0  0  0  0  0  0  0  0
   -1.7993    1.2345    0.0000 O   0  0  0  0  0  0  0  0  0  0  0  0
  1  2  2  0
  1  3  1  0
  1  4  1  0
  2  5  1  0
  3  6  2  0
  4  7  1  0
  5  8  2  0
  6  8  1  0
  7  9  1  0
  9 10  2  0
M  END
>  <DRUGBANK_ID>  (1) 
DB04569

>  <SECONDARY_ACCESSION_NUMBERS>  (1) 
EXPT02593

>  <COMMON_NAME>  (1) 
Benzyl formate

>  <CAS_NUMBER>  (1) 
104-57-4

>  <UNII>  (1) 
79GJF97O0Y

>  <SYNONYMS>  (1) 
Phenylmethyl formate

$$$$
