
     RDKit          2D

 11 11  0  0  1  0  0  0  0  0999 V2000
    0.0000    2.4750    0.0000 C   0  0  0  0  0  0  0  0  0  0  0  0
    0.7145    2.0625    0.0000 C   0  0  0  0  0  0  0  0  0  0  0  0
    1.4289    2.4750    0.0000 C   0  0  0  0  0  0  0  0  0  0  0  0
    0.7145    1.2375    0.0000 C   0  0  0  0  0  0  0  0  0  0  0  0
    1.4289    0.8250    0.0000 C   0  0  0  0  0  0  0  0  0  0  0  0
    1.4289   -0.0000    0.0000 C   0  0  0  0  0  0  0  0  0  0  0  0
    0.7145   -0.4125    0.0000 C   0  0  0  0  0  0  0  0  0  0  0  0
    0.7145   -1.2375    0.0000 C   0  0  0  0  0  0  0  0  0  0  0  0
    1.4289   -1.6500    0.0000 O   0  0  0  0  0  0  0  0  0  0  0  0
    0.0000    0.0000    0.0000 C   0  0  0  0  0  0  0  0  0  0  0  0
    0.0000    0.8250    0.0000 C   0  0  0  0  0  0  0  0  0  0  0  0
  1  2  1  0
  2  3  2  0
  4  2  1  1
  4  5  1  0
  4 11  1  0
  5  6  1  0
  6  7  1  0
  7  8  1  0
  7 10  2  0
  8  9  1  0
 10 11  1  0
M  END
>  <DRUGBANK_ID>  (1) 
DB15289

>  <COMMON_NAME>  (1) 
Perillyl alcohol

>  <CAS_NUMBER>  (1) 
18457-55-1

>  <UNII>  (1) 
3UL4QIY642

>  <SYNONYMS>  (1) 
(±)-1-CYCLOHEXENE-1-METHANOL, 4-(1-METHYLETHENYL)-; (±)-PERILLYL ALCOHOL; 1-CYCLOHEXENE-1-METHANOL, 4-(1-METHYLETHENYL)-; DIHYDROCUMINIC ALCOHOL; DIHYDROCUMINYL ALCOHOL; DL-PERILLYL ALCOHOL; HYDROCUMIN ALCOHOL; P-MENTHA-1,8-DIEN-7-OL; Perilla alcohol

$$$$
