
     RDKit          2D

  9  9  0  0  0  0  0  0  0  0999 V2000
    0.0157    1.7274    0.0000 N   0  0  0  0  0  0  0  0  0  0  0  0
    0.5678    1.1143    0.0000 C   0  0  0  0  0  0  0  0  0  0  0  0
    1.2352    0.6294    0.0000 C   0  0  0  0  0  0  0  0  0  0  0  0
    0.9803   -0.1553    0.0000 C   0  0  0  0  0  0  0  0  0  0  0  0
    0.1553   -0.1553    0.0000 C   0  0  0  0  0  0  0  0  0  0  0  0
   -0.0997    0.6294    0.0000 C   0  0  0  0  0  0  0  0  0  0  0  0
    1.1198    1.7274    0.0000 C   0  0  0  0  0  0  0  0  0  0  0  0
    0.8649    2.5120    0.0000 O   0  0  0  0  0  0  0  0  0  0  0  0
    1.9268    1.5559    0.0000 O   0  0  0  0  0  0  0  0  0  0  0  0
  1  2  1  0
  2  3  1  0
  2  6  1  0
  2  7  1  0
  3  4  1  0
  4  5  1  0
  5  6  1  0
  7  8  1  0
  7  9  2  0
M  END
>  <DRUGBANK_ID>  (1) 
DB04620

>  <COMMON_NAME>  (1) 
Cycloleucine

>  <CAS_NUMBER>  (1) 
52-52-8

>  <UNII>  (1) 
0TQU7668EI

>  <SYNONYMS>  (1) 
1-amino-1-cyclopentanecarboxylic acid; 1-aminocyclopentane-1-carboxylic acid; 1-aminocyclopentanecarboxylic acid; Cyclo-leucine; Cycloleucin

$$$$
