
     RDKit          2D

 27 30  0  0  1  0  0  0  0  0999 V2000
    3.6027   -3.6366    0.0000 C   0  0  0  0  0  0  0  0  0  0  0  0
    2.8882   -3.2241    0.0000 C   0  0  0  0  0  0  0  0  0  0  0  0
    2.1738   -3.6366    0.0000 O   0  0  0  0  0  0  0  0  0  0  0  0
    2.1738   -4.4616    0.0000 C   0  0  0  0  0  0  0  0  0  0  0  0
    2.8412   -4.9465    0.0000 N   0  0  0  0  0  0  0  0  0  0  0  0
    2.5863   -5.7311    0.0000 N   0  0  0  0  0  0  0  0  0  0  0  0
    1.7613   -5.7311    0.0000 C   0  0  0  0  0  0  0  0  0  0  0  0
    1.5063   -4.9465    0.0000 N   0  0  0  0  0  0  0  0  0  0  0  0
    0.7217   -4.6916    0.0000 C   0  0  0  0  0  0  0  0  0  0  0  0
    1.2763   -6.3986    0.0000 C   0  0  0  0  0  0  0  0  0  0  0  0
    1.6119   -7.1522    0.0000 C   0  0  0  0  0  0  0  0  0  0  0  0
    1.1270   -7.8197    0.0000 C   0  0  0  0  0  0  0  0  0  0  0  0
    0.3065   -7.7334    0.0000 N   0  0  0  0  0  0  0  0  0  0  0  0
   -0.0291   -6.9798    0.0000 C   0  0  0  0  0  0  0  0  0  0  0  0
    0.4559   -6.3123    0.0000 C   0  0  0  0  0  0  0  0  0  0  0  0
    2.8882   -2.3991    0.0000 C   0  0  0  0  0  0  0  0  0  0  0  0
    2.2208   -1.9141    0.0000 N   0  0  0  0  0  0  0  0  0  0  0  0
    2.4757   -1.1295    0.0000 O   0  0  0  0  0  0  0  0  0  0  0  0
    3.3007   -1.1295    0.0000 C   0  0  0  0  0  0  0  0  0  0  0  0
    3.5557   -1.9141    0.0000 C   0  0  0  0  0  0  0  0  0  0  0  0
    3.7857   -0.4621    0.0000 C   0  0  0  0  0  0  0  0  0  0  0  0
    3.4501    0.2916    0.0000 C   0  0  0  0  0  0  0  0  0  0  0  0
    3.9350    0.9590    0.0000 C   0  0  0  0  0  0  0  0  0  0  0  0
    3.5995    1.7127    0.0000 Cl  0  0  0  0  0  0  0  0  0  0  0  0
    4.7555    0.8728    0.0000 C   0  0  0  0  0  0  0  0  0  0  0  0
    5.0911    0.1191    0.0000 C   0  0  0  0  0  0  0  0  0  0  0  0
    4.6061   -0.5483    0.0000 C   0  0  0  0  0  0  0  0  0  0  0  0
  2  1  1  1
  2  3  1  0
  2 16  1  0
  3  4  1  0
  4  5  2  0
  4  8  1  0
  5  6  1  0
  6  7  2  0
  7  8  1  0
  7 10  1  0
  8  9  1  0
 10 11  2  0
 10 15  1  0
 11 12  1  0
 12 13  2  0
 13 14  1  0
 14 15  2  0
 16 17  2  0
 16 20  1  0
 17 18  1  0
 18 19  1  0
 19 20  2  0
 19 21  1  0
 21 22  2  0
 21 27  1  0
 22 23  1  0
 23 24  1  0
 23 25  2  0
 25 26  1  0
 26 27  2  0
M  END
>  <DRUGBANK_ID>  (1) 
DB17078

>  <COMMON_NAME>  (1) 
AZD2066

>  <CAS_NUMBER>  (1) 
934282-55-0

>  <UNII>  (1) 
MQ908Y1ZB2

>  <SYNONYMS>  (1) 
Pyridine, 4-(5-((1r)-1-(5-(3-chlorophenyl)-3-isoxazolyl)ethoxy)-4-methyl-4h-1,2,4-triazol-3-yl)-

$$$$
