
     RDKit          2D

 22 23  0  0  0  0  0  0  0  0999 V2000
    4.2717   -0.7282    0.0000 C   0  0  0  0  0  0  0  0  0  0  0  0
   -4.2717    0.0442    0.0000 C   0  0  0  0  0  0  0  0  0  0  0  0
   -3.5572    1.2817    0.0000 C   0  0  0  0  0  0  0  0  0  0  0  0
    1.7653    1.1867    0.0000 C   0  0  0  0  0  0  0  0  0  0  0  0
   -2.3477    1.7014    0.0000 C   0  0  0  0  0  0  0  0  0  0  0  0
   -1.0838    1.7014    0.0000 C   0  0  0  0  0  0  0  0  0  0  0  0
    3.4512   -0.8145    0.0000 C   0  0  0  0  0  0  0  0  0  0  0  0
    2.9663   -0.1470    0.0000 C   0  0  0  0  0  0  0  0  0  0  0  0
   -2.8427    0.0442    0.0000 C   0  0  0  0  0  0  0  0  0  0  0  0
    0.9263   -0.7762    0.0000 C   0  0  0  0  0  0  0  0  0  0  0  0
   -3.5572    0.4567    0.0000 C   0  0  0  0  0  0  0  0  0  0  0  0
    1.5937    0.3797    0.0000 C   0  0  0  0  0  0  0  0  0  0  0  0
    2.1458   -0.2333    0.0000 C   0  0  0  0  0  0  0  0  0  0  0  0
   -2.1282    0.4567    0.0000 C   0  0  0  0  0  0  0  0  0  0  0  0
    1.7333   -0.9478    0.0000 C   0  0  0  0  0  0  0  0  0  0  0  0
    0.8401    0.0442    0.0000 C   0  0  0  0  0  0  0  0  0  0  0  0
   -1.3032    0.4567    0.0000 C   0  0  0  0  0  0  0  0  0  0  0  0
   -0.5888    0.0442    0.0000 C   0  0  0  0  0  0  0  0  0  0  0  0
   -1.7157    1.1711    0.0000 C   0  0  0  0  0  0  0  0  0  0  0  0
    2.0688   -1.7014    0.0000 O   0  0  0  0  0  0  0  0  0  0  0  0
   -0.5888   -0.7807    0.0000 O   0  0  0  0  0  0  0  0  0  0  0  0
    0.1256    0.4567    0.0000 O   0  0  0  0  0  0  0  0  0  0  0  0
  7  1  2  0
  8  7  1  0
 11  2  1  0
 11  3  1  0
 11  9  2  3
 12  4  1  0
 13  8  1  0
 13 12  2  0
 14  9  1  0
 15 10  1  0
 15 13  1  0
 16 10  1  0
 16 12  1  0
 17 14  1  0
 18 17  1  0
 19  5  1  0
 19  6  1  0
 19 14  1  0
 19 17  1  0
 20 15  2  0
 21 18  2  0
 22 16  1  0
 22 18  1  0
M  END
>  <DRUGBANK_ID>  (1) 
DB13746

>  <COMMON_NAME>  (1) 
Bioallethrin

>  <CAS_NUMBER>  (1) 
584-79-2

>  <UNII>  (1) 
0X03II877M

>  <SYNONYMS>  (1) 
Depall√©thrine

$$$$
