7NH
     RDKit          2D

 27 30  0  0  0  0  0  0  0  0999 V2000
    3.7971   -1.0726    0.0000 N   0  0  0  0  0  0  0  0  0  0  0  0
    3.7971   -1.8976    0.0000 C   0  0  0  0  0  0  0  0  0  0  0  0
    3.0826   -2.3101    0.0000 C   0  0  0  0  0  0  0  0  0  0  0  0
    2.3682   -1.8976    0.0000 C   0  0  0  0  0  0  0  0  0  0  0  0
    2.3682   -1.0726    0.0000 C   0  0  0  0  0  0  0  0  0  0  0  0
    3.0826   -0.6601    0.0000 C   0  0  0  0  0  0  0  0  0  0  0  0
    1.5836   -2.1525    0.0000 N   0  0  0  0  0  0  0  0  0  0  0  0
    1.5836   -0.8176    0.0000 C   0  0  0  0  0  0  0  0  0  0  0  0
    1.0986   -1.4851    0.0000 C   0  0  0  0  0  0  0  0  0  0  0  0
    0.2736   -1.4851    0.0000 C   0  0  0  0  0  0  0  0  0  0  0  0
   -0.1389   -2.1995    0.0000 C   0  0  0  0  0  0  0  0  0  0  0  0
   -0.9639   -2.1995    0.0000 C   0  0  0  0  0  0  0  0  0  0  0  0
   -1.3764   -1.4851    0.0000 C   0  0  0  0  0  0  0  0  0  0  0  0
   -0.9639   -0.7706    0.0000 C   0  0  0  0  0  0  0  0  0  0  0  0
   -0.1389   -0.7706    0.0000 C   0  0  0  0  0  0  0  0  0  0  0  0
    0.2736   -0.0561    0.0000 O   0  0  0  0  0  0  0  0  0  0  0  0
   -1.3764   -0.0561    0.0000 C   0  0  0  0  0  0  0  0  0  0  0  0
   -2.2014   -0.0561    0.0000 C   0  0  0  0  0  0  0  0  0  0  0  0
   -2.6139    0.6583    0.0000 C   0  0  0  0  0  0  0  0  0  0  0  0
   -2.2014    1.3728    0.0000 C   0  0  0  0  0  0  0  0  0  0  0  0
   -1.3764    1.3728    0.0000 C   0  0  0  0  0  0  0  0  0  0  0  0
   -0.9639    0.6583    0.0000 C   0  0  0  0  0  0  0  0  0  0  0  0
   -0.9639    2.0873    0.0000 C   0  0  0  0  0  0  0  0  0  0  0  0
   -1.3764    2.8018    0.0000 N   0  0  0  0  0  0  0  0  0  0  0  0
   -0.9639    3.5162    0.0000 C   0  0  0  0  0  0  0  0  0  0  0  0
   -1.3764    4.2307    0.0000 O   0  0  0  0  0  0  0  0  0  0  0  0
   -0.1389    3.5162    0.0000 N   0  0  0  0  0  0  0  0  0  0  0  0
  1  2  2  0
  1  6  1  0
  2  3  1  0
  3  4  2  0
  4  5  1  0
  4  7  1  0
  5  6  2  0
  5  8  1  0
  7  9  1  0
  8  9  2  0
  9 10  1  0
 10 11  2  0
 10 15  1  0
 11 12  1  0
 12 13  2  0
 13 14  1  0
 14 15  2  0
 14 17  1  0
 15 16  1  0
 17 18  2  0
 17 22  1  0
 18 19  1  0
 19 20  2  0
 20 21  1  0
 21 22  2  0
 21 23  1  0
 23 24  1  0
 24 25  1  0
 25 26  2  0
 25 27  1  0
M  END
>  <DRUGBANK_ID>  (1) 
DB07247

>  <COMMON_NAME>  (1) 
[2'-HYDROXY-3'-(1H-PYRROLO[3,2-C]PYRIDIN-2-YL)-BIPHENYL-3-YLMETHYL]-UREA

$$$$
