PPB
     RDKit          2D

 32 34  0  0  0  0  0  0  0  0999 V2000
   -2.6196    0.9862    0.0000 C   0  0  0  0  0  0  0  0  0  0  0  0
   -3.3341    0.5737    0.0000 C   0  0  0  0  0  0  0  0  0  0  0  0
   -1.1907    0.9862    0.0000 N   0  0  0  0  0  0  0  0  0  0  0  0
   -1.9052   -0.2513    0.0000 B   0  0  0  0  0  0  0  0  0  0  0  0
   -1.9052    0.5737    0.0000 C   0  0  0  0  0  0  0  0  0  0  0  0
   -1.1907   -0.6638    0.0000 O   0  0  0  0  0  0  0  0  0  0  0  0
   -2.6196   -0.6638    0.0000 O   0  0  0  0  0  0  0  0  0  0  0  0
    0.9919    0.6507    0.0000 N   0  0  0  0  0  0  0  0  0  0  0  0
    0.2382    0.9862    0.0000 C   0  0  0  0  0  0  0  0  0  0  0  0
   -0.4762    0.5737    0.0000 C   0  0  0  0  0  0  0  0  0  0  0  0
   -0.4762   -0.2513    0.0000 O   0  0  0  0  0  0  0  0  0  0  0  0
    0.3245    1.8067    0.0000 C   0  0  0  0  0  0  0  0  0  0  0  0
    1.1314    1.9783    0.0000 C   0  0  0  0  0  0  0  0  0  0  0  0
    1.5439    1.2638    0.0000 C   0  0  0  0  0  0  0  0  0  0  0  0
    1.1634   -0.1563    0.0000 C   0  0  0  0  0  0  0  0  0  0  0  0
    0.5503   -0.7083    0.0000 O   0  0  0  0  0  0  0  0  0  0  0  0
    1.9481   -0.4112    0.0000 C   0  0  0  0  0  0  0  0  0  0  0  0
   -3.3341   -0.2513    0.0000 C   0  0  0  0  0  0  0  0  0  0  0  0
   -4.0486   -0.6638    0.0000 C   0  0  0  0  0  0  0  0  0  0  0  0
   -4.0486    0.9862    0.0000 C   0  0  0  0  0  0  0  0  0  0  0  0
   -4.7631    0.5737    0.0000 C   0  0  0  0  0  0  0  0  0  0  0  0
   -4.7631   -0.2513    0.0000 C   0  0  0  0  0  0  0  0  0  0  0  0
   -4.0486   -1.4888    0.0000 C   0  0  0  0  0  0  0  0  0  0  0  0
   -4.0486   -2.3138    0.0000 N   0  0  0  0  0  0  0  0  0  0  0  0
    2.1196   -1.2182    0.0000 C   0  0  0  0  0  0  0  0  0  0  0  0
    2.5612    0.1408    0.0000 N   0  0  0  0  0  0  0  0  0  0  0  0
    4.3019   -1.1760    0.0000 C   0  0  0  0  0  0  0  0  0  0  0  0
    4.4735   -1.9830    0.0000 C   0  0  0  0  0  0  0  0  0  0  0  0
    3.8604   -2.5350    0.0000 C   0  0  0  0  0  0  0  0  0  0  0  0
    3.0757   -2.2801    0.0000 C   0  0  0  0  0  0  0  0  0  0  0  0
    2.9042   -1.4731    0.0000 C   0  0  0  0  0  0  0  0  0  0  0  0
    3.5173   -0.9211    0.0000 C   0  0  0  0  0  0  0  0  0  0  0  0
  1  2  1  0
  5  1  1  6
  2 18  2  0
  2 20  1  0
  3  5  1  0
  3 10  1  0
  4  6  1  0
  4  7  1  0
  5  4  1  0
  8  9  1  0
  8 14  1  0
  8 15  1  0
  9 10  1  6
  9 12  1  0
 10 11  2  0
 12 13  1  0
 13 14  1  0
 15 16  2  0
 15 17  1  0
 17 25  1  0
 17 26  1  6
 18 19  1  0
 19 22  2  0
 19 23  1  0
 20 21  2  0
 21 22  1  0
 23 24  3  0
 25 31  1  0
 27 28  2  0
 27 32  1  0
 28 29  1  0
 29 30  2  0
 30 31  1  0
 31 32  2  0
M  END
>  <DRUGBANK_ID>  (1) 
DB08420

>  <COMMON_NAME>  (1) 
1-{[1-(2-AMINO-3-PHENYL-PROPIONYL)-PYRROLIDINE-2-CARBONYL]-AMINO}-2-(3-CYANO-PHENYL)-ETHANEBORONIC ACID

$$$$
