
     RDKit          2D

 41 45  0  0  0  0  0  0  0  0999 V2000
    3.0753    2.7910    0.0000 N   0  0  0  0  0  0  0  0  0  0  0  0
    3.0743    1.9653    0.0000 C   0  0  0  0  0  0  0  0  0  0  0  0
    3.7876    1.5533    0.0000 C   0  0  0  0  0  0  0  0  0  0  0  0
    4.5024    1.9658    0.0000 C   0  0  0  0  0  0  0  0  0  0  0  0
    4.4995    2.7946    0.0000 C   0  0  0  0  0  0  0  0  0  0  0  0
    3.7858    3.2028    0.0000 C   0  0  0  0  0  0  0  0  0  0  0  0
    2.3602    1.5519    0.0000 C   0  0  0  0  0  0  0  0  0  0  0  0
    2.3592    0.7264    0.0000 C   0  0  0  0  0  0  0  0  0  0  0  0
    3.0724    0.3144    0.0000 C   0  0  0  0  0  0  0  0  0  0  0  0
    3.7873    0.7268    0.0000 C   0  0  0  0  0  0  0  0  0  0  0  0
    3.0806   -0.5087    0.0000 N   0  0  0  0  0  0  0  0  0  0  0  0
    2.4087   -0.9944    0.0000 C   0  0  0  0  0  0  0  0  0  0  0  0
    2.6649   -1.7809    0.0000 C   0  0  0  0  0  0  0  0  0  0  0  0
    3.4923   -1.7809    0.0000 C   0  0  0  0  0  0  0  0  0  0  0  0
    3.7484   -0.9944    0.0000 N   0  0  0  0  0  0  0  0  0  0  0  0
   -0.4358   -1.0039    0.0000 C   0  0  0  0  0  0  0  0  0  0  0  0
    0.2751   -0.5924    0.0000 N   0  0  0  0  0  0  0  0  0  0  0  0
    0.9861   -0.9997    0.0000 C   0  0  0  0  0  0  0  0  0  0  0  0
    1.6970   -0.5882    0.0000 N   0  0  0  0  0  0  0  0  0  0  0  0
   -1.8598   -1.0075    0.0000 C   0  0  0  0  0  0  0  0  0  0  0  0
   -1.8610   -1.8332    0.0000 C   0  0  0  0  0  0  0  0  0  0  0  0
   -1.1478   -2.2452    0.0000 C   0  0  0  0  0  0  0  0  0  0  0  0
   -0.4329   -1.8327    0.0000 C   0  0  0  0  0  0  0  0  0  0  0  0
   -1.1496   -0.5956    0.0000 C   0  0  0  0  0  0  0  0  0  0  0  0
   -3.2808   -1.8410    0.0000 C   0  0  0  0  0  0  0  0  0  0  0  0
   -2.5699   -2.2485    0.0000 O   0  0  0  0  0  0  0  0  0  0  0  0
   -4.7078   -1.0159    0.0000 N   0  0  0  0  0  0  0  0  0  0  0  0
   -4.7089   -1.8415    0.0000 C   0  0  0  0  0  0  0  0  0  0  0  0
   -3.9957   -2.2534    0.0000 C   0  0  0  0  0  0  0  0  0  0  0  0
   -3.2836   -1.0123    0.0000 C   0  0  0  0  0  0  0  0  0  0  0  0
   -3.9975   -0.6041    0.0000 C   0  0  0  0  0  0  0  0  0  0  0  0
   -4.0038    0.2230    0.0000 C   0  0  0  0  0  0  0  0  0  0  0  0
   -3.2928    0.6387    0.0000 N   0  0  0  0  0  0  0  0  0  0  0  0
   -2.5819    0.2272    0.0000 C   0  0  0  0  0  0  0  0  0  0  0  0
   -4.7188    0.6346    0.0000 O   0  0  0  0  0  0  0  0  0  0  0  0
    0.2743   -2.2425    0.0000 F   0  0  0  0  0  0  0  0  0  0  0  0
    0.9812   -1.8225    0.0000 O   0  0  0  0  0  0  0  0  0  0  0  0
    3.8956   -2.4919    0.0000 C   0  0  0  0  0  0  0  0  0  0  0  0
    3.4798   -3.2028    0.0000 C   0  0  0  0  0  0  0  0  0  0  0  0
    4.7188   -2.4919    0.0000 C   0  0  0  0  0  0  0  0  0  0  0  0
    4.3031   -3.2028    0.0000 C   0  0  0  0  0  0  0  0  0  0  0  0
  1  2  2  0
  2  3  1  0
  2  7  1  0
  3  4  2  0
  4  5  1  0
  5  6  2  0
  6  1  1  0
  7  8  2  0
  8  9  1  0
  9 10  2  0
 10  3  1  0
 11 12  1  0
 11  9  1  0
 12 13  2  0
 13 14  1  0
 14 15  2  0
 14 38  1  0
 15 11  1  0
 16 17  1  0
 16 24  2  0
 17 18  1  0
 18 19  1  0
 18 37  2  0
 19 12  1  0
 20 21  2  0
 21 22  1  0
 22 23  2  0
 23 16  1  0
 23 36  1  0
 24 20  1  0
 25 26  1  0
 25 30  1  0
 26 21  1  0
 27 28  2  0
 28 29  1  0
 29 25  2  0
 30 31  2  0
 31 27  1  0
 31 32  1  0
 32 33  1  0
 32 35  2  0
 33 34  1  0
 38 39  1  0
 38 40  1  0
 38 41  1  0
M  END
>  <DRUGBANK_ID>  (1) 
DB13005

>  <COMMON_NAME>  (1) 
Rebastinib

>  <CAS_NUMBER>  (1) 
1020172-07-9

>  <UNII>  (1) 
75017Q6I97

>  <SYNONYMS>  (1) 
Rebastinib

$$$$
