
     RDKit          2D

 12 11  0  0  0  0  0  0  0  0999 V2000
   -0.7145   -0.8250    0.0000 C   0  0  0  0  0  0  0  0  0  0  0  0
    0.0000   -0.4124    0.0000 C   0  0  0  0  0  0  0  0  0  0  0  0
    0.7145   -0.8250    0.0000 C   0  0  0  0  0  0  0  0  0  0  0  0
   -1.4290   -0.4124    0.0000 C   0  0  0  0  0  0  0  0  0  0  0  0
   -1.4290    0.4125    0.0000 O   0  0  0  0  0  0  0  0  0  0  0  0
   -2.1436   -0.8250    0.0000 O   0  0  0  0  0  0  0  0  0  0  0  0
    0.0000    0.4125    0.0000 C   0  0  0  0  0  0  0  0  0  0  0  0
   -0.7146    0.8251    0.0000 O   0  0  0  0  0  0  0  0  0  0  0  0
    0.7145    0.8251    0.0000 O   0  0  0  0  0  0  0  0  0  0  0  0
    1.4290   -0.4124    0.0000 C   0  0  0  0  0  0  0  0  0  0  0  0
    1.4290    0.4125    0.0000 O   0  0  0  0  0  0  0  0  0  0  0  0
    2.1436   -0.8250    0.0000 O   0  0  0  0  0  0  0  0  0  0  0  0
  2  1  1  0
  3  2  1  0
  4  1  1  0
  5  4  2  0
  6  4  1  0
  7  2  1  0
  8  7  2  0
  9  7  1  0
 10  3  1  0
 11 10  2  0
 12 10  1  0
M  END
>  <DRUGBANK_ID>  (1) 
DB04562

>  <SECONDARY_ACCESSION_NUMBERS>  (1) 
EXPT03105

>  <COMMON_NAME>  (1) 
Tricarballylic acid

>  <CAS_NUMBER>  (1) 
99-14-9

>  <UNII>  (1) 
RA5QH2J020

>  <SYNONYMS>  (1) 
1,2,3-propanetricarboxylic acid; 3-carboxyglutaric acid; 3-carboxypentanedioic acid; Carballylic acid; Carboxymethylsuccinic acid; Î²-carboxyglutaric acid

$$$$
