
     RDKit          2D

 12 12  0  0  0  0  0  0  0  0999 V2000
    0.3574    0.4156    0.0000 C   0  0  0  0  0  0  0  0  0  0  0  0
   -0.3532    0.0000    0.0000 C   0  0  0  0  0  0  0  0  0  0  0  0
    1.0682    0.0041    0.0000 C   0  0  0  0  0  0  0  0  0  0  0  0
    1.0641   -0.8189    0.0000 N   0  0  0  0  0  0  0  0  0  0  0  0
    0.3532    1.2386    0.0000 O   0  0  0  0  0  0  0  0  0  0  0  0
   -0.3532   -0.8270    0.0000 C   0  0  0  0  0  0  0  0  0  0  0  0
   -1.0683    0.4115    0.0000 C   0  0  0  0  0  0  0  0  0  0  0  0
    1.7747   -1.2302    0.0000 C   0  0  0  0  0  0  0  0  0  0  0  0
    1.7789    0.4238    0.0000 C   0  0  0  0  0  0  0  0  0  0  0  0
   -1.0683   -1.2386    0.0000 C   0  0  0  0  0  0  0  0  0  0  0  0
   -1.7789    0.0000    0.0000 C   0  0  0  0  0  0  0  0  0  0  0  0
   -1.7789   -0.8270    0.0000 C   0  0  0  0  0  0  0  0  0  0  0  0
  1  5  1  6
  2  1  1  0
  3  1  1  0
  3  4  1  0
  6  2  2  0
  7  2  1  0
  8  4  1  0
  3  9  1  1
 10  6  1  0
 10 12  2  0
 11  7  2  0
 12 11  1  0
M  END
>  <DRUGBANK_ID>  (1) 
DB14752

>  <COMMON_NAME>  (1) 
Racephedrine

>  <CAS_NUMBER>  (1) 
90-81-3

>  <UNII>  (1) 
03VRY66076

>  <SYNONYMS>  (1) 
(+-)-Ephedrine; Ephedrine DL-form; Racephedrine

$$$$
