
     RDKit          2D

 37 43  0  0  1  0  0  0  0  0999 V2000
    1.5251   -2.3084    0.0000 N   0  0  0  0  0  0  0  0  0  0  0  0
    0.8106   -2.7209    0.0000 C   0  0  0  0  0  0  0  0  0  0  0  0
    0.8106   -3.5459    0.0000 N   0  0  0  0  0  0  0  0  0  0  0  0
    0.0962   -3.9584    0.0000 C   0  0  0  0  0  0  0  0  0  0  0  0
   -0.6183   -3.5459    0.0000 C   0  0  0  0  0  0  0  0  0  0  0  0
   -0.6183   -2.7209    0.0000 C   0  0  0  0  0  0  0  0  0  0  0  0
    0.0962   -2.3084    0.0000 C   0  0  0  0  0  0  0  0  0  0  0  0
    0.0962   -1.4834    0.0000 C   0  0  0  0  0  0  0  0  0  0  0  0
   -0.6183   -1.0709    0.0000 O   0  0  0  0  0  0  0  0  0  0  0  0
    0.8106   -1.0709    0.0000 N   0  0  0  0  0  0  0  0  0  0  0  0
    0.8106   -0.2459    0.0000 C   0  0  0  0  0  0  0  0  0  0  0  0
    0.0962    0.1666    0.0000 C   0  0  0  0  0  0  0  0  0  0  0  0
    0.0962    0.9916    0.0000 C   0  0  0  0  0  0  0  0  0  0  0  0
    0.8106    1.4041    0.0000 C   0  0  0  0  0  0  0  0  0  0  0  0
    0.8106    2.2291    0.0000 O   0  0  0  0  0  0  0  0  0  0  0  0
    1.5251    0.9916    0.0000 C   0  0  0  0  0  0  0  0  0  0  0  0
    1.5251    0.1666    0.0000 C   0  0  0  0  0  0  0  0  0  0  0  0
    0.9481    0.8541    0.0000 C   0  0  0  0  0  0  0  0  0  0  0  0
    0.9481    0.3041    0.0000 C   0  0  0  0  0  0  0  0  0  0  0  0
   -1.3328   -3.9584    0.0000 C   0  0  0  0  0  0  0  0  0  0  0  0
   -1.3328   -4.7834    0.0000 C   0  0  0  0  0  0  0  0  0  0  0  0
   -2.0473   -5.1959    0.0000 C   0  0  0  0  0  0  0  0  0  0  0  0
   -2.7617   -4.7834    0.0000 C   0  0  0  0  0  0  0  0  0  0  0  0
   -2.7617   -3.9584    0.0000 C   0  0  0  0  0  0  0  0  0  0  0  0
   -2.0473   -3.5459    0.0000 C   0  0  0  0  0  0  0  0  0  0  0  0
   -3.4762   -5.1959    0.0000 C   0  0  0  0  0  0  0  0  0  0  0  0
   -3.1406   -5.9496    0.0000 C   0  0  0  0  0  0  0  0  0  0  0  0
   -3.9611   -5.8634    0.0000 C   0  0  0  0  0  0  0  0  0  0  0  0
   -4.7457   -5.6084    0.0000 C   0  0  0  0  0  0  0  0  0  0  0  0
   -4.7457   -4.7834    0.0000 N   0  0  0  0  0  0  0  0  0  0  0  0
   -3.9611   -4.5285    0.0000 C   0  0  0  0  0  0  0  0  0  0  0  0
   -5.4132   -4.2985    0.0000 C   0  0  0  0  0  0  0  0  0  0  0  0
   -6.1669   -4.6341    0.0000 C   0  0  0  0  0  0  0  0  0  0  0  0
   -6.8343   -4.1492    0.0000 C   0  0  0  0  0  0  0  0  0  0  0  0
   -6.7481   -3.3287    0.0000 O   0  0  0  0  0  0  0  0  0  0  0  0
   -5.9944   -2.9931    0.0000 C   0  0  0  0  0  0  0  0  0  0  0  0
   -5.3269   -3.4780    0.0000 C   0  0  0  0  0  0  0  0  0  0  0  0
  1  2  1  0
  2  3  2  0
  2  7  1  0
  3  4  1  0
  4  5  2  0
  5  6  1  0
  5 20  1  0
  6  7  2  0
  7  8  1  0
  8  9  2  0
  8 10  1  0
 10 11  1  0
 11 12  1  0
 11 17  1  0
 11 19  1  0
 12 13  1  0
 13 14  1  0
 14 15  1  0
 14 16  1  0
 14 18  1  0
 16 17  1  0
 18 19  1  0
 20 21  2  0
 20 25  1  0
 21 22  1  0
 22 23  2  0
 23 24  1  0
 24 25  2  0
 26 23  1  1
 26 27  1  0
 26 28  1  0
 26 31  1  0
 28 27  1  6
 28 29  1  0
 29 30  1  0
 30 31  1  0
 30 32  1  0
 32 33  1  0
 32 37  1  0
 33 34  1  0
 34 35  1  0
 35 36  1  0
 36 37  1  0
M  END
>  <DRUGBANK_ID>  (1) 
DB18152

>  <COMMON_NAME>  (1) 
Zilurgisertib

>  <CAS_NUMBER>  (1) 
2173389-57-4

>  <UNII>  (1) 
L5Z9S25HO2

$$$$
