7I2
     RDKit          2D

 15 16  0  0  0  0  0  0  0  0999 V2000
   -0.6063   -0.5783    0.0000 N   0  0  0  0  0  0  0  0  0  0  0  0
   -1.0912    0.0891    0.0000 N   0  0  0  0  0  0  0  0  0  0  0  0
   -0.6063    0.7566    0.0000 C   0  0  0  0  0  0  0  0  0  0  0  0
    0.8928    0.9141    0.0000 C   0  0  0  0  0  0  0  0  0  0  0  0
    1.6073    0.5016    0.0000 C   0  0  0  0  0  0  0  0  0  0  0  0
    1.6073   -0.3234    0.0000 C   0  0  0  0  0  0  0  0  0  0  0  0
    0.8928   -0.7359    0.0000 C   0  0  0  0  0  0  0  0  0  0  0  0
    0.1783   -0.3234    0.0000 C   0  0  0  0  0  0  0  0  0  0  0  0
    0.1783    0.5016    0.0000 C   0  0  0  0  0  0  0  0  0  0  0  0
    0.8928   -1.5609    0.0000 N   0  0  0  0  0  0  0  0  0  0  0  0
    1.6073   -1.9734    0.0000 O   0  0  0  0  0  0  0  0  0  0  0  0
    0.1783   -1.9734    0.0000 O   0  0  0  0  0  0  0  0  0  0  0  0
   -1.9162    0.0891    0.0000 C   0  0  0  0  0  0  0  0  0  0  0  0
   -2.3287   -0.6253    0.0000 N   0  0  0  0  0  0  0  0  0  0  0  0
   -2.3287    0.8036    0.0000 N   0  0  0  0  0  0  0  0  0  0  0  0
  1  2  1  0
  1  8  2  0
  2  3  1  0
  2 13  1  0
  3  9  2  0
  4  5  2  0
  4  9  1  0
  5  6  1  0
  6  7  2  0
  7  8  1  0
  7 10  1  0
  8  9  1  0
 10 11  2  0
 10 12  1  0
 13 14  2  0
 13 15  1  0
M  CHG  2  10   1  12  -1
M  END
>  <DRUGBANK_ID>  (1) 
DB03065

>  <SECONDARY_ACCESSION_NUMBERS>  (1) 
EXPT00312

>  <COMMON_NAME>  (1) 
7-Nitroindazole-2-Carboxamidine

$$$$
