
     RDKit          2D

 29 24  0  0  0  0  0  0  0  0999 V2000
   -1.9041    0.0957    0.0000 C   0  0  0  0  0  0  0  0  0  0  0  0
   -2.2061   -1.0312    0.0000 C   0  0  0  0  0  0  0  0  0  0  0  0
   -1.9041    0.9207    0.0000 C   0  0  0  0  0  0  0  0  0  0  0  0
   -1.3811   -1.0312    0.0000 C   0  0  0  0  0  0  0  0  0  0  0  0
   -3.3331   -0.7292    0.0000 C   0  0  0  0  0  0  0  0  0  0  0  0
   -2.6186   -0.3167    0.0000 C   0  0  0  0  0  0  0  0  0  0  0  0
   -1.1897    1.3332    0.0000 O   0  0  0  0  0  0  0  0  0  0  0  0
   -2.6186    1.3332    0.0000 O   0  0  0  0  0  0  0  0  0  0  0  0
   -0.9686   -1.7457    0.0000 O   0  0  0  0  0  0  0  0  0  0  0  0
   -0.9686   -0.3167    0.0000 O   0  0  0  0  0  0  0  0  0  0  0  0
   -3.3331   -1.5542    0.0000 O   0  0  0  0  0  0  0  0  0  0  0  0
   -4.0475   -0.3167    0.0000 O   0  0  0  0  0  0  0  0  0  0  0  0
   -3.0311    0.3976    0.0000 O   0  0  0  0  0  0  0  0  0  0  0  0
    3.8265    0.2783    0.0000 C   0  0  0  0  0  0  0  0  0  0  0  0
    3.5245   -0.8485    0.0000 C   0  0  0  0  0  0  0  0  0  0  0  0
    3.8265    1.1033    0.0000 C   0  0  0  0  0  0  0  0  0  0  0  0
    4.3495   -0.8485    0.0000 C   0  0  0  0  0  0  0  0  0  0  0  0
    2.3975   -0.5466    0.0000 C   0  0  0  0  0  0  0  0  0  0  0  0
    3.1120   -0.1341    0.0000 C   0  0  0  0  0  0  0  0  0  0  0  0
    3.1120    1.5158    0.0000 O   0  0  0  0  0  0  0  0  0  0  0  0
    4.5410    1.5158    0.0000 O   0  0  0  0  0  0  0  0  0  0  0  0
    4.7620   -0.1341    0.0000 O   0  0  0  0  0  0  0  0  0  0  0  0
    4.7620   -1.5630    0.0000 O   0  0  0  0  0  0  0  0  0  0  0  0
    2.3975   -1.3716    0.0000 O   0  0  0  0  0  0  0  0  0  0  0  0
    1.6831   -0.1341    0.0000 O   0  0  0  0  0  0  0  0  0  0  0  0
    2.6995    0.5803    0.0000 O   0  0  0  0  0  0  0  0  0  0  0  0
   -3.3331    1.7457    0.0000 Mn  0  0  0  0  0 15  0  0  0  0  0  0
   -0.5561    0.3976    0.0000 Mn  0  0  0  0  0 15  0  0  0  0  0  0
   -4.7620    0.0957    0.0000 Mn  0  0  0  0  0 15  0  0  0  0  0  0
  3  1  1  0
  4  2  1  0
  6  1  1  0
  6  2  1  0
  6  5  1  0
  7  3  2  0
  8  3  1  0
  9  4  2  0
 10  4  1  0
 11  5  2  0
 12  5  1  0
 13  6  1  0
 16 14  1  0
 17 15  1  0
 19 14  1  0
 19 15  1  0
 19 18  1  0
 20 16  2  0
 21 16  1  0
 22 17  2  0
 23 17  1  0
 24 18  2  0
 25 18  1  0
 26 19  1  0
M  CHG  8   8  -1  10  -1  12  -1  21  -1  23  -1  25  -1  27   2  28   2
M  CHG  1  29   2
M  END
>  <DRUGBANK_ID>  (1) 
DB14495

>  <COMMON_NAME>  (1) 
Manganese citrate

>  <CAS_NUMBER>  (1) 
10060-26-1

>  <UNII>  (1) 
74NE0422XH

>  <SYNONYMS>  (1) 
Manganese citrate anhydrous; Trimanganese dicitrate

$$$$
