181
     RDKit          2D

 20 21  0  0  0  0  0  0  0  0999 V2000
   -4.2745   -0.9798    0.0000 O   0  0  0  0  0  0  0  0  0  0  0  0
   -3.5600   -0.5673    0.0000 C   0  0  0  0  0  0  0  0  0  0  0  0
   -2.8455   -0.9798    0.0000 C   0  0  0  0  0  0  0  0  0  0  0  0
   -2.1311   -0.5673    0.0000 O   0  0  0  0  0  0  0  0  0  0  0  0
   -1.4166   -0.9798    0.0000 C   0  0  0  0  0  0  0  0  0  0  0  0
   -0.7021   -0.5673    0.0000 N   0  0  0  0  0  0  0  0  0  0  0  0
   -0.7021    0.2577    0.0000 C   0  0  0  0  0  0  0  0  0  0  0  0
   -1.4166    0.6702    0.0000 O   0  0  0  0  0  0  0  0  0  0  0  0
    0.0123    0.6702    0.0000 N   0  0  0  0  0  0  0  0  0  0  0  0
    0.7268    0.2577    0.0000 C   0  0  0  0  0  0  0  0  0  0  0  0
    1.4413    0.6702    0.0000 O   0  0  0  0  0  0  0  0  0  0  0  0
    0.0123   -0.9798    0.0000 C   0  0  0  0  0  0  0  0  0  0  0  0
    0.7268   -0.5673    0.0000 C   0  0  0  0  0  0  0  0  0  0  0  0
    1.4413   -0.9798    0.0000 S   0  0  0  0  0  0  0  0  0  0  0  0
    2.1558   -0.5673    0.0000 C   0  0  0  0  0  0  0  0  0  0  0  0
    2.1558    0.2577    0.0000 C   0  0  0  0  0  0  0  0  0  0  0  0
    2.8702    0.6702    0.0000 C   0  0  0  0  0  0  0  0  0  0  0  0
    3.5847    0.2577    0.0000 C   0  0  0  0  0  0  0  0  0  0  0  0
    3.5847   -0.5673    0.0000 C   0  0  0  0  0  0  0  0  0  0  0  0
    2.8702   -0.9798    0.0000 C   0  0  0  0  0  0  0  0  0  0  0  0
  1  2  1  0
  2  3  1  0
  3  4  1  0
  4  5  1  0
  5  6  1  0
  6  7  1  0
  6 12  1  0
  7  8  2  0
  7  9  1  0
  9 10  1  0
 10 11  2  0
 10 13  1  0
 12 13  2  0
 13 14  1  0
 14 15  1  0
 15 16  2  0
 15 20  1  0
 16 17  1  0
 17 18  2  0
 18 19  1  0
 19 20  2  0
M  END
>  <DRUGBANK_ID>  (1) 
DB06872

>  <COMMON_NAME>  (1) 
1-((2-HYDROXYETHOXY)METHYL)-5-(PHENYLTHIO)PYRIMIDINE-2,4(1H,3H)-DIONE

$$$$
