LKM
     RDKit          2D

 34 36  0  0  0  0  0  0  0  0999 V2000
   -5.5660   -8.0493    0.0000 N   0  0  0  0  0  0  0  0  0  0  0  0
   -4.8515   -8.4618    0.0000 C   0  0  0  0  0  0  0  0  0  0  0  0
   -4.1370   -8.8743    0.0000 C   0  0  0  0  0  0  0  0  0  0  0  0
   -3.4225   -8.4618    0.0000 C   0  0  0  0  0  0  0  0  0  0  0  0
   -2.7081   -8.8743    0.0000 C   0  0  0  0  0  0  0  0  0  0  0  0
   -4.1370   -9.6993    0.0000 C   0  0  0  0  0  0  0  0  0  0  0  0
   -3.4225  -10.1118    0.0000 C   0  0  0  0  0  0  0  0  0  0  0  0
   -2.7081   -9.6993    0.0000 C   0  0  0  0  0  0  0  0  0  0  0  0
   -1.9936  -10.1118    0.0000 C   0  0  0  0  0  0  0  0  0  0  0  0
   -1.2791   -9.6993    0.0000 O   0  0  0  0  0  0  0  0  0  0  0  0
   -0.5647  -10.1118    0.0000 C   0  0  0  0  0  0  0  0  0  0  0  0
    0.1498   -9.6993    0.0000 C   0  0  0  0  0  0  0  0  0  0  0  0
    0.8643  -10.1118    0.0000 C   0  0  0  0  0  0  0  0  0  0  0  0
   -0.5647  -10.9368    0.0000 C   0  0  0  0  0  0  0  0  0  0  0  0
    0.1498  -11.3493    0.0000 C   0  0  0  0  0  0  0  0  0  0  0  0
    0.8643  -10.9368    0.0000 C   0  0  0  0  0  0  0  0  0  0  0  0
    1.5788  -11.3493    0.0000 C   0  0  0  0  0  0  0  0  0  0  0  0
    0.1498  -12.1743    0.0000 C   0  0  0  0  0  0  0  0  0  0  0  0
    0.8643  -12.5868    0.0000 C   0  0  0  0  0  0  0  0  0  0  0  0
    1.5788  -12.1743    0.0000 C   0  0  0  0  0  0  0  0  0  0  0  0
    2.2932  -12.5868    0.0000 S   0  0  0  0  0  0  0  0  0  0  0  0
    1.8807  -13.3013    0.0000 O   0  0  0  0  0  0  0  0  0  0  0  0
    2.7057  -11.8724    0.0000 O   0  0  0  0  0  0  0  0  0  0  0  0
    3.0077  -12.9993    0.0000 N   0  0  0  0  0  0  0  0  0  0  0  0
    3.7222  -12.5868    0.0000 C   0  0  0  0  0  0  0  0  0  0  0  0
    3.7222  -11.7618    0.0000 C   0  0  0  0  0  0  0  0  0  0  0  0
    4.4366  -11.3493    0.0000 O   0  0  0  0  0  0  0  0  0  0  0  0
    3.0077  -11.3493    0.0000 O   0  0  0  0  0  0  0  0  0  0  0  0
    4.4366  -12.9993    0.0000 C   0  0  0  0  0  0  0  0  0  0  0  0
    5.1511  -12.5868    0.0000 C   0  0  0  0  0  0  0  0  0  0  0  0
    5.8656  -12.9993    0.0000 C   0  0  0  0  0  0  0  0  0  0  0  0
    6.5800  -12.5868    0.0000 O   0  0  0  0  0  0  0  0  0  0  0  0
    5.8656  -13.8243    0.0000 O   0  0  0  0  0  0  0  0  0  0  0  0
   -3.4225  -10.9368    0.0000 F   0  0  0  0  0  0  0  0  0  0  0  0
  1  2  3  0
  2  3  1  0
  3  4  2  0
  3  6  1  0
  4  5  1  0
  5  8  2  0
  6  7  2  0
  7  8  1  0
  7 34  1  0
  8  9  1  0
  9 10  1  0
 10 11  1  0
 11 12  2  0
 11 14  1  0
 12 13  1  0
 13 16  2  0
 14 15  2  0
 15 16  1  0
 15 18  1  0
 16 17  1  0
 17 20  2  0
 18 19  2  0
 19 20  1  0
 20 21  1  0
 21 22  2  0
 21 23  2  0
 21 24  1  0
 25 24  1  0
 25 26  1  0
 25 29  1  1
 26 27  1  0
 26 28  2  0
 29 30  1  0
 30 31  1  0
 31 32  1  0
 31 33  2  0
M  END
>  <DRUGBANK_ID>  (1) 
DB08112

>  <COMMON_NAME>  (1) 
N-({6-[(4-CYANO-2-FLUOROBENZYL)OXY]NAPHTHALEN-2-YL}SULFONYL)-D-GLUTAMIC ACID

$$$$
