
     RDKit          2D

 36 38  0  0  0  0  0  0  0  0999 V2000
   -0.7144    2.0624    0.0000 O   0  0  0  0  0  0  0  0  0  0  0  0
    0.7144    2.0624    0.0000 C   0  0  0  0  0  0  0  0  0  0  0  0
    1.4289    2.4749    0.0000 C   0  0  0  0  0  0  0  0  0  0  0  0
    0.7144    1.2375    0.0000 O   0  0  0  0  0  0  0  0  0  0  0  0
    0.0000    2.4749    0.0000 C   0  0  0  0  0  0  0  0  0  0  0  0
    1.4289    3.2999    0.0000 C   0  0  0  0  0  0  0  0  0  0  0  0
    0.0000    3.2999    0.0000 C   0  0  0  0  0  0  0  0  0  0  0  0
    0.7144    3.7124    0.0000 O   0  0  0  0  0  0  0  0  0  0  0  0
    2.1433    3.7124    0.0000 O   0  0  0  0  0  0  0  0  0  0  0  0
   -0.7144    3.7124    0.0000 C   0  0  0  0  0  0  0  0  0  0  0  0
    2.1433    2.0624    0.0000 N   0  0  0  0  0  0  0  0  0  0  0  0
   -1.4289    0.0000    0.0000 C   0  0  0  0  0  0  0  0  0  0  0  0
   -0.7144   -0.4125    0.0000 C   0  0  0  0  0  0  0  0  0  0  0  0
    0.0000    0.8250    0.0000 C   0  0  0  0  0  0  0  0  0  0  0  0
   -0.7144    1.2374    0.0000 O   0  0  0  0  0  0  0  0  0  0  0  0
    0.0000    0.0000    0.0000 C   0  0  0  0  0  0  0  0  0  0  0  0
   -1.4289    0.8250    0.0000 C   0  0  0  0  0  0  0  0  0  0  0  0
    0.7144   -0.4125    0.0000 O   0  0  0  0  0  0  0  0  0  0  0  0
   -0.7144   -1.2374    0.0000 O   0  0  0  0  0  0  0  0  0  0  0  0
   -2.1433   -0.4125    0.0000 O   0  0  0  0  0  0  0  0  0  0  0  0
   -2.1433    1.2374    0.0000 C   0  0  0  0  0  0  0  0  0  0  0  0
    0.0000   -1.6500    0.0000 O   0  0  0  0  0  0  0  0  0  0  0  0
    0.0000   -2.4750    0.0000 C   0  0  0  0  0  0  0  0  0  0  0  0
    0.7144   -1.2375    0.0000 C   0  0  0  0  0  0  0  0  0  0  0  0
    1.4287   -1.6499    0.0000 C   0  0  0  0  0  0  0  0  0  0  0  0
    1.4287   -2.4749    0.0000 C   0  0  0  0  0  0  0  0  0  0  0  0
    0.7144   -2.8875    0.0000 C   0  0  0  0  0  0  0  0  0  0  0  0
    2.1432   -1.2375    0.0000 O   0  0  0  0  0  0  0  0  0  0  0  0
    2.1433   -2.8874    0.0000 O   0  0  0  0  0  0  0  0  0  0  0  0
    0.7144   -3.7124    0.0000 O   0  0  0  0  0  0  0  0  0  0  0  0
   -0.7146   -2.8875    0.0000 C   0  0  0  0  0  0  0  0  0  0  0  0
   -2.8579    0.8249    0.0000 O   0  0  0  0  0  0  0  0  0  0  0  0
   -1.4289    3.2999    0.0000 O   0  0  0  0  0  0  0  0  0  0  0  0
    2.1433    1.2374    0.0000 C   0  0  0  0  0  0  0  0  0  0  0  0
    2.8579    0.8249    0.0000 C   0  0  0  0  0  0  0  0  0  0  0  0
    1.4289    0.8249    0.0000 O   0  0  0  0  0  0  0  0  0  0  0  0
  2  3  1  0
  2  4  1  1
  2  5  1  0
  3  6  1  0
  3 11  1  6
  5  7  1  0
  5  1  1  6
  6  8  1  0
  6  9  1  1
  7 10  1  1
  7  8  1  0
 10 33  1  0
 11 34  1  0
 12 20  1  1
 13 12  1  0
 13 19  1  1
 14 15  1  0
 14 16  1  0
 14  4  1  1
 15 17  1  0
 16 13  1  0
 16 18  1  6
 17 12  1  0
 17 21  1  1
 21 32  1  0
 23 22  1  0
 23 31  1  6
 24 22  1  0
 24 25  1  0
 24 18  1  1
 25 28  1  1
 25 26  1  0
 26 29  1  6
 26 27  1  0
 27 23  1  0
 27 30  1  6
 34 35  1  0
 34 36  2  0
M  END
>  <DRUGBANK_ID>  (1) 
DB04679

>  <COMMON_NAME>  (1) 
Human blood group H type 1 trisaccharide

>  <SYNONYMS>  (1) 
alpha-L-Fucp-(1->2)-beta-D-Galp-(1->3)-beta-D-GlcpNAc; globo-H; H type I; H type I epitope; H type I trisaccharide; α-L-Fuc-(1→2)-β-D-Gal-(1→3)-β-D-GlcNAc; αLFuc(1-2)βDGal(1-3)βDGlcNAc

$$$$
