
     RDKit          2D

 14 13  0  0  1  0  0  0  0  0999 V2000
    1.0461    3.9039    0.0000 C   0  0  0  0  0  0  0  0  0  0  0  0
    1.0461    3.0789    0.0000 N   0  0  0  0  0  0  0  0  0  0  0  0
    0.3316    2.6664    0.0000 C   0  0  0  0  0  0  0  0  0  0  0  0
    1.7605    2.6664    0.0000 C   0  0  0  0  0  0  0  0  0  0  0  0
    2.4750    3.0789    0.0000 N   0  0  0  0  0  0  0  0  0  0  0  0
    1.7605    1.8414    0.0000 N   0  0  0  0  0  0  0  0  0  0  0  0
    2.4750    1.4289    0.0000 C   0  0  0  0  0  0  0  0  0  0  0  0
    3.1895    1.8414    0.0000 C   0  0  0  0  0  0  0  0  0  0  0  0
    3.9039    1.4289    0.0000 C   0  0  0  0  0  0  0  0  0  0  0  0
    4.6184    1.8414    0.0000 C   0  0  0  0  0  0  0  0  0  0  0  0
    4.6184    2.6664    0.0000 N   0  0  0  0  0  0  0  0  0  0  0  0
    5.3329    1.4289    0.0000 C   0  0  0  0  0  0  0  0  0  0  0  0
    6.0474    1.8414    0.0000 O   0  0  0  0  0  0  0  0  0  0  0  0
    5.3329    0.6039    0.0000 O   0  0  0  0  0  0  0  0  0  0  0  0
  1  2  1  0
  2  3  1  0
  2  4  1  0
  4  5  1  0
  4  6  2  0
  6  7  1  0
  7  8  1  0
  8  9  1  0
  9 10  1  0
 10 11  1  6
 10 12  1  0
 12 13  1  0
 12 14  2  0
M  END
>  <DRUGBANK_ID>  (1) 
DB01686

>  <SECONDARY_ACCESSION_NUMBERS>  (1) 
EXPT01101

>  <COMMON_NAME>  (1) 
N,N-dimethylarginine

>  <CAS_NUMBER>  (1) 
30315-93-6

>  <UNII>  (1) 
63CV1GEK3Y

>  <SYNONYMS>  (1) 
ADMA; Asymmetric dimethylarginine; dimethyl-L-arginine; guanidino-N,N-dimethylarginine; L-NG,NG-dimethylarginine; N(5)-((Dimethylamino)iminomethyl)-L-ornithine; N(G)-Dimethylarginine; N(G),N(G)-Dimethylarginine; N(G1),N(G1)-Dimethylarginine; NG,NG-Dimethyl-L-arginine

$$$$
