
     RDKit          2D

 34 39  0  0  0  0  0  0  0  0999 V2000
   -1.0653   15.1922    0.0000 C   0  0  0  0  0  0  0  0  0  0  0  0
   -0.5804   14.5248    0.0000 C   0  0  0  0  0  0  0  0  0  0  0  0
   -0.9160   13.7711    0.0000 C   0  0  0  0  0  0  0  0  0  0  0  0
   -1.7364   13.6849    0.0000 C   0  0  0  0  0  0  0  0  0  0  0  0
   -2.2214   14.3523    0.0000 C   0  0  0  0  0  0  0  0  0  0  0  0
   -1.8858   15.1060    0.0000 C   0  0  0  0  0  0  0  0  0  0  0  0
   -3.0060   14.0974    0.0000 C   0  0  0  0  0  0  0  0  0  0  0  0
   -3.0060   13.2724    0.0000 O   0  0  0  0  0  0  0  0  0  0  0  0
   -2.2214   13.0175    0.0000 C   0  0  0  0  0  0  0  0  0  0  0  0
   -1.4144   12.8459    0.0000 C   0  0  0  0  0  0  0  0  0  0  0  0
   -1.1595   12.0613    0.0000 C   0  0  0  0  0  0  0  0  0  0  0  0
   -1.7115   11.4482    0.0000 N   0  0  0  0  0  0  0  0  0  0  0  0
   -2.5185   11.6197    0.0000 C   0  0  0  0  0  0  0  0  0  0  0  0
   -2.7734   12.4044    0.0000 C   0  0  0  0  0  0  0  0  0  0  0  0
   -1.4566   10.6636    0.0000 C   0  0  0  0  0  0  0  0  0  0  0  0
   -2.0086   10.0505    0.0000 C   0  0  0  0  0  0  0  0  0  0  0  0
   -1.7536    9.2659    0.0000 C   0  0  0  0  0  0  0  0  0  0  0  0
   -2.3057    8.6528    0.0000 C   0  0  0  0  0  0  0  0  0  0  0  0
   -2.0507    7.8682    0.0000 C   0  0  0  0  0  0  0  0  0  0  0  0
   -2.5357    7.2007    0.0000 C   0  0  0  0  0  0  0  0  0  0  0  0
   -2.0507    6.5333    0.0000 N   0  0  0  0  0  0  0  0  0  0  0  0
   -1.2661    6.7882    0.0000 C   0  0  0  0  0  0  0  0  0  0  0  0
   -1.2661    7.6132    0.0000 C   0  0  0  0  0  0  0  0  0  0  0  0
   -0.5516    8.0257    0.0000 C   0  0  0  0  0  0  0  0  0  0  0  0
    0.1628    7.6132    0.0000 C   0  0  0  0  0  0  0  0  0  0  0  0
    0.1628    6.7882    0.0000 C   0  0  0  0  0  0  0  0  0  0  0  0
   -0.5516    6.3757    0.0000 C   0  0  0  0  0  0  0  0  0  0  0  0
   -2.3057    5.7487    0.0000 C   0  0  0  0  0  0  0  0  0  0  0  0
   -1.7536    5.1356    0.0000 C   0  0  0  0  0  0  0  0  0  0  0  0
   -2.0086    4.3509    0.0000 C   0  0  0  0  0  0  0  0  0  0  0  0
   -2.8156    4.1794    0.0000 C   0  0  0  0  0  0  0  0  0  0  0  0
   -3.3676    4.7925    0.0000 C   0  0  0  0  0  0  0  0  0  0  0  0
   -3.1126    5.5771    0.0000 C   0  0  0  0  0  0  0  0  0  0  0  0
   -3.0705    3.3948    0.0000 F   0  0  0  0  0  0  0  0  0  0  0  0
  1  2  2  0
  1  6  1  0
  2  3  1  0
  3  4  2  0
  4  5  1  0
  4  9  1  0
  5  6  2  0
  5  7  1  0
  7  8  1  0
  8  9  1  0
  9 10  1  0
  9 14  1  0
 10 11  1  0
 11 12  1  0
 12 13  1  0
 12 15  1  0
 13 14  1  0
 15 16  1  0
 16 17  1  0
 17 18  1  0
 18 19  1  0
 19 20  2  0
 19 23  1  0
 20 21  1  0
 21 22  1  0
 21 28  1  0
 22 23  2  0
 22 27  1  0
 23 24  1  0
 24 25  2  0
 25 26  1  0
 26 27  2  0
 28 29  2  0
 28 33  1  0
 29 30  1  0
 30 31  2  0
 31 32  1  0
 31 34  1  0
 32 33  2  0
M  END
>  <DRUGBANK_ID>  (1) 
DB06555

>  <COMMON_NAME>  (1) 
Siramesine

>  <CAS_NUMBER>  (1) 
147817-50-3

>  <UNII>  (1) 
3IX8CWR24V

>  <SYNONYMS>  (1) 
Siramesine

$$$$
