
     RDKit          2D

 10 10  0  0  0  0  0  0  0  0999 V2000
    1.9967    1.9393    0.0000 C   0  0  0  0  0  0  0  0  0  0  0  0
    1.9967    3.5893    0.0000 C   0  0  0  0  0  0  0  0  0  0  0  0
    0.1553   -0.1553    0.0000 C   0  0  0  0  0  0  0  0  0  0  0  0
    0.9803   -0.1553    0.0000 C   0  0  0  0  0  0  0  0  0  0  0  0
   -0.0997    0.6294    0.0000 C   0  0  0  0  0  0  0  0  0  0  0  0
    1.2352    0.6294    0.0000 C   0  0  0  0  0  0  0  0  0  0  0  0
    0.5678    1.9393    0.0000 C   0  0  0  0  0  0  0  0  0  0  0  0
    1.2822    2.3518    0.0000 C   0  0  0  0  0  0  0  0  0  0  0  0
    0.5678    1.1143    0.0000 C   0  0  0  0  0  0  0  0  0  0  0  0
    1.2822    3.1768    0.0000 N   0  0  0  0  0  0  0  0  0  0  0  0
  4  3  1  0
  5  3  1  0
  6  4  1  0
  8  1  1  0
  8  7  1  0
  9  5  1  0
  9  6  1  0
  9  7  1  0
 10  2  1  0
 10  8  1  0
M  END
>  <DRUGBANK_ID>  (1) 
DB08999

>  <COMMON_NAME>  (1) 
Cyclopentamine

>  <CAS_NUMBER>  (1) 
102-45-4

>  <UNII>  (1) 
WB9Q6M8O60

>  <SYNONYMS>  (1) 
Cyclopentamine

$$$$
