GAX
     RDKit          2D

 30 33  0  0  0  0  0  0  0  0999 V2000
    2.2763   -2.8094    0.0000 N   0  0  0  0  0  0  0  0  0  0  0  0
   -0.7826    2.6164    0.0000 N   0  0  0  0  0  0  0  0  0  0  0  0
   -1.1182    1.8627    0.0000 C   0  0  0  0  0  0  0  0  0  0  0  0
   -0.9320    4.0375    0.0000 N   0  0  0  0  0  0  0  0  0  0  0  0
   -1.1620    5.4896    0.0000 N   0  0  0  0  0  0  0  0  0  0  0  0
   -0.9688    0.4416    0.0000 C   0  0  0  0  0  0  0  0  0  0  0  0
    0.0010   -0.8933    0.0000 N   0  0  0  0  0  0  0  0  0  0  0  0
   -1.7893    0.3554    0.0000 C   0  0  0  0  0  0  0  0  0  0  0  0
   -2.2742    1.0228    0.0000 C   0  0  0  0  0  0  0  0  0  0  0  0
    0.1836    0.2591    0.0000 O   0  0  0  0  0  0  0  0  0  0  0  0
   -1.1513   -0.7108    0.0000 O   0  0  0  0  0  0  0  0  0  0  0  0
   -2.0880    3.1976    0.0000 O   0  0  0  0  0  0  0  0  0  0  0  0
   -1.2675    3.2838    0.0000 C   0  0  0  0  0  0  0  0  0  0  0  0
   -1.4169    4.7049    0.0000 C   0  0  0  0  0  0  0  0  0  0  0  0
   -1.8294    5.9745    0.0000 C   0  0  0  0  0  0  0  0  0  0  0  0
   -2.4968    5.4896    0.0000 C   0  0  0  0  0  0  0  0  0  0  0  0
   -2.2419    4.7049    0.0000 S   0  0  0  0  0  0  0  0  0  0  0  0
   -0.6332    1.1953    0.0000 C   0  0  0  0  0  0  0  0  0  0  0  0
   -1.9386    1.7765    0.0000 C   0  0  0  0  0  0  0  0  0  0  0  0
   -0.4839   -0.2258    0.0000 S   0  0  0  0  0  0  0  0  0  0  0  0
   -0.3345   -1.6469    0.0000 C   0  0  0  0  0  0  0  0  0  0  0  0
    0.1504   -2.3144    0.0000 C   0  0  0  0  0  0  0  0  0  0  0  0
    0.9709   -2.2282    0.0000 N   0  0  0  0  0  0  0  0  0  0  0  0
    1.3064   -1.4745    0.0000 C   0  0  0  0  0  0  0  0  0  0  0  0
    0.8215   -0.8070    0.0000 C   0  0  0  0  0  0  0  0  0  0  0  0
    1.4558   -2.8956    0.0000 C   0  0  0  0  0  0  0  0  0  0  0  0
    1.1203   -3.6493    0.0000 C   0  0  0  0  0  0  0  0  0  0  0  0
    1.6052   -4.3167    0.0000 C   0  0  0  0  0  0  0  0  0  0  0  0
    2.4257   -4.2305    0.0000 C   0  0  0  0  0  0  0  0  0  0  0  0
    2.7612   -3.4768    0.0000 C   0  0  0  0  0  0  0  0  0  0  0  0
  2  3  1  0
  3 18  2  0
  3 19  1  0
  4 13  1  0
  5 14  2  0
  6 20  1  0
  6  8  2  0
  7 25  1  0
  7 20  1  0
  9  8  1  0
 12 13  2  0
 13  2  1  0
 14  4  1  0
 15 16  2  0
 15  5  1  0
 16 17  1  0
 17 14  1  0
 18  6  1  0
 19  9  2  0
 20 11  2  0
 20 10  2  0
 21  7  1  0
 22 23  1  0
 22 21  1  0
 23 24  1  0
 24 25  1  0
 26  1  2  0
 26 23  1  0
 27 26  1  0
 28 29  1  0
 28 27  2  0
 29 30  2  0
 30  1  1  0
M  END
>  <DRUGBANK_ID>  (1) 
DB07817

>  <COMMON_NAME>  (1) 
1-{3-[(4-pyridin-2-ylpiperazin-1-yl)sulfonyl]phenyl}-3-(1,3-thiazol-2-yl)urea

$$$$
