CAX
     RDKit          2D

 13 13  0  0  0  0  0  0  0  0999 V2000
    2.0223    1.5951    0.0000 O   0  0  0  0  0  0  0  0  0  0  0  0
    1.2377    1.3401    0.0000 C   0  0  0  0  0  0  0  0  0  0  0  0
    0.6246    1.8922    0.0000 O   0  0  0  0  0  0  0  0  0  0  0  0
    1.0662    0.5332    0.0000 C   0  0  0  0  0  0  0  0  0  0  0  0
    0.2815    0.2782    0.0000 C   0  0  0  0  0  0  0  0  0  0  0  0
    0.0266   -0.5064    0.0000 C   0  0  0  0  0  0  0  0  0  0  0  0
    0.8336   -0.6779    0.0000 C   0  0  0  0  0  0  0  0  0  0  0  0
   -0.0596   -1.3269    0.0000 C   0  0  0  0  0  0  0  0  0  0  0  0
   -0.7984   -0.5064    0.0000 C   0  0  0  0  0  0  0  0  0  0  0  0
   -1.2833   -1.1738    0.0000 C   0  0  0  0  0  0  0  0  0  0  0  0
   -1.0533    0.2782    0.0000 C   0  0  0  0  0  0  0  0  0  0  0  0
   -1.8380    0.5332    0.0000 O   0  0  0  0  0  0  0  0  0  0  0  0
   -0.3859    0.7632    0.0000 C   0  0  0  0  0  0  0  0  0  0  0  0
  1  2  1  0
  2  3  1  0
  2  4  1  0
  5  4  1  1
  5  6  1  0
  5 13  1  0
  6  7  1  0
  6  8  1  0
  6  9  1  0
  9 10  1  6
  9 11  1  0
 11 12  2  0
 11 13  1  0
M  END
>  <DRUGBANK_ID>  (1) 
DB02906

>  <SECONDARY_ACCESSION_NUMBERS>  (1) 
EXPT00834

>  <COMMON_NAME>  (1) 
(2s,4s)-Alpha-Campholinic Acid

$$$$
