132
     RDKit          2D

 20 19  0  0  0  0  0  0  0  0999 V2000
    2.3645    3.2217    0.0000 O   0  0  0  0  0  0  0  0  0  0  0  0
    1.6500    1.9842    0.0000 O   0  0  0  0  0  0  0  0  0  0  0  0
    3.7935   -0.0784    0.0000 C   0  0  0  0  0  0  0  0  0  0  0  0
    4.5080   -0.4909    0.0000 C   0  0  0  0  0  0  0  0  0  0  0  0
    3.7935    0.7466    0.0000 C   0  0  0  0  0  0  0  0  0  0  0  0
    4.5080   -1.3159    0.0000 C   0  0  0  0  0  0  0  0  0  0  0  0
    3.0791    1.1592    0.0000 C   0  0  0  0  0  0  0  0  0  0  0  0
    5.2224   -1.7284    0.0000 C   0  0  0  0  0  0  0  0  0  0  0  0
    3.0791    1.9842    0.0000 C   0  0  0  0  0  0  0  0  0  0  0  0
    5.2224   -2.5534    0.0000 C   0  0  0  0  0  0  0  0  0  0  0  0
    2.3645    2.3967    0.0000 C   0  0  0  0  0  0  0  0  0  0  0  0
    5.9370   -2.9659    0.0000 C   0  0  0  0  0  0  0  0  0  0  0  0
    6.6515   -2.5534    0.0000 C   0  0  0  0  0  0  0  0  0  0  0  0
    7.3659   -2.9659    0.0000 C   0  0  0  0  0  0  0  0  0  0  0  0
    8.0804   -2.5534    0.0000 C   0  0  0  0  0  0  0  0  0  0  0  0
    8.0804   -1.7284    0.0000 C   0  0  0  0  0  0  0  0  0  0  0  0
    8.7949   -1.3159    0.0000 C   0  0  0  0  0  0  0  0  0  0  0  0
    8.7949   -0.4909    0.0000 C   0  0  0  0  0  0  0  0  0  0  0  0
    8.0804   -0.0784    0.0000 C   0  0  0  0  0  0  0  0  0  0  0  0
    8.0804    0.7466    0.0000 C   0  0  0  0  0  0  0  0  0  0  0  0
  1 11  1  0
  2 11  2  0
  3  4  1  0
  3  5  1  0
  4  6  1  0
  5  7  1  0
  6  8  1  0
  7  9  1  0
  8 10  1  0
  9 11  1  0
 10 12  2  0
 12 13  1  0
 13 14  1  0
 14 15  2  0
 15 16  1  0
 16 17  1  0
 17 18  2  0
 18 19  1  0
 19 20  1  0
M  END
>  <DRUGBANK_ID>  (1) 
DB00132

>  <SECONDARY_ACCESSION_NUMBERS>  (1) 
NUTR00034

>  <COMMON_NAME>  (1) 
alpha-Linolenic acid

>  <CAS_NUMBER>  (1) 
463-40-1

>  <UNII>  (1) 
0RBV727H71

>  <SYNONYMS>  (1) 
(9,12,15)-linolenic acid; (9Z,12Z,15Z)-Octadecatrienoic acid; (Z,Z,Z)-9,12,15-octadecatrienoic acid; 9-cis,12-cis,15-cis-octadecatrienoic acid; 9,12,15-Octadecatrienoic acid; ALA; all-cis-9,12,15-Octadecatrienoic acid; alpha-Linolenic acid; cis-delta(9,12,15)-Octadecatrienoic acid; cis,cis,cis-9,12,15-Octadecatrienoic acid; Linolenic acid; Î±-linolenic acid

$$$$
