
     RDKit          2D

 41 45  0  0  1  0  0  0  0  0999 V2000
   -0.5429    6.9945    0.0000 C   0  0  0  0  0  0  0  0  0  0  0  0
    0.2775    7.0807    0.0000 C   0  0  0  0  0  0  0  0  0  0  0  0
    0.6131    6.3270    0.0000 C   0  0  0  0  0  0  0  0  0  0  0  0
   -0.0000    5.7750    0.0000 C   0  0  0  0  0  0  0  0  0  0  0  0
   -0.0000    4.9500    0.0000 C   0  0  0  0  0  0  0  0  0  0  0  0
    0.7145    4.5375    0.0000 C   0  0  0  0  0  0  0  0  0  0  0  0
    1.4289    4.9500    0.0000 O   0  0  0  0  0  0  0  0  0  0  0  0
    0.7145    3.7125    0.0000 C   0  0  0  0  0  0  0  0  0  0  0  0
    0.0000    3.3000    0.0000 C   0  0  0  0  0  0  0  0  0  0  0  0
    0.0000    2.4750    0.0000 C   0  0  0  0  0  0  0  0  0  0  0  0
   -0.7145    2.0625    0.0000 C   0  0  0  0  0  0  0  0  0  0  0  0
   -1.4289    2.4750    0.0000 C   0  0  0  0  0  0  0  0  0  0  0  0
   -1.4289    3.3000    0.0000 C   0  0  0  0  0  0  0  0  0  0  0  0
   -0.7145    3.7125    0.0000 C   0  0  0  0  0  0  0  0  0  0  0  0
   -1.4289    4.1250    0.0000 C   0  0  0  0  0  0  0  0  0  0  0  0
   -0.7145    4.5375    0.0000 C   0  0  0  0  0  0  0  0  0  0  0  0
   -1.4289    4.9500    0.0000 C   0  0  0  0  0  0  0  0  0  0  0  0
   -1.4289    5.7750    0.0000 C   0  0  0  0  0  0  0  0  0  0  0  0
   -0.7145    6.1875    0.0000 C   0  0  0  0  0  0  0  0  0  0  0  0
   -1.3819    6.6724    0.0000 C   0  0  0  0  0  0  0  0  0  0  0  0
   -0.7145    1.2375    0.0000 N   0  0  0  0  0  0  0  0  0  0  0  0
    0.0000    0.8250    0.0000 C   0  0  0  0  0  0  0  0  0  0  0  0
    0.7145    1.2375    0.0000 C   0  0  0  0  0  0  0  0  0  0  0  0
    1.4289    0.8250    0.0000 C   0  0  0  0  0  0  0  0  0  0  0  0
    2.1434    1.2375    0.0000 C   0  0  0  0  0  0  0  0  0  0  0  0
    2.8579    0.8250    0.0000 N   0  0  0  0  0  0  0  0  0  0  0  0
    3.5724    1.2375    0.0000 C   0  0  0  0  0  0  0  0  0  0  0  0
    4.2868    0.8250    0.0000 C   0  0  0  0  0  0  0  0  0  0  0  0
    5.0013    1.2375    0.0000 C   0  0  0  0  0  0  0  0  0  0  0  0
    5.7158    0.8250    0.0000 C   0  0  0  0  0  0  0  0  0  0  0  0
    5.7158    0.0000    0.0000 C   0  0  0  0  0  0  0  0  0  0  0  0
    5.0013   -0.4125    0.0000 C   0  0  0  0  0  0  0  0  0  0  0  0
    4.2868    0.0000    0.0000 N   0  0  0  0  0  0  0  0  0  0  0  0
   -1.0950    7.6076    0.0000 C   0  0  0  0  0  0  0  0  0  0  0  0
   -0.8400    8.3922    0.0000 C   0  0  0  0  0  0  0  0  0  0  0  0
   -1.9019    7.4360    0.0000 C   0  0  0  0  0  0  0  0  0  0  0  0
   -2.4540    8.0491    0.0000 C   0  0  0  0  0  0  0  0  0  0  0  0
   -3.2610    7.8776    0.0000 C   0  0  0  0  0  0  0  0  0  0  0  0
   -3.5159    7.0930    0.0000 O   0  0  0  0  0  0  0  0  0  0  0  0
   -3.8130    8.4907    0.0000 O   0  0  0  0  0  0  0  0  0  0  0  0
   -4.6200    8.3192    0.0000 C   0  0  0  0  0  0  0  0  0  0  0  0
  1  2  1  1
  1 34  1  0
  2  3  1  0
  4  3  1  1
  4 19  1  0
  5  4  1  0
  5  6  1  6
  5 16  1  0
  6  7  1  6
  6  8  1  0
  9  8  1  1
  9 10  1  0
 11 10  1  0
 11 12  1  0
 11 21  1  1
 12 13  1  0
 14 13  1  0
 14  9  1  0
 14 15  1  1
 16 14  1  0
 16 17  1  1
 17 18  1  0
 19 18  1  0
 19  1  1  0
 19 20  1  1
 21 22  1  0
 22 23  1  0
 23 24  1  0
 24 25  1  0
 25 26  1  0
 26 27  1  0
 27 28  1  0
 28 29  2  0
 28 33  1  0
 29 30  1  0
 30 31  2  0
 31 32  1  0
 32 33  2  0
 34 35  1  1
 34 36  1  0
 36 37  1  0
 37 38  1  0
 38 39  2  0
 38 40  1  0
 40 41  1  0
M  END
>  <DRUGBANK_ID>  (1) 
DB18390

>  <COMMON_NAME>  (1) 
DPM-1001

>  <CAS_NUMBER>  (1) 
1471172-29-8

>  <UNII>  (1) 
4EA2U2RX2G

>  <SYNONYMS>  (1) 
Cholan-24-oic acid, 7-hydroxy-3-[[4-[(2-pyridinylmethyl)amino]butyl]amino]-, methyl ester, (3β,5α,7α)-; Methyl (3β,5α,7α)-7-hydroxy-3-[[4-[(2-pyridinylmethyl)amino]butyl]amino]cholan-24-oate; methyl (R)-4-((3S,5R,7R,8R,9S,10S,13R,14S,17R)-7-hydroxy-10,13-dimethyl-3-((4-((pyridin-2-ylmethyl)amino)butyl)amino)hexadecahydro-1H-cyclopenta[a]phenanthren-17-yl)pentanoate

$$$$
