
     RDKit          2D

 29 31  0  0  0  0  0  0  0  0999 V2000
   -1.7861    0.4125    0.0000 O   0  0  0  0  0  0  0  0  0  0  0  0
    0.3572    0.8250    0.0000 O   0  0  0  0  0  0  0  0  0  0  0  0
   -1.0716   -0.8250    0.0000 O   0  0  0  0  0  0  0  0  0  0  0  0
    1.7862    0.8250    0.0000 O   0  0  0  0  0  0  0  0  0  0  0  0
   -0.3572    2.0625    0.0000 N   0  0  0  0  0  0  0  0  0  0  0  0
   -2.5007   -0.8250    0.0000 N   0  0  0  0  0  0  0  0  0  0  0  0
    1.0717   -0.4125    0.0000 N   0  0  0  0  0  0  0  0  0  0  0  0
   -0.3572    2.8875    0.0000 C   0  0  0  0  0  0  0  0  0  0  0  0
    0.3572    1.6500    0.0000 C   0  0  0  0  0  0  0  0  0  0  0  0
    0.3572    3.3000    0.0000 C   0  0  0  0  0  0  0  0  0  0  0  0
    1.0717    2.0625    0.0000 C   0  0  0  0  0  0  0  0  0  0  0  0
    1.0717    2.8875    0.0000 C   0  0  0  0  0  0  0  0  0  0  0  0
   -1.0716    1.6500    0.0000 C   0  0  0  0  0  0  0  0  0  0  0  0
   -1.0716    0.8250    0.0000 C   0  0  0  0  0  0  0  0  0  0  0  0
   -0.3572    0.4125    0.0000 C   0  0  0  0  0  0  0  0  0  0  0  0
   -1.7861   -0.4125    0.0000 C   0  0  0  0  0  0  0  0  0  0  0  0
    1.0717    0.4125    0.0000 C   0  0  0  0  0  0  0  0  0  0  0  0
   -2.5007   -1.6500    0.0000 C   0  0  0  0  0  0  0  0  0  0  0  0
    1.7862   -0.8250    0.0000 C   0  0  0  0  0  0  0  0  0  0  0  0
   -1.7861   -2.0625    0.0000 C   0  0  0  0  0  0  0  0  0  0  0  0
   -3.2151   -2.0625    0.0000 C   0  0  0  0  0  0  0  0  0  0  0  0
    1.7862   -1.6500    0.0000 C   0  0  0  0  0  0  0  0  0  0  0  0
    2.5007   -0.4125    0.0000 C   0  0  0  0  0  0  0  0  0  0  0  0
   -1.7861   -2.8875    0.0000 C   0  0  0  0  0  0  0  0  0  0  0  0
   -3.2151   -2.8875    0.0000 C   0  0  0  0  0  0  0  0  0  0  0  0
   -2.5007   -3.3000    0.0000 C   0  0  0  0  0  0  0  0  0  0  0  0
    2.5007   -2.0625    0.0000 C   0  0  0  0  0  0  0  0  0  0  0  0
    3.2151   -0.8250    0.0000 C   0  0  0  0  0  0  0  0  0  0  0  0
    3.2151   -1.6500    0.0000 C   0  0  0  0  0  0  0  0  0  0  0  0
  1 14  1  0
  1 16  1  0
  2 15  1  0
  2 17  1  0
  3 16  2  0
  4 17  2  0
  5  8  1  0
  5  9  1  0
  5 13  1  0
  6 16  1  0
  6 18  1  0
  7 17  1  0
  7 19  1  0
  8 10  1  0
  9 11  1  0
 10 12  1  0
 11 12  1  0
 13 14  1  0
 14 15  1  0
 18 20  2  0
 18 21  1  0
 19 22  2  0
 19 23  1  0
 20 24  1  0
 21 25  2  0
 22 27  1  0
 23 28  2  0
 24 26  2  0
 25 26  1  0
 27 29  2  0
 28 29  1  0
M  END
>  <DRUGBANK_ID>  (1) 
DB11513

>  <COMMON_NAME>  (1) 
Diperodon

>  <CAS_NUMBER>  (1) 
101-08-6

>  <UNII>  (1) 
UIN4PYP84R

>  <SYNONYMS>  (1) 
Diperodón; Diperodon; Dipérodon; Diperodonum

$$$$
