
     RDKit          2D

 18 20  0  0  0  0  0  0  0  0999 V2000
   -0.1712    1.5229    0.0000 C   0  0  0  0  0  0  0  0  0  0  0  0
    3.3523    1.1104    0.0000 C   0  0  0  0  0  0  0  0  0  0  0  0
    3.3523    1.9354    0.0000 C   0  0  0  0  0  0  0  0  0  0  0  0
    2.6378    0.6979    0.0000 C   0  0  0  0  0  0  0  0  0  0  0  0
    2.6378    2.3479    0.0000 C   0  0  0  0  0  0  0  0  0  0  0  0
   -0.1781    3.9312    0.0000 C   0  0  0  0  0  0  0  0  0  0  0  0
   -0.4752    2.5334    0.0000 C   0  0  0  0  0  0  0  0  0  0  0  0
   -0.9851    4.1027    0.0000 C   0  0  0  0  0  0  0  0  0  0  0  0
   -1.2822    2.7050    0.0000 C   0  0  0  0  0  0  0  0  0  0  0  0
    0.8838    2.9750    0.0000 C   0  0  0  0  0  0  0  0  0  0  0  0
    0.6538    1.5229    0.0000 C   0  0  0  0  0  0  0  0  0  0  0  0
    0.0768    3.1465    0.0000 C   0  0  0  0  0  0  0  0  0  0  0  0
   -1.5371    3.4896    0.0000 C   0  0  0  0  0  0  0  0  0  0  0  0
    1.9233    1.1104    0.0000 C   0  0  0  0  0  0  0  0  0  0  0  0
    1.9233    1.9354    0.0000 C   0  0  0  0  0  0  0  0  0  0  0  0
   -2.3441    3.6611    0.0000 Cl  0  0  0  0  0  0  0  0  0  0  0  0
    1.1387    0.8555    0.0000 N   0  0  0  0  0  0  0  0  0  0  0  0
    1.1387    2.1904    0.0000 N   0  0  0  0  0  0  0  0  0  0  0  0
  3  2  2  0
  4  2  1  0
  5  3  1  0
  8  6  2  0
  9  7  1  0
 11  1  1  0
 12  6  1  0
 12  7  2  0
 12 10  1  0
 13  8  1  0
 13  9  2  0
 14  4  2  0
 15  5  2  0
 15 14  1  0
 16 13  1  0
 17 11  2  0
 17 14  1  0
 18 10  1  0
 18 11  1  0
 18 15  1  0
M  END
>  <DRUGBANK_ID>  (1) 
DB13611

>  <COMMON_NAME>  (1) 
Chlormidazole

>  <CAS_NUMBER>  (1) 
3689-76-7

>  <UNII>  (1) 
8IKK64FJVX

>  <SYNONYMS>  (1) 
Chlormidazole

$$$$
