
     RDKit          2D

 22 23  0  0  0  0  0  0  0  0999 V2000
    0.8212    5.1777    0.0000 C   0  0  0  0  0  0  0  0  0  0  0  0
    0.1067    4.7652    0.0000 C   0  0  0  0  0  0  0  0  0  0  0  0
   -0.3058    5.4797    0.0000 C   0  0  0  0  0  0  0  0  0  0  0  0
    0.5192    4.0507    0.0000 C   0  0  0  0  0  0  0  0  0  0  0  0
   -0.6078    4.3527    0.0000 C   0  0  0  0  0  0  0  0  0  0  0  0
   -0.6078    3.5277    0.0000 C   0  0  0  0  0  0  0  0  0  0  0  0
   -1.3222    3.1152    0.0000 C   0  0  0  0  0  0  0  0  0  0  0  0
   -2.0367    3.5277    0.0000 C   0  0  0  0  0  0  0  0  0  0  0  0
   -2.0367    4.3527    0.0000 C   0  0  0  0  0  0  0  0  0  0  0  0
   -1.3222    4.7652    0.0000 C   0  0  0  0  0  0  0  0  0  0  0  0
   -1.3222    5.5902    0.0000 O   0  0  0  0  0  0  0  0  0  0  0  0
   -2.7512    4.7652    0.0000 C   0  0  0  0  0  0  0  0  0  0  0  0
   -3.4656    5.1777    0.0000 C   0  0  0  0  0  0  0  0  0  0  0  0
   -2.3387    5.4797    0.0000 C   0  0  0  0  0  0  0  0  0  0  0  0
   -3.1637    4.0507    0.0000 C   0  0  0  0  0  0  0  0  0  0  0  0
   -1.3222    2.2902    0.0000 C   0  0  0  0  0  0  0  0  0  0  0  0
   -0.6548    1.8053    0.0000 C   0  0  0  0  0  0  0  0  0  0  0  0
   -0.9097    1.0206    0.0000 S   0  0  0  0  0  0  0  0  0  0  0  0
   -1.7347    1.0206    0.0000 C   0  0  0  0  0  0  0  0  0  0  0  0
   -2.2197    0.3532    0.0000 C   0  0  0  0  0  0  0  0  0  0  0  0
   -1.8841   -0.4005    0.0000 N   0  0  0  0  0  0  0  0  0  0  0  0
   -1.9897    1.8053    0.0000 N   0  0  0  0  0  0  0  0  0  0  0  0
  1  2  1  0
  2  3  1  0
  2  4  1  0
  2  5  1  0
  5  6  2  0
  5 10  1  0
  6  7  1  0
  7  8  2  0
  7 16  1  0
  8  9  1  0
  9 10  2  0
  9 12  1  0
 10 11  1  0
 12 13  1  0
 12 14  1  0
 12 15  1  0
 16 17  2  0
 16 22  1  0
 17 18  1  0
 18 19  1  0
 19 20  1  0
 19 22  2  0
 20 21  1  0
M  END
>  <DRUGBANK_ID>  (1) 
DB16950

>  <COMMON_NAME>  (1) 
BN-82451

>  <CAS_NUMBER>  (1) 
335242-75-6

>  <UNII>  (1) 
531B661QBY

>  <SYNONYMS>  (1) 
4-(2-(aminomethyl)-1,3-thiazol-4-yl)-2,6-di(tert-butyl)phenol; Phenol, 4-(2-(aminomethyl)-4-thiazolyl)-2,6-bis(1,1-dimethylethyl)-

$$$$
