OA5
     RDKit          2D

 18 19  0  0  0  0  0  0  0  0999 V2000
   -3.9315   -0.2303    0.0000 N   0  0  0  0  0  0  0  0  0  0  0  0
   -3.2169    0.1822    0.0000 C   0  0  0  0  0  0  0  0  0  0  0  0
   -3.2169    1.0073    0.0000 N   0  0  0  0  0  0  0  0  0  0  0  0
   -2.5025    1.4198    0.0000 C   0  0  0  0  0  0  0  0  0  0  0  0
   -2.5025    2.2449    0.0000 N   0  0  0  0  0  0  0  0  0  0  0  0
   -1.7879    1.0073    0.0000 N   0  0  0  0  0  0  0  0  0  0  0  0
   -2.5025   -0.2303    0.0000 N   0  0  0  0  0  0  0  0  0  0  0  0
   -1.7879    0.1822    0.0000 C   0  0  0  0  0  0  0  0  0  0  0  0
   -1.0734   -0.2303    0.0000 O   0  0  0  0  0  0  0  0  0  0  0  0
   -0.3588    0.1822    0.0000 C   0  0  0  0  0  0  0  0  0  0  0  0
    0.3556   -0.2303    0.0000 C   0  0  0  0  0  0  0  0  0  0  0  0
    1.0702    0.1822    0.0000 O   0  0  0  0  0  0  0  0  0  0  0  0
    1.7847   -0.2303    0.0000 C   0  0  0  0  0  0  0  0  0  0  0  0
    2.4992    0.1822    0.0000 C   0  0  0  0  0  0  0  0  0  0  0  0
    3.2137   -0.2303    0.0000 C   0  0  0  0  0  0  0  0  0  0  0  0
    3.2137   -1.0554    0.0000 C   0  0  0  0  0  0  0  0  0  0  0  0
    2.4992   -1.4679    0.0000 C   0  0  0  0  0  0  0  0  0  0  0  0
    1.7847   -1.0554    0.0000 C   0  0  0  0  0  0  0  0  0  0  0  0
  1  2  1  0
  2  3  2  0
  2  7  1  0
  3  4  1  0
  4  5  1  0
  4  6  2  0
  6  8  1  0
  7  8  2  0
  8  9  1  0
  9 10  1  0
 10 11  1  0
 11 12  1  0
 12 13  1  0
 13 14  2  0
 13 18  1  0
 14 15  1  0
 15 16  2  0
 16 17  1  0
 17 18  2  0
M  END
>  <DRUGBANK_ID>  (1) 
DB08318

>  <COMMON_NAME>  (1) 
6-(2-phenoxyethoxy)-1,3,5-triazine-2,4-diamine

$$$$
