
     RDKit          2D

 14 15  0  0  0  0  0  0  0  0999 V2000
    4.2868    5.5286    0.0000 C   0  0  0  0  0  0  0  0  0  0  0  0
    3.5724    5.9411    0.0000 C   0  0  0  0  0  0  0  0  0  0  0  0
    4.2868    4.7036    0.0000 C   0  0  0  0  0  0  0  0  0  0  0  0
    1.7309    2.1965    0.0000 C   0  0  0  0  0  0  0  0  0  0  0  0
    2.5559    2.1965    0.0000 C   0  0  0  0  0  0  0  0  0  0  0  0
    2.8579    5.5286    0.0000 C   0  0  0  0  0  0  0  0  0  0  0  0
    3.5724    4.2911    0.0000 C   0  0  0  0  0  0  0  0  0  0  0  0
    2.8579    4.7036    0.0000 C   0  0  0  0  0  0  0  0  0  0  0  0
    2.1434    3.4661    0.0000 C   0  0  0  0  0  0  0  0  0  0  0  0
    2.1434    5.9411    0.0000 Br  0  0  0  0  0  0  0  0  0  0  0  0
    3.5724    3.4661    0.0000 F   0  0  0  0  0  0  0  0  0  0  0  0
    1.4760    2.9812    0.0000 N   0  0  0  0  0  0  0  0  0  0  0  0
    2.8109    2.9812    0.0000 N   0  0  0  0  0  0  0  0  0  0  0  0
    2.1434    4.2911    0.0000 N   0  0  0  0  0  0  0  0  0  0  0  0
  2  1  2  0
  3  1  1  0
  5  4  1  0
  6  2  1  0
  7  3  2  0
  8  6  2  0
  8  7  1  0
 10  6  1  0
 11  7  1  0
 12  4  1  0
 12  9  2  0
 13  5  1  0
 13  9  1  0
 14  8  1  0
 14  9  1  0
M  END
>  <DRUGBANK_ID>  (1) 
DB11543

>  <COMMON_NAME>  (1) 
Romifidine

>  <CAS_NUMBER>  (1) 
65896-16-4

>  <UNII>  (1) 
876351L05K

>  <SYNONYMS>  (1) 
Romifidine

$$$$
