
     RDKit          2D

 21 22  0  0  0  0  0  0  0  0999 V2000
   -0.9703    0.5203    0.0000 N   0  0  0  0  0  0  0  0  0  0  0  0
   -0.2557    0.9328    0.0000 C   0  0  0  0  0  0  0  0  0  0  0  0
   -1.6848    0.9328    0.0000 C   0  0  0  0  0  0  0  0  0  0  0  0
   -0.2557    1.7578    0.0000 N   0  0  0  0  0  0  0  0  0  0  0  0
   -0.9703    2.1703    0.0000 C   0  0  0  0  0  0  0  0  0  0  0  0
   -1.6848    1.7578    0.0000 C   0  0  0  0  0  0  0  0  0  0  0  0
   -0.9703   -0.3046    0.0000 C   0  0  0  0  0  0  0  0  0  0  0  0
   -1.6377   -0.7895    0.0000 O   0  0  0  0  0  0  0  0  0  0  0  0
   -0.3028   -0.7895    0.0000 C   0  0  0  0  0  0  0  0  0  0  0  0
   -1.3828   -1.5741    0.0000 C   0  0  0  0  0  0  0  0  0  0  0  0
   -0.5578   -1.5741    0.0000 C   0  0  0  0  0  0  0  0  0  0  0  0
    0.4388   -0.4271    0.0000 O   0  0  0  0  0  0  0  0  0  0  0  0
    0.4586    0.5203    0.0000 O   0  0  0  0  0  0  0  0  0  0  0  0
   -0.0728   -2.2416    0.0000 O   0  0  0  0  0  0  0  0  0  0  0  0
   -0.9703    2.9953    0.0000 N   0  0  0  0  0  0  0  0  0  0  0  0
   -1.8677   -2.2416    0.0000 C   0  0  0  0  0  0  0  0  0  0  0  0
   -1.5322   -2.9953    0.0000 O   0  0  0  0  0  0  0  0  0  0  0  0
    1.1533   -0.8396    0.0000 P   0  0  0  0  0  0  0  0  0  0  0  0
    1.8677   -0.4271    0.0000 O   0  0  0  0  0  0  0  0  0  0  0  0
    1.1533   -1.6646    0.0000 O   0  0  0  0  0  0  0  0  0  0  0  0
    1.3667   -0.0427    0.0000 O   0  0  0  0  0  0  0  0  0  0  0  0
  1  2  1  0
  1  3  1  0
  2 13  2  0
  2  4  1  0
  3  6  2  0
  4  5  2  0
  5 15  1  0
  6  5  1  0
  7  1  1  1
  7  8  1  0
  7  9  1  0
  8 10  1  0
  9 11  1  0
  9 12  1  6
 10 16  1  1
 10 11  1  0
 11 14  1  6
 12 18  1  0
 16 17  1  0
 18 19  1  0
 18 20  2  0
 18 21  1  0
M  END
>  <DRUGBANK_ID>  (1) 
DB03765

>  <SECONDARY_ACCESSION_NUMBERS>  (1) 
EXPT00808

>  <COMMON_NAME>  (1) 
2'-cytidylic acid

>  <CAS_NUMBER>  (1) 
85-94-9

>  <UNII>  (1) 
KBN4598ZJQ

>  <SYNONYMS>  (1) 
2'-CMP; 2'-cytidinephosphoric acid; Cytidine 2'-phosphate; Cytidine-2'-monophosphate; Cytidine, 2'-phosphate

$$$$
