
     RDKit          2D

  1  0  0  0  0  0  0  0  0  0999 V2000
    0.0000    0.0000    0.0000 Au  0  0  0  0  0 15  0  0  0  0  0  0
M  ISO  1   1 198
M  END
>  <DRUGBANK_ID>  (1) 
DB13427

>  <COMMON_NAME>  (1) 
Gold Au-198

>  <CAS_NUMBER>  (1) 
10043-49-9

>  <UNII>  (1) 
027828ZV5Q

>  <SYNONYMS>  (1) 
Aureotope; Gold (198 Au); Gold (198 Au) colloidal; Gold (198Au) colloidal; Gold Au 198; Gold-198; Gold, Au-198; Gold, radioactive, colloidal

$$$$
