NC3
     RDKit          2D

 14 14  0  0  0  0  0  0  0  0999 V2000
   -1.1332   -0.1463    0.0000 C   0  0  0  0  0  0  0  0  0  0  0  0
   -0.4187   -0.5588    0.0000 N   0  0  0  0  0  0  0  0  0  0  0  0
    0.2958   -0.1463    0.0000 C   0  0  0  0  0  0  0  0  0  0  0  0
    1.0102   -0.5588    0.0000 N   0  0  0  0  0  0  0  0  0  0  0  0
    1.7247   -0.1463    0.0000 C   0  0  0  0  0  0  0  0  0  0  0  0
    2.4392   -0.5588    0.0000 C   0  0  0  0  0  0  0  0  0  0  0  0
    3.1537   -0.1463    0.0000 O   0  0  0  0  0  0  0  0  0  0  0  0
    0.2958    0.6787    0.0000 O   0  0  0  0  0  0  0  0  0  0  0  0
    2.4392   -1.3838    0.0000 O   0  0  0  0  0  0  0  0  0  0  0  0
   -1.8476   -0.5588    0.0000 C   0  0  0  0  0  0  0  0  0  0  0  0
   -2.5621   -0.1463    0.0000 C   0  0  0  0  0  0  0  0  0  0  0  0
   -2.5621    0.6787    0.0000 C   0  0  0  0  0  0  0  0  0  0  0  0
   -1.8476    1.0912    0.0000 C   0  0  0  0  0  0  0  0  0  0  0  0
   -1.1332    0.6787    0.0000 C   0  0  0  0  0  0  0  0  0  0  0  0
  1  2  1  0
  1 10  1  0
  1 14  1  0
  2  3  1  0
  3  4  1  0
  3  8  2  0
  4  5  1  0
  5  6  1  0
  6  7  1  0
  6  9  2  0
 10 11  1  0
 11 12  1  0
 12 13  1  0
 13 14  1  0
M  END
>  <DRUGBANK_ID>  (1) 
DB08256

>  <COMMON_NAME>  (1) 
N-[(CYCLOHEXYLAMINO)CARBONYL]GLYCINE

$$$$
