
     RDKit          2D

 16 16  0  0  0  0  0  0  0  0999 V2000
   -1.4256    0.4190    0.0000 C   0  0  0  0  0  0  0  0  0  0  0  0
   -1.4256   -0.4085    0.0000 C   0  0  0  0  0  0  0  0  0  0  0  0
   -0.7119    0.8326    0.0000 C   0  0  0  0  0  0  0  0  0  0  0  0
   -2.1396    0.8258    0.0000 N   0  0  0  0  0  0  0  0  0  0  0  0
   -0.7119   -0.8223    0.0000 C   0  0  0  0  0  0  0  0  0  0  0  0
    0.0050    0.4190    0.0000 C   0  0  0  0  0  0  0  0  0  0  0  0
   -2.8532    0.4119    0.0000 C   0  0  0  0  0  0  0  0  0  0  0  0
    0.0016   -0.4119    0.0000 C   0  0  0  0  0  0  0  0  0  0  0  0
   -3.5635    0.8224    0.0000 C   0  0  0  0  0  0  0  0  0  0  0  0
   -2.8499   -0.4119    0.0000 O   0  0  0  0  0  0  0  0  0  0  0  0
    0.7153   -0.8258    0.0000 C   0  0  0  0  0  0  0  0  0  0  0  0
    1.4256   -0.4154    0.0000 N   0  0  0  0  0  0  0  0  0  0  0  0
    2.1395   -0.8291    0.0000 N   0  0  0  0  0  0  0  0  0  0  0  0
    2.8531   -0.4189    0.0000 C   0  0  0  0  0  0  0  0  0  0  0  0
    3.5635   -0.8326    0.0000 N   0  0  0  0  0  0  0  0  0  0  0  0
    2.8531    0.4051    0.0000 S   0  0  0  0  0  0  0  0  0  0  0  0
  1  2  2  0
  1  3  1  0
  1  4  1  0
  2  5  1  0
  3  6  2  0
  4  7  1  0
  5  8  2  0
  6  8  1  0
  7  9  1  0
  7 10  2  0
  8 11  1  0
 11 12  2  0
 12 13  1  0
 13 14  1  0
 14 15  1  0
 14 16  2  0
M  END
>  <DRUGBANK_ID>  (1) 
DB12829

>  <COMMON_NAME>  (1) 
Amithiozone

>  <CAS_NUMBER>  (1) 
104-06-3

>  <UNII>  (1) 
MMG78X7SSR

>  <SYNONYMS>  (1) 
Amithiozone; Thioacetazone; Thioac√©tazone; Thioacetazonum; Tioacetazona

$$$$
