
     RDKit          2D

 31 34  0  0  0  0  0  0  0  0999 V2000
    5.7805    7.4229    0.0000 C   0  0  0  0  0  0  0  0  0  0  0  0
    5.2956    6.7555    0.0000 C   0  0  0  0  0  0  0  0  0  0  0  0
    4.4751    6.8417    0.0000 C   0  0  0  0  0  0  0  0  0  0  0  0
    5.6311    6.0018    0.0000 O   0  0  0  0  0  0  0  0  0  0  0  0
    5.1462    5.3344    0.0000 C   0  0  0  0  0  0  0  0  0  0  0  0
    5.4818    4.5807    0.0000 C   0  0  0  0  0  0  0  0  0  0  0  0
    4.9968    3.9132    0.0000 C   0  0  0  0  0  0  0  0  0  0  0  0
    4.1764    3.9995    0.0000 C   0  0  0  0  0  0  0  0  0  0  0  0
    3.8408    4.7532    0.0000 C   0  0  0  0  0  0  0  0  0  0  0  0
    4.3257    5.4206    0.0000 N   0  0  0  0  0  0  0  0  0  0  0  0
    3.6914    3.3320    0.0000 C   0  0  0  0  0  0  0  0  0  0  0  0
    3.9464    2.5474    0.0000 N   0  0  0  0  0  0  0  0  0  0  0  0
    3.2789    2.0625    0.0000 C   0  0  0  0  0  0  0  0  0  0  0  0
    2.6115    2.5474    0.0000 N   0  0  0  0  0  0  0  0  0  0  0  0
    2.8664    3.3320    0.0000 O   0  0  0  0  0  0  0  0  0  0  0  0
    3.2789    1.2375    0.0000 C   0  0  0  0  0  0  0  0  0  0  0  0
    3.9934    0.8250    0.0000 C   0  0  0  0  0  0  0  0  0  0  0  0
    3.9934    0.0000    0.0000 C   0  0  0  0  0  0  0  0  0  0  0  0
    3.2789   -0.4125    0.0000 C   0  0  0  0  0  0  0  0  0  0  0  0
    2.5645    0.0000    0.0000 C   0  0  0  0  0  0  0  0  0  0  0  0
    2.5645    0.8250    0.0000 C   0  0  0  0  0  0  0  0  0  0  0  0
    1.7798    1.0799    0.0000 C   0  0  0  0  0  0  0  0  0  0  0  0
    1.2949    0.4125    0.0000 C   0  0  0  0  0  0  0  0  0  0  0  0
    1.7798   -0.2549    0.0000 N   0  0  0  0  0  0  0  0  0  0  0  0
    1.5249   -1.0396    0.0000 C   0  0  0  0  0  0  0  0  0  0  0  0
    0.7179   -1.2111    0.0000 C   0  0  0  0  0  0  0  0  0  0  0  0
    0.4630   -1.9957    0.0000 C   0  0  0  0  0  0  0  0  0  0  0  0
   -0.3440   -2.1672    0.0000 C   0  0  0  0  0  0  0  0  0  0  0  0
   -0.5989   -2.9519    0.0000 O   0  0  0  0  0  0  0  0  0  0  0  0
   -0.8960   -1.5541    0.0000 O   0  0  0  0  0  0  0  0  0  0  0  0
    6.3022    4.4945    0.0000 Cl  0  0  0  0  0  0  0  0  0  0  0  0
  1  2  1  0
  2  3  1  0
  2  4  1  0
  4  5  1  0
  5  6  2  0
  5 10  1  0
  6  7  1  0
  6 31  1  0
  7  8  2  0
  8  9  1  0
  8 11  1  0
  9 10  2  0
 11 12  2  0
 11 15  1  0
 12 13  1  0
 13 14  2  0
 13 16  1  0
 14 15  1  0
 16 17  2  0
 16 21  1  0
 17 18  1  0
 18 19  2  0
 19 20  1  0
 20 21  2  0
 20 24  1  0
 21 22  1  0
 22 23  2  0
 23 24  1  0
 24 25  1  0
 25 26  1  0
 26 27  1  0
 27 28  1  0
 28 29  2  0
 28 30  1  0
M  END
>  <DRUGBANK_ID>  (1) 
DB11987

>  <COMMON_NAME>  (1) 
GSK-2018682

>  <CAS_NUMBER>  (1) 
1034688-30-6

>  <UNII>  (1) 
NJL503AIJA

$$$$
