A46
     RDKit          2D

 23 25  0  0  0  0  0  0  0  0999 V2000
   -0.1192   -0.5015    0.0000 C   0  0  0  0  0  0  0  0  0  0  0  0
    0.7058   -0.5015    0.0000 N   0  0  0  0  0  0  0  0  0  0  0  0
    1.1183    0.2130    0.0000 C   0  0  0  0  0  0  0  0  0  0  0  0
    1.9433    0.2130    0.0000 C   0  0  0  0  0  0  0  0  0  0  0  0
    0.7058    0.9274    0.0000 O   0  0  0  0  0  0  0  0  0  0  0  0
    2.4282   -0.4545    0.0000 N   0  0  0  0  0  0  0  0  0  0  0  0
    2.4282    0.8804    0.0000 C   0  0  0  0  0  0  0  0  0  0  0  0
    3.2129   -0.1995    0.0000 C   0  0  0  0  0  0  0  0  0  0  0  0
    3.2129    0.6255    0.0000 C   0  0  0  0  0  0  0  0  0  0  0  0
    3.9273   -0.6120    0.0000 C   0  0  0  0  0  0  0  0  0  0  0  0
    3.9273    1.0380    0.0000 C   0  0  0  0  0  0  0  0  0  0  0  0
    4.6418   -0.1995    0.0000 C   0  0  0  0  0  0  0  0  0  0  0  0
    4.6418    0.6255    0.0000 C   0  0  0  0  0  0  0  0  0  0  0  0
    5.3563    1.0380    0.0000 Cl  0  0  0  0  0  0  0  0  0  0  0  0
   -0.5317   -1.2160    0.0000 C   0  0  0  0  0  0  0  0  0  0  0  0
   -1.3567   -1.2160    0.0000 C   0  0  0  0  0  0  0  0  0  0  0  0
   -1.7692   -0.5015    0.0000 C   0  0  0  0  0  0  0  0  0  0  0  0
   -1.3567    0.2130    0.0000 C   0  0  0  0  0  0  0  0  0  0  0  0
   -0.5317    0.2130    0.0000 C   0  0  0  0  0  0  0  0  0  0  0  0
   -2.5942   -0.5015    0.0000 C   0  0  0  0  0  0  0  0  0  0  0  0
   -3.0067    0.2130    0.0000 C   0  0  0  0  0  0  0  0  0  0  0  0
   -3.0067   -1.2160    0.0000 O   0  0  0  0  0  0  0  0  0  0  0  0
   -3.8317    0.2130    0.0000 O   0  0  0  0  0  0  0  0  0  0  0  0
  1 15  2  0
  1 19  1  0
  2  1  1  0
  3  5  2  0
  3  2  1  0
  4  3  1  0
  6  4  1  0
  7  4  2  0
  8  9  2  0
  8  6  1  0
  9  7  1  0
 10  8  1  0
 11  9  1  0
 12 13  1  0
 12 10  2  0
 13 11  2  0
 14 13  1  0
 15 16  1  0
 16 17  2  0
 17 20  1  0
 18 17  1  0
 19 18  2  0
 20 21  1  0
 20 22  1  1
 23 21  1  0
M  END
>  <DRUGBANK_ID>  (1) 
DB07315

>  <COMMON_NAME>  (1) 
5-chloro-N-{4-[(1R)-1,2-dihydroxyethyl]phenyl}-1H-indole-2-carboxamide

$$$$
