
     RDKit          2D

 29 32  0  0  0  0  0  0  0  0999 V2000
    5.2862    3.7066    0.0000 C   0  0  0  0  0  0  0  0  0  0  0  0
    4.9989    2.9333    0.0000 O   0  0  0  0  0  0  0  0  0  0  0  0
    4.1855    2.7954    0.0000 C   0  0  0  0  0  0  0  0  0  0  0  0
    3.8981    2.0221    0.0000 N   0  0  0  0  0  0  0  0  0  0  0  0
    3.0847    1.8842    0.0000 C   0  0  0  0  0  0  0  0  0  0  0  0
    2.5587    2.5197    0.0000 C   0  0  0  0  0  0  0  0  0  0  0  0
    2.8460    3.2931    0.0000 C   0  0  0  0  0  0  0  0  0  0  0  0
    3.6594    3.4309    0.0000 C   0  0  0  0  0  0  0  0  0  0  0  0
    1.7917    2.2157    0.0000 C   0  0  0  0  0  0  0  0  0  0  0  0
    1.0607    1.8333    0.0000 C   0  0  0  0  0  0  0  0  0  0  0  0
    0.3640    2.2751    0.0000 C   0  0  0  0  0  0  0  0  0  0  0  0
    0.3983    3.0994    0.0000 C   0  0  0  0  0  0  0  0  0  0  0  0
    1.1292    3.4819    0.0000 C   0  0  0  0  0  0  0  0  0  0  0  0
    1.8260    3.0400    0.0000 C   0  0  0  0  0  0  0  0  0  0  0  0
   -0.2985    3.5412    0.0000 C   0  0  0  0  0  0  0  0  0  0  0  0
   -0.2642    4.3655    0.0000 O   0  0  0  0  0  0  0  0  0  0  0  0
   -1.0295    3.1587    0.0000 N   0  0  0  0  0  0  0  0  0  0  0  0
   -1.0637    2.3345    0.0000 C   0  0  0  0  0  0  0  0  0  0  0  0
   -1.7262    3.6006    0.0000 C   0  0  0  0  0  0  0  0  0  0  0  0
   -2.4572    3.2181    0.0000 C   0  0  0  0  0  0  0  0  0  0  0  0
   -3.1539    3.6599    0.0000 N   0  0  0  0  0  0  0  0  0  0  0  0
   -3.8849    3.2775    0.0000 C   0  0  0  0  0  0  0  0  0  0  0  0
   -4.5816    3.7193    0.0000 C   0  0  0  0  0  0  0  0  0  0  0  0
   -4.5473    4.5436    0.0000 C   0  0  0  0  0  0  0  0  0  0  0  0
   -3.8163    4.9260    0.0000 C   0  0  0  0  0  0  0  0  0  0  0  0
   -3.1196    4.4842    0.0000 C   0  0  0  0  0  0  0  0  0  0  0  0
    1.8438    1.3924    0.0000 O   0  0  0  0  0  0  0  0  0  0  0  0
    2.6429    1.1875    0.0000 C   0  0  0  0  0  0  0  0  0  0  0  0
    2.9469    0.4205    0.0000 O   0  0  0  0  0  0  0  0  0  0  0  0
  1  2  1  0
  2  3  1  0
  3  4  2  0
  3  8  1  0
  4  5  1  0
  5  6  2  0
  5 28  1  0
  6  7  1  0
  7  8  2  0
  9  6  1  0
  9 10  1  6
  9 14  1  0
  9 27  1  0
 10 11  1  0
 12 11  1  0
 12 13  1  0
 12 15  1  6
 13 14  1  0
 15 16  2  0
 15 17  1  0
 17 18  1  0
 17 19  1  0
 19 20  1  0
 20 21  1  0
 21 22  1  0
 21 26  1  0
 22 23  1  0
 23 24  1  0
 24 25  1  0
 25 26  1  0
 27 28  1  0
 28 29  2  0
M  END
>  <DRUGBANK_ID>  (1) 
DB17094

>  <COMMON_NAME>  (1) 
MK-7288

>  <CAS_NUMBER>  (1) 
936626-07-2

>  <UNII>  (1) 
19EF2T21ST

>  <SYNONYMS>  (1) 
MK-7288 free base; Spiro(cyclohexane-1,5'(7'h)-furo(3,4-b)pyridine)-4-carboxamide, 2'-methoxy-n-methyl-7'-oxo-n-(2-(1-piperidinyl)ethyl)-, trans-

$$$$
