WAY
     RDKit          2D

 30 32  0  0  0  0  0  0  0  0999 V2000
   -0.7795   -1.2126    0.0000 C   0  0  0  0  0  0  0  0  0  0  0  0
   -0.0650   -1.6251    0.0000 C   0  0  0  0  0  0  0  0  0  0  0  0
   -0.0650   -2.4501    0.0000 C   0  0  0  0  0  0  0  0  0  0  0  0
   -0.7795   -2.8626    0.0000 C   0  0  0  0  0  0  0  0  0  0  0  0
   -1.4939   -2.4501    0.0000 C   0  0  0  0  0  0  0  0  0  0  0  0
   -1.4939   -1.6251    0.0000 C   0  0  0  0  0  0  0  0  0  0  0  0
    0.6495   -1.2126    0.0000 C   0  0  0  0  0  0  0  0  0  0  0  0
    0.6495   -0.3876    0.0000 O   0  0  0  0  0  0  0  0  0  0  0  0
    1.3639   -1.6251    0.0000 N   0  0  0  0  0  0  0  0  0  0  0  0
    2.0784   -1.2126    0.0000 O   0  0  0  0  0  0  0  0  0  0  0  0
   -2.2084   -1.2126    0.0000 C   0  0  0  0  0  0  0  0  0  0  0  0
   -0.7795   -0.3876    0.0000 N   0  0  0  0  0  0  0  0  0  0  0  0
   -0.0650    0.0249    0.0000 S   0  0  0  0  0  0  0  0  0  0  0  0
   -1.4939    0.0249    0.0000 C   0  0  0  0  0  0  0  0  0  0  0  0
   -2.2084    2.0874    0.0000 C   0  0  0  0  0  0  0  0  0  0  0  0
   -1.4939    2.4999    0.0000 C   0  0  0  0  0  0  0  0  0  0  0  0
   -0.7795    2.0874    0.0000 N   0  0  0  0  0  0  0  0  0  0  0  0
   -0.7795    1.2624    0.0000 C   0  0  0  0  0  0  0  0  0  0  0  0
   -1.4939    0.8499    0.0000 C   0  0  0  0  0  0  0  0  0  0  0  0
   -2.2084    1.2624    0.0000 C   0  0  0  0  0  0  0  0  0  0  0  0
    0.6495    0.4374    0.0000 C   0  0  0  0  0  0  0  0  0  0  0  0
    0.6495    1.2624    0.0000 C   0  0  0  0  0  0  0  0  0  0  0  0
    1.3639    1.6749    0.0000 C   0  0  0  0  0  0  0  0  0  0  0  0
    2.0784    1.2624    0.0000 C   0  0  0  0  0  0  0  0  0  0  0  0
    2.0784    0.4374    0.0000 C   0  0  0  0  0  0  0  0  0  0  0  0
    1.3639    0.0249    0.0000 C   0  0  0  0  0  0  0  0  0  0  0  0
    2.7929    1.6749    0.0000 O   0  0  0  0  0  0  0  0  0  0  0  0
    2.7929    2.4999    0.0000 C   0  0  0  0  0  0  0  0  0  0  0  0
    0.3475   -0.6896    0.0000 O   0  0  0  0  0  0  0  0  0  0  0  0
   -0.4775    0.7394    0.0000 O   0  0  0  0  0  0  0  0  0  0  0  0
  1  2  2  0
  1  6  1  0
  1 12  1  0
  2  3  1  0
  2  7  1  0
  3  4  2  0
  4  5  1  0
  5  6  2  0
  6 11  1  0
  7  8  2  0
  7  9  1  0
  9 10  1  0
 12 13  1  0
 12 14  1  0
 13 21  1  0
 13 29  2  0
 13 30  2  0
 14 19  1  0
 15 16  2  0
 15 20  1  0
 16 17  1  0
 17 18  2  0
 18 19  1  0
 19 20  2  0
 21 22  2  0
 21 26  1  0
 22 23  1  0
 23 24  2  0
 24 25  1  0
 24 27  1  0
 25 26  2  0
 27 28  1  0
M  END
>  <DRUGBANK_ID>  (1) 
DB02071

>  <SECONDARY_ACCESSION_NUMBERS>  (1) 
EXPT03240

>  <COMMON_NAME>  (1) 
WAY-151693

>  <SYNONYMS>  (1) 
N-Hydroxy-2-{[(4-methoxyphenyl)sulfonyl](3-pyridinylmethyl)amino}-3-methylbenzamide

$$$$
