
     RDKit          2D

 14 14  0  0  0  0  0  0  0  0999 V2000
   -0.1709    0.4125    0.0000 C   0  0  0  0  0  0  0  0  0  0  0  0
    0.4125    0.9959    0.0000 C   0  0  0  0  0  0  0  0  0  0  0  0
    0.9959    0.4125    0.0000 C   0  0  0  0  0  0  0  0  0  0  0  0
    0.4125   -0.1709    0.0000 N   0  0  0  0  0  0  0  0  0  0  0  0
    0.4125   -0.9959    0.0000 C   0  0  0  0  0  0  0  0  0  0  0  0
   -0.3020   -1.4084    0.0000 O   0  0  0  0  0  0  0  0  0  0  0  0
    1.1270   -1.4084    0.0000 C   0  0  0  0  0  0  0  0  0  0  0  0
    1.1270   -2.2334    0.0000 Br  0  0  0  0  0  0  0  0  0  0  0  0
   -0.0186    1.6993    0.0000 N   0  0  0  0  0  0  0  0  0  0  0  0
   -0.8433    1.6777    0.0000 O   0  0  0  0  0  0  0  0  0  0  0  0
    0.3751    2.4243    0.0000 O   0  0  0  0  0  0  0  0  0  0  0  0
    0.8436    1.6993    0.0000 N   0  0  0  0  0  0  0  0  0  0  0  0
    1.6683    1.6777    0.0000 O   0  0  0  0  0  0  0  0  0  0  0  0
    0.6932    2.5105    0.0000 O   0  0  0  0  0  0  0  0  0  0  0  0
  1  2  1  0
  1  4  1  0
  2  3  1  0
  2  9  1  0
  2 12  1  0
  3  4  1  0
  4  5  1  0
  5  6  2  0
  5  7  1  0
  7  8  1  0
  9 10  2  0
  9 11  1  0
 12 13  2  0
 12 14  1  0
M  CHG  4   9   1  11  -1  12   1  14  -1
M  END
>  <DRUGBANK_ID>  (1) 
DB12060

>  <COMMON_NAME>  (1) 
RRx-001

>  <CAS_NUMBER>  (1) 
925206-65-1

>  <UNII>  (1) 
7RPW6SU9SC

>  <SYNONYMS>  (1) 
N-(Bromoacetyl)-3,3-Dinitroazetidine

$$$$
