
     RDKit          2D

 17 20  0  0  0  0  0  0  0  0999 V2000
   -0.9992   -0.4028    0.0000 N   0  0  0  0  0  0  0  0  0  0  0  0
   -1.7287    0.8248    0.0000 C   0  0  0  0  0  0  0  0  0  0  0  0
   -1.7099   -0.8228    0.0000 C   0  0  0  0  0  0  0  0  0  0  0  0
   -2.4368    0.4067    0.0000 C   0  0  0  0  0  0  0  0  0  0  0  0
   -2.4281   -0.4169    0.0000 C   0  0  0  0  0  0  0  0  0  0  0  0
    0.3980   -0.9987    0.0000 C   0  0  0  0  0  0  0  0  0  0  0  0
   -0.4246   -0.9914    0.0000 C   0  0  0  0  0  0  0  0  0  0  0  0
    0.9992    0.4028    0.0000 N   0  0  0  0  0  0  0  0  0  0  0  0
    0.4246    0.9914    0.0000 C   0  0  0  0  0  0  0  0  0  0  0  0
    2.4281    0.4169    0.0000 C   0  0  0  0  0  0  0  0  0  0  0  0
    2.4368   -0.4067    0.0000 C   0  0  0  0  0  0  0  0  0  0  0  0
    1.7099    0.8228    0.0000 C   0  0  0  0  0  0  0  0  0  0  0  0
    1.7287   -0.8248    0.0000 C   0  0  0  0  0  0  0  0  0  0  0  0
   -0.3980    0.9987    0.0000 C   0  0  0  0  0  0  0  0  0  0  0  0
    0.3980    0.3027    0.0000 C   0  0  0  0  0  0  0  0  0  0  0  0
   -0.9992    0.4225    0.0000 C   0  0  0  0  0  0  0  0  0  0  0  0
    0.9992   -0.4225    0.0000 C   0  0  0  0  0  0  0  0  0  0  0  0
  1  7  1  0
  1 16  1  0
 16  2  1  6
  3  1  1  0
  4  2  1  0
  5  3  1  0
  5  4  1  0
  6 17  1  0
  6 15  1  0
  6  7  1  6
  8 12  1  0
  9  8  1  0
 11 10  1  0
 12 10  1  0
 13 11  1  0
 14  9  1  6
 14 15  1  0
 16 14  1  0
 17 13  1  1
 17  8  1  0
M  END
>  <DRUGBANK_ID>  (1) 
DB06727

>  <COMMON_NAME>  (1) 
Sparteine

>  <CAS_NUMBER>  (1) 
90-39-1

>  <UNII>  (1) 
298897D62S

>  <SYNONYMS>  (1) 
(-)-sparteine; 6β,7α,9α,11α-pachycarpine; Esparteina; Lupinidine; Sparteina; Sparteine; Sparteinum

$$$$
