
     RDKit          2D

 38 41  0  0  1  0  0  0  0  0999 V2000
   -0.8687   -6.9162    0.0000 C   0  0  0  0  0  0  0  0  0  0  0  0
   -0.5865   -6.1409    0.0000 C   0  0  0  0  0  0  0  0  0  0  0  0
    0.2259   -5.9977    0.0000 O   0  0  0  0  0  0  0  0  0  0  0  0
   -1.1168   -5.5090    0.0000 N   0  0  0  0  0  0  0  0  0  0  0  0
   -0.8347   -4.7337    0.0000 C   0  0  0  0  0  0  0  0  0  0  0  0
   -0.8347   -3.9087    0.0000 C   0  0  0  0  0  0  0  0  0  0  0  0
   -0.1202   -3.4962    0.0000 C   0  0  0  0  0  0  0  0  0  0  0  0
    0.5943   -3.9087    0.0000 N   0  0  0  0  0  0  0  0  0  0  0  0
    0.5943   -4.7337    0.0000 C   0  0  0  0  0  0  0  0  0  0  0  0
   -0.1202   -5.1462    0.0000 C   0  0  0  0  0  0  0  0  0  0  0  0
    1.3087   -3.4962    0.0000 C   0  0  0  0  0  0  0  0  0  0  0  0
    2.0232   -3.9087    0.0000 C   0  0  0  0  0  0  0  0  0  0  0  0
    2.7377   -3.4962    0.0000 C   0  0  0  0  0  0  0  0  0  0  0  0
    3.4521   -3.9087    0.0000 C   0  0  0  0  0  0  0  0  0  0  0  0
    4.1666   -3.4962    0.0000 N   0  0  0  0  0  0  0  0  0  0  0  0
    4.1666   -2.6712    0.0000 C   0  0  0  0  0  0  0  0  0  0  0  0
    4.8811   -3.9087    0.0000 C   0  0  0  0  0  0  0  0  0  0  0  0
    4.8811   -4.7337    0.0000 O   0  0  0  0  0  0  0  0  0  0  0  0
    5.5956   -3.4962    0.0000 C   0  0  0  0  0  0  0  0  0  0  0  0
    5.5956   -2.6712    0.0000 C   0  0  0  0  0  0  0  0  0  0  0  0
    6.3100   -2.2587    0.0000 C   0  0  0  0  0  0  0  0  0  0  0  0
    7.0245   -2.6712    0.0000 C   0  0  0  0  0  0  0  0  0  0  0  0
    7.0245   -3.4962    0.0000 C   0  0  0  0  0  0  0  0  0  0  0  0
    6.3100   -3.9087    0.0000 C   0  0  0  0  0  0  0  0  0  0  0  0
    2.7377   -2.6712    0.0000 C   0  0  0  0  0  0  0  0  0  0  0  0
    2.0232   -2.2587    0.0000 C   0  0  0  0  0  0  0  0  0  0  0  0
    2.0232   -1.4337    0.0000 C   0  0  0  0  0  0  0  0  0  0  0  0
    2.7377   -1.0212    0.0000 C   0  0  0  0  0  0  0  0  0  0  0  0
    3.4521   -1.4337    0.0000 C   0  0  0  0  0  0  0  0  0  0  0  0
    3.4521   -2.2587    0.0000 C   0  0  0  0  0  0  0  0  0  0  0  0
    4.1666   -1.0212    0.0000 Cl  0  0  0  0  0  0  0  0  0  0  0  0
    2.7377   -0.1962    0.0000 Cl  0  0  0  0  0  0  0  0  0  0  0  0
   -1.6471   -4.5904    0.0000 C   0  0  0  0  0  0  0  0  0  0  0  0
   -2.1774   -5.2224    0.0000 C   0  0  0  0  0  0  0  0  0  0  0  0
   -2.9899   -5.0792    0.0000 C   0  0  0  0  0  0  0  0  0  0  0  0
   -3.2721   -4.3039    0.0000 C   0  0  0  0  0  0  0  0  0  0  0  0
   -2.7418   -3.6719    0.0000 C   0  0  0  0  0  0  0  0  0  0  0  0
   -1.9293   -3.8152    0.0000 C   0  0  0  0  0  0  0  0  0  0  0  0
  1  2  1  0
  2  3  2  0
  2  4  1  0
  4  5  1  0
  5  6  1  0
  5 10  1  0
  5 33  1  0
  6  7  1  0
  7  8  1  0
  8  9  1  0
  8 11  1  0
  9 10  1  0
 11 12  1  0
 13 12  1  1
 13 14  1  0
 13 25  1  0
 14 15  1  0
 15 16  1  0
 15 17  1  0
 17 18  2  0
 17 19  1  0
 19 20  2  0
 19 24  1  0
 20 21  1  0
 21 22  2  0
 22 23  1  0
 23 24  2  0
 25 26  2  0
 25 30  1  0
 26 27  1  0
 27 28  2  0
 28 29  1  0
 28 32  1  0
 29 30  2  0
 29 31  1  0
 33 34  2  0
 33 38  1  0
 34 35  1  0
 35 36  2  0
 36 37  1  0
 37 38  2  0
M  END
>  <DRUGBANK_ID>  (1) 
DB06660

>  <COMMON_NAME>  (1) 
Saredutant

>  <CAS_NUMBER>  (1) 
142001-63-6

>  <UNII>  (1) 
720U2QK8I5

>  <SYNONYMS>  (1) 
Saredutant

$$$$
