
     RDKit          2D

  9  8  0  0  0  0  0  0  0  0999 V2000
   -1.0717   -0.2062    0.0000 C   0  0  0  0  0  0  0  0  0  0  0  0
   -0.3572    0.2063    0.0000 C   0  0  0  0  0  0  0  0  0  0  0  0
    1.0717    0.2063    0.0000 C   0  0  0  0  0  0  0  0  0  0  0  0
    0.3572   -0.2061    0.0000 C   0  0  0  0  0  0  0  0  0  0  0  0
    1.7862   -0.2061    0.0000 O   0  0  0  0  0  0  0  0  0  0  0  0
   -1.7862    0.2062    0.0000 O   0  0  0  0  0  0  0  0  0  0  0  0
    1.0717    1.0312    0.0000 O   0  0  0  0  0  0  0  0  0  0  0  0
   -1.0717   -1.0312    0.0000 O   0  0  0  0  0  0  0  0  0  0  0  0
    0.3572   -1.0312    0.0000 O   0  0  0  0  0  0  0  0  0  0  0  0
  1  2  1  0
  4  2  1  0
  4  3  1  0
  4  9  1  6
  5  3  1  0
  6  1  1  0
  7  3  2  0
  8  1  2  0
M  END
>  <DRUGBANK_ID>  (1) 
DB03499

>  <SECONDARY_ACCESSION_NUMBERS>  (1) 
EXPT02188

>  <COMMON_NAME>  (1) 
D-Malic acid

>  <CAS_NUMBER>  (1) 
636-61-3

>  <UNII>  (1) 
P750Y95K96

>  <SYNONYMS>  (1) 
(+)-D-malic acid; (R)-2-hydroxybutanedioic acid; (R)-malic acid

$$$$
