
     RDKit          2D

 32 35  0  0  1  0  0  0  0  0999 V2000
   -5.6843   -3.8380    0.0000 C   0  0  0  0  0  0  0  0  0  0  0  0
   -4.9698   -3.4255    0.0000 C   0  0  0  0  0  0  0  0  0  0  0  0
   -4.2553   -3.8380    0.0000 C   0  0  0  0  0  0  0  0  0  0  0  0
   -3.5408   -3.4255    0.0000 C   0  0  0  0  0  0  0  0  0  0  0  0
   -2.8264   -3.8380    0.0000 C   0  0  0  0  0  0  0  0  0  0  0  0
   -2.1119   -3.4255    0.0000 N   0  0  0  0  0  0  0  0  0  0  0  0
   -1.3974   -3.8380    0.0000 C   0  0  0  0  0  0  0  0  0  0  0  0
   -1.3974   -4.6630    0.0000 O   0  0  0  0  0  0  0  0  0  0  0  0
   -0.6830   -3.4255    0.0000 C   0  0  0  0  0  0  0  0  0  0  0  0
   -0.5967   -2.6050    0.0000 C   0  0  0  0  0  0  0  0  0  0  0  0
    0.2102   -2.4335    0.0000 O   0  0  0  0  0  0  0  0  0  0  0  0
    0.6227   -3.1480    0.0000 C   0  0  0  0  0  0  0  0  0  0  0  0
    0.0707   -3.7611    0.0000 N   0  0  0  0  0  0  0  0  0  0  0  0
    1.4432   -3.2342    0.0000 C   0  0  0  0  0  0  0  0  0  0  0  0
    1.7788   -3.9879    0.0000 C   0  0  0  0  0  0  0  0  0  0  0  0
    2.5993   -4.0741    0.0000 C   0  0  0  0  0  0  0  0  0  0  0  0
    3.0842   -3.4067    0.0000 C   0  0  0  0  0  0  0  0  0  0  0  0
    2.7486   -2.6530    0.0000 C   0  0  0  0  0  0  0  0  0  0  0  0
    1.9282   -2.5668    0.0000 C   0  0  0  0  0  0  0  0  0  0  0  0
    1.5926   -1.8131    0.0000 C   0  0  0  0  0  0  0  0  0  0  0  0
    2.0775   -1.1457    0.0000 C   0  0  0  0  0  0  0  0  0  0  0  0
    1.7420   -0.3920    0.0000 C   0  0  0  0  0  0  0  0  0  0  0  0
    2.2269    0.2755    0.0000 C   0  0  0  0  0  0  0  0  0  0  0  0
    3.0474    0.1892    0.0000 C   0  0  0  0  0  0  0  0  0  0  0  0
    3.3829   -0.5644    0.0000 C   0  0  0  0  0  0  0  0  0  0  0  0
    2.8980   -1.2319    0.0000 C   0  0  0  0  0  0  0  0  0  0  0  0
    3.2336   -1.9856    0.0000 C   0  0  0  0  0  0  0  0  0  0  0  0
    4.0540   -2.0718    0.0000 C   0  0  0  0  0  0  0  0  0  0  0  0
    4.3896   -2.8255    0.0000 C   0  0  0  0  0  0  0  0  0  0  0  0
    5.2101   -2.9117    0.0000 O   0  0  0  0  0  0  0  0  0  0  0  0
    3.9047   -3.4929    0.0000 O   0  0  0  0  0  0  0  0  0  0  0  0
    2.0969   -3.1992    0.0000 O   0  0  0  0  0  0  0  0  0  0  0  0
  1  2  1  0
  2  3  1  0
  3  4  1  0
  4  5  1  0
  5  6  1  0
  6  7  1  0
  7  8  2  0
  7  9  1  0
  9 10  2  0
  9 13  1  0
 10 11  1  0
 11 12  1  0
 12 13  2  0
 14 12  1  1
 14 15  1  0
 14 19  1  0
 15 16  1  6
 15 32  1  0
 16 17  1  0
 18 17  1  6
 18 19  1  0
 18 32  1  0
 19 20  1  1
 20 21  1  0
 21 22  2  0
 21 26  1  0
 22 23  1  0
 23 24  2  0
 24 25  1  0
 25 26  2  0
 26 27  1  0
 27 28  1  0
 28 29  1  0
 29 30  2  0
 29 31  1  0
M  END
>  <DRUGBANK_ID>  (1) 
DB12321

>  <COMMON_NAME>  (1) 
Ifetroban

>  <CAS_NUMBER>  (1) 
143443-90-7

>  <UNII>  (1) 
E833KT807K

>  <SYNONYMS>  (1) 
Ifetroban

$$$$
