AHT
     RDKit          2D

 15 15  0  0  0  0  0  0  0  0999 V2000
   -0.4334   -0.7384    0.0000 N   0  0  0  0  0  0  0  0  0  0  0  0
   -0.4334    0.0866    0.0000 C   0  0  0  0  0  0  0  0  0  0  0  0
   -1.1479    0.4991    0.0000 C   0  0  0  0  0  0  0  0  0  0  0  0
    0.2810    0.4991    0.0000 C   0  0  0  0  0  0  0  0  0  0  0  0
    0.9955    0.0866    0.0000 C   0  0  0  0  0  0  0  0  0  0  0  0
    1.7100    0.4991    0.0000 C   0  0  0  0  0  0  0  0  0  0  0  0
    0.9955   -0.7384    0.0000 C   0  0  0  0  0  0  0  0  0  0  0  0
    2.4245    0.0866    0.0000 C   0  0  0  0  0  0  0  0  0  0  0  0
    1.7100   -1.1509    0.0000 C   0  0  0  0  0  0  0  0  0  0  0  0
    2.4245   -0.7384    0.0000 C   0  0  0  0  0  0  0  0  0  0  0  0
    3.1389   -1.1509    0.0000 O   0  0  0  0  0  0  0  0  0  0  0  0
   -1.8624    0.0866    0.0000 C   0  0  0  0  0  0  0  0  0  0  0  0
   -2.5768    0.4991    0.0000 C   0  0  0  0  0  0  0  0  0  0  0  0
   -3.2913    0.0866    0.0000 O   0  0  0  0  0  0  0  0  0  0  0  0
   -2.5768    1.3241    0.0000 N   0  0  0  0  0  0  0  0  0  0  0  0
  2  1  1  6
  2  3  1  0
  2  4  1  0
  3 12  1  0
  4  5  1  0
  5  6  2  0
  5  7  1  0
  6  8  1  0
  7  9  2  0
  8 10  2  0
  9 10  1  0
 10 11  1  0
 12 13  1  0
 13 14  1  0
 13 15  1  6
M  END
>  <DRUGBANK_ID>  (1) 
DB07353

>  <COMMON_NAME>  (1) 
4-(2,5-DIAMINO-5-HYDROXY-PENTYL)-PHENOL

$$$$
