
     RDKit          2D

  7  6  0  0  0  0  0  0  0  0999 V2000
    0.0000   -0.6187    0.0000 N   0  0  0  0  0  0  0  0  0  0  0  0
    0.7146    0.6187    0.0000 N   0  0  0  0  0  0  0  0  0  0  0  0
    0.7146   -0.2062    0.0000 C   0  0  0  0  0  0  0  0  0  0  0  0
    1.4290   -0.6187    0.0000 N   0  0  0  0  0  0  0  0  0  0  0  0
   -0.7146   -0.2062    0.0000 C   0  0  0  0  0  0  0  0  0  0  0  0
   -0.7146    0.6187    0.0000 N   0  0  0  0  0  0  0  0  0  0  0  0
   -1.4290   -0.6187    0.0000 N   0  0  0  0  0  0  0  0  0  0  0  0
  1  5  1  0
  2  3  2  0
  3  1  1  0
  3  4  1  0
  5  6  2  0
  5  7  1  0
M  END
>  <DRUGBANK_ID>  (1) 
DB13100

>  <COMMON_NAME>  (1) 
Biguanide

>  <CAS_NUMBER>  (1) 
56-03-1

>  <UNII>  (1) 
FB4Q52I9K2

$$$$
