
     RDKit          2D

 24 27  0  0  0  0  0  0  0  0999 V2000
   -1.4292    1.8434    0.0000 C   0  0  0  0  0  0  0  0  0  0  0  0
   -1.4304    1.0160    0.0000 C   0  0  0  0  0  0  0  0  0  0  0  0
   -0.7168    0.6052    0.0000 C   0  0  0  0  0  0  0  0  0  0  0  0
   -0.7186    2.2584    0.0000 C   0  0  0  0  0  0  0  0  0  0  0  0
   -0.0005    1.8470    0.0000 C   0  0  0  0  0  0  0  0  0  0  0  0
   -0.0016    1.0185    0.0000 C   0  0  0  0  0  0  0  0  0  0  0  0
    0.7099    0.6076    0.0000 O   0  0  0  0  0  0  0  0  0  0  0  0
    1.4313    1.0165    0.0000 C   0  0  0  0  0  0  0  0  0  0  0  0
    1.4324    1.8451    0.0000 C   0  0  0  0  0  0  0  0  0  0  0  0
    0.7124    2.2646    0.0000 N   0  0  0  0  0  0  0  0  0  0  0  0
   -2.1466    2.2579    0.0000 Cl  0  0  0  0  0  0  0  0  0  0  0  0
    2.1466    2.2580    0.0000 O   0  0  0  0  0  0  0  0  0  0  0  0
    0.7124    3.0896    0.0000 C   0  0  0  0  0  0  0  0  0  0  0  0
   -0.7206   -0.2130    0.0000 C   0  0  0  0  0  0  0  0  0  0  0  0
   -0.0053   -0.6276    0.0000 N   0  0  0  0  0  0  0  0  0  0  0  0
   -0.0053   -1.4486    0.0000 C   0  0  0  0  0  0  0  0  0  0  0  0
   -1.4351   -0.6255    0.0000 O   0  0  0  0  0  0  0  0  0  0  0  0
   -0.7208   -1.8599    0.0000 C   0  0  0  0  0  0  0  0  0  0  0  0
   -0.7227   -2.6774    0.0000 N   0  0  0  0  0  0  0  0  0  0  0  0
   -0.0107   -3.0896    0.0000 C   0  0  0  0  0  0  0  0  0  0  0  0
    0.7005   -2.6823    0.0000 C   0  0  0  0  0  0  0  0  0  0  0  0
   -0.0825   -2.5012    0.0000 C   0  0  0  0  0  0  0  0  0  0  0  0
   -0.0825   -1.9729    0.0000 C   0  0  0  0  0  0  0  0  0  0  0  0
    0.7018   -1.8551    0.0000 C   0  0  0  0  0  0  0  0  0  0  0  0
  1  2  2  0
  1 11  1  0
  2  3  1  0
  3 14  1  0
  3  6  2  0
  4  1  1  0
  5  6  1  0
  5  4  2  0
  5 10  1  0
  6  7  1  0
  7  8  1  0
  8  9  1  0
  9 12  2  0
  9 10  1  0
 10 13  1  0
 14 15  1  0
 14 17  2  0
 15 16  1  0
 16 18  1  0
 16 24  1  0
 18 19  1  0
 19 20  1  0
 19 22  1  0
 20 21  1  0
 21 24  1  0
 22 23  1  0
 23 24  1  0
M  END
>  <DRUGBANK_ID>  (1) 
DB16837

>  <COMMON_NAME>  (1) 
Azasetron

>  <CAS_NUMBER>  (1) 
123040-69-7

>  <UNII>  (1) 
77HC7URR9Z

>  <SYNONYMS>  (1) 
Azasetron

$$$$
