
     RDKit          2D

 28 31  0  0  0  0  0  0  0  0999 V2000
   -1.8010   -0.3287    0.0000 C   0  0  0  0  0  0  0  0  0  0  0  0
   -2.5234   -0.7254    0.0000 C   0  0  0  0  0  0  0  0  0  0  0  0
   -2.5234   -1.5642    0.0000 C   0  0  0  0  0  0  0  0  0  0  0  0
   -1.8010   -1.9763    0.0000 C   0  0  0  0  0  0  0  0  0  0  0  0
   -1.1015   -1.5642    0.0000 C   0  0  0  0  0  0  0  0  0  0  0  0
   -0.3867   -1.9763    0.0000 C   0  0  0  0  0  0  0  0  0  0  0  0
   -1.1015   -0.7254    0.0000 C   0  0  0  0  0  0  0  0  0  0  0  0
    0.3437    0.8990    0.0000 C   0  0  0  0  0  0  0  0  0  0  0  0
    1.0433    0.4791    0.0000 C   0  0  0  0  0  0  0  0  0  0  0  0
    1.0433   -0.3287    0.0000 C   0  0  0  0  0  0  0  0  0  0  0  0
    1.8278   -0.5854    0.0000 C   0  0  0  0  0  0  0  0  0  0  0  0
    1.8278    0.7354    0.0000 C   0  0  0  0  0  0  0  0  0  0  0  0
    1.0433    1.3262    0.0000 C   0  0  0  0  0  0  0  0  0  0  0  0
   -1.1015    0.1005    0.0000 C   0  0  0  0  0  0  0  0  0  0  0  0
   -3.2565   -1.9950    0.0000 O   0  0  0  0  0  0  0  0  0  0  0  0
   -0.3867   -0.3287    0.0000 C   0  0  0  0  0  0  0  0  0  0  0  0
    0.3437   -0.7254    0.0000 C   0  0  0  0  0  0  0  0  0  0  0  0
    0.3437   -1.5642    0.0000 C   0  0  0  0  0  0  0  0  0  0  0  0
    2.5421    1.9950    0.0000 C   0  0  0  0  0  0  0  0  0  0  0  0
    1.8278    1.5826    0.0000 C   0  0  0  0  0  0  0  0  0  0  0  0
   -0.3867   -1.1535    0.0000 F   0  0  0  0  0  0  0  0  0  0  0  0
   -0.3867    0.4791    0.0000 C   0  0  0  0  0  0  0  0  0  0  0  0
   -1.1011    0.8914    0.0000 O   0  0  0  0  0  0  0  0  0  0  0  0
    2.2940    0.0674    0.0000 C   0  0  0  0  0  0  0  0  0  0  0  0
    3.1188    0.0674    0.0000 C   0  0  0  0  0  0  0  0  0  0  0  0
    2.5476    1.1381    0.0000 O   0  0  0  0  0  0  0  0  0  0  0  0
    1.1134    1.9950    0.0000 O   0  0  0  0  0  0  0  0  0  0  0  0
    3.2565    1.5826    0.0000 O   0  0  0  0  0  0  0  0  0  0  0  0
  1  7  1  0
  2  1  2  0
  3  4  1  0
  3  2  1  0
  3 15  2  0
  4  5  2  0
  5  7  1  0
  6 18  1  0
  6  5  1  0
  7 16  1  0
  7 14  1  1
  8  9  1  0
  9 13  1  1
 10  9  1  0
 10 11  1  1
 12  9  1  0
 12 20  1  0
 12 26  1  6
 16 21  1  6
 17 10  1  0
 17 16  1  0
 17 18  1  6
 19 28  1  0
 19 20  1  0
 20 27  2  0
 22 16  1  0
 22  8  1  0
 22 23  1  1
 24 12  1  0
 24 11  1  0
 24 25  1  1
M  END
>  <DRUGBANK_ID>  (1) 
DB00443

>  <SECONDARY_ACCESSION_NUMBERS>  (1) 
APRD00513

>  <COMMON_NAME>  (1) 
Betamethasone

>  <CAS_NUMBER>  (1) 
378-44-9

>  <UNII>  (1) 
9842X06Q6M

>  <SYNONYMS>  (1) 
16β-Methyl-1,4-pregnadiene-9α-fluoro-11β,17α,21-triol-3,20-dione; 9-Fluoro-16β-methylprednisolone; 9α-Fluoro-16β-methylprednisolone; beta-Methasone alcohol; Betadexamethasone; Betametasona; Betamethasone; Bétaméthasone; Betamethasonum

$$$$
