
     RDKit          2D

 42 45  0  0  0  0  0  0  0  0999 V2000
    3.2354    1.0389    0.0000 C   0  0  0  0  0  0  0  0  0  0  0  0
    3.9383    0.6112    0.0000 C   0  0  0  0  0  0  0  0  0  0  0  0
    3.9383   -0.2138    0.0000 C   0  0  0  0  0  0  0  0  0  0  0  0
    3.2354   -0.6112    0.0000 C   0  0  0  0  0  0  0  0  0  0  0  0
    2.5021   -0.2138    0.0000 C   0  0  0  0  0  0  0  0  0  0  0  0
    1.7992   -0.6112    0.0000 C   0  0  0  0  0  0  0  0  0  0  0  0
    1.0658   -0.2138    0.0000 C   0  0  0  0  0  0  0  0  0  0  0  0
    0.3629   -0.6112    0.0000 C   0  0  0  0  0  0  0  0  0  0  0  0
   -0.3703   -0.2138    0.0000 C   0  0  0  0  0  0  0  0  0  0  0  0
   -1.0732   -0.6112    0.0000 C   0  0  0  0  0  0  0  0  0  0  0  0
   -1.8065   -0.2138    0.0000 C   0  0  0  0  0  0  0  0  0  0  0  0
   -1.8065    0.6112    0.0000 C   0  0  0  0  0  0  0  0  0  0  0  0
   -1.0732    1.0389    0.0000 C   0  0  0  0  0  0  0  0  0  0  0  0
   -0.3703    0.6112    0.0000 C   0  0  0  0  0  0  0  0  0  0  0  0
    0.3629    1.0389    0.0000 C   0  0  0  0  0  0  0  0  0  0  0  0
    1.0658    0.6112    0.0000 C   0  0  0  0  0  0  0  0  0  0  0  0
    1.7992    1.0389    0.0000 C   0  0  0  0  0  0  0  0  0  0  0  0
    2.5021    0.6112    0.0000 C   0  0  0  0  0  0  0  0  0  0  0  0
    4.6716    1.0389    0.0000 C   0  0  0  0  0  0  0  0  0  0  0  0
    4.6716    1.8640    0.0000 O   0  0  0  0  0  0  0  0  0  0  0  0
    5.3744    0.6112    0.0000 N   0  0  0  0  0  0  0  0  0  0  0  0
    0.3629    1.8640    0.0000 O   0  0  0  0  0  0  0  0  0  0  0  0
    3.2354    1.8640    0.0000 O   0  0  0  0  0  0  0  0  0  0  0  0
    2.5021    1.4362    0.0000 O   0  0  0  0  0  0  0  0  0  0  0  0
    1.7992    1.8640    0.0000 O   0  0  0  0  0  0  0  0  0  0  0  0
   -1.0732    1.8640    0.0000 O   0  0  0  0  0  0  0  0  0  0  0  0
    4.6716   -0.6112    0.0000 O   0  0  0  0  0  0  0  0  0  0  0  0
   -2.5094    1.0389    0.0000 N   0  0  0  0  0  0  0  0  0  0  0  0
   -1.0732   -1.4669    0.0000 N   0  0  0  0  0  0  0  0  0  0  0  0
   -1.8065   -1.8640    0.0000 C   0  0  0  0  0  0  0  0  0  0  0  0
   -0.3703   -1.8640    0.0000 C   0  0  0  0  0  0  0  0  0  0  0  0
    3.2354   -1.4669    0.0000 N   0  0  0  0  0  0  0  0  0  0  0  0
    3.9383   -1.8640    0.0000 C   0  0  0  0  0  0  0  0  0  0  0  0
    2.5021   -1.8640    0.0000 C   0  0  0  0  0  0  0  0  0  0  0  0
   -3.2285    0.6250    0.0000 C   0  0  0  0  0  0  0  0  0  0  0  0
   -3.9425    1.0386    0.0000 C   0  0  0  0  0  0  0  0  0  0  0  0
   -3.2297   -0.2000    0.0000 O   0  0  0  0  0  0  0  0  0  0  0  0
   -4.6600    0.6250    0.0000 N   0  0  0  0  0  0  0  0  0  0  0  0
   -4.6600   -0.2000    0.0000 C   0  0  0  0  0  0  0  0  0  0  0  0
   -5.3744   -0.6125    0.0000 C   0  0  0  0  0  0  0  0  0  0  0  0
   -3.9455   -0.6125    0.0000 C   0  0  0  0  0  0  0  0  0  0  0  0
   -4.6600   -1.0250    0.0000 C   0  0  0  0  0  0  0  0  0  0  0  0
  2  1  1  0
  3  2  2  0
  4  3  1  0
  4 32  1  1
  5  4  1  0
  5  6  1  6
  7  6  1  6
  8  7  1  0
  9  8  1  0
 10  9  2  0
 11 10  1  0
 12 11  2  0
 13 12  1  0
 14  9  1  0
 14 13  2  0
 15 14  1  0
 16  7  1  0
 16 15  1  0
 17 16  2  0
 18  1  1  0
 18  5  1  0
 18 17  1  0
 18 24  1  1
 19  2  1  0
 20 19  2  0
 21 19  1  0
 22 15  2  0
 23  1  2  0
 25 17  1  0
 26 13  1  0
 27  3  1  0
 28 12  1  0
 28 35  1  0
 29 10  1  0
 30 29  1  0
 31 29  1  0
 33 32  1  0
 34 32  1  0
 35 36  1  0
 35 37  2  0
 36 38  1  0
 38 39  1  0
 39 40  1  0
 39 41  1  0
 39 42  1  0
M  END
>  <DRUGBANK_ID>  (1) 
DB00560

>  <SECONDARY_ACCESSION_NUMBERS>  (1) 
APRD01307

>  <COMMON_NAME>  (1) 
Tigecycline

>  <CAS_NUMBER>  (1) 
220620-09-7

>  <UNII>  (1) 
70JE2N95KR

>  <SYNONYMS>  (1) 
(4S,4aS,5aR,12aS)-9-(2-(tert-butylamino)acetamido)-4,7-bis(dimethylamino)-1,4,4a,5,5a,6,11,12a-octahydro-3,10,12,12a-tetrahydroxy-1,11-dioxo-2-naphthacenecarboxamide; Tigeciclina; Tigecycline; Tigecyclinum

$$$$
