
     RDKit          2D

 14 14  0  0  0  0  0  0  0  0999 V2000
    2.8578    0.8250    0.0000 C   0  0  0  0  0  0  0  0  0  0  0  0
    2.1434   -0.4125    0.0000 C   0  0  0  0  0  0  0  0  0  0  0  0
    0.7144   -0.4125    0.0000 C   0  0  0  0  0  0  0  0  0  0  0  0
   -1.4289    0.8250    0.0000 C   0  0  0  0  0  0  0  0  0  0  0  0
   -0.7144   -0.4125    0.0000 C   0  0  0  0  0  0  0  0  0  0  0  0
   -2.1434    0.4125    0.0000 C   0  0  0  0  0  0  0  0  0  0  0  0
   -1.4289   -0.8250    0.0000 C   0  0  0  0  0  0  0  0  0  0  0  0
    0.0000    0.8250    0.0000 C   0  0  0  0  0  0  0  0  0  0  0  0
    2.1434    0.4125    0.0000 C   0  0  0  0  0  0  0  0  0  0  0  0
    0.7144    0.4125    0.0000 C   0  0  0  0  0  0  0  0  0  0  0  0
   -0.7144    0.4125    0.0000 C   0  0  0  0  0  0  0  0  0  0  0  0
   -2.1434   -0.4125    0.0000 C   0  0  0  0  0  0  0  0  0  0  0  0
   -2.8578   -0.8250    0.0000 I   0  0  0  0  0  0  0  0  0  0  0  0
    1.4289    0.8250    0.0000 N   0  0  0  0  0  0  0  0  0  0  0  0
  6  4  2  0
  7  5  1  0
  9  1  1  0
  9  2  1  0
 10  3  1  0
 10  8  1  0
 11  4  1  0
 11  5  2  0
 11  8  1  0
 12  6  1  0
 12  7  2  0
 13 12  1  0
 14  9  1  0
 14 10  1  0
M  ISO  1  13 123
M  END
>  <DRUGBANK_ID>  (1) 
DB09480

>  <COMMON_NAME>  (1) 
Iofetamine I-123

>  <CAS_NUMBER>  (1) 
75917-92-9

>  <UNII>  (1) 
LV23B78IJC

>  <SYNONYMS>  (1) 
Iodine iofetamine (123I); Iofetamine (123 I); Iofetamine (123I); Iofetamine I 123; Iofetamine, I-123

$$$$
