1097
     RDKit          2D

 19 20  0  0  0  0  0  0  0  0999 V2000
    2.9915    2.4910    0.0000 F   0  0  0  0  0  0  0  0  0  0  0  0
    4.6416    2.4910    0.0000 F   0  0  0  0  0  0  0  0  0  0  0  0
    3.8166    3.3160    0.0000 F   0  0  0  0  0  0  0  0  0  0  0  0
    2.6896   -3.3160    0.0000 O   0  0  0  0  0  0  0  0  0  0  0  0
    2.3876   -0.8090    0.0000 O   0  0  0  0  0  0  0  0  0  0  0  0
    3.8166   -0.8090    0.0000 N   0  0  0  0  0  0  0  0  0  0  0  0
    3.5146   -3.3160    0.0000 N   0  0  0  0  0  0  0  0  0  0  0  0
    3.8166    0.0160    0.0000 C   0  0  0  0  0  0  0  0  0  0  0  0
    3.8166    1.6660    0.0000 C   0  0  0  0  0  0  0  0  0  0  0  0
    3.1021   -2.0465    0.0000 C   0  0  0  0  0  0  0  0  0  0  0  0
    4.5310    0.4285    0.0000 C   0  0  0  0  0  0  0  0  0  0  0  0
    3.1021    0.4285    0.0000 C   0  0  0  0  0  0  0  0  0  0  0  0
    4.5310    1.2535    0.0000 C   0  0  0  0  0  0  0  0  0  0  0  0
    3.1021    1.2535    0.0000 C   0  0  0  0  0  0  0  0  0  0  0  0
    3.1021   -1.2215    0.0000 C   0  0  0  0  0  0  0  0  0  0  0  0
    2.4347   -2.5314    0.0000 C   0  0  0  0  0  0  0  0  0  0  0  0
    3.8166    2.4910    0.0000 C   0  0  0  0  0  0  0  0  0  0  0  0
    3.7695   -2.5314    0.0000 C   0  0  0  0  0  0  0  0  0  0  0  0
    1.6500   -2.2764    0.0000 C   0  0  0  0  0  0  0  0  0  0  0  0
  1 17  1  0
  2 17  1  0
  3 17  1  0
  4  7  1  0
  4 16  1  0
  5 15  2  0
  6  8  1  0
  6 15  1  0
  7 18  2  0
  8 11  2  0
  8 12  1  0
  9 13  2  0
  9 14  1  0
  9 17  1  0
 10 15  1  0
 10 16  2  0
 10 18  1  0
 11 13  1  0
 12 14  2  0
 16 19  1  0
M  END
>  <DRUGBANK_ID>  (1) 
DB01097

>  <SECONDARY_ACCESSION_NUMBERS>  (1) 
APRD00205

>  <COMMON_NAME>  (1) 
Leflunomide

>  <CAS_NUMBER>  (1) 
75706-12-6

>  <UNII>  (1) 
G162GK9U4W

>  <SYNONYMS>  (1) 
4-ISOXAZOLECARBOXAMIDE, 5-METHYL-N-(4-(TRIFLUOROMETHYL)PHENYL)-; 5-Methyl-N-(4-(trifluoromethyl)phenyl)-4-isoxazolecarboxamide; 5-Methylisoxazole-4-carboxylic acid (4-trifluoromethyl)anilide; alpha,alpha,alpha-Trifluoro-5-methyl-4-isoxazolecarboxy-p-toluidide; Leflunomida; Leflunomide; LÃ©flunomide; Leflunomidum; N-(4-(TRIFLUOROMETHYL)PHENYL) 5 METHYLISOXAZOLE-4-CARBOXAMIDE; N-[4-(trifluoromethyl)phenyl] 5 methylisoxazole-4-carboxamide

$$$$
