
     RDKit          2D

  9  9  0  0  0  0  0  0  0  0999 V2000
   -0.1709    1.5792    0.0000 N   0  0  0  0  0  0  0  0  0  0  0  0
    0.4125    0.9959    0.0000 C   0  0  0  0  0  0  0  0  0  0  0  0
    0.9959    0.4125    0.0000 C   0  0  0  0  0  0  0  0  0  0  0  0
    0.4125   -0.1709    0.0000 C   0  0  0  0  0  0  0  0  0  0  0  0
    0.4125   -0.9959    0.0000 F   0  0  0  0  0  0  0  0  0  0  0  0
   -0.1709    0.4125    0.0000 C   0  0  0  0  0  0  0  0  0  0  0  0
    0.9959    1.5792    0.0000 C   0  0  0  0  0  0  0  0  0  0  0  0
    0.7823    2.3761    0.0000 O   0  0  0  0  0  0  0  0  0  0  0  0
    1.7928    1.3657    0.0000 O   0  0  0  0  0  0  0  0  0  0  0  0
  2  1  1  1
  2  3  1  0
  2  6  1  0
  2  7  1  0
  4  3  1  0
  4  5  1  6
  4  6  1  0
  7  8  1  0
  7  9  2  0
M  END
>  <DRUGBANK_ID>  (1) 
DB15237

>  <COMMON_NAME>  (1) 
Fluciclovine

>  <CAS_NUMBER>  (1) 
222727-43-7

>  <UNII>  (1) 
YKG0YF688X

>  <SYNONYMS>  (1) 
Anti-1-amino-3-18F-fluorocyclobutane-1-carboxylic acid; Cyclobutanecarboxylic acid, 1-amino-3-fluoro-, trans-

$$$$
