IYZ
     RDKit          2D

 23 26  0  0  0  0  0  0  0  0999 V2000
    3.4403    0.6828    0.0000 C   0  0  0  0  0  0  0  0  0  0  0  0
    3.8528   -0.0317    0.0000 C   0  0  0  0  0  0  0  0  0  0  0  0
    3.0278   -0.0317    0.0000 C   0  0  0  0  0  0  0  0  0  0  0  0
    2.3133   -0.4442    0.0000 C   0  0  0  0  0  0  0  0  0  0  0  0
    1.5988   -0.0317    0.0000 N   0  0  0  0  0  0  0  0  0  0  0  0
    0.8844   -0.4442    0.0000 C   0  0  0  0  0  0  0  0  0  0  0  0
    0.8844   -1.2692    0.0000 C   0  0  0  0  0  0  0  0  0  0  0  0
    0.1699   -1.6817    0.0000 C   0  0  0  0  0  0  0  0  0  0  0  0
    0.1699   -0.0317    0.0000 N   0  0  0  0  0  0  0  0  0  0  0  0
   -0.5446   -0.4442    0.0000 N   0  0  0  0  0  0  0  0  0  0  0  0
   -0.5446   -1.2692    0.0000 C   0  0  0  0  0  0  0  0  0  0  0  0
   -1.3292   -1.5241    0.0000 N   0  0  0  0  0  0  0  0  0  0  0  0
   -1.8141   -0.8567    0.0000 C   0  0  0  0  0  0  0  0  0  0  0  0
   -1.3292   -0.1892    0.0000 C   0  0  0  0  0  0  0  0  0  0  0  0
   -1.5841    0.5954    0.0000 C   0  0  0  0  0  0  0  0  0  0  0  0
   -2.3911    0.7669    0.0000 C   0  0  0  0  0  0  0  0  0  0  0  0
   -1.0321    1.2085    0.0000 C   0  0  0  0  0  0  0  0  0  0  0  0
   -1.2870    1.9931    0.0000 C   0  0  0  0  0  0  0  0  0  0  0  0
   -2.0940    2.1646    0.0000 C   0  0  0  0  0  0  0  0  0  0  0  0
   -2.6461    1.5516    0.0000 C   0  0  0  0  0  0  0  0  0  0  0  0
   -3.4530    1.7231    0.0000 C   0  0  0  0  0  0  0  0  0  0  0  0
   -4.0051    1.1100    0.0000 C   0  0  0  0  0  0  0  0  0  0  0  0
   -3.7080    2.5077    0.0000 O   0  0  0  0  0  0  0  0  0  0  0  0
  1  2  1  0
  1  3  1  0
  2  3  1  0
  3  4  1  0
  4  5  1  0
  5  6  1  0
  6  7  1  0
  6  9  2  0
  7  8  2  0
  8 11  1  0
  9 10  1  0
 10 11  1  0
 10 14  1  0
 11 12  2  0
 12 13  1  0
 13 14  2  0
 14 15  1  0
 15 16  2  0
 15 17  1  0
 16 20  1  0
 17 18  2  0
 18 19  1  0
 19 20  2  0
 20 21  1  0
 21 22  1  0
 21 23  2  0
M  END
>  <DRUGBANK_ID>  (1) 
DB04715

>  <COMMON_NAME>  (1) 
IMIDAZOPYRIDAZIN 1

$$$$
