A19
     RDKit          2D

 21 22  0  0  0  0  0  0  0  0999 V2000
    1.0487    3.4282    0.0000 Cl  0  0  0  0  0  0  0  0  0  0  0  0
    1.0487    2.6033    0.0000 C   0  0  0  0  0  0  0  0  0  0  0  0
    1.7632    2.1907    0.0000 C   0  0  0  0  0  0  0  0  0  0  0  0
    1.7632    1.3657    0.0000 C   0  0  0  0  0  0  0  0  0  0  0  0
    1.0487    0.9532    0.0000 C   0  0  0  0  0  0  0  0  0  0  0  0
    0.3342    1.3658    0.0000 C   0  0  0  0  0  0  0  0  0  0  0  0
    0.3342    2.1907    0.0000 C   0  0  0  0  0  0  0  0  0  0  0  0
    1.0487    0.1282    0.0000 S   0  0  0  0  0  0  0  0  0  0  0  0
    0.2237    0.1283    0.0000 O   0  0  0  0  0  0  0  0  0  0  0  0
    1.8737    0.1282    0.0000 O   0  0  0  0  0  0  0  0  0  0  0  0
    1.0487   -0.6968    0.0000 N   0  0  0  0  0  0  0  0  0  0  0  0
    0.3342   -1.1092    0.0000 C   0  0  0  0  0  0  0  0  0  0  0  0
    0.3342   -1.9343    0.0000 C   0  0  0  0  0  0  0  0  0  0  0  0
   -0.3803   -2.3467    0.0000 C   0  0  0  0  0  0  0  0  0  0  0  0
   -1.0947   -1.9342    0.0000 C   0  0  0  0  0  0  0  0  0  0  0  0
   -1.0947   -1.1092    0.0000 C   0  0  0  0  0  0  0  0  0  0  0  0
   -0.3803   -0.6967    0.0000 C   0  0  0  0  0  0  0  0  0  0  0  0
   -1.8092   -2.3467    0.0000 Br  0  0  0  0  0  0  0  0  0  0  0  0
   -0.3803    0.1283    0.0000 C   0  0  0  0  0  0  0  0  0  0  0  0
   -1.0947    0.5408    0.0000 O   0  0  0  0  0  0  0  0  0  0  0  0
    0.3342    0.5408    0.0000 O   0  0  0  0  0  0  0  0  0  0  0  0
  1  2  1  0
  2  3  2  0
  2  7  1  0
  3  4  1  0
  4  5  2  0
  5  6  1  0
  5  8  1  0
  6  7  2  0
  8  9  2  0
  8 10  2  0
  8 11  1  0
 11 12  1  0
 12 13  2  0
 12 17  1  0
 13 14  1  0
 14 15  2  0
 15 16  1  0
 15 18  1  0
 16 17  2  0
 17 19  1  0
 19 20  1  0
 19 21  2  0
M  END
>  <DRUGBANK_ID>  (1) 
DB07309

>  <COMMON_NAME>  (1) 
5-BROMO-2-{[(4-CHLOROPHENYL)SULFONYL]AMINO}BENZOIC ACID

>  <UNII>  (1) 
WU438K8EAL

$$$$
