
     RDKit          2D

 10  9  0  0  0  0  0  0  0  0999 V2000
    1.7605   -1.8414    0.0000 O   0  0  0  0  0  0  0  0  0  0  0  0
    2.4750   -1.4289    0.0000 C   0  0  0  0  0  0  0  0  0  0  0  0
    3.1895   -1.8414    0.0000 C   0  0  0  0  0  0  0  0  0  0  0  0
    3.1895   -2.6664    0.0000 O   0  0  0  0  0  0  0  0  0  0  0  0
    3.9039   -1.4289    0.0000 C   0  0  0  0  0  0  0  0  0  0  0  0
    4.6184   -1.8414    0.0000 O   0  0  0  0  0  0  0  0  0  0  0  0
    5.3329   -1.4289    0.0000 P   0  0  0  0  0  0  0  0  0  0  0  0
    6.0474   -1.0164    0.0000 O   0  0  0  0  0  0  0  0  0  0  0  0
    5.7454   -2.1434    0.0000 O   0  0  0  0  0  0  0  0  0  0  0  0
    4.9204   -0.7145    0.0000 O   0  0  0  0  0  0  0  0  0  0  0  0
  1  2  1  0
  2  3  1  0
  3  4  2  0
  3  5  1  0
  5  6  1  0
  6  7  1  0
  7  8  1  0
  7  9  1  0
  7 10  2  0
M  END
>  <DRUGBANK_ID>  (1) 
DB04326

>  <SECONDARY_ACCESSION_NUMBERS>  (1) 
EXPT00026; DB12496

>  <COMMON_NAME>  (1) 
Dihydroxyacetone phosphate

>  <CAS_NUMBER>  (1) 
57-04-5

>  <UNII>  (1) 
T7KF2T6W95

>  <SYNONYMS>  (1) 
1-hydroxy-3-(phosphonooxy)-2-Propanone; 1-Hydroxy-3-(phosphonooxy)acetone; 1,3-Dihydroxy-2-propanone monodihydrogen phosphate; 1,3-Dihydroxy-2-propanone phosphate; 1,3-Dihydroxyacetone 1-phosphate; 3-hydroxy-2-oxopropyl phosphate; DHAP; Dihydroxyacetone monophosphate; Glycerone monophosphate; Glycerone phosphate

$$$$
