
     RDKit          2D

 19 16  0  0  0  0  0  0  0  0999 V2000
    0.3423    0.2066    0.0000 O   0  0  0  0  0  0  0  0  0  0  0  0
    1.0563   -0.2066    0.0000 C   0  0  0  0  0  0  0  0  0  0  0  0
    1.7705    0.2066    0.0000 C   0  0  0  0  0  0  0  0  0  0  0  0
    2.4845   -0.2066    0.0000 C   0  0  0  0  0  0  0  0  0  0  0  0
    3.1984    0.2066    0.0000 C   0  0  0  0  0  0  0  0  0  0  0  0
    3.9125   -0.2066    0.0000 O   0  0  0  0  0  0  0  0  0  0  0  0
    1.0521   -1.0334    0.0000 O   0  0  0  0  0  0  0  0  0  0  0  0
    2.4802   -1.0334    0.0000 N   0  0  0  0  0  0  0  0  0  0  0  0
    3.1943    1.0334    0.0000 O   0  0  0  0  0  0  0  0  0  0  0  0
   -3.9125    0.0104    0.0000 Zn  0  0  0  0  0 15  0  0  0  0  0  0
   -1.8969    2.8238    0.0000 O   0  0  0  0  0  0  0  0  0  0  0  0
   -1.1829    2.4105    0.0000 C   0  0  0  0  0  0  0  0  0  0  0  0
   -0.4688    2.8238    0.0000 C   0  0  0  0  0  0  0  0  0  0  0  0
    0.2451    2.4105    0.0000 C   0  0  0  0  0  0  0  0  0  0  0  0
    0.9590    2.8238    0.0000 C   0  0  0  0  0  0  0  0  0  0  0  0
    1.6732    2.4105    0.0000 O   0  0  0  0  0  0  0  0  0  0  0  0
   -1.1871    1.5838    0.0000 O   0  0  0  0  0  0  0  0  0  0  0  0
    0.2408    1.5838    0.0000 N   0  0  0  0  0  0  0  0  0  0  0  0
    0.9549    3.6506    0.0000 O   0  0  0  0  0  0  0  0  0  0  0  0
  1  2  1  0
  2  7  2  0
  2  3  1  0
  3  4  1  0
  4  5  1  0
  4  8  1  0
  5  9  2  0
  5  6  1  0
 11 12  1  0
 12 17  2  0
 12 13  1  0
 13 14  1  0
 14 15  1  0
 14 18  1  0
 15 19  2  0
 15 16  1  0
M  CHG  7   1  -1   6  -1   8   1  10   2  11  -1  16  -1  18   1
M  END
>  <DRUGBANK_ID>  (1) 
DB16006

>  <COMMON_NAME>  (1) 
Zinc DL-aspartate

>  <CAS_NUMBER>  (1) 
15281-32-0

>  <UNII>  (1) 
T967Q579KA

$$$$
