XCF
     RDKit          2D

 26 29  0  0  0  0  0  0  0  0999 V2000
   -3.2019    2.8071    0.0000 N   0  0  0  0  0  0  0  0  0  0  0  0
   -2.4874    2.3946    0.0000 C   0  0  0  0  0  0  0  0  0  0  0  0
   -1.7729    2.8071    0.0000 N   0  0  0  0  0  0  0  0  0  0  0  0
   -2.4874    1.5696    0.0000 N   0  0  0  0  0  0  0  0  0  0  0  0
   -1.7729    1.1571    0.0000 C   0  0  0  0  0  0  0  0  0  0  0  0
   -1.0584    1.5696    0.0000 C   0  0  0  0  0  0  0  0  0  0  0  0
   -1.0584    2.3946    0.0000 C   0  0  0  0  0  0  0  0  0  0  0  0
   -0.3440    2.8071    0.0000 N   0  0  0  0  0  0  0  0  0  0  0  0
   -0.3440    1.1571    0.0000 C   0  0  0  0  0  0  0  0  0  0  0  0
   -0.3440    0.3321    0.0000 C   0  0  0  0  0  0  0  0  0  0  0  0
    0.3705   -0.0804    0.0000 C   0  0  0  0  0  0  0  0  0  0  0  0
    1.0850    0.3321    0.0000 C   0  0  0  0  0  0  0  0  0  0  0  0
    1.7994   -0.0804    0.0000 C   0  0  0  0  0  0  0  0  0  0  0  0
    1.7994   -0.9054    0.0000 C   0  0  0  0  0  0  0  0  0  0  0  0
    2.5139   -1.3179    0.0000 C   0  0  0  0  0  0  0  0  0  0  0  0
    3.3389   -1.3179    0.0000 C   0  0  0  0  0  0  0  0  0  0  0  0
    2.9264   -2.0323    0.0000 C   0  0  0  0  0  0  0  0  0  0  0  0
    1.0850   -1.3179    0.0000 O   0  0  0  0  0  0  0  0  0  0  0  0
    0.3705   -0.9054    0.0000 C   0  0  0  0  0  0  0  0  0  0  0  0
   -0.3440   -1.3179    0.0000 C   0  0  0  0  0  0  0  0  0  0  0  0
   -0.3440   -2.1429    0.0000 O   0  0  0  0  0  0  0  0  0  0  0  0
   -1.0584   -2.5554    0.0000 C   0  0  0  0  0  0  0  0  0  0  0  0
   -1.0584   -0.9054    0.0000 C   0  0  0  0  0  0  0  0  0  0  0  0
   -1.0584   -0.0804    0.0000 C   0  0  0  0  0  0  0  0  0  0  0  0
   -1.7729   -1.3179    0.0000 O   0  0  0  0  0  0  0  0  0  0  0  0
   -2.4874   -0.9054    0.0000 C   0  0  0  0  0  0  0  0  0  0  0  0
  1  2  1  0
  2  3  2  0
  2  4  1  0
  3  7  1  0
  4  5  2  0
  5  6  1  0
  6  7  2  0
  6  9  1  0
  7  8  1  0
  9 10  1  0
 10 11  1  0
 10 24  2  0
 11 12  1  0
 11 19  2  0
 12 13  2  0
 13 14  1  0
 14 15  1  1
 14 18  1  0
 15 16  1  0
 15 17  1  0
 16 17  1  0
 18 19  1  0
 19 20  1  0
 20 21  1  0
 20 23  2  0
 21 22  1  0
 23 24  1  0
 23 25  1  0
 25 26  1  0
M  END
>  <DRUGBANK_ID>  (1) 
DB08741

>  <COMMON_NAME>  (1) 
5-[[(2R)-2-cyclopropyl-7,8-dimethoxy-2H-chromen-5-yl]methyl]pyrimidine-2,4-diamine

>  <UNII>  (1) 
RG4NWL6NKS

$$$$
