
     RDKit          2D

  4  3  0  0  0  0  0  0  0  0999 V2000
    3.5219    0.4909    0.0000 N   0  0  0  0  0  0  0  0  0  0  0  0
    2.0929    0.4909    0.0000 N   0  0  0  0  0  0  0  0  0  0  0  0
    2.8075   -0.7466    0.0000 N   0  0  0  0  0  0  0  0  0  0  0  0
    2.8075    0.0784    0.0000 C   0  0  0  0  0  0  0  0  0  0  0  0
  1  4  1  0
  2  4  1  0
  3  4  2  0
M  END
>  <DRUGBANK_ID>  (1) 
DB00536

>  <SECONDARY_ACCESSION_NUMBERS>  (1) 
APRD01008; EXPT01546

>  <COMMON_NAME>  (1) 
Guanidine

>  <CAS_NUMBER>  (1) 
113-00-8

>  <UNII>  (1) 
JU58VJ6Y3B

>  <SYNONYMS>  (1) 
Aminomethanamidine; Gu; Guanidin; Guanidine; Imidourea; Iminourea

$$$$
