NVC
     RDKit          2D

 26 28  0  0  0  0  0  0  0  0999 V2000
   -0.5815    0.3297    0.0000 O   0  0  0  0  0  0  0  0  0  0  0  0
    0.1330   -0.0828    0.0000 C   0  0  0  0  0  0  0  0  0  0  0  0
    0.1330   -0.9078    0.0000 C   0  0  0  0  0  0  0  0  0  0  0  0
   -0.5815   -1.3203    0.0000 C   0  0  0  0  0  0  0  0  0  0  0  0
   -0.5815   -2.1453    0.0000 C   0  0  0  0  0  0  0  0  0  0  0  0
   -1.2959   -2.5578    0.0000 C   0  0  0  0  0  0  0  0  0  0  0  0
   -1.2959   -3.3828    0.0000 C   0  0  0  0  0  0  0  0  0  0  0  0
    0.8475   -1.3203    0.0000 C   0  0  0  0  0  0  0  0  0  0  0  0
    0.8475   -2.1453    0.0000 N   0  0  0  0  0  0  0  0  0  0  0  0
    0.1330   -2.5578    0.0000 O   0  0  0  0  0  0  0  0  0  0  0  0
    1.5619   -2.5578    0.0000 C   0  0  0  0  0  0  0  0  0  0  0  0
    1.5619   -3.3828    0.0000 O   0  0  0  0  0  0  0  0  0  0  0  0
    0.8475    0.3297    0.0000 N   0  0  0  0  0  0  0  0  0  0  0  0
    0.9337    1.1502    0.0000 C   0  0  0  0  0  0  0  0  0  0  0  0
    1.7407    1.3217    0.0000 C   0  0  0  0  0  0  0  0  0  0  0  0
    2.1532    0.6072    0.0000 C   0  0  0  0  0  0  0  0  0  0  0  0
    1.6011   -0.0059    0.0000 C   0  0  0  0  0  0  0  0  0  0  0  0
    0.3206    1.7022    0.0000 C   0  0  0  0  0  0  0  0  0  0  0  0
    0.4069    2.5227    0.0000 O   0  0  0  0  0  0  0  0  0  0  0  0
   -0.3468    2.8582    0.0000 C   0  0  0  0  0  0  0  0  0  0  0  0
   -0.8989    2.2451    0.0000 C   0  0  0  0  0  0  0  0  0  0  0  0
   -0.4864    1.5307    0.0000 N   0  0  0  0  0  0  0  0  0  0  0  0
   -0.6018    3.6429    0.0000 C   0  0  0  0  0  0  0  0  0  0  0  0
   -1.4087    3.8144    0.0000 C   0  0  0  0  0  0  0  0  0  0  0  0
   -1.9608    3.2013    0.0000 C   0  0  0  0  0  0  0  0  0  0  0  0
   -1.7058    2.4167    0.0000 C   0  0  0  0  0  0  0  0  0  0  0  0
  1  2  2  0
  2  3  1  0
  2 13  1  0
  3  4  1  1
  3  8  1  0
  4  5  1  0
  5  6  1  0
  6  7  1  0
  8  9  1  0
  9 10  1  0
  9 11  1  0
 11 12  2  0
 13 14  1  0
 13 17  1  0
 14 15  1  0
 14 18  1  6
 15 16  1  0
 16 17  1  0
 18 19  1  0
 18 22  2  0
 19 20  1  0
 20 21  2  0
 20 23  1  0
 21 22  1  0
 21 26  1  0
 23 24  2  0
 24 25  1  0
 25 26  2  0
M  END
>  <DRUGBANK_ID>  (1) 
DB08310

>  <COMMON_NAME>  (1) 
N-[(2R)-2-{[(2S)-2-(1,3-benzoxazol-2-yl)pyrrolidin-1-yl]carbonyl}hexyl]-N-hydroxyformamide

$$$$
