BNI
     RDKit          2D

 25 27  0  0  0  0  0  0  0  0999 V2000
    1.4557   -0.5096    0.0000 C   0  0  0  0  0  0  0  0  0  0  0  0
    0.7413   -0.0971    0.0000 C   0  0  0  0  0  0  0  0  0  0  0  0
    0.0268   -0.5096    0.0000 C   0  0  0  0  0  0  0  0  0  0  0  0
   -0.6877   -0.0971    0.0000 C   0  0  0  0  0  0  0  0  0  0  0  0
   -1.4021   -0.5096    0.0000 C   0  0  0  0  0  0  0  0  0  0  0  0
   -2.1166   -0.0971    0.0000 C   0  0  0  0  0  0  0  0  0  0  0  0
   -3.4223    0.1804    0.0000 C   0  0  0  0  0  0  0  0  0  0  0  0
   -2.2029    0.7234    0.0000 C   0  0  0  0  0  0  0  0  0  0  0  0
   -3.0098    0.8949    0.0000 C   0  0  0  0  0  0  0  0  0  0  0  0
   -2.3424    2.0509    0.0000 C   0  0  0  0  0  0  0  0  0  0  0  0
    1.4557   -1.3346    0.0000 O   0  0  0  0  0  0  0  0  0  0  0  0
   -2.1709    2.8579    0.0000 O   0  0  0  0  0  0  0  0  0  0  0  0
   -3.0961    1.7154    0.0000 N   0  0  0  0  0  0  0  0  0  0  0  0
   -1.7904    1.4378    0.0000 N   0  0  0  0  0  0  0  0  0  0  0  0
   -2.8703   -0.4327    0.0000 S   0  0  0  0  0  0  0  0  0  0  0  0
    2.1702   -0.0971    0.0000 N   0  0  0  0  0  0  0  0  0  0  0  0
    2.8847   -0.5096    0.0000 C   0  0  0  0  0  0  0  0  0  0  0  0
    3.5991   -0.0971    0.0000 C   0  0  0  0  0  0  0  0  0  0  0  0
    4.3136   -0.5096    0.0000 C   0  0  0  0  0  0  0  0  0  0  0  0
    4.3136   -1.3346    0.0000 C   0  0  0  0  0  0  0  0  0  0  0  0
    3.5991   -1.7471    0.0000 C   0  0  0  0  0  0  0  0  0  0  0  0
    2.8847   -1.3346    0.0000 C   0  0  0  0  0  0  0  0  0  0  0  0
    5.0281   -1.7471    0.0000 N   0  0  0  0  0  0  0  0  0  0  0  0
    5.7426   -1.3346    0.0000 O   0  0  0  0  0  0  0  0  0  0  0  0
    5.0281   -2.5721    0.0000 O   0  0  0  0  0  0  0  0  0  0  0  0
  1  2  1  0
  1 11  2  0
  1 16  1  0
  2  3  1  0
  3  4  1  0
  4  5  1  0
  6  5  1  6
  6  8  1  0
  6 15  1  0
  9  7  1  6
  7 15  1  0
  8  9  1  0
  8 14  1  6
  9 13  1  0
 10 12  2  0
 10 13  1  0
 10 14  1  0
 16 17  1  0
 17 18  2  0
 17 22  1  0
 18 19  1  0
 19 20  2  0
 20 21  1  0
 20 23  1  0
 21 22  2  0
 23 24  2  0
 23 25  1  0
M  CHG  2  23   1  25  -1
M  END
>  <DRUGBANK_ID>  (1) 
DB03549

>  <SECONDARY_ACCESSION_NUMBERS>  (1) 
EXPT00731

>  <COMMON_NAME>  (1) 
Biotinyl P-Nitroaniline

$$$$
