
     RDKit          2D

 25 27  0  0  0  0  0  0  0  0999 V2000
   -5.1659    3.6664    0.0000 C   0  0  0  0  0  0  0  0  0  0  0  0
   -3.9284    4.3808    0.0000 C   0  0  0  0  0  0  0  0  0  0  0  0
   -2.6909    0.8085    0.0000 C   0  0  0  0  0  0  0  0  0  0  0  0
   -1.8659    0.8085    0.0000 C   0  0  0  0  0  0  0  0  0  0  0  0
   -3.1034    1.5229    0.0000 C   0  0  0  0  0  0  0  0  0  0  0  0
    1.3556    0.6979    0.0000 C   0  0  0  0  0  0  0  0  0  0  0  0
    1.3556    2.3479    0.0000 C   0  0  0  0  0  0  0  0  0  0  0  0
   -3.9284    2.9519    0.0000 C   0  0  0  0  0  0  0  0  0  0  0  0
   -4.3409    3.6664    0.0000 C   0  0  0  0  0  0  0  0  0  0  0  0
   -1.4534    1.5229    0.0000 C   0  0  0  0  0  0  0  0  0  0  0  0
    2.0701    1.1104    0.0000 C   0  0  0  0  0  0  0  0  0  0  0  0
    2.0701    1.9354    0.0000 C   0  0  0  0  0  0  0  0  0  0  0  0
    0.6411    1.1104    0.0000 C   0  0  0  0  0  0  0  0  0  0  0  0
    0.6411    1.9354    0.0000 C   0  0  0  0  0  0  0  0  0  0  0  0
   -2.6909    2.2374    0.0000 C   0  0  0  0  0  0  0  0  0  0  0  0
   -1.8659    2.2374    0.0000 C   0  0  0  0  0  0  0  0  0  0  0  0
    2.7845    0.6979    0.0000 C   0  0  0  0  0  0  0  0  0  0  0  0
   -0.6284    1.5229    0.0000 C   0  0  0  0  0  0  0  0  0  0  0  0
    2.7845    2.3479    0.0000 Cl  0  0  0  0  0  0  0  0  0  0  0  0
    3.4990    1.1104    0.0000 N   0  0  0  0  0  0  0  0  0  0  0  0
    2.7845   -0.1271    0.0000 N   0  0  0  0  0  0  0  0  0  0  0  0
   -0.1435    0.8555    0.0000 N   0  0  0  0  0  0  0  0  0  0  0  0
   -0.1435    2.1904    0.0000 N   0  0  0  0  0  0  0  0  0  0  0  0
   -1.4534    2.9519    0.0000 O   0  0  0  0  0  0  0  0  0  0  0  0
   -3.1034    2.9519    0.0000 O   0  0  0  0  0  0  0  0  0  0  0  0
  4  3  2  0
  5  3  1  0
  9  1  1  0
  9  2  1  0
  9  8  1  0
 10  4  1  0
 11  6  2  0
 12  7  2  0
 12 11  1  0
 13  6  1  0
 14  7  1  0
 14 13  2  0
 15  5  2  0
 16 10  2  0
 16 15  1  0
 17 11  1  0
 18 10  1  0
 19 12  1  0
 20 17  2  0
 21 17  1  0
 22 13  1  0
 22 18  2  0
 23 14  1  0
 23 18  1  0
 24 16  1  0
 25  8  1  0
 25 15  1  0
M  END
>  <DRUGBANK_ID>  (1) 
DB02989

>  <SECONDARY_ACCESSION_NUMBERS>  (1) 
EXPT00346

>  <COMMON_NAME>  (1) 
CRA_10972

$$$$
