
     RDKit          2D

 32 35  0  0  0  0  0  0  0  0999 V2000
   -1.7541    3.0645    0.0000 C   0  0  0  0  0  0  0  0  0  0  0  0
   -0.3251    3.0645    0.0000 C   0  0  0  0  0  0  0  0  0  0  0  0
   -0.1790   -3.7058    0.0000 C   0  0  0  0  0  0  0  0  0  0  0  0
    1.1263   -4.2870    0.0000 C   0  0  0  0  0  0  0  0  0  0  0  0
    0.9769   -2.8659    0.0000 C   0  0  0  0  0  0  0  0  0  0  0  0
   -0.3722    1.3420    0.0000 C   0  0  0  0  0  0  0  0  0  0  0  0
    1.9836   -0.6049    0.0000 C   0  0  0  0  0  0  0  0  0  0  0  0
   -1.0396    2.6520    0.0000 C   0  0  0  0  0  0  0  0  0  0  0  0
    0.3058   -4.3733    0.0000 C   0  0  0  0  0  0  0  0  0  0  0  0
    0.1565   -2.9522    0.0000 C   0  0  0  0  0  0  0  0  0  0  0  0
   -1.7541    3.8895    0.0000 C   0  0  0  0  0  0  0  0  0  0  0  0
   -0.3251    3.8895    0.0000 C   0  0  0  0  0  0  0  0  0  0  0  0
   -1.0396    1.8270    0.0000 C   0  0  0  0  0  0  0  0  0  0  0  0
    1.1631   -0.6911    0.0000 C   0  0  0  0  0  0  0  0  0  0  0  0
   -1.0396    4.3020    0.0000 C   0  0  0  0  0  0  0  0  0  0  0  0
   -0.1422   -0.1099    0.0000 C   0  0  0  0  0  0  0  0  0  0  0  0
    0.6782   -0.0237    0.0000 C   0  0  0  0  0  0  0  0  0  0  0  0
   -0.4777   -0.8636    0.0000 C   0  0  0  0  0  0  0  0  0  0  0  0
    0.0071   -1.5310    0.0000 C   0  0  0  0  0  0  0  0  0  0  0  0
   -0.0296   -5.1270    0.0000 Br  0  0  0  0  0  0  0  0  0  0  0  0
   -2.4685    4.3020    0.0000 F   0  0  0  0  0  0  0  0  0  0  0  0
    0.3892    4.3020    0.0000 F   0  0  0  0  0  0  0  0  0  0  0  0
   -1.0396    5.1270    0.0000 F   0  0  0  0  0  0  0  0  0  0  0  0
    1.4619   -3.5334    0.0000 N   0  0  0  0  0  0  0  0  0  0  0  0
   -1.7070    1.3420    0.0000 N   0  0  0  0  0  0  0  0  0  0  0  0
   -1.4521    0.5574    0.0000 N   0  0  0  0  0  0  0  0  0  0  0  0
   -0.6271    0.5574    0.0000 N   0  0  0  0  0  0  0  0  0  0  0  0
    2.4685   -1.2723    0.0000 O   0  0  0  0  0  0  0  0  0  0  0  0
    1.0138    0.7299    0.0000 O   0  0  0  0  0  0  0  0  0  0  0  0
   -1.2982   -0.9498    0.0000 O   0  0  0  0  0  0  0  0  0  0  0  0
    0.8276   -1.4448    0.0000 O   0  0  0  0  0  0  0  0  0  0  0  0
   -0.3284   -2.2847    0.0000 S   0  0  0  0  0  0  0  0  0  0  0  0
  8  1  2  0
  8  2  1  0
  9  3  2  0
  9  4  1  0
 10  3  1  0
 10  5  2  0
 11  1  1  0
 12  2  2  0
 13  6  2  0
 13  8  1  0
 14  7  1  0
 15 11  2  0
 15 12  1  0
 17 14  1  0
 17 16  1  0
 18 16  1  0
 19 18  1  0
 20  9  1  0
 21 11  1  0
 22 12  1  0
 23 15  1  0
 24  4  2  0
 24  5  1  0
 25 13  1  0
 26 25  2  0
 27  6  1  0
 27 16  1  0
 27 26  1  0
 28  7  1  0
 29 17  1  0
 30 18  1  0
 31 14  1  0
 31 19  1  0
 32 10  1  0
 32 19  1  0
M  END
>  <DRUGBANK_ID>  (1) 
DB17499

>  <COMMON_NAME>  (1) 
GB1211

>  <CAS_NUMBER>  (1) 
1978336-95-6

>  <UNII>  (1) 
94EN2E6BLW

$$$$
