
     RDKit          2D

 35 39  0  0  1  0  0  0  0  0999 V2000
    5.7158    4.9500    0.0000 C   0  0  0  0  0  0  0  0  0  0  0  0
    6.4302    4.5375    0.0000 O   0  0  0  0  0  0  0  0  0  0  0  0
    7.1447    4.9500    0.0000 C   0  0  0  0  0  0  0  0  0  0  0  0
    7.8592    4.5375    0.0000 C   0  0  0  0  0  0  0  0  0  0  0  0
    8.5737    4.9500    0.0000 N   0  0  0  0  0  0  0  0  0  0  0  0
    9.2881    4.5375    0.0000 C   0  0  0  0  0  0  0  0  0  0  0  0
   10.0026    4.9500    0.0000 C   0  0  0  0  0  0  0  0  0  0  0  0
   10.7171    4.5375    0.0000 C   0  0  0  0  0  0  0  0  0  0  0  0
   11.4315    4.9500    0.0000 C   0  0  0  0  0  0  0  0  0  0  0  0
   12.1460    4.5375    0.0000 C   0  0  0  0  0  0  0  0  0  0  0  0
   12.8605    4.9500    0.0000 N   0  0  0  0  0  0  0  0  0  0  0  0
   13.5749    4.5375    0.0000 C   0  0  0  0  0  0  0  0  0  0  0  0
   14.2894    4.9500    0.0000 N   0  0  0  0  0  0  0  0  0  0  0  0
   15.0039    4.5375    0.0000 C   0  0  0  0  0  0  0  0  0  0  0  0
   15.0039    3.7125    0.0000 C   0  0  0  0  0  0  0  0  0  0  0  0
   15.7184    3.3000    0.0000 C   0  0  0  0  0  0  0  0  0  0  0  0
   15.7184    2.4750    0.0000 C   0  0  0  0  0  0  0  0  0  0  0  0
   16.4328    2.0625    0.0000 C   0  0  0  0  0  0  0  0  0  0  0  0
   17.1473    2.4750    0.0000 C   0  0  0  0  0  0  0  0  0  0  0  0
   17.8618    2.0625    0.0000 C   0  0  0  0  0  0  0  0  0  0  0  0
   17.8618    1.2375    0.0000 C   0  0  0  0  0  0  0  0  0  0  0  0
   17.1473    0.8250    0.0000 C   0  0  0  0  0  0  0  0  0  0  0  0
   16.4328    1.2375    0.0000 C   0  0  0  0  0  0  0  0  0  0  0  0
   15.7184    0.8250    0.0000 F   0  0  0  0  0  0  0  0  0  0  0  0
   15.0039    2.0625    0.0000 C   0  0  0  0  0  0  0  0  0  0  0  0
   15.0039    1.2375    0.0000 C   0  0  0  0  0  0  0  0  0  0  0  0
   14.2894    0.8250    0.0000 C   0  0  0  0  0  0  0  0  0  0  0  0
   13.5749    1.2375    0.0000 C   0  0  0  0  0  0  0  0  0  0  0  0
   13.5749    2.0625    0.0000 C   0  0  0  0  0  0  0  0  0  0  0  0
   14.2894    2.4750    0.0000 C   0  0  0  0  0  0  0  0  0  0  0  0
   14.2894    3.3000    0.0000 C   0  0  0  0  0  0  0  0  0  0  0  0
   13.5749    3.7125    0.0000 N   0  0  0  0  0  0  0  0  0  0  0  0
   12.1460    3.7125    0.0000 C   0  0  0  0  0  0  0  0  0  0  0  0
   11.4315    3.3000    0.0000 C   0  0  0  0  0  0  0  0  0  0  0  0
   10.7171    3.7125    0.0000 C   0  0  0  0  0  0  0  0  0  0  0  0
  1  2  1  0
  2  3  1  0
  3  4  1  0
  4  5  1  0
  5  6  1  0
  6  7  1  0
  7  8  1  0
  8  9  2  0
  8 35  1  0
  9 10  1  0
 10 11  1  0
 10 33  2  0
 11 12  1  0
 12 13  2  0
 12 32  1  0
 13 14  1  0
 14 15  2  0
 15 16  1  0
 15 31  1  0
 17 16  1  0
 17 18  1  1
 17 25  1  0
 18 19  2  0
 18 23  1  0
 19 20  1  0
 20 21  2  0
 21 22  1  0
 22 23  2  0
 23 24  1  0
 25 26  1  0
 25 30  2  0
 26 27  2  0
 27 28  1  0
 28 29  2  0
 29 30  1  0
 30 31  1  0
 31 32  2  0
 33 34  1  0
 34 35  2  0
M  END
>  <DRUGBANK_ID>  (1) 
DB14889

>  <COMMON_NAME>  (1) 
Derazantinib

>  <CAS_NUMBER>  (1) 
1234356-69-4

>  <UNII>  (1) 
N9B0H171MJ

>  <SYNONYMS>  (1) 
Derazantinib

$$$$
