FPT
     RDKit          2D

 24 25  0  0  0  0  0  0  0  0999 V2000
   -2.9491    0.0581    0.0000 C   0  0  0  0  0  0  0  0  0  0  0  0
   -3.6635   -0.3544    0.0000 N   0  0  0  0  0  0  0  0  0  0  0  0
   -4.3780    0.0581    0.0000 C   0  0  0  0  0  0  0  0  0  0  0  0
   -4.3780    0.8831    0.0000 C   0  0  0  0  0  0  0  0  0  0  0  0
   -3.6635    1.2956    0.0000 C   0  0  0  0  0  0  0  0  0  0  0  0
   -2.9491    0.8831    0.0000 C   0  0  0  0  0  0  0  0  0  0  0  0
   -5.0925    1.2956    0.0000 C   0  0  0  0  0  0  0  0  0  0  0  0
   -5.8069    1.7081    0.0000 N   0  0  0  0  0  0  0  0  0  0  0  0
   -2.2346   -0.3544    0.0000 N   0  0  0  0  0  0  0  0  0  0  0  0
   -1.5201    0.0581    0.0000 C   0  0  0  0  0  0  0  0  0  0  0  0
   -1.5201    0.8831    0.0000 S   0  0  0  0  0  0  0  0  0  0  0  0
   -0.8056   -0.3544    0.0000 N   0  0  0  0  0  0  0  0  0  0  0  0
   -0.0912    0.0581    0.0000 C   0  0  0  0  0  0  0  0  0  0  0  0
    0.6233   -0.3544    0.0000 C   0  0  0  0  0  0  0  0  0  0  0  0
    1.3378    0.0581    0.0000 C   0  0  0  0  0  0  0  0  0  0  0  0
    1.3378    0.8831    0.0000 N   0  0  0  0  0  0  0  0  0  0  0  0
    2.0522    1.2956    0.0000 C   0  0  0  0  0  0  0  0  0  0  0  0
    2.7667    0.8831    0.0000 C   0  0  0  0  0  0  0  0  0  0  0  0
    2.7667    0.0581    0.0000 C   0  0  0  0  0  0  0  0  0  0  0  0
    2.0522   -0.3544    0.0000 C   0  0  0  0  0  0  0  0  0  0  0  0
    3.4812   -0.3544    0.0000 O   0  0  0  0  0  0  0  0  0  0  0  0
    3.4812   -1.1794    0.0000 C   0  0  0  0  0  0  0  0  0  0  0  0
    4.1956   -1.5919    0.0000 C   0  0  0  0  0  0  0  0  0  0  0  0
    2.0522   -1.1794    0.0000 F   0  0  0  0  0  0  0  0  0  0  0  0
  1  2  2  0
  1  6  1  0
  1  9  1  0
  2  3  1  0
  3  4  2  0
  4  5  1  0
  4  7  1  0
  5  6  2  0
  7  8  3  0
  9 10  1  0
 10 11  2  0
 10 12  1  0
 12 13  1  0
 13 14  1  0
 14 15  1  0
 15 16  2  0
 15 20  1  0
 16 17  1  0
 17 18  2  0
 18 19  1  0
 19 20  2  0
 19 21  1  0
 20 24  1  0
 21 22  1  0
 22 23  1  0
M  END
>  <DRUGBANK_ID>  (1) 
DB07781

>  <COMMON_NAME>  (1) 
N-[[3-FLUORO-4-ETHOXY-PYRID-2-YL]ETHYL]-N'-[5-NITRILOMETHYL-PYRIDYL]-THIOUREA

$$$$
