
     RDKit          2D

 16 17  0  0  0  0  0  0  0  0999 V2000
    5.0013    1.2375    0.0000 C   0  0  0  0  0  0  0  0  0  0  0  0
    3.5724    2.0625    0.0000 C   0  0  0  0  0  0  0  0  0  0  0  0
    3.5724   -1.2375    0.0000 C   0  0  0  0  0  0  0  0  0  0  0  0
    0.6165    0.6817    0.0000 C   0  0  0  0  0  0  0  0  0  0  0  0
    1.1468    1.6002    0.0000 C   0  0  0  0  0  0  0  0  0  0  0  0
    2.1434   -0.4125    0.0000 C   0  0  0  0  0  0  0  0  0  0  0  0
    1.4289    0.0000    0.0000 C   0  0  0  0  0  0  0  0  0  0  0  0
    4.2868    0.8250    0.0000 C   0  0  0  0  0  0  0  0  0  0  0  0
    3.5724    1.2375    0.0000 C   0  0  0  0  0  0  0  0  0  0  0  0
    3.5724   -0.4125    0.0000 C   0  0  0  0  0  0  0  0  0  0  0  0
    2.8579    0.0000    0.0000 C   0  0  0  0  0  0  0  0  0  0  0  0
    4.2868    0.0000    0.0000 C   0  0  0  0  0  0  0  0  0  0  0  0
    2.8579    0.8250    0.0000 C   0  0  0  0  0  0  0  0  0  0  0  0
    1.4289    0.8250    0.0000 C   0  0  0  0  0  0  0  0  0  0  0  0
    5.0013   -0.4125    0.0000 O   0  0  0  0  0  0  0  0  0  0  0  0
    2.1434    1.2375    0.0000 O   0  0  0  0  0  0  0  0  0  0  0  0
  7  6  1  0
  8  1  1  0
  9  2  1  0
  9  8  1  0
 10  3  1  0
 11  6  1  0
 11 10  2  0
 12  8  2  0
 12 10  1  0
 13  9  2  0
 13 11  1  0
 14  4  1  0
 14  5  1  0
 14  7  1  0
 15 12  1  0
 16 13  1  0
 16 14  1  0
M  END
>  <DRUGBANK_ID>  (1) 
DB13111

>  <COMMON_NAME>  (1) 
Chromanol

>  <CAS_NUMBER>  (1) 
950-99-2

>  <UNII>  (1) 
7G73627R36

$$$$
