SAG
     RDKit          2D

 22 23  0  0  0  0  0  0  0  0999 V2000
   -2.8266    3.3541    0.0000 F   0  0  0  0  0  0  0  0  0  0  0  0
   -2.8266    2.5291    0.0000 C   0  0  0  0  0  0  0  0  0  0  0  0
   -2.1122    2.1166    0.0000 C   0  0  0  0  0  0  0  0  0  0  0  0
   -3.5411    2.1166    0.0000 C   0  0  0  0  0  0  0  0  0  0  0  0
   -3.5411    1.2916    0.0000 C   0  0  0  0  0  0  0  0  0  0  0  0
   -2.8266    0.8791    0.0000 C   0  0  0  0  0  0  0  0  0  0  0  0
   -2.1122    1.2916    0.0000 C   0  0  0  0  0  0  0  0  0  0  0  0
   -1.3977    0.8791    0.0000 C   0  0  0  0  0  0  0  0  0  0  0  0
   -0.6832    1.2916    0.0000 O   0  0  0  0  0  0  0  0  0  0  0  0
    0.0312    0.8791    0.0000 C   0  0  0  0  0  0  0  0  0  0  0  0
    0.7457    1.2916    0.0000 C   0  0  0  0  0  0  0  0  0  0  0  0
    1.4602    0.8791    0.0000 C   0  0  0  0  0  0  0  0  0  0  0  0
    0.0312    0.0541    0.0000 C   0  0  0  0  0  0  0  0  0  0  0  0
    0.7457   -0.3584    0.0000 C   0  0  0  0  0  0  0  0  0  0  0  0
    1.4602    0.0541    0.0000 C   0  0  0  0  0  0  0  0  0  0  0  0
    2.1746   -0.3584    0.0000 C   0  0  0  0  0  0  0  0  0  0  0  0
    2.1746   -1.1834    0.0000 N   0  0  0  0  0  0  0  0  0  0  0  0
    2.8891   -1.5959    0.0000 C   0  0  0  0  0  0  0  0  0  0  0  0
    3.6036   -1.1834    0.0000 C   0  0  0  0  0  0  0  0  0  0  0  0
    2.8891   -2.4209    0.0000 C   0  0  0  0  0  0  0  0  0  0  0  0
    3.6036   -2.8334    0.0000 O   0  0  0  0  0  0  0  0  0  0  0  0
    2.1746   -2.8334    0.0000 N   0  0  0  0  0  0  0  0  0  0  0  0
  1  2  1  0
  2  3  2  0
  2  4  1  0
  3  7  1  0
  4  5  2  0
  5  6  1  0
  6  7  2  0
  7  8  1  0
  8  9  1  0
  9 10  1  0
 10 11  2  0
 10 13  1  0
 11 12  1  0
 12 15  2  0
 13 14  2  0
 14 15  1  0
 15 16  1  0
 16 17  2  0
 17 18  1  0
 18 19  1  1
 18 20  1  0
 20 21  2  0
 20 22  1  0
M  END
>  <DRUGBANK_ID>  (1) 
DB08516

>  <COMMON_NAME>  (1) 
(S)-(+)-2-[4-(FLUOROBENZYLOXY-BENZYLAMINO)PROPIONAMIDE]

$$$$
