
     RDKit          2D

 28 30  0  0  0  0  0  0  0  0999 V2000
   -3.5516    0.8360    0.0000 C   0  0  0  0  0  0  0  0  0  0  0  0
   -3.1326    1.5449    0.0000 O   0  0  0  0  0  0  0  0  0  0  0  0
    0.7267   -0.8468    0.0000 C   0  0  0  0  0  0  0  0  0  0  0  0
    0.7249    0.8038    0.0000 C   0  0  0  0  0  0  0  0  0  0  0  0
    0.0129   -0.4344    0.0000 C   0  0  0  0  0  0  0  0  0  0  0  0
    0.0171    0.3916    0.0000 C   0  0  0  0  0  0  0  0  0  0  0  0
   -0.6921    0.8061    0.0000 C   0  0  0  0  0  0  0  0  0  0  0  0
   -0.7005   -0.8463    0.0000 C   0  0  0  0  0  0  0  0  0  0  0  0
    1.4391    0.3952    0.0000 C   0  0  0  0  0  0  0  0  0  0  0  0
    1.4380   -0.4319    0.0000 C   0  0  0  0  0  0  0  0  0  0  0  0
    2.1523    0.8101    0.0000 O   0  0  0  0  0  0  0  0  0  0  0  0
    2.8686    0.3932    0.0000 C   0  0  0  0  0  0  0  0  0  0  0  0
    3.5812    0.8052    0.0000 C   0  0  0  0  0  0  0  0  0  0  0  0
    4.2946    0.3872    0.0000 O   0  0  0  0  0  0  0  0  0  0  0  0
    5.7174    0.3756    0.0000 C   0  0  0  0  0  0  0  0  0  0  0  0
    5.0072    0.7955    0.0000 C   0  0  0  0  0  0  0  0  0  0  0  0
   -1.4144   -0.4272    0.0000 C   0  0  0  0  0  0  0  0  0  0  0  0
   -1.4091    0.4021    0.0000 C   0  0  0  0  0  0  0  0  0  0  0  0
   -2.1208    0.8191    0.0000 N   0  0  0  0  0  0  0  0  0  0  0  0
   -2.8380    0.4145    0.0000 C   0  0  0  0  0  0  0  0  0  0  0  0
   -4.2869   -0.4014    0.0000 C   0  0  0  0  0  0  0  0  0  0  0  0
   -4.2740    0.4278    0.0000 C   0  0  0  0  0  0  0  0  0  0  0  0
   -4.9849    0.8517    0.0000 C   0  0  0  0  0  0  0  0  0  0  0  0
   -5.7086    0.4473    0.0000 C   0  0  0  0  0  0  0  0  0  0  0  0
   -5.7174   -0.3850    0.0000 C   0  0  0  0  0  0  0  0  0  0  0  0
   -5.0062   -0.8051    0.0000 C   0  0  0  0  0  0  0  0  0  0  0  0
    3.5835    1.6287    0.0000 O   0  0  0  0  0  0  0  0  0  0  0  0
   -5.0152   -1.6287    0.0000 Cl  0  0  0  0  0  0  0  0  0  0  0  0
  1 22  1  0
  1  2  1  1
  3 10  2  0
  4  6  1  0
  5  3  1  0
  5  8  1  0
  5  6  2  0
  6  7  1  0
  7 18  1  0
  9 10  1  0
  9  4  2  0
  9 11  1  0
 12 11  1  0
 12 13  1  0
 13 27  2  0
 14 13  1  0
 14 16  1  0
 15 16  1  0
 17 18  1  0
 17  8  1  0
 18 19  1  6
 19 20  1  0
 20  1  1  0
 21 22  2  0
 22 23  1  0
 23 24  2  0
 24 25  1  0
 25 26  2  0
 26 21  1  0
 26 28  1  0
M  END
>  <DRUGBANK_ID>  (1) 
DB05395

>  <COMMON_NAME>  (1) 
Amibegron

>  <CAS_NUMBER>  (1) 
121524-08-1

>  <UNII>  (1) 
PDQ3ME68U3

>  <SYNONYMS>  (1) 
Amibegron

$$$$
