
     RDKit          2D

 37 41  0  0  1  0  0  0  0  0999 V2000
   -4.9395   -4.1865    0.0000 C   0  0  0  0  0  0  0  0  0  0  0  0
   -5.9169   -1.5010    0.0000 C   0  0  0  0  0  0  0  0  0  0  0  0
    4.0668    2.3479    0.0000 C   0  0  0  0  0  0  0  0  0  0  0  0
    2.6378   -0.1271    0.0000 C   0  0  0  0  0  0  0  0  0  0  0  0
   -4.1642   -3.9044    0.0000 C   0  0  0  0  0  0  0  0  0  0  0  0
   -5.1417   -1.2188    0.0000 C   0  0  0  0  0  0  0  0  0  0  0  0
   -1.4512   -2.7548    0.0000 C   0  0  0  0  0  0  0  0  0  0  0  0
   -0.6388   -2.6116    0.0000 C   0  0  0  0  0  0  0  0  0  0  0  0
   -1.8385   -2.0264    0.0000 C   0  0  0  0  0  0  0  0  0  0  0  0
   -0.5239   -1.7946    0.0000 C   0  0  0  0  0  0  0  0  0  0  0  0
   -2.3272   -1.7151    0.0000 C   0  0  0  0  0  0  0  0  0  0  0  0
   -2.1839   -0.9026    0.0000 C   0  0  0  0  0  0  0  0  0  0  0  0
    3.3523    1.1104    0.0000 C   0  0  0  0  0  0  0  0  0  0  0  0
   -3.2457   -2.8097    0.0000 C   0  0  0  0  0  0  0  0  0  0  0  0
   -3.7344   -1.4670    0.0000 C   0  0  0  0  0  0  0  0  0  0  0  0
   -0.1712    1.5229    0.0000 C   0  0  0  0  0  0  0  0  0  0  0  0
   -0.5837   -0.6205    0.0000 C   0  0  0  0  0  0  0  0  0  0  0  0
    3.3523    1.9354    0.0000 C   0  0  0  0  0  0  0  0  0  0  0  0
    2.6378    0.6979    0.0000 C   0  0  0  0  0  0  0  0  0  0  0  0
   -3.1025   -1.9973    0.0000 C   0  0  0  0  0  0  0  0  0  0  0  0
   -1.2654   -1.4329    0.0000 C   0  0  0  0  0  0  0  0  0  0  0  0
   -4.0210   -3.0919    0.0000 C   0  0  0  0  0  0  0  0  0  0  0  0
   -4.5097   -1.7491    0.0000 C   0  0  0  0  0  0  0  0  0  0  0  0
   -0.5837    0.8085    0.0000 C   0  0  0  0  0  0  0  0  0  0  0  0
   -0.1712    0.0940    0.0000 C   0  0  0  0  0  0  0  0  0  0  0  0
    0.6538    1.5229    0.0000 C   0  0  0  0  0  0  0  0  0  0  0  0
   -1.4087    0.8085    0.0000 C   0  0  0  0  0  0  0  0  0  0  0  0
    1.9233    1.9354    0.0000 C   0  0  0  0  0  0  0  0  0  0  0  0
   -1.4087   -0.6205    0.0000 C   0  0  0  0  0  0  0  0  0  0  0  0
    2.6378    2.3479    0.0000 N   0  0  0  0  0  0  0  0  0  0  0  0
   -4.6529   -2.5616    0.0000 N   0  0  0  0  0  0  0  0  0  0  0  0
    1.1387    2.1904    0.0000 N   0  0  0  0  0  0  0  0  0  0  0  0
    1.1387    0.8555    0.0000 N   0  0  0  0  0  0  0  0  0  0  0  0
    1.9233    1.1104    0.0000 N   0  0  0  0  0  0  0  0  0  0  0  0
    0.6538    0.0940    0.0000 O   0  0  0  0  0  0  0  0  0  0  0  0
   -1.8212    1.5229    0.0000 O   0  0  0  0  0  0  0  0  0  0  0  0
   -1.8212    0.0940    0.0000 O   0  0  0  0  0  0  0  0  0  0  0  0
  5  1  1  0
  6  2  1  0
  8  7  1  0
  9  7  1  0
 10  8  1  0
 12 11  1  0
 18  3  1  0
 18 13  1  0
 19  4  1  0
 19 13  2  0
 20 11  1  0
 20 14  2  0
 20 15  1  0
 21  9  1  0
 21 10  1  0
 22  5  1  0
 22 14  1  0
 23  6  1  0
 23 15  2  0
 24 16  1  0
 25 17  1  0
 25 24  2  0
 26 16  1  0
 27 24  1  0
 29 12  1  1
 29 17  1  0
 29 21  1  0
 30 18  2  0
 30 28  1  0
 31 22  2  0
 31 23  1  0
 32 26  1  0
 32 28  2  0
 33 26  2  0
 34 19  1  0
 34 28  1  0
 34 33  1  0
 35 25  1  0
 36 27  2  0
 37 27  1  0
 37 29  1  0
M  END
>  <DRUGBANK_ID>  (1) 
DB11878

>  <COMMON_NAME>  (1) 
Filibuvir

>  <CAS_NUMBER>  (1) 
877130-28-4

>  <UNII>  (1) 
198J479Y2L

>  <SYNONYMS>  (1) 
Filibuvir

$$$$
