
     RDKit          2D

 37 42  0  0  1  0  0  0  0  0999 V2000
   -0.6928   -0.9894    0.0000 C   0  0  0  0  0  0  0  0  0  0  0  0
   -1.3247   -0.4591    0.0000 C   0  0  0  0  0  0  0  0  0  0  0  0
   -1.1815    0.3534    0.0000 C   0  0  0  0  0  0  0  0  0  0  0  0
   -0.4062    0.6356    0.0000 C   0  0  0  0  0  0  0  0  0  0  0  0
    0.2257    0.1053    0.0000 C   0  0  0  0  0  0  0  0  0  0  0  0
    0.0825   -0.7072    0.0000 C   0  0  0  0  0  0  0  0  0  0  0  0
    0.7145   -1.2375    0.0000 C   0  0  0  0  0  0  0  0  0  0  0  0
    1.1270   -1.9520    0.0000 C   0  0  0  0  0  0  0  0  0  0  0  0
    0.3020   -1.9520    0.0000 C   0  0  0  0  0  0  0  0  0  0  0  0
   -0.4125   -2.3645    0.0000 C   0  0  0  0  0  0  0  0  0  0  0  0
   -0.4125   -3.1895    0.0000 C   0  0  0  0  0  0  0  0  0  0  0  0
   -1.1270   -3.6020    0.0000 C   0  0  0  0  0  0  0  0  0  0  0  0
   -1.8414   -3.1895    0.0000 C   0  0  0  0  0  0  0  0  0  0  0  0
   -1.8414   -2.3645    0.0000 C   0  0  0  0  0  0  0  0  0  0  0  0
   -1.1270   -1.9520    0.0000 C   0  0  0  0  0  0  0  0  0  0  0  0
    1.3465   -0.7072    0.0000 C   0  0  0  0  0  0  0  0  0  0  0  0
    1.2032    0.1053    0.0000 O   0  0  0  0  0  0  0  0  0  0  0  0
    2.1217   -0.9894    0.0000 N   0  0  0  0  0  0  0  0  0  0  0  0
    2.2650   -1.8018    0.0000 C   0  0  0  0  0  0  0  0  0  0  0  0
    3.0065   -2.1635    0.0000 N   0  0  0  0  0  0  0  0  0  0  0  0
    2.8917   -2.9805    0.0000 C   0  0  0  0  0  0  0  0  0  0  0  0
    2.0792   -3.1237    0.0000 C   0  0  0  0  0  0  0  0  0  0  0  0
    1.6919   -2.3953    0.0000 S   0  0  0  0  0  0  0  0  0  0  0  0
    1.7175   -3.8652    0.0000 S   0  0  0  0  0  0  0  0  0  0  0  0
    2.1789   -4.5492    0.0000 C   0  0  0  0  0  0  0  0  0  0  0  0
    1.8172   -5.2907    0.0000 C   0  0  0  0  0  0  0  0  0  0  0  0
    2.2785   -5.9746    0.0000 N   0  0  0  0  0  0  0  0  0  0  0  0
    3.1030   -6.0034    0.0000 C   0  0  0  0  0  0  0  0  0  0  0  0
    3.3304   -6.7965    0.0000 C   0  0  0  0  0  0  0  0  0  0  0  0
    2.6465   -7.2578    0.0000 C   0  0  0  0  0  0  0  0  0  0  0  0
    1.9964   -6.7499    0.0000 C   0  0  0  0  0  0  0  0  0  0  0  0
   -1.8135    0.8837    0.0000 S   0  0  0  0  0  0  0  0  0  0  0  0
   -1.2832    1.5157    0.0000 O   0  0  0  0  0  0  0  0  0  0  0  0
   -2.3438    0.2517    0.0000 O   0  0  0  0  0  0  0  0  0  0  0  0
   -2.4455    1.4140    0.0000 C   0  0  0  0  0  0  0  0  0  0  0  0
   -3.2579    1.5573    0.0000 C   0  0  0  0  0  0  0  0  0  0  0  0
   -2.7276    2.1892    0.0000 C   0  0  0  0  0  0  0  0  0  0  0  0
  1  2  2  0
  1  6  1  0
  2  3  1  0
  3  4  2  0
  3 32  1  0
  4  5  1  0
  5  6  2  0
  7  6  1  0
  7  8  1  0
  7  9  1  0
  7 16  1  6
  8  9  1  0
  9 10  1  1
 10 11  1  0
 10 15  1  0
 11 12  1  0
 12 13  1  0
 13 14  1  0
 14 15  1  0
 16 17  2  0
 16 18  1  0
 18 19  1  0
 19 20  2  0
 19 23  1  0
 20 21  1  0
 21 22  2  0
 22 23  1  0
 22 24  1  0
 24 25  1  0
 25 26  1  0
 26 27  1  0
 27 28  1  0
 27 31  1  0
 28 29  1  0
 29 30  1  0
 30 31  1  0
 32 33  2  0
 32 34  2  0
 32 35  1  0
 35 36  1  0
 35 37  1  0
 36 37  1  0
M  END
>  <DRUGBANK_ID>  (1) 
DB12284

>  <COMMON_NAME>  (1) 
LY-2608204

>  <CAS_NUMBER>  (1) 
1234703-40-2

>  <UNII>  (1) 
5A0L003HEY

$$$$
