S5H
     RDKit          2D

 30 33  0  0  0  0  0  0  0  0999 V2000
    0.1207   -1.1614    0.0000 C   0  0  0  0  0  0  0  0  0  0  0  0
    0.8352   -1.5739    0.0000 C   0  0  0  0  0  0  0  0  0  0  0  0
    1.5496   -1.1614    0.0000 C   0  0  0  0  0  0  0  0  0  0  0  0
    2.2641   -1.5739    0.0000 O   0  0  0  0  0  0  0  0  0  0  0  0
    1.5496   -0.3364    0.0000 C   0  0  0  0  0  0  0  0  0  0  0  0
    0.8352    0.0761    0.0000 C   0  0  0  0  0  0  0  0  0  0  0  0
    0.8352    0.9011    0.0000 C   0  0  0  0  0  0  0  0  0  0  0  0
    0.1207    1.3136    0.0000 C   0  0  0  0  0  0  0  0  0  0  0  0
   -0.5938    0.9011    0.0000 C   0  0  0  0  0  0  0  0  0  0  0  0
   -0.5938    0.0761    0.0000 C   0  0  0  0  0  0  0  0  0  0  0  0
    0.1207   -0.3364    0.0000 C   0  0  0  0  0  0  0  0  0  0  0  0
   -1.3083   -0.3364    0.0000 C   0  0  0  0  0  0  0  0  0  0  0  0
   -2.0227    0.0761    0.0000 C   0  0  0  0  0  0  0  0  0  0  0  0
   -2.0227    0.9011    0.0000 C   0  0  0  0  0  0  0  0  0  0  0  0
   -1.3083    1.3136    0.0000 C   0  0  0  0  0  0  0  0  0  0  0  0
   -1.4798    2.1206    0.0000 C   0  0  0  0  0  0  0  0  0  0  0  0
   -2.3003    2.2068    0.0000 C   0  0  0  0  0  0  0  0  0  0  0  0
   -2.6358    1.4532    0.0000 C   0  0  0  0  0  0  0  0  0  0  0  0
   -2.7764    0.5656    0.0000 C   0  0  0  0  0  0  0  0  0  0  0  0
   -0.5938   -0.7489    0.0000 C   0  0  0  0  0  0  0  0  0  0  0  0
   -3.4428    1.2816    0.0000 C   0  0  0  0  0  0  0  0  0  0  0  0
   -3.9948    1.8947    0.0000 O   0  0  0  0  0  0  0  0  0  0  0  0
   -3.6977    0.4970    0.0000 C   0  0  0  0  0  0  0  0  0  0  0  0
    2.9786   -1.1614    0.0000 C   0  0  0  0  0  0  0  0  0  0  0  0
    2.9786   -0.3364    0.0000 O   0  0  0  0  0  0  0  0  0  0  0  0
    3.6930   -1.5739    0.0000 C   0  0  0  0  0  0  0  0  0  0  0  0
    4.4075   -1.1614    0.0000 C   0  0  0  0  0  0  0  0  0  0  0  0
    5.1220   -1.5739    0.0000 C   0  0  0  0  0  0  0  0  0  0  0  0
    5.8365   -1.1614    0.0000 O   0  0  0  0  0  0  0  0  0  0  0  0
    5.1220   -2.3989    0.0000 O   0  0  0  0  0  0  0  0  0  0  0  0
  1  2  1  0
  1 11  1  0
  2  3  1  0
  3  4  1  1
  3  5  1  0
  4 24  1  0
  6  5  1  1
  6  7  1  0
  6 11  1  0
  7  8  1  0
  9  8  1  6
  9 10  1  0
  9 15  1  0
 10 11  1  0
 10 12  1  1
 11 20  1  1
 12 13  1  0
 13 14  1  0
 14 15  1  0
 14 18  1  0
 14 19  1  1
 15 16  1  1
 16 17  1  0
 17 18  1  0
 18 21  1  1
 21 22  2  0
 21 23  1  0
 24 25  2  0
 24 26  1  0
 26 27  1  0
 27 28  1  0
 28 29  2  0
 28 30  1  0
M  END
>  <DRUGBANK_ID>  (1) 
DB08510

>  <COMMON_NAME>  (1) 
5-ALPHA-PREGNANE-3-BETA-OL-HEMISUCCINATE

$$$$
