
     RDKit          2D

 21 22  0  0  0  0  0  0  0  0999 V2000
    1.4289   -2.0625    0.0000 C   0  0  0  0  0  0  0  0  0  0  0  0
    2.1433   -1.6500    0.0000 C   0  0  0  0  0  0  0  0  0  0  0  0
    2.1433   -0.8249    0.0000 C   0  0  0  0  0  0  0  0  0  0  0  0
    1.4288   -0.4124    0.0000 N   0  0  0  0  0  0  0  0  0  0  0  0
    0.7144   -0.8249    0.0000 C   0  0  0  0  0  0  0  0  0  0  0  0
    0.7144   -1.6500    0.0000 C   0  0  0  0  0  0  0  0  0  0  0  0
    0.0000   -0.4124    0.0000 C   0  0  0  0  0  0  0  0  0  0  0  0
   -0.7143   -0.8249    0.0000 N   0  0  0  0  0  0  0  0  0  0  0  0
   -1.4287   -0.4124    0.0000 C   0  0  0  0  0  0  0  0  0  0  0  0
   -1.4288    0.4123    0.0000 C   0  0  0  0  0  0  0  0  0  0  0  0
   -2.1431    0.8249    0.0000 C   0  0  0  0  0  0  0  0  0  0  0  0
   -2.8577    0.4123    0.0000 C   0  0  0  0  0  0  0  0  0  0  0  0
   -2.8577   -0.4124    0.0000 C   0  0  0  0  0  0  0  0  0  0  0  0
   -2.1431   -0.8249    0.0000 C   0  0  0  0  0  0  0  0  0  0  0  0
   -2.1431   -1.6500    0.0000 C   0  0  0  0  0  0  0  0  0  0  0  0
   -0.7143    0.8249    0.0000 C   0  0  0  0  0  0  0  0  0  0  0  0
    0.0000    0.4123    0.0000 O   0  0  0  0  0  0  0  0  0  0  0  0
    1.4288    0.4123    0.0000 C   0  0  0  0  0  0  0  0  0  0  0  0
    2.1433    0.8249    0.0000 C   0  0  0  0  0  0  0  0  0  0  0  0
    2.1433    1.6499    0.0000 C   0  0  0  0  0  0  0  0  0  0  0  0
    2.8577    2.0625    0.0000 C   0  0  0  0  0  0  0  0  0  0  0  0
  1  2  1  0
  1  6  1  0
  2  3  1  0
  3  4  1  0
  4  5  1  0
  4 18  1  0
  5  6  1  0
  5  7  1  0
  7  8  1  0
  7 17  2  0
  8  9  1  0
  9 10  2  0
 10 11  1  0
 10 16  1  0
 11 12  2  0
 12 13  1  0
 13 14  2  0
 14  9  1  0
 14 15  1  0
 18 19  1  0
 19 20  1  0
 20 21  1  0
M  END
>  <DRUGBANK_ID>  (1) 
DB00297

>  <SECONDARY_ACCESSION_NUMBERS>  (1) 
APRD00247

>  <COMMON_NAME>  (1) 
Bupivacaine

>  <CAS_NUMBER>  (1) 
38396-39-3

>  <UNII>  (1) 
Y8335394RO

>  <SYNONYMS>  (1) 
(Â±)-bupivacaine; (RS)-bupivacaine; 1-Butyl-2',6'-pipecoloxylidide; 1-Butyl-N-(2,6-dimethylphenyl)-2-piperidinecarboxamide; Bupivacaina; Bupivacaine; Bupivacainum; dl-1-Butyl-2',6'-pipecoloxylidide; DL-Bupivacaine; Racemic bupivacaine

$$$$
