
     RDKit          2D

 15 16  0  0  0  0  0  0  0  0999 V2000
    0.0000    0.0000    0.0000 C   0  0  0  0  0  0  0  0  0  0  0  0
    0.0000    0.8251    0.0000 N   0  0  0  0  0  0  0  0  0  0  0  0
    0.7145   -0.4125    0.0000 C   0  0  0  0  0  0  0  0  0  0  0  0
   -0.7145   -0.4125    0.0000 N   0  0  0  0  0  0  0  0  0  0  0  0
   -0.7145    1.2375    0.0000 C   0  0  0  0  0  0  0  0  0  0  0  0
    0.7145    1.2375    0.0000 C   0  0  0  0  0  0  0  0  0  0  0  0
    0.7145   -1.2375    0.0000 C   0  0  0  0  0  0  0  0  0  0  0  0
   -0.7145   -1.2375    0.0000 C   0  0  0  0  0  0  0  0  0  0  0  0
   -0.7145    2.0627    0.0000 C   0  0  0  0  0  0  0  0  0  0  0  0
    0.7145    2.0627    0.0000 C   0  0  0  0  0  0  0  0  0  0  0  0
    0.0000   -1.6501    0.0000 N   0  0  0  0  0  0  0  0  0  0  0  0
    1.4290   -1.6501    0.0000 N   0  0  0  0  0  0  0  0  0  0  0  0
   -1.4290   -1.6501    0.0000 N   0  0  0  0  0  0  0  0  0  0  0  0
    0.0000    2.4751    0.0000 C   0  0  0  0  0  0  0  0  0  0  0  0
    0.0000   -2.4752    0.0000 O   0  0  0  0  0  0  0  0  0  0  0  0
  1  2  1  0
  1  3  2  0
  1  4  1  0
  2  5  1  0
  2  6  1  0
  3  7  1  0
  4  8  2  0
  5  9  1  0
  6 10  1  0
  7 11  2  0
  7 12  1  0
  8 13  1  0
  8 11  1  0
  9 14  1  0
 10 14  1  0
 11 15  1  0
M  CHG  2  11   1  15  -1
M  END
>  <DRUGBANK_ID>  (1) 
DB00350

>  <SECONDARY_ACCESSION_NUMBERS>  (1) 
APRD00086; DB08225

>  <COMMON_NAME>  (1) 
Minoxidil

>  <CAS_NUMBER>  (1) 
38304-91-5

>  <UNII>  (1) 
5965120SH1

>  <SYNONYMS>  (1) 
2,4-Diamino-6-piperidinopyrimidine 3-oxide; 6-Piperidin-1-ylpyrimidine-2,4-diamine 3-oxide; Minossidile; Minoxidil; Minoxidilum

$$$$
