
     RDKit          2D

 11 12  0  0  0  0  0  0  0  0999 V2000
   -1.7083   -1.2384    0.0000 F   0  0  0  0  0  0  0  0  0  0  0  0
   -0.9942   -0.8251    0.0000 C   0  0  0  0  0  0  0  0  0  0  0  0
   -0.2767   -1.2384    0.0000 N   0  0  0  0  0  0  0  0  0  0  0  0
    0.4372   -0.8251    0.0000 C   0  0  0  0  0  0  0  0  0  0  0  0
    0.4372   -0.0017    0.0000 C   0  0  0  0  0  0  0  0  0  0  0  0
    1.2230    0.2545    0.0000 N   0  0  0  0  0  0  0  0  0  0  0  0
    1.7083   -0.4116    0.0000 C   0  0  0  0  0  0  0  0  0  0  0  0
    1.2230   -1.0779    0.0000 N   0  0  0  0  0  0  0  0  0  0  0  0
   -0.2767    0.4116    0.0000 C   0  0  0  0  0  0  0  0  0  0  0  0
   -0.2767    1.2384    0.0000 Cl  0  0  0  0  0  0  0  0  0  0  0  0
   -0.9942   -0.0017    0.0000 N   0  0  0  0  0  0  0  0  0  0  0  0
  1  2  1  0
  2  3  2  0
  2 11  1  0
  3  4  1  0
  4  5  2  0
  4  8  1  0
  5  6  1  0
  5  9  1  0
  6  7  2  0
  7  8  1  0
  9 10  1  0
  9 11  2  0
M  END
>  <DRUGBANK_ID>  (1) 
DB03520

>  <SECONDARY_ACCESSION_NUMBERS>  (1) 
EXPT00896

>  <COMMON_NAME>  (1) 
6-Chloro-2-fluoropurine

>  <CAS_NUMBER>  (1) 
1651-29-2

>  <UNII>  (1) 
726CLW3V39

$$$$
