FIL
     RDKit          2D

 21 22  0  0  0  0  0  0  0  0999 V2000
   -4.3570    0.1969    0.0000 O   0  0  0  0  0  0  0  0  0  0  0  0
   -3.6426    0.6094    0.0000 C   0  0  0  0  0  0  0  0  0  0  0  0
   -3.6426    1.4344    0.0000 N   0  0  0  0  0  0  0  0  0  0  0  0
   -2.9281    0.1969    0.0000 O   0  0  0  0  0  0  0  0  0  0  0  0
   -2.2136    0.6094    0.0000 N   0  0  0  0  0  0  0  0  0  0  0  0
   -1.4991    0.1969    0.0000 C   0  0  0  0  0  0  0  0  0  0  0  0
   -1.4991   -0.6281    0.0000 C   0  0  0  0  0  0  0  0  0  0  0  0
   -0.7847    0.6094    0.0000 C   0  0  0  0  0  0  0  0  0  0  0  0
   -0.7847    1.4344    0.0000 C   0  0  0  0  0  0  0  0  0  0  0  0
   -0.0702    1.8469    0.0000 C   0  0  0  0  0  0  0  0  0  0  0  0
    0.6443    1.4344    0.0000 C   0  0  0  0  0  0  0  0  0  0  0  0
    1.3587    1.8469    0.0000 O   0  0  0  0  0  0  0  0  0  0  0  0
    2.0732    1.4344    0.0000 C   0  0  0  0  0  0  0  0  0  0  0  0
    0.6443    0.6094    0.0000 C   0  0  0  0  0  0  0  0  0  0  0  0
   -0.0702    0.1969    0.0000 C   0  0  0  0  0  0  0  0  0  0  0  0
    1.3587    0.1969    0.0000 O   0  0  0  0  0  0  0  0  0  0  0  0
    1.3587   -0.6281    0.0000 C   0  0  0  0  0  0  0  0  0  0  0  0
    2.0262   -1.1130    0.0000 C   0  0  0  0  0  0  0  0  0  0  0  0
    1.7712   -1.8976    0.0000 C   0  0  0  0  0  0  0  0  0  0  0  0
    0.9462   -1.8976    0.0000 C   0  0  0  0  0  0  0  0  0  0  0  0
    0.6913   -1.1130    0.0000 C   0  0  0  0  0  0  0  0  0  0  0  0
  1  2  2  0
  2  3  1  0
  2  4  1  0
  4  5  1  0
  5  6  2  0
  6  7  1  0
  6  8  1  0
  8  9  2  0
  8 15  1  0
  9 10  1  0
 10 11  2  0
 11 12  1  0
 11 14  1  0
 12 13  1  0
 14 15  2  0
 14 16  1  0
 16 17  1  0
 17 18  1  0
 17 21  1  0
 18 19  1  0
 19 20  1  0
 20 21  1  0
M  END
>  <DRUGBANK_ID>  (1) 
DB02660

>  <SECONDARY_ACCESSION_NUMBERS>  (1) 
EXPT01434

>  <COMMON_NAME>  (1) 
Filaminast

>  <CAS_NUMBER>  (1) 
141184-34-1

>  <UNII>  (1) 
CDD69JC61J

>  <SYNONYMS>  (1) 
Filaminast

$$$$
