
     RDKit          2D

 39 43  0  0  0  0  0  0  0  0999 V2000
   -2.3886   -2.3725    0.0000 C   0  0  0  0  0  0  0  0  0  0  0  0
   -3.1044   -3.6111    0.0000 C   0  0  0  0  0  0  0  0  0  0  0  0
   -3.1044   -2.7827    0.0000 N   0  0  0  0  0  0  0  0  0  0  0  0
   -2.3886   -4.0213    0.0000 N   0  0  0  0  0  0  0  0  0  0  0  0
   -2.3886   -1.5441    0.0000 N   0  0  0  0  0  0  0  0  0  0  0  0
   -1.6728   -2.7827    0.0000 C   0  0  0  0  0  0  0  0  0  0  0  0
   -1.6728   -3.6111    0.0000 C   0  0  0  0  0  0  0  0  0  0  0  0
   -0.4102   -3.1929    0.0000 C   0  0  0  0  0  0  0  0  0  0  0  0
   -0.8927   -3.8605    0.0000 O   0  0  0  0  0  0  0  0  0  0  0  0
   -0.8927   -2.5254    0.0000 C   0  0  0  0  0  0  0  0  0  0  0  0
   -0.4825   -1.8176    0.0000 C   0  0  0  0  0  0  0  0  0  0  0  0
    0.7559   -1.1018    0.0000 C   0  0  0  0  0  0  0  0  0  0  0  0
    0.3458   -0.3860    0.0000 C   0  0  0  0  0  0  0  0  0  0  0  0
   -0.4825   -0.3860    0.0000 C   0  0  0  0  0  0  0  0  0  0  0  0
   -0.8927   -1.1018    0.0000 C   0  0  0  0  0  0  0  0  0  0  0  0
    0.3458   -1.8176    0.0000 C   0  0  0  0  0  0  0  0  0  0  0  0
    0.4182   -3.1929    0.0000 C   0  0  0  0  0  0  0  0  0  0  0  0
    2.0669   -3.1929    0.0000 C   0  0  0  0  0  0  0  0  0  0  0  0
    1.6567   -2.4852    0.0000 C   0  0  0  0  0  0  0  0  0  0  0  0
    0.8284   -2.4852    0.0000 C   0  0  0  0  0  0  0  0  0  0  0  0
    0.8284   -3.9087    0.0000 C   0  0  0  0  0  0  0  0  0  0  0  0
    1.6567   -3.9087    0.0000 C   0  0  0  0  0  0  0  0  0  0  0  0
    2.8953   -3.1929    0.0000 O   0  0  0  0  0  0  0  0  0  0  0  0
    3.1044   -3.9971    0.0000 C   0  0  0  0  0  0  0  0  0  0  0  0
    0.7559    0.3297    0.0000 N   0  0  0  0  0  0  0  0  0  0  0  0
    0.3458    1.0455    0.0000 C   0  0  0  0  0  0  0  0  0  0  0  0
   -0.4825    1.0455    0.0000 O   0  0  0  0  0  0  0  0  0  0  0  0
    0.7559    1.7532    0.0000 N   0  0  0  0  0  0  0  0  0  0  0  0
    0.3458    2.4691    0.0000 C   0  0  0  0  0  0  0  0  0  0  0  0
   -0.8766    3.2089    0.0000 C   0  0  0  0  0  0  0  0  0  0  0  0
   -0.4825    2.4852    0.0000 C   0  0  0  0  0  0  0  0  0  0  0  0
    0.7720    3.1768    0.0000 C   0  0  0  0  0  0  0  0  0  0  0  0
    0.3779    3.9007    0.0000 C   0  0  0  0  0  0  0  0  0  0  0  0
   -0.4504    3.9167    0.0000 C   0  0  0  0  0  0  0  0  0  0  0  0
    1.6004    3.1607    0.0000 F   0  0  0  0  0  0  0  0  0  0  0  0
   -1.7050    3.2251    0.0000 C   0  0  0  0  0  0  0  0  0  0  0  0
   -1.4798    4.0213    0.0000 F   0  0  0  0  0  0  0  0  0  0  0  0
   -1.9222    2.4288    0.0000 F   0  0  0  0  0  0  0  0  0  0  0  0
   -2.4128    3.6352    0.0000 F   0  0  0  0  0  0  0  0  0  0  0  0
  1  3  2  0
  1  6  1  0
  1  5  1  0
  2  3  1  0
  2  4  2  0
  4  7  1  0
  6 10  1  0
  6  7  2  0
  7  9  1  0
  8 10  2  0
  8  9  1  0
  8 17  1  0
 10 11  1  0
 11 15  1  0
 11 16  2  0
 12 13  2  0
 12 16  1  0
 13 14  1  0
 13 25  1  0
 14 15  2  0
 17 20  2  0
 17 21  1  0
 18 19  2  0
 18 22  1  0
 18 23  1  0
 19 20  1  0
 21 22  2  0
 23 24  1  0
 25 26  1  0
 26 28  1  0
 26 27  2  0
 28 29  1  0
 29 31  1  0
 29 32  2  0
 30 31  2  0
 30 34  1  0
 30 36  1  0
 32 33  1  0
 32 35  1  0
 33 34  2  0
 36 39  1  0
 36 38  1  0
 36 37  1  0
M  END
>  <DRUGBANK_ID>  (1) 
DB04727

>  <COMMON_NAME>  (1) 
1-{4-[4-Amino-6-(4-methoxyphenyl)furo[2,3-d]pyrimidin-5-yl]phenyl}-3-[2-fluoro-5-(trifluoromethyl)phenyl]urea

$$$$
