
     RDKit          2D

 28 31  0  0  1  0  0  0  0  0999 V2000
   -3.1806   -4.8803    0.0000 C   0  0  0  0  0  0  0  0  0  0  0  0
   -3.7936   -4.3283    0.0000 C   0  0  0  0  0  0  0  0  0  0  0  0
   -3.6221   -3.5213    0.0000 C   0  0  0  0  0  0  0  0  0  0  0  0
   -2.8375   -3.2664    0.0000 C   0  0  0  0  0  0  0  0  0  0  0  0
   -2.2244   -3.8184    0.0000 C   0  0  0  0  0  0  0  0  0  0  0  0
   -2.3959   -4.6254    0.0000 C   0  0  0  0  0  0  0  0  0  0  0  0
   -2.6660   -2.4594    0.0000 C   0  0  0  0  0  0  0  0  0  0  0  0
   -1.8814   -2.2044    0.0000 N   0  0  0  0  0  0  0  0  0  0  0  0
   -1.7098   -1.3975    0.0000 C   0  0  0  0  0  0  0  0  0  0  0  0
   -0.9252   -1.1425    0.0000 C   0  0  0  0  0  0  0  0  0  0  0  0
   -0.7537   -0.3356    0.0000 C   0  0  0  0  0  0  0  0  0  0  0  0
   -1.3057    0.2775    0.0000 C   0  0  0  0  0  0  0  0  0  0  0  0
   -0.8932    0.9920    0.0000 N   0  0  0  0  0  0  0  0  0  0  0  0
   -0.0862    0.8205    0.0000 C   0  0  0  0  0  0  0  0  0  0  0  0
    0.5269    1.3725    0.0000 S   0  0  0  0  0  0  0  0  0  0  0  0
    0.0000    0.0000    0.0000 N   0  0  0  0  0  0  0  0  0  0  0  0
    0.7145   -0.4125    0.0000 C   0  0  0  0  0  0  0  0  0  0  0  0
    1.4289    0.0000    0.0000 C   0  0  0  0  0  0  0  0  0  0  0  0
    2.1434   -0.4125    0.0000 C   0  0  0  0  0  0  0  0  0  0  0  0
    2.8579    0.0000    0.0000 C   0  0  0  0  0  0  0  0  0  0  0  0
    3.5724   -0.4125    0.0000 C   0  0  0  0  0  0  0  0  0  0  0  0
    3.5724   -1.2375    0.0000 C   0  0  0  0  0  0  0  0  0  0  0  0
    2.8579   -1.6500    0.0000 C   0  0  0  0  0  0  0  0  0  0  0  0
    2.1434   -1.2375    0.0000 C   0  0  0  0  0  0  0  0  0  0  0  0
    1.4289   -1.6500    0.0000 O   0  0  0  0  0  0  0  0  0  0  0  0
    0.7145   -1.2375    0.0000 C   0  0  0  0  0  0  0  0  0  0  0  0
    2.8579   -2.4750    0.0000 F   0  0  0  0  0  0  0  0  0  0  0  0
    4.2868   -0.0000    0.0000 F   0  0  0  0  0  0  0  0  0  0  0  0
  1  2  2  0
  1  6  1  0
  2  3  1  0
  3  4  2  0
  4  5  1  0
  4  7  1  0
  5  6  2  0
  7  8  1  0
  8  9  1  0
  9 10  1  0
 10 11  1  0
 11 12  2  0
 11 16  1  0
 12 13  1  0
 13 14  1  0
 14 15  2  0
 14 16  1  0
 17 16  1  6
 17 18  1  0
 17 26  1  0
 18 19  1  0
 19 20  2  0
 19 24  1  0
 20 21  1  0
 21 22  2  0
 21 28  1  0
 22 23  1  0
 23 24  2  0
 23 27  1  0
 24 25  1  0
 25 26  1  0
M  END
>  <DRUGBANK_ID>  (1) 
DB12389

>  <COMMON_NAME>  (1) 
Zamicastat

>  <CAS_NUMBER>  (1) 
1080028-80-3

>  <UNII>  (1) 
YLU32D0DNV

>  <SYNONYMS>  (1) 
Zamicastat

$$$$
