
     RDKit          2D

 29 32  0  0  0  0  0  0  0  0999 V2000
   -2.0060   -4.9587    0.0000 C   0  0  0  0  0  0  0  0  0  0  0  0
   -2.0060   -4.1337    0.0000 C   0  0  0  0  0  0  0  0  0  0  0  0
   -1.2916   -3.7211    0.0000 C   0  0  0  0  0  0  0  0  0  0  0  0
   -0.5771   -4.1336    0.0000 C   0  0  0  0  0  0  0  0  0  0  0  0
   -0.5771   -4.9586    0.0000 C   0  0  0  0  0  0  0  0  0  0  0  0
   -1.2915   -5.3711    0.0000 C   0  0  0  0  0  0  0  0  0  0  0  0
   -1.2915   -6.1961    0.0000 C   0  0  0  0  0  0  0  0  0  0  0  0
   -2.0059   -6.6087    0.0000 C   0  0  0  0  0  0  0  0  0  0  0  0
   -2.0059   -7.4337    0.0000 C   0  0  0  0  0  0  0  0  0  0  0  0
   -2.7203   -7.8462    0.0000 N   0  0  0  0  0  0  0  0  0  0  0  0
   -2.7203   -8.6712    0.0000 C   0  0  0  0  0  0  0  0  0  0  0  0
   -3.4347   -9.0837    0.0000 C   0  0  0  0  0  0  0  0  0  0  0  0
   -3.4347   -9.9087    0.0000 C   0  0  0  0  0  0  0  0  0  0  0  0
   -4.1491  -10.3213    0.0000 O   0  0  0  0  0  0  0  0  0  0  0  0
    0.1373   -3.7210    0.0000 C   0  0  0  0  0  0  0  0  0  0  0  0
    0.8518   -4.1335    0.0000 O   0  0  0  0  0  0  0  0  0  0  0  0
    0.1373   -2.8960    0.0000 N   0  0  0  0  0  0  0  0  0  0  0  0
    0.8517   -2.4835    0.0000 C   0  0  0  0  0  0  0  0  0  0  0  0
    0.8517   -1.6585    0.0000 C   0  0  0  0  0  0  0  0  0  0  0  0
    0.1163   -2.0322    0.0000 C   0  0  0  0  0  0  0  0  0  0  0  0
    0.5657   -1.2419    0.0000 C   0  0  0  0  0  0  0  0  0  0  0  0
    0.5657   -0.4945    0.0000 C   0  0  0  0  0  0  0  0  0  0  0  0
    1.3012   -0.1208    0.0000 C   0  0  0  0  0  0  0  0  0  0  0  0
    0.8517   -0.9111    0.0000 C   0  0  0  0  0  0  0  0  0  0  0  0
    2.0368   -0.4945    0.0000 C   0  0  0  0  0  0  0  0  0  0  0  0
    2.0368   -1.2419    0.0000 C   0  0  0  0  0  0  0  0  0  0  0  0
    1.3012   -1.6156    0.0000 C   0  0  0  0  0  0  0  0  0  0  0  0
    1.5873   -2.0322    0.0000 C   0  0  0  0  0  0  0  0  0  0  0  0
   -1.2916   -2.8961    0.0000 Cl  0  0  0  0  0  0  0  0  0  0  0  0
  1  2  2  0
  1  6  1  0
  2  3  1  0
  3  4  2  0
  3 29  1  0
  4  5  1  0
  4 15  1  0
  5  6  2  0
  6  7  1  0
  7  8  1  0
  8  9  1  0
  9 10  1  0
 10 11  1  0
 11 12  1  0
 12 13  1  0
 13 14  1  0
 15 16  2  0
 15 17  1  0
 17 18  1  0
 18 19  1  0
 19 20  1  0
 19 28  1  0
 19 24  1  0
 20 21  1  0
 21 27  1  0
 21 22  1  0
 22 23  1  0
 23 24  1  0
 23 25  1  0
 25 26  1  0
 26 28  1  0
 26 27  1  0
M  END
>  <DRUGBANK_ID>  (1) 
DB12594

>  <COMMON_NAME>  (1) 
AZD-9056

>  <CAS_NUMBER>  (1) 
345304-65-6

>  <UNII>  (1) 
F13K378W4L

$$$$
