OLO
     RDKit          2D

 22 24  0  0  0  0  0  0  0  0999 V2000
   -1.9629    1.3117    0.0000 N   0  0  0  0  0  0  0  0  0  0  0  0
   -2.4478    0.6442    0.0000 C   0  0  0  0  0  0  0  0  0  0  0  0
   -1.9629   -0.0232    0.0000 N   0  0  0  0  0  0  0  0  0  0  0  0
   -1.1783    0.2317    0.0000 C   0  0  0  0  0  0  0  0  0  0  0  0
   -1.1783    1.0567    0.0000 C   0  0  0  0  0  0  0  0  0  0  0  0
   -0.4638   -0.1808    0.0000 C   0  0  0  0  0  0  0  0  0  0  0  0
    0.2507    0.2317    0.0000 N   0  0  0  0  0  0  0  0  0  0  0  0
    0.2507    1.0567    0.0000 C   0  0  0  0  0  0  0  0  0  0  0  0
   -0.4638    1.4692    0.0000 N   0  0  0  0  0  0  0  0  0  0  0  0
   -2.2178    2.0963    0.0000 C   0  0  0  0  0  0  0  0  0  0  0  0
    0.9651    1.4692    0.0000 N   0  0  0  0  0  0  0  0  0  0  0  0
    0.9651    2.2942    0.0000 C   0  0  0  0  0  0  0  0  0  0  0  0
    1.6796    2.7067    0.0000 C   0  0  0  0  0  0  0  0  0  0  0  0
    1.6796    3.5317    0.0000 O   0  0  0  0  0  0  0  0  0  0  0  0
   -0.4638   -1.0058    0.0000 N   0  0  0  0  0  0  0  0  0  0  0  0
    0.2507   -1.4183    0.0000 C   0  0  0  0  0  0  0  0  0  0  0  0
    0.9651   -2.6558    0.0000 C   0  0  0  0  0  0  0  0  0  0  0  0
    0.9651   -3.4808    0.0000 C   0  0  0  0  0  0  0  0  0  0  0  0
    0.2507   -3.8933    0.0000 C   0  0  0  0  0  0  0  0  0  0  0  0
   -0.4638   -3.4808    0.0000 C   0  0  0  0  0  0  0  0  0  0  0  0
   -0.4638   -2.6558    0.0000 C   0  0  0  0  0  0  0  0  0  0  0  0
    0.2507   -2.2433    0.0000 C   0  0  0  0  0  0  0  0  0  0  0  0
  1  2  1  0
  1  5  1  0
  1 10  1  0
  2  3  2  0
  3  4  1  0
  4  5  2  0
  4  6  1  0
  5  9  1  0
  6  7  2  0
  6 15  1  0
  7  8  1  0
  8  9  2  0
  8 11  1  0
 11 12  1  0
 12 13  1  0
 13 14  1  0
 15 16  1  0
 16 22  1  0
 17 18  2  0
 17 22  1  0
 18 19  1  0
 19 20  2  0
 20 21  1  0
 21 22  2  0
M  END
>  <DRUGBANK_ID>  (1) 
DB02116

>  <SECONDARY_ACCESSION_NUMBERS>  (1) 
EXPT02433

>  <COMMON_NAME>  (1) 
Olomoucine

>  <CAS_NUMBER>  (1) 
101622-51-9

>  <UNII>  (1) 
6A839B2HYS

$$$$
