P89
     RDKit          2D

 28 28  0  0  0  0  0  0  0  0999 V2000
   -5.5438   -0.2388    0.0000 C   0  0  0  0  0  0  0  0  0  0  0  0
   -4.8294    0.1737    0.0000 C   0  0  0  0  0  0  0  0  0  0  0  0
   -4.1149   -0.2388    0.0000 C   0  0  0  0  0  0  0  0  0  0  0  0
   -3.4004    0.1737    0.0000 C   0  0  0  0  0  0  0  0  0  0  0  0
   -2.6860   -0.2388    0.0000 C   0  0  0  0  0  0  0  0  0  0  0  0
   -1.9715    0.1737    0.0000 C   0  0  0  0  0  0  0  0  0  0  0  0
   -1.2570   -0.2388    0.0000 C   0  0  0  0  0  0  0  0  0  0  0  0
   -0.5425    0.1737    0.0000 C   0  0  0  0  0  0  0  0  0  0  0  0
    0.1719   -0.2388    0.0000 C   0  0  0  0  0  0  0  0  0  0  0  0
    0.8864    0.1737    0.0000 C   0  0  0  0  0  0  0  0  0  0  0  0
    0.8864    0.9987    0.0000 O   0  0  0  0  0  0  0  0  0  0  0  0
    1.6009   -0.2388    0.0000 C   0  0  0  0  0  0  0  0  0  0  0  0
    2.3153    0.1737    0.0000 N   0  0  0  0  0  0  0  0  0  0  0  0
    3.0298   -0.2388    0.0000 C   0  0  0  0  0  0  0  0  0  0  0  0
    3.7443    0.1737    0.0000 C   0  0  0  0  0  0  0  0  0  0  0  0
    3.7443    0.9987    0.0000 C   0  0  0  0  0  0  0  0  0  0  0  0
    3.0298    1.4112    0.0000 O   0  0  0  0  0  0  0  0  0  0  0  0
    4.4588    1.4112    0.0000 C   0  0  0  0  0  0  0  0  0  0  0  0
    4.4588    2.2362    0.0000 C   0  0  0  0  0  0  0  0  0  0  0  0
    5.1732    0.9987    0.0000 N   0  0  0  0  0  0  0  0  0  0  0  0
    5.1732    0.1737    0.0000 C   0  0  0  0  0  0  0  0  0  0  0  0
    4.4588   -0.2388    0.0000 C   0  0  0  0  0  0  0  0  0  0  0  0
    4.4588   -1.0638    0.0000 C   0  0  0  0  0  0  0  0  0  0  0  0
    5.1732   -1.4763    0.0000 O   0  0  0  0  0  0  0  0  0  0  0  0
    5.8877   -1.0638    0.0000 P   0  0  0  0  0  0  0  0  0  0  0  0
    6.6022   -0.6513    0.0000 O   0  0  0  0  0  0  0  0  0  0  0  0
    6.3002   -1.7782    0.0000 O   0  0  0  0  0  0  0  0  0  0  0  0
    5.4752   -0.3493    0.0000 O   0  0  0  0  0  0  0  0  0  0  0  0
  1  2  1  0
  2  3  1  0
  3  4  1  0
  4  5  1  0
  5  6  1  0
  6  7  1  0
  7  8  1  0
  8  9  1  0
  9 10  1  0
 10 11  2  0
 10 12  1  0
 12 13  1  0
 13 14  2  0
 14 15  1  0
 15 16  2  0
 15 22  1  0
 16 17  1  0
 16 18  1  0
 18 19  1  0
 18 20  2  0
 20 21  1  0
 21 22  2  0
 22 23  1  0
 23 24  1  0
 24 25  1  0
 25 26  1  0
 25 27  1  0
 25 28  1  0
M  END
>  <DRUGBANK_ID>  (1) 
DB08364

>  <COMMON_NAME>  (1) 
1-{[(1E)-(3-HYDROXY-2-METHYL-5-{[(TRIHYDROXY-LAMBDA^5^-PHOSPHANYL)OXY]METHYL}PYRIDIN-4-YL)METHYLIDENE]AMINO}UNDECAN-2-ONE

$$$$
