205
     RDKit          2D

 20 22  0  0  0  0  0  0  0  0999 V2000
    1.3645   -1.0236    0.0000 C   0  0  0  0  0  0  0  0  0  0  0  0
    0.6500   -0.6111    0.0000 C   0  0  0  0  0  0  0  0  0  0  0  0
    2.0789   -0.6111    0.0000 C   0  0  0  0  0  0  0  0  0  0  0  0
    2.0789    0.2139    0.0000 C   0  0  0  0  0  0  0  0  0  0  0  0
    1.3645    0.6264    0.0000 C   0  0  0  0  0  0  0  0  0  0  0  0
    0.6500    0.2139    0.0000 C   0  0  0  0  0  0  0  0  0  0  0  0
   -1.8571    0.5159    0.0000 C   0  0  0  0  0  0  0  0  0  0  0  0
   -1.4446   -0.1986    0.0000 C   0  0  0  0  0  0  0  0  0  0  0  0
   -0.6196   -0.1986    0.0000 C   0  0  0  0  0  0  0  0  0  0  0  0
   -2.6821    0.5159    0.0000 C   0  0  0  0  0  0  0  0  0  0  0  0
   -2.6821   -0.9131    0.0000 C   0  0  0  0  0  0  0  0  0  0  0  0
   -3.0946   -0.1986    0.0000 C   0  0  0  0  0  0  0  0  0  0  0  0
   -1.8571   -0.9131    0.0000 C   0  0  0  0  0  0  0  0  0  0  0  0
    2.7934    0.6264    0.0000 C   0  0  0  0  0  0  0  0  0  0  0  0
    2.7934    1.4514    0.0000 O   0  0  0  0  0  0  0  0  0  0  0  0
    3.5079    0.2139    0.0000 O   0  0  0  0  0  0  0  0  0  0  0  0
   -0.1346    0.4688    0.0000 O   0  0  0  0  0  0  0  0  0  0  0  0
   -0.1346   -0.8660    0.0000 N   0  0  0  0  0  0  0  0  0  0  0  0
   -1.4446   -1.6275    0.0000 Cl  0  0  0  0  0  0  0  0  0  0  0  0
   -1.4446    1.2304    0.0000 Cl  0  0  0  0  0  0  0  0  0  0  0  0
  1  2  2  0
  1  3  1  0
  2  6  1  0
  2 18  1  0
  3  4  2  0
  4  5  1  0
  4 14  1  0
  5  6  2  0
  6 17  1  0
  7  8  2  0
  7 10  1  0
  7 20  1  0
  8  9  1  0
  8 13  1  0
  9 17  1  0
  9 18  2  0
 10 12  2  0
 11 12  1  0
 11 13  2  0
 13 19  1  0
 14 15  1  0
 14 16  2  0
M  END
>  <DRUGBANK_ID>  (1) 
DB06907

>  <COMMON_NAME>  (1) 
2-(2,6-DICHLOROPHENYL)-1,3-BENZOXAZOLE-6-CARBOXYLIC ACID

$$$$
