TRU
     RDKit          2D

 20 21  0  0  0  0  0  0  0  0999 V2000
   -0.7887   -0.6630    0.0000 S   0  0  0  0  0  0  0  0  0  0  0  0
   -1.3190   -1.2950    0.0000 O   0  0  0  0  0  0  0  0  0  0  0  0
   -0.2584   -1.2950    0.0000 O   0  0  0  0  0  0  0  0  0  0  0  0
   -1.5031   -0.2505    0.0000 N   0  0  0  0  0  0  0  0  0  0  0  0
   -1.5031    0.5745    0.0000 C   0  0  0  0  0  0  0  0  0  0  0  0
   -2.2176    0.9870    0.0000 C   0  0  0  0  0  0  0  0  0  0  0  0
   -2.9321    0.5745    0.0000 Cl  0  0  0  0  0  0  0  0  0  0  0  0
   -2.2176    1.8120    0.0000 Cl  0  0  0  0  0  0  0  0  0  0  0  0
   -0.7887    0.9870    0.0000 N   0  0  0  0  0  0  0  0  0  0  0  0
   -0.0742    0.5745    0.0000 C   0  0  0  0  0  0  0  0  0  0  0  0
    0.6403    0.9870    0.0000 C   0  0  0  0  0  0  0  0  0  0  0  0
    1.3548    0.5745    0.0000 C   0  0  0  0  0  0  0  0  0  0  0  0
    2.0692    0.9870    0.0000 Cl  0  0  0  0  0  0  0  0  0  0  0  0
    1.3548   -0.2505    0.0000 C   0  0  0  0  0  0  0  0  0  0  0  0
    2.0692   -0.6630    0.0000 S   0  0  0  0  0  0  0  0  0  0  0  0
    2.7837   -1.0755    0.0000 N   0  0  0  0  0  0  0  0  0  0  0  0
    1.6567   -1.3775    0.0000 O   0  0  0  0  0  0  0  0  0  0  0  0
    2.4817    0.0515    0.0000 O   0  0  0  0  0  0  0  0  0  0  0  0
    0.6403   -0.6630    0.0000 C   0  0  0  0  0  0  0  0  0  0  0  0
   -0.0742   -0.2505    0.0000 C   0  0  0  0  0  0  0  0  0  0  0  0
  1  2  2  0
  1  3  2  0
  1  4  1  0
  1 20  1  0
  4  5  1  0
  5  6  1  6
  5  9  1  0
  6  7  1  0
  6  8  1  0
  9 10  1  0
 10 11  1  0
 10 20  2  0
 11 12  2  0
 12 13  1  0
 12 14  1  0
 14 15  1  0
 14 19  2  0
 15 16  1  0
 15 17  2  0
 15 18  2  0
 19 20  1  0
M  END
>  <DRUGBANK_ID>  (1) 
DB08645

>  <COMMON_NAME>  (1) 
6-CHLORO-3-(DICHLOROMETHYL)-3,4-DIHYDRO-2H-1,2,4-BENZOTHIADIAZINE-7-SULFONAMIDE 1,1-DIOXIDE

$$$$
