7DE
     RDKit          2D

 21 22  0  0  0  0  0  0  0  0999 V2000
   -2.4551    3.7610    0.0000 O   0  0  0  0  0  0  0  0  0  0  0  0
   -2.4551    2.9360    0.0000 N   0  0  0  0  0  0  0  0  0  0  0  0
   -3.1696    2.5235    0.0000 O   0  0  0  0  0  0  0  0  0  0  0  0
   -1.7407    2.5235    0.0000 C   0  0  0  0  0  0  0  0  0  0  0  0
   -1.0262    2.9360    0.0000 C   0  0  0  0  0  0  0  0  0  0  0  0
   -1.7407    1.6985    0.0000 C   0  0  0  0  0  0  0  0  0  0  0  0
   -1.0262    1.2860    0.0000 C   0  0  0  0  0  0  0  0  0  0  0  0
   -0.3117    1.6985    0.0000 C   0  0  0  0  0  0  0  0  0  0  0  0
   -0.3117    2.5235    0.0000 C   0  0  0  0  0  0  0  0  0  0  0  0
   -1.0262    0.4610    0.0000 N   0  0  0  0  0  0  0  0  0  0  0  0
   -0.3588   -0.0239    0.0000 C   0  0  0  0  0  0  0  0  0  0  0  0
    0.4259    0.2311    0.0000 C   0  0  0  0  0  0  0  0  0  0  0  0
   -0.6137   -0.8085    0.0000 C   0  0  0  0  0  0  0  0  0  0  0  0
   -1.4387   -0.8085    0.0000 C   0  0  0  0  0  0  0  0  0  0  0  0
   -1.6936   -0.0239    0.0000 N   0  0  0  0  0  0  0  0  0  0  0  0
   -1.9236   -1.4759    0.0000 C   0  0  0  0  0  0  0  0  0  0  0  0
   -0.1288   -1.4759    0.0000 C   0  0  0  0  0  0  0  0  0  0  0  0
   -0.4643   -2.2296    0.0000 O   0  0  0  0  0  0  0  0  0  0  0  0
    0.6917   -1.3897    0.0000 O   0  0  0  0  0  0  0  0  0  0  0  0
    1.1766   -2.0571    0.0000 C   0  0  0  0  0  0  0  0  0  0  0  0
    1.9971   -1.9709    0.0000 C   0  0  0  0  0  0  0  0  0  0  0  0
  1  2  2  0
  2  3  1  0
  2  4  1  0
  4  5  2  0
  4  6  1  0
  5  9  1  0
  6  7  2  0
  7  8  1  0
  7 10  1  0
  8  9  2  0
 10 11  1  0
 10 15  1  0
 11 12  1  0
 11 13  2  0
 13 14  1  0
 13 17  1  0
 14 15  2  0
 14 16  1  0
 17 18  2  0
 17 19  1  0
 19 20  1  0
 20 21  1  0
M  CHG  2   2   1   3  -1
M  END
>  <DRUGBANK_ID>  (1) 
DB01959

>  <SECONDARY_ACCESSION_NUMBERS>  (1) 
EXPT00309

>  <COMMON_NAME>  (1) 
3,5-Dimethyl-1-(3-Nitrophenyl)-1h-Pyrazole-4-Carboxylic Acid Ethyl Ester

$$$$
