
     RDKit          2D

 11 12  0  0  0  0  0  0  0  0999 V2000
    0.4369   -0.8250    0.0000 C   0  0  0  0  0  0  0  0  0  0  0  0
    0.4369    0.0000    0.0000 C   0  0  0  0  0  0  0  0  0  0  0  0
    1.2215    0.2549    0.0000 C   0  0  0  0  0  0  0  0  0  0  0  0
    1.7064   -0.4125    0.0000 N   0  0  0  0  0  0  0  0  0  0  0  0
    1.2215   -1.0799    0.0000 N   0  0  0  0  0  0  0  0  0  0  0  0
   -0.2774   -1.2374    0.0000 N   0  0  0  0  0  0  0  0  0  0  0  0
   -0.9919    0.0000    0.0000 N   0  0  0  0  0  0  0  0  0  0  0  0
   -0.2774    0.4125    0.0000 C   0  0  0  0  0  0  0  0  0  0  0  0
   -0.2774    1.2375    0.0000 O   0  0  0  0  0  0  0  0  0  0  0  0
   -0.9919   -0.8250    0.0000 C   0  0  0  0  0  0  0  0  0  0  0  0
   -1.7064   -1.2374    0.0000 O   0  0  0  0  0  0  0  0  0  0  0  0
  1  6  1  0
  2  1  2  0
  3  2  1  0
  3  4  2  0
  4  5  1  0
  5  1  1  0
  6 10  1  0
  8  2  1  0
  8  7  1  0
  8  9  2  0
 10  7  1  0
 10 11  2  0
M  END
>  <DRUGBANK_ID>  (1) 
DB05262

>  <COMMON_NAME>  (1) 
Oxypurinol

>  <CAS_NUMBER>  (1) 
2465-59-0

>  <UNII>  (1) 
G97OZE5068

>  <SYNONYMS>  (1) 
1H-Pyrazolo[3,4-d]pyrimidine-4,6(5H,7H)-dione; Alloxanthine; DHPP; Ossipurinolo; Oxipurinol; Oxipurinolum; Oxoallopurinol; Oxypurinol

$$$$
