
     RDKit          2D

 29 32  0  0  0  0  0  0  0  0999 V2000
    0.0000   -3.9187    0.0000 C   0  0  0  0  0  0  0  0  0  0  0  0
   -2.1433    3.9187    0.0000 C   0  0  0  0  0  0  0  0  0  0  0  0
    0.0000   -1.4437    0.0000 C   0  0  0  0  0  0  0  0  0  0  0  0
    1.4290    0.2062    0.0000 C   0  0  0  0  0  0  0  0  0  0  0  0
   -2.8579    3.5062    0.0000 C   0  0  0  0  0  0  0  0  0  0  0  0
   -1.4288    3.5062    0.0000 C   0  0  0  0  0  0  0  0  0  0  0  0
    0.7145   -1.0310    0.0000 C   0  0  0  0  0  0  0  0  0  0  0  0
    0.0000   -2.2687    0.0000 C   0  0  0  0  0  0  0  0  0  0  0  0
    2.1433   -2.6812    0.0000 C   0  0  0  0  0  0  0  0  0  0  0  0
    2.8578   -2.2687    0.0000 C   0  0  0  0  0  0  0  0  0  0  0  0
    1.4290    1.0310    0.0000 C   0  0  0  0  0  0  0  0  0  0  0  0
    2.1433   -0.2062    0.0000 C   0  0  0  0  0  0  0  0  0  0  0  0
    0.7145    2.2687    0.0000 C   0  0  0  0  0  0  0  0  0  0  0  0
    0.0000    1.0310    0.0000 C   0  0  0  0  0  0  0  0  0  0  0  0
    0.0000    2.6812    0.0000 C   0  0  0  0  0  0  0  0  0  0  0  0
   -0.7143    1.4437    0.0000 C   0  0  0  0  0  0  0  0  0  0  0  0
   -2.1433    2.2687    0.0000 C   0  0  0  0  0  0  0  0  0  0  0  0
   -2.8579    2.6812    0.0000 C   0  0  0  0  0  0  0  0  0  0  0  0
   -1.4288    2.6812    0.0000 C   0  0  0  0  0  0  0  0  0  0  0  0
    1.4290   -2.2687    0.0000 C   0  0  0  0  0  0  0  0  0  0  0  0
    1.4290   -1.4437    0.0000 C   0  0  0  0  0  0  0  0  0  0  0  0
    0.7145   -2.6812    0.0000 C   0  0  0  0  0  0  0  0  0  0  0  0
    2.8578   -1.4437    0.0000 C   0  0  0  0  0  0  0  0  0  0  0  0
   -3.5723    2.2687    0.0000 Cl  0  0  0  0  0  0  0  0  0  0  0  0
    0.7145    1.4437    0.0000 N   0  0  0  0  0  0  0  0  0  0  0  0
   -0.7143    2.2687    0.0000 N   0  0  0  0  0  0  0  0  0  0  0  0
    2.1433   -1.0310    0.0000 N   0  0  0  0  0  0  0  0  0  0  0  0
    3.5723   -1.0310    0.0000 O   0  0  0  0  0  0  0  0  0  0  0  0
    0.7145   -3.5062    0.0000 O   0  0  0  0  0  0  0  0  0  0  0  0
  5  2  2  0
  6  2  1  0
  7  3  2  0
  8  3  1  0
 10  9  1  0
 11  4  1  0
 12  4  1  0
 15 13  1  0
 16 14  1  0
 18  5  1  0
 18 17  2  0
 19  6  2  0
 19 17  1  0
 20  9  1  0
 21  7  1  0
 21 20  2  0
 22  8  2  0
 22 20  1  0
 23 10  1  0
 24 18  1  0
 25 11  1  0
 25 13  1  0
 25 14  1  0
 26 15  1  0
 26 16  1  0
 26 19  1  0
 27 12  1  0
 27 21  1  0
 27 23  1  0
 28 23  2  0
 29  1  1  0
 29 22  1  0
M  END
>  <DRUGBANK_ID>  (1) 
DB05422

>  <COMMON_NAME>  (1) 
OPC-14523

>  <CAS_NUMBER>  (1) 
145969-30-8

>  <UNII>  (1) 
1981OTB4DS

$$$$
