
     RDKit          2D

 17 19  0  0  0  0  0  0  0  0999 V2000
    5.5322   -2.2844    0.0000 O   0  0  0  0  0  0  0  0  0  0  0  0
    4.7252   -2.1129    0.0000 C   0  0  0  0  0  0  0  0  0  0  0  0
    4.4703   -1.3283    0.0000 C   0  0  0  0  0  0  0  0  0  0  0  0
    3.6633   -1.1567    0.0000 N   0  0  0  0  0  0  0  0  0  0  0  0
    3.4084   -0.3721    0.0000 C   0  0  0  0  0  0  0  0  0  0  0  0
    3.9604    0.2410    0.0000 N   0  0  0  0  0  0  0  0  0  0  0  0
    3.7054    1.0256    0.0000 C   0  0  0  0  0  0  0  0  0  0  0  0
    2.8985    1.1971    0.0000 N   0  0  0  0  0  0  0  0  0  0  0  0
    2.3464    0.5840    0.0000 C   0  0  0  0  0  0  0  0  0  0  0  0
    2.6014   -0.2006    0.0000 C   0  0  0  0  0  0  0  0  0  0  0  0
    1.9339   -0.6855    0.0000 N   0  0  0  0  0  0  0  0  0  0  0  0
    1.2665   -0.2006    0.0000 C   0  0  0  0  0  0  0  0  0  0  0  0
    0.4595   -0.3721    0.0000 C   0  0  0  0  0  0  0  0  0  0  0  0
   -0.0925    0.2410    0.0000 C   0  0  0  0  0  0  0  0  0  0  0  0
    0.1624    1.0256    0.0000 C   0  0  0  0  0  0  0  0  0  0  0  0
    0.9694    1.1971    0.0000 C   0  0  0  0  0  0  0  0  0  0  0  0
    1.5214    0.5840    0.0000 N   0  0  0  0  0  0  0  0  0  0  0  0
  1  2  1  0
  2  3  1  0
  3  4  1  0
  4  5  1  0
  5  6  2  0
  5 10  1  0
  6  7  1  0
  7  8  2  0
  8  9  1  0
  9 10  2  0
  9 17  1  0
 10 11  1  0
 11 12  2  0
 12 13  1  0
 12 17  1  0
 13 14  2  0
 14 15  1  0
 15 16  2  0
 16 17  1  0
M  END
>  <DRUGBANK_ID>  (1) 
DB01994

>  <SECONDARY_ACCESSION_NUMBERS>  (1) 
EXPT02650

>  <COMMON_NAME>  (1) 
2-(Pyrido[1,2-E]Purin-4-Yl)Amino-Ethanol

$$$$
