
     RDKit          2D

 34 36  0  0  0  0  0  0  0  0999 V2000
   -1.4404    0.0983    0.0000 S   0  0  0  0  0  0  0  0  0  0  0  0
   -0.7261   -0.3140    0.0000 C   0  0  0  0  0  0  0  0  0  0  0  0
   -0.7261   -1.1391    0.0000 C   0  0  0  0  0  0  0  0  0  0  0  0
   -0.0116    0.0983    0.0000 C   0  0  0  0  0  0  0  0  0  0  0  0
   -0.0116   -1.5515    0.0000 C   0  0  0  0  0  0  0  0  0  0  0  0
    0.7029   -0.3140    0.0000 C   0  0  0  0  0  0  0  0  0  0  0  0
    0.7029   -1.1391    0.0000 C   0  0  0  0  0  0  0  0  0  0  0  0
    1.4173   -1.5515    0.0000 C   0  0  0  0  0  0  0  0  0  0  0  0
    2.1317   -1.1391    0.0000 C   0  0  0  0  0  0  0  0  0  0  0  0
    2.1317   -0.3140    0.0000 N   0  0  0  0  0  0  0  0  0  0  0  0
    2.8463    0.0983    0.0000 C   0  0  0  0  0  0  0  0  0  0  0  0
    3.5607   -0.3140    0.0000 O   0  0  0  0  0  0  0  0  0  0  0  0
    2.8463    0.9233    0.0000 N   0  0  0  0  0  0  0  0  0  0  0  0
    2.1788    1.4083    0.0000 C   0  0  0  0  0  0  0  0  0  0  0  0
    3.5136    1.4083    0.0000 C   0  0  0  0  0  0  0  0  0  0  0  0
    2.4338    2.1929    0.0000 C   0  0  0  0  0  0  0  0  0  0  0  0
    3.2587    2.1929    0.0000 C   0  0  0  0  0  0  0  0  0  0  0  0
    3.7437    2.8604    0.0000 C   0  0  0  0  0  0  0  0  0  0  0  0
    3.4082    3.6141    0.0000 C   0  0  0  0  0  0  0  0  0  0  0  0
    1.9488    2.8604    0.0000 C   0  0  0  0  0  0  0  0  0  0  0  0
    4.2984    1.1534    0.0000 O   0  0  0  0  0  0  0  0  0  0  0  0
   -2.1550   -0.3140    0.0000 N   0  0  0  0  0  0  0  0  0  0  0  0
   -2.8695    0.0983    0.0000 C   0  0  0  0  0  0  0  0  0  0  0  0
   -2.8695    0.9233    0.0000 O   0  0  0  0  0  0  0  0  0  0  0  0
   -3.5839   -0.3140    0.0000 N   0  0  0  0  0  0  0  0  0  0  0  0
   -3.5839   -1.1391    0.0000 C   0  0  0  0  0  0  0  0  0  0  0  0
   -2.8695   -1.5515    0.0000 C   0  0  0  0  0  0  0  0  0  0  0  0
   -2.8695   -2.3765    0.0000 C   0  0  0  0  0  0  0  0  0  0  0  0
   -4.2984   -2.3765    0.0000 C   0  0  0  0  0  0  0  0  0  0  0  0
   -4.2984   -1.5515    0.0000 C   0  0  0  0  0  0  0  0  0  0  0  0
   -3.5839   -2.7891    0.0000 C   0  0  0  0  0  0  0  0  0  0  0  0
   -3.5839   -3.6140    0.0000 C   0  0  0  0  0  0  0  0  0  0  0  0
   -1.8530    0.8129    0.0000 O   0  0  0  0  0  0  0  0  0  0  0  0
   -1.0280    0.8129    0.0000 O   0  0  0  0  0  0  0  0  0  0  0  0
  1 22  1  0
  2  1  1  0
  3  2  2  0
  4  2  1  0
  5  3  1  0
  6  4  2  0
  7  5  2  0
  7  6  1  0
  8  7  1  0
  9  8  1  0
 10  9  1  0
 11 10  1  0
 12 11  2  0
 13 11  1  0
 14 13  1  0
 15 13  1  0
 16 14  1  0
 17 15  1  0
 17 16  2  0
 18 17  1  0
 19 18  1  0
 20 16  1  0
 21 15  2  0
 22 23  1  0
 23 25  1  0
 23 24  2  0
 26 25  1  1
 26 27  1  0
 26 30  1  0
 27 28  1  0
 28 31  1  0
 29 30  1  0
 31 29  1  0
 31 32  1  6
 33  1  2  0
 34  1  2  0
M  END
>  <DRUGBANK_ID>  (1) 
DB00222

>  <SECONDARY_ACCESSION_NUMBERS>  (1) 
APRD00381

>  <COMMON_NAME>  (1) 
Glimepiride

>  <CAS_NUMBER>  (1) 
93479-97-1

>  <UNII>  (1) 
6KY687524K

>  <SYNONYMS>  (1) 
Glimepirida; Glimepiride; GlimÃ©piride; Glimepiridum

$$$$
