D4M
     RDKit          2D

 20 21  0  0  0  0  0  0  0  0999 V2000
   -1.0880    3.8128    0.0000 O   0  0  0  0  0  0  0  0  0  0  0  0
   -1.0880    2.9878    0.0000 P   0  0  0  0  0  0  0  0  0  0  0  0
   -1.9130    2.9878    0.0000 O   0  0  0  0  0  0  0  0  0  0  0  0
   -0.2630    2.9878    0.0000 O   0  0  0  0  0  0  0  0  0  0  0  0
   -1.0880    2.1628    0.0000 O   0  0  0  0  0  0  0  0  0  0  0  0
   -0.3736    1.7503    0.0000 C   0  0  0  0  0  0  0  0  0  0  0  0
   -0.3736    0.9253    0.0000 C   0  0  0  0  0  0  0  0  0  0  0  0
    0.2939    0.4404    0.0000 O   0  0  0  0  0  0  0  0  0  0  0  0
   -1.0410    0.4404    0.0000 C   0  0  0  0  0  0  0  0  0  0  0  0
   -0.7861   -0.3442    0.0000 C   0  0  0  0  0  0  0  0  0  0  0  0
    0.0389   -0.3442    0.0000 C   0  0  0  0  0  0  0  0  0  0  0  0
    0.5239   -1.0117    0.0000 N   0  0  0  0  0  0  0  0  0  0  0  0
    1.3443   -0.9254    0.0000 C   0  0  0  0  0  0  0  0  0  0  0  0
    1.8293   -1.5929    0.0000 C   0  0  0  0  0  0  0  0  0  0  0  0
    2.6497   -1.5066    0.0000 C   0  0  0  0  0  0  0  0  0  0  0  0
    1.4937   -2.3465    0.0000 C   0  0  0  0  0  0  0  0  0  0  0  0
    1.9786   -3.0140    0.0000 O   0  0  0  0  0  0  0  0  0  0  0  0
    0.6732   -2.4328    0.0000 N   0  0  0  0  0  0  0  0  0  0  0  0
    0.1883   -1.7653    0.0000 C   0  0  0  0  0  0  0  0  0  0  0  0
   -0.6322   -1.8516    0.0000 O   0  0  0  0  0  0  0  0  0  0  0  0
  1  2  1  0
  2  3  2  0
  2  4  1  0
  2  5  1  0
  5  6  1  0
  7  6  1  1
  7  8  1  0
  7  9  1  0
  8 11  1  0
  9 10  2  0
 10 11  1  0
 11 12  1  1
 12 13  1  0
 12 19  1  0
 13 14  2  0
 14 15  1  0
 14 16  1  0
 16 17  2  0
 16 18  1  0
 18 19  1  0
 19 20  2  0
M  END
>  <DRUGBANK_ID>  (1) 
DB04672

>  <COMMON_NAME>  (1) 
Cyclic 3',5'-thymidine monophosphate

>  <CAS_NUMBER>  (1) 
6453-60-7

>  <UNII>  (1) 
Q77PE87U4K

>  <SYNONYMS>  (1) 
3',5'-Cyclic dTMP; cTMP; Cyclic TMP; Thymidine cyclophosphate

$$$$
