458
     RDKit          2D

 19 21  0  0  0  0  0  0  0  0999 V2000
    0.8242    0.6900    0.0000 C   0  0  0  0  0  0  0  0  0  0  0  0
    0.2744    0.2540    0.0000 C   0  0  0  0  0  0  0  0  0  0  0  0
   -0.4796    0.0883    0.0000 C   0  0  0  0  0  0  0  0  0  0  0  0
   -0.4191    1.0570    0.0000 C   0  0  0  0  0  0  0  0  0  0  0  0
   -0.7715   -0.5486    0.0000 C   0  0  0  0  0  0  0  0  0  0  0  0
   -0.2670   -0.1243    0.0000 C   0  0  0  0  0  0  0  0  0  0  0  0
    0.6930   -0.1136    0.0000 C   0  0  0  0  0  0  0  0  0  0  0  0
    1.5830    0.2141    0.0000 C   0  0  0  0  0  0  0  0  0  0  0  0
    2.4189    0.2540    0.0000 O   0  0  0  0  0  0  0  0  0  0  0  0
    0.7400   -1.1005    0.0000 C   0  0  0  0  0  0  0  0  0  0  0  0
   -0.0763   -1.2800    0.0000 O   0  0  0  0  0  0  0  0  0  0  0  0
    0.3358   -0.6991    0.0000 C   0  0  0  0  0  0  0  0  0  0  0  0
   -0.4579   -0.4740    0.0000 C   0  0  0  0  0  0  0  0  0  0  0  0
   -1.0497   -1.0488    0.0000 C   0  0  0  0  0  0  0  0  0  0  0  0
   -1.8434   -0.8237    0.0000 C   0  0  0  0  0  0  0  0  0  0  0  0
   -2.0453   -0.0238    0.0000 C   0  0  0  0  0  0  0  0  0  0  0  0
   -2.8390    0.2013    0.0000 O   0  0  0  0  0  0  0  0  0  0  0  0
   -1.4535    0.5510    0.0000 C   0  0  0  0  0  0  0  0  0  0  0  0
   -0.6598    0.3259    0.0000 C   0  0  0  0  0  0  0  0  0  0  0  0
  1  2  1  0
  1  7  1  0
  2  3  1  6
  2 12  1  0
  3  4  1  0
  3  5  2  0
  5  6  1  0
  6  7  1  0
  7  8  1  6
  7 10  1  0
  8  9  1  0
 10 11  1  0
 11 12  1  0
 12 13  1  1
 13 14  2  0
 13 19  1  0
 14 15  1  0
 15 16  2  0
 16 17  1  0
 16 18  1  0
 18 19  2  0
M  END
>  <DRUGBANK_ID>  (1) 
DB07086

>  <COMMON_NAME>  (1) 
4-[(1S,2S,5S)-5-(HYDROXYMETHYL)-8-METHYL-3-OXABICYCLO[3.3.1]NON-7-EN-2-YL]PHENOL

$$$$
