
     RDKit          2D

 16 18  0  0  0  0  0  0  0  0999 V2000
    2.1701   -0.3717    0.0000 C   0  0  0  0  0  0  0  0  0  0  0  0
    2.6890    0.2343    0.0000 N   0  0  0  0  0  0  0  0  0  0  0  0
    2.4494    0.9967    0.0000 C   0  0  0  0  0  0  0  0  0  0  0  0
    1.6712    1.1323    0.0000 C   0  0  0  0  0  0  0  0  0  0  0  0
   -0.2672    1.1519    0.0000 C   0  0  0  0  0  0  0  0  0  0  0  0
   -1.0505    0.9717    0.0000 C   0  0  0  0  0  0  0  0  0  0  0  0
   -1.2978    0.1754    0.0000 C   0  0  0  0  0  0  0  0  0  0  0  0
   -0.7577   -0.4287    0.0000 C   0  0  0  0  0  0  0  0  0  0  0  0
    0.7101   -0.6859    0.0000 N   0  0  0  0  0  0  0  0  0  0  0  0
    0.0776   -0.2515    0.0000 C   0  0  0  0  0  0  0  0  0  0  0  0
    1.3958   -0.2240    0.0000 C   0  0  0  0  0  0  0  0  0  0  0  0
    0.3248    0.5447    0.0000 C   0  0  0  0  0  0  0  0  0  0  0  0
    1.0921    0.5447    0.0000 C   0  0  0  0  0  0  0  0  0  0  0  0
    2.4436   -1.1519    0.0000 C   0  0  0  0  0  0  0  0  0  0  0  0
   -2.1056   -0.0005    0.0000 O   0  0  0  0  0  0  0  0  0  0  0  0
   -2.6890    0.5829    0.0000 C   0  0  0  0  0  0  0  0  0  0  0  0
  1 11  2  0
  1 14  1  0
  2  1  1  0
  2  3  2  0
  3  4  1  0
  4 13  2  0
  5 12  2  0
  6  5  1  0
  7  8  1  0
  7  6  2  0
  7 15  1  0
  8 10  2  0
 10  9  1  0
 11  9  1  0
 12 10  1  0
 13 11  1  0
 13 12  1  0
 15 16  1  0
M  END
>  <DRUGBANK_ID>  (1) 
DB07919

>  <COMMON_NAME>  (1) 
Harmine

>  <CAS_NUMBER>  (1) 
442-51-3

>  <UNII>  (1) 
4FHH5G48T7

>  <SYNONYMS>  (1) 
Banisterine; Leucoharmine; Telepathine; Yageine; Yajeine

$$$$
