
     RDKit          2D

 24 25  0  0  0  0  0  0  0  0999 V2000
    0.7077   -1.4284    0.0000 C   0  0  0  0  0  0  0  0  0  0  0  0
    0.7075   -0.6022    0.0000 C   0  0  0  0  0  0  0  0  0  0  0  0
    1.4208   -0.1852    0.0000 C   0  0  0  0  0  0  0  0  0  0  0  0
    2.1379   -0.5966    0.0000 C   0  0  0  0  0  0  0  0  0  0  0  0
    2.1418   -1.4248    0.0000 C   0  0  0  0  0  0  0  0  0  0  0  0
    1.4249   -1.8397    0.0000 N   0  0  0  0  0  0  0  0  0  0  0  0
   -0.7054   -1.4340    0.0000 C   0  0  0  0  0  0  0  0  0  0  0  0
   -1.4175   -1.8504    0.0000 C   0  0  0  0  0  0  0  0  0  0  0  0
   -2.1371   -1.4410    0.0000 C   0  0  0  0  0  0  0  0  0  0  0  0
   -2.1390   -0.6167    0.0000 C   0  0  0  0  0  0  0  0  0  0  0  0
   -1.4269   -0.2002    0.0000 C   0  0  0  0  0  0  0  0  0  0  0  0
   -0.7130   -0.6081    0.0000 C   0  0  0  0  0  0  0  0  0  0  0  0
   -2.8515   -0.2112    0.0000 O   0  0  0  0  0  0  0  0  0  0  0  0
   -2.8537    0.6135    0.0000 C   0  0  0  0  0  0  0  0  0  0  0  0
   -2.1416    1.0254    0.0000 C   0  0  0  0  0  0  0  0  0  0  0  0
   -1.4318    0.6125    0.0000 O   0  0  0  0  0  0  0  0  0  0  0  0
    0.0032   -1.8422    0.0000 O   0  0  0  0  0  0  0  0  0  0  0  0
   -3.5688    1.0247    0.0000 C   0  0  0  0  0  0  0  0  0  0  0  0
   -2.1416    1.8504    0.0000 O   0  0  0  0  0  0  0  0  0  0  0  0
   -0.0081   -0.1918    0.0000 Cl  0  0  0  0  0  0  0  0  0  0  0  0
    2.8533   -0.1826    0.0000 C   0  0  0  0  0  0  0  0  0  0  0  0
    2.8493    0.6438    0.0000 F   0  0  0  0  0  0  0  0  0  0  0  0
    3.5688   -0.5930    0.0000 F   0  0  0  0  0  0  0  0  0  0  0  0
    3.5617    0.2392    0.0000 F   0  0  0  0  0  0  0  0  0  0  0  0
  1  2  2  0
  2  3  1  0
  2 20  1  0
  3  4  2  0
  4  5  1  0
  4 21  1  0
  5  6  2  0
  6  1  1  0
  7 17  1  0
  7  8  2  0
  8  9  1  0
  9 10  2  0
 10 13  1  0
 10 11  1  0
 11 12  2  0
 12  7  1  0
 14 13  1  0
 14 15  1  0
 14 18  1  6
 15 16  1  0
 15 19  2  0
 17  1  1  0
 21 22  1  0
 21 23  1  0
 21 24  1  0
M  END
>  <DRUGBANK_ID>  (1) 
DB07870

>  <COMMON_NAME>  (1) 
Haloxyfop-P

>  <CAS_NUMBER>  (1) 
95977-29-0

>  <UNII>  (1) 
I57833604I

>  <SYNONYMS>  (1) 
(+)-haloxyfop; (R)-haloxyfop; (R)-haloxyfop-acid; R-haloxyfop-acid

$$$$
