
     RDKit          2D

 23 24  0  0  0  0  0  0  0  0999 V2000
   -5.9710    2.4402    0.0000 O   0  0  0  0  0  0  0  0  0  0  0  0
   -6.6854    2.0277    0.0000 C   0  0  0  0  0  0  0  0  0  0  0  0
   -6.6854    1.2027    0.0000 C   0  0  0  0  0  0  0  0  0  0  0  0
   -5.9710    0.7902    0.0000 C   0  0  0  0  0  0  0  0  0  0  0  0
   -5.2565    1.2027    0.0000 C   0  0  0  0  0  0  0  0  0  0  0  0
   -5.2565    2.0277    0.0000 C   0  0  0  0  0  0  0  0  0  0  0  0
   -4.5420    2.4402    0.0000 O   0  0  0  0  0  0  0  0  0  0  0  0
   -4.5420    0.7902    0.0000 O   0  0  0  0  0  0  0  0  0  0  0  0
   -5.9710   -0.0348    0.0000 O   0  0  0  0  0  0  0  0  0  0  0  0
   -7.3999    0.7902    0.0000 O   0  0  0  0  0  0  0  0  0  0  0  0
   -7.3999    2.4402    0.0000 C   0  0  0  0  0  0  0  0  0  0  0  0
   -8.1144    2.0277    0.0000 O   0  0  0  0  0  0  0  0  0  0  0  0
   -3.1131    4.0902    0.0000 O   0  0  0  0  0  0  0  0  0  0  0  0
   -3.8275    3.6777    0.0000 C   0  0  0  0  0  0  0  0  0  0  0  0
   -3.8275    2.8527    0.0000 C   0  0  0  0  0  0  0  0  0  0  0  0
   -3.1131    2.4402    0.0000 C   0  0  0  0  0  0  0  0  0  0  0  0
   -2.3986    2.8527    0.0000 C   0  0  0  0  0  0  0  0  0  0  0  0
   -2.3986    3.6777    0.0000 C   0  0  0  0  0  0  0  0  0  0  0  0
   -1.6841    4.0902    0.0000 O   0  0  0  0  0  0  0  0  0  0  0  0
   -1.6841    2.4402    0.0000 O   0  0  0  0  0  0  0  0  0  0  0  0
   -3.1131    1.6152    0.0000 O   0  0  0  0  0  0  0  0  0  0  0  0
   -4.5420    4.0902    0.0000 C   0  0  0  0  0  0  0  0  0  0  0  0
   -5.2565    3.6777    0.0000 O   0  0  0  0  0  0  0  0  0  0  0  0
  1  2  1  0
  1  6  1  0
  2  3  1  0
  2 11  1  1
  3  4  1  0
  3 10  1  6
  4  5  1  0
  4  9  1  1
  5  6  1  0
  5  8  1  6
  6  7  1  6
 11 12  1  0
 13 14  1  0
 13 18  1  0
 14 15  1  0
 14 22  1  1
 15 16  1  0
 15  7  1  6
 16 17  1  0
 16 21  1  1
 17 18  1  0
 17 20  1  6
 18 19  1  0
 22 23  1  0
M  END
>  <DRUGBANK_ID>  (1) 
DB03323

>  <SECONDARY_ACCESSION_NUMBERS>  (1) 
EXPT02111

>  <COMMON_NAME>  (1) 
Maltose

>  <CAS_NUMBER>  (1) 
69-79-4

>  <UNII>  (1) 
66Y63L379N

>  <SYNONYMS>  (1) 
D-(+)-maltose; Maltose anhydrous

$$$$
