
     RDKit          2D

 30 33  0  0  0  0  0  0  0  0999 V2000
   -0.9639   -1.1379    0.0000 C   0  0  0  0  0  0  0  0  0  0  0  0
    0.6293   -1.1447    0.0000 C   0  0  0  0  0  0  0  0  0  0  0  0
    1.2183   -0.5623    0.0000 C   0  0  0  0  0  0  0  0  0  0  0  0
    1.4326    0.2343    0.0000 C   0  0  0  0  0  0  0  0  0  0  0  0
    1.2183    1.0309    0.0000 C   0  0  0  0  0  0  0  0  0  0  0  0
    0.6360    1.6200    0.0000 N   0  0  0  0  0  0  0  0  0  0  0  0
   -0.1606    1.8342    0.0000 C   0  0  0  0  0  0  0  0  0  0  0  0
   -0.9572    1.6200    0.0000 C   0  0  0  0  0  0  0  0  0  0  0  0
   -1.5464    1.0376    0.0000 C   0  0  0  0  0  0  0  0  0  0  0  0
   -1.7606    0.2409    0.0000 C   0  0  0  0  0  0  0  0  0  0  0  0
   -1.5464   -0.5556    0.0000 O   0  0  0  0  0  0  0  0  0  0  0  0
   -0.1539    2.6576    0.0000 O   0  0  0  0  0  0  0  0  0  0  0  0
   -1.1715    2.4233    0.0000 C   0  0  0  0  0  0  0  0  0  0  0  0
   -1.9681    2.6376    0.0000 C   0  0  0  0  0  0  0  0  0  0  0  0
   -2.5505    2.0551    0.0000 C   0  0  0  0  0  0  0  0  0  0  0  0
   -2.3430    1.2585    0.0000 C   0  0  0  0  0  0  0  0  0  0  0  0
   -3.3472    2.2694    0.0000 F   0  0  0  0  0  0  0  0  0  0  0  0
    1.0510    2.3296    0.0000 C   0  0  0  0  0  0  0  0  0  0  0  0
   -2.5840    0.2476    0.0000 C   0  0  0  0  0  0  0  0  0  0  0  0
    1.9079   -1.0175    0.0000 C   0  0  0  0  0  0  0  0  0  0  0  0
    2.5505   -0.4953    0.0000 N   0  0  0  0  0  0  0  0  0  0  0  0
    2.2560    0.2343    0.0000 N   0  0  0  0  0  0  0  0  0  0  0  0
   -0.9639   -2.0418    0.0000 C   0  0  0  0  0  0  0  0  0  0  0  0
   -0.1807   -2.4970    0.0000 N   0  0  0  0  0  0  0  0  0  0  0  0
    0.5957   -2.0418    0.0000 C   0  0  0  0  0  0  0  0  0  0  0  0
   -0.1807   -0.6895    0.0000 C   0  0  0  0  0  0  0  0  0  0  0  0
   -1.7471   -2.4970    0.0000 N   0  0  0  0  0  0  0  0  0  0  0  0
    3.3472   -0.7028    0.0000 C   0  0  0  0  0  0  0  0  0  0  0  0
    1.9480   -1.8342    0.0000 C   0  0  0  0  0  0  0  0  0  0  0  0
    1.9882   -2.6576    0.0000 N   0  0  0  0  0  0  0  0  0  0  0  0
  1 11  1  0
  1 23  2  0
  1 26  1  0
  2  3  1  0
  2 25  1  0
  2 26  2  0
  3  4  1  0
  3 20  2  0
  4  5  1  0
  4 22  2  0
  5  6  1  0
  6  7  1  0
  6 18  1  0
  7  8  1  0
  7 12  2  0
  8  9  2  0
  8 13  1  0
  9 10  1  0
  9 16  1  0
 10 11  1  0
 10 19  1  6
 13 14  2  0
 14 15  1  0
 15 16  2  0
 15 17  1  0
 20 21  1  0
 20 29  1  0
 21 22  1  0
 21 28  1  0
 23 24  1  0
 23 27  1  0
 24 25  2  0
 29 30  3  0
M  END
>  <DRUGBANK_ID>  (1) 
DB12130

>  <COMMON_NAME>  (1) 
Lorlatinib

>  <CAS_NUMBER>  (1) 
1454846-35-5

>  <UNII>  (1) 
OSP71S83EU

>  <SYNONYMS>  (1) 
Lorlatinib

$$$$
