334
     RDKit          2D

 21 23  0  0  0  0  0  0  0  0999 V2000
    1.3542    0.6967    0.0000 C   0  0  0  0  0  0  0  0  0  0  0  0
    1.3542   -0.1283    0.0000 C   0  0  0  0  0  0  0  0  0  0  0  0
    0.6397   -0.5408    0.0000 C   0  0  0  0  0  0  0  0  0  0  0  0
   -0.0747   -0.1283    0.0000 C   0  0  0  0  0  0  0  0  0  0  0  0
   -0.0747    0.6967    0.0000 C   0  0  0  0  0  0  0  0  0  0  0  0
    0.6397    1.1092    0.0000 C   0  0  0  0  0  0  0  0  0  0  0  0
    2.0687    1.1092    0.0000 C   0  0  0  0  0  0  0  0  0  0  0  0
    2.7832    0.6967    0.0000 N   0  0  0  0  0  0  0  0  0  0  0  0
    2.0687    1.9342    0.0000 N   0  0  0  0  0  0  0  0  0  0  0  0
   -0.8593   -0.3832    0.0000 N   0  0  0  0  0  0  0  0  0  0  0  0
   -0.8593    0.9516    0.0000 N   0  0  0  0  0  0  0  0  0  0  0  0
   -1.3443    0.2842    0.0000 C   0  0  0  0  0  0  0  0  0  0  0  0
   -2.1693    0.2842    0.0000 C   0  0  0  0  0  0  0  0  0  0  0  0
   -2.5818   -0.4303    0.0000 C   0  0  0  0  0  0  0  0  0  0  0  0
   -3.4068   -0.4303    0.0000 C   0  0  0  0  0  0  0  0  0  0  0  0
   -3.8193   -1.1447    0.0000 C   0  0  0  0  0  0  0  0  0  0  0  0
   -3.8193    0.2842    0.0000 C   0  0  0  0  0  0  0  0  0  0  0  0
   -3.4068    0.9987    0.0000 C   0  0  0  0  0  0  0  0  0  0  0  0
   -2.5818    0.9987    0.0000 C   0  0  0  0  0  0  0  0  0  0  0  0
   -2.1693    1.7132    0.0000 O   0  0  0  0  0  0  0  0  0  0  0  0
   -3.8193    1.7132    0.0000 Br  0  0  0  0  0  0  0  0  0  0  0  0
  1  2  2  0
  1  6  1  0
  1  7  1  0
  2  3  1  0
  3  4  2  0
  4  5  1  0
  4 10  1  0
  5  6  2  0
  5 11  1  0
  7  8  1  0
  7  9  2  0
 10 12  1  0
 11 12  2  0
 12 13  1  0
 13 14  2  0
 13 19  1  0
 14 15  1  0
 15 16  1  0
 15 17  2  0
 17 18  1  0
 18 19  2  0
 18 21  1  0
 19 20  1  0
M  CHG  2   9   1  20  -1
M  END
>  <DRUGBANK_ID>  (1) 
DB02288

>  <SECONDARY_ACCESSION_NUMBERS>  (1) 
EXPT00152

>  <COMMON_NAME>  (1) 
CRA-9334

$$$$
