PDE
     RDKit          2D

 24 24  0  0  0  0  0  0  0  0999 V2000
   -1.3760    0.0968    0.0000 P   0  0  0  0  0  0  0  0  0  0  0  0
   -2.1421    0.4030    0.0000 O   0  0  0  0  0  0  0  0  0  0  0  0
   -1.0698    0.8629    0.0000 O   0  0  0  0  0  0  0  0  0  0  0  0
   -1.6822   -0.6693    0.0000 O   0  0  0  0  0  0  0  0  0  0  0  0
   -0.6099   -0.2094    0.0000 C   0  0  0  0  0  0  0  0  0  0  0  0
    0.0383    0.3009    0.0000 C   0  0  0  0  0  0  0  0  0  0  0  0
    0.8044   -0.0053    0.0000 C   0  0  0  0  0  0  0  0  0  0  0  0
    1.4526    0.5051    0.0000 C   0  0  0  0  0  0  0  0  0  0  0  0
    2.2187    0.1989    0.0000 N   0  0  0  0  0  0  0  0  0  0  0  0
    1.3347    1.3216    0.0000 O   0  0  0  0  0  0  0  0  0  0  0  0
    2.8669    0.7092    0.0000 C   0  0  0  0  0  0  0  0  0  0  0  0
    2.7490    1.5257    0.0000 C   0  0  0  0  0  0  0  0  0  0  0  0
    3.6329    0.4030    0.0000 C   0  0  0  0  0  0  0  0  0  0  0  0
    4.2812    0.9133    0.0000 O   0  0  0  0  0  0  0  0  0  0  0  0
    3.7508   -0.4135    0.0000 O   0  0  0  0  0  0  0  0  0  0  0  0
   -2.7903   -0.1073    0.0000 C   0  0  0  0  0  0  0  0  0  0  0  0
   -2.6724   -0.9239    0.0000 C   0  0  0  0  0  0  0  0  0  0  0  0
   -3.5563    0.1989    0.0000 C   0  0  0  0  0  0  0  0  0  0  0  0
   -4.0867   -1.1280    0.0000 C   0  0  0  0  0  0  0  0  0  0  0  0
   -4.2046   -0.3115    0.0000 C   0  0  0  0  0  0  0  0  0  0  0  0
   -3.3206   -1.4342    0.0000 C   0  0  0  0  0  0  0  0  0  0  0  0
   -4.7349   -1.6383    0.0000 N   0  0  0  0  0  0  0  0  0  0  0  0
   -4.6171   -2.4549    0.0000 O   0  0  0  0  0  0  0  0  0  0  0  0
   -5.5010   -1.3321    0.0000 O   0  0  0  0  0  0  0  0  0  0  0  0
  1  2  1  0
  1  3  1  0
  1  4  2  0
  1  5  1  0
  2 16  1  0
  5  6  1  0
  6  7  1  0
  7  8  1  0
  8  9  1  0
  8 10  2  0
  9 11  1  0
 11 12  1  1
 11 13  1  0
 13 14  2  0
 13 15  1  0
 16 17  2  0
 16 18  1  0
 17 21  1  0
 18 20  2  0
 19 20  1  0
 19 21  2  0
 19 22  1  0
 22 23  2  0
 22 24  1  0
M  CHG  2  22   1  24  -1
M  END
>  <DRUGBANK_ID>  (1) 
DB08411

>  <COMMON_NAME>  (1) 
N-[4-(4-nitrophenylphospho)butanoyl]-L-alanine

>  <SYNONYMS>  (1) 
N-[4-(4-nitrophenylphospho)butyryl]-L-alanine; p-nitrophenyl phosphonobutanoyl L-alanine

$$$$
