
     RDKit          2D

 17 20  0  0  1  0  0  0  0  0999 V2000
    2.3566    1.1144    0.0000 C   0  0  0  0  0  0  0  0  0  0  0  0
    1.6421    0.7019    0.0000 C   0  0  0  0  0  0  0  0  0  0  0  0
    1.7115   -0.0212    0.0000 C   0  0  0  0  0  0  0  0  0  0  0  0
    2.3566   -0.5356    0.0000 C   0  0  0  0  0  0  0  0  0  0  0  0
    3.0710   -0.1231    0.0000 C   0  0  0  0  0  0  0  0  0  0  0  0
    3.0710    0.7019    0.0000 C   0  0  0  0  0  0  0  0  0  0  0  0
    3.7855   -0.5356    0.0000 C   0  0  0  0  0  0  0  0  0  0  0  0
    4.5701   -0.2806    0.0000 C   0  0  0  0  0  0  0  0  0  0  0  0
    5.0550   -0.9481    0.0000 C   0  0  0  0  0  0  0  0  0  0  0  0
    4.5701   -1.6155    0.0000 C   0  0  0  0  0  0  0  0  0  0  0  0
    3.7855   -1.3606    0.0000 C   0  0  0  0  0  0  0  0  0  0  0  0
    3.0710   -1.7731    0.0000 C   0  0  0  0  0  0  0  0  0  0  0  0
    2.3566   -1.3606    0.0000 N   0  0  0  0  0  0  0  0  0  0  0  0
    1.7115   -1.8749    0.0000 C   0  0  0  0  0  0  0  0  0  0  0  0
    0.9072   -1.6914    0.0000 C   0  0  0  0  0  0  0  0  0  0  0  0
    0.5493   -0.9481    0.0000 N   0  0  0  0  0  0  0  0  0  0  0  0
    0.9072   -0.2048    0.0000 C   0  0  0  0  0  0  0  0  0  0  0  0
  1  2  2  0
  1  6  1  0
  2  3  1  0
  3  4  2  0
  3 17  1  0
  4  5  1  0
  4 13  1  0
  5  6  2  0
  5  7  1  0
  7  8  1  1
  7 11  1  0
  8  9  1  0
  9 10  1  0
 11 10  1  1
 11 12  1  0
 12 13  1  0
 13 14  1  0
 14 15  1  0
 15 16  1  0
 16 17  1  0
M  END
>  <DRUGBANK_ID>  (1) 
DB12071

>  <COMMON_NAME>  (1) 
Vabicaserin

>  <CAS_NUMBER>  (1) 
887258-95-9

>  <UNII>  (1) 
WD9550HPNL

>  <SYNONYMS>  (1) 
Vabicaserin

$$$$
