813
     RDKit          2D

 25 27  0  0  0  0  0  0  0  0999 V2000
    1.6500    2.2688    0.0000 O   0  0  0  0  0  0  0  0  0  0  0  0
    3.0791   -0.2063    0.0000 N   0  0  0  0  0  0  0  0  0  0  0  0
    3.0791    2.2688    0.0000 N   0  0  0  0  0  0  0  0  0  0  0  0
    3.0791    1.4438    0.0000 C   0  0  0  0  0  0  0  0  0  0  0  0
    3.7935    1.0313    0.0000 C   0  0  0  0  0  0  0  0  0  0  0  0
    2.3645    1.0313    0.0000 C   0  0  0  0  0  0  0  0  0  0  0  0
    3.7935    0.2063    0.0000 C   0  0  0  0  0  0  0  0  0  0  0  0
    2.3645    0.2063    0.0000 C   0  0  0  0  0  0  0  0  0  0  0  0
    3.0791   -1.0313    0.0000 C   0  0  0  0  0  0  0  0  0  0  0  0
    2.3645   -1.4438    0.0000 C   0  0  0  0  0  0  0  0  0  0  0  0
    3.7935    2.6813    0.0000 C   0  0  0  0  0  0  0  0  0  0  0  0
    2.3645    2.6813    0.0000 C   0  0  0  0  0  0  0  0  0  0  0  0
    2.3645   -2.2688    0.0000 C   0  0  0  0  0  0  0  0  0  0  0  0
    2.3645    3.5063    0.0000 C   0  0  0  0  0  0  0  0  0  0  0  0
    3.7935    3.5063    0.0000 C   0  0  0  0  0  0  0  0  0  0  0  0
    4.5080    2.2688    0.0000 C   0  0  0  0  0  0  0  0  0  0  0  0
    1.6500    3.9188    0.0000 C   0  0  0  0  0  0  0  0  0  0  0  0
    3.0791   -2.6813    0.0000 C   0  0  0  0  0  0  0  0  0  0  0  0
    1.6500   -2.6813    0.0000 C   0  0  0  0  0  0  0  0  0  0  0  0
    4.5080    3.9188    0.0000 C   0  0  0  0  0  0  0  0  0  0  0  0
    5.2224    2.6813    0.0000 C   0  0  0  0  0  0  0  0  0  0  0  0
    5.2224    3.5063    0.0000 C   0  0  0  0  0  0  0  0  0  0  0  0
    3.0791   -3.5063    0.0000 C   0  0  0  0  0  0  0  0  0  0  0  0
    1.6500   -3.5063    0.0000 C   0  0  0  0  0  0  0  0  0  0  0  0
    2.3645   -3.9188    0.0000 C   0  0  0  0  0  0  0  0  0  0  0  0
  1 12  2  0
  2  7  1  0
  2  8  1  0
  2  9  1  0
  3  4  1  0
  3 11  1  0
  3 12  1  0
  4  5  1  0
  4  6  1  0
  5  7  1  0
  6  8  1  0
  9 10  1  0
 10 13  1  0
 11 15  2  0
 11 16  1  0
 12 14  1  0
 13 18  2  0
 13 19  1  0
 14 17  1  0
 15 20  1  0
 16 21  2  0
 18 23  1  0
 19 24  2  0
 20 22  2  0
 21 22  1  0
 23 25  2  0
 24 25  1  0
M  END
>  <DRUGBANK_ID>  (1) 
DB00813

>  <SECONDARY_ACCESSION_NUMBERS>  (1) 
APRD00347; DB05853; DB06055; DB06220; DB05564

>  <COMMON_NAME>  (1) 
Fentanyl

>  <CAS_NUMBER>  (1) 
437-38-7

>  <UNII>  (1) 
UF599785JZ

>  <SYNONYMS>  (1) 
1-Phenethyl-4-(N-phenylpropionamido)piperidine; 1-phenethyl-4-N-propionylanilinopiperidine; Fentanil; Fentanila; Fentanilo; Fentanyl; Fentanyl CII; Fentanylum; N-(1-phenethyl-4-piperidinyl)-N-phenylpropionamide; N-(1-phenethyl-4-piperidyl)propionanilide; N-(1-Phenethyl-piperidin-4-yl)-N-phenyl-propionamide; N-(1-phenethylpiperidin-4-yl)-N-phenylpropionamide; N-phenethyl-4-(N-propionylanilino)piperidine; N-phenyl-N-(1-(2-phenylethyl)-4-piperidinyl)propanamide; Phentanyl

$$$$
