B2Y
     RDKit          2D

 14 15  0  0  0  0  0  0  0  0999 V2000
   -0.2468    1.8314    0.0000 N   0  0  0  0  0  0  0  0  0  0  0  0
    1.1821    1.0064    0.0000 C   0  0  0  0  0  0  0  0  0  0  0  0
    1.8966    0.5939    0.0000 C   0  0  0  0  0  0  0  0  0  0  0  0
    1.8966   -0.2311    0.0000 C   0  0  0  0  0  0  0  0  0  0  0  0
    1.1821   -0.6436    0.0000 C   0  0  0  0  0  0  0  0  0  0  0  0
    0.4676   -0.2311    0.0000 C   0  0  0  0  0  0  0  0  0  0  0  0
   -0.9613   -0.2311    0.0000 C   0  0  0  0  0  0  0  0  0  0  0  0
   -0.9613   -1.8811    0.0000 C   0  0  0  0  0  0  0  0  0  0  0  0
   -0.2468    1.0064    0.0000 C   0  0  0  0  0  0  0  0  0  0  0  0
    0.4676    0.5939    0.0000 C   0  0  0  0  0  0  0  0  0  0  0  0
   -0.2468   -0.6436    0.0000 C   0  0  0  0  0  0  0  0  0  0  0  0
   -1.6758   -0.6436    0.0000 C   0  0  0  0  0  0  0  0  0  0  0  0
   -1.6758   -1.4686    0.0000 C   0  0  0  0  0  0  0  0  0  0  0  0
   -0.2468   -1.4686    0.0000 C   0  0  0  0  0  0  0  0  0  0  0  0
  1  9  1  0
  2  3  2  0
  2 10  1  0
  3  4  1  0
  4  5  2  0
  5  6  1  0
  6 10  2  0
  6 11  1  0
  7 11  2  0
  7 12  1  0
  8 13  1  0
  8 14  2  0
  9 10  1  0
 11 14  1  0
 12 13  2  0
M  END
>  <DRUGBANK_ID>  (1) 
DB07412

>  <COMMON_NAME>  (1) 
1-biphenyl-2-ylmethanamine

$$$$
