R88
     RDKit          2D

 25 27  0  0  0  0  0  0  0  0999 V2000
    1.3226    3.5451    0.0000 C   0  0  0  0  0  0  0  0  0  0  0  0
    0.6081    3.1326    0.0000 C   0  0  0  0  0  0  0  0  0  0  0  0
   -0.1064    3.5451    0.0000 O   0  0  0  0  0  0  0  0  0  0  0  0
    0.6081    2.3076    0.0000 C   0  0  0  0  0  0  0  0  0  0  0  0
    1.3226    1.8951    0.0000 C   0  0  0  0  0  0  0  0  0  0  0  0
    1.3226    1.0701    0.0000 C   0  0  0  0  0  0  0  0  0  0  0  0
    0.6081    0.6576    0.0000 C   0  0  0  0  0  0  0  0  0  0  0  0
   -0.1064   -0.5799    0.0000 C   0  0  0  0  0  0  0  0  0  0  0  0
   -0.1064   -1.4049    0.0000 C   0  0  0  0  0  0  0  0  0  0  0  0
   -0.8208   -1.8174    0.0000 C   0  0  0  0  0  0  0  0  0  0  0  0
   -0.8208   -2.6424    0.0000 C   0  0  0  0  0  0  0  0  0  0  0  0
   -1.5353   -3.0549    0.0000 N   0  0  0  0  0  0  0  0  0  0  0  0
   -2.2498   -2.6424    0.0000 C   0  0  0  0  0  0  0  0  0  0  0  0
   -1.5353   -3.8799    0.0000 C   0  0  0  0  0  0  0  0  0  0  0  0
   -1.1228   -4.5944    0.0000 C   0  0  0  0  0  0  0  0  0  0  0  0
   -0.1064    1.0701    0.0000 C   0  0  0  0  0  0  0  0  0  0  0  0
   -0.1064    1.8951    0.0000 C   0  0  0  0  0  0  0  0  0  0  0  0
    1.3226    4.3701    0.0000 C   0  0  0  0  0  0  0  0  0  0  0  0
    2.0370    4.7826    0.0000 C   0  0  0  0  0  0  0  0  0  0  0  0
    2.7515    4.3701    0.0000 C   0  0  0  0  0  0  0  0  0  0  0  0
    0.6081   -0.1674    0.0000 O   0  0  0  0  0  0  0  0  0  0  0  0
   -1.9478   -4.5944    0.0000 C   0  0  0  0  0  0  0  0  0  0  0  0
    3.4660    4.7826    0.0000 Br  0  0  0  0  0  0  0  0  0  0  0  0
    2.7515    3.5451    0.0000 C   0  0  0  0  0  0  0  0  0  0  0  0
    2.0370    3.1326    0.0000 C   0  0  0  0  0  0  0  0  0  0  0  0
  1  2  1  0
  1 18  2  0
  1 25  1  0
  2  3  2  0
  2  4  1  0
  4  5  2  0
  4 17  1  0
  5  6  1  0
  6  7  2  0
  7 16  1  0
  7 21  1  0
  8  9  1  0
  8 21  1  0
  9 10  2  0
 10 11  1  0
 11 12  1  0
 12 13  1  0
 12 14  1  0
 14 15  1  0
 14 22  1  0
 15 22  1  0
 16 17  2  0
 18 19  1  0
 19 20  2  0
 20 23  1  0
 20 24  1  0
 24 25  2  0
M  END
>  <DRUGBANK_ID>  (1) 
DB08458

>  <COMMON_NAME>  (1) 
(4-BROMOPHENYL)[4-({(2E)-4-[CYCLOPROPYL(METHYL)AMINO]BUT-2-ENYL}OXY)PHENYL]METHANONE

$$$$
