
     RDKit          2D

 11  8  0  0  0  0  0  0  0  0999 V2000
    2.0696   -0.3580    0.0000 Cu  0  0  0  0  0 15  0  0  0  0  0  0
    0.0000   -0.3580    0.0000 O   0  0  0  0  0  0  0  0  0  0  0  0
    0.8278   -0.3580    0.0000 C   0  0  0  0  0  0  0  0  0  0  0  0
    1.2376   -1.0740    0.0000 O   0  0  0  0  0  0  0  0  0  0  0  0
    1.2376    0.3580    0.0000 C   0  0  0  0  0  0  0  0  0  0  0  0
    0.8278    1.0740    0.0000 N   0  0  0  0  0  0  0  0  0  0  0  0
   -2.0696   -0.3580    0.0000 O   0  0  0  0  0  0  0  0  0  0  0  0
   -1.2417   -0.3580    0.0000 C   0  0  0  0  0  0  0  0  0  0  0  0
   -0.8319   -1.0740    0.0000 O   0  0  0  0  0  0  0  0  0  0  0  0
   -0.8319    0.3580    0.0000 C   0  0  0  0  0  0  0  0  0  0  0  0
   -1.2417    1.0740    0.0000 N   0  0  0  0  0  0  0  0  0  0  0  0
  2  3  2  0
  3  4  1  0
  3  5  1  0
  5  6  1  0
  7  8  1  0
  8  9  2  0
  8 10  1  0
 10 11  1  0
M  CHG  3   1   2   4  -1   7  -1
M  END
>  <DRUGBANK_ID>  (1) 
DB11509

>  <COMMON_NAME>  (1) 
Cupric glycinate

>  <CAS_NUMBER>  (1) 
13479-54-4

>  <UNII>  (1) 
68VAV8QID7

>  <SYNONYMS>  (1) 
Copper glycinate; Copper(II) biglycinate; Copper(II) diglycinate; Copper(II) glycinate; Cupric aminoacetate; Cupric glycinate

$$$$
