
     RDKit          2D

 24 27  0  0  1  0  0  0  0  0999 V2000
   -1.6810    0.4304    0.0000 C   0  0  0  0  0  0  0  0  0  0  0  0
    2.6232    0.6018    0.0000 C   0  0  0  0  0  0  0  0  0  0  0  0
    0.1073    0.1997    0.0000 C   0  0  0  0  0  0  0  0  0  0  0  0
    2.6520    2.7844    0.0000 C   0  0  0  0  0  0  0  0  0  0  0  0
    1.8399    2.6391    0.0000 C   0  0  0  0  0  0  0  0  0  0  0  0
   -0.5867    1.7614    0.0000 C   0  0  0  0  0  0  0  0  0  0  0  0
    0.0962    2.2244    0.0000 C   0  0  0  0  0  0  0  0  0  0  0  0
    4.2475    0.8922    0.0000 C   0  0  0  0  0  0  0  0  0  0  0  0
    3.4354    0.7470    0.0000 C   0  0  0  0  0  0  0  0  0  0  0  0
    3.9960    2.2989    0.0000 C   0  0  0  0  0  0  0  0  0  0  0  0
    0.9990    0.3114    0.0000 C   0  0  0  0  0  0  0  0  0  0  0  0
   -0.8637    0.3176    0.0000 C   0  0  0  0  0  0  0  0  0  0  0  0
    3.1838    2.1537    0.0000 C   0  0  0  0  0  0  0  0  0  0  0  0
    4.5278    1.6682    0.0000 C   0  0  0  0  0  0  0  0  0  0  0  0
    1.5596    1.8632    0.0000 C   0  0  0  0  0  0  0  0  0  0  0  0
   -0.3574    0.9689    0.0000 C   0  0  0  0  0  0  0  0  0  0  0  0
    0.7475    1.7180    0.0000 C   0  0  0  0  0  0  0  0  0  0  0  0
    1.8111    0.4566    0.0000 C   0  0  0  0  0  0  0  0  0  0  0  0
    2.0914    1.2325    0.0000 C   0  0  0  0  0  0  0  0  0  0  0  0
    2.9035    1.3777    0.0000 C   0  0  0  0  0  0  0  0  0  0  0  0
    0.4672    0.9421    0.0000 C   0  0  0  0  0  0  0  0  0  0  0  0
   -0.5528   -0.4466    0.0000 O   0  0  0  0  0  0  0  0  0  0  0  0
    5.3399    1.8134    0.0000 O   0  0  0  0  0  0  0  0  0  0  0  0
    2.3429   -0.1741    0.0000 O   0  0  0  0  0  0  0  0  0  0  0  0
  5  4  1  0
  7  6  1  0
  9  8  1  0
 12  1  1  0
 13  4  1  1
 13 10  1  0
 14  8  1  0
 14 10  1  0
 14 23  1  6
 15  5  1  6
 16  6  1  0
 16 12  1  1
 17  7  1  1
 17 15  1  0
 18 11  1  0
 19 15  1  0
 19 18  1  1
 20  2  1  1
 20  9  1  0
 20 13  1  0
 20 19  1  0
 21  3  1  1
 21 11  1  0
 21 16  1  0
 21 17  1  0
 22 12  2  0
 24 18  2  0
M  END
>  <DRUGBANK_ID>  (1) 
DB11371

>  <COMMON_NAME>  (1) 
Alfaxalone

>  <CAS_NUMBER>  (1) 
23930-19-0

>  <UNII>  (1) 
BD07M97B2A

>  <SYNONYMS>  (1) 
Alfaxalone

$$$$
