1450
     RDKit          2D

 30 35  0  0  1  0  0  0  0  0999 V2000
    4.3079   -1.4379    0.0000 O   0  0  0  0  0  0  0  0  0  0  0  0
    6.3946   -1.6094    0.0000 O   0  0  0  0  0  0  0  0  0  0  0  0
    7.2345    0.7003    0.0000 O   0  0  0  0  0  0  0  0  0  0  0  0
    2.2397   -1.6093    0.0000 O   0  0  0  0  0  0  0  0  0  0  0  0
    5.1422    1.9889    0.0000 N   0  0  0  0  0  0  0  0  0  0  0  0
    5.1422    0.5599    0.0000 C   0  0  0  0  0  0  0  0  0  0  0  0
    4.7296   -0.1546    0.0000 C   0  0  0  0  0  0  0  0  0  0  0  0
    5.9672   -0.8690    0.0000 C   0  0  0  0  0  0  0  0  0  0  0  0
    5.1422   -0.8690    0.0000 C   0  0  0  0  0  0  0  0  0  0  0  0
    5.9672    0.5599    0.0000 C   0  0  0  0  0  0  0  0  0  0  0  0
    6.3797   -0.1546    0.0000 C   0  0  0  0  0  0  0  0  0  0  0  0
    4.7296    1.2745    0.0000 C   0  0  0  0  0  0  0  0  0  0  0  0
    5.7380    0.1755    0.0000 C   0  0  0  0  0  0  0  0  0  0  0  0
    5.4263   -0.4479    0.0000 C   0  0  0  0  0  0  0  0  0  0  0  0
    4.3172    0.5599    0.0000 C   0  0  0  0  0  0  0  0  0  0  0  0
    3.9046   -0.1546    0.0000 C   0  0  0  0  0  0  0  0  0  0  0  0
    3.9046    1.2745    0.0000 C   0  0  0  0  0  0  0  0  0  0  0  0
    7.2345   -0.1546    0.0000 C   0  0  0  0  0  0  0  0  0  0  0  0
    4.3079    2.1372    0.0000 C   0  0  0  0  0  0  0  0  0  0  0  0
    3.4921    0.5599    0.0000 C   0  0  0  0  0  0  0  0  0  0  0  0
    3.4921   -0.8690    0.0000 C   0  0  0  0  0  0  0  0  0  0  0  0
    8.0894   -0.1546    0.0000 C   0  0  0  0  0  0  0  0  0  0  0  0
    5.9172    2.3497    0.0000 C   0  0  0  0  0  0  0  0  0  0  0  0
    7.2345   -1.0094    0.0000 C   0  0  0  0  0  0  0  0  0  0  0  0
    2.6671    0.5599    0.0000 C   0  0  0  0  0  0  0  0  0  0  0  0
    2.6671   -0.8690    0.0000 C   0  0  0  0  0  0  0  0  0  0  0  0
    5.9672   -2.3497    0.0000 C   0  0  0  0  0  0  0  0  0  0  0  0
    2.2545   -0.1546    0.0000 C   0  0  0  0  0  0  0  0  0  0  0  0
    8.5168    0.5857    0.0000 C   0  0  0  0  0  0  0  0  0  0  0  0
    9.3716    0.5857    0.0000 C   0  0  0  0  0  0  0  0  0  0  0  0
  9  1  1  6
  1 21  1  0
  2 27  1  0
  4 26  1  0
  5 12  1  0
  5 19  1  0
  5 23  1  0
  6  7  1  0
  6 10  1  1
  6 12  1  0
  6 13  1  0
  7  9  1  0
  7 15  1  1
  7 16  1  0
  8  2  1  6
  8  9  1  0
  8 11  1  0
  8 14  1  0
 11 10  1  6
 11 18  1  0
 12 17  1  1
 13 14  1  0
 15 19  1  0
 16 20  2  0
 16 21  1  0
 17 20  1  0
 18  3  1  0
 18 22  1  0
 18 24  1  1
 20 25  1  0
 21 26  2  0
 22 29  1  0
 25 28  2  0
 26 28  1  0
 29 30  1  0
M  END
>  <DRUGBANK_ID>  (1) 
DB01450

>  <COMMON_NAME>  (1) 
Dihydroetorphine

>  <CAS_NUMBER>  (1) 
14357-76-7

>  <UNII>  (1) 
QQX8S479YV

$$$$
