
     RDKit          2D

 35 37  0  0  0  0  0  0  0  0999 V2000
   -0.8502    0.7964    0.0000 S   0  0  0  0  0  0  0  0  0  0  0  0
    0.5787    1.6214    0.0000 O   0  0  0  0  0  0  0  0  0  0  0  0
    0.5787   -1.6785    0.0000 O   0  0  0  0  0  0  0  0  0  0  0  0
   -0.1357   -2.0910    0.0000 O   0  0  0  0  0  0  0  0  0  0  0  0
   -2.9936   -4.5660    0.0000 O   0  0  0  0  0  0  0  0  0  0  0  0
   -1.5646   -4.5660    0.0000 O   0  0  0  0  0  0  0  0  0  0  0  0
    3.4366   -0.8535    0.0000 O   0  0  0  0  0  0  0  0  0  0  0  0
    2.7220    0.3839    0.0000 O   0  0  0  0  0  0  0  0  0  0  0  0
   -0.8502   -0.8535    0.0000 N   0  0  0  0  0  0  0  0  0  0  0  0
    1.2931   -0.4410    0.0000 N   0  0  0  0  0  0  0  0  0  0  0  0
   -2.9936   -2.9160    0.0000 N   0  0  0  0  0  0  0  0  0  0  0  0
   -0.8502    1.6214    0.0000 C   0  0  0  0  0  0  0  0  0  0  0  0
   -0.1357    2.0339    0.0000 C   0  0  0  0  0  0  0  0  0  0  0  0
   -1.5646    2.0339    0.0000 C   0  0  0  0  0  0  0  0  0  0  0  0
   -0.1357    2.8589    0.0000 C   0  0  0  0  0  0  0  0  0  0  0  0
   -1.5646    2.8589    0.0000 C   0  0  0  0  0  0  0  0  0  0  0  0
   -0.8502    3.2714    0.0000 C   0  0  0  0  0  0  0  0  0  0  0  0
   -0.1357    0.3839    0.0000 C   0  0  0  0  0  0  0  0  0  0  0  0
   -2.3022    1.5928    0.0000 C   0  0  0  0  0  0  0  0  0  0  0  0
   -0.1357   -0.4410    0.0000 C   0  0  0  0  0  0  0  0  0  0  0  0
    0.6149    3.2770    0.0000 C   0  0  0  0  0  0  0  0  0  0  0  0
   -2.3022    3.3000    0.0000 C   0  0  0  0  0  0  0  0  0  0  0  0
   -0.8634    4.1306    0.0000 C   0  0  0  0  0  0  0  0  0  0  0  0
   -3.0496    2.0167    0.0000 C   0  0  0  0  0  0  0  0  0  0  0  0
   -3.0496    2.8761    0.0000 C   0  0  0  0  0  0  0  0  0  0  0  0
    0.6216    4.1363    0.0000 C   0  0  0  0  0  0  0  0  0  0  0  0
   -0.1225    4.5660    0.0000 C   0  0  0  0  0  0  0  0  0  0  0  0
    0.5787   -0.8535    0.0000 C   0  0  0  0  0  0  0  0  0  0  0  0
   -1.5646   -2.0910    0.0000 C   0  0  0  0  0  0  0  0  0  0  0  0
   -0.8502   -1.6785    0.0000 C   0  0  0  0  0  0  0  0  0  0  0  0
   -1.5646   -2.9160    0.0000 C   0  0  0  0  0  0  0  0  0  0  0  0
   -2.2791   -3.3285    0.0000 C   0  0  0  0  0  0  0  0  0  0  0  0
    2.0076   -0.8535    0.0000 C   0  0  0  0  0  0  0  0  0  0  0  0
   -2.2791   -4.1535    0.0000 C   0  0  0  0  0  0  0  0  0  0  0  0
    2.7220   -0.4410    0.0000 C   0  0  0  0  0  0  0  0  0  0  0  0
 12  1  1  1
  1 18  1  0
  3 28  2  0
  4 30  2  0
  5 34  1  0
  6 34  2  0
  7 35  1  0
  8 35  2  0
  9 30  1  0
 10 28  1  0
 10 33  1  0
 12 13  1  0
 12 14  1  0
 13  2  1  6
 13 15  1  0
 14 16  2  0
 14 19  1  0
 15 17  2  0
 15 21  1  0
 16 17  1  0
 16 22  1  0
 17 23  1  0
 20 18  1  1
 19 24  2  0
 20  9  1  0
 20 28  1  0
 21 26  2  0
 22 25  2  0
 23 27  2  0
 24 25  1  0
 26 27  1  0
 29 30  1  0
 29 31  1  0
 31 32  1  0
 32 11  1  1
 32 34  1  0
 33 35  1  0
M  END
>  <DRUGBANK_ID>  (1) 
DB04187

>  <SECONDARY_ACCESSION_NUMBERS>  (1) 
EXPT01642

>  <COMMON_NAME>  (1) 
(9S,10S)-9-(S-glutathionyl)-10-hydroxy-9,10-dihydrophenanthrene

$$$$
