738
     RDKit          2D

 21 23  0  0  0  0  0  0  0  0999 V2000
   -1.9785   -1.5652    0.0000 F   0  0  0  0  0  0  0  0  0  0  0  0
   -2.3910   -0.8508    0.0000 C   0  0  0  0  0  0  0  0  0  0  0  0
   -3.2160   -0.8508    0.0000 C   0  0  0  0  0  0  0  0  0  0  0  0
   -3.6285   -0.1363    0.0000 C   0  0  0  0  0  0  0  0  0  0  0  0
   -3.2160    0.5782    0.0000 C   0  0  0  0  0  0  0  0  0  0  0  0
   -2.3910    0.5782    0.0000 C   0  0  0  0  0  0  0  0  0  0  0  0
   -1.9785   -0.1363    0.0000 C   0  0  0  0  0  0  0  0  0  0  0  0
   -1.1535   -0.1363    0.0000 C   0  0  0  0  0  0  0  0  0  0  0  0
   -0.7410    0.5782    0.0000 O   0  0  0  0  0  0  0  0  0  0  0  0
   -0.7410   -0.8508    0.0000 N   0  0  0  0  0  0  0  0  0  0  0  0
    0.0840   -0.8508    0.0000 C   0  0  0  0  0  0  0  0  0  0  0  0
    0.5689   -0.1833    0.0000 C   0  0  0  0  0  0  0  0  0  0  0  0
    0.3140    0.6013    0.0000 C   0  0  0  0  0  0  0  0  0  0  0  0
    0.0590    1.3859    0.0000 N   0  0  0  0  0  0  0  0  0  0  0  0
    0.5689   -1.5182    0.0000 S   0  0  0  0  0  0  0  0  0  0  0  0
    1.3535   -1.2633    0.0000 C   0  0  0  0  0  0  0  0  0  0  0  0
    2.0680   -1.6758    0.0000 C   0  0  0  0  0  0  0  0  0  0  0  0
    2.7825   -1.2633    0.0000 C   0  0  0  0  0  0  0  0  0  0  0  0
    2.7825   -0.4383    0.0000 C   0  0  0  0  0  0  0  0  0  0  0  0
    2.0680   -0.0258    0.0000 C   0  0  0  0  0  0  0  0  0  0  0  0
    1.3535   -0.4383    0.0000 C   0  0  0  0  0  0  0  0  0  0  0  0
  2  1  1  0
  2  3  2  0
  4  3  1  0
  5  4  2  0
  6  7  2  0
  6  5  1  0
  7  2  1  0
  8  7  1  0
  9  8  2  0
 10  8  1  0
 11 10  1  0
 12 11  2  0
 12 13  1  0
 13 14  3  0
 15 11  1  0
 16 21  2  0
 16 15  1  0
 17 16  1  0
 18 17  1  0
 18 19  1  0
 19 20  1  0
 20 21  1  0
 21 12  1  0
M  END
>  <DRUGBANK_ID>  (1) 
DB07217

>  <COMMON_NAME>  (1) 
N-(3-cyano-4,5,6,7-tetrahydro-1-benzothien-2-yl)-2-fluorobenzamide

$$$$
