
     RDKit          2D

 28 32  0  0  0  0  0  0  0  0999 V2000
    4.0678    2.2910    0.0000 C   0  0  0  0  0  0  0  0  0  0  0  0
    4.7350    1.8058    0.0000 N   0  0  0  0  0  0  0  0  0  0  0  0
    4.6485    0.9854    0.0000 C   0  0  0  0  0  0  0  0  0  0  0  0
    4.8478    0.1848    0.0000 C   0  0  0  0  0  0  0  0  0  0  0  0
    4.2541   -0.3881    0.0000 C   0  0  0  0  0  0  0  0  0  0  0  0
    3.4612   -0.1604    0.0000 C   0  0  0  0  0  0  0  0  0  0  0  0
    3.6605   -0.9609    0.0000 O   0  0  0  0  0  0  0  0  0  0  0  0
    3.0668   -1.5338    0.0000 C   0  0  0  0  0  0  0  0  0  0  0  0
    2.2739   -1.3062    0.0000 C   0  0  0  0  0  0  0  0  0  0  0  0
    2.0746   -0.5056    0.0000 C   0  0  0  0  0  0  0  0  0  0  0  0
    2.6682    0.0673    0.0000 C   0  0  0  0  0  0  0  0  0  0  0  0
    2.3068    0.8089    0.0000 N   0  0  0  0  0  0  0  0  0  0  0  0
    1.4898    0.6944    0.0000 C   0  0  0  0  0  0  0  0  0  0  0  0
    1.3463   -0.1180    0.0000 C   0  0  0  0  0  0  0  0  0  0  0  0
    0.5709   -0.3999    0.0000 C   0  0  0  0  0  0  0  0  0  0  0  0
   -0.0609    0.1306    0.0000 C   0  0  0  0  0  0  0  0  0  0  0  0
    0.0827    0.9430    0.0000 C   0  0  0  0  0  0  0  0  0  0  0  0
    0.8580    1.2249    0.0000 C   0  0  0  0  0  0  0  0  0  0  0  0
   -0.8362   -0.1513    0.0000 F   0  0  0  0  0  0  0  0  0  0  0  0
    3.2619    0.6402    0.0000 C   0  0  0  0  0  0  0  0  0  0  0  0
    3.8555    1.2131    0.0000 C   0  0  0  0  0  0  0  0  0  0  0  0
    5.4715    1.0426    0.0000 C   0  0  0  0  0  0  0  0  0  0  0  0
    5.8334    1.7840    0.0000 C   0  0  0  0  0  0  0  0  0  0  0  0
    6.6564    1.8413    0.0000 C   0  0  0  0  0  0  0  0  0  0  0  0
    7.1175    1.1572    0.0000 C   0  0  0  0  0  0  0  0  0  0  0  0
    6.7556    0.4158    0.0000 C   0  0  0  0  0  0  0  0  0  0  0  0
    5.9326    0.3585    0.0000 C   0  0  0  0  0  0  0  0  0  0  0  0
    5.4888    2.1411    0.0000 C   0  0  0  0  0  0  0  0  0  0  0  0
  1  2  1  0
  2 28  1  0
  3  2  1  1
  3  4  1  0
  3 21  1  0
  3 22  1  0
  4  5  1  0
  6  5  1  1
  6  7  1  0
  6 11  1  0
  6 20  1  0
  7  8  1  0
  8  9  1  0
  9 10  1  0
 10 11  2  0
 10 14  1  0
 11 12  1  0
 12 13  1  0
 13 14  2  0
 13 18  1  0
 14 15  1  0
 15 16  2  0
 16 17  1  0
 16 19  1  0
 17 18  2  0
 20 21  1  0
 22 23  2  0
 22 27  1  0
 23 24  1  0
 24 25  2  0
 25 26  1  0
 26 27  2  0
M  END
>  <DRUGBANK_ID>  (1) 
DB12830

>  <COMMON_NAME>  (1) 
Cebranopadol

>  <CAS_NUMBER>  (1) 
863513-91-1

>  <UNII>  (1) 
7GDW9S3GN3

>  <SYNONYMS>  (1) 
Cebranopadol

$$$$
