32U
     RDKit          2D

 29 31  0  0  0  0  0  0  0  0999 V2000
   -0.0722   -1.4820    0.0000 N   0  0  0  0  0  0  0  0  0  0  0  0
    0.5953   -0.9970    0.0000 C   0  0  0  0  0  0  0  0  0  0  0  0
    0.5953   -0.1720    0.0000 C   0  0  0  0  0  0  0  0  0  0  0  0
    1.3097    0.2405    0.0000 O   0  0  0  0  0  0  0  0  0  0  0  0
   -0.1192    0.2405    0.0000 N   0  0  0  0  0  0  0  0  0  0  0  0
   -0.1192    1.0655    0.0000 C   0  0  0  0  0  0  0  0  0  0  0  0
    0.5953    1.4780    0.0000 C   0  0  0  0  0  0  0  0  0  0  0  0
    1.3097    1.0655    0.0000 C   0  0  0  0  0  0  0  0  0  0  0  0
    2.0242    1.4780    0.0000 C   0  0  0  0  0  0  0  0  0  0  0  0
    2.0242    2.3030    0.0000 C   0  0  0  0  0  0  0  0  0  0  0  0
    2.7387    2.7155    0.0000 C   0  0  0  0  0  0  0  0  0  0  0  0
    2.7387    3.5405    0.0000 N   0  0  0  0  0  0  0  0  0  0  0  0
    3.4531    2.3030    0.0000 N   0  0  0  0  0  0  0  0  0  0  0  0
    1.3097    2.7155    0.0000 C   0  0  0  0  0  0  0  0  0  0  0  0
    0.5953    2.3030    0.0000 C   0  0  0  0  0  0  0  0  0  0  0  0
    1.2627   -1.4820    0.0000 C   0  0  0  0  0  0  0  0  0  0  0  0
    1.0078   -2.2666    0.0000 C   0  0  0  0  0  0  0  0  0  0  0  0
    0.1828   -2.2666    0.0000 C   0  0  0  0  0  0  0  0  0  0  0  0
   -0.8568   -1.2270    0.0000 C   0  0  0  0  0  0  0  0  0  0  0  0
   -1.4699   -1.7791    0.0000 C   0  0  0  0  0  0  0  0  0  0  0  0
   -1.2984   -2.5860    0.0000 N   0  0  0  0  0  0  0  0  0  0  0  0
   -2.2545   -1.5241    0.0000 C   0  0  0  0  0  0  0  0  0  0  0  0
   -1.0283   -0.4201    0.0000 O   0  0  0  0  0  0  0  0  0  0  0  0
   -2.4260   -0.7172    0.0000 C   0  0  0  0  0  0  0  0  0  0  0  0
   -1.8130   -0.1651    0.0000 C   0  0  0  0  0  0  0  0  0  0  0  0
   -1.9845    0.6418    0.0000 C   0  0  0  0  0  0  0  0  0  0  0  0
   -2.7691    0.8968    0.0000 C   0  0  0  0  0  0  0  0  0  0  0  0
   -3.3822    0.3448    0.0000 C   0  0  0  0  0  0  0  0  0  0  0  0
   -3.2107   -0.4622    0.0000 C   0  0  0  0  0  0  0  0  0  0  0  0
  1 19  1  0
  2  1  1  0
  2  3  1  6
  3  5  1  0
  4  3  2  0
  6  5  1  0
  6  7  1  0
  7 15  1  0
  7  8  2  0
  8  9  1  0
  9 10  2  0
 10 11  1  0
 11 13  1  0
 11 12  2  0
 14 10  1  0
 15 14  2  0
 16 17  1  0
 16  2  1  0
 17 18  1  0
 18  1  1  0
 19 23  2  0
 19 20  1  0
 20 22  1  0
 20 21  1  6
 22 24  1  0
 24 29  2  0
 25 26  2  0
 25 24  1  0
 26 27  1  0
 27 28  2  0
 29 28  1  0
M  CHG  1  12   1
M  END
>  <DRUGBANK_ID>  (1) 
DB07005

>  <COMMON_NAME>  (1) 
D-phenylalanyl-N-{4-[amino(iminio)methyl]benzyl}-L-prolinamide

$$$$
