
     RDKit          2D

 21 19  0  0  0  0  0  0  0  0999 V2000
    4.1025    0.2005    0.0000 C   0  0  0  0  0  0  0  0  0  0  0  0
    2.6664    0.2109    0.0000 C   0  0  0  0  0  0  0  0  0  0  0  0
    4.8167   -0.2005    0.0000 C   0  0  0  0  0  0  0  0  0  0  0  0
    3.3961   -0.2109    0.0000 C   0  0  0  0  0  0  0  0  0  0  0  0
    2.6664    1.0259    0.0000 O   0  0  0  0  0  0  0  0  0  0  0  0
    5.5360    0.2238    0.0000 O   0  0  0  0  0  0  0  0  0  0  0  0
    3.3961   -1.0491    0.0000 N   0  0  0  0  0  0  0  0  0  0  0  0
    1.9600   -0.2005    0.0000 O   0  0  0  0  0  0  0  0  0  0  0  0
    4.8295   -1.0259    0.0000 O   0  0  0  0  0  0  0  0  0  0  0  0
   -0.5187    0.2161    0.0000 C   0  0  0  0  0  0  0  0  0  0  0  0
   -4.7985    0.2161    0.0000 C   0  0  0  0  0  0  0  0  0  0  0  0
   -0.5187    1.0491    0.0000 N   0  0  0  0  0  0  0  0  0  0  0  0
   -4.8115    1.0311    0.0000 O   0  0  0  0  0  0  0  0  0  0  0  0
   -1.2329   -0.1876    0.0000 N   0  0  0  0  0  0  0  0  0  0  0  0
   -4.0973   -0.2186    0.0000 C   0  0  0  0  0  0  0  0  0  0  0  0
    0.2005   -0.2005    0.0000 N   0  0  0  0  0  0  0  0  0  0  0  0
   -5.5360   -0.2005    0.0000 O   0  0  0  0  0  0  0  0  0  0  0  0
   -4.1050   -1.0155    0.0000 N   0  0  0  0  0  0  0  0  0  0  0  0
   -1.9497    0.2161    0.0000 C   0  0  0  0  0  0  0  0  0  0  0  0
   -3.3987    0.2161    0.0000 C   0  0  0  0  0  0  0  0  0  0  0  0
   -2.6690   -0.2005    0.0000 C   0  0  0  0  0  0  0  0  0  0  0  0
  2  4  1  0
  3  1  1  0
  4  1  1  0
  4  7  1  6
  5  2  2  0
  6  3  2  0
  8  2  1  0
  9  3  1  0
 11 15  1  0
 12 10  2  0
 13 11  2  0
 14 10  1  0
 15 20  1  0
 15 18  1  6
 16 10  1  0
 17 11  1  0
 19 14  1  0
 20 21  1  0
 21 19  1  0
M  END
>  <DRUGBANK_ID>  (1) 
DB15993

>  <COMMON_NAME>  (1) 
Arginine aspartate

>  <CAS_NUMBER>  (1) 
7675-83-4

>  <UNII>  (1) 
LZB1G2I725

>  <SYNONYMS>  (1) 
Arginine L-aspartate; L-Arginine aspartate; L-Arginine-L-aspartate

$$$$
