
     RDKit          2D

 35 37  0  0  1  0  0  0  0  0999 V2000
    4.6356    9.9587    0.0000 C   0  0  0  0  0  0  0  0  0  0  0  0
    2.4752    7.4641    0.0000 C   0  0  0  0  0  0  0  0  0  0  0  0
    5.4457    9.8028    0.0000 C   0  0  0  0  0  0  0  0  0  0  0  0
    2.7453    6.6846    0.0000 C   0  0  0  0  0  0  0  0  0  0  0  0
    4.0955    9.3351    0.0000 C   0  0  0  0  0  0  0  0  0  0  0  0
    3.0153    8.0878    0.0000 C   0  0  0  0  0  0  0  0  0  0  0  0
    5.7158    9.0232    0.0000 C   0  0  0  0  0  0  0  0  0  0  0  0
    3.5554    6.5287    0.0000 C   0  0  0  0  0  0  0  0  0  0  0  0
    8.4162    3.4105    0.0000 C   0  0  0  0  0  0  0  0  0  0  0  0
    8.1462    4.1900    0.0000 C   0  0  0  0  0  0  0  0  0  0  0  0
    5.4457    3.2546    0.0000 C   0  0  0  0  0  0  0  0  0  0  0  0
    5.9858    6.0609    0.0000 C   0  0  0  0  0  0  0  0  0  0  0  0
    4.3655    8.5555    0.0000 C   0  0  0  0  0  0  0  0  0  0  0  0
    3.8255    7.9319    0.0000 C   0  0  0  0  0  0  0  0  0  0  0  0
    5.1757    8.3996    0.0000 C   0  0  0  0  0  0  0  0  0  0  0  0
    4.0955    7.1523    0.0000 C   0  0  0  0  0  0  0  0  0  0  0  0
    9.2263    3.2546    0.0000 C   0  0  0  0  0  0  0  0  0  0  0  0
    6.2559    5.2814    0.0000 C   0  0  0  0  0  0  0  0  0  0  0  0
    7.3360    4.3459    0.0000 C   0  0  0  0  0  0  0  0  0  0  0  0
    5.7158    2.4750    0.0000 C   0  0  0  0  0  0  0  0  0  0  0  0
    5.4457    7.6200    0.0000 C   0  0  0  0  0  0  0  0  0  0  0  0
    4.9056    6.9964    0.0000 C   0  0  0  0  0  0  0  0  0  0  0  0
    5.7158    4.6577    0.0000 C   0  0  0  0  0  0  0  0  0  0  0  0
    9.4964    2.4750    0.0000 C   0  0  0  0  0  0  0  0  0  0  0  0
    9.7664    3.8782    0.0000 N   0  0  0  0  0  0  0  0  0  0  0  0
    5.9858    3.8782    0.0000 N   0  0  0  0  0  0  0  0  0  0  0  0
    7.0660    5.1255    0.0000 N   0  0  0  0  0  0  0  0  0  0  0  0
    6.7959    3.7223    0.0000 O   0  0  0  0  0  0  0  0  0  0  0  0
    6.5259    2.3191    0.0000 O   0  0  0  0  0  0  0  0  0  0  0  0
    5.1757    1.8514    0.0000 O   0  0  0  0  0  0  0  0  0  0  0  0
    6.2559    7.4641    0.0000 O   0  0  0  0  0  0  0  0  0  0  0  0
    4.9056    4.8137    0.0000 O   0  0  0  0  0  0  0  0  0  0  0  0
   10.3065    2.3191    0.0000 O   0  0  0  0  0  0  0  0  0  0  0  0
    8.9563    1.8514    0.0000 O   0  0  0  0  0  0  0  0  0  0  0  0
    5.1757    6.2168    0.0000 S   0  0  0  0  0  0  0  0  0  0  0  0
  3  1  2  0
  4  2  2  0
  5  1  1  0
  6  2  1  0
  7  3  1  0
  8  4  1  0
 10  9  1  0
 13  5  2  0
 14  6  2  0
 14 13  1  0
 15  7  2  0
 15 13  1  0
 16  8  2  0
 16 14  1  0
 17  9  1  0
 17 25  1  6
 18 12  1  6
 18 27  1  0
 19 10  1  0
 20 11  1  0
 21 15  1  0
 21 31  1  1
 22 16  1  0
 22 21  1  0
 22 35  1  6
 23 18  1  0
 24 17  1  0
 26 11  1  0
 26 23  1  0
 27 19  1  0
 28 19  2  0
 29 20  1  0
 30 20  2  0
 32 23  2  0
 33 24  1  0
 34 24  2  0
 35 12  1  0
M  END
>  <DRUGBANK_ID>  (1) 
DB01834

>  <SECONDARY_ACCESSION_NUMBERS>  (1) 
EXPT01641

>  <COMMON_NAME>  (1) 
(9R,10R)-9-(S-glutathionyl)-10-hydroxy-9,10-dihydrophenanthrene

$$$$
