
     RDKit          2D

 41 48  0  0  1  0  0  0  0  0999 V2000
    3.2151    0.4715    0.0000 C   0  0  0  0  0  0  0  0  0  0  0  0
    3.8637    0.9813    0.0000 C   0  0  0  0  0  0  0  0  0  0  0  0
    4.5490    0.5221    0.0000 C   0  0  0  0  0  0  0  0  0  0  0  0
    4.3240   -0.2717    0.0000 N   0  0  0  0  0  0  0  0  0  0  0  0
    5.0093   -0.7309    0.0000 N   0  0  0  0  0  0  0  0  0  0  0  0
    5.6579   -0.2211    0.0000 C   0  0  0  0  0  0  0  0  0  0  0  0
    6.4708   -0.3619    0.0000 C   0  0  0  0  0  0  0  0  0  0  0  0
    6.7274   -1.1777    0.0000 C   0  0  0  0  0  0  0  0  0  0  0  0
    6.9992    0.2717    0.0000 C   0  0  0  0  0  0  0  0  0  0  0  0
    6.7147    1.0461    0.0000 C   0  0  0  0  0  0  0  0  0  0  0  0
    5.9018    1.1869    0.0000 C   0  0  0  0  0  0  0  0  0  0  0  0
    5.3734    0.5533    0.0000 C   0  0  0  0  0  0  0  0  0  0  0  0
    7.8607    0.1361    0.0000 C   0  0  0  0  0  0  0  0  0  0  0  0
    8.4678    0.7342    0.0000 O   0  0  0  0  0  0  0  0  0  0  0  0
    8.2669   -0.6147    0.0000 O   0  0  0  0  0  0  0  0  0  0  0  0
    3.4996   -0.3029    0.0000 C   0  0  0  0  0  0  0  0  0  0  0  0
    2.8510   -0.8128    0.0000 C   0  0  0  0  0  0  0  0  0  0  0  0
    2.8823   -1.6372    0.0000 C   0  0  0  0  0  0  0  0  0  0  0  0
    3.6119   -2.0223    0.0000 C   0  0  0  0  0  0  0  0  0  0  0  0
    3.6431   -2.8467    0.0000 C   0  0  0  0  0  0  0  0  0  0  0  0
    2.9448   -3.2860    0.0000 C   0  0  0  0  0  0  0  0  0  0  0  0
    2.2152   -2.9009    0.0000 C   0  0  0  0  0  0  0  0  0  0  0  0
    1.7017   -3.5967    0.0000 Cl  0  0  0  0  0  0  0  0  0  0  0  0
    2.1839   -2.0765    0.0000 C   0  0  0  0  0  0  0  0  0  0  0  0
    1.2361   -1.7674    0.0000 F   0  0  0  0  0  0  0  0  0  0  0  0
    2.1657   -0.3535    0.0000 C   0  0  0  0  0  0  0  0  0  0  0  0
    2.3907    0.4402    0.0000 N   0  0  0  0  0  0  0  0  0  0  0  0
    1.8691    1.0668    0.0000 C   0  0  0  0  0  0  0  0  0  0  0  0
    2.1876    1.8546    0.0000 C   0  0  0  0  0  0  0  0  0  0  0  0
    2.0703    2.6712    0.0000 C   0  0  0  0  0  0  0  0  0  0  0  0
    2.8361    2.3645    0.0000 C   0  0  0  0  0  0  0  0  0  0  0  0
    1.9406   -1.1473    0.0000 C   0  0  0  0  0  0  0  0  0  0  0  0
    1.6637   -2.0232    0.0000 O   0  0  0  0  0  0  0  0  0  0  0  0
    1.1162   -1.1785    0.0000 N   0  0  0  0  0  0  0  0  0  0  0  0
    0.8317   -0.4041    0.0000 C   0  0  0  0  0  0  0  0  0  0  0  0
    0.0659   -0.0974    0.0000 C   0  0  0  0  0  0  0  0  0  0  0  0
   -0.0514    0.7193    0.0000 C   0  0  0  0  0  0  0  0  0  0  0  0
   -0.8518    1.0265    0.0000 Cl  0  0  0  0  0  0  0  0  0  0  0  0
    0.5972    1.2291    0.0000 C   0  0  0  0  0  0  0  0  0  0  0  0
    1.3631    0.9224    0.0000 C   0  0  0  0  0  0  0  0  0  0  0  0
    1.4803    0.1057    0.0000 C   0  0  0  0  0  0  0  0  0  0  0  0
  1  2  1  1
  1 27  1  0
  2  3  1  0
  3  4  1  0
  3 12  2  0
  4  5  1  0
  5  6  2  0
  6  7  1  0
  6 12  1  0
  7  8  1  0
  7  9  2  0
  9 10  1  0
  9 13  1  0
 10 11  2  0
 11 12  1  0
 13 14  1  0
 13 15  2  0
 16  4  1  1
 16  1  1  0
 16 17  1  0
 17 18  1  6
 17 26  1  0
 18 19  2  0
 18 24  1  0
 19 20  1  0
 20 21  2  0
 21 22  1  0
 22 23  1  0
 22 24  2  0
 24 25  1  0
 26 27  1  0
 26 32  1  6
 26 41  1  0
 27 28  1  0
 28 29  1  0
 29 30  1  0
 29 31  1  0
 30 31  1  0
 32 33  2  0
 32 34  1  0
 34 35  1  0
 35 36  1  0
 35 41  2  0
 36 37  2  0
 37 38  1  0
 37 39  1  0
 39 40  2  0
 40 41  1  0
M  END
>  <DRUGBANK_ID>  (1) 
DB18578

>  <COMMON_NAME>  (1) 
Brigimadlin

>  <CAS_NUMBER>  (1) 
2095116-40-6

>  <UNII>  (1) 
9A934ZAN94

$$$$
