S1H
     RDKit          2D

 26 25  0  0  0  0  0  0  0  0999 V2000
   -6.3963    0.9712    0.0000 N   0  0  0  0  0  0  0  0  0  0  0  0
   -6.3435    0.1479    0.0000 C   0  0  0  0  0  0  0  0  0  0  0  0
   -7.0301   -0.3095    0.0000 C   0  0  0  0  0  0  0  0  0  0  0  0
   -7.7695    0.0564    0.0000 O   0  0  0  0  0  0  0  0  0  0  0  0
   -5.6041   -0.2180    0.0000 C   0  0  0  0  0  0  0  0  0  0  0  0
   -4.9175    0.2394    0.0000 O   0  0  0  0  0  0  0  0  0  0  0  0
   -6.9773   -1.1328    0.0000 O   0  0  0  0  0  0  0  0  0  0  0  0
   -3.4386   -0.4925    0.0000 C   0  0  0  0  0  0  0  0  0  0  0  0
   -2.7520   -0.0351    0.0000 C   0  0  0  0  0  0  0  0  0  0  0  0
   -2.0126   -0.4010    0.0000 C   0  0  0  0  0  0  0  0  0  0  0  0
   -1.3260    0.0564    0.0000 C   0  0  0  0  0  0  0  0  0  0  0  0
   -0.5866   -0.3095    0.0000 C   0  0  0  0  0  0  0  0  0  0  0  0
    0.1000    0.1479    0.0000 C   0  0  0  0  0  0  0  0  0  0  0  0
    0.8394   -0.2180    0.0000 C   0  0  0  0  0  0  0  0  0  0  0  0
    1.5260    0.2394    0.0000 C   0  0  0  0  0  0  0  0  0  0  0  0
    2.2654   -0.1265    0.0000 C   0  0  0  0  0  0  0  0  0  0  0  0
    2.9520    0.3309    0.0000 C   0  0  0  0  0  0  0  0  0  0  0  0
    3.6914   -0.0351    0.0000 C   0  0  0  0  0  0  0  0  0  0  0  0
    4.3780    0.4223    0.0000 C   0  0  0  0  0  0  0  0  0  0  0  0
    5.1174    0.0564    0.0000 C   0  0  0  0  0  0  0  0  0  0  0  0
    5.8040    0.5138    0.0000 C   0  0  0  0  0  0  0  0  0  0  0  0
    6.5434    0.1479    0.0000 C   0  0  0  0  0  0  0  0  0  0  0  0
    7.2300    0.6053    0.0000 C   0  0  0  0  0  0  0  0  0  0  0  0
   -4.1781   -0.1265    0.0000 S   0  0  0  0  0  0  0  0  0  0  0  0
   -4.5440   -0.8660    0.0000 O   0  0  0  0  0  0  0  0  0  0  0  0
   -3.8121    0.6129    0.0000 O   0  0  0  0  0  0  0  0  0  0  0  0
  2  1  1  1
  2  3  1  0
  2  5  1  0
  3  4  2  0
  3  7  1  0
  5  6  1  0
  6 24  1  0
  8  9  1  0
  8 24  1  0
  9 10  1  0
 10 11  1  0
 11 12  1  0
 12 13  1  0
 13 14  1  0
 14 15  1  0
 15 16  1  0
 16 17  1  0
 17 18  1  0
 18 19  1  0
 19 20  1  0
 20 21  1  0
 21 22  1  0
 22 23  1  0
 24 25  2  0
 24 26  2  0
M  END
>  <DRUGBANK_ID>  (1) 
DB03692

>  <SECONDARY_ACCESSION_NUMBERS>  (1) 
EXPT02830

>  <COMMON_NAME>  (1) 
1-Hexadecanosulfonyl-O-L-Serine

$$$$
