CED
     RDKit          2D

 22 23  0  0  0  0  0  0  0  0999 V2000
   -1.7186    0.3290    0.0000 S   0  0  0  0  0  0  0  0  0  0  0  0
   -2.1311    1.0435    0.0000 C   0  0  0  0  0  0  0  0  0  0  0  0
   -1.7186    1.7580    0.0000 C   0  0  0  0  0  0  0  0  0  0  0  0
   -2.1311    2.4725    0.0000 C   0  0  0  0  0  0  0  0  0  0  0  0
   -0.8936    1.7580    0.0000 C   0  0  0  0  0  0  0  0  0  0  0  0
   -0.4811    2.4725    0.0000 C   0  0  0  0  0  0  0  0  0  0  0  0
    0.3439    2.4725    0.0000 O   0  0  0  0  0  0  0  0  0  0  0  0
   -0.8936    3.1869    0.0000 O   0  0  0  0  0  0  0  0  0  0  0  0
   -0.4811    1.0435    0.0000 N   0  0  0  0  0  0  0  0  0  0  0  0
   -0.8936    0.3290    0.0000 C   0  0  0  0  0  0  0  0  0  0  0  0
   -0.4811   -0.3854    0.0000 C   0  0  0  0  0  0  0  0  0  0  0  0
   -0.8936   -1.0999    0.0000 C   0  0  0  0  0  0  0  0  0  0  0  0
   -1.7186   -1.0999    0.0000 O   0  0  0  0  0  0  0  0  0  0  0  0
    0.3439   -0.3854    0.0000 N   0  0  0  0  0  0  0  0  0  0  0  0
    0.7564   -1.0999    0.0000 C   0  0  0  0  0  0  0  0  0  0  0  0
    0.3439   -1.8144    0.0000 O   0  0  0  0  0  0  0  0  0  0  0  0
    1.5814   -1.0999    0.0000 C   0  0  0  0  0  0  0  0  0  0  0  0
    1.9939   -1.8144    0.0000 C   0  0  0  0  0  0  0  0  0  0  0  0
    2.8144   -1.9006    0.0000 C   0  0  0  0  0  0  0  0  0  0  0  0
    2.9859   -2.7076    0.0000 C   0  0  0  0  0  0  0  0  0  0  0  0
    2.2714   -3.1201    0.0000 C   0  0  0  0  0  0  0  0  0  0  0  0
    1.6583   -2.5680    0.0000 S   0  0  0  0  0  0  0  0  0  0  0  0
  1  2  1  0
  1 10  1  0
  2  3  1  0
  3  4  1  0
  3  5  2  0
  5  6  1  0
  5  9  1  0
  6  7  2  0
  6  8  1  0
 10  9  1  1
 10 11  1  0
 11 12  1  6
 11 14  1  0
 12 13  2  0
 14 15  1  0
 15 16  2  0
 15 17  1  0
 17 18  1  0
 18 19  2  0
 18 22  1  0
 19 20  1  0
 20 21  2  0
 21 22  1  0
M  END
>  <DRUGBANK_ID>  (1) 
DB04133

>  <SECONDARY_ACCESSION_NUMBERS>  (1) 
EXPT00884

>  <COMMON_NAME>  (1) 
Degraded Cephaloridine

$$$$
