
     RDKit          2D

 13  6  0  0  0  0  0  0  0  0999 V2000
   14.4006  -11.7000    0.0000 C   0  0  0  0  0  0  0  0  0  0  0  0
   13.6861  -12.1125    0.0000 C   0  0  0  0  0  0  0  0  0  0  0  0
   12.9717  -11.7000    0.0000 O   0  0  0  0  0  0  0  0  0  0  0  0
   13.6861  -12.9375    0.0000 O   0  0  0  0  0  0  0  0  0  0  0  0
   10.7010  -11.0958    0.0000 O   0  0  0  0  0  0  0  0  0  0  0  0
    9.9865  -11.5083    0.0000 C   0  0  0  0  0  0  0  0  0  0  0  0
    9.2720  -11.0958    0.0000 C   0  0  0  0  0  0  0  0  0  0  0  0
   11.6988  -11.9441    0.0000 Mg  0  0  0  0  0 15  0  0  0  0  0  0
   12.0422   -9.5403    0.0000 O   0  0  0  0  0  0  0  0  0  0  0  0
   13.0380  -10.2615    0.0000 O   0  0  0  0  0  0  0  0  0  0  0  0
    9.9865  -12.3333    0.0000 O   0  0  0  0  0  0  0  0  0  0  0  0
   13.8622   -9.6204    0.0000 O   0  0  0  0  0  0  0  0  0  0  0  0
   10.5655  -10.0096    0.0000 O   0  0  0  0  0  0  0  0  0  0  0  0
  2  1  1  0
  3  2  1  0
  4  2  2  0
  5  6  1  0
  6  7  1  0
  6 11  2  0
M  CHG  3   3  -1   5  -1   8   2
M  END
>  <DRUGBANK_ID>  (1) 
DB09409

>  <COMMON_NAME>  (1) 
Magnesium acetate tetrahydrate

>  <CAS_NUMBER>  (1) 
16674-78-5

>  <UNII>  (1) 
I01G0EJC3B

>  <SYNONYMS>  (1) 
Acetic acid, magnesium salt, tetrahydrate; Magnesium diacetate tetrahydrate

$$$$
