
     RDKit          2D

 24 25  0  0  1  0  0  0  0  0999 V2000
    8.5761   -6.2292    0.0000 N   0  0  0  0  0  0  0  0  0  0  0  0
    7.8616   -6.6417    0.0000 C   0  0  0  0  0  0  0  0  0  0  0  0
    8.5761   -5.4042    0.0000 C   0  0  0  0  0  0  0  0  0  0  0  0
    9.2906   -4.9917    0.0000 N   0  0  0  0  0  0  0  0  0  0  0  0
    7.7754   -7.4622    0.0000 C   0  0  0  0  0  0  0  0  0  0  0  0
    7.1080   -6.3061    0.0000 O   0  0  0  0  0  0  0  0  0  0  0  0
    4.4300   -7.4142    0.0000 P   0  0  0  0  0  0  0  0  0  0  0  0
    3.2740   -6.5743    0.0000 P   0  0  0  0  0  0  0  0  0  0  0  0
    3.6096   -7.3279    0.0000 O   0  0  0  0  0  0  0  0  0  0  0  0
    9.2906   -6.6417    0.0000 C   0  0  0  0  0  0  0  0  0  0  0  0
    6.5560   -6.9192    0.0000 C   0  0  0  0  0  0  0  0  0  0  0  0
    6.9685   -7.6337    0.0000 C   0  0  0  0  0  0  0  0  0  0  0  0
   10.0051   -6.2292    0.0000 C   0  0  0  0  0  0  0  0  0  0  0  0
   10.0051   -5.4042    0.0000 C   0  0  0  0  0  0  0  0  0  0  0  0
    5.7355   -6.8330    0.0000 C   0  0  0  0  0  0  0  0  0  0  0  0
    7.8616   -4.9917    0.0000 O   0  0  0  0  0  0  0  0  0  0  0  0
    5.2505   -7.5004    0.0000 O   0  0  0  0  0  0  0  0  0  0  0  0
    4.3438   -8.2347    0.0000 O   0  0  0  0  0  0  0  0  0  0  0  0
    2.5203   -6.9098    0.0000 O   0  0  0  0  0  0  0  0  0  0  0  0
   10.7196   -4.9917    0.0000 O   0  0  0  0  0  0  0  0  0  0  0  0
    4.5163   -6.5937    0.0000 O   0  0  0  0  0  0  0  0  0  0  0  0
    4.0276   -6.2387    0.0000 O   0  0  0  0  0  0  0  0  0  0  0  0
    2.9385   -5.8206    0.0000 O   0  0  0  0  0  0  0  0  0  0  0  0
    6.6329   -8.3873    0.0000 O   0  0  0  0  0  0  0  0  0  0  0  0
  2  1  1  1
  3  1  1  0
  4  3  1  0
  5  2  1  0
  6  2  1  0
  9  7  1  0
  9  8  1  0
 10  1  1  0
 11  6  1  0
 11 15  1  1
 12  5  1  0
 12 11  1  0
 12 24  1  6
 13 10  2  0
 14  4  1  0
 14 13  1  0
 16  3  2  0
 17  7  1  0
 17 15  1  0
 18  7  2  0
 19  8  2  0
 20 14  2  0
 21  7  1  0
 22  8  1  0
 23  8  1  0
M  END
>  <DRUGBANK_ID>  (1) 
DB03413

>  <SECONDARY_ACCESSION_NUMBERS>  (1) 
EXPT01297

>  <COMMON_NAME>  (1) 
Deoxyuridine-5'-Diphosphate

>  <UNII>  (1) 
B2SK7999YL

$$$$
