
     RDKit          2D

 24 24  0  0  1  0  0  0  0  0999 V2000
    3.5724   -0.4125    0.0000 C   0  0  0  0  0  0  0  0  0  0  0  0
    9.2881   -2.8875    0.0000 C   0  0  0  0  0  0  0  0  0  0  0  0
    4.2868   -0.8250    0.0000 C   0  0  0  0  0  0  0  0  0  0  0  0
    5.0013   -0.4125    0.0000 C   0  0  0  0  0  0  0  0  0  0  0  0
    5.7158   -0.8250    0.0000 C   0  0  0  0  0  0  0  0  0  0  0  0
   10.0026   -0.8250    0.0000 C   0  0  0  0  0  0  0  0  0  0  0  0
    7.8592   -0.4125    0.0000 C   0  0  0  0  0  0  0  0  0  0  0  0
    9.2881    0.4125    0.0000 C   0  0  0  0  0  0  0  0  0  0  0  0
    9.2881   -2.0625    0.0000 C   0  0  0  0  0  0  0  0  0  0  0  0
    9.2881   -0.4125    0.0000 C   0  0  0  0  0  0  0  0  0  0  0  0
    8.5737   -0.8250    0.0000 C   0  0  0  0  0  0  0  0  0  0  0  0
    6.4302   -0.4125    0.0000 C   0  0  0  0  0  0  0  0  0  0  0  0
    8.5737   -1.6500    0.0000 C   0  0  0  0  0  0  0  0  0  0  0  0
    6.4302    0.4125    0.0000 C   0  0  0  0  0  0  0  0  0  0  0  0
   10.0026   -1.6500    0.0000 N   0  0  0  0  0  0  0  0  0  0  0  0
    7.1447   -0.8250    0.0000 N   0  0  0  0  0  0  0  0  0  0  0  0
    7.8592   -2.0625    0.0000 O   0  0  0  0  0  0  0  0  0  0  0  0
    7.1447    0.8250    0.0000 O   0  0  0  0  0  0  0  0  0  0  0  0
    5.7158    0.8250    0.0000 O   0  0  0  0  0  0  0  0  0  0  0  0
   10.0026    2.4750    0.0000 O   0  0  0  0  0  0  0  0  0  0  0  0
   10.8276    1.6500    0.0000 O   0  0  0  0  0  0  0  0  0  0  0  0
    9.1776    1.6500    0.0000 O   0  0  0  0  0  0  0  0  0  0  0  0
   10.0026    0.8250    0.0000 O   0  0  0  0  0  0  0  0  0  0  0  0
   10.0026    1.6500    0.0000 P   0  0  0  0  0  0  0  0  0  0  0  0
  3  1  1  0
  4  3  1  0
  5  4  1  0
  9  2  1  0
 10  6  2  0
 10  8  1  0
 11  7  1  0
 11 10  1  0
 12  5  1  1
 12 16  1  0
 13  9  1  0
 13 11  2  0
 14 12  1  0
 15  6  1  0
 15  9  2  0
 16  7  1  0
 17 13  1  0
 18 14  2  0
 19 14  1  0
 23  8  1  0
 24 20  1  0
 24 21  1  0
 24 22  2  0
 24 23  1  0
M  END
>  <DRUGBANK_ID>  (1) 
DB02981

>  <SECONDARY_ACCESSION_NUMBERS>  (1) 
EXPT02715

>  <COMMON_NAME>  (1) 
Vitamin B6 Complexed with 2-Amino-Hexanoic Acid

$$$$
