
     RDKit          2D

 11 12  0  0  0  0  0  0  0  0999 V2000
    2.7512    4.7652    0.0000 C   0  0  0  0  0  0  0  0  0  0  0  0
    2.0367    4.3527    0.0000 C   0  0  0  0  0  0  0  0  0  0  0  0
    3.4656    4.3527    0.0000 C   0  0  0  0  0  0  0  0  0  0  0  0
    2.0367    3.5277    0.0000 C   0  0  0  0  0  0  0  0  0  0  0  0
    3.4656    3.5277    0.0000 C   0  0  0  0  0  0  0  0  0  0  0  0
    3.4186    1.8053    0.0000 C   0  0  0  0  0  0  0  0  0  0  0  0
    2.3387    1.0206    0.0000 C   0  0  0  0  0  0  0  0  0  0  0  0
    2.7512    3.1152    0.0000 C   0  0  0  0  0  0  0  0  0  0  0  0
    2.7512    2.2902    0.0000 C   0  0  0  0  0  0  0  0  0  0  0  0
    3.1637    1.0206    0.0000 N   0  0  0  0  0  0  0  0  0  0  0  0
    2.0837    1.8053    0.0000 N   0  0  0  0  0  0  0  0  0  0  0  0
  2  1  2  0
  3  1  1  0
  4  2  1  0
  5  3  2  0
  8  4  2  0
  8  5  1  0
  9  6  2  0
  9  8  1  0
 10  6  1  0
 10  7  2  0
 11  7  1  0
 11  9  1  0
M  END
>  <DRUGBANK_ID>  (1) 
DB03254

>  <SECONDARY_ACCESSION_NUMBERS>  (1) 
EXPT02601

>  <COMMON_NAME>  (1) 
4-Phenyl-1h-Imidazole

>  <UNII>  (1) 
8VQ67XR7XY

$$$$
