
     RDKit          2D

 14 15  0  0  0  0  0  0  0  0999 V2000
    0.0000    0.4677    0.0000 C   0  0  0  0  0  0  0  0  0  0  0  0
    0.7145    0.0552    0.0000 C   0  0  0  0  0  0  0  0  0  0  0  0
    0.7145   -0.7697    0.0000 C   0  0  0  0  0  0  0  0  0  0  0  0
    0.0000   -1.1822    0.0000 C   0  0  0  0  0  0  0  0  0  0  0  0
   -1.4288   -1.1822    0.0000 C   0  0  0  0  0  0  0  0  0  0  0  0
   -2.1433   -0.7697    0.0000 C   0  0  0  0  0  0  0  0  0  0  0  0
   -2.1433    0.0552    0.0000 C   0  0  0  0  0  0  0  0  0  0  0  0
   -1.4288    0.4677    0.0000 C   0  0  0  0  0  0  0  0  0  0  0  0
   -0.7143    0.0552    0.0000 C   0  0  0  0  0  0  0  0  0  0  0  0
   -0.7143   -0.7697    0.0000 C   0  0  0  0  0  0  0  0  0  0  0  0
    1.4290    0.4677    0.0000 S   0  0  0  0  0  0  0  0  0  0  0  0
    1.0165    1.1822    0.0000 O   0  0  0  0  0  0  0  0  0  0  0  0
    1.8415   -0.2466    0.0000 O   0  0  0  0  0  0  0  0  0  0  0  0
    2.1433    0.8802    0.0000 O   0  0  0  0  0  0  0  0  0  0  0  0
  1  9  2  0
  2  1  1  0
  3  4  1  0
  3  2  2  0
  4 10  2  0
  5 10  1  0
  6  5  2  0
  7  8  2  0
  7  6  1  0
  8  9  1  0
 10  9  1  0
 11  2  1  0
 12 11  2  0
 13 11  2  0
 14 11  1  0
M  END
>  <DRUGBANK_ID>  (1) 
DB08254

>  <COMMON_NAME>  (1) 
2-Naphthalenesulfonic acid

>  <CAS_NUMBER>  (1) 
120-18-3

>  <UNII>  (1) 
O9S4K2S25E

>  <SYNONYMS>  (1) 
beta-Naphthalenesulfonic acid; beta-Naphthylsulfonic acid; Naphthalene-2-sulfonic acid; β-naphthalenesulfonic acid; β-naphthylsulfonic acid

$$$$
