
     RDKit          2D

 12 12  0  0  0  0  0  0  0  0999 V2000
    0.7145   -0.4125    0.0000 C   0  0  0  0  0  0  0  0  0  0  0  0
    0.7145    0.4125    0.0000 C   0  0  0  0  0  0  0  0  0  0  0  0
    0.0000   -0.8250    0.0000 N   0  0  0  0  0  0  0  0  0  0  0  0
    0.0000    0.8250    0.0000 C   0  0  0  0  0  0  0  0  0  0  0  0
   -0.7145    0.4125    0.0000 C   0  0  0  0  0  0  0  0  0  0  0  0
   -0.7145   -0.4125    0.0000 C   0  0  0  0  0  0  0  0  0  0  0  0
    1.4289    0.8250    0.0000 C   0  0  0  0  0  0  0  0  0  0  0  0
    2.1434    0.4125    0.0000 O   0  0  0  0  0  0  0  0  0  0  0  0
   -1.4289   -0.8250    0.0000 C   0  0  0  0  0  0  0  0  0  0  0  0
   -1.4289    0.8250    0.0000 O   0  0  0  0  0  0  0  0  0  0  0  0
    0.0000    1.6500    0.0000 C   0  0  0  0  0  0  0  0  0  0  0  0
   -0.7145    2.0625    0.0000 O   0  0  0  0  0  0  0  0  0  0  0  0
  1  3  2  0
  2  1  1  0
  4  2  2  0
  5  4  1  0
  6  3  1  0
  6  5  2  0
  7  2  1  0
  8  7  1  0
  9  6  1  0
 10  5  1  0
 11  4  1  0
 11 12  1  0
M  END
>  <DRUGBANK_ID>  (1) 
DB00165

>  <SECONDARY_ACCESSION_NUMBERS>  (1) 
NUTR00002; APRD00204

>  <COMMON_NAME>  (1) 
Pyridoxine

>  <CAS_NUMBER>  (1) 
65-23-6

>  <UNII>  (1) 
KV2JZ1BI6Z

>  <SYNONYMS>  (1) 
2-methyl-3-hydroxy-4,5-dihydroxymethylpyridine; 3-hydroxy-4,5-bis(hydroxymethyl)-2-methylpyridine; 3-hydroxy-4,5-dimethylol-Î±-picoline; 5-hydroxy-6-methyl-3,4-pyridinedimethanol; Piridoxina; Pyridoxine; Pyridoxinum; Pyridoxol; Vitamin B6

$$$$
