
     RDKit          2D

 24 25  0  0  0  0  0  0  0  0999 V2000
   -2.1434   -3.5556    0.0000 F   0  0  0  0  0  0  0  0  0  0  0  0
   -1.0165   -3.8576    0.0000 F   0  0  0  0  0  0  0  0  0  0  0  0
   -1.8415   -2.4286    0.0000 F   0  0  0  0  0  0  0  0  0  0  0  0
    2.1434   -3.5556    0.0000 F   0  0  0  0  0  0  0  0  0  0  0  0
    1.0164   -3.8576    0.0000 F   0  0  0  0  0  0  0  0  0  0  0  0
    1.8414   -2.4286    0.0000 F   0  0  0  0  0  0  0  0  0  0  0  0
   -0.7112    3.4437    0.0000 O   0  0  0  0  0  0  0  0  0  0  0  0
   -1.8673    2.6038    0.0000 O   0  0  0  0  0  0  0  0  0  0  0  0
   -0.4125    0.6015    0.0000 N   0  0  0  0  0  0  0  0  0  0  0  0
   -0.6674   -0.1831    0.0000 N   0  0  0  0  0  0  0  0  0  0  0  0
    0.0000   -1.4931    0.0000 C   0  0  0  0  0  0  0  0  0  0  0  0
    0.0000   -0.6680    0.0000 C   0  0  0  0  0  0  0  0  0  0  0  0
   -0.8974    1.2689    0.0000 C   0  0  0  0  0  0  0  0  0  0  0  0
   -0.7145   -2.7306    0.0000 C   0  0  0  0  0  0  0  0  0  0  0  0
    0.7144   -2.7306    0.0000 C   0  0  0  0  0  0  0  0  0  0  0  0
    0.7144   -1.9056    0.0000 C   0  0  0  0  0  0  0  0  0  0  0  0
   -0.7145   -1.9056    0.0000 C   0  0  0  0  0  0  0  0  0  0  0  0
    0.6674   -0.1831    0.0000 C   0  0  0  0  0  0  0  0  0  0  0  0
    0.4125    0.6015    0.0000 C   0  0  0  0  0  0  0  0  0  0  0  0
    0.0000   -3.1431    0.0000 C   0  0  0  0  0  0  0  0  0  0  0  0
   -0.5619    2.0226    0.0000 C   0  0  0  0  0  0  0  0  0  0  0  0
   -1.4290   -3.1431    0.0000 C   0  0  0  0  0  0  0  0  0  0  0  0
    1.4289   -3.1431    0.0000 C   0  0  0  0  0  0  0  0  0  0  0  0
   -1.0468    2.6901    0.0000 C   0  0  0  0  0  0  0  0  0  0  0  0
  1 22  1  0
  2 22  1  0
  3 22  1  0
  4 23  1  0
  5 23  1  0
  6 23  1  0
  7 24  1  0
  8 24  2  0
  9 10  1  0
  9 13  1  0
  9 19  1  0
 10 12  2  0
 11 12  1  0
 11 16  2  0
 11 17  1  0
 12 18  1  0
 13 21  1  0
 14 17  2  0
 14 20  1  0
 14 22  1  0
 15 16  1  0
 15 20  2  0
 15 23  1  0
 18 19  2  0
 21 24  1  0
M  END
>  <DRUGBANK_ID>  (1) 
DB16734

>  <COMMON_NAME>  (1) 
STG-001

>  <UNII>  (1) 
IK88NC17OD

$$$$
