
     RDKit          2D

 23 23  0  0  0  0  0  0  0  0999 V2000
   -2.8500   -0.4258    0.0000 C   0  0  0  0  0  0  0  0  0  0  0  0
   -2.8500    0.4016    0.0000 C   0  0  0  0  0  0  0  0  0  0  0  0
   -2.1361   -0.8396    0.0000 C   0  0  0  0  0  0  0  0  0  0  0  0
   -3.5639   -0.8362    0.0000 C   0  0  0  0  0  0  0  0  0  0  0  0
   -2.1361    0.8155    0.0000 C   0  0  0  0  0  0  0  0  0  0  0  0
   -1.4188   -0.4258    0.0000 C   0  0  0  0  0  0  0  0  0  0  0  0
   -4.2777   -0.4224    0.0000 O   0  0  0  0  0  0  0  0  0  0  0  0
   -3.5672   -1.6603    0.0000 O   0  0  0  0  0  0  0  0  0  0  0  0
   -1.4224    0.4050    0.0000 C   0  0  0  0  0  0  0  0  0  0  0  0
   -4.9881   -0.8362    0.0000 C   0  0  0  0  0  0  0  0  0  0  0  0
   -0.7085    0.8189    0.0000 O   0  0  0  0  0  0  0  0  0  0  0  0
   -5.7018   -0.4224    0.0000 C   0  0  0  0  0  0  0  0  0  0  0  0
    0.0016    0.4086    0.0000 C   0  0  0  0  0  0  0  0  0  0  0  0
    0.7154    0.8224    0.0000 C   0  0  0  0  0  0  0  0  0  0  0  0
    0.0051   -0.4155    0.0000 O   0  0  0  0  0  0  0  0  0  0  0  0
    1.4259    0.4120    0.0000 C   0  0  0  0  0  0  0  0  0  0  0  0
    2.1397    0.8258    0.0000 C   0  0  0  0  0  0  0  0  0  0  0  0
    2.8535    0.4189    0.0000 C   0  0  0  0  0  0  0  0  0  0  0  0
    3.5639    0.8292    0.0000 C   0  0  0  0  0  0  0  0  0  0  0  0
    4.2777    0.4224    0.0000 N   0  0  0  0  0  0  0  0  0  0  0  0
    4.9916    0.8362    0.0000 C   0  0  0  0  0  0  0  0  0  0  0  0
    5.7018    0.4258    0.0000 N   0  0  0  0  0  0  0  0  0  0  0  0
    4.9881    1.6603    0.0000 N   0  0  0  0  0  0  0  0  0  0  0  0
  1  2  2  0
  1  3  1  0
  1  4  1  0
  2  5  1  0
  3  6  2  0
  4  7  1  0
  4  8  2  0
  5  9  2  0
  6  9  1  0
  7 10  1  0
  9 11  1  0
 10 12  1  0
 11 13  1  0
 13 14  1  0
 13 15  2  0
 14 16  1  0
 16 17  1  0
 17 18  1  0
 18 19  1  0
 19 20  1  0
 20 21  1  0
 21 22  1  0
 21 23  2  0
M  END
>  <DRUGBANK_ID>  (1) 
DB12831

>  <COMMON_NAME>  (1) 
Gabexate

>  <CAS_NUMBER>  (1) 
39492-01-8

>  <UNII>  (1) 
4V7M9137X9

>  <SYNONYMS>  (1) 
Gabexate; Gabexato; Gabexatum

$$$$
