
     RDKit          2D

 29 32  0  0  0  0  0  0  0  0999 V2000
    2.8079    0.1640    0.0000 C   0  0  0  0  0  0  0  0  0  0  0  0
    2.8079    0.9663    0.0000 C   0  0  0  0  0  0  0  0  0  0  0  0
    2.0968   -0.2589    0.0000 C   0  0  0  0  0  0  0  0  0  0  0  0
    3.5116   -0.2480    0.0000 C   0  0  0  0  0  0  0  0  0  0  0  0
    2.0858    1.3893    0.0000 C   0  0  0  0  0  0  0  0  0  0  0  0
    3.5262    1.3893    0.0000 C   0  0  0  0  0  0  0  0  0  0  0  0
    1.3783    0.1531    0.0000 N   0  0  0  0  0  0  0  0  0  0  0  0
    2.0968   -1.0684    0.0000 C   0  0  0  0  0  0  0  0  0  0  0  0
    4.2482    0.1640    0.0000 C   0  0  0  0  0  0  0  0  0  0  0  0
    1.3783    0.9809    0.0000 N   0  0  0  0  0  0  0  0  0  0  0  0
    2.0858    2.2099    0.0000 O   0  0  0  0  0  0  0  0  0  0  0  0
    4.2482    0.9955    0.0000 C   0  0  0  0  0  0  0  0  0  0  0  0
    1.3783   -1.4878    0.0000 C   0  0  0  0  0  0  0  0  0  0  0  0
    0.6564    1.3820    0.0000 C   0  0  0  0  0  0  0  0  0  0  0  0
    0.6710   -1.0684    0.0000 O   0  0  0  0  0  0  0  0  0  0  0  0
    1.3783   -2.2281    0.0000 O   0  0  0  0  0  0  0  0  0  0  0  0
   -0.0182    1.3820    0.0000 C   0  0  0  0  0  0  0  0  0  0  0  0
   -0.4595    0.7293    0.0000 N   0  0  0  0  0  0  0  0  0  0  0  0
   -0.4595    2.0530    0.0000 S   0  0  0  0  0  0  0  0  0  0  0  0
   -1.2471    0.9955    0.0000 C   0  0  0  0  0  0  0  0  0  0  0  0
   -1.2471    1.8051    0.0000 C   0  0  0  0  0  0  0  0  0  0  0  0
   -1.9508    0.5979    0.0000 C   0  0  0  0  0  0  0  0  0  0  0  0
   -1.9508    2.2281    0.0000 C   0  0  0  0  0  0  0  0  0  0  0  0
   -2.6802    1.0210    0.0000 C   0  0  0  0  0  0  0  0  0  0  0  0
   -2.6802    1.8051    0.0000 C   0  0  0  0  0  0  0  0  0  0  0  0
   -3.4205    0.5979    0.0000 C   0  0  0  0  0  0  0  0  0  0  0  0
   -3.7705    1.3820    0.0000 F   0  0  0  0  0  0  0  0  0  0  0  0
   -4.2482    0.3646    0.0000 F   0  0  0  0  0  0  0  0  0  0  0  0
   -3.2309   -0.2042    0.0000 F   0  0  0  0  0  0  0  0  0  0  0  0
  1  2  2  0
  1  3  1  0
  1  4  1  0
  2  5  1  0
  2  6  1  0
  3  7  2  0
  3  8  1  0
  4  9  2  0
  5 10  1  0
  5 11  2  0
  6 12  2  0
  7 10  1  0
  8 13  1  0
  9 12  1  0
 10 14  1  0
 13 15  1  0
 13 16  2  0
 14 17  1  0
 17 18  2  0
 17 19  1  0
 18 20  1  0
 19 21  1  0
 20 22  2  0
 20 21  1  0
 21 23  2  0
 22 24  1  0
 23 25  1  0
 24 26  1  0
 24 25  2  0
 26 27  1  0
 26 28  1  0
 26 29  1  0
M  END
>  <DRUGBANK_ID>  (1) 
DB08772

>  <COMMON_NAME>  (1) 
Zopolrestat

>  <CAS_NUMBER>  (1) 
110703-94-1

>  <UNII>  (1) 
1PV3S9WP3D

>  <SYNONYMS>  (1) 
Zopolrestat; Zopolrestatum

$$$$
