
     RDKit          2D

  8  8  0  0  0  0  0  0  0  0999 V2000
   35.3109  -24.7215    0.0000 O   0  0  0  0  0  0  0  0  0  0  0  0
   34.8694  -26.0806    0.0000 O   0  0  0  0  0  0  0  0  0  0  0  0
   33.2457  -25.5036    0.0000 N   0  0  0  0  0  0  0  0  0  0  0  0
   33.9131  -25.0186    0.0000 C   0  0  0  0  0  0  0  0  0  0  0  0
   33.6582  -24.2340    0.0000 C   0  0  0  0  0  0  0  0  0  0  0  0
   32.5782  -25.0186    0.0000 C   0  0  0  0  0  0  0  0  0  0  0  0
   32.8331  -24.2340    0.0000 C   0  0  0  0  0  0  0  0  0  0  0  0
   34.6978  -25.2736    0.0000 C   0  0  0  0  0  0  0  0  0  0  0  0
  1  8  1  0
  2  8  2  0
  3  4  1  0
  3  6  1  0
  4  5  2  0
  4  8  1  0
  5  7  1  0
  6  7  2  0
M  END
>  <DRUGBANK_ID>  (1) 
DB02543

>  <SECONDARY_ACCESSION_NUMBERS>  (1) 
EXPT02717

>  <COMMON_NAME>  (1) 
Pyrrole-2-Carboxylate

>  <UNII>  (1) 
2NNB85QQT9

$$$$
