2EQ
     RDKit          2D

 32 35  0  0  0  0  0  0  0  0999 V2000
   16.8008    6.0341    0.0000 C   0  0  0  0  0  0  0  0  0  0  0  0
   16.0863    6.4466    0.0000 C   0  0  0  0  0  0  0  0  0  0  0  0
   16.0863    7.2716    0.0000 O   0  0  0  0  0  0  0  0  0  0  0  0
   16.8008    7.6841    0.0000 C   0  0  0  0  0  0  0  0  0  0  0  0
   17.5153    7.2716    0.0000 C   0  0  0  0  0  0  0  0  0  0  0  0
   17.5153    6.4466    0.0000 N   0  0  0  0  0  0  0  0  0  0  0  0
   18.2298    6.0341    0.0000 C   0  0  0  0  0  0  0  0  0  0  0  0
   18.2298    5.2091    0.0000 C   0  0  0  0  0  0  0  0  0  0  0  0
   18.9442    4.7966    0.0000 C   0  0  0  0  0  0  0  0  0  0  0  0
   18.9442    3.9716    0.0000 C   0  0  0  0  0  0  0  0  0  0  0  0
   17.5153    4.7966    0.0000 C   0  0  0  0  0  0  0  0  0  0  0  0
   17.5153    3.9716    0.0000 C   0  0  0  0  0  0  0  0  0  0  0  0
   18.2298    3.5591    0.0000 C   0  0  0  0  0  0  0  0  0  0  0  0
   18.2298    2.7341    0.0000 C   0  0  0  0  0  0  0  0  0  0  0  0
   17.5623    2.2492    0.0000 C   0  0  0  0  0  0  0  0  0  0  0  0
   16.7777    2.5041    0.0000 C   0  0  0  0  0  0  0  0  0  0  0  0
   16.6062    3.3111    0.0000 O   0  0  0  0  0  0  0  0  0  0  0  0
   16.1646    1.9521    0.0000 N   0  0  0  0  0  0  0  0  0  0  0  0
   15.3800    2.2070    0.0000 C   0  0  0  0  0  0  0  0  0  0  0  0
   14.7669    1.6550    0.0000 C   0  0  0  0  0  0  0  0  0  0  0  0
   17.8173    1.4645    0.0000 N   0  0  0  0  0  0  0  0  0  0  0  0
   18.6423    1.4645    0.0000 O   0  0  0  0  0  0  0  0  0  0  0  0
   18.8972    2.2492    0.0000 C   0  0  0  0  0  0  0  0  0  0  0  0
   19.6818    2.5041    0.0000 C   0  0  0  0  0  0  0  0  0  0  0  0
   19.8533    3.3111    0.0000 C   0  0  0  0  0  0  0  0  0  0  0  0
   20.6380    3.5660    0.0000 C   0  0  0  0  0  0  0  0  0  0  0  0
   20.8095    4.3730    0.0000 Cl  0  0  0  0  0  0  0  0  0  0  0  0
   21.2511    3.0140    0.0000 C   0  0  0  0  0  0  0  0  0  0  0  0
   22.0357    3.2689    0.0000 O   0  0  0  0  0  0  0  0  0  0  0  0
   21.0795    2.2070    0.0000 C   0  0  0  0  0  0  0  0  0  0  0  0
   20.2949    1.9521    0.0000 C   0  0  0  0  0  0  0  0  0  0  0  0
   20.1234    1.1451    0.0000 O   0  0  0  0  0  0  0  0  0  0  0  0
  1  2  1  0
  1  6  1  0
  2  3  1  0
  3  4  1  0
  4  5  1  0
  5  6  1  0
  6  7  1  0
  7  8  1  0
  8  9  2  0
  8 11  1  0
  9 10  1  0
 10 13  2  0
 11 12  2  0
 12 13  1  0
 13 14  1  0
 14 15  1  0
 14 23  2  0
 15 16  1  0
 15 21  2  0
 16 17  2  0
 16 18  1  0
 18 19  1  0
 19 20  1  0
 21 22  1  0
 22 23  1  0
 23 24  1  0
 24 25  2  0
 24 31  1  0
 25 26  1  0
 26 27  1  0
 26 28  2  0
 28 29  1  0
 28 30  1  0
 30 31  2  0
 31 32  1  0
M  END
>  <DRUGBANK_ID>  (1) 
DB06961

>  <COMMON_NAME>  (1) 
5-(5-chloro-2,4-dihydroxyphenyl)-N-ethyl-4-[4-(morpholin-4-ylmethyl)phenyl]isoxazole-3-carboxamide

$$$$
