878
     RDKit          2D

 16 16  0  0  0  0  0  0  0  0999 V2000
    0.6456    1.4223    0.0000 C   0  0  0  0  0  0  0  0  0  0  0  0
    0.6456    0.5973    0.0000 C   0  0  0  0  0  0  0  0  0  0  0  0
   -0.0689    0.1848    0.0000 C   0  0  0  0  0  0  0  0  0  0  0  0
   -0.7834    0.5973    0.0000 C   0  0  0  0  0  0  0  0  0  0  0  0
   -0.7834    1.4223    0.0000 C   0  0  0  0  0  0  0  0  0  0  0  0
   -0.0689    1.8348    0.0000 C   0  0  0  0  0  0  0  0  0  0  0  0
   -1.4979    0.1848    0.0000 C   0  0  0  0  0  0  0  0  0  0  0  0
   -2.2123    0.5973    0.0000 O   0  0  0  0  0  0  0  0  0  0  0  0
   -1.4979   -0.6402    0.0000 O   0  0  0  0  0  0  0  0  0  0  0  0
   -0.0689   -0.6402    0.0000 N   0  0  0  0  0  0  0  0  0  0  0  0
    0.6456   -1.0527    0.0000 C   0  0  0  0  0  0  0  0  0  0  0  0
    1.3600   -0.6402    0.0000 O   0  0  0  0  0  0  0  0  0  0  0  0
    0.6456   -1.8777    0.0000 C   0  0  0  0  0  0  0  0  0  0  0  0
   -0.0689   -2.2902    0.0000 O   0  0  0  0  0  0  0  0  0  0  0  0
    1.3600   -2.2902    0.0000 O   0  0  0  0  0  0  0  0  0  0  0  0
   -0.0689    2.6598    0.0000 I   0  0  0  0  0  0  0  0  0  0  0  0
  1  2  2  0
  1  6  1  0
  2  3  1  0
  3  4  2  0
  3 10  1  0
  4  5  1  0
  4  7  1  0
  5  6  2  0
  6 16  1  0
  7  8  2  0
  7  9  1  0
 10 11  1  0
 11 12  2  0
 11 13  1  0
 13 14  2  0
 13 15  1  0
M  END
>  <DRUGBANK_ID>  (1) 
DB02662

>  <SECONDARY_ACCESSION_NUMBERS>  (1) 
EXPT00329

>  <COMMON_NAME>  (1) 
Novo Nordisk a/S Compound

$$$$
