
     RDKit          2D

 33 38  0  0  0  0  0  0  0  0999 V2000
    2.5105    0.8056    0.0000 C   0  0  0  0  0  0  0  0  0  0  0  0
    3.2279    1.2250    0.0000 O   0  0  0  0  0  0  0  0  0  0  0  0
    3.0506    2.0369    0.0000 C   0  0  0  0  0  0  0  0  0  0  0  0
    2.2236    2.1193    0.0000 C   0  0  0  0  0  0  0  0  0  0  0  0
    1.8900    1.3582    0.0000 C   0  0  0  0  0  0  0  0  0  0  0  0
   -1.7821    1.6424    0.0000 C   0  0  0  0  0  0  0  0  0  0  0  0
   -1.7833    0.8093    0.0000 C   0  0  0  0  0  0  0  0  0  0  0  0
   -1.0635    0.3936    0.0000 C   0  0  0  0  0  0  0  0  0  0  0  0
   -0.3422    0.8099    0.0000 C   0  0  0  0  0  0  0  0  0  0  0  0
   -0.3451    1.6459    0.0000 C   0  0  0  0  0  0  0  0  0  0  0  0
   -1.0653    2.0578    0.0000 C   0  0  0  0  0  0  0  0  0  0  0  0
    0.3713    0.3963    0.0000 C   0  0  0  0  0  0  0  0  0  0  0  0
    1.0841    0.8087    0.0000 C   0  0  0  0  0  0  0  0  0  0  0  0
    1.0777   -0.8427    0.0000 C   0  0  0  0  0  0  0  0  0  0  0  0
    0.3719   -0.4303    0.0000 C   0  0  0  0  0  0  0  0  0  0  0  0
    0.3652   -2.0622    0.0000 C   0  0  0  0  0  0  0  0  0  0  0  0
    1.0774   -1.6578    0.0000 C   0  0  0  0  0  0  0  0  0  0  0  0
   -0.3405   -1.6498    0.0000 C   0  0  0  0  0  0  0  0  0  0  0  0
   -0.3303   -0.8335    0.0000 C   0  0  0  0  0  0  0  0  0  0  0  0
   -1.0283   -0.4188    0.0000 C   0  0  0  0  0  0  0  0  0  0  0  0
   -1.7410   -0.8158    0.0000 C   0  0  0  0  0  0  0  0  0  0  0  0
   -1.7512   -1.6322    0.0000 C   0  0  0  0  0  0  0  0  0  0  0  0
   -1.0488   -2.0514    0.0000 C   0  0  0  0  0  0  0  0  0  0  0  0
    1.7982    0.3908    0.0000 C   0  0  0  0  0  0  0  0  0  0  0  0
    1.7933   -0.4341    0.0000 C   0  0  0  0  0  0  0  0  0  0  0  0
    3.2176   -0.4425    0.0000 C   0  0  0  0  0  0  0  0  0  0  0  0
    3.2226    0.3825    0.0000 C   0  0  0  0  0  0  0  0  0  0  0  0
    2.5150   -0.0230    0.0000 C   0  0  0  0  0  0  0  0  0  0  0  0
    0.3587   -2.8924    0.0000 C   0  0  0  0  0  0  0  0  0  0  0  0
   -2.4728   -2.0408    0.0000 O   0  0  0  0  0  0  0  0  0  0  0  0
   -2.5064    2.0618    0.0000 N   0  0  0  0  0  0  0  0  0  0  0  0
   -3.2279    1.6507    0.0000 C   0  0  0  0  0  0  0  0  0  0  0  0
   -2.5105    2.8924    0.0000 C   0  0  0  0  0  0  0  0  0  0  0  0
  1  5  1  6
  1  2  1  0
  1 24  1  0
  2  3  1  0
  3  4  1  0
  4  5  1  0
  6  7  2  0
  6 31  1  0
  7  8  1  0
  8  9  2  0
  9 10  1  0
 10 11  2  0
 11  6  1  0
 12  9  1  1
 12 15  1  0
 12 13  1  0
 14 17  1  6
 14 25  1  0
 14 15  1  0
 15 19  2  0
 16 17  1  0
 16 29  1  1
 18 16  1  0
 18 19  1  0
 18 23  2  0
 19 20  1  0
 20 21  1  0
 21 22  1  0
 22 23  1  0
 22 30  2  0
 24 25  1  0
 24 28  1  1
 24 13  1  0
 25 26  1  1
 26 27  1  0
 27  1  1  0
 31 32  1  0
 31 33  1  0
M  END
>  <DRUGBANK_ID>  (1) 
DB15585

>  <COMMON_NAME>  (1) 
ORG-31710

>  <CAS_NUMBER>  (1) 
118968-41-5

>  <UNII>  (1) 
X2V3MG6PE8

$$$$
