XE4
     RDKit          2D

 29 31  0  0  0  0  0  0  0  0999 V2000
    2.1226   -3.1473    0.0000 C   0  0  0  0  0  0  0  0  0  0  0  0
    2.1226   -3.9723    0.0000 C   0  0  0  0  0  0  0  0  0  0  0  0
    1.4081   -4.3848    0.0000 C   0  0  0  0  0  0  0  0  0  0  0  0
    0.6937   -3.9723    0.0000 C   0  0  0  0  0  0  0  0  0  0  0  0
    0.6937   -3.1473    0.0000 C   0  0  0  0  0  0  0  0  0  0  0  0
    1.4081   -2.7348    0.0000 C   0  0  0  0  0  0  0  0  0  0  0  0
    1.4081   -1.9098    0.0000 C   0  0  0  0  0  0  0  0  0  0  0  0
    0.6937   -1.4973    0.0000 C   0  0  0  0  0  0  0  0  0  0  0  0
    0.6937   -0.6723    0.0000 C   0  0  0  0  0  0  0  0  0  0  0  0
   -0.0208   -2.7348    0.0000 C   0  0  0  0  0  0  0  0  0  0  0  0
    2.8371   -4.3848    0.0000 O   0  0  0  0  0  0  0  0  0  0  0  0
   -0.0208   -4.3848    0.0000 O   0  0  0  0  0  0  0  0  0  0  0  0
   -0.0208   -0.2598    0.0000 C   0  0  0  0  0  0  0  0  0  0  0  0
   -0.0208    0.5652    0.0000 C   0  0  0  0  0  0  0  0  0  0  0  0
    0.6937    0.9777    0.0000 C   0  0  0  0  0  0  0  0  0  0  0  0
    1.4081    0.5652    0.0000 C   0  0  0  0  0  0  0  0  0  0  0  0
    1.4081   -0.2598    0.0000 C   0  0  0  0  0  0  0  0  0  0  0  0
   -0.8054   -0.5147    0.0000 C   0  0  0  0  0  0  0  0  0  0  0  0
   -1.2904    0.1527    0.0000 C   0  0  0  0  0  0  0  0  0  0  0  0
   -0.8054    0.8202    0.0000 C   0  0  0  0  0  0  0  0  0  0  0  0
   -1.0604    1.6048    0.0000 C   0  0  0  0  0  0  0  0  0  0  0  0
   -1.3153    2.3894    0.0000 C   0  0  0  0  0  0  0  0  0  0  0  0
   -1.5702    3.1740    0.0000 C   0  0  0  0  0  0  0  0  0  0  0  0
   -1.8252    3.9587    0.0000 C   0  0  0  0  0  0  0  0  0  0  0  0
   -2.0801    4.7433    0.0000 C   0  0  0  0  0  0  0  0  0  0  0  0
   -2.3351    5.5279    0.0000 C   0  0  0  0  0  0  0  0  0  0  0  0
   -1.2955    4.9982    0.0000 O   0  0  0  0  0  0  0  0  0  0  0  0
   -2.8647    4.4883    0.0000 C   0  0  0  0  0  0  0  0  0  0  0  0
   -0.1070    1.3857    0.0000 C   0  0  0  0  0  0  0  0  0  0  0  0
  1  2  1  0
  1  6  1  0
  2  3  1  0
  2 11  1  1
  3  4  1  0
  4  5  1  0
  4 12  1  6
  5  6  1  0
  5 10  2  0
  6  7  2  0
  7  8  1  0
  8  9  2  0
  9 13  1  0
  9 17  1  0
 13 14  1  0
 13 18  1  6
 14 15  1  0
 14 20  1  0
 14 29  1  6
 15 16  1  0
 16 17  1  0
 18 19  1  0
 19 20  1  0
 20 21  1  6
 21 22  3  0
 22 23  1  0
 23 24  3  0
 24 25  1  0
 25 26  1  0
 25 27  1  0
 25 28  1  0
M  END
>  <DRUGBANK_ID>  (1) 
DB08742

>  <COMMON_NAME>  (1) 
1,3-CYCLOHEXANEDIOL, 4-METHYLENE-5-[(2E)-[(1S,3AS,7AS)-OCTAHYDRO-1-(5-HYDROXY-5-METHYL-1,3-HEXADIYNYL)-7A-METHYL-4H-INDEN-4-YLIDENE]ETHYLIDENE]-, (1R,3S,5Z)

$$$$
