
     RDKit          2D

 25 27  0  0  0  0  0  0  0  0999 V2000
    4.0668    3.1729    0.0000 C   0  0  0  0  0  0  0  0  0  0  0  0
    4.0668    2.3479    0.0000 O   0  0  0  0  0  0  0  0  0  0  0  0
    3.3523    1.9354    0.0000 C   0  0  0  0  0  0  0  0  0  0  0  0
    3.3523    1.1104    0.0000 C   0  0  0  0  0  0  0  0  0  0  0  0
    2.6378    0.6979    0.0000 C   0  0  0  0  0  0  0  0  0  0  0  0
    1.9233    1.1104    0.0000 C   0  0  0  0  0  0  0  0  0  0  0  0
    1.9233    1.9354    0.0000 C   0  0  0  0  0  0  0  0  0  0  0  0
    1.1387    2.1904    0.0000 N   0  0  0  0  0  0  0  0  0  0  0  0
    0.6538    1.5229    0.0000 C   0  0  0  0  0  0  0  0  0  0  0  0
    1.1387    0.8555    0.0000 C   0  0  0  0  0  0  0  0  0  0  0  0
    0.8838    0.0709    0.0000 C   0  0  0  0  0  0  0  0  0  0  0  0
    1.4358   -0.5422    0.0000 O   0  0  0  0  0  0  0  0  0  0  0  0
    0.0768   -0.1006    0.0000 C   0  0  0  0  0  0  0  0  0  0  0  0
   -0.1781   -0.8853    0.0000 C   0  0  0  0  0  0  0  0  0  0  0  0
   -0.9851   -1.0568    0.0000 C   0  0  0  0  0  0  0  0  0  0  0  0
   -1.2400   -1.8414    0.0000 O   0  0  0  0  0  0  0  0  0  0  0  0
   -2.0470   -2.0129    0.0000 C   0  0  0  0  0  0  0  0  0  0  0  0
   -1.5371   -0.4437    0.0000 C   0  0  0  0  0  0  0  0  0  0  0  0
   -2.3441   -0.6152    0.0000 O   0  0  0  0  0  0  0  0  0  0  0  0
   -2.5990   -1.3998    0.0000 C   0  0  0  0  0  0  0  0  0  0  0  0
   -1.2822    0.3409    0.0000 C   0  0  0  0  0  0  0  0  0  0  0  0
   -1.8342    0.9540    0.0000 O   0  0  0  0  0  0  0  0  0  0  0  0
   -1.5793    1.7386    0.0000 C   0  0  0  0  0  0  0  0  0  0  0  0
   -0.4752    0.5124    0.0000 C   0  0  0  0  0  0  0  0  0  0  0  0
    2.6378    2.3479    0.0000 C   0  0  0  0  0  0  0  0  0  0  0  0
  1  2  1  0
  2  3  1  0
  3  4  2  0
  3 25  1  0
  4  5  1  0
  5  6  2  0
  6  7  1  0
  6 10  1  0
  7  8  1  0
  7 25  2  0
  8  9  1  0
  9 10  2  0
 10 11  1  0
 11 12  2  0
 11 13  1  0
 13 14  2  0
 13 24  1  0
 14 15  1  0
 15 16  1  0
 15 18  2  0
 16 17  1  0
 18 19  1  0
 18 21  1  0
 19 20  1  0
 21 22  1  0
 21 24  2  0
 22 23  1  0
M  END
>  <DRUGBANK_ID>  (1) 
DB17155

>  <COMMON_NAME>  (1) 
BPR-0L075

>  <CAS_NUMBER>  (1) 
613679-11-1

>  <UNII>  (1) 
W918223VQ6

>  <SYNONYMS>  (1) 
6-methoxy-3-(3,4,5-trimethoxybenzoyl) indole; Methanone, (6-methoxy-1h-indol-3-yl)(3,4,5-trimethoxyphenyl)-

$$$$
