
     RDKit          2D

 16 16  0  0  0  0  0  0  0  0999 V2000
    0.3575    1.5013    0.0000 S   0  0  0  0  0  0  0  0  0  0  0  0
    0.3575   -0.9772    0.0000 O   0  0  0  0  0  0  0  0  0  0  0  0
   -0.3575    1.0898    0.0000 O   0  0  0  0  0  0  0  0  0  0  0  0
   -1.7878    0.2620    0.0000 O   0  0  0  0  0  0  0  0  0  0  0  0
   -1.7878   -1.3886    0.0000 O   0  0  0  0  0  0  0  0  0  0  0  0
   -0.3575   -2.2163    0.0000 O   0  0  0  0  0  0  0  0  0  0  0  0
    1.7878   -0.1493    0.0000 O   0  0  0  0  0  0  0  0  0  0  0  0
    1.0727    1.9126    0.0000 O   0  0  0  0  0  0  0  0  0  0  0  0
    0.7690    0.7862    0.0000 O   0  0  0  0  0  0  0  0  0  0  0  0
   -0.0587    2.2163    0.0000 O   0  0  0  0  0  0  0  0  0  0  0  0
   -0.3575    0.2620    0.0000 C   0  0  0  0  0  0  0  0  0  0  0  0
   -1.0727   -0.1493    0.0000 C   0  0  0  0  0  0  0  0  0  0  0  0
    0.3575   -0.1493    0.0000 C   0  0  0  0  0  0  0  0  0  0  0  0
   -1.0727   -0.9772    0.0000 C   0  0  0  0  0  0  0  0  0  0  0  0
   -0.3575   -1.3886    0.0000 C   0  0  0  0  0  0  0  0  0  0  0  0
    1.0727    0.2620    0.0000 C   0  0  0  0  0  0  0  0  0  0  0  0
  1  3  1  0
  1  8  1  0
  1  9  2  0
  1 10  2  0
  2 13  1  0
  2 15  1  0
  7 16  1  0
 11  3  1  1
 11 12  1  0
 11 13  1  0
 12  4  1  1
 12 14  1  0
 13 16  1  1
 14  5  1  6
 14 15  1  0
 15  6  1  1
M  END
>  <DRUGBANK_ID>  (1) 
DB02837

>  <SECONDARY_ACCESSION_NUMBERS>  (1) 
EXPT01646; DB03377

>  <COMMON_NAME>  (1) 
4-(Hydrogen sulfate)-beta-D-galactopyranose

>  <CAS_NUMBER>  (1) 
30591-62-9

>  <UNII>  (1) 
5G2WS8D321

>  <SYNONYMS>  (1) 
4-(Hydrogen sulfate)-beta-D-galactopyranose; 4-O-Sulfo-Î²-D-galactopyranose

$$$$
