505
     RDKit          2D

 13 13  0  0  0  0  0  0  0  0999 V2000
   17.5358    5.5057    0.0000 C   0  0  0  0  0  0  0  0  0  0  0  0
   17.5358    4.6807    0.0000 C   0  0  0  0  0  0  0  0  0  0  0  0
   18.2502    4.2682    0.0000 N   0  0  0  0  0  0  0  0  0  0  0  0
   16.8213    4.2682    0.0000 C   0  0  0  0  0  0  0  0  0  0  0  0
   16.8213    3.4432    0.0000 O   0  0  0  0  0  0  0  0  0  0  0  0
   16.1068    3.0307    0.0000 C   0  0  0  0  0  0  0  0  0  0  0  0
   16.1068    2.2057    0.0000 C   0  0  0  0  0  0  0  0  0  0  0  0
   16.8213    1.7932    0.0000 C   0  0  0  0  0  0  0  0  0  0  0  0
   15.3924    1.7932    0.0000 C   0  0  0  0  0  0  0  0  0  0  0  0
   14.6779    2.2057    0.0000 C   0  0  0  0  0  0  0  0  0  0  0  0
   14.6779    3.0307    0.0000 C   0  0  0  0  0  0  0  0  0  0  0  0
   15.3924    3.4432    0.0000 C   0  0  0  0  0  0  0  0  0  0  0  0
   15.3924    4.2682    0.0000 C   0  0  0  0  0  0  0  0  0  0  0  0
  2  1  1  1
  2  3  1  0
  2  4  1  0
  4  5  1  0
  5  6  1  0
  6  7  2  0
  6 12  1  0
  7  8  1  0
  7  9  1  0
  9 10  2  0
 10 11  1  0
 11 12  2  0
 12 13  1  0
M  END
>  <DRUGBANK_ID>  (1) 
DB07129

>  <COMMON_NAME>  (1) 
(2R)-1-(2,6-dimethylphenoxy)propan-2-amine

>  <UNII>  (1) 
4KQ8G4M9DE

$$$$
