W33
     RDKit          2D

 24 26  0  0  0  0  0  0  0  0999 V2000
   -4.0682    0.0928    0.0000 O   0  0  0  0  0  0  0  0  0  0  0  0
   -4.6203    0.7059    0.0000 N   0  0  0  0  0  0  0  0  0  0  0  0
   -4.2078    1.4203    0.0000 C   0  0  0  0  0  0  0  0  0  0  0  0
   -4.5433    2.1740    0.0000 C   0  0  0  0  0  0  0  0  0  0  0  0
   -3.4008    1.2488    0.0000 C   0  0  0  0  0  0  0  0  0  0  0  0
   -3.3146    0.4283    0.0000 C   0  0  0  0  0  0  0  0  0  0  0  0
   -2.6001    0.0158    0.0000 C   0  0  0  0  0  0  0  0  0  0  0  0
   -1.8856    0.4283    0.0000 C   0  0  0  0  0  0  0  0  0  0  0  0
   -1.1712    0.0158    0.0000 C   0  0  0  0  0  0  0  0  0  0  0  0
   -0.4567    0.4283    0.0000 C   0  0  0  0  0  0  0  0  0  0  0  0
    0.2578    0.0158    0.0000 C   0  0  0  0  0  0  0  0  0  0  0  0
    0.9723    0.4283    0.0000 O   0  0  0  0  0  0  0  0  0  0  0  0
    1.6867    0.0158    0.0000 C   0  0  0  0  0  0  0  0  0  0  0  0
    2.4012    0.4283    0.0000 C   0  0  0  0  0  0  0  0  0  0  0  0
    3.1157    0.0158    0.0000 C   0  0  0  0  0  0  0  0  0  0  0  0
    3.1157   -0.8092    0.0000 C   0  0  0  0  0  0  0  0  0  0  0  0
    2.4012   -1.2217    0.0000 C   0  0  0  0  0  0  0  0  0  0  0  0
    1.6867   -0.8092    0.0000 C   0  0  0  0  0  0  0  0  0  0  0  0
    0.9723   -1.2217    0.0000 Cl  0  0  0  0  0  0  0  0  0  0  0  0
    3.8301   -1.2217    0.0000 C   0  0  0  0  0  0  0  0  0  0  0  0
    4.5838   -0.8861    0.0000 N   0  0  0  0  0  0  0  0  0  0  0  0
    5.1358   -1.4992    0.0000 C   0  0  0  0  0  0  0  0  0  0  0  0
    4.7233   -2.2137    0.0000 C   0  0  0  0  0  0  0  0  0  0  0  0
    3.9164   -2.0422    0.0000 O   0  0  0  0  0  0  0  0  0  0  0  0
  1  2  1  0
  1  6  1  0
  2  3  2  0
  3  4  1  0
  3  5  1  0
  5  6  2  0
  6  7  1  0
  7  8  1  0
  8  9  1  0
  9 10  1  0
 10 11  1  0
 11 12  1  0
 12 13  1  0
 13 14  2  0
 13 18  1  0
 14 15  1  0
 15 16  2  0
 16 17  1  0
 16 20  1  0
 17 18  2  0
 18 19  1  0
 20 21  2  0
 20 24  1  0
 21 22  1  0
 22 23  1  0
 23 24  1  0
M  END
>  <DRUGBANK_ID>  (1) 
DB08719

>  <COMMON_NAME>  (1) 
5-(5-(6-CHLORO-4-(4,5-DIHYDRO-2-OXAZOLYL)PHENOXY)PENTYL)-3-METHYL ISOXAZOLE

>  <UNII>  (1) 
IVZ08DAW25

$$$$
