
     RDKit          2D

 27 30  0  0  0  0  0  0  0  0999 V2000
    3.9934    0.8250    0.0000 C   0  0  0  0  0  0  0  0  0  0  0  0
   11.1381    0.8250    0.0000 C   0  0  0  0  0  0  0  0  0  0  0  0
   10.4236   -0.4125    0.0000 C   0  0  0  0  0  0  0  0  0  0  0  0
   10.4236    1.2375    0.0000 C   0  0  0  0  0  0  0  0  0  0  0  0
    9.7092    0.0000    0.0000 C   0  0  0  0  0  0  0  0  0  0  0  0
    3.2789    1.2375    0.0000 C   0  0  0  0  0  0  0  0  0  0  0  0
    6.1368   -0.4125    0.0000 C   0  0  0  0  0  0  0  0  0  0  0  0
    5.4223    0.8250    0.0000 C   0  0  0  0  0  0  0  0  0  0  0  0
    6.8513   -0.0000    0.0000 C   0  0  0  0  0  0  0  0  0  0  0  0
    6.1368    1.2375    0.0000 C   0  0  0  0  0  0  0  0  0  0  0  0
    3.2789   -0.4125    0.0000 C   0  0  0  0  0  0  0  0  0  0  0  0
    4.7079   -0.4125    0.0000 C   0  0  0  0  0  0  0  0  0  0  0  0
    8.2802    0.8250    0.0000 C   0  0  0  0  0  0  0  0  0  0  0  0
    1.2949    0.4125    0.0000 C   0  0  0  0  0  0  0  0  0  0  0  0
    3.9934    0.0000    0.0000 C   0  0  0  0  0  0  0  0  0  0  0  0
   11.1381   -0.0000    0.0000 C   0  0  0  0  0  0  0  0  0  0  0  0
    9.7092    0.8250    0.0000 C   0  0  0  0  0  0  0  0  0  0  0  0
    2.5645    0.8250    0.0000 C   0  0  0  0  0  0  0  0  0  0  0  0
    2.5645    0.0000    0.0000 C   0  0  0  0  0  0  0  0  0  0  0  0
    7.5658    1.2375    0.0000 C   0  0  0  0  0  0  0  0  0  0  0  0
   11.8526   -0.4125    0.0000 Cl  0  0  0  0  0  0  0  0  0  0  0  0
    5.4223   -0.0000    0.0000 N   0  0  0  0  0  0  0  0  0  0  0  0
    6.8513    0.8250    0.0000 N   0  0  0  0  0  0  0  0  0  0  0  0
    7.5658    2.0625    0.0000 O   0  0  0  0  0  0  0  0  0  0  0  0
    8.9947    1.2375    0.0000 O   0  0  0  0  0  0  0  0  0  0  0  0
    1.7798    1.0799    0.0000 O   0  0  0  0  0  0  0  0  0  0  0  0
    1.7798   -0.2549    0.0000 O   0  0  0  0  0  0  0  0  0  0  0  0
  4  2  2  0
  5  3  1  0
  6  1  2  0
  9  7  1  0
 10  8  1  0
 15  1  1  0
 15 11  2  0
 15 12  1  0
 16  2  1  0
 16  3  2  0
 17  4  1  0
 17  5  2  0
 18  6  1  0
 19 11  1  0
 19 18  2  0
 20 13  1  0
 21 16  1  0
 22  7  1  0
 22  8  1  0
 22 12  1  0
 23  9  1  0
 23 10  1  0
 23 20  1  0
 24 20  2  0
 25 13  1  0
 25 17  1  0
 26 14  1  0
 26 18  1  0
 27 14  1  0
 27 19  1  0
M  END
>  <DRUGBANK_ID>  (1) 
DB13790

>  <COMMON_NAME>  (1) 
Fipexide

>  <CAS_NUMBER>  (1) 
34161-24-5

>  <UNII>  (1) 
TG44VME01D

>  <SYNONYMS>  (1) 
Fipexide

$$$$
