B4N
     RDKit          2D

 23 24  0  0  0  0  0  0  0  0999 V2000
    2.1483    0.3214    0.0000 C   0  0  0  0  0  0  0  0  0  0  0  0
    2.8627   -0.0911    0.0000 C   0  0  0  0  0  0  0  0  0  0  0  0
    2.8627   -0.9161    0.0000 C   0  0  0  0  0  0  0  0  0  0  0  0
    3.5772   -1.3286    0.0000 N   0  0  0  0  0  0  0  0  0  0  0  0
    3.5772   -2.1536    0.0000 O   0  0  0  0  0  0  0  0  0  0  0  0
    4.2917   -0.9161    0.0000 O   0  0  0  0  0  0  0  0  0  0  0  0
    2.1483   -1.3286    0.0000 C   0  0  0  0  0  0  0  0  0  0  0  0
    1.4338   -0.9161    0.0000 C   0  0  0  0  0  0  0  0  0  0  0  0
    1.4338   -0.0911    0.0000 C   0  0  0  0  0  0  0  0  0  0  0  0
    0.7193    0.3214    0.0000 O   0  0  0  0  0  0  0  0  0  0  0  0
    0.0049   -0.0911    0.0000 P   0  0  0  0  0  0  0  0  0  0  0  0
   -0.4076    0.6234    0.0000 O   0  0  0  0  0  0  0  0  0  0  0  0
    0.4174   -0.8055    0.0000 O   0  0  0  0  0  0  0  0  0  0  0  0
   -0.7096   -0.5036    0.0000 O   0  0  0  0  0  0  0  0  0  0  0  0
   -1.4241   -0.0911    0.0000 C   0  0  0  0  0  0  0  0  0  0  0  0
   -2.1386   -0.5036    0.0000 C   0  0  0  0  0  0  0  0  0  0  0  0
   -2.8530   -0.0911    0.0000 C   0  0  0  0  0  0  0  0  0  0  0  0
   -2.8530    0.7339    0.0000 C   0  0  0  0  0  0  0  0  0  0  0  0
   -3.5675    1.1464    0.0000 N   0  0  0  0  0  0  0  0  0  0  0  0
   -4.2820    0.7339    0.0000 O   0  0  0  0  0  0  0  0  0  0  0  0
   -3.5675    1.9714    0.0000 O   0  0  0  0  0  0  0  0  0  0  0  0
   -2.1386    1.1464    0.0000 C   0  0  0  0  0  0  0  0  0  0  0  0
   -1.4241    0.7339    0.0000 C   0  0  0  0  0  0  0  0  0  0  0  0
  1  2  2  0
  1  9  1  0
  2  3  1  0
  3  4  1  0
  3  7  2  0
  4  5  2  0
  4  6  1  0
  7  8  1  0
  8  9  2  0
  9 10  1  0
 10 11  1  0
 11 12  1  0
 11 13  2  0
 11 14  1  0
 14 15  1  0
 15 16  2  0
 15 23  1  0
 16 17  1  0
 17 18  2  0
 18 19  1  0
 18 22  1  0
 19 20  2  0
 19 21  1  0
 22 23  2  0
M  CHG  4   4   1   6  -1  19   1  21  -1
M  END
>  <DRUGBANK_ID>  (1) 
DB07418

>  <COMMON_NAME>  (1) 
bis(4-nitrophenyl) hydrogen phosphate

>  <UNII>  (1) 
1MF77LEI63

$$$$
