
     RDKit          2D

 34 36  0  0  0  0  0  0  0  0999 V2000
   -0.5910    0.0103    0.0000 C   0  0  0  0  0  0  0  0  0  0  0  0
   -1.2966    0.4136    0.0000 C   0  0  0  0  0  0  0  0  0  0  0  0
    0.1146    0.4518    0.0000 C   0  0  0  0  0  0  0  0  0  0  0  0
   -0.5910   -1.2478    0.0000 C   0  0  0  0  0  0  0  0  0  0  0  0
   -1.2966    1.2478    0.0000 C   0  0  0  0  0  0  0  0  0  0  0  0
   -2.0403    0.0103    0.0000 C   0  0  0  0  0  0  0  0  0  0  0  0
    0.1146    1.2269    0.0000 C   0  0  0  0  0  0  0  0  0  0  0  0
    0.8202    0.0382    0.0000 C   0  0  0  0  0  0  0  0  0  0  0  0
    0.1146   -1.6510    0.0000 C   0  0  0  0  0  0  0  0  0  0  0  0
   -1.2966   -1.6754    0.0000 C   0  0  0  0  0  0  0  0  0  0  0  0
   -0.5910    1.6545    0.0000 O   0  0  0  0  0  0  0  0  0  0  0  0
   -2.0403    1.6545    0.0000 C   0  0  0  0  0  0  0  0  0  0  0  0
   -2.7391    0.4518    0.0000 C   0  0  0  0  0  0  0  0  0  0  0  0
    0.8202    1.6232    0.0000 C   0  0  0  0  0  0  0  0  0  0  0  0
    1.5259    0.4518    0.0000 C   0  0  0  0  0  0  0  0  0  0  0  0
    0.1146   -2.4958    0.0000 C   0  0  0  0  0  0  0  0  0  0  0  0
    0.8446   -1.2478    0.0000 C   0  0  0  0  0  0  0  0  0  0  0  0
   -1.2966   -2.4958    0.0000 C   0  0  0  0  0  0  0  0  0  0  0  0
   -2.7391    1.2269    0.0000 C   0  0  0  0  0  0  0  0  0  0  0  0
    1.5259    1.2269    0.0000 C   0  0  0  0  0  0  0  0  0  0  0  0
   -0.5910   -2.8955    0.0000 C   0  0  0  0  0  0  0  0  0  0  0  0
    1.5503   -1.6719    0.0000 O   0  0  0  0  0  0  0  0  0  0  0  0
    0.8654   -0.4379    0.0000 O   0  0  0  0  0  0  0  0  0  0  0  0
   -3.4759    1.6232    0.0000 N   0  0  0  0  0  0  0  0  0  0  0  0
    2.2559    1.5746    0.0000 N   0  0  0  0  0  0  0  0  0  0  0  0
   -3.4934    2.4575    0.0000 C   0  0  0  0  0  0  0  0  0  0  0  0
   -4.1816    1.1888    0.0000 C   0  0  0  0  0  0  0  0  0  0  0  0
    2.3150    2.4053    0.0000 C   0  0  0  0  0  0  0  0  0  0  0  0
    2.9441    1.1087    0.0000 C   0  0  0  0  0  0  0  0  0  0  0  0
   -2.7842    2.8955    0.0000 C   0  0  0  0  0  0  0  0  0  0  0  0
   -4.9150    1.5850    0.0000 C   0  0  0  0  0  0  0  0  0  0  0  0
    3.0623    2.7703    0.0000 C   0  0  0  0  0  0  0  0  0  0  0  0
    3.6915    1.4737    0.0000 C   0  0  0  0  0  0  0  0  0  0  0  0
    4.9150    1.5988    0.0000 Cl  0  0  0  0  0  0  0  0  0  0  0  0
  1  2  1  0
  1  3  2  0
  1  4  1  0
  2  5  1  0
  2  6  2  0
  3  7  1  0
  3  8  1  0
  4  9  2  0
  4 10  1  0
  5 11  1  0
  5 12  2  0
  6 13  1  0
  7 14  2  0
  7 11  1  0
  8 15  2  0
  9 16  1  0
  9 17  1  0
 10 18  2  0
 12 19  1  0
 13 19  2  0
 14 20  1  0
 15 20  1  0
 16 21  2  0
 17 22  1  0
 17 23  2  0
 18 21  1  0
 19 24  1  0
 20 25  2  3
 24 26  1  0
 24 27  1  0
 25 28  1  0
 25 29  1  0
 26 30  1  0
 27 31  1  0
 28 32  1  0
 29 33  1  0
M  CHG  2  25   1  34  -1
M  END
>  <DRUGBANK_ID>  (1) 
DB16853

>  <COMMON_NAME>  (1) 
Rhodamine B

>  <CAS_NUMBER>  (1) 
81-88-9

>  <UNII>  (1) 
K7G5SCF8IL

$$$$
