
     RDKit          2D

 34 38  0  0  1  0  0  0  0  0999 V2000
   -0.2135    0.8531    0.0000 O   0  0  0  0  0  0  0  0  0  0  0  0
   -0.2135    0.0281    0.0000 C   0  0  0  0  0  0  0  0  0  0  0  0
   -0.9280   -0.3844    0.0000 C   0  0  0  0  0  0  0  0  0  0  0  0
   -1.6425    0.0281    0.0000 C   0  0  0  0  0  0  0  0  0  0  0  0
   -1.6425    0.8531    0.0000 C   0  0  0  0  0  0  0  0  0  0  0  0
   -2.0550    1.5676    0.0000 C   0  0  0  0  0  0  0  0  0  0  0  0
   -1.2300    1.5676    0.0000 C   0  0  0  0  0  0  0  0  0  0  0  0
   -2.3569   -0.3844    0.0000 C   0  0  0  0  0  0  0  0  0  0  0  0
   -2.3569   -1.2094    0.0000 C   0  0  0  0  0  0  0  0  0  0  0  0
   -3.0714   -1.6219    0.0000 C   0  0  0  0  0  0  0  0  0  0  0  0
   -3.7859   -1.2094    0.0000 C   0  0  0  0  0  0  0  0  0  0  0  0
   -3.7859   -0.3844    0.0000 C   0  0  0  0  0  0  0  0  0  0  0  0
   -4.5004    0.0281    0.0000 N   0  0  0  0  0  0  0  0  0  0  0  0
   -5.2148   -0.3844    0.0000 S   0  0  0  0  0  0  0  0  0  0  0  0
   -4.8023   -1.0989    0.0000 O   0  0  0  0  0  0  0  0  0  0  0  0
   -5.6273    0.3301    0.0000 O   0  0  0  0  0  0  0  0  0  0  0  0
   -5.9293   -0.7969    0.0000 C   0  0  0  0  0  0  0  0  0  0  0  0
   -5.9293   -1.6219    0.0000 C   0  0  0  0  0  0  0  0  0  0  0  0
   -6.6438   -2.0344    0.0000 C   0  0  0  0  0  0  0  0  0  0  0  0
   -7.3582   -1.6219    0.0000 C   0  0  0  0  0  0  0  0  0  0  0  0
   -7.3582   -0.7969    0.0000 C   0  0  0  0  0  0  0  0  0  0  0  0
   -6.6438   -0.3844    0.0000 C   0  0  0  0  0  0  0  0  0  0  0  0
   -3.0714    0.0281    0.0000 C   0  0  0  0  0  0  0  0  0  0  0  0
   -0.9280   -1.2094    0.0000 C   0  0  0  0  0  0  0  0  0  0  0  0
   -1.6425   -1.6219    0.0000 O   0  0  0  0  0  0  0  0  0  0  0  0
   -0.2135   -1.6219    0.0000 O   0  0  0  0  0  0  0  0  0  0  0  0
    0.5009   -1.2094    0.0000 C   0  0  0  0  0  0  0  0  0  0  0  0
    0.5009   -0.3844    0.0000 C   0  0  0  0  0  0  0  0  0  0  0  0
    1.0843    0.1990    0.0000 C   0  0  0  0  0  0  0  0  0  0  0  0
    1.9093    0.1990    0.0000 C   0  0  0  0  0  0  0  0  0  0  0  0
    2.4927   -0.3844    0.0000 C   0  0  0  0  0  0  0  0  0  0  0  0
    2.4927   -1.2094    0.0000 C   0  0  0  0  0  0  0  0  0  0  0  0
    1.9093   -1.7928    0.0000 C   0  0  0  0  0  0  0  0  0  0  0  0
    1.0843   -1.7928    0.0000 C   0  0  0  0  0  0  0  0  0  0  0  0
  1  2  1  0
  2  3  2  0
  2 28  1  0
  4  3  1  6
  3 24  1  0
  4  5  1  0
  4  8  1  0
  5  6  1  0
  5  7  1  0
  6  7  1  0
  8  9  2  0
  8 23  1  0
  9 10  1  0
 10 11  2  0
 11 12  1  0
 12 13  1  0
 12 23  2  0
 13 14  1  0
 14 15  2  0
 14 16  2  0
 14 17  1  0
 17 18  2  0
 17 22  1  0
 18 19  1  0
 19 20  2  0
 20 21  1  0
 21 22  2  0
 24 25  2  0
 24 26  1  0
 26 27  1  0
 27 28  2  0
 27 34  1  0
 28 29  1  0
 29 30  1  0
 30 31  1  0
 31 32  1  0
 32 33  1  0
 33 34  1  0
M  END
>  <DRUGBANK_ID>  (1) 
DB02033

>  <SECONDARY_ACCESSION_NUMBERS>  (1) 
EXPT01894

>  <COMMON_NAME>  (1) 
N-(3-Cyclopropyl(5,6,7,8,9,10-Hexahydro-2-Oxo-2h-Cycloocta[B]Pyran-3-Yl)Methyl)Phenylbenzensulfonamide

$$$$
