
     RDKit          2D

 23 24  0  0  0  0  0  0  0  0999 V2000
   -3.2151   -1.2375    0.0000 C   0  0  0  0  0  0  0  0  0  0  0  0
   -2.5006   -0.8250    0.0000 C   0  0  0  0  0  0  0  0  0  0  0  0
    0.3572   -2.4750    0.0000 C   0  0  0  0  0  0  0  0  0  0  0  0
    1.0717   -2.0625    0.0000 C   0  0  0  0  0  0  0  0  0  0  0  0
   -0.3572   -2.0625    0.0000 C   0  0  0  0  0  0  0  0  0  0  0  0
    1.0717   -1.2375    0.0000 C   0  0  0  0  0  0  0  0  0  0  0  0
    1.7861    2.4750    0.0000 C   0  0  0  0  0  0  0  0  0  0  0  0
    1.0717    2.0625    0.0000 C   0  0  0  0  0  0  0  0  0  0  0  0
    2.5006    1.2375    0.0000 C   0  0  0  0  0  0  0  0  0  0  0  0
    2.5006    2.0625    0.0000 C   0  0  0  0  0  0  0  0  0  0  0  0
   -0.3572   -1.2375    0.0000 C   0  0  0  0  0  0  0  0  0  0  0  0
    1.7861    0.8250    0.0000 C   0  0  0  0  0  0  0  0  0  0  0  0
    1.0717    1.2375    0.0000 C   0  0  0  0  0  0  0  0  0  0  0  0
    0.3572   -0.8250    0.0000 C   0  0  0  0  0  0  0  0  0  0  0  0
   -1.0717   -0.8250    0.0000 C   0  0  0  0  0  0  0  0  0  0  0  0
    1.7861    0.0000    0.0000 Cl  0  0  0  0  0  0  0  0  0  0  0  0
    3.2151    2.4750    0.0000 F   0  0  0  0  0  0  0  0  0  0  0  0
    0.3572    0.8250    0.0000 N   0  0  0  0  0  0  0  0  0  0  0  0
   -1.0717    0.0000    0.0000 O   0  0  0  0  0  0  0  0  0  0  0  0
    1.1822    0.0000    0.0000 O   0  0  0  0  0  0  0  0  0  0  0  0
   -0.4677    0.0000    0.0000 O   0  0  0  0  0  0  0  0  0  0  0  0
   -1.7861   -1.2375    0.0000 O   0  0  0  0  0  0  0  0  0  0  0  0
    0.3572    0.0000    0.0000 S   0  0  0  0  0  0  0  0  0  0  0  0
  2  1  1  0
  4  3  1  0
  5  3  1  0
  6  4  1  0
  8  7  2  0
 10  7  1  0
 10  9  2  0
 11  5  2  0
 12  9  1  0
 13  8  1  0
 13 12  2  0
 14  6  1  0
 14 11  1  0
 14 23  1  6
 15 11  1  0
 16 12  1  0
 17 10  1  0
 18 13  1  0
 19 15  2  0
 22  2  1  0
 22 15  1  0
 23 18  1  0
 23 20  2  0
 23 21  2  0
M  END
>  <DRUGBANK_ID>  (1) 
DB05943

>  <COMMON_NAME>  (1) 
Resatorvid

>  <CAS_NUMBER>  (1) 
243984-11-4

>  <UNII>  (1) 
H2MZ648C31

>  <SYNONYMS>  (1) 
Resatorvid

$$$$
