
     RDKit          2D

  8  8  0  0  0  0  0  0  0  0999 V2000
    0.2773    1.3811    0.0000 C   0  0  0  0  0  0  0  0  0  0  0  0
    0.2773    0.5560    0.0000 N   0  0  0  0  0  0  0  0  0  0  0  0
    0.9448    0.0710    0.0000 S   0  0  0  0  0  0  0  0  0  0  0  0
    0.6899   -0.7136    0.0000 C   0  0  0  0  0  0  0  0  0  0  0  0
   -0.1351   -0.7136    0.0000 C   0  0  0  0  0  0  0  0  0  0  0  0
   -0.3901    0.0710    0.0000 C   0  0  0  0  0  0  0  0  0  0  0  0
   -1.1748    0.3260    0.0000 O   0  0  0  0  0  0  0  0  0  0  0  0
    1.1748   -1.3811    0.0000 Cl  0  0  0  0  0  0  0  0  0  0  0  0
  1  2  1  0
  2  3  1  0
  2  6  1  0
  3  4  1  0
  4  5  2  0
  4  8  1  0
  5  6  1  0
  6  7  2  0
M  END
>  <DRUGBANK_ID>  (1) 
DB14197

>  <COMMON_NAME>  (1) 
Methylchloroisothiazolinone

>  <CAS_NUMBER>  (1) 
26172-55-4

>  <UNII>  (1) 
DEL7T5QRPN

>  <SYNONYMS>  (1) 
4-Isothiazolin-3-one, 5-chloro-2-methyl-; 5-Chloro-2-methyl-3(2H)-isothiazolone; 5-Chloro-N-methylisothiazolin-3-one

$$$$
