
     RDKit          2D

 24 27  0  0  0  0  0  0  0  0999 V2000
   -3.2371   -1.0083    0.0000 O   0  0  0  0  0  0  0  0  0  0  0  0
    1.9205    2.1379    0.0000 O   0  0  0  0  0  0  0  0  0  0  0  0
    1.2945    0.5323    0.0000 C   0  0  0  0  0  0  0  0  0  0  0  0
   -0.9460   -0.5188    0.0000 C   0  0  0  0  0  0  0  0  0  0  0  0
   -0.1991   -0.1685    0.0000 C   0  0  0  0  0  0  0  0  0  0  0  0
    1.2246   -0.2896    0.0000 C   0  0  0  0  0  0  0  0  0  0  0  0
    0.4777   -0.6399    0.0000 C   0  0  0  0  0  0  0  0  0  0  0  0
   -1.0159   -1.3410    0.0000 C   0  0  0  0  0  0  0  0  0  0  0  0
    2.0981    0.7199    0.0000 C   0  0  0  0  0  0  0  0  0  0  0  0
    0.6175    1.0040    0.0000 C   0  0  0  0  0  0  0  0  0  0  0  0
   -0.1292    0.6534    0.0000 C   0  0  0  0  0  0  0  0  0  0  0  0
    0.4078   -1.4621    0.0000 C   0  0  0  0  0  0  0  0  0  0  0  0
    1.9849   -0.6100    0.0000 C   0  0  0  0  0  0  0  0  0  0  0  0
   -1.6229   -0.0473    0.0000 C   0  0  0  0  0  0  0  0  0  0  0  0
   -0.3390   -1.8125    0.0000 C   0  0  0  0  0  0  0  0  0  0  0  0
    2.5246    0.0138    0.0000 C   0  0  0  0  0  0  0  0  0  0  0  0
   -1.7628   -1.6915    0.0000 C   0  0  0  0  0  0  0  0  0  0  0  0
   -2.4398   -1.2198    0.0000 C   0  0  0  0  0  0  0  0  0  0  0  0
    1.4500    1.3428    0.0000 C   0  0  0  0  0  0  0  0  0  0  0  0
   -0.8761    0.3031    0.0000 C   0  0  0  0  0  0  0  0  0  0  0  0
    2.4185    1.4802    0.0000 C   0  0  0  0  0  0  0  0  0  0  0  0
   -2.3699   -0.3978    0.0000 C   0  0  0  0  0  0  0  0  0  0  0  0
   -2.7867   -1.9684    0.0000 C   0  0  0  0  0  0  0  0  0  0  0  0
    3.2371    1.5827    0.0000 C   0  0  0  0  0  0  0  0  0  0  0  0
  2 21  2  0
  3  6  1  0
  3  9  1  0
  3 10  1  0
  3 19  1  1
  4  5  1  0
  4  8  1  0
  4 14  1  0
  4 20  1  1
  5  7  1  0
  5 11  1  1
  6  7  1  0
  6 13  1  1
  7 12  1  6
  8 15  1  1
  8 17  1  0
  9 16  1  0
  9 21  1  1
 10 11  1  0
 12 15  1  0
 13 16  1  0
 14 22  1  0
 17 18  1  0
 18  1  1  0
 18 22  1  0
 18 23  1  1
 21 24  1  0
M  END
>  <DRUGBANK_ID>  (1) 
DB05087

>  <COMMON_NAME>  (1) 
Ganaxolone

>  <CAS_NUMBER>  (1) 
38398-32-2

>  <UNII>  (1) 
98WI44OHIQ

>  <SYNONYMS>  (1) 
Ganaxolone

$$$$
