
     RDKit          2D

 35 37  0  0  1  0  0  0  0  0999 V2000
    2.6552   -7.7058    0.0000 C   0  0  0  0  0  0  0  0  0  0  0  0
    2.3852   -6.9263    0.0000 C   0  0  0  0  0  0  0  0  0  0  0  0
    1.5751   -6.7704    0.0000 C   0  0  0  0  0  0  0  0  0  0  0  0
    1.0350   -7.3940    0.0000 C   0  0  0  0  0  0  0  0  0  0  0  0
    1.3050   -8.1736    0.0000 C   0  0  0  0  0  0  0  0  0  0  0  0
    0.7649   -8.7972    0.0000 C   0  0  0  0  0  0  0  0  0  0  0  0
   -0.0452   -8.6413    0.0000 C   0  0  0  0  0  0  0  0  0  0  0  0
   -0.3152   -7.8618    0.0000 C   0  0  0  0  0  0  0  0  0  0  0  0
    0.2248   -7.2381    0.0000 N   0  0  0  0  0  0  0  0  0  0  0  0
   -0.5853   -9.2650    0.0000 O   0  0  0  0  0  0  0  0  0  0  0  0
    1.3050   -5.9908    0.0000 O   0  0  0  0  0  0  0  0  0  0  0  0
    2.9253   -6.3027    0.0000 C   0  0  0  0  0  0  0  0  0  0  0  0
    3.7354   -6.4586    0.0000 C   0  0  0  0  0  0  0  0  0  0  0  0
    4.0055   -7.2381    0.0000 O   0  0  0  0  0  0  0  0  0  0  0  0
    4.2755   -5.8349    0.0000 N   0  0  0  0  0  0  0  0  0  0  0  0
    5.0856   -5.9908    0.0000 C   0  0  0  0  0  0  0  0  0  0  0  0
    5.6257   -5.3672    0.0000 C   0  0  0  0  0  0  0  0  0  0  0  0
    5.4387   -4.5637    0.0000 C   0  0  0  0  0  0  0  0  0  0  0  0
    6.1450   -4.1375    0.0000 C   0  0  0  0  0  0  0  0  0  0  0  0
    6.7687   -4.6776    0.0000 C   0  0  0  0  0  0  0  0  0  0  0  0
    6.4477   -5.4376    0.0000 O   0  0  0  0  0  0  0  0  0  0  0  0
    7.5722   -4.4905    0.0000 N   0  0  0  0  0  0  0  0  0  0  0  0
    7.8119   -3.7011    0.0000 C   0  0  0  0  0  0  0  0  0  0  0  0
    8.6154   -3.5140    0.0000 C   0  0  0  0  0  0  0  0  0  0  0  0
    9.1792   -4.1163    0.0000 C   0  0  0  0  0  0  0  0  0  0  0  0
    9.9827   -3.9292    0.0000 O   0  0  0  0  0  0  0  0  0  0  0  0
    8.9395   -4.9057    0.0000 N   0  0  0  0  0  0  0  0  0  0  0  0
    8.1359   -5.0928    0.0000 C   0  0  0  0  0  0  0  0  0  0  0  0
    7.8962   -5.8822    0.0000 O   0  0  0  0  0  0  0  0  0  0  0  0
    6.2154   -3.3155    0.0000 O   0  0  0  0  0  0  0  0  0  0  0  0
    4.6786   -4.2427    0.0000 O   0  0  0  0  0  0  0  0  0  0  0  0
    5.3557   -6.7704    0.0000 C   0  0  0  0  0  0  0  0  0  0  0  0
    6.1658   -6.9263    0.0000 O   0  0  0  0  0  0  0  0  0  0  0  0
    4.8156   -7.3940    0.0000 O   0  0  0  0  0  0  0  0  0  0  0  0
    2.6552   -5.5231    0.0000 N   0  0  0  0  0  0  0  0  0  0  0  0
  2  1  1  6
  2  3  1  0
  2 12  1  0
  3  4  1  0
  3 11  1  1
  4  5  2  0
  4  9  1  0
  5  6  1  0
  6  7  2  0
  7  8  1  0
  7 10  1  0
  8  9  2  0
 12 13  1  0
 12 35  1  6
 13 14  2  0
 13 15  1  0
 16 15  1  1
 16 32  1  0
 17 16  1  0
 17 18  1  0
 17 21  1  6
 18 19  1  0
 18 31  1  1
 19 20  1  0
 19 30  1  1
 20 21  1  0
 20 22  1  6
 22 23  1  0
 22 28  1  0
 23 24  2  0
 24 25  1  0
 25 26  2  0
 25 27  1  0
 27 28  1  0
 28 29  2  0
 32 33  2  0
 32 34  1  0
M  END
>  <DRUGBANK_ID>  (1) 
DB12939

>  <COMMON_NAME>  (1) 
Nikkomycin Z

>  <CAS_NUMBER>  (1) 
59456-70-1

>  <UNII>  (1) 
9Z22C3QQCJ

$$$$
