
     RDKit          2D

 10  9  0  0  1  0  0  0  0  0999 V2000
    1.6500    0.0000    0.0000 C   0  0  0  0  0  0  0  0  0  0  0  0
    1.2375    0.7145    0.0000 C   0  0  0  0  0  0  0  0  0  0  0  0
    0.8250    1.4289    0.0000 C   0  0  0  0  0  0  0  0  0  0  0  0
    0.5230    0.3020    0.0000 C   0  0  0  0  0  0  0  0  0  0  0  0
   -0.1914    0.7145    0.0000 O   0  0  0  0  0  0  0  0  0  0  0  0
    1.9520    1.1270    0.0000 C   0  0  0  0  0  0  0  0  0  0  0  0
    1.9520    1.9520    0.0000 O   0  0  0  0  0  0  0  0  0  0  0  0
    2.6664    0.7145    0.0000 C   0  0  0  0  0  0  0  0  0  0  0  0
    3.3809    1.1270    0.0000 O   0  0  0  0  0  0  0  0  0  0  0  0
    2.6664   -0.1105    0.0000 O   0  0  0  0  0  0  0  0  0  0  0  0
  1  2  1  0
  2  3  1  0
  2  4  1  0
  2  6  1  0
  4  5  1  0
  6  7  1  1
  6  8  1  0
  8  9  1  0
  8 10  2  0
M  CHG  1   9  -1
M  END
>  <DRUGBANK_ID>  (1) 
DB01930

>  <SECONDARY_ACCESSION_NUMBERS>  (1) 
EXPT02489

>  <COMMON_NAME>  (1) 
2,4-Dihydroxy-3,3-Dimethyl-Butyrate

>  <CAS_NUMBER>  (1) 
470-29-1

$$$$
