
     RDKit          2D

  5  4  0  0  0  0  0  0  0  0999 V2000
   -0.3675   -0.2063    0.0000 C   0  0  0  0  0  0  0  0  0  0  0  0
   -1.0687    0.2062    0.0000 C   0  0  0  0  0  0  0  0  0  0  0  0
    0.3440    1.0312    0.0000 O   0  0  0  0  0  0  0  0  0  0  0  0
   -0.3675   -1.0312    0.0000 O   0  0  0  0  0  0  0  0  0  0  0  0
    0.3542    0.2062    0.0000 C   0  0  0  0  0  0  0  0  0  0  0  0
  1  5  1  0
  1  2  1  1
  3  5  2  0
  4  1  1  0
M  END
>  <DRUGBANK_ID>  (1) 
DB03776

>  <SECONDARY_ACCESSION_NUMBERS>  (1) 
EXPT00138

>  <COMMON_NAME>  (1) 
Lactaldehyde

>  <CAS_NUMBER>  (1) 
598-35-6

>  <UNII>  (1) 
BS76EN9C35

>  <SYNONYMS>  (1) 
(2s)-2-Hydroxypropanal; (S)-lactaldehyde; L-2-Hydroxypropionaldehyde; L-lactaldehyde

$$$$
