
     RDKit          2D

 29 31  0  0  0  0  0  0  0  0999 V2000
   -0.7423    1.7257    0.0000 C   0  0  0  0  0  0  0  0  0  0  0  0
   -0.7423    0.9079    0.0000 C   0  0  0  0  0  0  0  0  0  0  0  0
    0.0413    1.9836    0.0000 C   0  0  0  0  0  0  0  0  0  0  0  0
   -1.4579    0.4941    0.0000 C   0  0  0  0  0  0  0  0  0  0  0  0
    1.4628    2.8210    0.0000 C   0  0  0  0  0  0  0  0  0  0  0  0
   -1.4579   -0.3383    0.0000 C   0  0  0  0  0  0  0  0  0  0  0  0
    2.1784    2.4072    0.0000 C   0  0  0  0  0  0  0  0  0  0  0  0
   -2.1784   -1.5797    0.0000 C   0  0  0  0  0  0  0  0  0  0  0  0
    0.0413    0.6547    0.0000 C   0  0  0  0  0  0  0  0  0  0  0  0
    0.5136    1.3168    0.0000 C   0  0  0  0  0  0  0  0  0  0  0  0
   -2.1784   -0.7473    0.0000 C   0  0  0  0  0  0  0  0  0  0  0  0
    2.8941    1.9983    0.0000 C   0  0  0  0  0  0  0  0  0  0  0  0
   -2.1784   -3.2299    0.0000 C   0  0  0  0  0  0  0  0  0  0  0  0
   -2.8891   -2.8210    0.0000 C   0  0  0  0  0  0  0  0  0  0  0  0
   -1.4628   -2.8210    0.0000 C   0  0  0  0  0  0  0  0  0  0  0  0
   -2.8891   -1.9886    0.0000 C   0  0  0  0  0  0  0  0  0  0  0  0
   -1.4628   -1.9886    0.0000 C   0  0  0  0  0  0  0  0  0  0  0  0
    0.0316    2.8064    0.0000 C   0  0  0  0  0  0  0  0  0  0  0  0
   -1.4579    2.1443    0.0000 C   0  0  0  0  0  0  0  0  0  0  0  0
   -0.7423    2.5532    0.0000 C   0  0  0  0  0  0  0  0  0  0  0  0
    0.7473    3.2299    0.0000 C   0  0  0  0  0  0  0  0  0  0  0  0
    3.6097    2.4072    0.0000 O   0  0  0  0  0  0  0  0  0  0  0  0
   -3.6097   -3.2299    0.0000 O   0  0  0  0  0  0  0  0  0  0  0  0
   -0.7423   -3.2299    0.0000 O   0  0  0  0  0  0  0  0  0  0  0  0
   -2.1784    0.9030    0.0000 C   0  0  0  0  0  0  0  0  0  0  0  0
   -2.1736    1.7354    0.0000 C   0  0  0  0  0  0  0  0  0  0  0  0
    3.3030    1.2827    0.0000 C   0  0  0  0  0  0  0  0  0  0  0  0
    2.4802    1.2827    0.0000 C   0  0  0  0  0  0  0  0  0  0  0  0
   -0.6839    3.2154    0.0000 C   0  0  0  0  0  0  0  0  0  0  0  0
  1 20  1  1
  2  1  1  0
  3  1  1  0
  4  2  1  0
  5 21  1  0
  6  4  2  0
  7  5  3  0
  8 11  2  0
  2  9  1  6
  3 10  1  1
 10  9  1  0
 11  6  1  0
 12  7  1  0
 13 15  1  0
 13 14  1  0
 14 16  1  0
 14 23  1  6
 15 17  1  0
 15 24  1  1
 16  8  1  0
 17  8  1  0
 18  3  1  0
 18 29  1  6
 19  1  1  0
 21 18  1  0
 22 12  1  0
 25 26  1  0
 25  4  1  0
 26 19  1  0
 27 12  1  0
 28 12  1  0
M  END
>  <DRUGBANK_ID>  (1) 
DB04796

>  <COMMON_NAME>  (1) 
Inecalcitol

>  <CAS_NUMBER>  (1) 
163217-09-2

>  <UNII>  (1) 
05FZV98342

>  <SYNONYMS>  (1) 
(7E)-19-Nor-9,10-seco-14beta-cholesta-5,7-dien-23-yne-1alpha,3beta,25-triol; Inecalcitol

$$$$
