I15
     RDKit          2D

 22 24  0  0  0  0  0  0  0  0999 V2000
   -4.6370   -7.9110    0.0000 C   0  0  0  0  0  0  0  0  0  0  0  0
   -3.9225   -7.4985    0.0000 C   0  0  0  0  0  0  0  0  0  0  0  0
   -4.6370   -8.7360    0.0000 C   0  0  0  0  0  0  0  0  0  0  0  0
   -5.4216   -7.6561    0.0000 C   0  0  0  0  0  0  0  0  0  0  0  0
   -3.9225   -6.6735    0.0000 O   0  0  0  0  0  0  0  0  0  0  0  0
   -3.2081   -7.9110    0.0000 C   0  0  0  0  0  0  0  0  0  0  0  0
   -5.4216   -8.9910    0.0000 N   0  0  0  0  0  0  0  0  0  0  0  0
   -3.9225   -9.1485    0.0000 C   0  0  0  0  0  0  0  0  0  0  0  0
   -5.9065   -8.3235    0.0000 N   0  0  0  0  0  0  0  0  0  0  0  0
   -5.6766   -6.8715    0.0000 C   0  0  0  0  0  0  0  0  0  0  0  0
   -4.6370   -6.2610    0.0000 C   0  0  0  0  0  0  0  0  0  0  0  0
   -3.2081   -8.7360    0.0000 C   0  0  0  0  0  0  0  0  0  0  0  0
   -5.3515   -6.6735    0.0000 C   0  0  0  0  0  0  0  0  0  0  0  0
   -4.6370   -5.4360    0.0000 C   0  0  0  0  0  0  0  0  0  0  0  0
   -6.0659   -6.2610    0.0000 C   0  0  0  0  0  0  0  0  0  0  0  0
   -5.3515   -5.0235    0.0000 C   0  0  0  0  0  0  0  0  0  0  0  0
   -6.0659   -5.4360    0.0000 C   0  0  0  0  0  0  0  0  0  0  0  0
   -6.7804   -6.6735    0.0000 C   0  0  0  0  0  0  0  0  0  0  0  0
   -5.3515   -4.1985    0.0000 C   0  0  0  0  0  0  0  0  0  0  0  0
   -5.3515   -3.3735    0.0000 N   0  0  0  0  0  0  0  0  0  0  0  0
   -2.4936   -7.4985    0.0000 F   0  0  0  0  0  0  0  0  0  0  0  0
   -7.4949   -7.0860    0.0000 N   0  0  0  0  0  0  0  0  0  0  0  0
  1  2  2  0
  1  3  1  0
  1  4  1  0
  2  5  1  0
  2  6  1  0
  3  7  1  0
  3  8  2  0
  4  9  2  0
  4 10  1  0
  5 11  1  0
  6 12  2  0
  6 21  1  0
  7  9  1  0
  8 12  1  0
 11 13  2  0
 11 14  1  0
 13 15  1  0
 14 16  2  0
 15 17  2  0
 15 18  1  0
 16 17  1  0
 16 19  1  0
 18 22  3  0
 19 20  3  0
M  END
>  <DRUGBANK_ID>  (1) 
DB07935

>  <COMMON_NAME>  (1) 
5-[(5-fluoro-3-methyl-1H-indazol-4-yl)oxy]benzene-1,3-dicarbonitrile

$$$$
