AP9
     RDKit          2D

 28 30  0  0  0  0  0  0  0  0999 V2000
    2.1815   -2.2498    0.0000 O   0  0  0  0  0  0  0  0  0  0  0  0
    2.1815   -1.4248    0.0000 C   0  0  0  0  0  0  0  0  0  0  0  0
    1.4670   -1.0123    0.0000 C   0  0  0  0  0  0  0  0  0  0  0  0
    0.7525   -1.4248    0.0000 C   0  0  0  0  0  0  0  0  0  0  0  0
    0.0380   -1.0123    0.0000 C   0  0  0  0  0  0  0  0  0  0  0  0
    0.7525   -2.2498    0.0000 C   0  0  0  0  0  0  0  0  0  0  0  0
    1.4670   -0.1873    0.0000 N   0  0  0  0  0  0  0  0  0  0  0  0
    0.7525    0.2252    0.0000 C   0  0  0  0  0  0  0  0  0  0  0  0
    0.0380   -0.1873    0.0000 N   0  0  0  0  0  0  0  0  0  0  0  0
   -0.6764    0.2252    0.0000 C   0  0  0  0  0  0  0  0  0  0  0  0
   -0.6764    1.0502    0.0000 C   0  0  0  0  0  0  0  0  0  0  0  0
   -1.4610    1.3051    0.0000 N   0  0  0  0  0  0  0  0  0  0  0  0
   -1.9460    0.6377    0.0000 C   0  0  0  0  0  0  0  0  0  0  0  0
   -1.4610   -0.0298    0.0000 N   0  0  0  0  0  0  0  0  0  0  0  0
   -1.7160   -0.8144    0.0000 C   0  0  0  0  0  0  0  0  0  0  0  0
   -2.5230   -0.9859    0.0000 C   0  0  0  0  0  0  0  0  0  0  0  0
   -1.1640   -1.4275    0.0000 C   0  0  0  0  0  0  0  0  0  0  0  0
    0.0380    1.4627    0.0000 C   0  0  0  0  0  0  0  0  0  0  0  0
    0.7525    1.0502    0.0000 N   0  0  0  0  0  0  0  0  0  0  0  0
    0.0380    2.2877    0.0000 N   0  0  0  0  0  0  0  0  0  0  0  0
    0.7525    2.7002    0.0000 C   0  0  0  0  0  0  0  0  0  0  0  0
    0.7525    3.5252    0.0000 C   0  0  0  0  0  0  0  0  0  0  0  0
    1.4670    3.9377    0.0000 C   0  0  0  0  0  0  0  0  0  0  0  0
    1.4670    4.7627    0.0000 N   0  0  0  0  0  0  0  0  0  0  0  0
    2.1815    3.5252    0.0000 C   0  0  0  0  0  0  0  0  0  0  0  0
    2.1815    2.7002    0.0000 C   0  0  0  0  0  0  0  0  0  0  0  0
    2.8959    2.2877    0.0000 Cl  0  0  0  0  0  0  0  0  0  0  0  0
    1.4670    2.2877    0.0000 C   0  0  0  0  0  0  0  0  0  0  0  0
  1  2  1  0
  3  2  1  6
  3  4  1  0
  3  7  1  0
  4  5  1  0
  4  6  1  0
  7  8  1  0
  8  9  2  0
  8 19  1  0
  9 10  1  0
 10 11  2  0
 10 14  1  0
 11 12  1  0
 11 18  1  0
 12 13  2  0
 13 14  1  0
 14 15  1  0
 15 16  1  0
 15 17  1  0
 18 19  2  0
 18 20  1  0
 20 21  1  0
 21 22  2  0
 21 28  1  0
 22 23  1  0
 23 24  1  0
 23 25  2  0
 25 26  1  0
 26 27  1  0
 26 28  2  0
M  END
>  <DRUGBANK_ID>  (1) 
DB07379

>  <COMMON_NAME>  (1) 
(2S)-2-({6-[(3-Amino-5-chlorophenyl)amino]-9-isopropyl-9H-purin-2-yl}amino)-3-methyl-1-butanol

$$$$
