POT
     RDKit          2D

 16 16  0  0  0  0  0  0  0  0999 V2000
    0.4704   -0.3150    0.0000 P   0  0  0  0  0  0  0  0  0  0  0  0
   -0.2440    0.0975    0.0000 C   0  0  0  0  0  0  0  0  0  0  0  0
    0.0579   -1.0296    0.0000 O   0  0  0  0  0  0  0  0  0  0  0  0
    1.1850   -0.7276    0.0000 O   0  0  0  0  0  0  0  0  0  0  0  0
    1.8995   -0.3150    0.0000 C   0  0  0  0  0  0  0  0  0  0  0  0
    1.8995    0.5100    0.0000 C   0  0  0  0  0  0  0  0  0  0  0  0
    2.6140    0.9226    0.0000 C   0  0  0  0  0  0  0  0  0  0  0  0
    2.6140   -0.7276    0.0000 C   0  0  0  0  0  0  0  0  0  0  0  0
    3.3285   -0.3150    0.0000 O   0  0  0  0  0  0  0  0  0  0  0  0
    4.7577   -1.9651    0.0000 C   0  0  0  0  0  0  0  0  0  0  0  0
    5.4721   -1.5526    0.0000 C   0  0  0  0  0  0  0  0  0  0  0  0
    5.4721   -0.7276    0.0000 C   0  0  0  0  0  0  0  0  0  0  0  0
    4.7577   -0.3150    0.0000 C   0  0  0  0  0  0  0  0  0  0  0  0
    4.0431   -0.7276    0.0000 C   0  0  0  0  0  0  0  0  0  0  0  0
    4.0431   -1.5526    0.0000 C   0  0  0  0  0  0  0  0  0  0  0  0
    0.8830    0.3994    0.0000 Cl  0  0  0  0  0  0  0  0  0  0  0  0
  1  4  1  0
  1  2  1  0
  1  3  2  0
  1 16  1  0
  5  4  1  0
  5  6  1  1
  5  8  1  0
  6  7  1  0
  8  9  1  0
  9 14  1  0
 10 15  2  0
 10 11  1  0
 11 12  2  0
 12 13  1  0
 13 14  2  0
 14 15  1  0
M  END
>  <DRUGBANK_ID>  (1) 
DB08419

>  <COMMON_NAME>  (1) 
(1S)-1-(PHENOXYMETHYL)PROPYL METHYLPHOSPHONOCHLORIDOATE

$$$$
