
     RDKit          2D

 19 21  0  0  0  0  0  0  0  0999 V2000
    3.3710    0.3754    0.0000 C   0  0  0  0  0  0  0  0  0  0  0  0
    2.5552    0.2525    0.0000 N   0  0  0  0  0  0  0  0  0  0  0  0
    2.0408    0.8975    0.0000 C   0  0  0  0  0  0  0  0  0  0  0  0
    1.2365    0.7139    0.0000 N   0  0  0  0  0  0  0  0  0  0  0  0
    0.5915    1.2283    0.0000 C   0  0  0  0  0  0  0  0  0  0  0  0
    0.5915    2.0533    0.0000 C   0  0  0  0  0  0  0  0  0  0  0  0
   -0.1230    2.4658    0.0000 C   0  0  0  0  0  0  0  0  0  0  0  0
   -0.8374    2.0533    0.0000 C   0  0  0  0  0  0  0  0  0  0  0  0
   -1.5519    2.4658    0.0000 Cl  0  0  0  0  0  0  0  0  0  0  0  0
   -0.8374    1.2283    0.0000 C   0  0  0  0  0  0  0  0  0  0  0  0
   -0.1230    0.8158    0.0000 C   0  0  0  0  0  0  0  0  0  0  0  0
    1.2365    2.5677    0.0000 C   0  0  0  0  0  0  0  0  0  0  0  0
    2.0408    2.3841    0.0000 N   0  0  0  0  0  0  0  0  0  0  0  0
    2.3988    1.6408    0.0000 C   0  0  0  0  0  0  0  0  0  0  0  0
    1.0529    3.3720    0.0000 C   0  0  0  0  0  0  0  0  0  0  0  0
    0.2943    3.6962    0.0000 C   0  0  0  0  0  0  0  0  0  0  0  0
    0.3683    4.5179    0.0000 C   0  0  0  0  0  0  0  0  0  0  0  0
    1.1726    4.7015    0.0000 C   0  0  0  0  0  0  0  0  0  0  0  0
    1.5957    3.9933    0.0000 N   0  0  0  0  0  0  0  0  0  0  0  0
  1  2  1  0
  2  3  1  0
  3  4  2  0
  3 14  1  0
  4  5  1  0
  5  6  2  0
  5 11  1  0
  6  7  1  0
  6 12  1  0
  7  8  2  0
  8  9  1  0
  8 10  1  0
 10 11  2  0
 12 13  2  0
 12 15  1  0
 13 14  1  0
 15 16  2  0
 15 19  1  0
 16 17  1  0
 17 18  2  0
 18 19  1  0
M  END
>  <DRUGBANK_ID>  (1) 
DB16062

>  <COMMON_NAME>  (1) 
Ro 24-7429

>  <CAS_NUMBER>  (1) 
139339-45-0

>  <UNII>  (1) 
MLW2GKK8LI

$$$$
