
     RDKit          2D

 37 39  0  0  1  0  0  0  0  0999 V2000
    2.4084    3.7860    0.0000 C   0  0  0  0  0  0  0  0  0  0  0  0
    1.5440    2.6481    0.0000 C   0  0  0  0  0  0  0  0  0  0  0  0
    4.9324    0.9713    0.0000 C   0  0  0  0  0  0  0  0  0  0  0  0
    6.7649    4.0654    0.0000 C   0  0  0  0  0  0  0  0  0  0  0  0
    6.1080    4.5645    0.0000 C   0  0  0  0  0  0  0  0  0  0  0  0
    1.8898   -0.3063    0.0000 C   0  0  0  0  0  0  0  0  0  0  0  0
    7.4564   -1.8434    0.0000 C   0  0  0  0  0  0  0  0  0  0  0  0
    7.5602   -1.0249    0.0000 C   0  0  0  0  0  0  0  0  0  0  0  0
    6.6958   -2.1628    0.0000 C   0  0  0  0  0  0  0  0  0  0  0  0
    6.3500    0.7916    0.0000 C   0  0  0  0  0  0  0  0  0  0  0  0
    6.4538    1.6101    0.0000 C   0  0  0  0  0  0  0  0  0  0  0  0
    6.9032   -0.5259    0.0000 C   0  0  0  0  0  0  0  0  0  0  0  0
    6.0388   -1.6637    0.0000 C   0  0  0  0  0  0  0  0  0  0  0  0
    5.5894    0.4722    0.0000 C   0  0  0  0  0  0  0  0  0  0  0  0
    5.7968    2.1091    0.0000 C   0  0  0  0  0  0  0  0  0  0  0  0
    3.8260    3.6063    0.0000 C   0  0  0  0  0  0  0  0  0  0  0  0
    4.4829    3.1072    0.0000 C   0  0  0  0  0  0  0  0  0  0  0  0
    3.0653    3.2869    0.0000 C   0  0  0  0  0  0  0  0  0  0  0  0
    2.2009    2.1491    0.0000 C   0  0  0  0  0  0  0  0  0  0  0  0
    4.1718    0.6519    0.0000 C   0  0  0  0  0  0  0  0  0  0  0  0
    6.1426   -0.8453    0.0000 C   0  0  0  0  0  0  0  0  0  0  0  0
    5.4856   -0.3462    0.0000 C   0  0  0  0  0  0  0  0  0  0  0  0
    5.9005    2.9276    0.0000 C   0  0  0  0  0  0  0  0  0  0  0  0
    5.2436    3.4266    0.0000 C   0  0  0  0  0  0  0  0  0  0  0  0
    2.0972    1.3306    0.0000 C   0  0  0  0  0  0  0  0  0  0  0  0
    2.9616    2.4685    0.0000 C   0  0  0  0  0  0  0  0  0  0  0  0
    2.7542    0.8315    0.0000 C   0  0  0  0  0  0  0  0  0  0  0  0
    4.0680   -0.1666    0.0000 C   0  0  0  0  0  0  0  0  0  0  0  0
    3.5148    1.1509    0.0000 C   0  0  0  0  0  0  0  0  0  0  0  0
    1.3366    1.0112    0.0000 O   0  0  0  0  0  0  0  0  0  0  0  0
    3.3074   -0.4860    0.0000 O   0  0  0  0  0  0  0  0  0  0  0  0
    3.4111    0.3325    0.0000 O   0  0  0  0  0  0  0  0  0  0  0  0
    6.6612    3.2470    0.0000 O   0  0  0  0  0  0  0  0  0  0  0  0
    5.3473    4.2451    0.0000 O   0  0  0  0  0  0  0  0  0  0  0  0
    2.6504    0.0131    0.0000 O   0  0  0  0  0  0  0  0  0  0  0  0
    4.7250   -0.6656    0.0000 O   0  0  0  0  0  0  0  0  0  0  0  0
    3.6185    1.9694    0.0000 O   0  0  0  0  0  0  0  0  0  0  0  0
  8  7  2  0
  9  7  1  0
 11 10  1  0
 12  8  1  0
 13  9  2  0
 14 10  1  0
 15 11  1  0
 17 16  2  0
 18  1  1  1
 18 16  1  0
 19  2  1  6
 20  3  1  6
 21 12  2  0
 21 13  1  0
 22 14  1  0
 22 21  1  1
 23 15  1  0
 23 33  1  1
 24 17  1  0
 24 23  1  0
 24 34  1  1
 25 19  1  0
 25 30  1  1
 26 18  1  0
 26 19  1  0
 27 25  1  0
 27 35  1  6
 28 20  1  0
 29 20  1  0
 29 27  1  0
 29 32  1  1
 31 28  2  0
 33  4  1  0
 34  5  1  0
 35  6  1  0
 36 22  1  0
 36 28  1  0
 26 37  1  6
 37 29  1  0
M  END
>  <DRUGBANK_ID>  (1) 
DB02859

>  <SECONDARY_ACCESSION_NUMBERS>  (1) 
EXPT02829

>  <COMMON_NAME>  (1) 
Soraphen A

>  <CAS_NUMBER>  (1) 
122547-72-2

$$$$
