
     RDKit          2D

 22 22  0  0  1  0  0  0  0  0999 V2000
    1.2352    0.6294    0.0000 C   0  0  0  0  0  0  0  0  0  0  0  0
    0.5678    1.9393    0.0000 C   0  0  0  0  0  0  0  0  0  0  0  0
    0.5678    1.1143    0.0000 C   0  0  0  0  0  0  0  0  0  0  0  0
    0.9803   -0.1553    0.0000 C   0  0  0  0  0  0  0  0  0  0  0  0
   -0.0997    0.6294    0.0000 C   0  0  0  0  0  0  0  0  0  0  0  0
    0.1553   -0.1553    0.0000 C   0  0  0  0  0  0  0  0  0  0  0  0
   -0.8843    0.8843    0.0000 O   0  0  0  0  0  0  0  0  0  0  0  0
   -0.3297   -0.8227    0.0000 O   0  0  0  0  0  0  0  0  0  0  0  0
   -0.1467    4.0018    0.0000 O   0  0  0  0  0  0  0  0  0  0  0  0
   -0.9717    3.1768    0.0000 O   0  0  0  0  0  0  0  0  0  0  0  0
    0.6783    3.1768    0.0000 O   0  0  0  0  0  0  0  0  0  0  0  0
    1.7639   -3.6649    0.0000 O   0  0  0  0  0  0  0  0  0  0  0  0
    0.6115   -3.4824    0.0000 O   0  0  0  0  0  0  0  0  0  0  0  0
    1.9464   -2.5126    0.0000 O   0  0  0  0  0  0  0  0  0  0  0  0
    0.3759   -1.2408    0.0000 O   0  0  0  0  0  0  0  0  0  0  0  0
    1.8833   -1.9119    0.0000 O   0  0  0  0  0  0  0  0  0  0  0  0
   -0.1467    2.3518    0.0000 O   0  0  0  0  0  0  0  0  0  0  0  0
    1.4652   -0.8227    0.0000 O   0  0  0  0  0  0  0  0  0  0  0  0
    0.7941   -2.3300    0.0000 O   0  0  0  0  0  0  0  0  0  0  0  0
   -0.1467    3.1768    0.0000 P   0  0  0  0  0  0  0  0  0  0  0  0
    1.2790   -2.9975    0.0000 P   0  0  0  0  0  0  0  0  0  0  0  0
    1.1296   -1.5764    0.0000 P   0  0  0  0  0  0  0  0  0  0  0  0
  3  1  1  0
  3  2  1  1
  4  1  1  0
  4 18  1  6
  5  3  1  0
  5  7  1  6
  6  4  1  0
  6  5  1  0
  6  8  1  6
 17  2  1  0
 20  9  1  0
 20 10  1  0
 20 11  2  0
 20 17  1  0
 21 12  1  0
 21 13  1  0
 21 14  2  0
 21 19  1  0
 22 15  1  0
 22 16  2  0
 22 18  1  0
 22 19  1  0
M  END
>  <DRUGBANK_ID>  (1) 
DB03942

>  <SECONDARY_ACCESSION_NUMBERS>  (1) 
EXPT02523

>  <COMMON_NAME>  (1) 
Carboxylic PRPP

>  <SYNONYMS>  (1) 
CPRPP

$$$$
