42647297
     RDKit          2D

 33 37  0  0  0  0  0  0  0  0999 V2000
    9.8717    0.7539    0.0000 F   0  0  0  0  0  0  0  0  0  0  0  0
    9.2823    3.5504    0.0000 F   0  0  0  0  0  0  0  0  0  0  0  0
    3.9040   -1.0753    0.0000 O   0  0  0  0  0  0  0  0  0  0  0  0
    5.3330    0.5747    0.0000 O   0  0  0  0  0  0  0  0  0  0  0  0
    3.1895   -2.3129    0.0000 N   0  0  0  0  0  0  0  0  0  0  0  0
    6.7620   -1.9003    0.0000 N   0  0  0  0  0  0  0  0  0  0  0  0
    6.7620    0.5747    0.0000 N   0  0  0  0  0  0  0  0  0  0  0  0
    8.2571    0.4136    0.0000 N   0  0  0  0  0  0  0  0  0  0  0  0
    8.7386   -0.2503    0.0000 N   0  0  0  0  0  0  0  0  0  0  0  0
    2.4751   -1.9003    0.0000 C   0  0  0  0  0  0  0  0  0  0  0  0
    2.0625   -1.1859    0.0000 C   0  0  0  0  0  0  0  0  0  0  0  0
    1.6500   -1.9003    0.0000 C   0  0  0  0  0  0  0  0  0  0  0  0
    3.9040   -1.9003    0.0000 C   0  0  0  0  0  0  0  0  0  0  0  0
    4.6185   -2.3129    0.0000 C   0  0  0  0  0  0  0  0  0  0  0  0
    5.3330   -1.9003    0.0000 C   0  0  0  0  0  0  0  0  0  0  0  0
    6.0475   -2.3129    0.0000 C   0  0  0  0  0  0  0  0  0  0  0  0
    7.4765    0.1622    0.0000 C   0  0  0  0  0  0  0  0  0  0  0  0
    7.4765   -0.6628    0.0000 C   0  0  0  0  0  0  0  0  0  0  0  0
    4.6185   -3.1379    0.0000 C   0  0  0  0  0  0  0  0  0  0  0  0
    6.7620   -1.0753    0.0000 C   0  0  0  0  0  0  0  0  0  0  0  0
    6.0475   -3.1379    0.0000 C   0  0  0  0  0  0  0  0  0  0  0  0
    5.3330   -3.5504    0.0000 C   0  0  0  0  0  0  0  0  0  0  0  0
    6.0475   -0.6628    0.0000 C   0  0  0  0  0  0  0  0  0  0  0  0
    6.0475    0.1622    0.0000 C   0  0  0  0  0  0  0  0  0  0  0  0
    8.2571   -0.9142    0.0000 C   0  0  0  0  0  0  0  0  0  0  0  0
    8.5134    1.1978    0.0000 C   0  0  0  0  0  0  0  0  0  0  0  0
    6.7620    1.3997    0.0000 C   0  0  0  0  0  0  0  0  0  0  0  0
    6.7620   -3.5504    0.0000 C   0  0  0  0  0  0  0  0  0  0  0  0
    9.3207    1.3680    0.0000 C   0  0  0  0  0  0  0  0  0  0  0  0
    7.9624    1.8119    0.0000 C   0  0  0  0  0  0  0  0  0  0  0  0
    9.5770    2.1521    0.0000 C   0  0  0  0  0  0  0  0  0  0  0  0
    8.2187    2.5961    0.0000 C   0  0  0  0  0  0  0  0  0  0  0  0
    9.0260    2.7662    0.0000 C   0  0  0  0  0  0  0  0  0  0  0  0
  1 29  1  0
  2 33  1  0
  3 13  2  0
  4 24  2  0
  5 10  1  0
  5 13  1  0
  6 16  1  0
  6 20  1  0
  7 17  1  0
  7 24  1  0
  7 27  1  0
  8  9  1  0
  8 17  1  0
  8 26  1  0
  9 25  2  0
 10 11  1  0
 10 12  1  0
 11 12  1  0
 13 14  1  0
 14 15  2  0
 14 19  1  0
 15 16  1  0
 16 21  2  0
 17 18  2  0
 18 20  1  0
 18 25  1  0
 19 22  2  0
 20 23  2  0
 21 22  1  0
 21 28  1  0
 23 24  1  0
 26 29  2  0
 26 30  1  0
 29 31  1  0
 30 32  2  0
 31 33  2  0
 32 33  1  0
M  END
>  <DRUGBANK_ID>  (1) 
DB08349

>  <COMMON_NAME>  (1) 
N-cyclopropyl-3-{[1-(2,4-difluorophenyl)-7-methyl-6-oxo-6,7-dihydro-1H-pyrazolo[3,4-b]pyridin-4-yl]amino}-4-methylbenzamide

$$$$
