
     RDKit          2D

 23 26  0  0  1  0  0  0  0  0999 V2000
    8.2260    1.4493    0.0000 C   0  0  0  0  0  0  0  0  0  0  0  0
    7.5115    1.0368    0.0000 C   0  0  0  0  0  0  0  0  0  0  0  0
    7.5115    0.2118    0.0000 C   0  0  0  0  0  0  0  0  0  0  0  0
    6.7970   -0.2007    0.0000 C   0  0  0  0  0  0  0  0  0  0  0  0
    6.0826    0.2118    0.0000 C   0  0  0  0  0  0  0  0  0  0  0  0
    6.0826    1.0368    0.0000 C   0  0  0  0  0  0  0  0  0  0  0  0
    6.7970    1.4493    0.0000 C   0  0  0  0  0  0  0  0  0  0  0  0
    5.3681    1.4493    0.0000 N   0  0  0  0  0  0  0  0  0  0  0  0
    5.3681    2.2743    0.0000 C   0  0  0  0  0  0  0  0  0  0  0  0
    4.6536    1.0368    0.0000 C   0  0  0  0  0  0  0  0  0  0  0  0
    4.6536    0.2118    0.0000 S   0  0  0  0  0  0  0  0  0  0  0  0
    3.9392    1.4493    0.0000 O   0  0  0  0  0  0  0  0  0  0  0  0
    3.2247    1.0368    0.0000 C   0  0  0  0  0  0  0  0  0  0  0  0
    3.2247    0.2118    0.0000 C   0  0  0  0  0  0  0  0  0  0  0  0
    2.5102   -0.2007    0.0000 C   0  0  0  0  0  0  0  0  0  0  0  0
    1.7957    0.2118    0.0000 C   0  0  0  0  0  0  0  0  0  0  0  0
    1.7957    1.0368    0.0000 C   0  0  0  0  0  0  0  0  0  0  0  0
    2.5102    1.4493    0.0000 C   0  0  0  0  0  0  0  0  0  0  0  0
    1.0813    1.4493    0.0000 C   0  0  0  0  0  0  0  0  0  0  0  0
    0.3668    1.0368    0.0000 C   0  0  0  0  0  0  0  0  0  0  0  0
    0.3668    0.2118    0.0000 C   0  0  0  0  0  0  0  0  0  0  0  0
    1.0813   -0.2007    0.0000 C   0  0  0  0  0  0  0  0  0  0  0  0
    1.2875    0.6243    0.0000 C   0  0  0  0  0  0  0  0  0  0  0  0
  1  2  1  0
  2  3  2  0
  2  7  1  0
  3  4  1  0
  4  5  2  0
  5  6  1  0
  6  7  2  0
  6  8  1  0
  8  9  1  0
  8 10  1  0
 10 11  2  0
 10 12  1  0
 12 13  1  0
 13 14  2  0
 13 18  1  0
 14 15  1  0
 15 16  2  0
 16 17  1  0
 16 22  1  0
 17 18  2  0
 17 19  1  0
 19 20  1  1
 19 23  1  0
 20 21  1  0
 22 21  1  1
 22 23  1  0
M  END
>  <DRUGBANK_ID>  (1) 
DB13360

>  <COMMON_NAME>  (1) 
Tolciclate

>  <CAS_NUMBER>  (1) 
50838-36-3

>  <UNII>  (1) 
T3TZ02X2AZ

>  <SYNONYMS>  (1) 
Tolciclate

$$$$
