
     RDKit          2D

 12 11  0  0  0  0  0  0  0  0999 V2000
   -1.7861   -1.0313    0.0000 C   0  0  0  0  0  0  0  0  0  0  0  0
   -1.0717   -0.6187    0.0000 C   0  0  0  0  0  0  0  0  0  0  0  0
   -0.3572   -1.0313    0.0000 N   0  0  0  0  0  0  0  0  0  0  0  0
    0.3571   -0.6187    0.0000 C   0  0  0  0  0  0  0  0  0  0  0  0
    1.0717   -1.0313    0.0000 C   0  0  0  0  0  0  0  0  0  0  0  0
    1.7861   -0.6187    0.0000 O   0  0  0  0  0  0  0  0  0  0  0  0
    1.0717   -1.8562    0.0000 O   0  0  0  0  0  0  0  0  0  0  0  0
    0.3571    0.2062    0.0000 C   0  0  0  0  0  0  0  0  0  0  0  0
    1.0717    0.6186    0.0000 C   0  0  0  0  0  0  0  0  0  0  0  0
    1.0717    1.4437    0.0000 S   0  0  0  0  0  0  0  0  0  0  0  0
    1.7861    1.8562    0.0000 C   0  0  0  0  0  0  0  0  0  0  0  0
   -1.0717    0.2062    0.0000 O   0  0  0  0  0  0  0  0  0  0  0  0
  1  2  1  0
  2  3  1  0
  2 12  2  0
  3  4  1  0
  4  5  1  0
  4  8  1  1
  5  6  1  0
  5  7  2  0
  8  9  1  0
  9 10  1  0
 10 11  1  0
M  END
>  <DRUGBANK_ID>  (1) 
DB01646

>  <SECONDARY_ACCESSION_NUMBERS>  (1) 
EXPT00506

>  <COMMON_NAME>  (1) 
N-Acetylmethionine

>  <CAS_NUMBER>  (1) 
65-82-7

>  <UNII>  (1) 
9J12WX5B6A

>  <SYNONYMS>  (1) 
(2S)-2-acetamido-4-(methylsulfanyl)butanoic acid; Acetyl-L-methionine; Acetylmethionine; AcMet; L-(N-Acetyl)methionine; Methionamine; Methionin; N-Ac-Met; N-acetyl-L-methionine; NÎ±-acetyl-L-methionine; Thiomedon

$$$$
