LT5
     RDKit          2D

 14 14  0  0  0  0  0  0  0  0999 V2000
    3.1234    0.6322    0.0000 F   0  0  0  0  0  0  0  0  0  0  0  0
    2.4090    0.2197    0.0000 C   0  0  0  0  0  0  0  0  0  0  0  0
    1.9965    0.9341    0.0000 F   0  0  0  0  0  0  0  0  0  0  0  0
    2.8215   -0.4948    0.0000 F   0  0  0  0  0  0  0  0  0  0  0  0
    1.6945   -0.1928    0.0000 C   0  0  0  0  0  0  0  0  0  0  0  0
    0.9800    0.2197    0.0000 C   0  0  0  0  0  0  0  0  0  0  0  0
    1.6945   -1.0178    0.0000 C   0  0  0  0  0  0  0  0  0  0  0  0
    0.9800   -1.4303    0.0000 C   0  0  0  0  0  0  0  0  0  0  0  0
    0.2656   -1.0178    0.0000 C   0  0  0  0  0  0  0  0  0  0  0  0
    0.2656   -0.1928    0.0000 C   0  0  0  0  0  0  0  0  0  0  0  0
   -0.4489    0.2197    0.0000 C   0  0  0  0  0  0  0  0  0  0  0  0
   -1.1634   -0.1928    0.0000 O   0  0  0  0  0  0  0  0  0  0  0  0
   -0.4489    1.0447    0.0000 C   0  0  0  0  0  0  0  0  0  0  0  0
   -1.1634    1.4572    0.0000 N   0  0  0  0  0  0  0  0  0  0  0  0
  1  2  1  0
  2  3  1  0
  4  2  1  0
  5  2  1  0
  5  7  2  0
  6  5  1  0
  8  7  1  0
  9  8  2  0
 10  6  2  0
 10  9  1  0
 11 10  1  0
 11 12  1  1
 13 11  1  0
 14 13  1  0
M  END
>  <DRUGBANK_ID>  (1) 
DB08129

>  <COMMON_NAME>  (1) 
(1R)-2-amino-1-[3-(trifluoromethyl)phenyl]ethanol

$$$$
