AN1
     RDKit          2D

 20 22  0  0  0  0  0  0  0  0999 V2000
   -1.2578   -2.8653    0.0000 O   0  0  0  0  0  0  0  0  0  0  0  0
   -0.5434   -2.4528    0.0000 C   0  0  0  0  0  0  0  0  0  0  0  0
    0.1711   -2.8653    0.0000 O   0  0  0  0  0  0  0  0  0  0  0  0
   -0.5434   -1.6278    0.0000 C   0  0  0  0  0  0  0  0  0  0  0  0
    0.1711   -1.2153    0.0000 C   0  0  0  0  0  0  0  0  0  0  0  0
    0.1711   -0.3903    0.0000 C   0  0  0  0  0  0  0  0  0  0  0  0
    0.8856    0.0222    0.0000 C   0  0  0  0  0  0  0  0  0  0  0  0
    1.6000   -0.3903    0.0000 C   0  0  0  0  0  0  0  0  0  0  0  0
    2.3145    0.0222    0.0000 C   0  0  0  0  0  0  0  0  0  0  0  0
    2.3145    0.8472    0.0000 C   0  0  0  0  0  0  0  0  0  0  0  0
    1.6000    1.2597    0.0000 C   0  0  0  0  0  0  0  0  0  0  0  0
    0.8856    0.8472    0.0000 C   0  0  0  0  0  0  0  0  0  0  0  0
    0.1711    1.2597    0.0000 C   0  0  0  0  0  0  0  0  0  0  0  0
   -0.5434    0.8472    0.0000 C   0  0  0  0  0  0  0  0  0  0  0  0
   -0.5434    0.0222    0.0000 C   0  0  0  0  0  0  0  0  0  0  0  0
   -1.2578   -0.3903    0.0000 C   0  0  0  0  0  0  0  0  0  0  0  0
   -1.9723    0.0222    0.0000 C   0  0  0  0  0  0  0  0  0  0  0  0
   -1.9723    0.8472    0.0000 C   0  0  0  0  0  0  0  0  0  0  0  0
   -1.2578    1.2597    0.0000 C   0  0  0  0  0  0  0  0  0  0  0  0
    0.1711    2.0847    0.0000 C   0  0  0  0  0  0  0  0  0  0  0  0
  1  2  1  0
  2  3  2  0
  2  4  1  0
  4  5  1  0
  5  6  1  0
  6  7  2  0
  6 15  1  0
  7  8  1  0
  7 12  1  0
  8  9  2  0
  9 10  1  0
 10 11  2  0
 11 12  1  0
 12 13  2  0
 13 14  1  0
 13 20  1  0
 14 15  2  0
 14 19  1  0
 15 16  1  0
 16 17  2  0
 17 18  1  0
 18 19  2  0
M  END
>  <DRUGBANK_ID>  (1) 
DB07371

>  <COMMON_NAME>  (1) 
3-(10-methyl-9-anthryl)propanoic acid

>  <SYNONYMS>  (1) 
3-(10-methyl-9-anthryl)propionic acid; 3-(10-METHYL-ANTHRACEN-9-YL)-PROPIONIC ACID

$$$$
