
     RDKit          2D

 29 33  0  0  0  0  0  0  0  0999 V2000
    4.4144    2.2563    0.0000 C   0  0  0  0  0  0  0  0  0  0  0  0
    4.4144    3.0813    0.0000 C   0  0  0  0  0  0  0  0  0  0  0  0
    3.6999    1.8438    0.0000 C   0  0  0  0  0  0  0  0  0  0  0  0
    3.6999    3.4938    0.0000 C   0  0  0  0  0  0  0  0  0  0  0  0
   -2.5988   -1.2101    0.0000 C   0  0  0  0  0  0  0  0  0  0  0  0
   -3.4057   -1.3816    0.0000 C   0  0  0  0  0  0  0  0  0  0  0  0
   -2.3017   -2.6078    0.0000 C   0  0  0  0  0  0  0  0  0  0  0  0
    1.9459    1.2167    0.0000 C   0  0  0  0  0  0  0  0  0  0  0  0
   -0.9848   -0.8670    0.0000 C   0  0  0  0  0  0  0  0  0  0  0  0
   -0.6877   -2.2647    0.0000 C   0  0  0  0  0  0  0  0  0  0  0  0
    1.7159    2.6688    0.0000 C   0  0  0  0  0  0  0  0  0  0  0  0
   -3.5212   -3.4938    0.0000 C   0  0  0  0  0  0  0  0  0  0  0  0
    0.3741   -1.3086    0.0000 C   0  0  0  0  0  0  0  0  0  0  0  0
    0.8839    0.2606    0.0000 C   0  0  0  0  0  0  0  0  0  0  0  0
   -2.0467   -1.8232    0.0000 C   0  0  0  0  0  0  0  0  0  0  0  0
   -1.2398   -1.6516    0.0000 C   0  0  0  0  0  0  0  0  0  0  0  0
    2.2008    2.0013    0.0000 C   0  0  0  0  0  0  0  0  0  0  0  0
   -3.1087   -2.7793    0.0000 C   0  0  0  0  0  0  0  0  0  0  0  0
    1.1389    1.0452    0.0000 C   0  0  0  0  0  0  0  0  0  0  0  0
   -0.1779   -0.6955    0.0000 C   0  0  0  0  0  0  0  0  0  0  0  0
    2.9854    2.2563    0.0000 C   0  0  0  0  0  0  0  0  0  0  0  0
   -3.6607   -2.1662    0.0000 C   0  0  0  0  0  0  0  0  0  0  0  0
    2.9854    3.0813    0.0000 C   0  0  0  0  0  0  0  0  0  0  0  0
    0.5869    1.6583    0.0000 N   0  0  0  0  0  0  0  0  0  0  0  0
    0.1191   -2.0932    0.0000 N   0  0  0  0  0  0  0  0  0  0  0  0
    2.2008    3.3362    0.0000 N   0  0  0  0  0  0  0  0  0  0  0  0
   -4.3281   -3.3222    0.0000 N   0  0  0  0  0  0  0  0  0  0  0  0
   -4.4144   -2.5018    0.0000 N   0  0  0  0  0  0  0  0  0  0  0  0
    0.0770    0.0890    0.0000 O   0  0  0  0  0  0  0  0  0  0  0  0
  2  1  1  0
  3  1  2  0
  4  2  2  0
  6  5  2  0
 15  5  1  0
 15  7  2  0
 16  9  2  0
 16 10  1  0
 16 15  1  0
 17  8  1  0
 17 11  1  0
 18  7  1  0
 18 12  2  0
 19  8  1  0
 19 14  1  0
 19 24  1  1
 20  9  1  0
 20 13  2  0
 21  3  1  0
 21 17  2  0
 22  6  1  0
 22 18  1  0
 23  4  1  0
 23 21  1  0
 25 10  2  0
 25 13  1  0
 26 11  2  0
 26 23  1  0
 27 12  1  0
 28 22  2  0
 28 27  1  0
 29 14  1  0
 29 20  1  0
M  END
>  <DRUGBANK_ID>  (1) 
DB06977

>  <COMMON_NAME>  (1) 
(2S)-1-{[5-(1H-Indazol-5-yl)-3-pyridinyl]oxy}-3-(7aH-indol-3-yl)-2-propanamine

$$$$
