
     RDKit          2D

 21 18  0  0  0  0  0  0  0  0999 V2000
   -2.7225   -2.2232    0.0000 Mg  0  0  0  0  0 15  0  0  0  0  0  0
    2.2544    1.0693    0.0000 C   0  0  0  0  0  0  0  0  0  0  0  0
    3.0797    1.0693    0.0000 O   0  0  0  0  0  0  0  0  0  0  0  0
    1.8395    1.7868    0.0000 O   0  0  0  0  0  0  0  0  0  0  0  0
    1.8395    0.3564    0.0000 C   0  0  0  0  0  0  0  0  0  0  0  0
    1.0142    0.3564    0.0000 C   0  0  0  0  0  0  0  0  0  0  0  0
    0.6036   -0.3563    0.0000 C   0  0  0  0  0  0  0  0  0  0  0  0
    1.0142   -1.0739    0.0000 O   0  0  0  0  0  0  0  0  0  0  0  0
   -0.2216   -0.3563    0.0000 O   0  0  0  0  0  0  0  0  0  0  0  0
   -0.6365   -1.0739    0.0000 C   0  0  0  0  0  0  0  0  0  0  0  0
   -0.2216   -1.7868    0.0000 C   0  0  0  0  0  0  0  0  0  0  0  0
    3.5048   -1.8110    0.0000 C   0  0  0  0  0  0  0  0  0  0  0  0
    4.3301   -1.8110    0.0000 O   0  0  0  0  0  0  0  0  0  0  0  0
    3.0899   -1.0935    0.0000 O   0  0  0  0  0  0  0  0  0  0  0  0
    3.0899   -2.5240    0.0000 C   0  0  0  0  0  0  0  0  0  0  0  0
    2.2646   -2.5240    0.0000 C   0  0  0  0  0  0  0  0  0  0  0  0
    1.8541   -3.2367    0.0000 C   0  0  0  0  0  0  0  0  0  0  0  0
    2.2646   -3.9543    0.0000 O   0  0  0  0  0  0  0  0  0  0  0  0
    1.0288   -3.2367    0.0000 O   0  0  0  0  0  0  0  0  0  0  0  0
    0.6138   -3.9543    0.0000 C   0  0  0  0  0  0  0  0  0  0  0  0
    1.0288   -4.6674    0.0000 C   0  0  0  0  0  0  0  0  0  0  0  0
  2  3  2  0
  2  4  1  0
  2  5  1  0
  5  6  2  0
  6  7  1  0
  7  8  2  0
  7  9  1  0
  9 10  1  0
 10 11  1  0
 12 13  2  0
 12 14  1  0
 12 15  1  0
 15 16  2  0
 16 17  1  0
 17 18  2  0
 17 19  1  0
 19 20  1  0
 20 21  1  0
M  CHG  3   1   2   4  -1  14  -1
M  END
>  <DRUGBANK_ID>  (1) 
DB15817

>  <COMMON_NAME>  (1) 
Magnesium monoethylfumarate

>  <CAS_NUMBER>  (1) 
83918-60-9

>  <UNII>  (1) 
D5767608S8

>  <SYNONYMS>  (1) 
Magnesium diethyl difumarate; Magnesium monoethyl fumarate

$$$$
