
     RDKit          2D

 25 30  0  0  1  0  0  0  0  0999 V2000
    1.8588    2.8445    0.0000 O   0  0  0  0  0  0  0  0  0  0  0  0
    1.5421    2.0843    0.0000 C   0  0  0  0  0  0  0  0  0  0  0  0
    2.0613    1.4295    0.0000 C   0  0  0  0  0  0  0  0  0  0  0  0
    1.7504    0.6654    0.0000 C   0  0  0  0  0  0  0  0  0  0  0  0
    0.9273    0.5792    0.0000 C   0  0  0  0  0  0  0  0  0  0  0  0
    0.6287   -0.1680    0.0000 C   0  0  0  0  0  0  0  0  0  0  0  0
   -0.1878   -0.1784    0.0000 C   0  0  0  0  0  0  0  0  0  0  0  0
   -0.7306   -0.7655    0.0000 N   0  0  0  0  0  0  0  0  0  0  0  0
   -0.5933   -1.5773    0.0000 C   0  0  0  0  0  0  0  0  0  0  0  0
   -1.2277   -2.1023    0.0000 C   0  0  0  0  0  0  0  0  0  0  0  0
   -1.5147   -2.8741    0.0000 C   0  0  0  0  0  0  0  0  0  0  0  0
   -2.0396   -2.2397    0.0000 C   0  0  0  0  0  0  0  0  0  0  0  0
   -1.4506   -0.3821    0.0000 C   0  0  0  0  0  0  0  0  0  0  0  0
   -1.3082    0.5035    0.0000 C   0  0  0  0  0  0  0  0  0  0  0  0
   -0.4648    1.1011    0.0000 C   0  0  0  0  0  0  0  0  0  0  0  0
   -0.6792    1.9311    0.0000 C   0  0  0  0  0  0  0  0  0  0  0  0
   -0.0150    2.4329    0.0000 O   0  0  0  0  0  0  0  0  0  0  0  0
    0.6953    1.9902    0.0000 C   0  0  0  0  0  0  0  0  0  0  0  0
    0.4052    1.2240    0.0000 C   0  0  0  0  0  0  0  0  0  0  0  0
   -1.5035    2.0911    0.0000 C   0  0  0  0  0  0  0  0  0  0  0  0
   -1.7584    2.8741    0.0000 C   0  0  0  0  0  0  0  0  0  0  0  0
   -2.0613    1.4917    0.0000 C   0  0  0  0  0  0  0  0  0  0  0  0
   -1.7493    0.7522    0.0000 C   0  0  0  0  0  0  0  0  0  0  0  0
   -0.7773    0.6055    0.0000 C   0  0  0  0  0  0  0  0  0  0  0  0
   -1.1993   -0.1016    0.0000 O   0  0  0  0  0  0  0  0  0  0  0  0
  1  2  1  0
  2  3  2  0
  2 18  1  0
  3  4  1  0
  4  5  2  0
  5  6  1  0
  5 19  1  0
  7  6  1  1
  7  8  1  0
  8  9  1  0
  8 13  1  0
  9 10  1  0
 10 11  1  0
 10 12  1  0
 11 12  1  0
 13 14  1  0
 15 14  1  1
 15 16  1  0
 15 19  1  0
 15 24  1  0
 16 17  1  6
 16 20  1  0
 17 18  1  0
 18 19  2  0
 20 21  2  0
 20 22  1  0
 22 23  1  0
 24 23  1  0
 24  7  1  0
 24 25  1  1
M  END
>  <DRUGBANK_ID>  (1) 
DB06230

>  <COMMON_NAME>  (1) 
Nalmefene

>  <CAS_NUMBER>  (1) 
55096-26-9

>  <UNII>  (1) 
TOV02TDP9I

>  <SYNONYMS>  (1) 
Nalmefene; Nalmefeno

$$$$
