
     RDKit          2D

 15 16  0  0  0  0  0  0  0  0999 V2000
    0.5617   -0.7312    0.0000 N   0  0  0  0  0  0  0  0  0  0  0  0
    0.2261   -1.4849    0.0000 C   0  0  0  0  0  0  0  0  0  0  0  0
    0.7110   -2.1523    0.0000 N   0  0  0  0  0  0  0  0  0  0  0  0
    0.0767   -0.0638    0.0000 C   0  0  0  0  0  0  0  0  0  0  0  0
    1.3821   -0.6450    0.0000 C   0  0  0  0  0  0  0  0  0  0  0  0
    0.3317    0.7207    0.0000 O   0  0  0  0  0  0  0  0  0  0  0  0
    1.8671   -1.3124    0.0000 C   0  0  0  0  0  0  0  0  0  0  0  0
    1.5315   -2.0661    0.0000 C   0  0  0  0  0  0  0  0  0  0  0  0
   -1.0031    0.7207    0.0000 O   0  0  0  0  0  0  0  0  0  0  0  0
   -0.3357    1.2056    0.0000 C   0  0  0  0  0  0  0  0  0  0  0  0
   -0.5943   -1.5711    0.0000 O   0  0  0  0  0  0  0  0  0  0  0  0
   -0.7482   -0.0638    0.0000 C   0  0  0  0  0  0  0  0  0  0  0  0
    2.0164   -2.7336    0.0000 N   0  0  0  0  0  0  0  0  0  0  0  0
   -1.0501    2.4431    0.0000 O   0  0  0  0  0  0  0  0  0  0  0  0
   -0.3357    2.0306    0.0000 C   0  0  0  0  0  0  0  0  0  0  0  0
  2  1  1  0
  3  2  1  0
  4  1  1  6
  5  1  1  0
  6  4  1  0
  7  5  2  0
  8  7  1  0
  8  3  2  0
  9 12  1  0
 10  6  1  0
 10 15  1  6
 10  9  1  0
 11  2  2  0
 12  4  1  0
 13  8  1  0
 14 15  1  0
M  END
>  <DRUGBANK_ID>  (1) 
DB04961

>  <COMMON_NAME>  (1) 
Troxacitabine

>  <CAS_NUMBER>  (1) 
145918-75-8

>  <UNII>  (1) 
60KQZ0388Y

>  <SYNONYMS>  (1) 
(-)-ODDC; Troxacitabina; Troxacitabine; Troxacitabinum

$$$$
