
     RDKit          2D

 36 38  0  0  1  0  0  0  0  0999 V2000
   11.0660   -0.6430    0.0000 C   0  0  0  0  0  0  0  0  0  0  0  0
   10.5743    0.0194    0.0000 C   0  0  0  0  0  0  0  0  0  0  0  0
   10.9021    0.7765    0.0000 C   0  0  0  0  0  0  0  0  0  0  0  0
    9.7547   -0.0752    0.0000 C   0  0  0  0  0  0  0  0  0  0  0  0
    9.4269   -0.8323    0.0000 C   0  0  0  0  0  0  0  0  0  0  0  0
   10.2464   -0.7376    0.0000 N   0  0  0  0  0  0  0  0  0  0  0  0
   10.7382   -1.4001    0.0000 C   0  0  0  0  0  0  0  0  0  0  0  0
   11.5577   -1.3054    0.0000 O   0  0  0  0  0  0  0  0  0  0  0  0
   10.4104   -2.1571    0.0000 C   0  0  0  0  0  0  0  0  0  0  0  0
   10.9021   -2.8196    0.0000 C   0  0  0  0  0  0  0  0  0  0  0  0
    9.5908   -2.2518    0.0000 N   0  0  0  0  0  0  0  0  0  0  0  0
    9.0991   -1.5893    0.0000 C   0  0  0  0  0  0  0  0  0  0  0  0
    9.2630   -3.0088    0.0000 C   0  0  0  0  0  0  0  0  0  0  0  0
    9.7547   -3.6713    0.0000 O   0  0  0  0  0  0  0  0  0  0  0  0
    8.4434   -3.1035    0.0000 C   0  0  0  0  0  0  0  0  0  0  0  0
    8.1156   -3.8605    0.0000 N   0  0  0  0  0  0  0  0  0  0  0  0
    7.2960   -3.9552    0.0000 C   0  0  0  0  0  0  0  0  0  0  0  0
    6.8043   -3.2927    0.0000 C   0  0  0  0  0  0  0  0  0  0  0  0
    6.4765   -4.0498    0.0000 C   0  0  0  0  0  0  0  0  0  0  0  0
    5.9848   -3.3874    0.0000 O   0  0  0  0  0  0  0  0  0  0  0  0
    5.4930   -2.7249    0.0000 C   0  0  0  0  0  0  0  0  0  0  0  0
    5.8209   -1.9679    0.0000 C   0  0  0  0  0  0  0  0  0  0  0  0
    6.6404   -1.8732    0.0000 C   0  0  0  0  0  0  0  0  0  0  0  0
    6.9682   -1.1162    0.0000 C   0  0  0  0  0  0  0  0  0  0  0  0
    7.7878   -1.0215    0.0000 C   0  0  0  0  0  0  0  0  0  0  0  0
    8.2795   -1.6840    0.0000 C   0  0  0  0  0  0  0  0  0  0  0  0
    8.1156   -0.2645    0.0000 N   0  0  0  0  0  0  0  0  0  0  0  0
    8.9352   -0.1698    0.0000 C   0  0  0  0  0  0  0  0  0  0  0  0
    9.2630    0.5873    0.0000 O   0  0  0  0  0  0  0  0  0  0  0  0
    5.3291   -1.3054    0.0000 C   0  0  0  0  0  0  0  0  0  0  0  0
    4.5096   -1.4001    0.0000 C   0  0  0  0  0  0  0  0  0  0  0  0
    4.1817   -2.1571    0.0000 C   0  0  0  0  0  0  0  0  0  0  0  0
    4.6735   -2.8196    0.0000 C   0  0  0  0  0  0  0  0  0  0  0  0
    8.9352   -3.7659    0.0000 C   0  0  0  0  0  0  0  0  0  0  0  0
    9.6922   -4.0937    0.0000 C   0  0  0  0  0  0  0  0  0  0  0  0
    9.0298   -4.5855    0.0000 C   0  0  0  0  0  0  0  0  0  0  0  0
  1  2  1  0
  2  3  1  0
  2  4  1  0
  5  4  1  0
  5  6  1  0
  5 28  1  0
  6  7  1  0
  7  8  2  0
  9  7  1  0
  9 10  1  1
  9 11  1  0
 11 12  1  0
 11 13  1  0
 13 14  2  0
 15 13  1  0
 15 16  1  0
 15 34  1  0
 16 17  1  0
 18 17  1  0
 18 19  1  0
 18 20  1  0
 20 21  1  0
 21 22  2  0
 21 33  1  0
 22 23  1  0
 22 30  1  0
 23 24  1  0
 25 24  1  0
 25 26  1  1
 25 27  1  0
 27 28  1  0
 28 29  2  0
 30 31  2  0
 31 32  1  0
 32 33  2  0
 34 35  1  0
 34 36  1  0
 35 36  1  0
M  END
>  <DRUGBANK_ID>  (1) 
DB16129

>  <COMMON_NAME>  (1) 
TZP-102

>  <CAS_NUMBER>  (1) 
1008993-65-4

>  <UNII>  (1) 
9NFY3MS3SL

$$$$
