
     RDKit          2D

  9  9  0  0  0  0  0  0  0  0999 V2000
    0.7103   -0.8066    0.0000 C   0  0  0  0  0  0  0  0  0  0  0  0
    0.7103    0.0197    0.0000 C   0  0  0  0  0  0  0  0  0  0  0  0
    0.0125   -1.2229    0.0000 N   0  0  0  0  0  0  0  0  0  0  0  0
    1.4247   -1.2319    0.0000 C   0  0  0  0  0  0  0  0  0  0  0  0
    0.0125    0.4202    0.0000 C   0  0  0  0  0  0  0  0  0  0  0  0
   -0.6982   -0.8066    0.0000 C   0  0  0  0  0  0  0  0  0  0  0  0
   -0.6928    0.0067    0.0000 N   0  0  0  0  0  0  0  0  0  0  0  0
    0.0125    1.2319    0.0000 O   0  0  0  0  0  0  0  0  0  0  0  0
   -1.4247   -1.2229    0.0000 S   0  0  0  0  0  0  0  0  0  0  0  0
  1  2  2  0
  1  3  1  0
  1  4  1  0
  2  5  1  0
  3  6  1  0
  5  7  1  0
  5  8  2  0
  6  9  2  0
  6  7  1  0
M  END
>  <DRUGBANK_ID>  (1) 
DB13644

>  <COMMON_NAME>  (1) 
Methylthiouracil

>  <CAS_NUMBER>  (1) 
56-04-2

>  <UNII>  (1) 
QW24888U5F

>  <SYNONYMS>  (1) 
Methylthiouracil; Methylthiouracile; Methylthiouracilum; Metiltiouracilo

$$$$
