
     RDKit          2D

 23 24  0  0  0  0  0  0  0  0999 V2000
   -1.0407    1.3016    0.0000 S   0  0  0  0  0  0  0  0  0  0  0  0
   -0.5510    0.6330    0.0000 C   0  0  0  0  0  0  0  0  0  0  0  0
   -1.0345   -0.0378    0.0000 C   0  0  0  0  0  0  0  0  0  0  0  0
   -1.0365   -0.8627    0.0000 C   0  0  0  0  0  0  0  0  0  0  0  0
   -0.3283   -1.2769    0.0000 O   0  0  0  0  0  0  0  0  0  0  0  0
    0.3864   -0.8567    0.0000 C   0  0  0  0  0  0  0  0  0  0  0  0
    1.0991   -1.2756    0.0000 O   0  0  0  0  0  0  0  0  0  0  0  0
    1.8138   -0.8602    0.0000 C   0  0  0  0  0  0  0  0  0  0  0  0
    2.5220   -1.2789    0.0000 C   0  0  0  0  0  0  0  0  0  0  0  0
    3.2348   -1.6933    0.0000 C   0  0  0  0  0  0  0  0  0  0  0  0
    3.2368   -0.8636    0.0000 C   0  0  0  0  0  0  0  0  0  0  0  0
    2.5200   -2.1039    0.0000 C   0  0  0  0  0  0  0  0  0  0  0  0
    1.8157   -0.0353    0.0000 O   0  0  0  0  0  0  0  0  0  0  0  0
   -1.7650   -1.2689    0.0000 O   0  0  0  0  0  0  0  0  0  0  0  0
   -1.8265    0.2143    0.0000 N   0  0  0  0  0  0  0  0  0  0  0  0
   -1.8245    1.0394    0.0000 C   0  0  0  0  0  0  0  0  0  0  0  0
   -2.6495    1.0412    0.0000 C   0  0  0  0  0  0  0  0  0  0  0  0
   -2.6515    0.2162    0.0000 C   0  0  0  0  0  0  0  0  0  0  0  0
   -3.2368   -0.3615    0.0000 O   0  0  0  0  0  0  0  0  0  0  0  0
    0.0316    0.0477    0.0000 C   0  0  0  0  0  0  0  0  0  0  0  0
    0.0344    1.2202    0.0000 C   0  0  0  0  0  0  0  0  0  0  0  0
   -1.2612    2.1039    0.0000 O   0  0  0  0  0  0  0  0  0  0  0  0
   -0.4599    1.8889    0.0000 O   0  0  0  0  0  0  0  0  0  0  0  0
  2  1  1  0
  3  2  1  0
  3  4  1  6
  3 15  1  0
  5  4  1  0
  6  5  1  0
  7  6  1  0
  8  7  1  0
  9  8  1  0
 10  9  1  0
 11  9  1  0
 12  9  1  0
 13  8  2  0
 14  4  2  0
 15 16  1  0
 16  1  1  0
 16 17  1  1
 18 17  1  0
 18 15  1  0
 19 18  2  0
 20  2  1  0
 21  2  1  0
 22  1  2  0
 23  1  2  0
M  END
>  <DRUGBANK_ID>  (1) 
DB15761

>  <COMMON_NAME>  (1) 
Sulbactam pivoxil

>  <CAS_NUMBER>  (1) 
69388-79-0

>  <UNII>  (1) 
2X0WTA96KX

>  <SYNONYMS>  (1) 
Pivsulbactam; Sulbactam pivoxil; Sulbactam pivoxyl

$$$$
