
     RDKit          2D

  8  7  0  0  0  0  0  0  0  0999 V2000
    3.0788    0.2063    0.0000 O   0  0  0  0  0  0  0  0  0  0  0  0
    3.7932   -1.0312    0.0000 O   0  0  0  0  0  0  0  0  0  0  0  0
    4.5076    1.0312    0.0000 O   0  0  0  0  0  0  0  0  0  0  0  0
    2.3643   -0.2063    0.0000 C   0  0  0  0  0  0  0  0  0  0  0  0
    1.6498    0.2063    0.0000 C   0  0  0  0  0  0  0  0  0  0  0  0
    3.7932   -0.2063    0.0000 C   0  0  0  0  0  0  0  0  0  0  0  0
    4.5076    0.2063    0.0000 C   0  0  0  0  0  0  0  0  0  0  0  0
    5.2219   -0.2063    0.0000 C   0  0  0  0  0  0  0  0  0  0  0  0
  1  4  1  0
  1  6  1  0
  2  6  2  0
  3  7  2  0
  4  5  1  0
  6  7  1  0
  7  8  1  0
M  END
>  <DRUGBANK_ID>  (1) 
DB05869

>  <COMMON_NAME>  (1) 
Ethyl pyruvate

>  <CAS_NUMBER>  (1) 
617-35-6

>  <UNII>  (1) 
03O98E01OB

>  <SYNONYMS>  (1) 
2-oxopropanoic acid ethyl ester; 2-oxopropionic acid ethyl ester; Ethyl 2-oxopropanoate; Ethyl 2-oxopropionate; Ethyl methylglyoxylate; Pyruvic acid ethyl ester; Pyruvic acid, ethyl ester

$$$$
