
     RDKit          2D

 42 47  0  0  1  0  0  0  0  0999 V2000
   -0.1740   -7.7355    0.0000 C   0  0  0  0  0  0  0  0  0  0  0  0
   -0.4290   -6.9509    0.0000 N   0  0  0  0  0  0  0  0  0  0  0  0
    0.1231   -6.3378    0.0000 C   0  0  0  0  0  0  0  0  0  0  0  0
    0.9300   -6.5093    0.0000 O   0  0  0  0  0  0  0  0  0  0  0  0
   -0.1319   -5.5532    0.0000 N   0  0  0  0  0  0  0  0  0  0  0  0
   -0.9388   -5.3817    0.0000 C   0  0  0  0  0  0  0  0  0  0  0  0
   -1.1938   -4.5971    0.0000 O   0  0  0  0  0  0  0  0  0  0  0  0
   -1.4909   -5.9948    0.0000 C   0  0  0  0  0  0  0  0  0  0  0  0
   -1.2359   -6.7794    0.0000 C   0  0  0  0  0  0  0  0  0  0  0  0
   -1.7880   -7.3925    0.0000 C   0  0  0  0  0  0  0  0  0  0  0  0
   -1.5330   -8.1771    0.0000 F   0  0  0  0  0  0  0  0  0  0  0  0
   -2.5949   -7.2210    0.0000 C   0  0  0  0  0  0  0  0  0  0  0  0
   -2.8499   -6.4363    0.0000 C   0  0  0  0  0  0  0  0  0  0  0  0
   -2.2978   -5.8232    0.0000 C   0  0  0  0  0  0  0  0  0  0  0  0
    0.4202   -4.9401    0.0000 C   0  0  0  0  0  0  0  0  0  0  0  0
    0.1652   -4.1555    0.0000 C   0  0  0  0  0  0  0  0  0  0  0  0
   -0.6417   -3.9840    0.0000 C   0  0  0  0  0  0  0  0  0  0  0  0
    0.7173   -3.5424    0.0000 C   0  0  0  0  0  0  0  0  0  0  0  0
    1.5242   -3.7139    0.0000 C   0  0  0  0  0  0  0  0  0  0  0  0
    1.7792   -4.4985    0.0000 C   0  0  0  0  0  0  0  0  0  0  0  0
    1.2271   -5.1116    0.0000 C   0  0  0  0  0  0  0  0  0  0  0  0
    0.4623   -2.7578    0.0000 C   0  0  0  0  0  0  0  0  0  0  0  0
    1.0144   -2.1447    0.0000 C   0  0  0  0  0  0  0  0  0  0  0  0
    1.8394   -2.1447    0.0000 C   0  0  0  0  0  0  0  0  0  0  0  0
    2.0943   -1.3601    0.0000 C   0  0  0  0  0  0  0  0  0  0  0  0
    2.9013   -1.1885    0.0000 C   0  0  0  0  0  0  0  0  0  0  0  0
    3.4533   -1.8016    0.0000 C   0  0  0  0  0  0  0  0  0  0  0  0
    3.1984   -2.5862    0.0000 C   0  0  0  0  0  0  0  0  0  0  0  0
    2.3914   -2.7578    0.0000 C   0  0  0  0  0  0  0  0  0  0  0  0
    4.2603   -1.6301    0.0000 C   0  0  0  0  0  0  0  0  0  0  0  0
    5.0672   -1.4586    0.0000 C   0  0  0  0  0  0  0  0  0  0  0  0
    4.4318   -2.4371    0.0000 C   0  0  0  0  0  0  0  0  0  0  0  0
    4.0887   -0.8231    0.0000 O   0  0  0  0  0  0  0  0  0  0  0  0
    1.4269   -0.8751    0.0000 N   0  0  0  0  0  0  0  0  0  0  0  0
    0.7594   -1.3601    0.0000 C   0  0  0  0  0  0  0  0  0  0  0  0
   -0.0476   -1.1885    0.0000 C   0  0  0  0  0  0  0  0  0  0  0  0
   -0.5996   -1.8016    0.0000 C   0  0  0  0  0  0  0  0  0  0  0  0
   -0.3446   -2.5862    0.0000 C   0  0  0  0  0  0  0  0  0  0  0  0
   -0.8967   -3.1993    0.0000 F   0  0  0  0  0  0  0  0  0  0  0  0
   -0.3025   -0.4039    0.0000 C   0  0  0  0  0  0  0  0  0  0  0  0
   -1.1095   -0.2324    0.0000 N   0  0  0  0  0  0  0  0  0  0  0  0
    0.2495    0.2092    0.0000 O   0  0  0  0  0  0  0  0  0  0  0  0
  1  2  1  0
  2  3  1  0
  2  9  1  0
  3  4  2  0
  3  5  1  0
  5  6  1  0
  5 15  1  0
  6  7  2  0
  6  8  1  0
  8  9  2  0
  8 14  1  0
  9 10  1  0
 10 11  1  0
 10 12  2  0
 12 13  1  0
 13 14  2  0
 15 16  2  0
 15 21  1  0
 16 17  1  0
 16 18  1  0
 18 19  2  0
 18 22  1  0
 19 20  1  0
 20 21  2  0
 22 23  2  0
 22 38  1  0
 23 24  1  0
 23 35  1  0
 24 25  2  0
 24 29  1  0
 25 26  1  0
 25 34  1  0
 27 26  1  0
 27 28  1  0
 27 30  1  1
 28 29  1  0
 30 31  1  0
 30 32  1  0
 30 33  1  0
 34 35  1  0
 35 36  2  0
 36 37  1  0
 36 40  1  0
 37 38  2  0
 38 39  1  0
 40 41  1  0
 40 42  2  0
M  END
>  <DRUGBANK_ID>  (1) 
DB15291

>  <COMMON_NAME>  (1) 
BMS-986142

>  <CAS_NUMBER>  (1) 
1643368-58-4

>  <UNII>  (1) 
PJX9GH268R

$$$$
