
     RDKit          2D

 30 32  0  0  1  0  0  0  0  0999 V2000
   19.2756  -10.5160    0.0000 C   0  0  0  0  0  0  0  0  0  0  0  0
   19.2756  -11.3410    0.0000 N   0  0  0  0  0  0  0  0  0  0  0  0
   19.9769  -11.7536    0.0000 C   0  0  0  0  0  0  0  0  0  0  0  0
   20.6782  -11.3410    0.0000 C   0  0  0  0  0  0  0  0  0  0  0  0
   20.6782  -10.5160    0.0000 C   0  0  0  0  0  0  0  0  0  0  0  0
   19.9769  -10.1035    0.0000 S   0  0  0  0  0  0  0  0  0  0  0  0
   18.4506  -10.5160    0.0000 C   0  0  0  0  0  0  0  0  0  0  0  0
   18.4506  -11.3410    0.0000 C   0  0  0  0  0  0  0  0  0  0  0  0
   17.7079  -10.1035    0.0000 N   0  0  0  0  0  0  0  0  0  0  0  0
   17.0066  -10.5160    0.0000 C   0  0  0  0  0  0  0  0  0  0  0  0
   17.0066  -11.3410    0.0000 O   0  0  0  0  0  0  0  0  0  0  0  0
   17.7079  -11.7536    0.0000 O   0  0  0  0  0  0  0  0  0  0  0  0
   16.3053  -10.1035    0.0000 C   0  0  0  0  0  0  0  0  0  0  0  0
   21.4207  -11.7536    0.0000 C   0  0  0  0  0  0  0  0  0  0  0  0
   15.5628  -10.5160    0.0000 C   0  0  0  0  0  0  0  0  0  0  0  0
   14.9440  -10.0209    0.0000 C   0  0  0  0  0  0  0  0  0  0  0  0
   14.2428  -10.4747    0.0000 S   0  0  0  0  0  0  0  0  0  0  0  0
   14.4903  -11.2998    0.0000 C   0  0  0  0  0  0  0  0  0  0  0  0
   15.3153  -11.2998    0.0000 N   0  0  0  0  0  0  0  0  0  0  0  0
   16.3053   -9.2784    0.0000 N   0  0  0  0  0  0  0  0  0  0  0  0
   19.9769  -12.5786    0.0000 C   0  0  0  0  0  0  0  0  0  0  0  0
   20.6782  -12.9912    0.0000 O   0  0  0  0  0  0  0  0  0  0  0  0
   19.2344  -12.9912    0.0000 O   0  0  0  0  0  0  0  0  0  0  0  0
   13.9952  -11.9598    0.0000 N   0  0  0  0  0  0  0  0  0  0  0  0
   22.1309  -11.3277    0.0000 O   0  0  0  0  0  0  0  0  0  0  0  0
   22.8505  -11.7274    0.0000 C   0  0  0  0  0  0  0  0  0  0  0  0
   23.5487  -11.3086    0.0000 C   0  0  0  0  0  0  0  0  0  0  0  0
   22.8505  -12.5525    0.0000 O   0  0  0  0  0  0  0  0  0  0  0  0
   17.0121   -8.8741    0.0000 O   0  0  0  0  0  0  0  0  0  0  0  0
   17.0121   -8.0490    0.0000 C   0  0  0  0  0  0  0  0  0  0  0  0
  1  2  1  0
  1  6  1  1
  1  7  1  0
  2  3  1  0
  2  8  1  0
  3  4  2  0
  3 21  1  0
  4  5  1  0
  4 14  1  0
  5  6  1  0
  7  8  1  0
  7  9  1  1
  8 12  2  0
  9 10  1  0
 10 11  2  0
 10 13  1  0
 13 15  1  0
 13 20  2  0
 14 25  1  0
 15 16  2  0
 15 19  1  0
 16 17  1  0
 17 18  1  0
 18 19  2  0
 18 24  1  0
 20 29  1  0
 21 22  1  0
 21 23  2  0
 25 26  1  0
 26 27  1  0
 26 28  2  0
 29 30  1  0
M  END
>  <DRUGBANK_ID>  (1) 
DB00493

>  <SECONDARY_ACCESSION_NUMBERS>  (1) 
APRD00854

>  <COMMON_NAME>  (1) 
Cefotaxime

>  <CAS_NUMBER>  (1) 
63527-52-6

>  <UNII>  (1) 
N2GI8B1GK7

>  <SYNONYMS>  (1) 
(6R,7R,Z)-3-(acetoxymethyl)-7-(2-(2-aminothiazol-4-yl)-2-(methoxyimino)acetamido)-8-oxo-5-thia-1-aza-bicyclo[4.2.0]oct-2-ene-2-carboxylic acid; (6R,7R)-3-(acetoxymethyl)-7-{[(2Z)-2-(2-amino-1,3-thiazol-4-yl)-2-(methoxyimino)acetyl]amino}-8-oxo-5-thia-1-azabicyclo[4.2.0]oct-2-ene-2-carboxylic acid; (6R,7R)-3-Acetoxymethyl-7-{2-(2-amino-thiazol-4-yl)-2-[(Z)-methoxyimino]-acetylamino}-8-oxo-5-thia-1-aza-bicyclo[4.2.0]oct-2-ene-2-carboxylic acid; Cefotaxim; Cefotaxima; Cefotaxime; CÃ©fotaxime; Cefotaximum; Cephotaxime

$$$$
