ENM
     RDKit          2D

 32 36  0  0  0  0  0  0  0  0999 V2000
   -2.2858   -3.1855    0.0000 C   0  0  0  0  0  0  0  0  0  0  0  0
   -2.6456   -3.9279    0.0000 C   0  0  0  0  0  0  0  0  0  0  0  0
   -3.4685   -3.9874    0.0000 F   0  0  0  0  0  0  0  0  0  0  0  0
   -2.1827   -4.6107    0.0000 C   0  0  0  0  0  0  0  0  0  0  0  0
   -1.3598   -4.5512    0.0000 C   0  0  0  0  0  0  0  0  0  0  0  0
   -0.8968   -5.2340    0.0000 F   0  0  0  0  0  0  0  0  0  0  0  0
   -0.9999   -3.8088    0.0000 C   0  0  0  0  0  0  0  0  0  0  0  0
   -1.4629   -3.1260    0.0000 C   0  0  0  0  0  0  0  0  0  0  0  0
   -1.1030   -2.3836    0.0000 C   0  0  0  0  0  0  0  0  0  0  0  0
   -1.5660   -1.7008    0.0000 O   0  0  0  0  0  0  0  0  0  0  0  0
   -1.2062   -0.9584    0.0000 C   0  0  0  0  0  0  0  0  0  0  0  0
   -1.6691   -0.2756    0.0000 C   0  0  0  0  0  0  0  0  0  0  0  0
   -1.3093    0.4668    0.0000 C   0  0  0  0  0  0  0  0  0  0  0  0
   -0.7774   -0.1639    0.0000 C   0  0  0  0  0  0  0  0  0  0  0  0
    0.0347   -0.0187    0.0000 C   0  0  0  0  0  0  0  0  0  0  0  0
    0.3150    0.7573    0.0000 C   0  0  0  0  0  0  0  0  0  0  0  0
    1.1271    0.9025    0.0000 C   0  0  0  0  0  0  0  0  0  0  0  0
    0.8468    0.1265    0.0000 C   0  0  0  0  0  0  0  0  0  0  0  0
    1.6589    0.2718    0.0000 C   0  0  0  0  0  0  0  0  0  0  0  0
    2.4710    0.4170    0.0000 C   0  0  0  0  0  0  0  0  0  0  0  0
    2.7513    1.1929    0.0000 C   0  0  0  0  0  0  0  0  0  0  0  0
    3.5635    1.3381    0.0000 O   0  0  0  0  0  0  0  0  0  0  0  0
    2.2195    1.8236    0.0000 C   0  0  0  0  0  0  0  0  0  0  0  0
    1.4074    1.6784    0.0000 C   0  0  0  0  0  0  0  0  0  0  0  0
    0.8756    2.3091    0.0000 C   0  0  0  0  0  0  0  0  0  0  0  0
    0.0635    2.1639    0.0000 C   0  0  0  0  0  0  0  0  0  0  0  0
   -0.2168    1.3880    0.0000 C   0  0  0  0  0  0  0  0  0  0  0  0
   -1.0290    1.2427    0.0000 C   0  0  0  0  0  0  0  0  0  0  0  0
   -1.6803    1.7491    0.0000 C   0  0  0  0  0  0  0  0  0  0  0  0
   -2.3631    1.2861    0.0000 C   0  0  0  0  0  0  0  0  0  0  0  0
   -2.1338    0.4936    0.0000 C   0  0  0  0  0  0  0  0  0  0  0  0
   -2.6402   -0.1577    0.0000 O   0  0  0  0  0  0  0  0  0  0  0  0
  1  8  2  0
  1  2  1  0
  2  4  2  0
  2  3  1  0
  4  5  1  0
  5  7  2  0
  5  6  1  0
  7  8  1  0
  8  9  1  0
  9 10  1  0
 10 11  1  0
 11 12  1  0
 13 12  1  1
 13 31  1  0
 13 28  1  0
 13 14  1  0
 14 15  1  0
 16 15  1  1
 16 27  1  0
 16 17  1  0
 17 24  1  0
 17 19  1  0
 17 18  1  1
 19 20  1  0
 20 21  1  0
 21 22  2  0
 21 23  1  0
 24 23  1  1
 24 25  1  0
 25 26  1  0
 27 26  1  6
 27 28  1  0
 28 29  1  1
 29 30  1  0
 30 31  1  0
 31 32  1  1
M  END
>  <DRUGBANK_ID>  (1) 
DB07717

>  <COMMON_NAME>  (1) 
(5S,8R,9S,10S,13R,14S,17S)-13-{2-[(3,5-DIFLUOROBENZYL)OXY]ETHYL}-17-HYDROXY-10-METHYLHEXADECAHYDRO-3H-CYCLOPENTA[A]PHENANTHREN-3-ONE

$$$$
