
     RDKit          2D

 32 37  0  0  1  0  0  0  0  0999 V2000
    4.7031    1.3747    0.0000 C   0  0  0  0  0  0  0  0  0  0  0  0
    5.2111    0.7245    0.0000 C   0  0  0  0  0  0  0  0  0  0  0  0
    4.9020   -0.0404    0.0000 C   0  0  0  0  0  0  0  0  0  0  0  0
    4.3500   -0.6535    0.0000 C   0  0  0  0  0  0  0  0  0  0  0  0
    3.5430   -0.4819    0.0000 C   0  0  0  0  0  0  0  0  0  0  0  0
    2.9910   -1.0950    0.0000 C   0  0  0  0  0  0  0  0  0  0  0  0
    3.2459   -1.8797    0.0000 N   0  0  0  0  0  0  0  0  0  0  0  0
    4.0529   -2.0512    0.0000 C   0  0  0  0  0  0  0  0  0  0  0  0
    4.3078   -2.8358    0.0000 O   0  0  0  0  0  0  0  0  0  0  0  0
    4.6049   -1.4381    0.0000 C   0  0  0  0  0  0  0  0  0  0  0  0
    5.4119   -1.6096    0.0000 C   0  0  0  0  0  0  0  0  0  0  0  0
    5.9639   -0.9965    0.0000 O   0  0  0  0  0  0  0  0  0  0  0  0
    5.7090   -0.2119    0.0000 C   0  0  0  0  0  0  0  0  0  0  0  0
    6.2610    0.4012    0.0000 O   0  0  0  0  0  0  0  0  0  0  0  0
    2.5785   -2.3646    0.0000 C   0  0  0  0  0  0  0  0  0  0  0  0
    1.9110   -1.8797    0.0000 C   0  0  0  0  0  0  0  0  0  0  0  0
    2.1660   -1.0950    0.0000 C   0  0  0  0  0  0  0  0  0  0  0  0
    1.6139   -0.4819    0.0000 N   0  0  0  0  0  0  0  0  0  0  0  0
    0.8070   -0.6535    0.0000 C   0  0  0  0  0  0  0  0  0  0  0  0
    0.2549   -0.0404    0.0000 C   0  0  0  0  0  0  0  0  0  0  0  0
   -0.5520   -0.2119    0.0000 C   0  0  0  0  0  0  0  0  0  0  0  0
   -0.8070   -0.9965    0.0000 C   0  0  0  0  0  0  0  0  0  0  0  0
   -0.2549   -1.6096    0.0000 C   0  0  0  0  0  0  0  0  0  0  0  0
    0.5520   -1.4381    0.0000 C   0  0  0  0  0  0  0  0  0  0  0  0
    1.1041   -2.0512    0.0000 C   0  0  0  0  0  0  0  0  0  0  0  0
    0.8491   -2.8358    0.0000 C   0  0  0  0  0  0  0  0  0  0  0  0
    0.0422   -3.0073    0.0000 C   0  0  0  0  0  0  0  0  0  0  0  0
   -0.5099   -2.3942    0.0000 C   0  0  0  0  0  0  0  0  0  0  0  0
    1.4012   -3.4489    0.0000 N   0  0  0  0  0  0  0  0  0  0  0  0
   -1.6139   -1.1681    0.0000 C   0  0  0  0  0  0  0  0  0  0  0  0
   -1.1041    0.4012    0.0000 F   0  0  0  0  0  0  0  0  0  0  0  0
    4.2024    0.3968    0.0000 O   0  0  0  0  0  0  0  0  0  0  0  0
  1  2  1  0
  3  2  1  0
  3  4  1  0
  3 13  1  0
  3 32  1  6
  4  5  1  0
  4 10  2  0
  5  6  2  0
  6  7  1  0
  6 17  1  0
  7  8  1  0
  7 15  1  0
  8  9  2  0
  8 10  1  0
 10 11  1  0
 11 12  1  0
 12 13  1  0
 13 14  2  0
 15 16  1  0
 16 17  2  0
 16 25  1  0
 17 18  1  0
 18 19  2  0
 19 20  1  0
 19 24  1  0
 20 21  2  0
 21 22  1  0
 21 31  1  0
 22 23  2  0
 22 30  1  0
 23 24  1  0
 23 28  1  0
 24 25  2  0
 25 26  1  0
 26 27  1  0
 26 29  1  1
 27 28  1  0
M  END
>  <DRUGBANK_ID>  (1) 
DB12185

>  <COMMON_NAME>  (1) 
Exatecan

>  <CAS_NUMBER>  (1) 
171335-80-1

>  <UNII>  (1) 
OC71PP0F89

>  <SYNONYMS>  (1) 
Exatecan

$$$$
