
     RDKit          2D

 34 37  0  0  0  0  0  0  0  0999 V2000
   -4.6508   -2.4789    0.0000 F   0  0  0  0  0  0  0  0  0  0  0  0
   -1.7858    2.4789    0.0000 F   0  0  0  0  0  0  0  0  0  0  0  0
    1.0604   -0.8232    0.0000 O   0  0  0  0  0  0  0  0  0  0  0  0
    2.5021   -0.0046    0.0000 O   0  0  0  0  0  0  0  0  0  0  0  0
    3.9345   -0.8232    0.0000 O   0  0  0  0  0  0  0  0  0  0  0  0
   -1.0697   -1.2418    0.0000 N   0  0  0  0  0  0  0  0  0  0  0  0
    0.3534   -2.0696    0.0000 N   0  0  0  0  0  0  0  0  0  0  0  0
   -1.7858   -0.8232    0.0000 C   0  0  0  0  0  0  0  0  0  0  0  0
    1.7858   -1.2418    0.0000 C   0  0  0  0  0  0  0  0  0  0  0  0
    1.7858   -2.0696    0.0000 C   0  0  0  0  0  0  0  0  0  0  0  0
   -2.5021   -1.2418    0.0000 C   0  0  0  0  0  0  0  0  0  0  0  0
   -1.7858   -0.0046    0.0000 C   0  0  0  0  0  0  0  0  0  0  0  0
    2.5021   -0.8232    0.0000 C   0  0  0  0  0  0  0  0  0  0  0  0
    3.2091   -1.2418    0.0000 C   0  0  0  0  0  0  0  0  0  0  0  0
    1.0604   -2.4789    0.0000 C   0  0  0  0  0  0  0  0  0  0  0  0
   -1.0697   -2.0696    0.0000 C   0  0  0  0  0  0  0  0  0  0  0  0
   -0.3534   -0.8232    0.0000 C   0  0  0  0  0  0  0  0  0  0  0  0
    2.5021   -2.4789    0.0000 C   0  0  0  0  0  0  0  0  0  0  0  0
   -0.3534   -2.4789    0.0000 C   0  0  0  0  0  0  0  0  0  0  0  0
    0.3534   -1.2418    0.0000 C   0  0  0  0  0  0  0  0  0  0  0  0
    3.2091   -2.0696    0.0000 C   0  0  0  0  0  0  0  0  0  0  0  0
   -2.5021   -2.0696    0.0000 C   0  0  0  0  0  0  0  0  0  0  0  0
   -2.5021    0.4046    0.0000 C   0  0  0  0  0  0  0  0  0  0  0  0
   -3.2183   -0.8232    0.0000 C   0  0  0  0  0  0  0  0  0  0  0  0
   -1.0697    0.4046    0.0000 C   0  0  0  0  0  0  0  0  0  0  0  0
   -3.2183   -2.4789    0.0000 C   0  0  0  0  0  0  0  0  0  0  0  0
   -2.5021    1.2417    0.0000 C   0  0  0  0  0  0  0  0  0  0  0  0
   -3.9345   -1.2418    0.0000 C   0  0  0  0  0  0  0  0  0  0  0  0
   -1.0697    1.2417    0.0000 C   0  0  0  0  0  0  0  0  0  0  0  0
   -3.9345   -2.0696    0.0000 C   0  0  0  0  0  0  0  0  0  0  0  0
   -1.7858    1.6509    0.0000 C   0  0  0  0  0  0  0  0  0  0  0  0
    1.0604   -0.0046    0.0000 C   0  0  0  0  0  0  0  0  0  0  0  0
    3.2091    0.4046    0.0000 C   0  0  0  0  0  0  0  0  0  0  0  0
    4.6508   -1.2418    0.0000 C   0  0  0  0  0  0  0  0  0  0  0  0
  1 30  1  0
  2 31  1  0
  3  9  1  0
  3 32  1  0
  4 13  1  0
  4 33  1  0
  5 14  1  0
  5 34  1  0
  6  8  1  0
  6 16  1  0
  6 17  1  0
  7 15  1  0
  7 19  1  0
  7 20  1  0
  8 11  1  0
  8 12  1  0
  9 10  2  0
  9 13  1  0
 10 15  1  0
 10 18  1  0
 11 22  2  0
 11 24  1  0
 12 23  2  0
 12 25  1  0
 13 14  2  0
 14 21  1  0
 16 19  1  0
 17 20  1  0
 18 21  2  0
 22 26  1  0
 23 27  1  0
 24 28  2  0
 25 29  2  0
 26 30  2  0
 27 31  2  0
 28 30  1  0
 29 31  1  0
M  END
>  <DRUGBANK_ID>  (1) 
DB14065

>  <COMMON_NAME>  (1) 
Lomerizine

>  <CAS_NUMBER>  (1) 
101477-55-8

>  <UNII>  (1) 
DEE37CY4VO

>  <SYNONYMS>  (1) 
Lomerazine; Lomerizine

$$$$
