
     RDKit          2D

 38 42  0  0  0  0  0  0  0  0999 V2000
   -4.2962   -2.1269    0.0000 C   0  0  0  0  0  0  0  0  0  0  0  0
   -3.8837   -1.4124    0.0000 C   0  0  0  0  0  0  0  0  0  0  0  0
   -4.2962   -0.6979    0.0000 C   0  0  0  0  0  0  0  0  0  0  0  0
   -3.0587   -1.4124    0.0000 C   0  0  0  0  0  0  0  0  0  0  0  0
   -2.6462   -2.1269    0.0000 O   0  0  0  0  0  0  0  0  0  0  0  0
   -2.6462   -0.6979    0.0000 N   0  0  0  0  0  0  0  0  0  0  0  0
   -1.8212   -0.6979    0.0000 C   0  0  0  0  0  0  0  0  0  0  0  0
   -1.4087    0.0165    0.0000 C   0  0  0  0  0  0  0  0  0  0  0  0
   -0.5837    0.0165    0.0000 C   0  0  0  0  0  0  0  0  0  0  0  0
   -0.1712   -0.6979    0.0000 C   0  0  0  0  0  0  0  0  0  0  0  0
   -0.5837   -1.4124    0.0000 C   0  0  0  0  0  0  0  0  0  0  0  0
   -1.4087   -1.4124    0.0000 C   0  0  0  0  0  0  0  0  0  0  0  0
    0.6538   -0.6979    0.0000 C   0  0  0  0  0  0  0  0  0  0  0  0
    1.1387   -0.0305    0.0000 C   0  0  0  0  0  0  0  0  0  0  0  0
    0.8838    0.7541    0.0000 C   0  0  0  0  0  0  0  0  0  0  0  0
    0.0768    0.9256    0.0000 C   0  0  0  0  0  0  0  0  0  0  0  0
   -0.1781    1.7103    0.0000 C   0  0  0  0  0  0  0  0  0  0  0  0
    0.3739    2.3234    0.0000 C   0  0  0  0  0  0  0  0  0  0  0  0
    0.1190    3.1080    0.0000 O   0  0  0  0  0  0  0  0  0  0  0  0
    0.6710    3.7211    0.0000 C   0  0  0  0  0  0  0  0  0  0  0  0
    0.4161    4.5057    0.0000 N   0  0  0  0  0  0  0  0  0  0  0  0
    0.9681    5.1188    0.0000 C   0  0  0  0  0  0  0  0  0  0  0  0
    1.7751    4.9473    0.0000 C   0  0  0  0  0  0  0  0  0  0  0  0
    2.0300    4.1626    0.0000 C   0  0  0  0  0  0  0  0  0  0  0  0
    2.8370    3.9911    0.0000 C   0  0  0  0  0  0  0  0  0  0  0  0
    1.4780    3.5496    0.0000 N   0  0  0  0  0  0  0  0  0  0  0  0
    1.1809    2.1518    0.0000 C   0  0  0  0  0  0  0  0  0  0  0  0
    1.7329    2.7649    0.0000 F   0  0  0  0  0  0  0  0  0  0  0  0
    1.4358    1.3672    0.0000 C   0  0  0  0  0  0  0  0  0  0  0  0
    1.9233   -0.2854    0.0000 C   0  0  0  0  0  0  0  0  0  0  0  0
    2.6378    0.1271    0.0000 C   0  0  0  0  0  0  0  0  0  0  0  0
    2.6378    0.9521    0.0000 N   0  0  0  0  0  0  0  0  0  0  0  0
    3.3523   -0.2854    0.0000 N   0  0  0  0  0  0  0  0  0  0  0  0
    3.3523   -1.1104    0.0000 C   0  0  0  0  0  0  0  0  0  0  0  0
    2.6378   -1.5229    0.0000 N   0  0  0  0  0  0  0  0  0  0  0  0
    1.9233   -1.1104    0.0000 C   0  0  0  0  0  0  0  0  0  0  0  0
    1.1387   -1.3654    0.0000 N   0  0  0  0  0  0  0  0  0  0  0  0
    0.8838   -2.1500    0.0000 C   0  0  0  0  0  0  0  0  0  0  0  0
  1  2  1  0
  2  3  2  0
  2  4  1  0
  4  5  2  0
  4  6  1  0
  6  7  1  0
  7  8  2  0
  7 12  1  0
  8  9  1  0
  9 10  2  0
 10 11  1  0
 10 13  1  0
 11 12  2  0
 13 14  2  0
 13 37  1  0
 14 15  1  0
 14 30  1  0
 15 16  2  0
 15 29  1  0
 16 17  1  0
 17 18  2  0
 18 19  1  0
 18 27  1  0
 19 20  1  0
 20 21  2  0
 20 26  1  0
 21 22  1  0
 22 23  2  0
 23 24  1  0
 24 25  1  0
 24 26  2  0
 27 28  1  0
 27 29  2  0
 30 31  2  0
 30 36  1  0
 31 32  1  0
 31 33  1  0
 33 34  2  0
 34 35  1  0
 35 36  2  0
 36 37  1  0
 37 38  1  0
M  END
>  <DRUGBANK_ID>  (1) 
DB18300

>  <COMMON_NAME>  (1) 
Lirafugratinib

>  <CAS_NUMBER>  (1) 
2549174-42-5

>  <UNII>  (1) 
7HY6IMH87S

>  <SYNONYMS>  (1) 
2-Propenamide, N-[4-[4-amino-5-[3-fluoro-4-[(4-methyl-2-pyrimidinyl)oxy]phenyl]-7-methyl-7H-pyrrolo[2,3-d]pyrimidin-6-yl]phenyl]-2-methyl-; N-(4-(4-amino-5-(3-fluoro-4-((4-methylpyrimidin-2-yl)oxy)phenyl)-7-methyl-7H-pyrrolo[2,3-d]pyrimidin-6-yl)phenyl)methacrylamide; N-[4-(4-amino-5-{3-fluoro-4-[(4-methylpyrimidin-2- yl)oxy]phenyl}-7-methyl-7H-pyrrolo[2,3-d]pyrimidin-6- yl)phenyl]-2-methylprop-2-enamide

$$$$
