5AP
     RDKit          2D

 27 29  0  0  0  0  0  0  0  0999 V2000
    1.5485   -0.0062    0.0000 Cl  0  0  0  0  0  0  0  0  0  0  0  0
    1.5485   -0.8312    0.0000 C   0  0  0  0  0  0  0  0  0  0  0  0
    2.2630   -1.2437    0.0000 C   0  0  0  0  0  0  0  0  0  0  0  0
    2.2630   -2.0687    0.0000 C   0  0  0  0  0  0  0  0  0  0  0  0
    2.9774   -2.4812    0.0000 Cl  0  0  0  0  0  0  0  0  0  0  0  0
    1.5485   -2.4812    0.0000 C   0  0  0  0  0  0  0  0  0  0  0  0
    0.8340   -2.0687    0.0000 C   0  0  0  0  0  0  0  0  0  0  0  0
    0.8340   -1.2437    0.0000 C   0  0  0  0  0  0  0  0  0  0  0  0
    0.1195   -0.8312    0.0000 C   0  0  0  0  0  0  0  0  0  0  0  0
   -0.5949   -1.2437    0.0000 C   0  0  0  0  0  0  0  0  0  0  0  0
   -0.5949   -2.0687    0.0000 C   0  0  0  0  0  0  0  0  0  0  0  0
   -1.3094   -2.4812    0.0000 N   0  0  0  0  0  0  0  0  0  0  0  0
   -1.3094   -0.8312    0.0000 C   0  0  0  0  0  0  0  0  0  0  0  0
   -2.0239   -1.2437    0.0000 N   0  0  0  0  0  0  0  0  0  0  0  0
    0.1195   -0.0062    0.0000 N   0  0  0  0  0  0  0  0  0  0  0  0
   -0.5949    0.4063    0.0000 C   0  0  0  0  0  0  0  0  0  0  0  0
   -1.3094   -0.0062    0.0000 N   0  0  0  0  0  0  0  0  0  0  0  0
   -0.5949    1.2313    0.0000 C   0  0  0  0  0  0  0  0  0  0  0  0
   -1.3094    1.6438    0.0000 C   0  0  0  0  0  0  0  0  0  0  0  0
   -1.3094    2.4688    0.0000 C   0  0  0  0  0  0  0  0  0  0  0  0
   -2.0239    2.8813    0.0000 O   0  0  0  0  0  0  0  0  0  0  0  0
   -2.7383    2.4688    0.0000 C   0  0  0  0  0  0  0  0  0  0  0  0
   -0.5949    2.8813    0.0000 C   0  0  0  0  0  0  0  0  0  0  0  0
    0.1195    2.4688    0.0000 C   0  0  0  0  0  0  0  0  0  0  0  0
    0.1195    1.6438    0.0000 C   0  0  0  0  0  0  0  0  0  0  0  0
    0.8340    2.8813    0.0000 O   0  0  0  0  0  0  0  0  0  0  0  0
    1.5485    2.4688    0.0000 C   0  0  0  0  0  0  0  0  0  0  0  0
  1  2  1  0
  2  3  2  0
  2  8  1  0
  3  4  1  0
  4  5  1  0
  4  6  2  0
  6  7  1  0
  7  8  2  0
  8  9  1  0
  9 10  2  0
  9 15  1  0
 10 11  1  0
 10 13  1  0
 11 12  1  0
 13 14  1  0
 13 17  2  0
 15 16  2  0
 16 17  1  0
 16 18  1  0
 18 19  2  0
 18 25  1  0
 19 20  1  0
 20 21  1  0
 20 23  2  0
 21 22  1  0
 23 24  1  0
 24 25  2  0
 24 26  1  0
 26 27  1  0
M  END
>  <DRUGBANK_ID>  (1) 
DB02004

>  <SECONDARY_ACCESSION_NUMBERS>  (1) 
EXPT00239

>  <COMMON_NAME>  (1) 
5-(Aminomethyl)-6-(2,4-Dichlorophenyl)-2-(3,5-Dimethoxyphenyl)Pyrimidin-4-Amine

$$$$
