
     RDKit          2D

 22 12  0  0  0  0  0  0  0  0999 V2000
    0.0000    0.0000    0.0000 O   0  0  0  0  0  0  0  0  0  0  0  0
    2.3571    0.0000    0.0000 O   0  0  0  0  0  0  0  0  0  0  0  0
    4.7143    0.0000    0.0000 O   0  0  0  0  0  0  0  0  0  0  0  0
    0.0000   -2.4750    0.0000 O   0  0  0  0  0  0  0  0  0  0  0  0
    2.3571   -2.4750    0.0000 O   0  0  0  0  0  0  0  0  0  0  0  0
    7.3071   -2.4750    0.0000 O   0  0  0  0  0  0  0  0  0  0  0  0
    6.4821   -2.4750    0.0000 S   0  0  0  0  0  0  0  0  0  0  0  0
    6.4821   -1.6500    0.0000 O   0  0  0  0  0  0  0  0  0  0  0  0
    6.4821   -3.3000    0.0000 O   0  0  0  0  0  0  0  0  0  0  0  0
    5.6571   -2.4750    0.0000 O   0  0  0  0  0  0  0  0  0  0  0  0
    0.0000   -6.6000    0.0000 O   0  0  0  0  0  0  0  0  0  0  0  0
    0.0000   -5.7750    0.0000 S   0  0  0  0  0  0  0  0  0  0  0  0
    0.0000   -4.9500    0.0000 O   0  0  0  0  0  0  0  0  0  0  0  0
    0.8250   -5.7750    0.0000 O   0  0  0  0  0  0  0  0  0  0  0  0
   -0.8250   -5.7750    0.0000 O   0  0  0  0  0  0  0  0  0  0  0  0
    3.8893   -6.6000    0.0000 O   0  0  0  0  0  0  0  0  0  0  0  0
    3.8893   -5.7750    0.0000 S   0  0  0  0  0  0  0  0  0  0  0  0
    3.8893   -4.9500    0.0000 O   0  0  0  0  0  0  0  0  0  0  0  0
    4.7143   -5.7750    0.0000 O   0  0  0  0  0  0  0  0  0  0  0  0
    3.0643   -5.7750    0.0000 O   0  0  0  0  0  0  0  0  0  0  0  0
    8.1321   -2.4750    0.0000 Fe  0  0  0  0  0 15  0  0  0  0  0  0
    4.8321   -2.4750    0.0000 Fe  0  0  0  0  0 15  0  0  0  0  0  0
  6  7  1  0
  7  8  2  0
  7  9  2  0
  7 10  1  0
 11 12  1  0
 12 13  2  0
 12 14  2  0
 12 15  1  0
 16 17  1  0
 17 18  2  0
 17 19  2  0
 17 20  1  0
M  CHG  8   6  -1  10  -1  11  -1  15  -1  16  -1  20  -1  21   3  22   3
M  END
>  <DRUGBANK_ID>  (1) 
DB11171

>  <COMMON_NAME>  (1) 
Ferric sulfate

>  <CAS_NUMBER>  (1) 
10028-22-5

>  <UNII>  (1) 
3HWS7HF5XD

>  <SYNONYMS>  (1) 
Ferric sulfate

$$$$
