
     RDKit          2D

 39 44  0  0  0  0  0  0  0  0999 V2000
   -2.7246   -1.4525    0.0000 C   0  0  0  0  0  0  0  0  0  0  0  0
   -2.7308   -2.2785    0.0000 C   0  0  0  0  0  0  0  0  0  0  0  0
   -3.4378   -1.0318    0.0000 O   0  0  0  0  0  0  0  0  0  0  0  0
   -3.4488   -2.6884    0.0000 C   0  0  0  0  0  0  0  0  0  0  0  0
   -4.1589   -1.4401    0.0000 C   0  0  0  0  0  0  0  0  0  0  0  0
   -4.1621   -2.2678    0.0000 C   0  0  0  0  0  0  0  0  0  0  0  0
   -3.4596   -3.5157    0.0000 O   0  0  0  0  0  0  0  0  0  0  0  0
   -4.8691   -1.0212    0.0000 C   0  0  0  0  0  0  0  0  0  0  0  0
   -4.8831   -2.6760    0.0000 O   0  0  0  0  0  0  0  0  0  0  0  0
   -4.1856   -3.9252    0.0000 C   0  0  0  0  0  0  0  0  0  0  0  0
    0.1492    0.2009    0.0000 C   0  0  0  0  0  0  0  0  0  0  0  0
    0.8723    0.6132    0.0000 C   0  0  0  0  0  0  0  0  0  0  0  0
    0.1457   -0.6269    0.0000 C   0  0  0  0  0  0  0  0  0  0  0  0
   -0.5634    0.6167    0.0000 C   0  0  0  0  0  0  0  0  0  0  0  0
    0.1422    1.0289    0.0000 C   0  0  0  0  0  0  0  0  0  0  0  0
    1.5816    0.1939    0.0000 C   0  0  0  0  0  0  0  0  0  0  0  0
    0.8793    1.4377    0.0000 C   0  0  0  0  0  0  0  0  0  0  0  0
   -0.5634   -1.0392    0.0000 C   0  0  0  0  0  0  0  0  0  0  0  0
    0.8654   -1.0428    0.0000 C   0  0  0  0  0  0  0  0  0  0  0  0
    0.1387   -1.4481    0.0000 O   0  0  0  0  0  0  0  0  0  0  0  0
   -1.2796    0.2009    0.0000 C   0  0  0  0  0  0  0  0  0  0  0  0
   -0.5739    1.4411    0.0000 O   0  0  0  0  0  0  0  0  0  0  0  0
    2.2943    0.6027    0.0000 C   0  0  0  0  0  0  0  0  0  0  0  0
    1.5816   -0.6305    0.0000 C   0  0  0  0  0  0  0  0  0  0  0  0
    1.5955    1.8429    0.0000 C   0  0  0  0  0  0  0  0  0  0  0  0
   -1.2796   -0.6269    0.0000 C   0  0  0  0  0  0  0  0  0  0  0  0
    2.3047    1.4273    0.0000 C   0  0  0  0  0  0  0  0  0  0  0  0
    3.7232    0.5852    0.0000 C   0  0  0  0  0  0  0  0  0  0  0  0
    2.2874   -0.2217    0.0000 O   0  0  0  0  0  0  0  0  0  0  0  0
   -1.9958   -1.0392    0.0000 O   0  0  0  0  0  0  0  0  0  0  0  0
    3.0245    1.8290    0.0000 C   0  0  0  0  0  0  0  0  0  0  0  0
    2.2978    2.2516    0.0000 C   0  0  0  0  0  0  0  0  0  0  0  0
    3.7302    1.4063    0.0000 C   0  0  0  0  0  0  0  0  0  0  0  0
    3.0209    2.6569    0.0000 C   0  0  0  0  0  0  0  0  0  0  0  0
    2.7659    3.4396    0.0000 C   0  0  0  0  0  0  0  0  0  0  0  0
    3.8455    2.6605    0.0000 C   0  0  0  0  0  0  0  0  0  0  0  0
    3.4332    3.9252    0.0000 O   0  0  0  0  0  0  0  0  0  0  0  0
    4.0971    3.4431    0.0000 C   0  0  0  0  0  0  0  0  0  0  0  0
    4.8831    3.7016    0.0000 O   0  0  0  0  0  0  0  0  0  0  0  0
  1  2  1  0
  1  3  1  0
  1 30  1  1
  2  4  1  0
  3  5  1  0
  4  6  1  0
  4  7  1  6
  5  6  1  0
  5  8  1  1
  6  9  1  6
  7 10  1  0
 11 12  1  0
 11 13  1  0
 11 14  1  0
 11 15  1  1
 12 16  1  0
 12 17  1  1
 13 18  1  0
 13 19  1  0
 13 20  1  1
 14 21  1  0
 15 22  2  0
 16 23  1  0
 16 24  1  6
 17 25  1  0
 18 26  1  0
 19 24  1  0
 21 26  1  0
 23 27  1  0
 23 28  1  0
 23 29  1  1
 25 27  1  0
 26 30  1  1
 27 31  1  0
 27 32  1  1
 28 33  1  0
 31 34  1  1
 31 33  1  0
 34 35  1  0
 34 36  2  0
 35 37  1  0
 36 38  1  0
 37 38  1  0
 38 39  2  0
M  END
>  <DRUGBANK_ID>  (1) 
DB13240

>  <COMMON_NAME>  (1) 
Cymarin

>  <CAS_NUMBER>  (1) 
508-77-0

>  <UNII>  (1) 
UK3LS8435E

>  <SYNONYMS>  (1) 
Cymarine

$$$$
