BAN
     RDKit          2D

 33 34  0  0  0  0  0  0  0  0999 V2000
   -3.6253   -0.2149    0.0000 O   0  0  0  0  0  0  0  0  0  0  0  0
   -3.4694   -1.0250    0.0000 N   0  0  0  0  0  0  0  0  0  0  0  0
   -2.6898   -1.2951    0.0000 C   0  0  0  0  0  0  0  0  0  0  0  0
   -2.0662   -0.7550    0.0000 O   0  0  0  0  0  0  0  0  0  0  0  0
   -2.5339   -2.1052    0.0000 C   0  0  0  0  0  0  0  0  0  0  0  0
   -3.1576   -2.6453    0.0000 C   0  0  0  0  0  0  0  0  0  0  0  0
   -3.9371   -2.3753    0.0000 C   0  0  0  0  0  0  0  0  0  0  0  0
   -4.5608   -2.9154    0.0000 C   0  0  0  0  0  0  0  0  0  0  0  0
   -4.0930   -1.5651    0.0000 C   0  0  0  0  0  0  0  0  0  0  0  0
   -5.3403   -2.6453    0.0000 C   0  0  0  0  0  0  0  0  0  0  0  0
   -4.8726   -1.2951    0.0000 C   0  0  0  0  0  0  0  0  0  0  0  0
   -5.4962   -1.8352    0.0000 C   0  0  0  0  0  0  0  0  0  0  0  0
   -1.7544   -2.3753    0.0000 C   0  0  0  0  0  0  0  0  0  0  0  0
   -1.5985   -3.1854    0.0000 O   0  0  0  0  0  0  0  0  0  0  0  0
   -1.1307   -1.8352    0.0000 N   0  0  0  0  0  0  0  0  0  0  0  0
   -0.3512   -2.1052    0.0000 C   0  0  0  0  0  0  0  0  0  0  0  0
   -0.1953   -2.9154    0.0000 C   0  0  0  0  0  0  0  0  0  0  0  0
    0.2725   -1.5651    0.0000 C   0  0  0  0  0  0  0  0  0  0  0  0
    0.1166   -0.7550    0.0000 O   0  0  0  0  0  0  0  0  0  0  0  0
    1.0520   -1.8352    0.0000 N   0  0  0  0  0  0  0  0  0  0  0  0
    1.6757   -1.2951    0.0000 C   0  0  0  0  0  0  0  0  0  0  0  0
    2.4552   -1.5651    0.0000 C   0  0  0  0  0  0  0  0  0  0  0  0
    2.6111   -2.3753    0.0000 O   0  0  0  0  0  0  0  0  0  0  0  0
    3.8584   -1.2951    0.0000 C   0  0  0  0  0  0  0  0  0  0  0  0
    4.4820   -0.7550    0.0000 C   0  0  0  0  0  0  0  0  0  0  0  0
    5.2616   -1.0250    0.0000 C   0  0  0  0  0  0  0  0  0  0  0  0
    5.4175   -1.8352    0.0000 C   0  0  0  0  0  0  0  0  0  0  0  0
    4.7939   -2.3753    0.0000 C   0  0  0  0  0  0  0  0  0  0  0  0
    4.0143   -2.1052    0.0000 C   0  0  0  0  0  0  0  0  0  0  0  0
    6.1971   -2.1052    0.0000 N   0  0  0  0  0  0  0  0  0  0  0  0
    6.8207   -1.5651    0.0000 O   0  0  0  0  0  0  0  0  0  0  0  0
    6.3530   -2.9154    0.0000 O   0  0  0  0  0  0  0  0  0  0  0  0
    3.0788   -1.0250    0.0000 N   0  0  0  0  0  0  0  0  0  0  0  0
  1  2  1  0
  2  3  1  0
  3  4  2  0
  3  5  1  0
  5  6  1  6
  5 13  1  0
  6  7  1  0
  7  8  2  0
  7  9  1  0
  8 10  1  0
  9 11  2  0
 10 12  2  0
 11 12  1  0
 13 14  2  0
 13 15  1  0
 15 16  1  0
 16 17  1  6
 16 18  1  0
 18 19  2  0
 18 20  1  0
 20 21  1  0
 21 22  1  0
 22 23  2  0
 22 33  1  0
 24 25  2  0
 24 29  1  0
 24 33  1  0
 25 26  1  0
 26 27  2  0
 27 28  1  0
 27 30  1  0
 28 29  2  0
 30 31  1  0
 30 32  2  0
M  CHG  2  30   1  31  -1
M  END
>  <DRUGBANK_ID>  (1) 
DB07434

>  <COMMON_NAME>  (1) 
HONH-BENZYLMALONYL-L-ALANYLGLYCINE-P-NITROANILIDE

$$$$
