TL3
     RDKit          2D

 28 31  0  0  0  0  0  0  0  0999 V2000
   -4.5027   -2.9462    0.0000 N   0  0  0  0  0  0  0  0  0  0  0  0
   -4.2478   -2.1616    0.0000 C   0  0  0  0  0  0  0  0  0  0  0  0
   -4.7998   -1.5485    0.0000 N   0  0  0  0  0  0  0  0  0  0  0  0
   -3.4408   -1.9901    0.0000 C   0  0  0  0  0  0  0  0  0  0  0  0
   -3.1859   -1.2055    0.0000 C   0  0  0  0  0  0  0  0  0  0  0  0
   -2.3789   -1.0339    0.0000 C   0  0  0  0  0  0  0  0  0  0  0  0
   -1.8269   -1.6470    0.0000 C   0  0  0  0  0  0  0  0  0  0  0  0
   -1.0199   -1.4755    0.0000 O   0  0  0  0  0  0  0  0  0  0  0  0
   -0.7650   -0.6909    0.0000 C   0  0  0  0  0  0  0  0  0  0  0  0
   -1.2499   -0.0234    0.0000 C   0  0  0  0  0  0  0  0  0  0  0  0
   -0.7650    0.6440    0.0000 O   0  0  0  0  0  0  0  0  0  0  0  0
    0.0197    0.3891    0.0000 C   0  0  0  0  0  0  0  0  0  0  0  0
    0.8043    0.6440    0.0000 C   0  0  0  0  0  0  0  0  0  0  0  0
    1.0592    1.4286    0.0000 O   0  0  0  0  0  0  0  0  0  0  0  0
    1.8662    1.6001    0.0000 C   0  0  0  0  0  0  0  0  0  0  0  0
    2.1211    2.3848    0.0000 C   0  0  0  0  0  0  0  0  0  0  0  0
    2.9281    2.5563    0.0000 C   0  0  0  0  0  0  0  0  0  0  0  0
    3.4801    1.9432    0.0000 C   0  0  0  0  0  0  0  0  0  0  0  0
    4.2871    2.1147    0.0000 C   0  0  0  0  0  0  0  0  0  0  0  0
    4.5420    2.8993    0.0000 N   0  0  0  0  0  0  0  0  0  0  0  0
    4.8391    1.5016    0.0000 N   0  0  0  0  0  0  0  0  0  0  0  0
    3.2252    1.1586    0.0000 C   0  0  0  0  0  0  0  0  0  0  0  0
    2.4182    0.9870    0.0000 C   0  0  0  0  0  0  0  0  0  0  0  0
    1.2892   -0.0234    0.0000 C   0  0  0  0  0  0  0  0  0  0  0  0
    0.8043   -0.6909    0.0000 O   0  0  0  0  0  0  0  0  0  0  0  0
    0.0197   -0.4359    0.0000 C   0  0  0  0  0  0  0  0  0  0  0  0
   -2.0818   -2.4317    0.0000 C   0  0  0  0  0  0  0  0  0  0  0  0
   -2.8888   -2.6032    0.0000 C   0  0  0  0  0  0  0  0  0  0  0  0
  1  2  2  0
  2  3  1  0
  2  4  1  0
  4  5  2  0
  4 28  1  0
  5  6  1  0
  6  7  2  0
  7  8  1  0
  7 27  1  0
  9  8  1  6
  9 10  1  0
  9 26  1  0
 10 11  1  0
 12 11  1  6
 12 13  1  0
 12 26  1  0
 13 14  1  1
 13 24  1  0
 14 15  1  0
 15 16  2  0
 15 23  1  0
 16 17  1  0
 17 18  2  0
 18 19  1  0
 18 22  1  0
 19 20  2  0
 19 21  1  0
 22 23  2  0
 24 25  1  0
 26 25  1  6
 27 28  2  0
M  END
>  <DRUGBANK_ID>  (1) 
DB04792

>  <COMMON_NAME>  (1) 
2,5-O,O-BIS-{4',4''-AMIDINOPHENYL}-1,4:3,6-DIANHYDRO-D-SORBITOL

$$$$
