
     RDKit          2D

 12 11  0  0  0  0  0  0  0  0999 V2000
    2.1434    1.0312    0.0000 O   0  0  0  0  0  0  0  0  0  0  0  0
    2.1434    0.2062    0.0000 C   0  0  0  0  0  0  0  0  0  0  0  0
    2.8579   -0.2062    0.0000 O   0  0  0  0  0  0  0  0  0  0  0  0
    1.4290   -0.2062    0.0000 C   0  0  0  0  0  0  0  0  0  0  0  0
    1.4290   -1.0312    0.0000 N   0  0  0  0  0  0  0  0  0  0  0  0
    0.7145    0.2062    0.0000 C   0  0  0  0  0  0  0  0  0  0  0  0
    0.0000   -0.2062    0.0000 C   0  0  0  0  0  0  0  0  0  0  0  0
   -0.7143    0.2062    0.0000 C   0  0  0  0  0  0  0  0  0  0  0  0
   -1.4288   -0.2062    0.0000 N   0  0  0  0  0  0  0  0  0  0  0  0
   -2.1433    0.2062    0.0000 C   0  0  0  0  0  0  0  0  0  0  0  0
   -2.1433    1.0312    0.0000 N   0  0  0  0  0  0  0  0  0  0  0  0
   -2.8579   -0.2062    0.0000 N   0  0  0  0  0  0  0  0  0  0  0  0
  2  1  2  0
  3  2  1  0
  4  2  1  0
  4  5  1  6
  6  4  1  0
  7  6  1  0
  7  8  1  0
  9  8  1  0
 10  9  1  0
 11 10  2  0
 12 10  1  0
M  END
>  <DRUGBANK_ID>  (1) 
DB04027

>  <SECONDARY_ACCESSION_NUMBERS>  (1) 
EXPT01113

>  <COMMON_NAME>  (1) 
D-arginine

>  <CAS_NUMBER>  (1) 
157-06-2

>  <UNII>  (1) 
R54Z304Z7C

>  <SYNONYMS>  (1) 
(2R)-2-amino-5-(carbamimidamido)pentanoic acid; (2R)-2-amino-5-guanidinopentanoic acid; (R)-2-amino-5-guanidinopentanoic acid; D-2-Amino-5-guanidinovaleric acid; D-Arginin

$$$$
