
     RDKit          2D

 22 24  0  0  1  0  0  0  0  0999 V2000
    4.5574   -2.5932    0.0000 Cl  0  0  0  0  0  0  0  0  0  0  0  0
    6.5467    0.4024    0.0000 O   0  0  0  0  0  0  0  0  0  0  0  0
    4.4710   -0.9455    0.0000 O   0  0  0  0  0  0  0  0  0  0  0  0
    3.8837    2.8103    0.0000 N   0  0  0  0  0  0  0  0  0  0  0  0
    5.1197    0.3277    0.0000 N   0  0  0  0  0  0  0  0  0  0  0  0
    6.0276   -3.3423    0.0000 N   0  0  0  0  0  0  0  0  0  0  0  0
    3.6702    2.0134    0.0000 C   0  0  0  0  0  0  0  0  0  0  0  0
    5.0766    1.1515    0.0000 C   0  0  0  0  0  0  0  0  0  0  0  0
    3.2760    3.6209    0.0000 C   0  0  0  0  0  0  0  0  0  0  0  0
    2.4037    0.9878    0.0000 C   0  0  0  0  0  0  0  0  0  0  0  0
    5.7177    1.6707    0.0000 C   0  0  0  0  0  0  0  0  0  0  0  0
    5.4221    2.4409    0.0000 C   0  0  0  0  0  0  0  0  0  0  0  0
    1.6500    1.3233    0.0000 C   0  0  0  0  0  0  0  0  0  0  0  0
    1.7362    2.1439    0.0000 C   0  0  0  0  0  0  0  0  0  0  0  0
    5.8548   -0.0469    0.0000 C   0  0  0  0  0  0  0  0  0  0  0  0
    5.8980   -0.8707    0.0000 C   0  0  0  0  0  0  0  0  0  0  0  0
    5.2061   -1.3201    0.0000 C   0  0  0  0  0  0  0  0  0  0  0  0
    6.6331   -1.2453    0.0000 C   0  0  0  0  0  0  0  0  0  0  0  0
    5.2493   -2.1439    0.0000 C   0  0  0  0  0  0  0  0  0  0  0  0
    6.6763   -2.0692    0.0000 C   0  0  0  0  0  0  0  0  0  0  0  0
    5.9843   -2.5185    0.0000 C   0  0  0  0  0  0  0  0  0  0  0  0
    3.7791   -1.3948    0.0000 C   0  0  0  0  0  0  0  0  0  0  0  0
  1 19  1  0
  2 15  2  0
  3 17  1  0
  3 22  1  0
  4  9  1  0
  4 12  1  0
  4 14  1  0
  5  8  1  0
  5 15  1  0
  6 21  1  0
  7  8  1  0
  7  9  1  0
  7 10  1  0
  8 11  1  0
 10 13  1  0
 11 12  1  0
 13 14  1  0
 15 16  1  0
 16 17  2  0
 16 18  1  0
 17 19  1  0
 18 20  2  0
 19 21  2  0
 20 21  1  0
M  END
>  <DRUGBANK_ID>  (1) 
DB04917

>  <COMMON_NAME>  (1) 
Renzapride

>  <CAS_NUMBER>  (1) 
112727-80-7

>  <UNII>  (1) 
9073C0W4E9

>  <SYNONYMS>  (1) 
Renzapride

$$$$
