
     RDKit          2D

  2  0  0  0  0  0  0  0  0  0999 V2000
    0.4125    0.0000    0.0000 Mg  0  0  0  0  0 15  0  0  0  0  0  0
   -0.4125    0.0000    0.0000 O   0  0  0  0  0  0  0  0  0  0  0  0
M  CHG  2   1   2   2  -2
M  END
>  <DRUGBANK_ID>  (1) 
DB01377

>  <COMMON_NAME>  (1) 
Magnesium oxide

>  <CAS_NUMBER>  (1) 
1309-48-4

>  <UNII>  (1) 
3A3U0GI71G

>  <SYNONYMS>  (1) 
Magnesia; Magnesium oxide

$$$$
