
     RDKit          2D

  1  0  0  0  0  0  0  0  0  0999 V2000
    0.0000    0.0000    0.0000 Sb  0  0  0  0  0 15  0  0  0  0  0  0
M  CHG  1   1   5
M  END
>  <DRUGBANK_ID>  (1) 
DB13047

>  <COMMON_NAME>  (1) 
Pentavalent Antimony

>  <CAS_NUMBER>  (1) 
22537-51-5

>  <UNII>  (1) 
841L03HG64

>  <SYNONYMS>  (1) 
Antimony cation (5+); SB5+

$$$$
