
     RDKit          2D

 35 38  0  0  1  0  0  0  0  0999 V2000
   -5.7158   -2.4750    0.0000 C   0  0  0  0  0  0  0  0  0  0  0  0
   -5.0013   -2.8875    0.0000 O   0  0  0  0  0  0  0  0  0  0  0  0
   -5.0013   -3.7125    0.0000 C   0  0  0  0  0  0  0  0  0  0  0  0
   -4.2868   -4.1250    0.0000 C   0  0  0  0  0  0  0  0  0  0  0  0
   -4.2868   -4.9500    0.0000 C   0  0  0  0  0  0  0  0  0  0  0  0
   -5.0013   -5.3625    0.0000 C   0  0  0  0  0  0  0  0  0  0  0  0
   -5.7158   -4.9500    0.0000 C   0  0  0  0  0  0  0  0  0  0  0  0
   -5.7158   -4.1250    0.0000 C   0  0  0  0  0  0  0  0  0  0  0  0
   -6.4302   -3.7125    0.0000 O   0  0  0  0  0  0  0  0  0  0  0  0
   -6.4302   -2.8875    0.0000 C   0  0  0  0  0  0  0  0  0  0  0  0
   -5.0013   -6.1875    0.0000 C   0  0  0  0  0  0  0  0  0  0  0  0
   -4.2868   -6.6000    0.0000 C   0  0  0  0  0  0  0  0  0  0  0  0
   -4.2868   -7.4250    0.0000 N   0  0  0  0  0  0  0  0  0  0  0  0
   -5.0013   -7.8375    0.0000 C   0  0  0  0  0  0  0  0  0  0  0  0
   -5.7158   -7.4250    0.0000 C   0  0  0  0  0  0  0  0  0  0  0  0
   -6.4302   -7.8375    0.0000 N   0  0  0  0  0  0  0  0  0  0  0  0
   -7.1447   -7.4250    0.0000 C   0  0  0  0  0  0  0  0  0  0  0  0
   -7.1447   -6.6000    0.0000 C   0  0  0  0  0  0  0  0  0  0  0  0
   -7.8592   -7.8375    0.0000 C   0  0  0  0  0  0  0  0  0  0  0  0
   -7.8592   -8.6625    0.0000 C   0  0  0  0  0  0  0  0  0  0  0  0
   -8.5737   -9.0750    0.0000 C   0  0  0  0  0  0  0  0  0  0  0  0
   -9.2881   -8.6625    0.0000 C   0  0  0  0  0  0  0  0  0  0  0  0
   -9.2881   -7.8375    0.0000 C   0  0  0  0  0  0  0  0  0  0  0  0
  -10.0026   -7.4250    0.0000 N   0  0  0  0  0  0  0  0  0  0  0  0
  -10.7171   -7.8375    0.0000 C   0  0  0  0  0  0  0  0  0  0  0  0
  -11.4315   -7.4250    0.0000 O   0  0  0  0  0  0  0  0  0  0  0  0
  -10.7171   -8.6625    0.0000 C   0  0  0  0  0  0  0  0  0  0  0  0
  -10.0026   -9.0750    0.0000 C   0  0  0  0  0  0  0  0  0  0  0  0
  -10.0026   -9.9000    0.0000 N   0  0  0  0  0  0  0  0  0  0  0  0
  -10.7171  -10.3125    0.0000 C   0  0  0  0  0  0  0  0  0  0  0  0
  -11.4315   -9.9000    0.0000 C   0  0  0  0  0  0  0  0  0  0  0  0
  -12.1460  -10.3125    0.0000 C   0  0  0  0  0  0  0  0  0  0  0  0
  -11.4315   -9.0750    0.0000 C   0  0  0  0  0  0  0  0  0  0  0  0
   -8.5737   -7.4250    0.0000 C   0  0  0  0  0  0  0  0  0  0  0  0
   -5.7158   -6.6000    0.0000 N   0  0  0  0  0  0  0  0  0  0  0  0
  1  2  1  0
  2  3  1  0
  3  4  2  0
  3  8  1  0
  4  5  1  0
  5  6  2  0
  6  7  1  0
  6 11  1  0
  7  8  2  0
  8  9  1  0
  9 10  1  0
 11 12  2  0
 11 35  1  0
 12 13  1  0
 13 14  2  0
 14 15  1  0
 15 16  1  0
 15 35  2  0
 17 16  1  0
 17 18  1  6
 17 19  1  0
 19 20  2  0
 19 34  1  0
 20 21  1  0
 21 22  2  0
 22 23  1  0
 23 24  1  0
 23 34  2  0
 24 25  1  0
 25 26  2  0
 25 27  1  0
 27 28  2  0
 27 33  1  0
 28 29  1  0
 29 30  2  0
 30 31  1  0
 31 32  1  0
 31 33  2  0
M  END
>  <DRUGBANK_ID>  (1) 
DB18072

>  <COMMON_NAME>  (1) 
Seralutinib

>  <CAS_NUMBER>  (1) 
1619931-27-9

>  <UNII>  (1) 
3P63ZTE3OY

>  <SYNONYMS>  (1) 
3-pyridinecarboxamide, n-(3-((1s)-1-((6-(3,4-dimethoxyphenyl)-2-pyrazinyl)amino)ethyl)phenyl)-5-methyl-; N-(3-((1s)-1-((6-(3,4-dimethoxyphenyl)-2-pyrazinyl)amino)ethyl)phenyl)-5-methyl-3-pyridinecarboxamide

$$$$
