CJH
     RDKit          2D

 24 25  0  0  0  0  0  0  0  0999 V2000
   -2.3125    3.8221    0.0000 C   0  0  0  0  0  0  0  0  0  0  0  0
   -2.3125    2.9971    0.0000 C   0  0  0  0  0  0  0  0  0  0  0  0
   -1.5980    2.5846    0.0000 O   0  0  0  0  0  0  0  0  0  0  0  0
   -1.5980    1.7596    0.0000 C   0  0  0  0  0  0  0  0  0  0  0  0
   -0.8836    1.3471    0.0000 C   0  0  0  0  0  0  0  0  0  0  0  0
   -2.3125    1.3471    0.0000 C   0  0  0  0  0  0  0  0  0  0  0  0
   -2.3125    0.5221    0.0000 C   0  0  0  0  0  0  0  0  0  0  0  0
   -1.5980    0.1096    0.0000 C   0  0  0  0  0  0  0  0  0  0  0  0
   -0.8836    0.5221    0.0000 C   0  0  0  0  0  0  0  0  0  0  0  0
   -0.1691    0.1096    0.0000 C   0  0  0  0  0  0  0  0  0  0  0  0
    0.5454    0.5221    0.0000 C   0  0  0  0  0  0  0  0  0  0  0  0
    1.2599    0.1096    0.0000 C   0  0  0  0  0  0  0  0  0  0  0  0
   -0.1691   -0.7154    0.0000 C   0  0  0  0  0  0  0  0  0  0  0  0
    0.5454   -1.1279    0.0000 C   0  0  0  0  0  0  0  0  0  0  0  0
    1.2599   -0.7154    0.0000 C   0  0  0  0  0  0  0  0  0  0  0  0
    1.9743   -1.1279    0.0000 N   0  0  0  0  0  0  0  0  0  0  0  0
    1.9743   -1.9529    0.0000 C   0  0  0  0  0  0  0  0  0  0  0  0
    1.2599   -2.3654    0.0000 O   0  0  0  0  0  0  0  0  0  0  0  0
    2.6888   -2.3654    0.0000 C   0  0  0  0  0  0  0  0  0  0  0  0
    2.6888   -3.1904    0.0000 C   0  0  0  0  0  0  0  0  0  0  0  0
    2.6888   -4.0154    0.0000 N   0  0  0  0  0  0  0  0  0  0  0  0
    3.4033   -1.9529    0.0000 C   0  0  0  0  0  0  0  0  0  0  0  0
    4.1177   -2.3654    0.0000 C   0  0  0  0  0  0  0  0  0  0  0  0
    3.4033   -1.1279    0.0000 O   0  0  0  0  0  0  0  0  0  0  0  0
  1  2  1  0
  2  3  1  0
  3  4  1  0
  4  5  2  0
  4  6  1  0
  5  9  1  0
  6  7  2  0
  7  8  1  0
  8  9  2  0
  9 10  1  0
 10 11  2  0
 10 13  1  0
 11 12  1  0
 12 15  2  0
 13 14  2  0
 14 15  1  0
 15 16  1  0
 16 17  1  0
 17 18  2  0
 17 19  1  0
 19 20  1  0
 19 22  2  0
 20 21  3  0
 22 23  1  0
 22 24  1  0
M  END
>  <DRUGBANK_ID>  (1) 
DB07561

>  <COMMON_NAME>  (1) 
(2Z)-2-cyano-N-(3'-ethoxybiphenyl-4-yl)-3-hydroxybut-2-enamide

$$$$
