
     RDKit          2D

 35 38  0  0  1  0  0  0  0  0999 V2000
   11.4071   -0.0423    0.0000 C   0  0  0  0  0  0  0  0  0  0  0  0
   10.6926    0.3702    0.0000 C   0  0  0  0  0  0  0  0  0  0  0  0
   -1.1387    1.4407    0.0000 C   0  0  0  0  0  0  0  0  0  0  0  0
   -0.7262    0.7262    0.0000 C   0  0  0  0  0  0  0  0  0  0  0  0
   -0.7262    2.1551    0.0000 C   0  0  0  0  0  0  0  0  0  0  0  0
    0.0988    0.7262    0.0000 C   0  0  0  0  0  0  0  0  0  0  0  0
    7.1203    2.4327    0.0000 C   0  0  0  0  0  0  0  0  0  0  0  0
    6.4058    1.1952    0.0000 C   0  0  0  0  0  0  0  0  0  0  0  0
    6.4058    2.8452    0.0000 C   0  0  0  0  0  0  0  0  0  0  0  0
    5.6913    1.6077    0.0000 C   0  0  0  0  0  0  0  0  0  0  0  0
    7.8347    0.3702    0.0000 C   0  0  0  0  0  0  0  0  0  0  0  0
    8.5492    1.6077    0.0000 C   0  0  0  0  0  0  0  0  0  0  0  0
    8.5492   -0.0423    0.0000 C   0  0  0  0  0  0  0  0  0  0  0  0
    9.2637    1.1952    0.0000 C   0  0  0  0  0  0  0  0  0  0  0  0
    2.8334    2.4327    0.0000 C   0  0  0  0  0  0  0  0  0  0  0  0
    2.1190    2.8452    0.0000 C   0  0  0  0  0  0  0  0  0  0  0  0
    4.2624    2.4327    0.0000 C   0  0  0  0  0  0  0  0  0  0  0  0
    7.1203    1.6077    0.0000 C   0  0  0  0  0  0  0  0  0  0  0  0
    7.8347    1.1952    0.0000 C   0  0  0  0  0  0  0  0  0  0  0  0
    5.6913    2.4327    0.0000 C   0  0  0  0  0  0  0  0  0  0  0  0
    3.5479    2.8452    0.0000 C   0  0  0  0  0  0  0  0  0  0  0  0
    9.2637    0.3702    0.0000 C   0  0  0  0  0  0  0  0  0  0  0  0
    0.0988    2.1551    0.0000 C   0  0  0  0  0  0  0  0  0  0  0  0
    0.5113    1.4407    0.0000 C   0  0  0  0  0  0  0  0  0  0  0  0
    4.9769    2.8452    0.0000 C   0  0  0  0  0  0  0  0  0  0  0  0
    0.6508    2.7682    0.0000 C   0  0  0  0  0  0  0  0  0  0  0  0
    1.3183    1.6122    0.0000 C   0  0  0  0  0  0  0  0  0  0  0  0
    3.5479    3.6702    0.0000 C   0  0  0  0  0  0  0  0  0  0  0  0
    1.4045    2.4327    0.0000 N   0  0  0  0  0  0  0  0  0  0  0  0
    4.9769    3.6702    0.0000 O   0  0  0  0  0  0  0  0  0  0  0  0
    0.4793    3.5752    0.0000 O   0  0  0  0  0  0  0  0  0  0  0  0
    1.9314    1.0602    0.0000 O   0  0  0  0  0  0  0  0  0  0  0  0
    4.2624    4.0827    0.0000 O   0  0  0  0  0  0  0  0  0  0  0  0
    2.8334    4.0827    0.0000 O   0  0  0  0  0  0  0  0  0  0  0  0
    9.9782   -0.0423    0.0000 O   0  0  0  0  0  0  0  0  0  0  0  0
  2  1  1  0
  4  3  2  0
  5  3  1  0
  6  4  1  0
  9  7  2  0
 10  8  1  0
 13 11  2  0
 14 12  1  0
 16 15  1  0
 18  7  1  0
 18  8  2  0
 19 11  1  0
 19 12  2  0
 19 18  1  0
 20  9  1  0
 20 10  2  0
 21 15  1  6
 21 17  1  0
 21 28  1  0
 22 13  1  0
 22 14  2  0
 23  5  2  0
 24  6  2  0
 24 23  1  0
 25 17  1  0
 25 20  1  0
 26 23  1  0
 27 24  1  0
 29 16  1  0
 29 26  1  0
 29 27  1  0
 30 25  2  0
 31 26  2  0
 32 27  2  0
 33 28  2  0
 34 28  1  0
 35  2  1  0
 35 22  1  0
M  END
>  <DRUGBANK_ID>  (1) 
DB04405

>  <SECONDARY_ACCESSION_NUMBERS>  (1) 
EXPT01160

>  <COMMON_NAME>  (1) 
2-[2-(1,3-Dioxo-1,3-Dihydro-2h-Isoindol-2-Yl)Ethyl]-4-(4'-Ethoxy-1,1'-Biphenyl-4-Yl)-4-Oxobutanoic Acid

$$$$
