
     RDKit          2D

 18 18  0  0  0  0  0  0  0  0999 V2000
    0.3572   -0.2036    0.0000 O   0  0  0  0  0  0  0  0  0  0  0  0
   -1.7863    0.2088    0.0000 O   0  0  0  0  0  0  0  0  0  0  0  0
   -1.7863   -1.4412    0.0000 O   0  0  0  0  0  0  0  0  0  0  0  0
   -0.3572   -2.2663    0.0000 O   0  0  0  0  0  0  0  0  0  0  0  0
    1.7863   -1.0287    0.0000 O   0  0  0  0  0  0  0  0  0  0  0  0
   -0.3572    1.6379    0.0000 O   0  0  0  0  0  0  0  0  0  0  0  0
   -0.2810    2.2663    0.0000 O   0  0  0  0  0  0  0  0  0  0  0  0
   -0.7698    0.9234    0.0000 N   0  0  0  0  0  0  0  0  0  0  0  0
    0.8803    0.9234    0.0000 N   0  0  0  0  0  0  0  0  0  0  0  0
   -1.0717   -0.2036    0.0000 C   0  0  0  0  0  0  0  0  0  0  0  0
   -0.3572    0.2088    0.0000 C   0  0  0  0  0  0  0  0  0  0  0  0
   -1.0717   -1.0287    0.0000 C   0  0  0  0  0  0  0  0  0  0  0  0
   -0.3572   -1.4412    0.0000 C   0  0  0  0  0  0  0  0  0  0  0  0
    0.3572   -1.0287    0.0000 C   0  0  0  0  0  0  0  0  0  0  0  0
    1.0717   -1.4412    0.0000 C   0  0  0  0  0  0  0  0  0  0  0  0
    0.0552    0.9234    0.0000 C   0  0  0  0  0  0  0  0  0  0  0  0
   -0.9132    1.7359    0.0000 C   0  0  0  0  0  0  0  0  0  0  0  0
   -1.6884    2.0181    0.0000 C   0  0  0  0  0  0  0  0  0  0  0  0
  1 11  1  0
  1 14  1  0
  5 15  1  0
  6 16  2  0
  7 17  2  0
  8 17  1  0
  9 16  1  0
 10  2  1  1
 10 11  1  0
 10 12  1  0
 11  8  1  6
 11 16  1  0
 12  3  1  6
 12 13  1  0
 13  4  1  1
 13 14  1  0
 14 15  1  6
 17 18  1  0
M  END
>  <DRUGBANK_ID>  (1) 
DB04544

>  <SECONDARY_ACCESSION_NUMBERS>  (1) 
EXPT01015

>  <COMMON_NAME>  (1) 
1-Deoxy-1-acetylamino-beta-D-gluco-2-heptulopyranosonamide

$$$$
