
     RDKit          2D

  4  3  0  0  0  0  0  0  0  0999 V2000
    1.2375    0.7145    0.0000 C   0  0  0  0  0  0  0  0  0  0  0  0
    0.8250    0.0000    0.0000 C   0  0  0  0  0  0  0  0  0  0  0  0
    1.2375   -0.7145    0.0000 O   0  0  0  0  0  0  0  0  0  0  0  0
    0.0000    0.0000    0.0000 O   0  0  0  0  0  0  0  0  0  0  0  0
  1  2  1  0
  2  3  1  0
  2  4  2  0
M  ISO  1   2  11
M  END
>  <DRUGBANK_ID>  (1) 
DB15111

>  <COMMON_NAME>  (1) 
Acetic acid C-11

>  <CAS_NUMBER>  (1) 
78887-71-5

>  <UNII>  (1) 
2A9OM7IPNW

>  <SYNONYMS>  (1) 
[11C]Acetic Acid; 11C-ACETATE

$$$$
