
     RDKit          2D

 10 10  0  0  0  0  0  0  0  0999 V2000
   -0.7144    1.2375    0.0000 C   0  0  0  0  0  0  0  0  0  0  0  0
    0.0000    0.8249    0.0000 C   0  0  0  0  0  0  0  0  0  0  0  0
    0.7144    1.2374    0.0000 C   0  0  0  0  0  0  0  0  0  0  0  0
    1.4288    0.8250    0.0000 C   0  0  0  0  0  0  0  0  0  0  0  0
    2.1433    1.2375    0.0000 N   0  0  0  0  0  0  0  0  0  0  0  0
    1.4289    0.0000    0.0000 C   0  0  0  0  0  0  0  0  0  0  0  0
    2.1433   -0.4125    0.0000 N   0  0  0  0  0  0  0  0  0  0  0  0
    0.7144   -0.4124    0.0000 C   0  0  0  0  0  0  0  0  0  0  0  0
    0.0000    0.0000    0.0000 C   0  0  0  0  0  0  0  0  0  0  0  0
   -0.7145   -0.4124    0.0000 C   0  0  0  0  0  0  0  0  0  0  0  0
  1  2  1  0
  2  3  2  0
  2  9  1  0
  3  4  1  0
  4  5  1  0
  4  6  2  0
  6  7  1  0
  6  8  1  0
  8  9  2  0
  9 10  1  0
M  END
>  <DRUGBANK_ID>  (1) 
DB03180

>  <SECONDARY_ACCESSION_NUMBERS>  (1) 
EXPT00037

>  <COMMON_NAME>  (1) 
4,5-Dimethyl-1,2-phenylenediamine

>  <CAS_NUMBER>  (1) 
3171-45-7

>  <UNII>  (1) 
1OJ9D3R6NH

>  <SYNONYMS>  (1) 
4,5-Dimethyl-o-phenylenediamine

$$$$
