
     RDKit          2D

 24 25  0  0  0  0  0  0  0  0999 V2000
    3.4618   -1.4289    0.0000 C   0  0  0  0  0  0  0  0  0  0  0  0
    4.6993    0.7145    0.0000 C   0  0  0  0  0  0  0  0  0  0  0  0
    4.2868   -1.4289    0.0000 C   0  0  0  0  0  0  0  0  0  0  0  0
    4.2868    0.0000    0.0000 C   0  0  0  0  0  0  0  0  0  0  0  0
   10.8868   -1.4289    0.0000 C   0  0  0  0  0  0  0  0  0  0  0  0
   10.4743   -0.7145    0.0000 C   0  0  0  0  0  0  0  0  0  0  0  0
   10.4743   -2.1434    0.0000 C   0  0  0  0  0  0  0  0  0  0  0  0
    7.9993    2.1434    0.0000 C   0  0  0  0  0  0  0  0  0  0  0  0
    7.1743    2.1434    0.0000 C   0  0  0  0  0  0  0  0  0  0  0  0
    9.6493   -0.7145    0.0000 C   0  0  0  0  0  0  0  0  0  0  0  0
    9.6493   -2.1434    0.0000 C   0  0  0  0  0  0  0  0  0  0  0  0
    8.4118    1.4289    0.0000 C   0  0  0  0  0  0  0  0  0  0  0  0
    6.7618    1.4289    0.0000 C   0  0  0  0  0  0  0  0  0  0  0  0
    8.4118   -1.4289    0.0000 C   0  0  0  0  0  0  0  0  0  0  0  0
    7.9993   -0.7145    0.0000 C   0  0  0  0  0  0  0  0  0  0  0  0
    5.5243   -0.7145    0.0000 C   0  0  0  0  0  0  0  0  0  0  0  0
    5.9368    0.0000    0.0000 C   0  0  0  0  0  0  0  0  0  0  0  0
    9.2368   -1.4289    0.0000 C   0  0  0  0  0  0  0  0  0  0  0  0
    7.9993    0.7145    0.0000 C   0  0  0  0  0  0  0  0  0  0  0  0
    8.4118    0.0000    0.0000 C   0  0  0  0  0  0  0  0  0  0  0  0
    7.1743    0.7145    0.0000 C   0  0  0  0  0  0  0  0  0  0  0  0
    4.6993   -0.7145    0.0000 N   0  0  0  0  0  0  0  0  0  0  0  0
    9.2368    0.0000    0.0000 O   0  0  0  0  0  0  0  0  0  0  0  0
    6.7618    0.0000    0.0000 O   0  0  0  0  0  0  0  0  0  0  0  0
  3  1  1  0
  4  2  1  0
  6  5  2  0
  7  5  1  0
  9  8  2  0
 10  6  1  0
 11  7  2  0
 12  8  1  0
 13  9  1  0
 15 14  1  0
 17 16  1  0
 18 10  2  0
 18 11  1  0
 18 14  1  0
 19 12  2  0
 20 15  1  0
 20 19  1  0
 21 13  2  0
 21 19  1  0
 22  3  1  0
 22  4  1  0
 22 16  1  0
 23 20  2  0
 24 17  1  0
 24 21  1  0
M  END
>  <DRUGBANK_ID>  (1) 
DB13845

>  <COMMON_NAME>  (1) 
Etafenone

>  <CAS_NUMBER>  (1) 
90-54-0

>  <UNII>  (1) 
0I14K589E7

>  <SYNONYMS>  (1) 
Etafenone

$$$$
