1NB
     RDKit          2D

 12 12  0  0  0  0  0  0  0  0999 V2000
    0.4611    0.4681    0.0000 C   0  0  0  0  0  0  0  0  0  0  0  0
    0.4611   -0.3569    0.0000 C   0  0  0  0  0  0  0  0  0  0  0  0
    1.1285   -0.8418    0.0000 C   0  0  0  0  0  0  0  0  0  0  0  0
   -0.2534    1.7056    0.0000 C   0  0  0  0  0  0  0  0  0  0  0  0
    1.8900    0.4681    0.0000 O   0  0  0  0  0  0  0  0  0  0  0  0
   -0.9910   -0.5868    0.0000 O   0  0  0  0  0  0  0  0  0  0  0  0
    0.8736   -1.6264    0.0000 C   0  0  0  0  0  0  0  0  0  0  0  0
   -0.2064   -0.8418    0.0000 C   0  0  0  0  0  0  0  0  0  0  0  0
   -0.2534    0.8806    0.0000 C   0  0  0  0  0  0  0  0  0  0  0  0
    0.0486   -1.6264    0.0000 C   0  0  0  0  0  0  0  0  0  0  0  0
   -0.9679    2.1181    0.0000 C   0  0  0  0  0  0  0  0  0  0  0  0
    1.1756    0.8806    0.0000 C   0  0  0  0  0  0  0  0  0  0  0  0
  1  9  1  1
  1 12  1  0
  2  1  1  0
  2  3  1  1
  2  8  1  0
  3  7  1  0
  4  9  1  0
  4 11  2  0
  5 12  2  0
  7 10  1  0
  8  6  1  6
  8 10  1  0
M  END
>  <DRUGBANK_ID>  (1) 
DB06901

>  <COMMON_NAME>  (1) 
2-(2-HYDROXY-CYCLOPENTYL)-PENT-4-ENAL

$$$$
