AED
     RDKit          2D

 16 17  0  0  0  0  0  0  0  0999 V2000
   -0.8034   -0.8844    0.0000 C   0  0  0  0  0  0  0  0  0  0  0  0
    1.3400   -0.4719    0.0000 C   0  0  0  0  0  0  0  0  0  0  0  0
    0.6255   -1.7094    0.0000 C   0  0  0  0  0  0  0  0  0  0  0  0
   -0.8034    0.7656    0.0000 C   0  0  0  0  0  0  0  0  0  0  0  0
   -1.5179   -0.4719    0.0000 C   0  0  0  0  0  0  0  0  0  0  0  0
    2.0545   -0.8844    0.0000 C   0  0  0  0  0  0  0  0  0  0  0  0
   -0.8034    1.5906    0.0000 C   0  0  0  0  0  0  0  0  0  0  0  0
   -1.5179    2.0031    0.0000 C   0  0  0  0  0  0  0  0  0  0  0  0
   -0.8034   -1.7094    0.0000 O   0  0  0  0  0  0  0  0  0  0  0  0
   -1.5179    0.3531    0.0000 C   0  0  0  0  0  0  0  0  0  0  0  0
   -1.5179    2.8281    0.0000 N   0  0  0  0  0  0  0  0  0  0  0  0
   -0.0889    0.3531    0.0000 C   0  0  0  0  0  0  0  0  0  0  0  0
   -0.0889   -0.4719    0.0000 C   0  0  0  0  0  0  0  0  0  0  0  0
    0.6255   -0.8844    0.0000 C   0  0  0  0  0  0  0  0  0  0  0  0
    2.0545   -1.7094    0.0000 C   0  0  0  0  0  0  0  0  0  0  0  0
    1.3400   -2.1219    0.0000 C   0  0  0  0  0  0  0  0  0  0  0  0
  1  5  2  0
  1  9  1  0
  1 13  1  0
  2  6  1  0
  2 14  1  0
  3 14  1  0
  3 16  1  0
  4  7  1  0
  4 10  2  0
  4 12  1  0
  5 10  1  0
  6 15  1  0
  7  8  1  0
  8 11  1  0
 12 13  2  0
 13 14  1  0
 15 16  1  0
M  END
>  <DRUGBANK_ID>  (1) 
DB07345

>  <COMMON_NAME>  (1) 
4-(2-aminoethyl)-2-cyclohexylphenol

$$$$
