
     RDKit          2D

 20 23  0  0  0  0  0  0  0  0999 V2000
    0.4071    0.0055    0.0000 C   0  0  0  0  0  0  0  0  0  0  0  0
   -0.4071   -0.0037    0.0000 C   0  0  0  0  0  0  0  0  0  0  0  0
    0.9142   -0.6385    0.0000 C   0  0  0  0  0  0  0  0  0  0  0  0
    0.8810    0.6940    0.0000 N   0  0  0  0  0  0  0  0  0  0  0  0
   -0.9106    0.6404    0.0000 C   0  0  0  0  0  0  0  0  0  0  0  0
   -0.8810   -0.6922    0.0000 N   0  0  0  0  0  0  0  0  0  0  0  0
    1.6917   -0.3664    0.0000 C   0  0  0  0  0  0  0  0  0  0  0  0
    0.6811   -1.4326    0.0000 O   0  0  0  0  0  0  0  0  0  0  0  0
    1.6677    0.4589    0.0000 C   0  0  0  0  0  0  0  0  0  0  0  0
   -1.6935    0.3646    0.0000 C   0  0  0  0  0  0  0  0  0  0  0  0
   -0.6811    1.4326    0.0000 O   0  0  0  0  0  0  0  0  0  0  0  0
   -1.6694   -0.4571    0.0000 C   0  0  0  0  0  0  0  0  0  0  0  0
    2.4191   -0.7551    0.0000 C   0  0  0  0  0  0  0  0  0  0  0  0
    2.3783    0.8903    0.0000 C   0  0  0  0  0  0  0  0  0  0  0  0
   -2.4246    0.7570    0.0000 C   0  0  0  0  0  0  0  0  0  0  0  0
   -2.3783   -0.8903    0.0000 C   0  0  0  0  0  0  0  0  0  0  0  0
    3.1298   -0.3238    0.0000 C   0  0  0  0  0  0  0  0  0  0  0  0
    3.1039    0.4923    0.0000 C   0  0  0  0  0  0  0  0  0  0  0  0
   -3.1298    0.3201    0.0000 C   0  0  0  0  0  0  0  0  0  0  0  0
   -3.1021   -0.4942    0.0000 C   0  0  0  0  0  0  0  0  0  0  0  0
  1  2  2  0
  1  3  1  0
  1  4  1  0
  2  5  1  0
  2  6  1  0
  3  7  1  0
  3  8  2  0
  4  9  1  0
  5 10  1  0
  5 11  2  0
  6 12  1  0
  7 13  1  0
  7  9  2  0
  9 14  1  0
 10 15  1  0
 10 12  2  0
 12 16  1  0
 13 17  2  0
 14 18  2  0
 15 19  2  0
 16 20  2  0
 17 18  1  0
 19 20  1  0
M  END
>  <DRUGBANK_ID>  (1) 
DB16862

>  <COMMON_NAME>  (1) 
Indigo

>  <CAS_NUMBER>  (1) 
482-89-3

>  <UNII>  (1) 
1G5BK41P4F

>  <SYNONYMS>  (1) 
D&C Blue No. 6; Indigotin

$$$$
