BNT
     RDKit          2D

 14 14  0  0  0  0  0  0  0  0999 V2000
    1.0558    1.0520    0.0000 C   0  0  0  0  0  0  0  0  0  0  0  0
    1.0558    0.2270    0.0000 C   0  0  0  0  0  0  0  0  0  0  0  0
    1.7703   -0.1855    0.0000 C   0  0  0  0  0  0  0  0  0  0  0  0
    0.3413   -0.1855    0.0000 C   0  0  0  0  0  0  0  0  0  0  0  0
    0.3413   -1.0105    0.0000 C   0  0  0  0  0  0  0  0  0  0  0  0
    1.0558   -1.4230    0.0000 O   0  0  0  0  0  0  0  0  0  0  0  0
   -0.3731   -1.4230    0.0000 C   0  0  0  0  0  0  0  0  0  0  0  0
   -0.3731   -2.2480    0.0000 Br  0  0  0  0  0  0  0  0  0  0  0  0
   -1.0876   -1.0105    0.0000 C   0  0  0  0  0  0  0  0  0  0  0  0
   -1.8021   -1.4230    0.0000 C   0  0  0  0  0  0  0  0  0  0  0  0
   -1.0876   -0.1855    0.0000 C   0  0  0  0  0  0  0  0  0  0  0  0
   -1.8021    0.2270    0.0000 O   0  0  0  0  0  0  0  0  0  0  0  0
   -0.3731    0.2270    0.0000 C   0  0  0  0  0  0  0  0  0  0  0  0
   -0.3731    1.0520    0.0000 Br  0  0  0  0  0  0  0  0  0  0  0  0
  1  2  1  0
  2  3  1  0
  2  4  1  0
  4  5  1  0
  4 13  2  0
  5  6  2  0
  5  7  1  0
  7  8  1  0
  7  9  2  0
  9 10  1  0
  9 11  1  0
 11 12  2  0
 11 13  1  0
 13 14  1  0
M  END
>  <DRUGBANK_ID>  (1) 
DB04646

>  <COMMON_NAME>  (1) 
Dibromothymoquinone

>  <CAS_NUMBER>  (1) 
29096-93-3

>  <UNII>  (1) 
0BY5UFN2U6

>  <SYNONYMS>  (1) 
2,5-dibromo-3-isopropyl-6-methyl-1,4-benzoquinone; 2,5-dibromo-3-isopropyl-6-methylbenzoquinone; 2,5-dibromo-3-methyl-6-(1-methylethyl)-2,5-cyclohexadiene-1,4-dione; 2,5-dibromo-3-methyl-6-(1-methylethyl)cyclohexa-2,5-diene-1,4-dione

$$$$
