
     RDKit          2D

 10  9  0  0  1  0  0  0  0  0999 V2000
    1.9520    1.9520    0.0000 C   0  0  0  0  0  0  0  0  0  0  0  0
    1.9520    1.1270    0.0000 C   0  0  0  0  0  0  0  0  0  0  0  0
    1.2375    0.7145    0.0000 O   0  0  0  0  0  0  0  0  0  0  0  0
    0.5230    1.1270    0.0000 P   0  0  0  0  0  0  0  0  0  0  0  0
   -0.1914    1.5395    0.0000 O   0  0  0  0  0  0  0  0  0  0  0  0
    0.1105    0.4125    0.0000 O   0  0  0  0  0  0  0  0  0  0  0  0
    0.9355    1.8414    0.0000 O   0  0  0  0  0  0  0  0  0  0  0  0
    2.6664    0.7145    0.0000 C   0  0  0  0  0  0  0  0  0  0  0  0
    3.3809    1.1270    0.0000 O   0  0  0  0  0  0  0  0  0  0  0  0
    2.6664   -0.1105    0.0000 O   0  0  0  0  0  0  0  0  0  0  0  0
  2  1  1  6
  2  3  1  0
  2  8  1  0
  3  4  1  0
  4  5  1  0
  4  6  1  0
  4  7  2  0
  8  9  1  0
  8 10  2  0
M  END
>  <DRUGBANK_ID>  (1) 
DB01733

>  <SECONDARY_ACCESSION_NUMBERS>  (1) 
EXPT02551

>  <COMMON_NAME>  (1) 
L-Phospholactate

$$$$
