
     RDKit          2D

 19 21  0  0  1  0  0  0  0  0999 V2000
    3.0892   -2.2186    0.0000 N   0  0  0  0  0  0  0  0  0  0  0  0
    3.8037   -1.8060    0.0000 C   0  0  0  0  0  0  0  0  0  0  0  0
    4.5181   -2.2186    0.0000 O   0  0  0  0  0  0  0  0  0  0  0  0
    3.8037   -0.9811    0.0000 N   0  0  0  0  0  0  0  0  0  0  0  0
    4.5470   -0.6231    0.0000 C   0  0  0  0  0  0  0  0  0  0  0  0
    5.1517   -1.1842    0.0000 C   0  0  0  0  0  0  0  0  0  0  0  0
    5.9401   -0.9411    0.0000 C   0  0  0  0  0  0  0  0  0  0  0  0
    6.1237   -0.1368    0.0000 C   0  0  0  0  0  0  0  0  0  0  0  0
    5.5189    0.4243    0.0000 C   0  0  0  0  0  0  0  0  0  0  0  0
    4.7305    0.1811    0.0000 C   0  0  0  0  0  0  0  0  0  0  0  0
    4.2162    0.8262    0.0000 C   0  0  0  0  0  0  0  0  0  0  0  0
    3.3912    0.8262    0.0000 C   0  0  0  0  0  0  0  0  0  0  0  0
    2.8768    0.1811    0.0000 C   0  0  0  0  0  0  0  0  0  0  0  0
    3.0604   -0.6231    0.0000 C   0  0  0  0  0  0  0  0  0  0  0  0
    2.4556   -1.1842    0.0000 C   0  0  0  0  0  0  0  0  0  0  0  0
    1.6673   -0.9411    0.0000 C   0  0  0  0  0  0  0  0  0  0  0  0
    1.4837   -0.1368    0.0000 C   0  0  0  0  0  0  0  0  0  0  0  0
    2.0884    0.4243    0.0000 C   0  0  0  0  0  0  0  0  0  0  0  0
    4.5518    1.5798    0.0000 O   0  0  0  0  0  0  0  0  0  0  0  0
  1  2  1  0
  2  3  2  0
  2  4  1  0
  4  5  1  0
  4 14  1  0
  5  6  2  0
  5 10  1  0
  6  7  1  0
  7  8  2  0
  8  9  1  0
  9 10  2  0
 10 11  1  0
 11 12  1  0
 11 19  1  6
 12 13  1  0
 13 14  2  0
 13 18  1  0
 14 15  1  0
 15 16  2  0
 16 17  1  0
 17 18  2  0
M  END
>  <DRUGBANK_ID>  (1) 
DB14575

>  <COMMON_NAME>  (1) 
Eslicarbazepine

>  <CAS_NUMBER>  (1) 
104746-04-5

>  <UNII>  (1) 
S5VXA428R4

>  <SYNONYMS>  (1) 
Eslicarbazepina; Eslicarbazepine; S(+)-Liscarbazepine

$$$$
