
     RDKit          2D

 31 35  0  0  0  0  0  0  0  0999 V2000
   -1.0257   -0.6191    0.0000 C   0  0  0  0  0  0  0  0  0  0  0  0
   -0.3110   -0.2067    0.0000 N   0  0  0  0  0  0  0  0  0  0  0  0
    0.4010   -0.6187    0.0000 N   0  0  0  0  0  0  0  0  0  0  0  0
    0.4010   -1.4441    0.0000 C   0  0  0  0  0  0  0  0  0  0  0  0
   -0.3093   -1.8557    0.0000 N   0  0  0  0  0  0  0  0  0  0  0  0
   -1.0257   -1.4478    0.0000 C   0  0  0  0  0  0  0  0  0  0  0  0
    1.1784   -1.6988    0.0000 N   0  0  0  0  0  0  0  0  0  0  0  0
    1.6648   -1.0356    0.0000 C   0  0  0  0  0  0  0  0  0  0  0  0
    1.1881   -0.3708    0.0000 C   0  0  0  0  0  0  0  0  0  0  0  0
   -1.7401   -0.2065    0.0000 C   0  0  0  0  0  0  0  0  0  0  0  0
    1.6005    0.3437    0.0000 C   0  0  0  0  0  0  0  0  0  0  0  0
    2.4255    0.3437    0.0000 C   0  0  0  0  0  0  0  0  0  0  0  0
    2.8384    1.0581    0.0000 C   0  0  0  0  0  0  0  0  0  0  0  0
    3.6610    1.0573    0.0000 C   0  0  0  0  0  0  0  0  0  0  0  0
    4.0735    0.3427    0.0000 C   0  0  0  0  0  0  0  0  0  0  0  0
    3.6645   -0.3691    0.0000 C   0  0  0  0  0  0  0  0  0  0  0  0
    2.8399   -0.3739    0.0000 C   0  0  0  0  0  0  0  0  0  0  0  0
    4.0727    1.7695    0.0000 C   0  0  0  0  0  0  0  0  0  0  0  0
    4.8982    1.7698    0.0000 C   0  0  0  0  0  0  0  0  0  0  0  0
    5.3104    1.0596    0.0000 C   0  0  0  0  0  0  0  0  0  0  0  0
    4.9023    0.3429    0.0000 N   0  0  0  0  0  0  0  0  0  0  0  0
   -2.4548   -0.6189    0.0000 C   0  0  0  0  0  0  0  0  0  0  0  0
   -3.1668   -0.2069    0.0000 C   0  0  0  0  0  0  0  0  0  0  0  0
   -3.1668    0.6182    0.0000 C   0  0  0  0  0  0  0  0  0  0  0  0
   -2.4566    1.0300    0.0000 C   0  0  0  0  0  0  0  0  0  0  0  0
   -1.7401    0.6219    0.0000 C   0  0  0  0  0  0  0  0  0  0  0  0
   -3.8813    1.0307    0.0000 C   0  0  0  0  0  0  0  0  0  0  0  0
   -4.5959    0.6182    0.0000 N   0  0  0  0  0  0  0  0  0  0  0  0
   -5.3104    1.0307    0.0000 C   0  0  0  0  0  0  0  0  0  0  0  0
   -3.8813   -0.6195    0.0000 F   0  0  0  0  0  0  0  0  0  0  0  0
   -3.8813    1.8557    0.0000 O   0  0  0  0  0  0  0  0  0  0  0  0
  1  6  1  0
  1 10  1  0
  2  1  2  0
  3  2  1  0
  3  9  1  0
  4  3  1  0
  4  7  2  0
  5  4  1  0
  6  5  2  0
  7  8  1  0
  8  9  2  0
  9 11  1  0
 10 26  1  0
 11 12  1  0
 12 17  1  0
 13 12  2  0
 14 13  1  0
 14 18  2  0
 15 14  1  0
 15 21  2  0
 16 15  1  0
 17 16  2  0
 19 18  1  0
 20 19  2  0
 21 20  1  0
 22 10  2  0
 23 22  1  0
 23 30  1  0
 24 23  2  0
 24 27  1  0
 25 24  1  0
 26 25  2  0
 27 28  1  0
 27 31  2  0
 28 29  1  0
M  END
>  <DRUGBANK_ID>  (1) 
DB11791

>  <COMMON_NAME>  (1) 
Capmatinib

>  <CAS_NUMBER>  (1) 
1029712-80-8

>  <UNII>  (1) 
TY34L4F9OZ

>  <SYNONYMS>  (1) 
Capmatinib

$$$$
