
     RDKit          2D

 33 35  0  0  0  0  0  0  0  0999 V2000
   -2.1409   -1.2375    0.0000 C   0  0  0  0  0  0  0  0  0  0  0  0
   -2.8587   -1.6500    0.0000 C   0  0  0  0  0  0  0  0  0  0  0  0
   -2.8587   -2.4749    0.0000 C   0  0  0  0  0  0  0  0  0  0  0  0
   -2.1409   -2.8875    0.0000 C   0  0  0  0  0  0  0  0  0  0  0  0
   -1.4313   -1.6500    0.0000 C   0  0  0  0  0  0  0  0  0  0  0  0
   -1.4313   -2.4749    0.0000 C   0  0  0  0  0  0  0  0  0  0  0  0
   -0.7136   -2.8875    0.0000 C   0  0  0  0  0  0  0  0  0  0  0  0
   -0.0040   -2.4749    0.0000 C   0  0  0  0  0  0  0  0  0  0  0  0
   -0.0040   -1.6500    0.0000 C   0  0  0  0  0  0  0  0  0  0  0  0
   -0.7136   -1.2375    0.0000 O   0  0  0  0  0  0  0  0  0  0  0  0
    0.7136   -1.2375    0.0000 O   0  0  0  0  0  0  0  0  0  0  0  0
   -0.7136   -3.7125    0.0000 O   0  0  0  0  0  0  0  0  0  0  0  0
    0.7136   -2.8875    0.0000 C   0  0  0  0  0  0  0  0  0  0  0  0
    0.7136   -3.7125    0.0000 C   0  0  0  0  0  0  0  0  0  0  0  0
    1.4313   -4.1251    0.0000 C   0  0  0  0  0  0  0  0  0  0  0  0
    1.4313   -2.4749    0.0000 C   0  0  0  0  0  0  0  0  0  0  0  0
    2.1409   -1.2375    0.0000 C   0  0  0  0  0  0  0  0  0  0  0  0
    1.4313   -1.6500    0.0000 C   0  0  0  0  0  0  0  0  0  0  0  0
    2.1409   -2.8875    0.0000 C   0  0  0  0  0  0  0  0  0  0  0  0
    2.8587   -2.4749    0.0000 C   0  0  0  0  0  0  0  0  0  0  0  0
    2.8587   -1.6500    0.0000 C   0  0  0  0  0  0  0  0  0  0  0  0
    2.1409   -0.4125    0.0000 N   0  0  0  0  0  0  0  0  0  0  0  0
    1.4313    0.0000    0.0000 C   0  0  0  0  0  0  0  0  0  0  0  0
    0.7136   -0.4125    0.0000 O   0  0  0  0  0  0  0  0  0  0  0  0
    1.4313    0.8249    0.0000 C   0  0  0  0  0  0  0  0  0  0  0  0
    0.7136    1.2375    0.0000 N   0  0  0  0  0  0  0  0  0  0  0  0
    0.7136    2.0624    0.0000 C   0  0  0  0  0  0  0  0  0  0  0  0
    1.4313    2.4749    0.0000 O   0  0  0  0  0  0  0  0  0  0  0  0
   -0.0040    2.4749    0.0000 O   0  0  0  0  0  0  0  0  0  0  0  0
   -0.0040    3.3000    0.0000 C   0  0  0  0  0  0  0  0  0  0  0  0
   -0.0040    4.1251    0.0000 C   0  0  0  0  0  0  0  0  0  0  0  0
   -0.8291    3.3000    0.0000 C   0  0  0  0  0  0  0  0  0  0  0  0
    0.8208    3.3000    0.0000 C   0  0  0  0  0  0  0  0  0  0  0  0
  1  2  2  0
  1  5  1  0
  2  3  1  0
  3  4  2  0
  4  6  1  0
  5 10  1  0
  5  6  2  0
  6  7  1  0
  7  8  2  0
  7 12  1  0
  8  9  1  0
  8 13  1  0
  9 10  1  0
  9 11  2  0
 13 16  1  0
 13 14  1  6
 14 15  1  0
 16 18  1  0
 16 19  2  0
 17 18  2  0
 17 21  1  0
 17 22  1  0
 19 20  1  0
 20 21  2  0
 22 23  1  0
 23 25  1  0
 23 24  2  0
 25 26  1  0
 26 27  1  0
 27 29  1  0
 27 28  2  0
 29 30  1  0
 30 31  1  0
 30 32  1  0
 30 33  1  0
M  END
>  <DRUGBANK_ID>  (1) 
DB08664

>  <COMMON_NAME>  (1) 
({3-[1-(4-Hydroxy-2-oxo-2H-chromen-3-yl)-propyl]-phenylcarbamoyl}-methyl)-carbamic acid tert-butyl ester

>  <SYNONYMS>  (1) 
tert-butyl N-[({3-[(1S)-1-(4-hydroxy-2-oxo-2H-chromen-3-yl)propyl]phenyl}carbamoyl)methyl]carbamate

$$$$
