
     RDKit          2D

 25 25  0  0  0  0  0  0  0  0999 V2000
    2.7745   -1.1312    0.0000 S   0  0  0  0  0  0  0  0  0  0  0  0
    3.1443    2.2408    0.0000 S   0  0  0  0  0  0  0  0  0  0  0  0
    0.7828    0.8604    0.0000 O   0  0  0  0  0  0  0  0  0  0  0  0
    4.1548    1.2303    0.0000 O   0  0  0  0  0  0  0  0  0  0  0  0
   -0.2275   -0.1207    0.0000 O   0  0  0  0  0  0  0  0  0  0  0  0
    3.7850   -0.1499    0.0000 O   0  0  0  0  0  0  0  0  0  0  0  0
    3.9413    2.0272    0.0000 O   0  0  0  0  0  0  0  0  0  0  0  0
   -4.1548   -2.0272    0.0000 O   0  0  0  0  0  0  0  0  0  0  0  0
   -3.1443   -3.0376    0.0000 O   0  0  0  0  0  0  0  0  0  0  0  0
    2.1911    0.2771    0.0000 N   0  0  0  0  0  0  0  0  0  0  0  0
    0.7828   -1.1312    0.0000 N   0  0  0  0  0  0  0  0  0  0  0  0
   -2.9881   -0.8604    0.0000 N   0  0  0  0  0  0  0  0  0  0  0  0
    1.3661   -0.5478    0.0000 C   0  0  0  0  0  0  0  0  0  0  0  0
    2.1911   -0.5478    0.0000 C   0  0  0  0  0  0  0  0  0  0  0  0
    1.3661    0.2771    0.0000 C   0  0  0  0  0  0  0  0  0  0  0  0
    2.7745    0.8604    0.0000 C   0  0  0  0  0  0  0  0  0  0  0  0
    2.5610    1.6573    0.0000 C   0  0  0  0  0  0  0  0  0  0  0  0
   -0.0140   -0.9177    0.0000 C   0  0  0  0  0  0  0  0  0  0  0  0
    3.5715    0.6469    0.0000 C   0  0  0  0  0  0  0  0  0  0  0  0
   -0.5974   -1.5011    0.0000 C   0  0  0  0  0  0  0  0  0  0  0  0
   -1.3943   -1.2875    0.0000 C   0  0  0  0  0  0  0  0  0  0  0  0
   -1.9776   -1.8709    0.0000 C   0  0  0  0  0  0  0  0  0  0  0  0
   -2.7746   -1.6573    0.0000 C   0  0  0  0  0  0  0  0  0  0  0  0
    2.9308    3.0376    0.0000 C   0  0  0  0  0  0  0  0  0  0  0  0
   -3.3579   -2.2408    0.0000 C   0  0  0  0  0  0  0  0  0  0  0  0
 14  1  1  6
  2  7  2  0
  2 17  1  0
  2 24  1  0
  3 15  2  0
  4 19  1  0
  5 18  2  0
  6 19  2  0
  8 25  1  0
  9 25  2  0
 10 14  1  0
 10 15  1  0
 10 16  1  0
 11 18  1  0
 13 11  1  6
 13 14  1  0
 13 15  1  0
 16 17  1  6
 16 19  1  0
 18 20  1  0
 20 21  1  0
 21 22  1  0
 22 23  1  0
 23 12  1  1
 23 25  1  0
M  END
>  <DRUGBANK_ID>  (1) 
DB03004

>  <SECONDARY_ACCESSION_NUMBERS>  (1) 
EXPT00419

>  <COMMON_NAME>  (1) 
(2S)-2-amino-6-[[(3R,4R)-1-[(1S)-1-carboxy-2-[(S)-methylsulfinyl]ethyl]-2-oxo-4-sulfanylazetidin-3-yl]amino]-6-oxohexanoic acid

$$$$
