GS6
     RDKit          2D

 30 33  0  0  0  0  0  0  0  0999 V2000
    5.0241   -1.8077    0.0000 Cl  0  0  0  0  0  0  0  0  0  0  0  0
    4.3096   -1.3952    0.0000 C   0  0  0  0  0  0  0  0  0  0  0  0
    3.5952   -1.8077    0.0000 C   0  0  0  0  0  0  0  0  0  0  0  0
    2.8807   -1.3952    0.0000 C   0  0  0  0  0  0  0  0  0  0  0  0
    2.8807   -0.5702    0.0000 C   0  0  0  0  0  0  0  0  0  0  0  0
    2.0961   -0.3153    0.0000 C   0  0  0  0  0  0  0  0  0  0  0  0
    3.5952   -0.1577    0.0000 C   0  0  0  0  0  0  0  0  0  0  0  0
    4.3096   -0.5702    0.0000 C   0  0  0  0  0  0  0  0  0  0  0  0
    1.6112   -0.9827    0.0000 C   0  0  0  0  0  0  0  0  0  0  0  0
    0.7862   -0.9827    0.0000 S   0  0  0  0  0  0  0  0  0  0  0  0
    0.7862   -0.1577    0.0000 O   0  0  0  0  0  0  0  0  0  0  0  0
    0.7862   -1.8077    0.0000 O   0  0  0  0  0  0  0  0  0  0  0  0
   -0.0388   -0.9827    0.0000 N   0  0  0  0  0  0  0  0  0  0  0  0
   -0.4513   -1.6972    0.0000 C   0  0  0  0  0  0  0  0  0  0  0  0
   -0.1158   -2.4508    0.0000 C   0  0  0  0  0  0  0  0  0  0  0  0
   -0.7289   -3.0029    0.0000 C   0  0  0  0  0  0  0  0  0  0  0  0
   -1.2718   -1.7834    0.0000 C   0  0  0  0  0  0  0  0  0  0  0  0
   -1.8239   -1.1703    0.0000 O   0  0  0  0  0  0  0  0  0  0  0  0
   -1.4433   -2.5904    0.0000 N   0  0  0  0  0  0  0  0  0  0  0  0
   -2.1970   -2.9259    0.0000 C   0  0  0  0  0  0  0  0  0  0  0  0
   -2.8645   -2.4410    0.0000 C   0  0  0  0  0  0  0  0  0  0  0  0
   -2.2833   -3.7464    0.0000 C   0  0  0  0  0  0  0  0  0  0  0  0
   -1.6158   -4.2313    0.0000 O   0  0  0  0  0  0  0  0  0  0  0  0
   -3.0369   -4.0820    0.0000 N   0  0  0  0  0  0  0  0  0  0  0  0
   -3.1232   -4.9025    0.0000 C   0  0  0  0  0  0  0  0  0  0  0  0
   -3.8768   -5.2380    0.0000 C   0  0  0  0  0  0  0  0  0  0  0  0
   -4.5443   -4.7531    0.0000 O   0  0  0  0  0  0  0  0  0  0  0  0
   -4.4580   -3.9326    0.0000 C   0  0  0  0  0  0  0  0  0  0  0  0
   -3.7044   -3.5970    0.0000 C   0  0  0  0  0  0  0  0  0  0  0  0
    2.0961   -1.6501    0.0000 S   0  0  0  0  0  0  0  0  0  0  0  0
  1  2  1  0
  2  3  2  0
  2  8  1  0
  3  4  1  0
  4  5  2  0
  4 30  1  0
  5  6  1  0
  5  7  1  0
  6  9  2  0
  7  8  2  0
  9 10  1  0
  9 30  1  0
 10 11  2  0
 10 12  2  0
 10 13  1  0
 14 13  1  1
 14 15  1  0
 14 17  1  0
 15 16  1  0
 16 19  1  0
 17 18  2  0
 17 19  1  0
 19 20  1  0
 20 21  1  6
 20 22  1  0
 22 23  2  0
 22 24  1  0
 24 25  1  0
 24 29  1  0
 25 26  1  0
 26 27  1  0
 27 28  1  0
 28 29  1  0
M  END
>  <DRUGBANK_ID>  (1) 
DB07844

>  <COMMON_NAME>  (1) 
6-CHLORO-N-{(3S)-1-[(1S)-1-METHYL-2-MORPHOLIN-4-YL-2-OXOETHYL]-2-OXOPYRROLIDIN-3-YL}-1-BENZOTHIOPHENE-2-SULFONAMIDE

$$$$
