
     RDKit          2D

 33 37  0  0  1  0  0  0  0  0999 V2000
   -0.2521    4.5775    0.0000 C   0  0  0  0  0  0  0  0  0  0  0  0
   -0.6646    3.8630    0.0000 C   0  0  0  0  0  0  0  0  0  0  0  0
    0.5549    4.4059    0.0000 C   0  0  0  0  0  0  0  0  0  0  0  0
   -0.1126    3.2499    0.0000 C   0  0  0  0  0  0  0  0  0  0  0  0
   -2.6392    2.3721    0.0000 C   0  0  0  0  0  0  0  0  0  0  0  0
   -2.1977    1.0131    0.0000 C   0  0  0  0  0  0  0  0  0  0  0  0
    2.7845   -0.1271    0.0000 C   0  0  0  0  0  0  0  0  0  0  0  0
    3.4990    1.1104    0.0000 C   0  0  0  0  0  0  0  0  0  0  0  0
   -3.4239    2.1171    0.0000 C   0  0  0  0  0  0  0  0  0  0  0  0
   -2.9823    0.7581    0.0000 C   0  0  0  0  0  0  0  0  0  0  0  0
    3.4990   -0.5396    0.0000 C   0  0  0  0  0  0  0  0  0  0  0  0
    4.2135    0.6979    0.0000 C   0  0  0  0  0  0  0  0  0  0  0  0
    1.3556    3.1729    0.0000 C   0  0  0  0  0  0  0  0  0  0  0  0
   -1.2415    2.0750    0.0000 C   0  0  0  0  0  0  0  0  0  0  0  0
    1.3556    0.6979    0.0000 C   0  0  0  0  0  0  0  0  0  0  0  0
    0.6411    3.5854    0.0000 C   0  0  0  0  0  0  0  0  0  0  0  0
   -2.0261    1.8200    0.0000 C   0  0  0  0  0  0  0  0  0  0  0  0
    2.7845    0.6979    0.0000 C   0  0  0  0  0  0  0  0  0  0  0  0
   -3.5954    1.3102    0.0000 C   0  0  0  0  0  0  0  0  0  0  0  0
    4.2135   -0.1271    0.0000 C   0  0  0  0  0  0  0  0  0  0  0  0
    1.3556    2.3479    0.0000 C   0  0  0  0  0  0  0  0  0  0  0  0
    2.0701    1.1104    0.0000 C   0  0  0  0  0  0  0  0  0  0  0  0
    0.6411    1.9354    0.0000 C   0  0  0  0  0  0  0  0  0  0  0  0
   -0.1435    0.8555    0.0000 C   0  0  0  0  0  0  0  0  0  0  0  0
   -0.6284    1.5229    0.0000 C   0  0  0  0  0  0  0  0  0  0  0  0
    2.0701    1.9354    0.0000 N   0  0  0  0  0  0  0  0  0  0  0  0
   -0.1435    2.1904    0.0000 N   0  0  0  0  0  0  0  0  0  0  0  0
    0.6411    1.1104    0.0000 N   0  0  0  0  0  0  0  0  0  0  0  0
   -4.3800    1.0552    0.0000 O   0  0  0  0  0  0  0  0  0  0  0  0
    4.9279   -0.5396    0.0000 O   0  0  0  0  0  0  0  0  0  0  0  0
   -0.3984    0.0709    0.0000 O   0  0  0  0  0  0  0  0  0  0  0  0
   -1.0700    0.1639    0.0000 O   0  0  0  0  0  0  0  0  0  0  0  0
   -1.2415    0.9709    0.0000 O   0  0  0  0  0  0  0  0  0  0  0  0
  2  1  1  0
  3  1  1  0
  4  2  1  0
  9  5  2  0
 10  6  1  0
 11  7  2  0
 12  8  1  0
 16  3  1  0
 16  4  1  0
 16 13  1  0
 17  5  1  0
 17  6  2  0
 17 14  1  0
 18  7  1  0
 18  8  2  0
 19  9  1  0
 19 10  2  0
 20 11  1  0
 20 12  2  0
 21 13  1  6
 22 15  2  0
 22 18  1  0
 23 21  1  0
 25 14  1  1
 25 24  1  0
 25 33  1  0
 26 21  1  0
 26 22  1  0
 27 23  2  0
 27 25  1  0
 28 15  1  0
 28 23  1  0
 28 24  1  0
 29 19  1  0
 30 20  1  0
 31 24  2  0
 33 32  1  0
M  END
>  <DRUGBANK_ID>  (1) 
DB03960

>  <SECONDARY_ACCESSION_NUMBERS>  (1) 
EXPT01088

>  <COMMON_NAME>  (1) 
Cp-Coeleneterazine

$$$$
