G44
     RDKit          2D

 26 28  0  0  0  0  0  0  0  0999 V2000
   -3.3082    2.6252    0.0000 C   0  0  0  0  0  0  0  0  0  0  0  0
   -3.3082    1.8002    0.0000 C   0  0  0  0  0  0  0  0  0  0  0  0
   -4.0227    1.3877    0.0000 C   0  0  0  0  0  0  0  0  0  0  0  0
   -4.0227    0.5627    0.0000 C   0  0  0  0  0  0  0  0  0  0  0  0
   -3.3082    0.1502    0.0000 C   0  0  0  0  0  0  0  0  0  0  0  0
   -2.5937    0.5627    0.0000 C   0  0  0  0  0  0  0  0  0  0  0  0
   -2.5937    1.3877    0.0000 C   0  0  0  0  0  0  0  0  0  0  0  0
   -1.8793    0.1502    0.0000 C   0  0  0  0  0  0  0  0  0  0  0  0
   -1.8793   -0.6748    0.0000 O   0  0  0  0  0  0  0  0  0  0  0  0
   -1.1648    0.5627    0.0000 C   0  0  0  0  0  0  0  0  0  0  0  0
   -1.1648    1.3877    0.0000 C   0  0  0  0  0  0  0  0  0  0  0  0
   -0.4503    1.8002    0.0000 C   0  0  0  0  0  0  0  0  0  0  0  0
    0.2641    1.3877    0.0000 N   0  0  0  0  0  0  0  0  0  0  0  0
    0.2641    0.5627    0.0000 C   0  0  0  0  0  0  0  0  0  0  0  0
    0.9786    0.1502    0.0000 N   0  0  0  0  0  0  0  0  0  0  0  0
    0.9786   -0.6748    0.0000 C   0  0  0  0  0  0  0  0  0  0  0  0
    1.6931   -1.0873    0.0000 C   0  0  0  0  0  0  0  0  0  0  0  0
    1.6931   -1.9123    0.0000 C   0  0  0  0  0  0  0  0  0  0  0  0
    2.4076   -2.3248    0.0000 C   0  0  0  0  0  0  0  0  0  0  0  0
    3.1220   -1.9123    0.0000 C   0  0  0  0  0  0  0  0  0  0  0  0
    3.1220   -1.0873    0.0000 C   0  0  0  0  0  0  0  0  0  0  0  0
    2.4076   -0.6748    0.0000 C   0  0  0  0  0  0  0  0  0  0  0  0
    3.8365   -2.3248    0.0000 C   0  0  0  0  0  0  0  0  0  0  0  0
    4.5510   -1.9123    0.0000 N   0  0  0  0  0  0  0  0  0  0  0  0
    3.8365   -3.1498    0.0000 N   0  0  0  0  0  0  0  0  0  0  0  0
   -0.4503    0.1502    0.0000 C   0  0  0  0  0  0  0  0  0  0  0  0
  1  2  1  0
  2  7  2  0
  2  3  1  0
  3  4  2  0
  4  5  1  0
  5  6  2  0
  6  8  1  0
  6  7  1  0
  8 10  1  0
  8  9  2  0
 10 11  2  0
 10 26  1  0
 11 12  1  0
 12 13  2  0
 13 14  1  0
 14 15  1  0
 14 26  2  0
 15 16  1  0
 16 17  1  0
 17 22  1  0
 17 18  2  0
 18 19  1  0
 19 20  2  0
 20 21  1  0
 20 23  1  0
 21 22  2  0
 23 24  1  0
 23 25  2  0
M  END
>  <DRUGBANK_ID>  (1) 
DB07809

>  <COMMON_NAME>  (1) 
4-({[4-(3-METHYLBENZOYL)PYRIDIN-2-YL]AMINO}METHYL)BENZENECARBOXIMIDAMIDE

$$$$
