
     RDKit          2D

 22 24  0  0  0  0  0  0  0  0999 V2000
   -2.2841   -0.5532    0.0000 C   0  0  0  0  0  0  0  0  0  0  0  0
   -1.5612   -0.1557    0.0000 C   0  0  0  0  0  0  0  0  0  0  0  0
   -0.8555   -0.5829    0.0000 O   0  0  0  0  0  0  0  0  0  0  0  0
   -0.1326   -0.1854    0.0000 C   0  0  0  0  0  0  0  0  0  0  0  0
   -0.1154    0.6394    0.0000 O   0  0  0  0  0  0  0  0  0  0  0  0
    0.5732   -0.6127    0.0000 C   0  0  0  0  0  0  0  0  0  0  0  0
    1.3337   -0.2928    0.0000 C   0  0  0  0  0  0  0  0  0  0  0  0
    1.4857    0.5180    0.0000 C   0  0  0  0  0  0  0  0  0  0  0  0
    2.2145    0.9047    0.0000 N   0  0  0  0  0  0  0  0  0  0  0  0
    2.1823    1.7291    0.0000 C   0  0  0  0  0  0  0  0  0  0  0  0
    2.9712    0.5760    0.0000 C   0  0  0  0  0  0  0  0  0  0  0  0
    3.5956    1.1152    0.0000 O   0  0  0  0  0  0  0  0  0  0  0  0
    3.1860   -0.2205    0.0000 C   0  0  0  0  0  0  0  0  0  0  0  0
    4.0060   -0.3115    0.0000 C   0  0  0  0  0  0  0  0  0  0  0  0
    4.4948    0.3531    0.0000 I   0  0  0  0  0  0  0  0  0  0  0  0
    4.3371   -1.0671    0.0000 C   0  0  0  0  0  0  0  0  0  0  0  0
    3.8483   -1.7317    0.0000 C   0  0  0  0  0  0  0  0  0  0  0  0
    3.0283   -1.6407    0.0000 C   0  0  0  0  0  0  0  0  0  0  0  0
    2.6972   -0.8851    0.0000 C   0  0  0  0  0  0  0  0  0  0  0  0
    1.8728   -0.9173    0.0000 N   0  0  0  0  0  0  0  0  0  0  0  0
    1.4456   -1.6230    0.0000 C   0  0  0  0  0  0  0  0  0  0  0  0
    0.6423   -1.4348    0.0000 N   0  0  0  0  0  0  0  0  0  0  0  0
  1  2  1  0
  2  3  1  0
  3  4  1  0
  4  5  2  0
  4  6  1  0
  6  7  2  0
  6 22  1  0
  7  8  1  0
  7 20  1  0
  8  9  1  0
  9 10  1  0
  9 11  1  0
 11 12  2  0
 11 13  1  0
 13 14  1  0
 13 19  2  0
 14 15  1  0
 14 16  2  0
 16 17  1  0
 17 18  2  0
 18 19  1  0
 19 20  1  0
 20 21  1  0
 21 22  2  0
M  END
>  <DRUGBANK_ID>  (1) 
DB14971

>  <COMMON_NAME>  (1) 
Iomazenil

>  <CAS_NUMBER>  (1) 
127985-21-1

>  <UNII>  (1) 
7DVX185FLQ

$$$$
