
     RDKit          2D

 29 32  0  0  0  0  0  0  0  0999 V2000
    0.7058   -0.8250    0.0000 C   0  0  0  0  0  0  0  0  0  0  0  0
    1.4204   -0.4125    0.0000 N   0  0  0  0  0  0  0  0  0  0  0  0
    0.7058   -1.6500    0.0000 C   0  0  0  0  0  0  0  0  0  0  0  0
   -0.0085   -0.4125    0.0000 N   0  0  0  0  0  0  0  0  0  0  0  0
    1.4204    0.4125    0.0000 C   0  0  0  0  0  0  0  0  0  0  0  0
    2.1347   -0.8250    0.0000 C   0  0  0  0  0  0  0  0  0  0  0  0
    1.4204   -2.0625    0.0000 C   0  0  0  0  0  0  0  0  0  0  0  0
   -0.0085   -2.0625    0.0000 C   0  0  0  0  0  0  0  0  0  0  0  0
   -0.7231   -0.8250    0.0000 C   0  0  0  0  0  0  0  0  0  0  0  0
    0.7058    0.8250    0.0000 C   0  0  0  0  0  0  0  0  0  0  0  0
    2.1347    0.8250    0.0000 C   0  0  0  0  0  0  0  0  0  0  0  0
    2.1347   -1.6500    0.0000 C   0  0  0  0  0  0  0  0  0  0  0  0
    1.4204   -2.8874    0.0000 O   0  0  0  0  0  0  0  0  0  0  0  0
   -0.7231   -1.6500    0.0000 C   0  0  0  0  0  0  0  0  0  0  0  0
   -1.4376   -0.4125    0.0000 N   0  0  0  0  0  0  0  0  0  0  0  0
    0.7058    1.6500    0.0000 C   0  0  0  0  0  0  0  0  0  0  0  0
   -0.0085    0.4125    0.0000 F   0  0  0  0  0  0  0  0  0  0  0  0
    2.1347    1.6500    0.0000 C   0  0  0  0  0  0  0  0  0  0  0  0
    2.8493   -2.0625    0.0000 C   0  0  0  0  0  0  0  0  0  0  0  0
   -1.4375   -2.0625    0.0000 F   0  0  0  0  0  0  0  0  0  0  0  0
   -2.1912   -0.7479    0.0000 C   0  0  0  0  0  0  0  0  0  0  0  0
   -1.5238    0.4080    0.0000 C   0  0  0  0  0  0  0  0  0  0  0  0
    1.4204    2.0625    0.0000 C   0  0  0  0  0  0  0  0  0  0  0  0
    2.8493   -2.8874    0.0000 O   0  0  0  0  0  0  0  0  0  0  0  0
    3.5638   -1.6500    0.0000 O   0  0  0  0  0  0  0  0  0  0  0  0
   -2.7433   -0.1349    0.0000 C   0  0  0  0  0  0  0  0  0  0  0  0
   -2.3307    0.5795    0.0000 C   0  0  0  0  0  0  0  0  0  0  0  0
    1.4204    2.8875    0.0000 F   0  0  0  0  0  0  0  0  0  0  0  0
   -3.5638   -0.2211    0.0000 N   0  0  0  0  0  0  0  0  0  0  0  0
  1  2  1  0
  1  3  1  0
  1  4  2  0
  2  5  1  0
  2  6  1  0
  3  7  1  0
  3  8  2  0
  4  9  1  0
  5 10  2  0
  5 11  1  0
  6 12  2  0
  7 13  2  0
  7 12  1  0
  8 14  1  0
  9 15  1  0
  9 14  2  0
 10 16  1  0
 10 17  1  0
 11 18  2  0
 12 19  1  0
 14 20  1  0
 15 21  1  0
 15 22  1  0
 16 23  2  0
 18 23  1  0
 19 24  1  0
 19 25  2  0
 21 26  1  0
 22 27  1  0
 23 28  1  0
 26 29  1  0
 26 27  1  0
M  END
>  <DRUGBANK_ID>  (1) 
DB16850

>  <COMMON_NAME>  (1) 
Tosufloxacin

>  <CAS_NUMBER>  (1) 
100490-36-6

>  <UNII>  (1) 
GHJ553KQPS

>  <SYNONYMS>  (1) 
Tosufloxacin

$$$$
