
     RDKit          2D

  6  5  0  0  0  0  0  0  0  0999 V2000
   -0.1914    0.7145    0.0000 N   0  0  0  0  0  0  0  0  0  0  0  0
    0.5230    1.1270    0.0000 C   0  0  0  0  0  0  0  0  0  0  0  0
    1.2375    0.7145    0.0000 C   0  0  0  0  0  0  0  0  0  0  0  0
    1.9520    1.1270    0.0000 C   0  0  0  0  0  0  0  0  0  0  0  0
    2.6664    0.7145    0.0000 C   0  0  0  0  0  0  0  0  0  0  0  0
    3.3809    1.1270    0.0000 N   0  0  0  0  0  0  0  0  0  0  0  0
  1  2  1  0
  2  3  1  0
  3  4  1  0
  4  5  1  0
  5  6  1  0
M  END
>  <DRUGBANK_ID>  (1) 
DB01917

>  <SECONDARY_ACCESSION_NUMBERS>  (1) 
EXPT02702

>  <COMMON_NAME>  (1) 
Putrescine

>  <CAS_NUMBER>  (1) 
110-60-1

>  <UNII>  (1) 
V10TVZ52E4

>  <SYNONYMS>  (1) 
putrescina

$$$$
