
     RDKit          2D

 14 15  0  0  1  0  0  0  0  0999 V2000
    1.2695    1.7474    0.0000 C   0  0  0  0  0  0  0  0  0  0  0  0
    0.7846    1.0799    0.0000 C   0  0  0  0  0  0  0  0  0  0  0  0
    3.0937    2.5320    0.0000 C   0  0  0  0  0  0  0  0  0  0  0  0
    3.3237    1.0799    0.0000 C   0  0  0  0  0  0  0  0  0  0  0  0
    2.8388    1.7474    0.0000 C   0  0  0  0  0  0  0  0  0  0  0  0
    2.0542    1.4924    0.0000 C   0  0  0  0  0  0  0  0  0  0  0  0
    2.5417    3.1451    0.0000 C   0  0  0  0  0  0  0  0  0  0  0  0
    2.0542    0.6674    0.0000 C   0  0  0  0  0  0  0  0  0  0  0  0
    2.7966    3.9297    0.0000 C   0  0  0  0  0  0  0  0  0  0  0  0
    1.7347    2.9736    0.0000 N   0  0  0  0  0  0  0  0  0  0  0  0
    2.8388    0.4125    0.0000 N   0  0  0  0  0  0  0  0  0  0  0  0
    2.2446    4.5428    0.0000 O   0  0  0  0  0  0  0  0  0  0  0  0
    3.6036    4.1012    0.0000 O   0  0  0  0  0  0  0  0  0  0  0  0
    1.2695    0.4125    0.0000 Se  0  0  0  0  0  2  0  0  0  0  0  0
  2  1  2  0
  5  3  1  0
  5  4  2  0
  6  1  1  0
  6  5  1  0
  7  3  1  0
  7 10  1  6
  8  6  2  0
  9  7  1  0
 11  4  1  0
 11  8  1  0
 12  9  2  0
 13  9  1  0
 14  2  1  0
 14  8  1  0
M  END
>  <DRUGBANK_ID>  (1) 
DB03043

>  <SECONDARY_ACCESSION_NUMBERS>  (1) 
EXPT00092

>  <COMMON_NAME>  (1) 
(S)-2-Amino-3-(6h-Selenolo[2,3-B]-Pyrrol-4-Yl)-Propionic Acid

$$$$
