
     RDKit          2D

 11 11  0  0  1  0  0  0  0  0999 V2000
    1.4289    0.8250    0.0000 C   0  0  0  0  0  0  0  0  0  0  0  0
    0.7145   -1.2375    0.0000 C   0  0  0  0  0  0  0  0  0  0  0  0
    0.7145   -0.4125    0.0000 C   0  0  0  0  0  0  0  0  0  0  0  0
    0.7145    1.2375    0.0000 C   0  0  0  0  0  0  0  0  0  0  0  0
    0.0000    0.0000    0.0000 C   0  0  0  0  0  0  0  0  0  0  0  0
    0.0000    0.8250    0.0000 C   0  0  0  0  0  0  0  0  0  0  0  0
    1.4289   -0.0000    0.0000 N   0  0  0  0  0  0  0  0  0  0  0  0
    1.4289   -1.6500    0.0000 O   0  0  0  0  0  0  0  0  0  0  0  0
    0.7145    2.0625    0.0000 O   0  0  0  0  0  0  0  0  0  0  0  0
   -0.7145   -0.4125    0.0000 O   0  0  0  0  0  0  0  0  0  0  0  0
   -0.7145    1.2375    0.0000 O   0  0  0  0  0  0  0  0  0  0  0  0
  3  2  1  6
  4  1  1  0
  4  9  1  6
  5  3  1  0
  5 10  1  1
  6  4  1  0
  6  5  1  0
  6 11  1  6
  7  1  1  0
  7  3  1  0
  8  2  1  0
M  END
>  <DRUGBANK_ID>  (1) 
DB03955

>  <SECONDARY_ACCESSION_NUMBERS>  (1) 
EXPT01145

>  <COMMON_NAME>  (1) 
1-deoxymannojirimycin

>  <CAS_NUMBER>  (1) 
84444-90-6

>  <SYNONYMS>  (1) 
D-manno-Deoxynojirimycin

$$$$
