
     RDKit          2D

 14 13  0  0  0  0  0  0  0  0999 V2000
    1.0707    0.2057    0.0000 C   0  0  0  0  0  0  0  0  0  0  0  0
    1.7814   -0.2057    0.0000 N   0  0  0  0  0  0  0  0  0  0  0  0
    2.4968    0.2057    0.0000 C   0  0  0  0  0  0  0  0  0  0  0  0
    3.2120   -0.2056    0.0000 C   0  0  0  0  0  0  0  0  0  0  0  0
    3.9228    0.2057    0.0000 C   0  0  0  0  0  0  0  0  0  0  0  0
    4.6383    0.6170    0.0000 C   0  0  0  0  0  0  0  0  0  0  0  0
    0.3599   -0.2057    0.0000 C   0  0  0  0  0  0  0  0  0  0  0  0
   -0.3554    0.2057    0.0000 C   0  0  0  0  0  0  0  0  0  0  0  0
   -1.0661   -0.2057    0.0000 C   0  0  0  0  0  0  0  0  0  0  0  0
   -1.7814    0.2057    0.0000 N   0  0  0  0  0  0  0  0  0  0  0  0
   -2.4969   -0.2057    0.0000 C   0  0  0  0  0  0  0  0  0  0  0  0
   -3.2076    0.2057    0.0000 C   0  0  0  0  0  0  0  0  0  0  0  0
   -3.9229   -0.2057    0.0000 C   0  0  0  0  0  0  0  0  0  0  0  0
   -4.6383   -0.6170    0.0000 C   0  0  0  0  0  0  0  0  0  0  0  0
  1  2  1  0
  1  7  1  0
  2  3  1  0
  3  4  1  0
  4  5  2  0
  5  6  2  0
  7  8  1  0
  8  9  1  0
  9 10  1  0
 10 11  1  0
 11 12  1  0
 12 13  2  0
 13 14  2  0
M  END
>  <DRUGBANK_ID>  (1) 
DB04188

>  <SECONDARY_ACCESSION_NUMBERS>  (1) 
EXPT02139

>  <COMMON_NAME>  (1) 
MDL72527

>  <CAS_NUMBER>  (1) 
99207-33-7

>  <UNII>  (1) 
G28L05X0YB

$$$$
