
     RDKit          2D

 12 11  0  0  0  0  0  0  0  0999 V2000
    0.0000    0.2062    0.0000 C   0  0  0  0  0  0  0  0  0  0  0  0
    0.0000    1.0312    0.0000 O   0  0  0  0  0  0  0  0  0  0  0  0
    0.7144   -0.2062    0.0000 O   0  0  0  0  0  0  0  0  0  0  0  0
   -0.7144   -0.2062    0.0000 N   0  0  0  0  0  0  0  0  0  0  0  0
   -1.4289    0.2062    0.0000 C   0  0  0  0  0  0  0  0  0  0  0  0
   -2.1433   -0.2062    0.0000 C   0  0  0  0  0  0  0  0  0  0  0  0
   -2.8578    0.2062    0.0000 C   0  0  0  0  0  0  0  0  0  0  0  0
   -3.5723   -0.2062    0.0000 C   0  0  0  0  0  0  0  0  0  0  0  0
    1.4289    0.2062    0.0000 C   0  0  0  0  0  0  0  0  0  0  0  0
    2.1433   -0.2062    0.0000 C   0  0  0  0  0  0  0  0  0  0  0  0
    2.8579   -0.6187    0.0000 C   0  0  0  0  0  0  0  0  0  0  0  0
    3.5723   -1.0312    0.0000 I   0  0  0  0  0  0  0  0  0  0  0  0
  2  1  2  0
  3  1  1  0
  4  1  1  0
  5  4  1  0
  6  5  1  0
  7  6  1  0
  8  7  1  0
  9  3  1  0
 10  9  1  0
 11 10  3  0
 12 11  1  0
M  END
>  <DRUGBANK_ID>  (1) 
DB15666

>  <COMMON_NAME>  (1) 
Iodopropynyl butylcarbamate

>  <CAS_NUMBER>  (1) 
55406-53-6

>  <UNII>  (1) 
603P14DHEB

>  <SYNONYMS>  (1) 
3-iodo-2-propyn-1-yl N-butylcarbamate; 3-iodo-2-propynyl butylcarbamate; 3-iodoprop-2-yn-1-yl butylcarbamate; 3-iodoprop-2-ynyl butylcarbamate; butyl-3-iodo-2-propynylcarbamate; Iodocarbe; Iodopropynyl butyl carbamate; IPBC

$$$$
