KMB
     RDKit          2D

 22 24  0  0  0  0  0  0  0  0999 V2000
   -1.3486   -1.8490    0.0000 C   0  0  0  0  0  0  0  0  0  0  0  0
   -1.3486   -2.6740    0.0000 N   0  0  0  0  0  0  0  0  0  0  0  0
   -0.6341   -1.4365    0.0000 C   0  0  0  0  0  0  0  0  0  0  0  0
   -0.6341   -0.6115    0.0000 C   0  0  0  0  0  0  0  0  0  0  0  0
    0.0804   -0.1990    0.0000 C   0  0  0  0  0  0  0  0  0  0  0  0
    0.7948   -0.6115    0.0000 C   0  0  0  0  0  0  0  0  0  0  0  0
    1.5093   -0.1990    0.0000 N   0  0  0  0  0  0  0  0  0  0  0  0
    2.2238   -0.6115    0.0000 C   0  0  0  0  0  0  0  0  0  0  0  0
    2.9383   -0.1990    0.0000 N   0  0  0  0  0  0  0  0  0  0  0  0
    2.2238   -1.4365    0.0000 N   0  0  0  0  0  0  0  0  0  0  0  0
    1.5093   -1.8490    0.0000 C   0  0  0  0  0  0  0  0  0  0  0  0
    1.5093   -2.6740    0.0000 O   0  0  0  0  0  0  0  0  0  0  0  0
    0.7948   -1.4365    0.0000 C   0  0  0  0  0  0  0  0  0  0  0  0
    0.0804   -1.8490    0.0000 C   0  0  0  0  0  0  0  0  0  0  0  0
    0.0804    0.6260    0.0000 C   0  0  0  0  0  0  0  0  0  0  0  0
   -0.6341    1.0385    0.0000 S   0  0  0  0  0  0  0  0  0  0  0  0
   -0.6341    1.8635    0.0000 C   0  0  0  0  0  0  0  0  0  0  0  0
   -1.3486    2.2760    0.0000 C   0  0  0  0  0  0  0  0  0  0  0  0
   -1.3486    3.1010    0.0000 C   0  0  0  0  0  0  0  0  0  0  0  0
   -0.6341    3.5135    0.0000 C   0  0  0  0  0  0  0  0  0  0  0  0
    0.0804    3.1010    0.0000 C   0  0  0  0  0  0  0  0  0  0  0  0
    0.0804    2.2760    0.0000 C   0  0  0  0  0  0  0  0  0  0  0  0
  1  2  1  0
  1  3  1  0
  3  4  2  0
  3 14  1  0
  4  5  1  0
  5  6  2  0
  5 15  1  0
  6  7  1  0
  6 13  1  0
  7  8  2  0
  8  9  1  0
  8 10  1  0
 10 11  1  0
 11 12  2  0
 11 13  1  0
 13 14  2  0
 15 16  1  0
 16 17  1  0
 17 18  2  0
 17 22  1  0
 18 19  1  0
 19 20  2  0
 20 21  1  0
 21 22  2  0
M  END
>  <DRUGBANK_ID>  (1) 
DB04239

>  <SECONDARY_ACCESSION_NUMBERS>  (1) 
EXPT01975

>  <COMMON_NAME>  (1) 
2-Amino-6-Aminomethyl-8-Phenylsulfanylmethyl-3h-Quinazolin-4-One

$$$$
