
     RDKit          2D

 30 30  0  0  0  0  0  0  0  0999 V2000
    3.0241   -1.6499    0.0000 O   0  0  0  0  0  0  0  0  0  0  0  0
    1.5951    2.4750    0.0000 O   0  0  0  0  0  0  0  0  0  0  0  0
    2.3096   -3.7125    0.0000 O   0  0  0  0  0  0  0  0  0  0  0  0
    3.0241   -2.4750    0.0000 O   0  0  0  0  0  0  0  0  0  0  0  0
    1.5951   -4.1250    0.0000 O   0  0  0  0  0  0  0  0  0  0  0  0
    2.3096   -0.4124    0.0000 N   0  0  0  0  0  0  0  0  0  0  0  0
    2.3096    1.2375    0.0000 N   0  0  0  0  0  0  0  0  0  0  0  0
    1.5951   -1.6499    0.0000 N   0  0  0  0  0  0  0  0  0  0  0  0
    3.0241    2.4750    0.0000 N   0  0  0  0  0  0  0  0  0  0  0  0
   -1.9771   -2.8875    0.0000 N   0  0  0  0  0  0  0  0  0  0  0  0
   -3.4062   -2.8875    0.0000 N   0  0  0  0  0  0  0  0  0  0  0  0
   -2.6916   -1.6499    0.0000 N   0  0  0  0  0  0  0  0  0  0  0  0
    1.5951    0.0000    0.0000 C   0  0  0  0  0  0  0  0  0  0  0  0
    3.0241    0.0000    0.0000 C   0  0  0  0  0  0  0  0  0  0  0  0
    1.5951    0.8250    0.0000 C   0  0  0  0  0  0  0  0  0  0  0  0
    3.0241    0.8250    0.0000 C   0  0  0  0  0  0  0  0  0  0  0  0
    0.8807   -2.8875    0.0000 C   0  0  0  0  0  0  0  0  0  0  0  0
    1.5951   -2.4750    0.0000 C   0  0  0  0  0  0  0  0  0  0  0  0
    2.3096   -1.2375    0.0000 C   0  0  0  0  0  0  0  0  0  0  0  0
    3.0241    3.2999    0.0000 C   0  0  0  0  0  0  0  0  0  0  0  0
    0.1662   -2.4750    0.0000 C   0  0  0  0  0  0  0  0  0  0  0  0
    2.3096    2.0625    0.0000 C   0  0  0  0  0  0  0  0  0  0  0  0
   -0.5482   -2.8875    0.0000 C   0  0  0  0  0  0  0  0  0  0  0  0
    2.1991    3.2999    0.0000 C   0  0  0  0  0  0  0  0  0  0  0  0
    3.8491    3.2999    0.0000 C   0  0  0  0  0  0  0  0  0  0  0  0
    3.0241    4.1250    0.0000 C   0  0  0  0  0  0  0  0  0  0  0  0
    2.3096   -2.8875    0.0000 C   0  0  0  0  0  0  0  0  0  0  0  0
    0.8807   -3.7125    0.0000 C   0  0  0  0  0  0  0  0  0  0  0  0
   -1.2627   -2.4750    0.0000 C   0  0  0  0  0  0  0  0  0  0  0  0
   -2.6916   -2.4750    0.0000 C   0  0  0  0  0  0  0  0  0  0  0  0
  1 19  2  0
  2 22  2  0
  3 27  1  0
  4 27  2  0
  5 28  2  0
  6 13  1  0
  6 14  1  0
  6 19  1  0
  7 15  1  0
  7 16  1  0
  7 22  1  0
  8 19  1  0
  9 20  1  0
  9 22  1  0
 10 29  1  0
 10 30  2  3
 11 30  1  0
 12 30  1  0
 13 15  1  0
 14 16  1  0
 17 18  1  0
 17 21  1  6
 17 28  1  0
 18  8  1  6
 18 27  1  0
 20 24  1  0
 20 25  1  0
 20 26  1  0
 21 23  1  0
 23 29  1  0
M  END
>  <DRUGBANK_ID>  (1) 
DB03417

>  <SECONDARY_ACCESSION_NUMBERS>  (1) 
EXPT00047

>  <COMMON_NAME>  (1) 
(2S,3R)-2-[[4-(Tert-butylcarbamoyl)piperazine-1-carbonyl]amino]-6-(diaminomethylideneamino)-3-formylhexanoic acid

$$$$
