
     RDKit          2D

  3  2  0  0  0  0  0  0  0  0999 V2000
    0.0050    0.0000    0.0000 N   0  0  0  0  0  0  0  0  0  0  0  0
   -0.8250    0.0000    0.0000 N   0  0  0  0  0  0  0  0  0  0  0  0
    0.8250    0.0000    0.0000 O   0  0  0  0  0  0  0  0  0  0  0  0
  1  2  2  0
  1  3  2  0
M  CHG  2   1   1   2  -1
M  END
>  <DRUGBANK_ID>  (1) 
DB06690

>  <COMMON_NAME>  (1) 
Nitrous oxide

>  <CAS_NUMBER>  (1) 
10024-97-2

>  <UNII>  (1) 
K50XQU1029

>  <SYNONYMS>  (1) 
Dinitrogen oxide; N2O; Nitrious oxide; Nitrous oxide; Ã³xido nitroso

$$$$
