
     RDKit          2D

 10  9  0  0  0  0  0  0  0  0999 V2000
    0.3571   -0.6204    0.0000 O   0  0  0  0  0  0  0  0  0  0  0  0
   -0.3571   -0.2077    0.0000 Al  0  0  0  0  0  3  0  0  0  0  0  0
    0.3571   -1.4430    0.0000 C   0  0  0  0  0  0  0  0  0  0  0  0
   -0.3571    0.6176    0.0000 O   0  0  0  0  0  0  0  0  0  0  0  0
   -1.0715   -0.6204    0.0000 O   0  0  0  0  0  0  0  0  0  0  0  0
    1.0715   -1.8556    0.0000 C   0  0  0  0  0  0  0  0  0  0  0  0
   -0.3571   -1.8556    0.0000 O   0  0  0  0  0  0  0  0  0  0  0  0
    0.3571    1.0303    0.0000 C   0  0  0  0  0  0  0  0  0  0  0  0
    0.3571    1.8556    0.0000 C   0  0  0  0  0  0  0  0  0  0  0  0
    1.0715    0.6176    0.0000 O   0  0  0  0  0  0  0  0  0  0  0  0
  1  2  1  0
  1  3  1  0
  2  4  1  0
  2  5  1  0
  3  6  1  0
  3  7  2  0
  4  8  1  0
  8  9  1  0
  8 10  2  0
M  END
>  <DRUGBANK_ID>  (1) 
DB15679

>  <COMMON_NAME>  (1) 
Aluminum subacetate

>  <CAS_NUMBER>  (1) 
142-03-0

>  <UNII>  (1) 
FGL8577C9S

>  <SYNONYMS>  (1) 
Aluminum diaceate; Aluminum diacetate; Aluminum hydroxyacetate; Aluminum subacetate

$$$$
