
     RDKit          2D

 34 40  0  0  0  0  0  0  0  0999 V2000
   -1.6818   -5.9460    0.0000 C   0  0  0  0  0  0  0  0  0  0  0  0
   -0.9090   -5.6572    0.0000 C   0  0  0  0  0  0  0  0  0  0  0  0
   -0.2725   -6.1820    0.0000 C   0  0  0  0  0  0  0  0  0  0  0  0
   -0.4088   -6.9957    0.0000 C   0  0  0  0  0  0  0  0  0  0  0  0
   -1.1816   -7.2845    0.0000 C   0  0  0  0  0  0  0  0  0  0  0  0
   -1.8181   -6.7597    0.0000 C   0  0  0  0  0  0  0  0  0  0  0  0
   -1.3178   -8.0982    0.0000 O   0  0  0  0  0  0  0  0  0  0  0  0
   -2.0906   -8.3870    0.0000 C   0  0  0  0  0  0  0  0  0  0  0  0
   -2.2269   -9.2007    0.0000 C   0  0  0  0  0  0  0  0  0  0  0  0
   -2.9997   -9.4895    0.0000 N   0  0  0  0  0  0  0  0  0  0  0  0
   -3.1360  -10.3032    0.0000 C   0  0  0  0  0  0  0  0  0  0  0  0
   -3.9088  -10.5920    0.0000 C   0  0  0  0  0  0  0  0  0  0  0  0
   -4.5453  -10.0671    0.0000 O   0  0  0  0  0  0  0  0  0  0  0  0
   -4.4090   -9.2535    0.0000 C   0  0  0  0  0  0  0  0  0  0  0  0
   -3.6362   -8.9646    0.0000 C   0  0  0  0  0  0  0  0  0  0  0  0
   -0.7728   -4.8435    0.0000 C   0  0  0  0  0  0  0  0  0  0  0  0
   -1.4093   -4.3187    0.0000 C   0  0  0  0  0  0  0  0  0  0  0  0
   -1.2730   -3.5050    0.0000 C   0  0  0  0  0  0  0  0  0  0  0  0
   -0.5002   -3.2162    0.0000 C   0  0  0  0  0  0  0  0  0  0  0  0
   -1.0784   -2.6277    0.0000 O   0  0  0  0  0  0  0  0  0  0  0  0
   -0.6974   -1.8959    0.0000 O   0  0  0  0  0  0  0  0  0  0  0  0
    0.1163   -2.0322    0.0000 C   0  0  0  0  0  0  0  0  0  0  0  0
    0.2381   -2.8482    0.0000 O   0  0  0  0  0  0  0  0  0  0  0  0
    0.8517   -1.6585    0.0000 C   0  0  0  0  0  0  0  0  0  0  0  0
    0.8517   -0.9111    0.0000 C   0  0  0  0  0  0  0  0  0  0  0  0
    1.3012   -0.1208    0.0000 C   0  0  0  0  0  0  0  0  0  0  0  0
    0.5657   -0.4945    0.0000 C   0  0  0  0  0  0  0  0  0  0  0  0
    0.5657   -1.2419    0.0000 C   0  0  0  0  0  0  0  0  0  0  0  0
    1.3012   -1.6156    0.0000 C   0  0  0  0  0  0  0  0  0  0  0  0
    2.0368   -1.2419    0.0000 C   0  0  0  0  0  0  0  0  0  0  0  0
    1.5873   -2.0322    0.0000 C   0  0  0  0  0  0  0  0  0  0  0  0
    2.0368   -0.4945    0.0000 C   0  0  0  0  0  0  0  0  0  0  0  0
    0.1363   -3.7410    0.0000 C   0  0  0  0  0  0  0  0  0  0  0  0
    0.0000   -4.5547    0.0000 C   0  0  0  0  0  0  0  0  0  0  0  0
  1  2  2  0
  1  6  1  0
  2  3  1  0
  3  4  2  0
  4  5  1  0
  5  6  2  0
  5  7  1  0
  7  8  1  0
  8  9  1  0
  9 10  1  0
 10 11  1  0
 10 15  1  0
 11 12  1  0
 12 13  1  0
 13 14  1  0
 14 15  1  0
 16  2  1  1
 16 17  1  0
 16 34  1  0
 17 18  1  0
 19 18  1  6
 19 20  1  0
 19 23  1  0
 19 33  1  0
 20 21  1  0
 21 22  1  0
 22 23  1  0
 22 24  1  0
 22 28  1  0
 24 31  1  0
 24 25  1  0
 25 26  1  0
 26 32  1  0
 26 27  1  0
 27 28  1  0
 28 29  1  0
 29 30  1  0
 30 31  1  0
 30 32  1  0
 33 34  1  0
M  END
>  <DRUGBANK_ID>  (1) 
DB11809

>  <COMMON_NAME>  (1) 
Artefenomel

>  <CAS_NUMBER>  (1) 
1029939-86-3

>  <UNII>  (1) 
RIK029813G

>  <SYNONYMS>  (1) 
Artefenomel

$$$$
