FR4
     RDKit          2D

 33 36  0  0  0  0  0  0  0  0999 V2000
   -3.3771    1.2095    0.0000 C   0  0  0  0  0  0  0  0  0  0  0  0
   -3.0416    0.4558    0.0000 N   0  0  0  0  0  0  0  0  0  0  0  0
   -3.6547   -0.0962    0.0000 C   0  0  0  0  0  0  0  0  0  0  0  0
   -4.3691    0.3163    0.0000 N   0  0  0  0  0  0  0  0  0  0  0  0
   -4.1976    1.1232    0.0000 C   0  0  0  0  0  0  0  0  0  0  0  0
   -4.7497    1.7363    0.0000 C   0  0  0  0  0  0  0  0  0  0  0  0
   -5.5566    1.5648    0.0000 O   0  0  0  0  0  0  0  0  0  0  0  0
   -4.4947    2.5209    0.0000 N   0  0  0  0  0  0  0  0  0  0  0  0
   -2.2346    0.2843    0.0000 C   0  0  0  0  0  0  0  0  0  0  0  0
   -1.6826    0.8974    0.0000 C   0  0  0  0  0  0  0  0  0  0  0  0
   -0.8756    0.7258    0.0000 O   0  0  0  0  0  0  0  0  0  0  0  0
   -1.9797   -0.5004    0.0000 C   0  0  0  0  0  0  0  0  0  0  0  0
   -1.1727   -0.6719    0.0000 C   0  0  0  0  0  0  0  0  0  0  0  0
   -0.9178   -1.4565    0.0000 N   0  0  0  0  0  0  0  0  0  0  0  0
   -1.4027   -2.1239    0.0000 C   0  0  0  0  0  0  0  0  0  0  0  0
   -0.9178   -2.7914    0.0000 C   0  0  0  0  0  0  0  0  0  0  0  0
   -0.1331   -2.5364    0.0000 C   0  0  0  0  0  0  0  0  0  0  0  0
   -0.1331   -1.7114    0.0000 C   0  0  0  0  0  0  0  0  0  0  0  0
    0.5813   -2.9489    0.0000 C   0  0  0  0  0  0  0  0  0  0  0  0
    1.2958   -2.5364    0.0000 C   0  0  0  0  0  0  0  0  0  0  0  0
    1.2958   -1.7114    0.0000 C   0  0  0  0  0  0  0  0  0  0  0  0
    0.5813   -1.2989    0.0000 C   0  0  0  0  0  0  0  0  0  0  0  0
    2.0103   -1.2989    0.0000 N   0  0  0  0  0  0  0  0  0  0  0  0
    2.0103   -0.4739    0.0000 C   0  0  0  0  0  0  0  0  0  0  0  0
    1.2958   -0.0614    0.0000 O   0  0  0  0  0  0  0  0  0  0  0  0
    2.7247   -0.0614    0.0000 C   0  0  0  0  0  0  0  0  0  0  0  0
    2.7247    0.7636    0.0000 C   0  0  0  0  0  0  0  0  0  0  0  0
    4.1537    0.7636    0.0000 C   0  0  0  0  0  0  0  0  0  0  0  0
    3.4392    1.1761    0.0000 C   0  0  0  0  0  0  0  0  0  0  0  0
    3.4392    2.0011    0.0000 C   0  0  0  0  0  0  0  0  0  0  0  0
    4.1537    2.4136    0.0000 C   0  0  0  0  0  0  0  0  0  0  0  0
    4.8682    2.0011    0.0000 C   0  0  0  0  0  0  0  0  0  0  0  0
    4.8682    1.1761    0.0000 C   0  0  0  0  0  0  0  0  0  0  0  0
  1  2  1  0
  1  5  2  0
  2  3  1  0
  3  4  2  0
  4  5  1  0
  5  6  1  0
  6  7  2  0
  6  8  1  0
  9  2  1  0
  9 10  1  1
  9 12  1  0
 10 11  1  0
 12 13  1  0
 13 14  1  0
 14 15  1  0
 14 18  1  0
 15 16  2  0
 16 17  1  0
 17 18  2  0
 17 19  1  0
 18 22  1  0
 19 20  2  0
 20 21  1  0
 21 22  2  0
 21 23  1  0
 23 24  1  0
 24 25  2  0
 24 26  1  0
 26 27  1  0
 27 29  1  0
 28 29  2  0
 28 33  1  0
 29 30  1  0
 30 31  2  0
 31 32  1  0
 32 33  2  0
M  END
>  <DRUGBANK_ID>  (1) 
DB07783

>  <COMMON_NAME>  (1) 
1-((1R)-1-(HYDROXYMETHYL)-3-{6-[(3-PHENYLPROPANOYL)AMINO]-1H-INDOL-1-YL}PROPYL)-1H-IMIDAZOLE-4-CARBOXAMIDE

$$$$
