LI4
     RDKit          2D

 19 21  0  0  0  0  0  0  0  0999 V2000
    0.0175   -2.6302    0.0000 C   0  0  0  0  0  0  0  0  0  0  0  0
    0.0175   -1.8052    0.0000 C   0  0  0  0  0  0  0  0  0  0  0  0
    0.7320   -1.3927    0.0000 C   0  0  0  0  0  0  0  0  0  0  0  0
    1.4465   -1.8052    0.0000 C   0  0  0  0  0  0  0  0  0  0  0  0
    0.7320   -3.0427    0.0000 C   0  0  0  0  0  0  0  0  0  0  0  0
    0.7320   -0.5677    0.0000 O   0  0  0  0  0  0  0  0  0  0  0  0
    2.1609   -1.3927    0.0000 N   0  0  0  0  0  0  0  0  0  0  0  0
   -1.4114    0.6698    0.0000 C   0  0  0  0  0  0  0  0  0  0  0  0
   -0.6970    1.0823    0.0000 C   0  0  0  0  0  0  0  0  0  0  0  0
   -0.6970    1.9073    0.0000 C   0  0  0  0  0  0  0  0  0  0  0  0
   -1.4114    2.3198    0.0000 C   0  0  0  0  0  0  0  0  0  0  0  0
   -2.1259    1.9073    0.0000 C   0  0  0  0  0  0  0  0  0  0  0  0
   -2.1259    1.0823    0.0000 C   0  0  0  0  0  0  0  0  0  0  0  0
    0.0175    0.6698    0.0000 C   0  0  0  0  0  0  0  0  0  0  0  0
    0.7320    1.0823    0.0000 C   0  0  0  0  0  0  0  0  0  0  0  0
    0.7320    1.9073    0.0000 C   0  0  0  0  0  0  0  0  0  0  0  0
    0.0175    2.3198    0.0000 C   0  0  0  0  0  0  0  0  0  0  0  0
    1.4465   -2.6302    0.0000 N   0  0  0  0  0  0  0  0  0  0  0  0
    0.0175   -0.1552    0.0000 C   0  0  0  0  0  0  0  0  0  0  0  0
  1  2  2  0
  1  5  1  0
  2  3  1  0
  3  4  2  0
  3  6  1  0
  4  7  1  0
  4 18  1  0
  5 18  2  0
  6 19  1  0
  8  9  2  0
  8 13  1  0
  9 10  1  0
  9 14  1  0
 10 11  2  0
 10 17  1  0
 11 12  1  0
 12 13  2  0
 14 15  2  0
 14 19  1  0
 15 16  1  0
 16 17  2  0
M  END
>  <DRUGBANK_ID>  (1) 
DB08093

>  <COMMON_NAME>  (1) 
3-(1-NAPHTHYLMETHOXY)PYRIDIN-2-AMINE

$$$$
