
     RDKit          2D

 25 28  0  0  0  0  0  0  0  0999 V2000
    0.6671   -1.6139    0.0000 O   0  0  0  0  0  0  0  0  0  0  0  0
   -0.7618   -1.6139    0.0000 N   0  0  0  0  0  0  0  0  0  0  0  0
   -0.0473   -0.3764    0.0000 N   0  0  0  0  0  0  0  0  0  0  0  0
    0.6671    3.3361    0.0000 N   0  0  0  0  0  0  0  0  0  0  0  0
    1.3816    4.5736    0.0000 N   0  0  0  0  0  0  0  0  0  0  0  0
    2.0961    3.3361    0.0000 N   0  0  0  0  0  0  0  0  0  0  0  0
   -0.7618   -2.4389    0.0000 C   0  0  0  0  0  0  0  0  0  0  0  0
   -0.0719   -3.6337    0.0000 C   0  0  0  0  0  0  0  0  0  0  0  0
   -1.4517   -3.6337    0.0000 C   0  0  0  0  0  0  0  0  0  0  0  0
   -1.3320   -3.9927    0.0000 C   0  0  0  0  0  0  0  0  0  0  0  0
   -0.0719   -2.8372    0.0000 C   0  0  0  0  0  0  0  0  0  0  0  0
   -1.4517   -2.8372    0.0000 C   0  0  0  0  0  0  0  0  0  0  0  0
   -1.3320   -3.1303    0.0000 C   0  0  0  0  0  0  0  0  0  0  0  0
   -0.7618   -3.8836    0.0000 C   0  0  0  0  0  0  0  0  0  0  0  0
   -0.5848   -4.3861    0.0000 C   0  0  0  0  0  0  0  0  0  0  0  0
   -2.1420   -4.0321    0.0000 C   0  0  0  0  0  0  0  0  0  0  0  0
   -0.0473   -1.2014    0.0000 C   0  0  0  0  0  0  0  0  0  0  0  0
    0.6671    0.0361    0.0000 C   0  0  0  0  0  0  0  0  0  0  0  0
    0.6671    0.8611    0.0000 C   0  0  0  0  0  0  0  0  0  0  0  0
   -0.0473    1.2736    0.0000 C   0  0  0  0  0  0  0  0  0  0  0  0
    1.3816    1.2736    0.0000 C   0  0  0  0  0  0  0  0  0  0  0  0
   -0.0473    2.0986    0.0000 C   0  0  0  0  0  0  0  0  0  0  0  0
    1.3816    2.0986    0.0000 C   0  0  0  0  0  0  0  0  0  0  0  0
    0.6671    2.5111    0.0000 C   0  0  0  0  0  0  0  0  0  0  0  0
    1.3816    3.7486    0.0000 C   0  0  0  0  0  0  0  0  0  0  0  0
  1 17  2  0
  2  7  1  0
  2 17  1  0
  3 17  1  0
  3 18  1  0
  4 24  1  0
  4 25  2  3
  5 25  1  0
  6 25  1  0
  7 11  1  0
  7 12  1  0
  7 13  1  0
  8 11  1  0
  8 14  1  0
  8 15  1  0
  9 12  1  0
  9 14  1  0
  9 16  1  0
 10 13  1  0
 10 15  1  0
 10 16  1  0
 18 19  1  0
 19 20  2  0
 19 21  1  0
 20 22  1  0
 21 23  2  0
 22 24  2  0
 23 24  1  0
M  END
>  <DRUGBANK_ID>  (1) 
DB03782

>  <SECONDARY_ACCESSION_NUMBERS>  (1) 
EXPT00454

>  <COMMON_NAME>  (1) 
N-(1-adamantyl)-N'-(4-guanidinobenzyl)urea

$$$$
