9AR
     RDKit          2D

 26 29  0  0  0  0  0  0  0  0999 V2000
    1.2550   -1.0752    0.0000 C   0  0  0  0  0  0  0  0  0  0  0  0
    1.9500   -0.6306    0.0000 C   0  0  0  0  0  0  0  0  0  0  0  0
    1.9124    0.1936    0.0000 C   0  0  0  0  0  0  0  0  0  0  0  0
    1.1798    0.5731    0.0000 C   0  0  0  0  0  0  0  0  0  0  0  0
    0.4849    0.1285    0.0000 C   0  0  0  0  0  0  0  0  0  0  0  0
    0.5225   -0.6957    0.0000 C   0  0  0  0  0  0  0  0  0  0  0  0
   -0.2476    0.5080    0.0000 C   0  0  0  0  0  0  0  0  0  0  0  0
   -0.9425    0.0633    0.0000 C   0  0  0  0  0  0  0  0  0  0  0  0
   -0.9049   -0.7608    0.0000 C   0  0  0  0  0  0  0  0  0  0  0  0
   -0.1724   -1.1403    0.0000 C   0  0  0  0  0  0  0  0  0  0  0  0
   -0.2852    1.3321    0.0000 C   0  0  0  0  0  0  0  0  0  0  0  0
   -1.0178    1.7116    0.0000 C   0  0  0  0  0  0  0  0  0  0  0  0
   -1.7127    1.2670    0.0000 C   0  0  0  0  0  0  0  0  0  0  0  0
   -1.6751    0.4428    0.0000 C   0  0  0  0  0  0  0  0  0  0  0  0
    2.1301    1.5106    0.0000 C   0  0  0  0  0  0  0  0  0  0  0  0
    1.2927   -1.8993    0.0000 C   0  0  0  0  0  0  0  0  0  0  0  0
   -3.1025    0.3777    0.0000 C   0  0  0  0  0  0  0  0  0  0  0  0
   -2.3700   -0.0018    0.0000 O   0  0  0  0  0  0  0  0  0  0  0  0
    2.4997    0.7730    0.0000 O   0  0  0  0  0  0  0  0  0  0  0  0
    1.3144    1.3870    0.0000 O   0  0  0  0  0  0  0  0  0  0  0  0
    0.5977   -2.3440    0.0000 O   0  0  0  0  0  0  0  0  0  0  0  0
    2.0252   -2.2788    0.0000 O   0  0  0  0  0  0  0  0  0  0  0  0
   -2.4452    1.6465    0.0000 O   0  0  0  0  0  0  0  0  0  0  0  0
   -0.8297   -2.4091    0.0000 O   0  0  0  0  0  0  0  0  0  0  0  0
    0.2348   -2.7021    0.0000 O   0  0  0  0  0  0  0  0  0  0  0  0
   -0.1348   -1.9645    0.0000 N   0  0  0  0  0  0  0  0  0  0  0  0
  1  2  2  0
  1  6  1  0
  1 16  1  0
  2  3  1  0
  3  4  2  0
  3 19  1  0
  4  5  1  0
  4 20  1  0
  5  6  2  0
  5  7  1  0
  6 10  1  0
  7  8  2  0
  7 11  1  0
  8  9  1  0
  8 14  1  0
  9 10  2  0
 10 26  1  0
 11 12  2  0
 12 13  1  0
 13 14  2  0
 13 23  1  0
 14 18  1  0
 15 19  1  0
 15 20  1  0
 16 21  2  0
 16 22  1  0
 17 18  1  0
 24 26  2  0
 25 26  1  0
M  CHG  2  25  -1  26   1
M  END
>  <DRUGBANK_ID>  (1) 
DB02636

>  <SECONDARY_ACCESSION_NUMBERS>  (1) 
EXPT00354

>  <COMMON_NAME>  (1) 
9-Hydroxy-8-Methoxy-6-Nitro-Phenanthrol[3,4-D][1,3]Dioxole-5-Carboxylic Acid

$$$$
