HBN
     RDKit          2D

 21 23  0  0  0  0  0  0  0  0999 V2000
   -1.7400    1.8464    0.0000 C   0  0  0  0  0  0  0  0  0  0  0  0
   -2.4545    2.2589    0.0000 C   0  0  0  0  0  0  0  0  0  0  0  0
   -3.1690    1.8464    0.0000 C   0  0  0  0  0  0  0  0  0  0  0  0
   -3.1690    1.0214    0.0000 C   0  0  0  0  0  0  0  0  0  0  0  0
   -2.4545    0.6089    0.0000 C   0  0  0  0  0  0  0  0  0  0  0  0
   -1.7400    1.0214    0.0000 C   0  0  0  0  0  0  0  0  0  0  0  0
   -1.0256    0.6089    0.0000 C   0  0  0  0  0  0  0  0  0  0  0  0
   -1.0256   -0.2161    0.0000 C   0  0  0  0  0  0  0  0  0  0  0  0
   -1.7400   -0.6286    0.0000 C   0  0  0  0  0  0  0  0  0  0  0  0
   -2.4545   -0.2161    0.0000 C   0  0  0  0  0  0  0  0  0  0  0  0
   -0.3111   -0.6286    0.0000 N   0  0  0  0  0  0  0  0  0  0  0  0
    1.1178   -1.4536    0.0000 N   0  0  0  0  0  0  0  0  0  0  0  0
    1.1178   -0.6286    0.0000 C   0  0  0  0  0  0  0  0  0  0  0  0
    0.4034   -0.2161    0.0000 C   0  0  0  0  0  0  0  0  0  0  0  0
    0.4034    0.6089    0.0000 O   0  0  0  0  0  0  0  0  0  0  0  0
    1.8323   -0.2161    0.0000 C   0  0  0  0  0  0  0  0  0  0  0  0
    2.5468   -0.6286    0.0000 C   0  0  0  0  0  0  0  0  0  0  0  0
    3.3005   -0.2931    0.0000 N   0  0  0  0  0  0  0  0  0  0  0  0
    2.6330   -1.4491    0.0000 C   0  0  0  0  0  0  0  0  0  0  0  0
    3.8525   -0.9062    0.0000 C   0  0  0  0  0  0  0  0  0  0  0  0
    3.4400   -1.6206    0.0000 N   0  0  0  0  0  0  0  0  0  0  0  0
  1  2  2  0
  1  6  1  0
  2  3  1  0
  3  4  2  0
  4  5  1  0
  5  6  2  0
  5 10  1  0
  6  7  1  0
  7  8  2  0
  8  9  1  0
  8 11  1  0
  9 10  2  0
 11 14  1  0
 13 12  1  1
 13 14  1  0
 13 16  1  0
 14 15  2  0
 16 17  1  0
 17 18  1  0
 17 19  2  0
 18 20  1  0
 19 21  1  0
 20 21  2  0
M  END
>  <DRUGBANK_ID>  (1) 
DB01938

>  <SECONDARY_ACCESSION_NUMBERS>  (1) 
EXPT01699

>  <COMMON_NAME>  (1) 
L-Histidine Beta Naphthylamide

$$$$
