
     RDKit          2D

 40 43  0  0  0  0  0  0  0  0999 V2000
   -1.0716    1.0614    0.0000 C   0  0  0  0  0  0  0  0  0  0  0  0
   -1.7861    0.6489    0.0000 C   0  0  0  0  0  0  0  0  0  0  0  0
   -1.7861   -0.1760    0.0000 C   0  0  0  0  0  0  0  0  0  0  0  0
   -1.0716   -0.5885    0.0000 C   0  0  0  0  0  0  0  0  0  0  0  0
   -0.3572   -0.1760    0.0000 C   0  0  0  0  0  0  0  0  0  0  0  0
   -0.3572    0.6489    0.0000 C   0  0  0  0  0  0  0  0  0  0  0  0
   -2.5006    1.0614    0.0000 C   0  0  0  0  0  0  0  0  0  0  0  0
   -3.2151    0.6489    0.0000 N   0  0  0  0  0  0  0  0  0  0  0  0
   -3.9295    1.0614    0.0000 C   0  0  0  0  0  0  0  0  0  0  0  0
   -4.6440    0.6489    0.0000 C   0  0  0  0  0  0  0  0  0  0  0  0
   -5.3585    1.0614    0.0000 C   0  0  0  0  0  0  0  0  0  0  0  0
   -5.3585    0.2364    0.0000 C   0  0  0  0  0  0  0  0  0  0  0  0
   -4.4304   -0.1479    0.0000 C   0  0  0  0  0  0  0  0  0  0  0  0
    0.3572    1.0614    0.0000 C   0  0  0  0  0  0  0  0  0  0  0  0
    0.3572   -0.5885    0.0000 C   0  0  0  0  0  0  0  0  0  0  0  0
    1.0716   -0.1760    0.0000 C   0  0  0  0  0  0  0  0  0  0  0  0
    1.0716    0.6489    0.0000 C   0  0  0  0  0  0  0  0  0  0  0  0
    1.7861    1.0614    0.0000 C   0  0  0  0  0  0  0  0  0  0  0  0
    1.7861   -0.5885    0.0000 C   0  0  0  0  0  0  0  0  0  0  0  0
    2.5007   -0.1760    0.0000 C   0  0  0  0  0  0  0  0  0  0  0  0
    2.5007    0.6489    0.0000 C   0  0  0  0  0  0  0  0  0  0  0  0
    3.2151    1.0614    0.0000 C   0  0  0  0  0  0  0  0  0  0  0  0
    3.2151   -0.5885    0.0000 C   0  0  0  0  0  0  0  0  0  0  0  0
    3.9296   -0.1760    0.0000 C   0  0  0  0  0  0  0  0  0  0  0  0
    3.9296    0.6489    0.0000 C   0  0  0  0  0  0  0  0  0  0  0  0
    4.6441    1.0614    0.0000 C   0  0  0  0  0  0  0  0  0  0  0  0
    4.6441    1.8864    0.0000 O   0  0  0  0  0  0  0  0  0  0  0  0
    5.3584    0.6489    0.0000 N   0  0  0  0  0  0  0  0  0  0  0  0
    4.6441   -0.5885    0.0000 O   0  0  0  0  0  0  0  0  0  0  0  0
    3.2151    1.8864    0.0000 O   0  0  0  0  0  0  0  0  0  0  0  0
    3.7985   -1.1719    0.0000 N   0  0  0  0  0  0  0  0  0  0  0  0
    4.6235   -1.1719    0.0000 C   0  0  0  0  0  0  0  0  0  0  0  0
    3.3860   -1.8864    0.0000 C   0  0  0  0  0  0  0  0  0  0  0  0
    2.5007    1.4739    0.0000 O   0  0  0  0  0  0  0  0  0  0  0  0
    1.7861    1.8864    0.0000 O   0  0  0  0  0  0  0  0  0  0  0  0
    0.3572    1.8864    0.0000 O   0  0  0  0  0  0  0  0  0  0  0  0
   -1.0716    1.8864    0.0000 O   0  0  0  0  0  0  0  0  0  0  0  0
   -1.0716   -1.4135    0.0000 N   0  0  0  0  0  0  0  0  0  0  0  0
   -0.3572   -1.8260    0.0000 C   0  0  0  0  0  0  0  0  0  0  0  0
   -1.7861   -1.8260    0.0000 C   0  0  0  0  0  0  0  0  0  0  0  0
  1  2  2  0
  1  6  1  0
  1 37  1  0
  2  3  1  0
  2  7  1  0
  3  4  2  0
  4  5  1  0
  5 15  1  0
  6  5  2  0
  7  8  1  0
  8  9  1  0
  9 10  1  0
 10 11  1  0
 10 12  1  0
 10 13  1  0
 14  6  1  0
 14 17  1  0
 14 36  2  0
 16 15  1  6
 16 19  1  0
 17 16  1  0
 18 17  2  0
 18 21  1  0
 18 35  1  0
 20 19  1  6
 20 23  1  0
 21 20  1  0
 21 34  1  1
 22 21  1  0
 22 25  1  0
 22 30  2  0
 23 24  1  0
 23 31  1  1
 24 25  2  0
 24 29  1  0
 25 26  1  0
 26 27  2  0
 26 28  1  0
 31 32  1  0
 31 33  1  0
 38  4  1  0
 38 39  1  0
 38 40  1  0
M  END
>  <DRUGBANK_ID>  (1) 
DB12455

>  <COMMON_NAME>  (1) 
Omadacycline

>  <CAS_NUMBER>  (1) 
389139-89-3

>  <UNII>  (1) 
090IP5RV8F

>  <SYNONYMS>  (1) 
Amadacycline; Omadacycline

$$$$
