907
     RDKit          2D

 21 23  0  0  0  0  0  0  0  0999 V2000
    1.4195    0.6957    0.0000 C   0  0  0  0  0  0  0  0  0  0  0  0
    1.4195   -0.1293    0.0000 C   0  0  0  0  0  0  0  0  0  0  0  0
    0.7050   -0.5418    0.0000 C   0  0  0  0  0  0  0  0  0  0  0  0
   -0.0094   -0.1293    0.0000 C   0  0  0  0  0  0  0  0  0  0  0  0
   -0.0094    0.6957    0.0000 C   0  0  0  0  0  0  0  0  0  0  0  0
    0.7050    1.1082    0.0000 C   0  0  0  0  0  0  0  0  0  0  0  0
    2.1340    1.1082    0.0000 C   0  0  0  0  0  0  0  0  0  0  0  0
    2.8484    0.6957    0.0000 N   0  0  0  0  0  0  0  0  0  0  0  0
    2.1340    1.9332    0.0000 N   0  0  0  0  0  0  0  0  0  0  0  0
   -0.7941   -0.3842    0.0000 N   0  0  0  0  0  0  0  0  0  0  0  0
   -0.7941    0.9507    0.0000 C   0  0  0  0  0  0  0  0  0  0  0  0
   -1.2790    0.2832    0.0000 C   0  0  0  0  0  0  0  0  0  0  0  0
   -2.1040    0.2832    0.0000 C   0  0  0  0  0  0  0  0  0  0  0  0
   -2.5165   -0.4313    0.0000 C   0  0  0  0  0  0  0  0  0  0  0  0
   -3.3415   -0.4313    0.0000 C   0  0  0  0  0  0  0  0  0  0  0  0
   -3.7540   -1.1457    0.0000 C   0  0  0  0  0  0  0  0  0  0  0  0
   -3.7540    0.2832    0.0000 C   0  0  0  0  0  0  0  0  0  0  0  0
   -3.3415    0.9977    0.0000 C   0  0  0  0  0  0  0  0  0  0  0  0
   -2.5165    0.9977    0.0000 C   0  0  0  0  0  0  0  0  0  0  0  0
   -2.1040    1.7122    0.0000 O   0  0  0  0  0  0  0  0  0  0  0  0
   -3.7540    1.7122    0.0000 Br  0  0  0  0  0  0  0  0  0  0  0  0
  1  2  2  0
  1  6  1  0
  1  7  1  0
  2  3  1  0
  3  4  2  0
  4  5  1  0
  4 10  1  0
  5  6  2  0
  5 11  1  0
  7  8  1  0
  7  9  2  0
 10 12  1  0
 11 12  2  0
 12 13  1  0
 13 14  2  0
 13 19  1  0
 14 15  1  0
 15 16  1  0
 15 17  2  0
 17 18  1  0
 18 19  2  0
 18 21  1  0
 19 20  1  0
M  CHG  2   9   1  20  -1
M  END
>  <DRUGBANK_ID>  (1) 
DB04215

>  <SECONDARY_ACCESSION_NUMBERS>  (1) 
EXPT00340

>  <COMMON_NAME>  (1) 
CRA_9076

$$$$
