226
     RDKit          2D

 15 16  0  0  0  0  0  0  0  0999 V2000
    0.2275   -3.3509    0.0000 O   0  0  0  0  0  0  0  0  0  0  0  0
    0.2275   -2.5259    0.0000 C   0  0  0  0  0  0  0  0  0  0  0  0
    0.9419   -2.1134    0.0000 C   0  0  0  0  0  0  0  0  0  0  0  0
    1.6564   -2.5259    0.0000 C   0  0  0  0  0  0  0  0  0  0  0  0
    2.3709   -2.1134    0.0000 C   0  0  0  0  0  0  0  0  0  0  0  0
    3.0854   -2.5259    0.0000 O   0  0  0  0  0  0  0  0  0  0  0  0
    2.3709   -1.2884    0.0000 C   0  0  0  0  0  0  0  0  0  0  0  0
    1.6564   -0.8759    0.0000 C   0  0  0  0  0  0  0  0  0  0  0  0
    1.6564   -0.0509    0.0000 O   0  0  0  0  0  0  0  0  0  0  0  0
    0.9419   -1.2884    0.0000 C   0  0  0  0  0  0  0  0  0  0  0  0
    0.2275   -0.8759    0.0000 C   0  0  0  0  0  0  0  0  0  0  0  0
    0.2275   -0.0509    0.0000 O   0  0  0  0  0  0  0  0  0  0  0  0
   -0.4870   -1.2884    0.0000 C   0  0  0  0  0  0  0  0  0  0  0  0
   -0.4870   -2.1134    0.0000 C   0  0  0  0  0  0  0  0  0  0  0  0
   -1.2015   -2.5259    0.0000 O   0  0  0  0  0  0  0  0  0  0  0  0
  1  2  1  0
  2 14  2  0
  2  3  1  0
  3 10  2  0
  4  3  1  0
  4  5  2  0
  5  7  1  0
  6  5  1  0
  7  8  2  0
  8  9  1  0
 10 11  1  0
 10  8  1  0
 11 12  1  0
 13 11  2  0
 14 13  1  0
 15 14  1  0
M  END
>  <DRUGBANK_ID>  (1) 
DB06915

>  <COMMON_NAME>  (1) 
naphthalene-1,2,4,5,7-pentol

$$$$
