
     RDKit          2D

 26 31  0  0  0  0  0  0  0  0999 V2000
    0.0000    0.8250    0.0000 C   0  0  0  0  0  0  0  0  0  0  0  0
   -0.7145    0.4125    0.0000 C   0  0  0  0  0  0  0  0  0  0  0  0
   -0.7144    2.0625    0.0000 C   0  0  0  0  0  0  0  0  0  0  0  0
   -1.4289    1.6501    0.0000 C   0  0  0  0  0  0  0  0  0  0  0  0
   -1.4289    0.8250    0.0000 C   0  0  0  0  0  0  0  0  0  0  0  0
    0.0000    1.6500    0.0000 C   0  0  0  0  0  0  0  0  0  0  0  0
   -1.4289   -0.8250    0.0000 C   0  0  0  0  0  0  0  0  0  0  0  0
   -1.4289   -1.6501    0.0000 C   0  0  0  0  0  0  0  0  0  0  0  0
   -0.7144   -2.0625    0.0000 C   0  0  0  0  0  0  0  0  0  0  0  0
    0.0000   -1.6500    0.0000 C   0  0  0  0  0  0  0  0  0  0  0  0
    0.7145   -0.4125    0.0000 C   0  0  0  0  0  0  0  0  0  0  0  0
    1.4290   -0.8250    0.0000 N   0  0  0  0  0  0  0  0  0  0  0  0
    0.0000   -0.8250    0.0000 C   0  0  0  0  0  0  0  0  0  0  0  0
    0.7145   -1.2375    0.0000 O   0  0  0  0  0  0  0  0  0  0  0  0
    0.7144    0.4125    0.0000 C   0  0  0  0  0  0  0  0  0  0  0  0
   -0.7145   -0.4125    0.0000 C   0  0  0  0  0  0  0  0  0  0  0  0
    0.0000    0.0000    0.0000 C   0  0  0  0  0  0  0  0  0  0  0  0
    1.4435    0.0000    0.0000 C   0  0  0  0  0  0  0  0  0  0  0  0
   -2.1434   -2.0626    0.0000 O   0  0  0  0  0  0  0  0  0  0  0  0
   -1.9621    0.0410    0.0000 O   0  0  0  0  0  0  0  0  0  0  0  0
   -2.1434    2.0626    0.0000 O   0  0  0  0  0  0  0  0  0  0  0  0
    2.2540   -0.8250    0.0000 C   0  0  0  0  0  0  0  0  0  0  0  0
    2.8374   -1.4084    0.0000 C   0  0  0  0  0  0  0  0  0  0  0  0
    2.8374   -2.2334    0.0000 C   0  0  0  0  0  0  0  0  0  0  0  0
    3.6624   -1.4084    0.0000 C   0  0  0  0  0  0  0  0  0  0  0  0
    3.6624   -2.2334    0.0000 C   0  0  0  0  0  0  0  0  0  0  0  0
  1  6  2  0
  2  1  1  0
  3  4  2  0
  3  6  1  0
  4  5  1  0
  4 21  1  0
  5  2  2  0
  5 20  1  0
  7  8  1  0
  7 20  1  6
  8  9  1  0
  8 19  1  6
  9 10  1  0
 10 13  1  0
 11 12  1  0
 11 15  1  1
 12 18  1  0
 12 22  1  0
 13 11  1  0
 13 14  1  1
 15  1  1  0
 16  2  1  0
 16 13  1  0
 16  7  1  0
 16 17  1  1
 17 18  1  0
 22 23  1  0
 23 24  1  0
 23 25  1  0
 25 26  1  0
 26 24  1  0
M  END
>  <DRUGBANK_ID>  (1) 
DB00844

>  <SECONDARY_ACCESSION_NUMBERS>  (1) 
APRD01132

>  <COMMON_NAME>  (1) 
Nalbuphine

>  <CAS_NUMBER>  (1) 
20594-83-6

>  <UNII>  (1) 
L2T84IQI2K

>  <SYNONYMS>  (1) 
N-cyclobutylmethyl-4,5α-epoxy-3,6α,14-morphinantriol; Nalbufina; Nalbuphin; Nalbuphine; Nalbuphinum

$$$$
