
     RDKit          2D

 22 23  0  0  0  0  0  0  0  0999 V2000
   -3.9515   -0.1842    0.0000 C   0  0  0  0  0  0  0  0  0  0  0  0
   -3.9515   -1.0093    0.0000 C   0  0  0  0  0  0  0  0  0  0  0  0
   -3.2370   -1.4219    0.0000 C   0  0  0  0  0  0  0  0  0  0  0  0
   -2.5225   -1.0093    0.0000 C   0  0  0  0  0  0  0  0  0  0  0  0
   -2.5225   -0.1842    0.0000 C   0  0  0  0  0  0  0  0  0  0  0  0
   -3.2370    0.2281    0.0000 C   0  0  0  0  0  0  0  0  0  0  0  0
   -1.8080    0.2281    0.0000 C   0  0  0  0  0  0  0  0  0  0  0  0
   -1.0935   -0.1843    0.0000 C   0  0  0  0  0  0  0  0  0  0  0  0
   -0.3790    0.2280    0.0000 N   0  0  0  0  0  0  0  0  0  0  0  0
    0.3353   -0.1844    0.0000 C   0  0  0  0  0  0  0  0  0  0  0  0
    0.3353   -1.0094    0.0000 O   0  0  0  0  0  0  0  0  0  0  0  0
    1.0062    0.2717    0.0000 C   0  0  0  0  0  0  0  0  0  0  0  0
    1.8299   -0.2062    0.0000 C   0  0  0  0  0  0  0  0  0  0  0  0
    2.5225    0.1843    0.0000 C   0  0  0  0  0  0  0  0  0  0  0  0
    3.2371   -0.2281    0.0000 C   0  0  0  0  0  0  0  0  0  0  0  0
    3.9516    0.1843    0.0000 C   0  0  0  0  0  0  0  0  0  0  0  0
    3.9516    1.0093    0.0000 C   0  0  0  0  0  0  0  0  0  0  0  0
    3.2371    1.4219    0.0000 C   0  0  0  0  0  0  0  0  0  0  0  0
    2.5225    1.0093    0.0000 C   0  0  0  0  0  0  0  0  0  0  0  0
    4.6661    1.4219    0.0000 O   0  0  0  0  0  0  0  0  0  0  0  0
    4.6661   -0.2281    0.0000 O   0  0  0  0  0  0  0  0  0  0  0  0
   -4.6661   -1.4219    0.0000 O   0  0  0  0  0  0  0  0  0  0  0  0
  1  2  2  0
  1  6  1  0
  2  3  1  0
  2 22  1  0
  3  4  2  0
  4  5  1  0
  5  6  2  0
  5  7  1  0
  8  7  1  0
  8  9  1  0
 10  9  1  0
 10 12  1  0
 11 10  2  0
 13 12  2  0
 14 13  1  0
 14 19  1  0
 15 14  2  0
 15 16  1  0
 16 17  2  0
 16 21  1  0
 17 18  1  0
 17 20  1  0
 18 19  2  0
M  END
>  <DRUGBANK_ID>  (1) 
DB08754

>  <COMMON_NAME>  (1) 
N-Caffeoyltyramine

>  <CAS_NUMBER>  (1) 
103188-48-3

>  <UNII>  (1) 
3LZ974DQ9J

>  <SYNONYMS>  (1) 
N-Caffeoyltyramine; N-trans-Caffeoyltyramine; trans-N-Caffeoyltyramine; Typheramide

$$$$
