MXT
     RDKit          2D

 18 19  0  0  0  0  0  0  0  0999 V2000
   -0.5683    1.0527    0.0000 N   0  0  0  0  0  0  0  0  0  0  0  0
    0.8865   -0.9496    0.0000 N   0  0  0  0  0  0  0  0  0  0  0  0
    1.3714   -1.6171    0.0000 O   0  0  0  0  0  0  0  0  0  0  0  0
   -1.8782    0.3852    0.0000 O   0  0  0  0  0  0  0  0  0  0  0  0
    0.4713    2.0922    0.0000 O   0  0  0  0  0  0  0  0  0  0  0  0
   -1.3933    1.0527    0.0000 C   0  0  0  0  0  0  0  0  0  0  0  0
   -0.0833    0.3852    0.0000 C   0  0  0  0  0  0  0  0  0  0  0  0
   -0.4189   -0.3684    0.0000 C   0  0  0  0  0  0  0  0  0  0  0  0
    0.7371    0.4715    0.0000 C   0  0  0  0  0  0  0  0  0  0  0  0
    0.0660   -1.0359    0.0000 C   0  0  0  0  0  0  0  0  0  0  0  0
    0.1236   -1.8589    0.0000 C   0  0  0  0  0  0  0  0  0  0  0  0
   -0.5841   -1.5438    0.0000 C   0  0  0  0  0  0  0  0  0  0  0  0
    1.2221   -0.1960    0.0000 C   0  0  0  0  0  0  0  0  0  0  0  0
    1.9870   -0.5050    0.0000 C   0  0  0  0  0  0  0  0  0  0  0  0
    1.9060    0.2654    0.0000 C   0  0  0  0  0  0  0  0  0  0  0  0
   -0.9808    2.3222    0.0000 C   0  0  0  0  0  0  0  0  0  0  0  0
   -1.6482    1.8373    0.0000 C   0  0  0  0  0  0  0  0  0  0  0  0
   -0.3133    1.8373    0.0000 C   0  0  0  0  0  0  0  0  0  0  0  0
  1  6  1  0
  1  7  1  0
  1 18  1  0
  2  3  1  0
  2 10  1  0
  2 13  1  0
  4  6  2  0
  5 18  2  0
  6 17  1  0
  7  8  1  0
  7  9  1  0
  8 10  1  0
  9 13  1  0
 10 11  1  0
 10 12  1  0
 13 14  1  0
 13 15  1  0
 16 17  1  0
 16 18  1  0
M  END
>  <DRUGBANK_ID>  (1) 
DB08227

>  <COMMON_NAME>  (1) 
1-(1-HYDROXY-2,2,6,6-TETRAMETHYLPIPERIDIN-4-YL)PYRROLIDINE-2,5-DIONE

$$$$
