
     RDKit          2D

  5  3  0  0  0  0  0  0  0  0999 V2000
    0.0000    0.6040    0.0000 V   0  0  0  0  0  5  0  0  0  0  0  0
    0.7145    1.0166    0.0000 O   0  0  0  0  0  0  0  0  0  0  0  0
   -0.7145    1.0166    0.0000 O   0  0  0  0  0  0  0  0  0  0  0  0
    0.0000   -0.2209    0.0000 O   0  0  0  0  0  0  0  0  0  0  0  0
    0.0000   -1.0166    0.0000 Na  0  0  0  0  0 15  0  0  0  0  0  0
  1  2  2  0
  1  3  2  0
  1  4  1  0
M  CHG  2   4  -1   5   1
M  END
>  <DRUGBANK_ID>  (1) 
DB14702

>  <COMMON_NAME>  (1) 
Sodium metavanadate

>  <CAS_NUMBER>  (1) 
13718-26-8

>  <UNII>  (1) 
252S9L5606

>  <SYNONYMS>  (1) 
Sodium trioxovanadate; Sodium vanadate; Sodium vanadate(V); Sodium vanadium oxide; Vanadic acid, monosodium salt

$$$$
