
     RDKit          2D

 33 32  0  0  0  0  0  0  0  0999 V2000
    0.0026   -0.2046    0.0000 C   0  0  0  0  0  0  0  0  0  0  0  0
   -1.4299    1.4506    0.0000 C   0  0  0  0  0  0  0  0  0  0  0  0
    2.8675    1.4506    0.0000 C   0  0  0  0  0  0  0  0  0  0  0  0
    0.7149    0.2071    0.0000 O   0  0  0  0  0  0  0  0  0  0  0  0
   -0.7200    1.0310    0.0000 O   0  0  0  0  0  0  0  0  0  0  0  0
    2.1475    1.0310    0.0000 O   0  0  0  0  0  0  0  0  0  0  0  0
   -0.7200    0.2071    0.0000 O   0  0  0  0  0  0  0  0  0  0  0  0
    2.8675    2.2743    0.0000 O   0  0  0  0  0  0  0  0  0  0  0  0
   -1.4299    2.2743    0.0000 O   0  0  0  0  0  0  0  0  0  0  0  0
    0.7149    1.0310    0.0000 C   0  0  0  0  0  0  0  0  0  0  0  0
    0.0026   -1.0362    0.0000 C   0  0  0  0  0  0  0  0  0  0  0  0
    3.5774    1.0310    0.0000 C   0  0  0  0  0  0  0  0  0  0  0  0
   -2.1500    1.0310    0.0000 C   0  0  0  0  0  0  0  0  0  0  0  0
    0.0026    1.4506    0.0000 C   0  0  0  0  0  0  0  0  0  0  0  0
    1.4325    1.4506    0.0000 C   0  0  0  0  0  0  0  0  0  0  0  0
    0.7149   -1.4480    0.0000 C   0  0  0  0  0  0  0  0  0  0  0  0
   -0.7200   -1.4480    0.0000 C   0  0  0  0  0  0  0  0  0  0  0  0
    3.5774    0.2071    0.0000 C   0  0  0  0  0  0  0  0  0  0  0  0
   -2.1500    0.2071    0.0000 C   0  0  0  0  0  0  0  0  0  0  0  0
    4.3002    1.4506    0.0000 C   0  0  0  0  0  0  0  0  0  0  0  0
   -2.8649    1.4506    0.0000 C   0  0  0  0  0  0  0  0  0  0  0  0
   -0.7200   -2.2718    0.0000 C   0  0  0  0  0  0  0  0  0  0  0  0
    4.3002    2.2743    0.0000 C   0  0  0  0  0  0  0  0  0  0  0  0
   -3.5826    1.0310    0.0000 C   0  0  0  0  0  0  0  0  0  0  0  0
   -1.4299   -2.6915    0.0000 C   0  0  0  0  0  0  0  0  0  0  0  0
   -4.2949    1.4506    0.0000 C   0  0  0  0  0  0  0  0  0  0  0  0
    5.0125    2.6862    0.0000 C   0  0  0  0  0  0  0  0  0  0  0  0
    0.7149   -2.2718    0.0000 C   0  0  0  0  0  0  0  0  0  0  0  0
    2.8675   -0.2046    0.0000 C   0  0  0  0  0  0  0  0  0  0  0  0
   -2.8649   -0.2046    0.0000 C   0  0  0  0  0  0  0  0  0  0  0  0
   -1.4299   -3.5126    0.0000 C   0  0  0  0  0  0  0  0  0  0  0  0
   -5.0125    1.0310    0.0000 C   0  0  0  0  0  0  0  0  0  0  0  0
    5.0125    3.5126    0.0000 C   0  0  0  0  0  0  0  0  0  0  0  0
  2  5  1  0
  3  6  1  0
  4  1  1  0
  5 14  1  0
  6 15  1  0
  7  1  2  0
  8  3  2  0
  9  2  2  0
 10  4  1  0
 11  1  1  0
 12  3  1  0
 13  2  1  0
 14 10  1  0
 15 10  1  0
 16 11  1  0
 17 11  1  0
 18 12  1  0
 19 13  1  0
 20 12  1  0
 21 13  1  0
 22 17  1  0
 23 20  1  0
 24 21  1  0
 25 22  1  0
 26 24  1  0
 27 23  1  0
 28 16  1  0
 29 18  1  0
 30 19  1  0
 31 25  1  0
 32 26  1  0
 33 27  1  0
M  END
>  <DRUGBANK_ID>  (1) 
DB14102

>  <COMMON_NAME>  (1) 
Triethylhexanoin

>  <CAS_NUMBER>  (1) 
7360-38-5

>  <UNII>  (1) 
7K3W1BIU6K

$$$$
