
     RDKit          2D

 29 32  0  0  0  0  0  0  0  0999 V2000
    5.7158    0.0000    0.0000 C   0  0  0  0  0  0  0  0  0  0  0  0
    5.0013   -0.4125    0.0000 C   0  0  0  0  0  0  0  0  0  0  0  0
    4.2868    0.0000    0.0000 O   0  0  0  0  0  0  0  0  0  0  0  0
    3.5724   -0.4125    0.0000 C   0  0  0  0  0  0  0  0  0  0  0  0
    2.8579    0.0000    0.0000 C   0  0  0  0  0  0  0  0  0  0  0  0
    2.1434   -0.4125    0.0000 C   0  0  0  0  0  0  0  0  0  0  0  0
    1.4289   -0.0000    0.0000 C   0  0  0  0  0  0  0  0  0  0  0  0
    0.7145   -0.4125    0.0000 N   0  0  0  0  0  0  0  0  0  0  0  0
    0.7145   -1.2375    0.0000 C   0  0  0  0  0  0  0  0  0  0  0  0
    1.3819   -1.7224    0.0000 N   0  0  0  0  0  0  0  0  0  0  0  0
    1.1270   -2.5070    0.0000 C   0  0  0  0  0  0  0  0  0  0  0  0
    0.3020   -2.5070    0.0000 C   0  0  0  0  0  0  0  0  0  0  0  0
    0.0470   -1.7224    0.0000 O   0  0  0  0  0  0  0  0  0  0  0  0
   -0.1830   -3.1745    0.0000 C   0  0  0  0  0  0  0  0  0  0  0  0
    0.1526   -3.9282    0.0000 C   0  0  0  0  0  0  0  0  0  0  0  0
   -0.3323   -4.5956    0.0000 C   0  0  0  0  0  0  0  0  0  0  0  0
   -1.1528   -4.5094    0.0000 C   0  0  0  0  0  0  0  0  0  0  0  0
   -1.4884   -3.7557    0.0000 C   0  0  0  0  0  0  0  0  0  0  0  0
   -1.0034   -3.0882    0.0000 C   0  0  0  0  0  0  0  0  0  0  0  0
   -1.6377   -5.1768    0.0000 N   0  0  0  0  0  0  0  0  0  0  0  0
   -1.3828   -5.9614    0.0000 C   0  0  0  0  0  0  0  0  0  0  0  0
   -2.0502   -6.4463    0.0000 C   0  0  0  0  0  0  0  0  0  0  0  0
   -2.7177   -5.9614    0.0000 N   0  0  0  0  0  0  0  0  0  0  0  0
   -2.4627   -5.1768    0.0000 C   0  0  0  0  0  0  0  0  0  0  0  0
   -2.9476   -4.5094    0.0000 O   0  0  0  0  0  0  0  0  0  0  0  0
    1.4289    0.8250    0.0000 C   0  0  0  0  0  0  0  0  0  0  0  0
    0.7145    1.2375    0.0000 C   0  0  0  0  0  0  0  0  0  0  0  0
    2.1434    1.2375    0.0000 C   0  0  0  0  0  0  0  0  0  0  0  0
    2.8579    0.8250    0.0000 C   0  0  0  0  0  0  0  0  0  0  0  0
  1  2  1  0
  2  3  1  0
  3  4  1  0
  4  5  1  0
  5  6  2  0
  5 29  1  0
  6  7  1  0
  7  8  1  0
  7 26  2  0
  8  9  1  0
  9 10  2  0
  9 13  1  0
 10 11  1  0
 11 12  2  0
 12 13  1  0
 12 14  1  0
 14 15  2  0
 14 19  1  0
 15 16  1  0
 16 17  2  0
 17 18  1  0
 17 20  1  0
 18 19  2  0
 20 21  1  0
 20 24  1  0
 21 22  1  0
 22 23  1  0
 23 24  1  0
 24 25  2  0
 26 27  1  0
 26 28  1  0
 28 29  2  0
M  END
>  <DRUGBANK_ID>  (1) 
DB17115

>  <COMMON_NAME>  (1) 
AB-8939

>  <CAS_NUMBER>  (1) 
1974336-09-8

>  <UNII>  (1) 
REU6L9A46J

>  <SYNONYMS>  (1) 
1-(4-(2-(5-ethoxymethyl-2-methyl-phenylamino)-oxazol-5-yl)-phenyl)-imidazolidin-2-one; 2-imidazolidinone, 1-(4-(2-((5-(ethoxymethyl)-2-methylphenyl)amino)-5-oxazolyl)phenyl)-

$$$$
