GSK
     RDKit          2D

 31 34  0  0  0  0  0  0  0  0999 V2000
   -4.9733   -3.3801    0.0000 Cl  0  0  0  0  0  0  0  0  0  0  0  0
   -4.2588   -2.9676    0.0000 C   0  0  0  0  0  0  0  0  0  0  0  0
   -4.2588   -2.1426    0.0000 C   0  0  0  0  0  0  0  0  0  0  0  0
   -3.5444   -1.7301    0.0000 C   0  0  0  0  0  0  0  0  0  0  0  0
   -2.8299   -2.1426    0.0000 C   0  0  0  0  0  0  0  0  0  0  0  0
   -2.1154   -1.7301    0.0000 C   0  0  0  0  0  0  0  0  0  0  0  0
   -2.8299   -2.9676    0.0000 C   0  0  0  0  0  0  0  0  0  0  0  0
   -3.5444   -3.3801    0.0000 C   0  0  0  0  0  0  0  0  0  0  0  0
   -2.1154   -3.3801    0.0000 C   0  0  0  0  0  0  0  0  0  0  0  0
   -1.4010   -2.9676    0.0000 C   0  0  0  0  0  0  0  0  0  0  0  0
   -1.4010   -2.1426    0.0000 C   0  0  0  0  0  0  0  0  0  0  0  0
   -0.6865   -1.7301    0.0000 S   0  0  0  0  0  0  0  0  0  0  0  0
   -0.2740   -2.4446    0.0000 O   0  0  0  0  0  0  0  0  0  0  0  0
   -1.0990   -1.0157    0.0000 O   0  0  0  0  0  0  0  0  0  0  0  0
    0.0280   -1.3176    0.0000 N   0  0  0  0  0  0  0  0  0  0  0  0
    0.0280   -0.4926    0.0000 C   0  0  0  0  0  0  0  0  0  0  0  0
   -0.6395   -0.0077    0.0000 C   0  0  0  0  0  0  0  0  0  0  0  0
   -0.3845    0.7769    0.0000 C   0  0  0  0  0  0  0  0  0  0  0  0
    0.6954   -0.0077    0.0000 C   0  0  0  0  0  0  0  0  0  0  0  0
    1.4800   -0.2627    0.0000 O   0  0  0  0  0  0  0  0  0  0  0  0
    0.4405    0.7769    0.0000 N   0  0  0  0  0  0  0  0  0  0  0  0
    0.9254    1.4443    0.0000 C   0  0  0  0  0  0  0  0  0  0  0  0
    1.7459    1.3581    0.0000 C   0  0  0  0  0  0  0  0  0  0  0  0
    0.5899    2.1980    0.0000 C   0  0  0  0  0  0  0  0  0  0  0  0
   -0.2306    2.2843    0.0000 O   0  0  0  0  0  0  0  0  0  0  0  0
    1.0748    2.8655    0.0000 N   0  0  0  0  0  0  0  0  0  0  0  0
    0.7392    3.6191    0.0000 C   0  0  0  0  0  0  0  0  0  0  0  0
    1.2241    4.2866    0.0000 C   0  0  0  0  0  0  0  0  0  0  0  0
    2.0446    4.2003    0.0000 O   0  0  0  0  0  0  0  0  0  0  0  0
    2.3802    3.4467    0.0000 C   0  0  0  0  0  0  0  0  0  0  0  0
    1.8953    2.7792    0.0000 C   0  0  0  0  0  0  0  0  0  0  0  0
  1  2  1  0
  2  3  2  0
  2  8  1  0
  3  4  1  0
  4  5  2  0
  5  6  1  0
  5  7  1  0
  6 11  2  0
  7  8  2  0
  7  9  1  0
  9 10  2  0
 10 11  1  0
 11 12  1  0
 12 13  2  0
 12 14  2  0
 12 15  1  0
 16 15  1  1
 16 17  1  0
 16 19  1  0
 17 18  1  0
 18 21  1  0
 19 20  2  0
 19 21  1  0
 21 22  1  0
 22 23  1  6
 22 24  1  0
 24 25  2  0
 24 26  1  0
 26 27  1  0
 26 31  1  0
 27 28  1  0
 28 29  1  0
 29 30  1  0
 30 31  1  0
M  END
>  <DRUGBANK_ID>  (1) 
DB07847

>  <COMMON_NAME>  (1) 
6-CHLORO-N-{(3S)-1-[(1S)-1-METHYL-2-(4-MORPHOLINYL)-2-OXO ETHYL]-2-OXO-3-PYRROLIDINYL}-2-NAPHTHALENESULFONAMIDE

$$$$
