
     RDKit          2D

 13 12  0  0  0  0  0  0  0  0999 V2000
    1.4289   -0.4124    0.0000 C   0  0  0  0  0  0  0  0  0  0  0  0
    0.7144    0.0000    0.0000 Sn  0  0  0  0  0  4  0  0  0  0  0  0
    0.7144    0.8250    0.0000 C   0  0  0  0  0  0  0  0  0  0  0  0
    0.0000   -0.4124    0.0000 C   0  0  0  0  0  0  0  0  0  0  0  0
    1.4289    1.2375    0.0000 C   0  0  0  0  0  0  0  0  0  0  0  0
    1.4289    2.0624    0.0000 C   0  0  0  0  0  0  0  0  0  0  0  0
    2.1434    2.4749    0.0000 C   0  0  0  0  0  0  0  0  0  0  0  0
    1.4288   -1.2374    0.0000 C   0  0  0  0  0  0  0  0  0  0  0  0
    2.1432   -1.6499    0.0000 C   0  0  0  0  0  0  0  0  0  0  0  0
    2.1430   -2.4749    0.0000 C   0  0  0  0  0  0  0  0  0  0  0  0
   -0.7146    0.0001    0.0000 C   0  0  0  0  0  0  0  0  0  0  0  0
   -1.4290   -0.4122    0.0000 C   0  0  0  0  0  0  0  0  0  0  0  0
   -2.1434    0.0002    0.0000 C   0  0  0  0  0  0  0  0  0  0  0  0
  1  8  1  0
  2  1  1  0
  2  3  1  0
  2  4  1  0
  3  5  1  0
  4 11  1  0
  5  6  1  0
  6  7  1  0
  8  9  1  0
  9 10  1  0
 11 12  1  0
 12 13  1  0
M  END
>  <DRUGBANK_ID>  (1) 
DB08601

>  <COMMON_NAME>  (1) 
Tributyltin

>  <CAS_NUMBER>  (1) 
688-73-3

>  <UNII>  (1) 
4XDX163P3D

>  <SYNONYMS>  (1) 
Tri-n-butylstannane hydride; Tri-n-butyltin hydride; Tributylstannane; Tributylstannanyl; Tributyltin hydride

$$$$
