
     RDKit          2D

 18 20  0  0  1  0  0  0  0  0999 V2000
    1.7566    3.1935    0.0000 C   0  0  0  0  0  0  0  0  0  0  0  0
    1.2717    2.5261    0.0000 C   0  0  0  0  0  0  0  0  0  0  0  0
    1.6073    1.7724    0.0000 C   0  0  0  0  0  0  0  0  0  0  0  0
    1.1224    1.1050    0.0000 N   0  0  0  0  0  0  0  0  0  0  0  0
    0.3019    1.1912    0.0000 C   0  0  0  0  0  0  0  0  0  0  0  0
   -0.1830    0.5238    0.0000 O   0  0  0  0  0  0  0  0  0  0  0  0
   -0.0337    1.9449    0.0000 N   0  0  0  0  0  0  0  0  0  0  0  0
    0.4512    2.6123    0.0000 C   0  0  0  0  0  0  0  0  0  0  0  0
    0.1157    3.3660    0.0000 O   0  0  0  0  0  0  0  0  0  0  0  0
    1.4579    0.3513    0.0000 C   0  0  0  0  0  0  0  0  0  0  0  0
    2.2425    0.6062    0.0000 C   0  0  0  0  0  0  0  0  0  0  0  0
    2.7275   -0.0612    0.0000 C   0  0  0  0  0  0  0  0  0  0  0  0
    3.5525   -0.0612    0.0000 O   0  0  0  0  0  0  0  0  0  0  0  0
    2.2425   -0.7286    0.0000 C   0  0  0  0  0  0  0  0  0  0  0  0
    2.4975   -1.5133    0.0000 C   0  0  0  0  0  0  0  0  0  0  0  0
    3.3044   -1.6848    0.0000 O   0  0  0  0  0  0  0  0  0  0  0  0
    1.4579   -0.4737    0.0000 C   0  0  0  0  0  0  0  0  0  0  0  0
    0.7434   -0.0612    0.0000 C   0  0  0  0  0  0  0  0  0  0  0  0
  1  2  1  0
  2  3  2  0
  2  8  1  0
  3  4  1  0
  4  5  1  0
  5  6  2  0
  5  7  1  0
  7  8  1  0
  8  9  2  0
 10  4  1  1
 10 11  1  0
 10 17  1  0
 10 18  1  0
 11 12  1  0
 12 13  1  6
 12 14  1  0
 14 15  1  1
 14 17  1  0
 15 16  1  0
 17 18  1  6
M  END
>  <DRUGBANK_ID>  (1) 
DB02921

>  <SECONDARY_ACCESSION_NUMBERS>  (1) 
EXPT02872

>  <COMMON_NAME>  (1) 
(South)-Methanocarba-Thymidine

>  <SYNONYMS>  (1) 
(South)-methanocarbathymidine

$$$$
