
     RDKit          2D

 19 19  0  0  0  0  0  0  0  0999 V2000
    0.1914   -0.0726    0.0000 O   0  0  0  0  0  0  0  0  0  0  0  0
   -1.9521    0.3399    0.0000 O   0  0  0  0  0  0  0  0  0  0  0  0
   -1.9521   -1.3102    0.0000 O   0  0  0  0  0  0  0  0  0  0  0  0
   -0.5230   -2.1353    0.0000 O   0  0  0  0  0  0  0  0  0  0  0  0
    1.6205   -0.8977    0.0000 O   0  0  0  0  0  0  0  0  0  0  0  0
   -1.7606    1.0544    0.0000 O   0  0  0  0  0  0  0  0  0  0  0  0
    1.1271    1.7689    0.0000 O   0  0  0  0  0  0  0  0  0  0  0  0
    1.1271    0.3399    0.0000 O   0  0  0  0  0  0  0  0  0  0  0  0
   -0.1105    1.0544    0.0000 N   0  0  0  0  0  0  0  0  0  0  0  0
   -0.9356    1.8794    0.0000 N   0  0  0  0  0  0  0  0  0  0  0  0
   -1.2375   -0.0726    0.0000 C   0  0  0  0  0  0  0  0  0  0  0  0
   -0.5230    0.3399    0.0000 C   0  0  0  0  0  0  0  0  0  0  0  0
   -1.2375   -0.8977    0.0000 C   0  0  0  0  0  0  0  0  0  0  0  0
   -0.5230   -1.3102    0.0000 C   0  0  0  0  0  0  0  0  0  0  0  0
    0.1914   -0.8977    0.0000 C   0  0  0  0  0  0  0  0  0  0  0  0
    0.9060   -1.3102    0.0000 C   0  0  0  0  0  0  0  0  0  0  0  0
   -0.9356    1.0544    0.0000 C   0  0  0  0  0  0  0  0  0  0  0  0
    0.7146    1.0544    0.0000 C   0  0  0  0  0  0  0  0  0  0  0  0
    1.9521    1.7689    0.0000 C   0  0  0  0  0  0  0  0  0  0  0  0
  1 12  1  0
  1 15  1  0
  5 16  1  0
  6 17  2  0
  7 18  1  0
  7 19  1  0
  8 18  2  0
  9 18  1  0
 10 17  1  0
 11  2  1  1
 11 12  1  0
 11 13  1  0
 12  9  1  6
 12 17  1  0
 13  3  1  6
 13 14  1  0
 14  4  1  1
 14 15  1  0
 15 16  1  6
M  END
>  <DRUGBANK_ID>  (1) 
DB04013

>  <SECONDARY_ACCESSION_NUMBERS>  (1) 
EXPT01017

>  <COMMON_NAME>  (1) 
1-Deoxy-1-methoxycarbamido-beta-D-gluco-2-heptulopyranosonamide

$$$$
