
     RDKit          2D

 22 23  0  0  0  0  0  0  0  0999 V2000
   -0.6666   -0.6529    0.0000 C   0  0  0  0  0  0  0  0  0  0  0  0
   -1.0791    0.0615    0.0000 C   0  0  0  0  0  0  0  0  0  0  0  0
   -2.3166    0.7759    0.0000 C   0  0  0  0  0  0  0  0  0  0  0  0
   -3.1416   -2.0818    0.0000 C   0  0  0  0  0  0  0  0  0  0  0  0
   -3.5541   -1.3674    0.0000 C   0  0  0  0  0  0  0  0  0  0  0  0
   -3.1416   -0.6529    0.0000 C   0  0  0  0  0  0  0  0  0  0  0  0
   -2.3166   -0.6529    0.0000 C   0  0  0  0  0  0  0  0  0  0  0  0
    1.8083    0.7759    0.0000 C   0  0  0  0  0  0  0  0  0  0  0  0
    2.8003    1.6692    0.0000 C   0  0  0  0  0  0  0  0  0  0  0  0
    2.0860    2.0818    0.0000 N   0  0  0  0  0  0  0  0  0  0  0  0
    1.4728    1.5296    0.0000 N   0  0  0  0  0  0  0  0  0  0  0  0
    2.6288    0.8622    0.0000 S   0  0  0  0  0  0  0  0  0  0  0  0
    3.5541    2.0047    0.0000 S   0  0  0  0  0  0  0  0  0  0  0  0
    1.3958    0.0615    0.0000 N   0  0  0  0  0  0  0  0  0  0  0  0
    0.5708    0.0615    0.0000 C   0  0  0  0  0  0  0  0  0  0  0  0
    0.1584    0.7759    0.0000 O   0  0  0  0  0  0  0  0  0  0  0  0
    0.1584   -0.6529    0.0000 N   0  0  0  0  0  0  0  0  0  0  0  0
   -0.6666    0.7759    0.0000 O   0  0  0  0  0  0  0  0  0  0  0  0
   -1.9041    0.0615    0.0000 N   0  0  0  0  0  0  0  0  0  0  0  0
   -1.0791   -1.3674    0.0000 C   0  0  0  0  0  0  0  0  0  0  0  0
   -1.9041   -1.3674    0.0000 C   0  0  0  0  0  0  0  0  0  0  0  0
   -2.3166   -2.0818    0.0000 C   0  0  0  0  0  0  0  0  0  0  0  0
  1  2  1  0
  1 17  1  0
  1 20  1  1
  2 18  2  0
  2 19  1  0
  3 19  1  0
  4  5  2  0
  5  6  1  0
  7  6  2  0
  7 21  1  0
  8 11  2  0
  8 12  1  0
  8 14  1  0
  9 10  1  0
  9 12  1  0
  9 13  2  0
 10 11  1  0
 15 14  1  0
 15 16  2  0
 15 17  1  0
 20 21  1  0
 21 22  2  0
 22  4  1  0
M  END
>  <DRUGBANK_ID>  (1) 
DB07390

>  <COMMON_NAME>  (1) 
2-[3-(5-Mercapto-[1,3,4]thiadiazol-2-yl)-ureido]-N-methyl-3-phenyl-propionamide

$$$$
