GP8
     RDKit          2D

 26 28  0  0  0  0  0  0  0  0999 V2000
    0.7689    4.6590    0.0000 N   0  0  0  0  0  0  0  0  0  0  0  0
    2.1978    4.6590    0.0000 N   0  0  0  0  0  0  0  0  0  0  0  0
    1.4834    4.2465    0.0000 C   0  0  0  0  0  0  0  0  0  0  0  0
    1.4834    3.4215    0.0000 C   0  0  0  0  0  0  0  0  0  0  0  0
    2.1978    3.0090    0.0000 C   0  0  0  0  0  0  0  0  0  0  0  0
    2.1978    2.1840    0.0000 C   0  0  0  0  0  0  0  0  0  0  0  0
    1.4834    1.7715    0.0000 C   0  0  0  0  0  0  0  0  0  0  0  0
    0.7689    2.1840    0.0000 C   0  0  0  0  0  0  0  0  0  0  0  0
    0.7689    3.0090    0.0000 C   0  0  0  0  0  0  0  0  0  0  0  0
    1.4834    0.9465    0.0000 N   0  0  0  0  0  0  0  0  0  0  0  0
    0.7689    0.5340    0.0000 C   0  0  0  0  0  0  0  0  0  0  0  0
    0.0544    0.9465    0.0000 O   0  0  0  0  0  0  0  0  0  0  0  0
    0.7689   -0.2910    0.0000 N   0  0  0  0  0  0  0  0  0  0  0  0
    0.0544   -0.7035    0.0000 C   0  0  0  0  0  0  0  0  0  0  0  0
    0.0544   -1.5285    0.0000 C   0  0  0  0  0  0  0  0  0  0  0  0
   -0.6600   -1.9410    0.0000 C   0  0  0  0  0  0  0  0  0  0  0  0
   -1.3745   -1.5285    0.0000 C   0  0  0  0  0  0  0  0  0  0  0  0
   -1.3745   -0.7035    0.0000 C   0  0  0  0  0  0  0  0  0  0  0  0
   -0.6600   -0.2910    0.0000 C   0  0  0  0  0  0  0  0  0  0  0  0
   -2.0890   -1.9410    0.0000 O   0  0  0  0  0  0  0  0  0  0  0  0
   -2.0890   -2.7660    0.0000 C   0  0  0  0  0  0  0  0  0  0  0  0
   -1.3745   -3.1785    0.0000 C   0  0  0  0  0  0  0  0  0  0  0  0
   -1.3745   -4.0035    0.0000 C   0  0  0  0  0  0  0  0  0  0  0  0
   -2.0890   -4.4160    0.0000 C   0  0  0  0  0  0  0  0  0  0  0  0
   -2.8035   -4.0035    0.0000 C   0  0  0  0  0  0  0  0  0  0  0  0
   -2.8035   -3.1785    0.0000 C   0  0  0  0  0  0  0  0  0  0  0  0
  1  3  1  0
  2  3  2  0
  3  4  1  0
  4  5  2  0
  4  9  1  0
  5  6  1  0
  6  7  2  0
  7  8  1  0
  7 10  1  0
  8  9  2  0
 10 11  1  0
 11 12  2  0
 11 13  1  0
 13 14  1  0
 14 15  2  0
 14 19  1  0
 15 16  1  0
 16 17  2  0
 17 18  1  0
 17 20  1  0
 18 19  2  0
 20 21  1  0
 21 22  2  0
 21 26  1  0
 22 23  1  0
 23 24  2  0
 24 25  1  0
 25 26  2  0
M  END
>  <DRUGBANK_ID>  (1) 
DB03337

>  <SECONDARY_ACCESSION_NUMBERS>  (1) 
EXPT01636

>  <COMMON_NAME>  (1) 
1-(2-Amidinophenyl)-3-(Phenoxyphenyl)Urea

$$$$
