
     RDKit          2D

 11 13  0  0  0  0  0  0  0  0999 V2000
   -0.4806   -2.6017    0.0000 O   0  0  0  0  0  0  0  0  0  0  0  0
    0.1163   -2.0322    0.0000 C   0  0  0  0  0  0  0  0  0  0  0  0
    0.8517   -1.6585    0.0000 C   0  0  0  0  0  0  0  0  0  0  0  0
    0.8517   -0.9111    0.0000 C   0  0  0  0  0  0  0  0  0  0  0  0
    1.3012   -0.1208    0.0000 C   0  0  0  0  0  0  0  0  0  0  0  0
    2.0368   -0.4945    0.0000 C   0  0  0  0  0  0  0  0  0  0  0  0
    2.0368   -1.2419    0.0000 C   0  0  0  0  0  0  0  0  0  0  0  0
    1.5873   -2.0322    0.0000 C   0  0  0  0  0  0  0  0  0  0  0  0
    1.3012   -1.6156    0.0000 C   0  0  0  0  0  0  0  0  0  0  0  0
    0.5657   -1.2419    0.0000 C   0  0  0  0  0  0  0  0  0  0  0  0
    0.5657   -0.4945    0.0000 C   0  0  0  0  0  0  0  0  0  0  0  0
  1  2  2  0
  2 10  1  0
  3  2  1  0
  3  8  1  6
  3  4  1  0
  5 11  1  6
  5  4  1  0
  5  6  1  0
  7  8  1  1
  7  9  1  0
  7  6  1  0
 10  9  1  1
 10 11  1  0
M  END
>  <DRUGBANK_ID>  (1) 
DB02125

>  <SECONDARY_ACCESSION_NUMBERS>  (1) 
EXPT00435

>  <COMMON_NAME>  (1) 
Adamantanone

>  <CAS_NUMBER>  (1) 
700-58-3

>  <UNII>  (1) 
UI7W503L08

$$$$
