
     RDKit          2D

 42 43  0  0  0  0  0  0  0  0999 V2000
   -0.1306    1.3801    0.0000 C   0  0  0  0  0  0  0  0  0  0  0  0
   -0.1306    0.5550    0.0000 N   0  0  0  0  0  0  0  0  0  0  0  0
    1.2984    1.3801    0.0000 N   0  0  0  0  0  0  0  0  0  0  0  0
    0.5838    1.7927    0.0000 C   0  0  0  0  0  0  0  0  0  0  0  0
   -0.8454    0.1423    0.0000 C   0  0  0  0  0  0  0  0  0  0  0  0
   -0.8454   -0.6827    0.0000 C   0  0  0  0  0  0  0  0  0  0  0  0
   -0.1306   -1.0953    0.0000 N   0  0  0  0  0  0  0  0  0  0  0  0
   -0.1306   -1.9204    0.0000 C   0  0  0  0  0  0  0  0  0  0  0  0
    0.5838   -2.3330    0.0000 C   0  0  0  0  0  0  0  0  0  0  0  0
    1.2984   -1.9204    0.0000 N   0  0  0  0  0  0  0  0  0  0  0  0
    1.2984   -1.0953    0.0000 C   0  0  0  0  0  0  0  0  0  0  0  0
    2.0240   -0.6762    0.0000 C   0  0  0  0  0  0  0  0  0  0  0  0
    2.0240    0.1423    0.0000 N   0  0  0  0  0  0  0  0  0  0  0  0
    0.5838    2.6178    0.0000 O   0  0  0  0  0  0  0  0  0  0  0  0
   -1.5499    0.5493    0.0000 O   0  0  0  0  0  0  0  0  0  0  0  0
   -0.8454   -2.3330    0.0000 O   0  0  0  0  0  0  0  0  0  0  0  0
    0.5950   -0.6890    0.0000 O   0  0  0  0  0  0  0  0  0  0  0  0
   -1.5499   -1.0896    0.0000 C   0  0  0  0  0  0  0  0  0  0  0  0
   -2.2498   -0.6856    0.0000 C   0  0  0  0  0  0  0  0  0  0  0  0
   -2.9519   -1.0911    0.0000 C   0  0  0  0  0  0  0  0  0  0  0  0
   -3.6531   -0.6863    0.0000 N   0  0  0  0  0  0  0  0  0  0  0  0
   -4.3545   -1.0915    0.0000 C   0  0  0  0  0  0  0  0  0  0  0  0
   -5.0559   -0.6865    0.0000 N   0  0  0  0  0  0  0  0  0  0  0  0
   -4.3545   -1.9203    0.0000 N   0  0  0  0  0  0  0  0  0  0  0  0
    0.5838   -3.1581    0.0000 C   0  0  0  0  0  0  0  0  0  0  0  0
   -0.1406   -3.5765    0.0000 C   0  0  0  0  0  0  0  0  0  0  0  0
    1.2884   -3.5650    0.0000 C   0  0  0  0  0  0  0  0  0  0  0  0
    2.0240   -2.3395    0.0000 C   0  0  0  0  0  0  0  0  0  0  0  0
    2.9407   -1.2925    0.0000 C   0  0  0  0  0  0  0  0  0  0  0  0
    3.6376   -0.8901    0.0000 C   0  0  0  0  0  0  0  0  0  0  0  0
    4.3413   -1.2964    0.0000 C   0  0  0  0  0  0  0  0  0  0  0  0
    5.0559   -0.8838    0.0000 C   0  0  0  0  0  0  0  0  0  0  0  0
    5.0559   -0.0586    0.0000 C   0  0  0  0  0  0  0  0  0  0  0  0
    4.3521    0.3476    0.0000 C   0  0  0  0  0  0  0  0  0  0  0  0
    3.6376   -0.0649    0.0000 C   0  0  0  0  0  0  0  0  0  0  0  0
    2.0240    1.7992    0.0000 C   0  0  0  0  0  0  0  0  0  0  0  0
    2.7314    0.5511    0.0000 C   0  0  0  0  0  0  0  0  0  0  0  0
    3.5123    0.3386    0.0000 O   0  0  0  0  0  0  0  0  0  0  0  0
    2.2383    2.5870    0.0000 C   0  0  0  0  0  0  0  0  0  0  0  0
    3.0173    2.7924    0.0000 C   0  0  0  0  0  0  0  0  0  0  0  0
    3.5968    2.2082    0.0000 O   0  0  0  0  0  0  0  0  0  0  0  0
    3.2308    3.5765    0.0000 O   0  0  0  0  0  0  0  0  0  0  0  0
  1  2  1  0
  1  4  1  0
  2  5  1  0
  3  4  1  0
  3 36  1  0
  4 14  2  0
  5  6  1  0
  5 15  2  0
  6  7  1  0
  6 18  1  1
  7  8  1  0
  8  9  1  0
  8 16  2  0
  9 10  1  0
  9 25  1  1
 10 11  1  0
 10 28  1  0
 11 12  1  0
 11 17  2  0
 12 13  1  0
 12 29  1  6
 13 37  1  0
 18 19  1  0
 19 20  1  0
 20 21  1  0
 21 22  1  0
 22 23  1  0
 22 24  2  0
 25 26  1  0
 25 27  1  0
 29 30  1  0
 30 31  2  0
 30 35  1  0
 31 32  1  0
 32 33  2  0
 33 34  1  0
 34 35  2  0
 36 37  1  0
 36 39  1  1
 37 38  2  0
 39 40  1  0
 40 41  1  0
 40 42  2  0
M  END
>  <DRUGBANK_ID>  (1) 
DB11890

>  <COMMON_NAME>  (1) 
Cilengitide

>  <CAS_NUMBER>  (1) 
188968-51-6

>  <UNII>  (1) 
4EDF46E4GI

>  <SYNONYMS>  (1) 
Cilengitida; Cilengitide; Cilengitidum

$$$$
