
     RDKit          2D

 30 33  0  0  0  0  0  0  0  0999 V2000
    0.0000   -2.4750    0.0000 C   0  0  0  0  0  0  0  0  0  0  0  0
    0.0000   -1.6500    0.0000 O   0  0  0  0  0  0  0  0  0  0  0  0
    0.7145   -1.2375    0.0000 C   0  0  0  0  0  0  0  0  0  0  0  0
    0.7145   -0.4125    0.0000 C   0  0  0  0  0  0  0  0  0  0  0  0
    1.4289    0.0000    0.0000 C   0  0  0  0  0  0  0  0  0  0  0  0
    2.1434   -0.4125    0.0000 C   0  0  0  0  0  0  0  0  0  0  0  0
    2.8579    0.0000    0.0000 C   0  0  0  0  0  0  0  0  0  0  0  0
    3.5724   -0.4125    0.0000 C   0  0  0  0  0  0  0  0  0  0  0  0
    3.5724   -1.2375    0.0000 C   0  0  0  0  0  0  0  0  0  0  0  0
    2.8579   -1.6500    0.0000 C   0  0  0  0  0  0  0  0  0  0  0  0
    2.1434   -1.2375    0.0000 C   0  0  0  0  0  0  0  0  0  0  0  0
    1.4289   -1.6500    0.0000 C   0  0  0  0  0  0  0  0  0  0  0  0
    4.2868   -0.0000    0.0000 O   0  0  0  0  0  0  0  0  0  0  0  0
    5.0013   -0.4125    0.0000 C   0  0  0  0  0  0  0  0  0  0  0  0
    5.7158   -0.0000    0.0000 C   0  0  0  0  0  0  0  0  0  0  0  0
    6.4302    0.4125    0.0000 C   0  0  0  0  0  0  0  0  0  0  0  0
    6.8427   -0.3020    0.0000 N   0  0  0  0  0  0  0  0  0  0  0  0
    6.1283   -0.7145    0.0000 C   0  0  0  0  0  0  0  0  0  0  0  0
    7.6396   -0.5155    0.0000 C   0  0  0  0  0  0  0  0  0  0  0  0
    8.2230    0.0679    0.0000 O   0  0  0  0  0  0  0  0  0  0  0  0
    7.8532   -1.3124    0.0000 C   0  0  0  0  0  0  0  0  0  0  0  0
    8.6500   -1.5259    0.0000 C   0  0  0  0  0  0  0  0  0  0  0  0
    8.8636   -2.3228    0.0000 C   0  0  0  0  0  0  0  0  0  0  0  0
    8.2802   -2.9062    0.0000 C   0  0  0  0  0  0  0  0  0  0  0  0
    7.4833   -2.6926    0.0000 C   0  0  0  0  0  0  0  0  0  0  0  0
    7.2698   -1.8957    0.0000 C   0  0  0  0  0  0  0  0  0  0  0  0
    8.4937   -3.7031    0.0000 F   0  0  0  0  0  0  0  0  0  0  0  0
    5.3033    0.7145    0.0000 C   0  0  0  0  0  0  0  0  0  0  0  0
    5.7158    1.4289    0.0000 O   0  0  0  0  0  0  0  0  0  0  0  0
    4.4783    0.7145    0.0000 O   0  0  0  0  0  0  0  0  0  0  0  0
  1  2  1  0
  2  3  1  0
  3  4  2  0
  3 12  1  0
  4  5  1  0
  5  6  2  0
  6  7  1  0
  6 11  1  0
  7  8  2  0
  8  9  1  0
  8 13  1  0
  9 10  2  0
 10 11  1  0
 11 12  2  0
 13 14  1  0
 14 15  1  0
 15 16  1  0
 15 18  1  0
 15 28  1  0
 16 17  1  0
 17 18  1  0
 17 19  1  0
 19 20  2  0
 19 21  1  0
 21 22  2  0
 21 26  1  0
 22 23  1  0
 23 24  2  0
 24 25  1  0
 24 27  1  0
 25 26  2  0
 28 29  2  0
 28 30  1  0
M  END
>  <DRUGBANK_ID>  (1) 
DB12024

>  <COMMON_NAME>  (1) 
PF-04418948

>  <CAS_NUMBER>  (1) 
1078166-57-0

>  <UNII>  (1) 
I7Z38E70VF

$$$$
