
     RDKit          2D

 39 38  0  0  0  0  0  0  0  0999 V2000
   12.8604    0.0000    0.0000 C   0  0  0  0  0  0  0  0  0  0  0  0
  -12.8604    0.0000    0.0000 C   0  0  0  0  0  0  0  0  0  0  0  0
    0.4125    0.7144    0.0000 C   0  0  0  0  0  0  0  0  0  0  0  0
   -0.4125   -0.7144    0.0000 C   0  0  0  0  0  0  0  0  0  0  0  0
   12.1460   -0.4125    0.0000 C   0  0  0  0  0  0  0  0  0  0  0  0
  -12.1460    0.4125    0.0000 C   0  0  0  0  0  0  0  0  0  0  0  0
   11.4315    0.0000    0.0000 C   0  0  0  0  0  0  0  0  0  0  0  0
  -11.4315    0.0000    0.0000 C   0  0  0  0  0  0  0  0  0  0  0  0
   10.7170   -0.4125    0.0000 C   0  0  0  0  0  0  0  0  0  0  0  0
  -10.7170    0.4125    0.0000 C   0  0  0  0  0  0  0  0  0  0  0  0
   10.0025    0.0000    0.0000 C   0  0  0  0  0  0  0  0  0  0  0  0
  -10.0025    0.0000    0.0000 C   0  0  0  0  0  0  0  0  0  0  0  0
    9.2881   -0.4125    0.0000 C   0  0  0  0  0  0  0  0  0  0  0  0
   -9.2881    0.4125    0.0000 C   0  0  0  0  0  0  0  0  0  0  0  0
    8.5736    0.0000    0.0000 C   0  0  0  0  0  0  0  0  0  0  0  0
   -8.5736    0.0000    0.0000 C   0  0  0  0  0  0  0  0  0  0  0  0
    7.8591   -0.4125    0.0000 C   0  0  0  0  0  0  0  0  0  0  0  0
   -7.8591    0.4125    0.0000 C   0  0  0  0  0  0  0  0  0  0  0  0
    7.1447    0.0000    0.0000 C   0  0  0  0  0  0  0  0  0  0  0  0
   -7.1447    0.0000    0.0000 C   0  0  0  0  0  0  0  0  0  0  0  0
    6.4302   -0.4125    0.0000 C   0  0  0  0  0  0  0  0  0  0  0  0
   -6.4302    0.4125    0.0000 C   0  0  0  0  0  0  0  0  0  0  0  0
    5.7157    0.0000    0.0000 C   0  0  0  0  0  0  0  0  0  0  0  0
   -5.7157    0.0000    0.0000 C   0  0  0  0  0  0  0  0  0  0  0  0
    5.0012   -0.4125    0.0000 C   0  0  0  0  0  0  0  0  0  0  0  0
   -5.0012    0.4125    0.0000 C   0  0  0  0  0  0  0  0  0  0  0  0
    4.2868    0.0000    0.0000 C   0  0  0  0  0  0  0  0  0  0  0  0
   -4.2868    0.0000    0.0000 C   0  0  0  0  0  0  0  0  0  0  0  0
    3.5723   -0.4125    0.0000 C   0  0  0  0  0  0  0  0  0  0  0  0
   -3.5723    0.4125    0.0000 C   0  0  0  0  0  0  0  0  0  0  0  0
    2.8578    0.0000    0.0000 C   0  0  0  0  0  0  0  0  0  0  0  0
   -2.8578    0.0000    0.0000 C   0  0  0  0  0  0  0  0  0  0  0  0
    2.1434   -0.4125    0.0000 C   0  0  0  0  0  0  0  0  0  0  0  0
   -2.1434    0.4125    0.0000 C   0  0  0  0  0  0  0  0  0  0  0  0
    1.4289    0.0000    0.0000 C   0  0  0  0  0  0  0  0  0  0  0  0
   -1.4289    0.0000    0.0000 C   0  0  0  0  0  0  0  0  0  0  0  0
    0.7144   -0.4125    0.0000 C   0  0  0  0  0  0  0  0  0  0  0  0
   -0.7144    0.4125    0.0000 C   0  0  0  0  0  0  0  0  0  0  0  0
    0.0000    0.0000    0.0000 N   0  0  0  0  0  0  0  0  0  0  0  0
  5  1  1  0
  6  2  1  0
  7  5  1  0
  8  6  1  0
  9  7  1  0
 10  8  1  0
 11  9  1  0
 12 10  1  0
 13 11  1  0
 14 12  1  0
 15 13  1  0
 16 14  1  0
 17 15  1  0
 18 16  1  0
 19 17  1  0
 20 18  1  0
 21 19  1  0
 22 20  1  0
 23 21  1  0
 24 22  1  0
 25 23  1  0
 26 24  1  0
 27 25  1  0
 28 26  1  0
 29 27  1  0
 30 28  1  0
 31 29  1  0
 32 30  1  0
 33 31  1  0
 34 32  1  0
 35 33  1  0
 36 34  1  0
 37 35  1  0
 38 36  1  0
 39  3  1  0
 39  4  1  0
 39 37  1  0
 39 38  1  0
M  CHG  1  39   1
M  END
>  <DRUGBANK_ID>  (1) 
DB14143

>  <COMMON_NAME>  (1) 
Distearyldimonium

>  <CAS_NUMBER>  (1) 
14357-21-2

>  <UNII>  (1) 
251IW5I21C

>  <SYNONYMS>  (1) 
Dimethyldioctadecylammonium; Dimethyldistearylammonium; Dioctadecyldimethylammonium; Dioctadecyldimethylammonium ion; Distearyldimethylammonium

$$$$
