PY9
     RDKit          2D

 22 24  0  0  0  0  0  0  0  0999 V2000
    0.0558   -0.4522    0.0000 N   0  0  0  0  0  0  0  0  0  0  0  0
    2.6797   -1.8534    0.0000 C   0  0  0  0  0  0  0  0  0  0  0  0
    2.8513   -1.0464    0.0000 C   0  0  0  0  0  0  0  0  0  0  0  0
    2.2382   -0.4944    0.0000 C   0  0  0  0  0  0  0  0  0  0  0  0
    0.8404   -0.1973    0.0000 C   0  0  0  0  0  0  0  0  0  0  0  0
   -0.6116    0.0327    0.0000 C   0  0  0  0  0  0  0  0  0  0  0  0
   -1.0241   -1.2368    0.0000 C   0  0  0  0  0  0  0  0  0  0  0  0
    0.1029    1.2702    0.0000 C   0  0  0  0  0  0  0  0  0  0  0  0
   -0.6116    2.5077    0.0000 C   0  0  0  0  0  0  0  0  0  0  0  0
   -1.3261    1.2702    0.0000 C   0  0  0  0  0  0  0  0  0  0  0  0
    0.1029    2.0952    0.0000 C   0  0  0  0  0  0  0  0  0  0  0  0
    1.2820   -1.5563    0.0000 C   0  0  0  0  0  0  0  0  0  0  0  0
   -1.3261    2.0952    0.0000 C   0  0  0  0  0  0  0  0  0  0  0  0
    1.8951   -2.1083    0.0000 C   0  0  0  0  0  0  0  0  0  0  0  0
    1.4535   -0.7493    0.0000 C   0  0  0  0  0  0  0  0  0  0  0  0
   -0.6116    0.8577    0.0000 C   0  0  0  0  0  0  0  0  0  0  0  0
   -1.2791   -0.4522    0.0000 C   0  0  0  0  0  0  0  0  0  0  0  0
   -0.1991   -1.2368    0.0000 C   0  0  0  0  0  0  0  0  0  0  0  0
   -2.0406    0.8577    0.0000 C   0  0  0  0  0  0  0  0  0  0  0  0
    1.0120    0.6097    0.0000 O   0  0  0  0  0  0  0  0  0  0  0  0
    3.2928   -2.4054    0.0000 O   0  0  0  0  0  0  0  0  0  0  0  0
    2.4097    0.3126    0.0000 O   0  0  0  0  0  0  0  0  0  0  0  0
  1 18  1  0
  1  6  1  0
  2 14  2  0
  3  2  1  0
  3  4  2  0
  4 15  1  0
  5  1  1  0
  6 16  1  6
  6 17  1  0
  7 17  1  0
  8 16  2  0
  8 11  1  0
  9 13  1  0
 10 13  2  0
 10 19  1  0
 11  9  2  0
 14 12  1  0
 15  5  1  0
 15 12  2  0
 16 10  1  0
 18  7  1  0
 20  5  2  0
 21  2  1  0
 22  4  1  0
M  END
>  <DRUGBANK_ID>  (1) 
DB08442

>  <COMMON_NAME>  (1) 
4-{[(2R)-2-(2-methylphenyl)pyrrolidin-1-yl]carbonyl}benzene-1,3-diol

$$$$
