
     RDKit          2D

 24 27  0  0  0  0  0  0  0  0999 V2000
   -0.3828   -3.3001    0.0000 N   0  0  0  0  0  0  0  0  0  0  0  0
    0.3300    2.0658    0.0000 N   0  0  0  0  0  0  0  0  0  0  0  0
   -0.3828   -1.6500    0.0000 C   0  0  0  0  0  0  0  0  0  0  0  0
   -1.0956   -2.0592    0.0000 C   0  0  0  0  0  0  0  0  0  0  0  0
    0.3300   -2.0592    0.0000 C   0  0  0  0  0  0  0  0  0  0  0  0
   -0.3828   -0.8250    0.0000 C   0  0  0  0  0  0  0  0  0  0  0  0
   -1.0956   -2.8842    0.0000 C   0  0  0  0  0  0  0  0  0  0  0  0
    0.3300   -2.8842    0.0000 C   0  0  0  0  0  0  0  0  0  0  0  0
    0.3300   -0.4092    0.0000 C   0  0  0  0  0  0  0  0  0  0  0  0
    0.3300    0.4158    0.0000 C   0  0  0  0  0  0  0  0  0  0  0  0
    1.0429    0.8250    0.0000 C   0  0  0  0  0  0  0  0  0  0  0  0
   -0.3828    0.8250    0.0000 C   0  0  0  0  0  0  0  0  0  0  0  0
    1.0429    1.6500    0.0000 C   0  0  0  0  0  0  0  0  0  0  0  0
   -0.3828    1.6500    0.0000 C   0  0  0  0  0  0  0  0  0  0  0  0
    1.7820    0.3828    0.0000 C   0  0  0  0  0  0  0  0  0  0  0  0
    1.7820    2.0922    0.0000 C   0  0  0  0  0  0  0  0  0  0  0  0
   -1.0956    2.0658    0.0000 C   0  0  0  0  0  0  0  0  0  0  0  0
    2.5278    0.8052    0.0000 C   0  0  0  0  0  0  0  0  0  0  0  0
    2.5278    1.6698    0.0000 C   0  0  0  0  0  0  0  0  0  0  0  0
   -1.8149    1.6500    0.0000 C   0  0  0  0  0  0  0  0  0  0  0  0
   -1.0956    2.8908    0.0000 C   0  0  0  0  0  0  0  0  0  0  0  0
   -2.5278    2.0658    0.0000 C   0  0  0  0  0  0  0  0  0  0  0  0
   -1.8149    3.3001    0.0000 C   0  0  0  0  0  0  0  0  0  0  0  0
   -2.5278    2.8908    0.0000 C   0  0  0  0  0  0  0  0  0  0  0  0
  1  7  1  0
  1  8  1  0
  2 13  2  0
  2 14  1  0
  3  4  1  0
  3  5  1  0
  3  6  1  0
  4  7  1  0
  5  8  1  0
  6  9  1  0
  9 10  1  0
 10 11  2  0
 10 12  1  0
 11 13  1  0
 11 15  1  0
 12 14  2  0
 13 16  1  0
 14 17  1  0
 15 18  2  0
 16 19  2  0
 17 20  2  0
 17 21  1  0
 18 19  1  0
 20 22  1  0
 21 23  2  0
 22 24  2  0
 23 24  1  0
M  END
>  <DRUGBANK_ID>  (1) 
DB13991

>  <COMMON_NAME>  (1) 
Pipequaline

>  <CAS_NUMBER>  (1) 
77472-98-1

>  <UNII>  (1) 
J3S205V4I2

>  <SYNONYMS>  (1) 
2-Phenyl-4-(2-(4-piperidyl)ethyl)quinoline; Pipequalina; Pipequaline; Pipequalinum

$$$$
