
     RDKit          2D

 19 20  0  0  0  0  0  0  0  0999 V2000
   -1.4845   -0.6303    0.0000 C   0  0  0  0  0  0  0  0  0  0  0  0
   -0.7496   -0.2237    0.0000 C   0  0  0  0  0  0  0  0  0  0  0  0
   -2.1818   -0.1831    0.0000 C   0  0  0  0  0  0  0  0  0  0  0  0
   -1.4758   -1.4526    0.0000 C   0  0  0  0  0  0  0  0  0  0  0  0
   -0.0436   -0.6217    0.0000 O   0  0  0  0  0  0  0  0  0  0  0  0
   -0.7583    0.6100    0.0000 O   0  0  0  0  0  0  0  0  0  0  0  0
   -2.9226   -0.5782    0.0000 C   0  0  0  0  0  0  0  0  0  0  0  0
   -2.1904    0.6333    0.0000 O   0  0  0  0  0  0  0  0  0  0  0  0
   -2.2574   -1.8331    0.0000 C   0  0  0  0  0  0  0  0  0  0  0  0
    0.6622   -0.2237    0.0000 C   0  0  0  0  0  0  0  0  0  0  0  0
   -2.9226   -1.4032    0.0000 C   0  0  0  0  0  0  0  0  0  0  0  0
    1.3885   -0.6303    0.0000 C   0  0  0  0  0  0  0  0  0  0  0  0
    0.6622    0.6012    0.0000 C   0  0  0  0  0  0  0  0  0  0  0  0
    2.0945   -0.2323    0.0000 C   0  0  0  0  0  0  0  0  0  0  0  0
    1.3885    1.0225    0.0000 C   0  0  0  0  0  0  0  0  0  0  0  0
    2.0945    0.6012    0.0000 C   0  0  0  0  0  0  0  0  0  0  0  0
    2.3909   -0.9994    0.0000 C   0  0  0  0  0  0  0  0  0  0  0  0
    2.9226   -0.0873    0.0000 C   0  0  0  0  0  0  0  0  0  0  0  0
    1.3885    1.8331    0.0000 C   0  0  0  0  0  0  0  0  0  0  0  0
  1  2  1  0
  1  3  2  0
  1  4  1  0
  2  5  1  0
  2  6  2  0
  3  7  1  0
  3  8  1  0
  4  9  2  0
  5 10  1  0
  7 11  2  0
  9 11  1  0
 10 12  1  0
 10 13  1  0
 12 14  1  0
 13 15  1  0
 14 16  1  0
 14 17  1  0
 14 18  1  0
 15 19  1  0
 15 16  1  0
M  END
>  <DRUGBANK_ID>  (1) 
DB11064

>  <COMMON_NAME>  (1) 
Homosalate

>  <CAS_NUMBER>  (1) 
118-56-9

>  <UNII>  (1) 
V06SV4M95S

>  <SYNONYMS>  (1) 
3,3,5-Trimethylcyclohexyl 2-hydroxybenzoate; Homosalate; Homosalato; Homosalatum

$$$$
