W71
     RDKit          2D

 25 27  0  0  0  0  0  0  0  0999 V2000
   -4.9502    0.0785    0.0000 O   0  0  0  0  0  0  0  0  0  0  0  0
   -5.5023    0.6916    0.0000 N   0  0  0  0  0  0  0  0  0  0  0  0
   -5.0898    1.4060    0.0000 C   0  0  0  0  0  0  0  0  0  0  0  0
   -5.4253    2.1597    0.0000 C   0  0  0  0  0  0  0  0  0  0  0  0
   -4.2828    1.2345    0.0000 C   0  0  0  0  0  0  0  0  0  0  0  0
   -4.1966    0.4140    0.0000 C   0  0  0  0  0  0  0  0  0  0  0  0
   -3.4821    0.0015    0.0000 C   0  0  0  0  0  0  0  0  0  0  0  0
   -2.7676    0.4140    0.0000 C   0  0  0  0  0  0  0  0  0  0  0  0
   -2.0531    0.0015    0.0000 C   0  0  0  0  0  0  0  0  0  0  0  0
   -1.3387    0.4140    0.0000 C   0  0  0  0  0  0  0  0  0  0  0  0
   -0.6242    0.0015    0.0000 C   0  0  0  0  0  0  0  0  0  0  0  0
    0.0903    0.4140    0.0000 C   0  0  0  0  0  0  0  0  0  0  0  0
    0.8047    0.0015    0.0000 C   0  0  0  0  0  0  0  0  0  0  0  0
    1.5192    0.4140    0.0000 O   0  0  0  0  0  0  0  0  0  0  0  0
    2.2337    0.0015    0.0000 C   0  0  0  0  0  0  0  0  0  0  0  0
    2.9482    0.4140    0.0000 C   0  0  0  0  0  0  0  0  0  0  0  0
    3.6626    0.0015    0.0000 C   0  0  0  0  0  0  0  0  0  0  0  0
    3.6626   -0.8235    0.0000 C   0  0  0  0  0  0  0  0  0  0  0  0
    2.9482   -1.2360    0.0000 C   0  0  0  0  0  0  0  0  0  0  0  0
    2.2337   -0.8235    0.0000 C   0  0  0  0  0  0  0  0  0  0  0  0
    4.3771   -1.2360    0.0000 C   0  0  0  0  0  0  0  0  0  0  0  0
    5.1308   -0.9004    0.0000 N   0  0  0  0  0  0  0  0  0  0  0  0
    5.6828   -1.5135    0.0000 C   0  0  0  0  0  0  0  0  0  0  0  0
    5.2703   -2.2280    0.0000 C   0  0  0  0  0  0  0  0  0  0  0  0
    4.4633   -2.0564    0.0000 O   0  0  0  0  0  0  0  0  0  0  0  0
  1  2  1  0
  1  6  1  0
  2  3  2  0
  3  4  1  0
  3  5  1  0
  5  6  2  0
  6  7  1  0
  7  8  1  0
  8  9  1  0
  9 10  1  0
 10 11  1  0
 11 12  1  0
 12 13  1  0
 13 14  1  0
 14 15  1  0
 15 16  2  0
 15 20  1  0
 16 17  1  0
 17 18  2  0
 18 19  1  0
 18 21  1  0
 19 20  2  0
 21 22  2  0
 21 25  1  0
 22 23  1  0
 23 24  1  0
 24 25  1  0
M  END
>  <DRUGBANK_ID>  (1) 
DB08726

>  <COMMON_NAME>  (1) 
5-(7-(4-(4,5-dihydro-2-oxazolyl)phenoxy)heptyl)-3-methyl isoxazole

>  <UNII>  (1) 
FX8Q9PI4VP

$$$$
