
     RDKit          2D

  5  4  0  0  0  0  0  0  0  0999 V2000
    0.8250   -0.8250    0.0000 O   0  0  0  0  0  0  0  0  0  0  0  0
    0.8250    0.0000    0.0000 P   0  0  0  0  0  0  0  0  0  0  0  0
    0.8250    0.8250    0.0000 O   0  0  0  0  0  0  0  0  0  0  0  0
    1.6500    0.0000    0.0000 F   0  0  0  0  0  0  0  0  0  0  0  0
    0.0000    0.0000    0.0000 O   0  0  0  0  0  0  0  0  0  0  0  0
  1  2  1  0
  2  3  1  0
  2  4  1  0
  2  5  2  0
M  CHG  2   1  -1   3  -1
M  END
>  <DRUGBANK_ID>  (1) 
DB02348

>  <SECONDARY_ACCESSION_NUMBERS>  (1) 
EXPT01478

>  <COMMON_NAME>  (1) 
Monofluorophosphate ion

>  <CAS_NUMBER>  (1) 
15181-43-8

>  <UNII>  (1) 
4964UZ79MI

>  <SYNONYMS>  (1) 
Fluoridophosphate; Fluorophosphate; Phosphorofluoridate

$$$$
