
     RDKit          2D

 31 32  0  0  0  0  0  0  0  0999 V2000
   -4.1331    0.7837    0.0000 C   0  0  0  0  0  0  0  0  0  0  0  0
   -3.4220    1.1963    0.0000 N   0  0  0  0  0  0  0  0  0  0  0  0
   -4.1331   -0.0490    0.0000 C   0  0  0  0  0  0  0  0  0  0  0  0
   -4.8522    1.1923    0.0000 C   0  0  0  0  0  0  0  0  0  0  0  0
   -2.7069    0.7877    0.0000 C   0  0  0  0  0  0  0  0  0  0  0  0
   -4.8482   -0.4616    0.0000 C   0  0  0  0  0  0  0  0  0  0  0  0
   -5.5633    0.7798    0.0000 C   0  0  0  0  0  0  0  0  0  0  0  0
   -1.9918    1.2042    0.0000 N   0  0  0  0  0  0  0  0  0  0  0  0
   -2.7069   -0.0373    0.0000 O   0  0  0  0  0  0  0  0  0  0  0  0
   -5.5671   -0.0490    0.0000 C   0  0  0  0  0  0  0  0  0  0  0  0
   -1.2807    0.7916    0.0000 C   0  0  0  0  0  0  0  0  0  0  0  0
   -6.2822   -0.4616    0.0000 N   0  0  0  0  0  0  0  0  0  0  0  0
   -1.2807   -0.0333    0.0000 C   0  0  0  0  0  0  0  0  0  0  0  0
   -0.5774    1.2080    0.0000 C   0  0  0  0  0  0  0  0  0  0  0  0
   -6.2822   -1.2866    0.0000 O   0  0  0  0  0  0  0  0  0  0  0  0
   -6.9934   -0.0490    0.0000 O   0  0  0  0  0  0  0  0  0  0  0  0
   -0.5696   -0.4380    0.0000 C   0  0  0  0  0  0  0  0  0  0  0  0
    0.1375    0.7995    0.0000 C   0  0  0  0  0  0  0  0  0  0  0  0
    0.1414   -0.0255    0.0000 C   0  0  0  0  0  0  0  0  0  0  0  0
    0.8604   -0.4340    0.0000 N   0  0  0  0  0  0  0  0  0  0  0  0
    0.8644   -1.2631    0.0000 O   0  0  0  0  0  0  0  0  0  0  0  0
    1.5754   -0.0216    0.0000 O   0  0  0  0  0  0  0  0  0  0  0  0
    6.3215    0.8584    0.0000 C   0  0  0  0  0  0  0  0  0  0  0  0
    6.3215   -0.0373    0.0000 C   0  0  0  0  0  0  0  0  0  0  0  0
    5.5751    1.2866    0.0000 N   0  0  0  0  0  0  0  0  0  0  0  0
    6.9934    1.1609    0.0000 C   0  0  0  0  0  0  0  0  0  0  0  0
    5.5751   -0.4695    0.0000 C   0  0  0  0  0  0  0  0  0  0  0  0
    4.7854    0.8584    0.0000 C   0  0  0  0  0  0  0  0  0  0  0  0
    4.7854   -0.0373    0.0000 N   0  0  0  0  0  0  0  0  0  0  0  0
    5.5751   -1.1177    0.0000 C   0  0  0  0  0  0  0  0  0  0  0  0
    4.1803    1.2277    0.0000 O   0  0  0  0  0  0  0  0  0  0  0  0
  1  2  1  0
  1  3  2  0
  1  4  1  0
  2  5  1  0
  3  6  1  0
  4  7  2  0
  5  8  1  0
  5  9  2  0
  6 10  2  0
  7 10  1  0
  8 11  1  0
 10 12  1  0
 11 13  2  0
 11 14  1  0
 12 16  1  0
 12 15  2  0
 13 17  1  0
 14 18  2  0
 17 19  2  0
 18 19  1  0
 19 20  1  0
 20 21  2  0
 20 22  1  0
 23 24  2  0
 23 25  1  0
 23 26  1  0
 24 27  1  0
 25 28  2  0
 27 29  2  0
 27 30  1  0
 28 31  1  0
 28 29  1  0
M  CHG  4  12   1  16  -1  20   1  22  -1
M  END
>  <DRUGBANK_ID>  (1) 
DB11434

>  <COMMON_NAME>  (1) 
Nicarbazin

>  <CAS_NUMBER>  (1) 
330-95-0

>  <UNII>  (1) 
11P9NUA12U

>  <SYNONYMS>  (1) 
Nicarbazin

$$$$
