6DE
     RDKit          2D

 19 20  0  0  0  0  0  0  0  0999 V2000
    0.6827    1.7257    0.0000 O   0  0  0  0  0  0  0  0  0  0  0  0
   -0.0318    1.3132    0.0000 C   0  0  0  0  0  0  0  0  0  0  0  0
   -0.7463    1.7257    0.0000 O   0  0  0  0  0  0  0  0  0  0  0  0
   -0.7463    2.5507    0.0000 C   0  0  0  0  0  0  0  0  0  0  0  0
   -1.4607    2.9632    0.0000 C   0  0  0  0  0  0  0  0  0  0  0  0
   -0.0318    0.4882    0.0000 C   0  0  0  0  0  0  0  0  0  0  0  0
    0.6356    0.0033    0.0000 C   0  0  0  0  0  0  0  0  0  0  0  0
    1.4203    0.2582    0.0000 C   0  0  0  0  0  0  0  0  0  0  0  0
   -0.6992    0.0033    0.0000 C   0  0  0  0  0  0  0  0  0  0  0  0
   -1.4839    0.2582    0.0000 C   0  0  0  0  0  0  0  0  0  0  0  0
   -0.4443   -0.7813    0.0000 N   0  0  0  0  0  0  0  0  0  0  0  0
    0.3807   -0.7813    0.0000 N   0  0  0  0  0  0  0  0  0  0  0  0
    0.8656   -1.4488    0.0000 C   0  0  0  0  0  0  0  0  0  0  0  0
    1.6861   -1.3625    0.0000 C   0  0  0  0  0  0  0  0  0  0  0  0
    2.0217   -0.6088    0.0000 Cl  0  0  0  0  0  0  0  0  0  0  0  0
    2.1710   -2.0300    0.0000 C   0  0  0  0  0  0  0  0  0  0  0  0
    1.8355   -2.7836    0.0000 C   0  0  0  0  0  0  0  0  0  0  0  0
    1.0150   -2.8699    0.0000 C   0  0  0  0  0  0  0  0  0  0  0  0
    0.5301   -2.2024    0.0000 C   0  0  0  0  0  0  0  0  0  0  0  0
  1  2  2  0
  2  3  1  0
  2  6  1  0
  3  4  1  0
  4  5  1  0
  6  7  2  0
  6  9  1  0
  7  8  1  0
  7 12  1  0
  9 10  1  0
  9 11  2  0
 11 12  1  0
 12 13  1  0
 13 14  2  0
 13 19  1  0
 14 15  1  0
 14 16  1  0
 16 17  2  0
 17 18  1  0
 18 19  2  0
M  END
>  <DRUGBANK_ID>  (1) 
DB03807

>  <SECONDARY_ACCESSION_NUMBERS>  (1) 
EXPT00284

>  <COMMON_NAME>  (1) 
1-(2-Chlorophenyl)-3,5-Dimethyl-1h-Pyrazole-4-Carboxylic Acid Ethyl Ester

$$$$
