
     RDKit          2D

 37 42  0  0  0  0  0  0  0  0999 V2000
   -2.7518    4.1235    0.0000 C   0  0  0  0  0  0  0  0  0  0  0  0
   -2.0372    4.5358    0.0000 N   0  0  0  0  0  0  0  0  0  0  0  0
   -1.3253    4.1239    0.0000 N   0  0  0  0  0  0  0  0  0  0  0  0
   -1.3253    3.2986    0.0000 C   0  0  0  0  0  0  0  0  0  0  0  0
   -2.0355    2.8868    0.0000 C   0  0  0  0  0  0  0  0  0  0  0  0
   -2.7518    3.2949    0.0000 N   0  0  0  0  0  0  0  0  0  0  0  0
   -0.5404    4.3789    0.0000 C   0  0  0  0  0  0  0  0  0  0  0  0
   -0.5404    3.0436    0.0000 C   0  0  0  0  0  0  0  0  0  0  0  0
   -0.0554    3.7114    0.0000 C   0  0  0  0  0  0  0  0  0  0  0  0
    0.7695    3.7114    0.0000 C   0  0  0  0  0  0  0  0  0  0  0  0
    1.2542    3.0442    0.0000 C   0  0  0  0  0  0  0  0  0  0  0  0
    2.0385    3.2990    0.0000 N   0  0  0  0  0  0  0  0  0  0  0  0
    2.0385    4.1236    0.0000 N   0  0  0  0  0  0  0  0  0  0  0  0
    1.2542    4.3784    0.0000 C   0  0  0  0  0  0  0  0  0  0  0  0
    2.7529    2.8865    0.0000 C   0  0  0  0  0  0  0  0  0  0  0  0
   -2.0355    2.0618    0.0000 N   0  0  0  0  0  0  0  0  0  0  0  0
   -1.3209    1.6493    0.0000 C   0  0  0  0  0  0  0  0  0  0  0  0
   -1.3209    0.8243    0.0000 C   0  0  0  0  0  0  0  0  0  0  0  0
   -2.0355    0.4118    0.0000 N   0  0  0  0  0  0  0  0  0  0  0  0
   -2.7499    0.8243    0.0000 C   0  0  0  0  0  0  0  0  0  0  0  0
   -2.7499    1.6493    0.0000 C   0  0  0  0  0  0  0  0  0  0  0  0
   -2.0355   -0.4131    0.0000 C   0  0  0  0  0  0  0  0  0  0  0  0
   -1.3210   -0.8259    0.0000 N   0  0  0  0  0  0  0  0  0  0  0  0
   -1.3218   -1.6483    0.0000 C   0  0  0  0  0  0  0  0  0  0  0  0
   -2.0365   -2.0610    0.0000 C   0  0  0  0  0  0  0  0  0  0  0  0
   -2.7482   -1.6519    0.0000 C   0  0  0  0  0  0  0  0  0  0  0  0
   -2.7529   -0.8274    0.0000 N   0  0  0  0  0  0  0  0  0  0  0  0
   -2.0365   -2.8860    0.0000 C   0  0  0  0  0  0  0  0  0  0  0  0
   -1.3220   -3.2984    0.0000 C   0  0  0  0  0  0  0  0  0  0  0  0
   -0.6073   -2.8861    0.0000 C   0  0  0  0  0  0  0  0  0  0  0  0
    0.1045   -3.2980    0.0000 C   0  0  0  0  0  0  0  0  0  0  0  0
    0.1045   -4.1233    0.0000 C   0  0  0  0  0  0  0  0  0  0  0  0
   -0.6055   -4.5351    0.0000 C   0  0  0  0  0  0  0  0  0  0  0  0
   -1.3220   -4.1270    0.0000 C   0  0  0  0  0  0  0  0  0  0  0  0
    0.8190   -4.5358    0.0000 F   0  0  0  0  0  0  0  0  0  0  0  0
   -2.7510   -3.2984    0.0000 N   0  0  0  0  0  0  0  0  0  0  0  0
   -2.6491   -2.3338    0.0000 C   0  0  0  0  0  0  0  0  0  0  0  0
  1  6  1  0
  2  1  2  0
  3  2  1  0
  3  7  1  0
  4  3  1  0
  4  8  2  0
  5  4  1  0
  5 16  1  0
  6  5  2  0
  8  9  1  0
  9  7  2  0
  9 10  1  0
 11 10  2  0
 11 12  1  0
 12 13  1  0
 12 15  1  0
 13 14  2  0
 14 10  1  0
 16 21  1  0
 17 16  1  0
 18 17  1  0
 19 18  1  0
 19 22  1  0
 20 19  1  0
 21 20  1  0
 22 27  1  0
 23 22  2  0
 24 23  1  0
 25 24  2  0
 25 28  1  0
 26 25  1  0
 27 26  2  0
 28 29  1  0
 28 36  1  0
 28 37  1  1
 29 34  1  0
 30 29  2  0
 31 30  1  0
 32 31  2  0
 32 35  1  0
 33 32  1  0
 34 33  2  0
M  END
>  <DRUGBANK_ID>  (1) 
DB15233

>  <COMMON_NAME>  (1) 
Avapritinib

>  <CAS_NUMBER>  (1) 
1703793-34-3

>  <UNII>  (1) 
513P80B4YJ

>  <SYNONYMS>  (1) 
Avapritinib

$$$$
