
     RDKit          2D

 18 19  0  0  0  0  0  0  0  0999 V2000
   -0.1435    0.7518    0.0000 O   0  0  0  0  0  0  0  0  0  0  0  0
   -0.0002   -1.4895    0.0000 O   0  0  0  0  0  0  0  0  0  0  0  0
   -1.3810   -1.3915    0.0000 O   0  0  0  0  0  0  0  0  0  0  0  0
   -2.2060    0.0374    0.0000 O   0  0  0  0  0  0  0  0  0  0  0  0
    0.4990    1.4895    0.0000 O   0  0  0  0  0  0  0  0  0  0  0  0
   -2.2060    1.4663    0.0000 O   0  0  0  0  0  0  0  0  0  0  0  0
    2.2060    0.9348    0.0000 O   0  0  0  0  0  0  0  0  0  0  0  0
    2.2060   -0.8600    0.0000 O   0  0  0  0  0  0  0  0  0  0  0  0
    0.7539   -0.6300    0.0000 N   0  0  0  0  0  0  0  0  0  0  0  0
    1.5385    0.4499    0.0000 N   0  0  0  0  0  0  0  0  0  0  0  0
    0.2689    0.0374    0.0000 C   0  0  0  0  0  0  0  0  0  0  0  0
   -0.1435   -0.6770    0.0000 C   0  0  0  0  0  0  0  0  0  0  0  0
   -0.9685   -0.6770    0.0000 C   0  0  0  0  0  0  0  0  0  0  0  0
   -1.3810    0.0374    0.0000 C   0  0  0  0  0  0  0  0  0  0  0  0
   -0.9685    0.7518    0.0000 C   0  0  0  0  0  0  0  0  0  0  0  0
    0.7539    0.7048    0.0000 C   0  0  0  0  0  0  0  0  0  0  0  0
   -1.3810    1.4663    0.0000 C   0  0  0  0  0  0  0  0  0  0  0  0
    1.5385   -0.3750    0.0000 C   0  0  0  0  0  0  0  0  0  0  0  0
  1 15  1  0
  5 16  2  0
  6 17  1  0
  7 10  1  0
  8 18  2  0
 11  9  1  1
  9 18  1  0
 10 16  1  0
 10 18  1  0
 11  1  1  0
 11 12  1  0
 11 16  1  0
 12  2  1  6
 12 13  1  0
 13  3  1  1
 13 14  1  0
 14  4  1  6
 14 15  1  0
 15 17  1  1
M  END
>  <DRUGBANK_ID>  (1) 
DB02447

>  <SECONDARY_ACCESSION_NUMBERS>  (1) 
EXPT01598

>  <COMMON_NAME>  (1) 
3,8,9,10-tetrahydroxy-7-hydroxymethyl-6-oxa-1,3-diaza-spiro[4.5]decane-2,4-dione

$$$$
