
     RDKit          2D

 13 12  0  0  0  0  0  0  0  0999 V2000
    0.1658    0.0551    0.0000 O   0  0  0  0  0  0  0  0  0  0  0  0
    0.8803   -0.3572    0.0000 C   0  0  0  0  0  0  0  0  0  0  0  0
    1.5948    0.0551    0.0000 C   0  0  0  0  0  0  0  0  0  0  0  0
    1.5948    0.8802    0.0000 O   0  0  0  0  0  0  0  0  0  0  0  0
    2.3092   -0.3572    0.0000 C   0  0  0  0  0  0  0  0  0  0  0  0
    3.0237    0.0552    0.0000 O   0  0  0  0  0  0  0  0  0  0  0  0
   -0.5486   -0.3572    0.0000 P   0  0  0  0  0  0  0  0  0  0  0  0
   -1.2631   -0.7698    0.0000 O   0  0  0  0  0  0  0  0  0  0  0  0
   -0.1362   -1.0717    0.0000 O   0  0  0  0  0  0  0  0  0  0  0  0
   -0.9612    0.3572    0.0000 O   0  0  0  0  0  0  0  0  0  0  0  0
   -1.7862    0.3572    0.0000 C   0  0  0  0  0  0  0  0  0  0  0  0
   -2.1987    1.0717    0.0000 C   0  0  0  0  0  0  0  0  0  0  0  0
   -3.0237    1.0717    0.0000 N   0  0  0  0  0  0  0  0  0  0  0  0
  1  2  1  0
  1  7  1  0
  2  3  1  0
  3  4  1  6
  3  5  1  0
  5  6  1  0
  7  8  1  0
  7  9  2  0
  7 10  1  0
 10 11  1  0
 11 12  1  0
 12 13  1  0
M  END
>  <DRUGBANK_ID>  (1) 
DB15872

>  <COMMON_NAME>  (1) 
L-alpha-Glycerophosphorylethanolamine

>  <CAS_NUMBER>  (1) 
33049-08-0

>  <UNII>  (1) 
O35QN01X8F

>  <SYNONYMS>  (1) 
Ethanolamine glycerophosphate anhydrous; L-alpha-Glycerophosphorylethanolamine

$$$$
