
     RDKit          2D

 15 16  0  0  0  0  0  0  0  0999 V2000
    0.1754    0.0000    0.0000 N   0  0  0  0  0  0  0  0  0  0  0  0
    0.9600    0.2548    0.0000 N   0  0  0  0  0  0  0  0  0  0  0  0
    2.6827   -1.1271    0.0000 C   0  0  0  0  0  0  0  0  0  0  0  0
    2.2701   -0.4125    0.0000 S   0  0  0  0  0  0  0  0  0  0  0  0
    1.4451   -0.4125    0.0000 C   0  0  0  0  0  0  0  0  0  0  0  0
    0.9600   -1.0800    0.0000 N   0  0  0  0  0  0  0  0  0  0  0  0
    0.1754   -0.8251    0.0000 C   0  0  0  0  0  0  0  0  0  0  0  0
   -0.5391   -1.2376    0.0000 N   0  0  0  0  0  0  0  0  0  0  0  0
   -1.2536   -0.8251    0.0000 N   0  0  0  0  0  0  0  0  0  0  0  0
   -1.9682    1.2376    0.0000 O   0  0  0  0  0  0  0  0  0  0  0  0
   -2.6827    0.0000    0.0000 O   0  0  0  0  0  0  0  0  0  0  0  0
   -1.9682    0.4125    0.0000 N   0  0  0  0  0  0  0  0  0  0  0  0
   -1.2536    0.0000    0.0000 C   0  0  0  0  0  0  0  0  0  0  0  0
   -0.5391    0.4125    0.0000 C   0  0  0  0  0  0  0  0  0  0  0  0
   -0.5391    1.2376    0.0000 O   0  0  0  0  0  0  0  0  0  0  0  0
  1  7  1  0
  1  2  1  0
  2  5  2  0
  4  3  1  0
  5  4  1  0
  6  5  1  0
  7  6  2  0
  7  8  1  0
  9  8  1  0
 12 10  1  0
 12 11  2  0
 13  9  2  0
 13 12  1  0
 14  1  1  0
 14 13  1  0
 15 14  2  0
M  CHG  2  10  -1  12   1
M  END
>  <DRUGBANK_ID>  (1) 
DB15622

>  <COMMON_NAME>  (1) 
Triazavirin

>  <CAS_NUMBER>  (1) 
123606-06-4

>  <UNII>  (1) 
F2HTG1MH2D

>  <SYNONYMS>  (1) 
Riamilovir; Triazavirin

$$$$
