PHC
     RDKit          2D

 12 12  0  0  0  0  0  0  0  0999 V2000
    0.6870    0.9021    0.0000 N   0  0  0  0  0  0  0  0  0  0  0  0
    1.4015    1.3146    0.0000 C   0  0  0  0  0  0  0  0  0  0  0  0
    1.4015    2.1396    0.0000 O   0  0  0  0  0  0  0  0  0  0  0  0
   -0.0275    1.3146    0.0000 C   0  0  0  0  0  0  0  0  0  0  0  0
    0.6870    0.0771    0.0000 C   0  0  0  0  0  0  0  0  0  0  0  0
    1.4015   -0.3354    0.0000 C   0  0  0  0  0  0  0  0  0  0  0  0
   -0.0275   -0.3354    0.0000 C   0  0  0  0  0  0  0  0  0  0  0  0
   -0.0275   -1.1604    0.0000 C   0  0  0  0  0  0  0  0  0  0  0  0
   -0.7420    0.0771    0.0000 C   0  0  0  0  0  0  0  0  0  0  0  0
   -0.7420   -1.5729    0.0000 C   0  0  0  0  0  0  0  0  0  0  0  0
   -1.4564   -0.3354    0.0000 C   0  0  0  0  0  0  0  0  0  0  0  0
   -1.4564   -1.1604    0.0000 C   0  0  0  0  0  0  0  0  0  0  0  0
  1  2  1  0
  1  4  1  0
  1  5  1  0
  2  3  2  0
  5  6  1  1
  5  7  1  0
  7  8  2  0
  7  9  1  0
  8 10  1  0
  9 11  2  0
 10 12  2  0
 11 12  1  0
M  END
>  <DRUGBANK_ID>  (1) 
DB04379

>  <SECONDARY_ACCESSION_NUMBERS>  (1) 
EXPT02581

>  <COMMON_NAME>  (1) 
N-Methyl-N-(Methylbenzyl)Formamide

$$$$
