
     RDKit          2D

 32 35  0  0  0  0  0  0  0  0999 V2000
   -1.4441   -6.8513    0.0000 C   0  0  0  0  0  0  0  0  0  0  0  0
   -0.7296   -3.1388    0.0000 C   0  0  0  0  0  0  0  0  0  0  0  0
   -0.7296   -2.3138    0.0000 C   0  0  0  0  0  0  0  0  0  0  0  0
    2.1585    4.7888    0.0000 C   0  0  0  0  0  0  0  0  0  0  0  0
    0.7296    4.7888    0.0000 C   0  0  0  0  0  0  0  0  0  0  0  0
    2.1585    5.6138    0.0000 C   0  0  0  0  0  0  0  0  0  0  0  0
    0.7296    5.6138    0.0000 C   0  0  0  0  0  0  0  0  0  0  0  0
    1.8566    2.2817    0.0000 C   0  0  0  0  0  0  0  0  0  0  0  0
    2.1115    3.0663    0.0000 C   0  0  0  0  0  0  0  0  0  0  0  0
   -1.4441   -3.5513    0.0000 C   0  0  0  0  0  0  0  0  0  0  0  0
   -0.0151   -1.9013    0.0000 C   0  0  0  0  0  0  0  0  0  0  0  0
   -0.7296   -5.6138    0.0000 C   0  0  0  0  0  0  0  0  0  0  0  0
   -2.1585   -5.6138    0.0000 C   0  0  0  0  0  0  0  0  0  0  0  0
   -0.7296   -4.7888    0.0000 C   0  0  0  0  0  0  0  0  0  0  0  0
   -2.1585   -4.7888    0.0000 C   0  0  0  0  0  0  0  0  0  0  0  0
    0.5466    1.6143    0.0000 C   0  0  0  0  0  0  0  0  0  0  0  0
   -0.4276    0.1932    0.0000 C   0  0  0  0  0  0  0  0  0  0  0  0
    1.4441    4.3763    0.0000 C   0  0  0  0  0  0  0  0  0  0  0  0
    1.4441    6.0263    0.0000 C   0  0  0  0  0  0  0  0  0  0  0  0
    1.0316    2.2817    0.0000 C   0  0  0  0  0  0  0  0  0  0  0  0
    1.4441    3.5513    0.0000 C   0  0  0  0  0  0  0  0  0  0  0  0
   -0.6826   -0.5913    0.0000 C   0  0  0  0  0  0  0  0  0  0  0  0
    0.6522   -0.5913    0.0000 C   0  0  0  0  0  0  0  0  0  0  0  0
    1.4441    6.8513    0.0000 Cl  0  0  0  0  0  0  0  0  0  0  0  0
    0.8822    0.8606    0.0000 N   0  0  0  0  0  0  0  0  0  0  0  0
   -1.4441   -6.0263    0.0000 N   0  0  0  0  0  0  0  0  0  0  0  0
   -1.4441   -4.3763    0.0000 N   0  0  0  0  0  0  0  0  0  0  0  0
   -0.0151   -1.0763    0.0000 N   0  0  0  0  0  0  0  0  0  0  0  0
    0.3973    0.1932    0.0000 N   0  0  0  0  0  0  0  0  0  0  0  0
   -1.4672   -0.8463    0.0000 O   0  0  0  0  0  0  0  0  0  0  0  0
    1.4368   -0.8463    0.0000 O   0  0  0  0  0  0  0  0  0  0  0  0
    0.7766    3.0663    0.0000 O   0  0  0  0  0  0  0  0  0  0  0  0
  3  2  1  0
  6  4  2  0
  7  5  1  0
  9  8  1  0
 10  2  1  0
 11  3  1  0
 14 12  1  0
 15 13  1  0
 18  4  1  0
 18  5  2  0
 19  6  1  0
 19  7  2  0
 20  8  2  0
 20 16  1  0
 21  9  2  0
 21 18  1  0
 22 17  1  0
 24 19  1  0
 25 16  2  3
 25 29  1  0
 26  1  1  0
 26 12  1  0
 26 13  1  0
 27 10  1  0
 27 14  1  0
 27 15  1  0
 28 11  1  0
 28 22  1  0
 28 23  1  0
 29 17  1  0
 29 23  1  0
 30 22  2  0
 31 23  2  0
 32 20  1  0
 32 21  1  0
M  END
>  <DRUGBANK_ID>  (1) 
DB04957

>  <COMMON_NAME>  (1) 
Azimilide

>  <CAS_NUMBER>  (1) 
149908-53-2

>  <UNII>  (1) 
74QU6P2934

>  <SYNONYMS>  (1) 
Azimilide

$$$$
