322
     RDKit          2D

 24 25  0  0  0  0  0  0  0  0999 V2000
   -3.1138   -2.7792    0.0000 C   0  0  0  0  0  0  0  0  0  0  0  0
   -0.9834   -2.1980    0.0000 C   0  0  0  0  0  0  0  0  0  0  0  0
   -2.2934   -2.8654    0.0000 C   0  0  0  0  0  0  0  0  0  0  0  0
    0.0330   -0.1034    0.0000 C   0  0  0  0  0  0  0  0  0  0  0  0
   -0.6815    0.3091    0.0000 C   0  0  0  0  0  0  0  0  0  0  0  0
   -1.3959   -0.1034    0.0000 C   0  0  0  0  0  0  0  0  0  0  0  0
    0.7475    0.3091    0.0000 C   0  0  0  0  0  0  0  0  0  0  0  0
    2.1764    0.3091    0.0000 C   0  0  0  0  0  0  0  0  0  0  0  0
    2.8909   -0.1034    0.0000 C   0  0  0  0  0  0  0  0  0  0  0  0
   -1.3959   -0.9284    0.0000 C   0  0  0  0  0  0  0  0  0  0  0  0
   -1.3959    1.5466    0.0000 Br  0  0  0  0  0  0  0  0  0  0  0  0
    0.0330    2.3716    0.0000 Br  0  0  0  0  0  0  0  0  0  0  0  0
   -1.8084   -2.1980    0.0000 N   0  0  0  0  0  0  0  0  0  0  0  0
   -0.7285   -1.4133    0.0000 S   0  0  0  0  0  0  0  0  0  0  0  0
    1.4619   -0.1034    0.0000 O   0  0  0  0  0  0  0  0  0  0  0  0
   -2.0634   -1.4133    0.0000 C   0  0  0  0  0  0  0  0  0  0  0  0
   -0.6815    1.1341    0.0000 C   0  0  0  0  0  0  0  0  0  0  0  0
    0.0330    1.5466    0.0000 C   0  0  0  0  0  0  0  0  0  0  0  0
    0.7475    1.1341    0.0000 C   0  0  0  0  0  0  0  0  0  0  0  0
   -3.5988   -3.4466    0.0000 O   0  0  0  0  0  0  0  0  0  0  0  0
   -0.4985   -2.8654    0.0000 S   0  0  0  0  0  0  0  0  0  0  0  0
   -3.4494   -2.0255    0.0000 O   0  0  0  0  0  0  0  0  0  0  0  0
   -2.8480   -1.1584    0.0000 O   0  0  0  0  0  0  0  0  0  0  0  0
    1.4619    1.5466    0.0000 O   0  0  0  0  0  0  0  0  0  0  0  0
  1 22  1  0
  2 13  1  0
  3  1  1  0
  4  5  2  0
  5  6  1  0
  5 17  1  0
  7  4  1  0
  7 19  2  0
  8 15  1  0
  9  8  1  0
 10  6  1  1
 10 16  1  0
 13  3  1  0
 13 16  1  0
 14  2  1  0
 14 10  1  0
 15  7  1  0
 16 23  2  0
 17 11  1  0
 18 12  1  0
 18 17  2  0
 19 18  1  0
 20  1  2  0
 21  2  2  0
 24 19  1  0
M  END
>  <DRUGBANK_ID>  (1) 
DB06998

>  <COMMON_NAME>  (1) 
[(5R)-5-(2,3-dibromo-5-ethoxy-4-hydroxybenzyl)-4-oxo-2-thioxo-1,3-thiazolidin-3-yl]acetic acid

$$$$
