
     RDKit          2D

 38 41  0  0  0  0  0  0  0  0999 V2000
   -6.3953    3.9007    0.0000 C   0  0  0  0  0  0  0  0  0  0  0  0
   -5.6417    4.2363    0.0000 C   0  0  0  0  0  0  0  0  0  0  0  0
   -4.9742    3.7513    0.0000 C   0  0  0  0  0  0  0  0  0  0  0  0
   -4.2205    4.0869    0.0000 C   0  0  0  0  0  0  0  0  0  0  0  0
   -3.5531    3.6020    0.0000 C   0  0  0  0  0  0  0  0  0  0  0  0
   -2.7685    3.8569    0.0000 N   0  0  0  0  0  0  0  0  0  0  0  0
   -2.2836    3.1895    0.0000 C   0  0  0  0  0  0  0  0  0  0  0  0
   -2.7685    2.5220    0.0000 C   0  0  0  0  0  0  0  0  0  0  0  0
   -3.5531    2.7770    0.0000 N   0  0  0  0  0  0  0  0  0  0  0  0
   -4.2205    2.2920    0.0000 C   0  0  0  0  0  0  0  0  0  0  0  0
   -4.1343    1.4716    0.0000 C   0  0  0  0  0  0  0  0  0  0  0  0
   -4.8017    0.9866    0.0000 C   0  0  0  0  0  0  0  0  0  0  0  0
   -5.5554    1.3222    0.0000 C   0  0  0  0  0  0  0  0  0  0  0  0
   -5.6417    2.1427    0.0000 C   0  0  0  0  0  0  0  0  0  0  0  0
   -4.9742    2.6276    0.0000 C   0  0  0  0  0  0  0  0  0  0  0  0
   -6.2229    0.8373    0.0000 O   0  0  0  0  0  0  0  0  0  0  0  0
   -6.9765    1.1728    0.0000 C   0  0  0  0  0  0  0  0  0  0  0  0
   -7.6440    0.6879    0.0000 C   0  0  0  0  0  0  0  0  0  0  0  0
   -8.3976    1.0235    0.0000 C   0  0  0  0  0  0  0  0  0  0  0  0
   -8.4839    1.8440    0.0000 C   0  0  0  0  0  0  0  0  0  0  0  0
   -7.8164    2.3289    0.0000 C   0  0  0  0  0  0  0  0  0  0  0  0
   -7.0628    1.9933    0.0000 C   0  0  0  0  0  0  0  0  0  0  0  0
   -9.2376    2.1795    0.0000 Cl  0  0  0  0  0  0  0  0  0  0  0  0
   -1.4586    3.1895    0.0000 C   0  0  0  0  0  0  0  0  0  0  0  0
   -1.0461    3.9039    0.0000 C   0  0  0  0  0  0  0  0  0  0  0  0
   -0.2211    3.9039    0.0000 C   0  0  0  0  0  0  0  0  0  0  0  0
    0.1914    3.1895    0.0000 C   0  0  0  0  0  0  0  0  0  0  0  0
   -0.2211    2.4750    0.0000 C   0  0  0  0  0  0  0  0  0  0  0  0
   -1.0461    2.4750    0.0000 C   0  0  0  0  0  0  0  0  0  0  0  0
    1.0164    3.1895    0.0000 O   0  0  0  0  0  0  0  0  0  0  0  0
    1.4289    2.4750    0.0000 C   0  0  0  0  0  0  0  0  0  0  0  0
    2.2539    2.4750    0.0000 C   0  0  0  0  0  0  0  0  0  0  0  0
    2.6664    1.7605    0.0000 C   0  0  0  0  0  0  0  0  0  0  0  0
    3.4914    1.7605    0.0000 N   0  0  0  0  0  0  0  0  0  0  0  0
    3.9039    1.0461    0.0000 C   0  0  0  0  0  0  0  0  0  0  0  0
    4.7289    1.0461    0.0000 C   0  0  0  0  0  0  0  0  0  0  0  0
    3.9039    2.4750    0.0000 C   0  0  0  0  0  0  0  0  0  0  0  0
    4.7289    2.4750    0.0000 C   0  0  0  0  0  0  0  0  0  0  0  0
  1  2  1  0
  2  3  1  0
  3  4  1  0
  4  5  1  0
  5  6  2  0
  5  9  1  0
  6  7  1  0
  7  8  2  0
  7 24  1  0
  8  9  1  0
  9 10  1  0
 10 11  2  0
 10 15  1  0
 11 12  1  0
 12 13  2  0
 13 14  1  0
 13 16  1  0
 14 15  2  0
 16 17  1  0
 17 18  2  0
 17 22  1  0
 18 19  1  0
 19 20  2  0
 20 21  1  0
 20 23  1  0
 21 22  2  0
 24 25  2  0
 24 29  1  0
 25 26  1  0
 26 27  2  0
 27 28  1  0
 27 30  1  0
 28 29  2  0
 30 31  1  0
 31 32  1  0
 32 33  1  0
 33 34  1  0
 34 35  1  0
 34 37  1  0
 35 36  1  0
 37 38  1  0
M  END
>  <DRUGBANK_ID>  (1) 
DB12689

>  <COMMON_NAME>  (1) 
Azeliragon

>  <CAS_NUMBER>  (1) 
603148-36-3

>  <UNII>  (1) 
LPU25F15UQ

>  <SYNONYMS>  (1) 
Azeliragon

$$$$
