
     RDKit          2D

 30 31  0  0  0  0  0  0  0  0999 V2000
   -0.7644   -4.4455    0.0000 P   0  0  0  0  0  0  0  0  0  0  0  0
   -0.3851   -1.5722    0.0000 O   0  0  0  0  0  0  0  0  0  0  0  0
    1.7343   -1.3173    0.0000 O   0  0  0  0  0  0  0  0  0  0  0  0
    1.1797   -3.0243    0.0000 O   0  0  0  0  0  0  0  0  0  0  0  0
   -0.2795   -3.7781    0.0000 O   0  0  0  0  0  0  0  0  0  0  0  0
   -1.1697   -0.8574    0.0000 O   0  0  0  0  0  0  0  0  0  0  0  0
    1.1797    0.8495    0.0000 O   0  0  0  0  0  0  0  0  0  0  0  0
   -1.2494   -5.1129    0.0000 O   0  0  0  0  0  0  0  0  0  0  0  0
   -0.0970   -4.9304    0.0000 O   0  0  0  0  0  0  0  0  0  0  0  0
   -1.4319   -3.9605    0.0000 O   0  0  0  0  0  0  0  0  0  0  0  0
   -1.7343    3.6055    0.0000 O   0  0  0  0  0  0  0  0  0  0  0  0
    0.7271    3.8643    0.0000 O   0  0  0  0  0  0  0  0  0  0  0  0
    0.8764    2.4431    0.0000 O   0  0  0  0  0  0  0  0  0  0  0  0
   -1.0632    5.1129    0.0000 O   0  0  0  0  0  0  0  0  0  0  0  0
    0.9497   -0.6025    0.0000 N   0  0  0  0  0  0  0  0  0  0  0  0
   -0.1302    0.1821    0.0000 N   0  0  0  0  0  0  0  0  0  0  0  0
   -0.9138    3.6918    0.0000 N   0  0  0  0  0  0  0  0  0  0  0  0
    0.2822   -1.0874    0.0000 C   0  0  0  0  0  0  0  0  0  0  0  0
    0.9497   -1.5722    0.0000 C   0  0  0  0  0  0  0  0  0  0  0  0
    0.6947   -2.3569    0.0000 C   0  0  0  0  0  0  0  0  0  0  0  0
   -0.1302   -2.3569    0.0000 C   0  0  0  0  0  0  0  0  0  0  0  0
   -0.3851   -0.6025    0.0000 C   0  0  0  0  0  0  0  0  0  0  0  0
   -0.6151   -3.0243    0.0000 C   0  0  0  0  0  0  0  0  0  0  0  0
    0.6947    0.1821    0.0000 C   0  0  0  0  0  0  0  0  0  0  0  0
   -0.6151    0.8495    0.0000 C   0  0  0  0  0  0  0  0  0  0  0  0
   -0.2795    1.6033    0.0000 C   0  0  0  0  0  0  0  0  0  0  0  0
   -0.7644    2.2707    0.0000 C   0  0  0  0  0  0  0  0  0  0  0  0
   -0.4289    3.0243    0.0000 C   0  0  0  0  0  0  0  0  0  0  0  0
    0.3915    3.1105    0.0000 C   0  0  0  0  0  0  0  0  0  0  0  0
   -0.5782    4.4455    0.0000 C   0  0  0  0  0  0  0  0  0  0  0  0
  1  5  1  0
  1  8  1  0
  1  9  1  0
  1 10  2  0
  2 21  1  0
  5 23  1  0
  6 22  2  0
  7 24  2  0
 11 17  1  0
 12 29  1  0
 13 29  2  0
 14 30  1  0
 15 24  1  0
 16 22  1  0
 16 24  1  0
 16 25  1  0
 17 30  1  0
 18  2  1  0
 18 15  1  1
 18 19  1  0
 18 22  1  0
 19  3  1  6
 19 20  1  0
 20  4  1  6
 20 21  1  0
 21 23  1  1
 25 26  1  0
 26 27  1  0
 28 27  1  1
 28 17  1  0
 28 29  1  0
M  END
>  <DRUGBANK_ID>  (1) 
DB02666

>  <SECONDARY_ACCESSION_NUMBERS>  (1) 
EXPT02810

>  <COMMON_NAME>  (1) 
(C8-R)-hydantocidin 5'-phosphate

$$$$
