
     RDKit          2D

 30 33  0  0  0  0  0  0  0  0999 V2000
   -1.4039    1.0107    0.0000 N   0  0  0  0  0  0  0  0  0  0  0  0
   -0.7043    1.4254    0.0000 C   0  0  0  0  0  0  0  0  0  0  0  0
   -1.4039    2.6702    0.0000 S   0  0  0  0  0  0  0  0  0  0  0  0
   -0.7043    2.2504    0.0000 C   0  0  0  0  0  0  0  0  0  0  0  0
   -2.1178    1.4254    0.0000 C   0  0  0  0  0  0  0  0  0  0  0  0
   -2.1178    2.2504    0.0000 C   0  0  0  0  0  0  0  0  0  0  0  0
   -0.0048    1.0107    0.0000 C   0  0  0  0  0  0  0  0  0  0  0  0
    0.7187    1.4254    0.0000 C   0  0  0  0  0  0  0  0  0  0  0  0
   -0.0048   -1.4352    0.0000 N   0  0  0  0  0  0  0  0  0  0  0  0
    1.4135   -2.2505    0.0000 N   0  0  0  0  0  0  0  0  0  0  0  0
    1.4135    1.0107    0.0000 C   0  0  0  0  0  0  0  0  0  0  0  0
   -0.0048    2.6702    0.0000 C   0  0  0  0  0  0  0  0  0  0  0  0
    0.7187    2.2504    0.0000 C   0  0  0  0  0  0  0  0  0  0  0  0
    1.4135    0.1857    0.0000 O   0  0  0  0  0  0  0  0  0  0  0  0
   -1.4039    0.1857    0.0000 C   0  0  0  0  0  0  0  0  0  0  0  0
    1.4135   -1.4352    0.0000 C   0  0  0  0  0  0  0  0  0  0  0  0
   -0.0048   -2.2505    0.0000 C   0  0  0  0  0  0  0  0  0  0  0  0
    0.7187   -1.0203    0.0000 C   0  0  0  0  0  0  0  0  0  0  0  0
    0.7187   -2.6702    0.0000 C   0  0  0  0  0  0  0  0  0  0  0  0
   -0.7043   -0.2099    0.0000 C   0  0  0  0  0  0  0  0  0  0  0  0
   -0.7043   -1.0203    0.0000 C   0  0  0  0  0  0  0  0  0  0  0  0
   -2.8414    1.0107    0.0000 C   0  0  0  0  0  0  0  0  0  0  0  0
    2.1371   -2.6702    0.0000 C   0  0  0  0  0  0  0  0  0  0  0  0
   -2.8414    2.6702    0.0000 C   0  0  0  0  0  0  0  0  0  0  0  0
    3.5554   -2.6702    0.0000 O   0  0  0  0  0  0  0  0  0  0  0  0
    2.1371    1.4254    0.0000 C   0  0  0  0  0  0  0  0  0  0  0  0
    2.8463   -2.2505    0.0000 C   0  0  0  0  0  0  0  0  0  0  0  0
    2.8463    1.0107    0.0000 C   0  0  0  0  0  0  0  0  0  0  0  0
   -3.5554    1.4254    0.0000 C   0  0  0  0  0  0  0  0  0  0  0  0
   -3.5554    2.2504    0.0000 C   0  0  0  0  0  0  0  0  0  0  0  0
  2  1  1  0
  3  6  1  0
  4  2  2  0
  4  3  1  0
  5  1  1  0
  6  5  2  0
  7  2  1  0
  8  7  2  0
  9 21  1  0
 10 19  1  0
 11  8  1  0
 12  4  1  0
 12 13  2  0
 13  8  1  0
 14 11  2  0
 15  1  1  0
 16 18  1  0
 16 10  1  0
 17  9  1  0
 18  9  1  0
 19 17  1  0
 20 15  1  0
 21 20  1  0
 22  5  1  0
 23 10  1  0
 24  6  1  0
 25 27  1  0
 26 11  1  0
 27 23  1  0
 28 26  1  0
 29 22  2  0
 29 30  1  0
 30 24  2  0
M  END
>  <DRUGBANK_ID>  (1) 
DB01038

>  <SECONDARY_ACCESSION_NUMBERS>  (1) 
APRD00848

>  <COMMON_NAME>  (1) 
Carphenazine

>  <CAS_NUMBER>  (1) 
2622-30-2

>  <UNII>  (1) 
CLY16Y8Z7E

>  <SYNONYMS>  (1) 
Carfenazina; CarfÃ©nazine; Carfenazine; Carfenazinum; Carphenazine

$$$$
