BDE
     RDKit          2D

 21 22  0  0  0  0  0  0  0  0999 V2000
    1.6143    0.1686    0.0000 C   0  0  0  0  0  0  0  0  0  0  0  0
    2.3287   -0.2439    0.0000 C   0  0  0  0  0  0  0  0  0  0  0  0
    2.3287   -1.0689    0.0000 C   0  0  0  0  0  0  0  0  0  0  0  0
    1.6143   -1.4814    0.0000 N   0  0  0  0  0  0  0  0  0  0  0  0
    0.8998   -1.0689    0.0000 C   0  0  0  0  0  0  0  0  0  0  0  0
    0.8998   -0.2439    0.0000 C   0  0  0  0  0  0  0  0  0  0  0  0
    0.1853    0.1686    0.0000 C   0  0  0  0  0  0  0  0  0  0  0  0
    0.1853    0.9936    0.0000 O   0  0  0  0  0  0  0  0  0  0  0  0
   -0.5291   -0.2439    0.0000 N   0  0  0  0  0  0  0  0  0  0  0  0
   -1.2436    0.1686    0.0000 N   0  0  0  0  0  0  0  0  0  0  0  0
   -1.9581   -0.2439    0.0000 C   0  0  0  0  0  0  0  0  0  0  0  0
   -2.6726    0.1686    0.0000 C   0  0  0  0  0  0  0  0  0  0  0  0
   -3.3870   -0.2439    0.0000 C   0  0  0  0  0  0  0  0  0  0  0  0
   -4.1015    0.1686    0.0000 C   0  0  0  0  0  0  0  0  0  0  0  0
   -4.8160   -0.2439    0.0000 Br  0  0  0  0  0  0  0  0  0  0  0  0
   -4.1015    0.9936    0.0000 C   0  0  0  0  0  0  0  0  0  0  0  0
   -4.8160    1.4061    0.0000 O   0  0  0  0  0  0  0  0  0  0  0  0
   -3.3870    1.4061    0.0000 C   0  0  0  0  0  0  0  0  0  0  0  0
   -3.3870    2.2311    0.0000 Br  0  0  0  0  0  0  0  0  0  0  0  0
   -2.6726    0.9936    0.0000 C   0  0  0  0  0  0  0  0  0  0  0  0
   -1.9581    1.4061    0.0000 O   0  0  0  0  0  0  0  0  0  0  0  0
  1  2  2  0
  1  6  1  0
  2  3  1  0
  3  4  2  0
  4  5  1  0
  5  6  2  0
  6  7  1  0
  7  8  2  0
  7  9  1  0
  9 10  1  0
 10 11  2  0
 11 12  1  0
 12 13  2  0
 12 20  1  0
 13 14  1  0
 14 15  1  0
 14 16  2  0
 16 17  1  0
 16 18  1  0
 18 19  1  0
 18 20  2  0
 20 21  1  0
M  END
>  <DRUGBANK_ID>  (1) 
DB07445

>  <COMMON_NAME>  (1) 
N'-[(1E)-(3,5-DIBROMO-2,4-DIHYDROXYPHENYL)METHYLENE]NICOTINOHYDRAZIDE

$$$$
