CTF
     RDKit          2D

 28 31  0  0  0  0  0  0  0  0999 V2000
    2.0197   -0.3084    0.0000 C   0  0  0  0  0  0  0  0  0  0  0  0
    3.3924   -2.0055    0.0000 O   0  0  0  0  0  0  0  0  0  0  0  0
    3.8880   -0.9493    0.0000 O   0  0  0  0  0  0  0  0  0  0  0  0
    1.7394    0.4675    0.0000 C   0  0  0  0  0  0  0  0  0  0  0  0
    0.9272    0.6127    0.0000 C   0  0  0  0  0  0  0  0  0  0  0  0
    0.3954   -0.0180    0.0000 C   0  0  0  0  0  0  0  0  0  0  0  0
    3.1121   -1.2296    0.0000 S   0  0  0  0  0  0  0  0  0  0  0  0
    2.3362   -1.5099    0.0000 N   0  0  0  0  0  0  0  0  0  0  0  0
    2.8318   -0.4537    0.0000 O   0  0  0  0  0  0  0  0  0  0  0  0
    0.6757   -0.7939    0.0000 C   0  0  0  0  0  0  0  0  0  0  0  0
    1.4878   -0.9392    0.0000 C   0  0  0  0  0  0  0  0  0  0  0  0
    2.2712    1.0982    0.0000 O   0  0  0  0  0  0  0  0  0  0  0  0
    1.9909    1.8741    0.0000 C   0  0  0  0  0  0  0  0  0  0  0  0
   -0.4167    0.1272    0.0000 C   0  0  0  0  0  0  0  0  0  0  0  0
   -0.9485   -0.5035    0.0000 C   0  0  0  0  0  0  0  0  0  0  0  0
   -0.6682   -1.2794    0.0000 C   0  0  0  0  0  0  0  0  0  0  0  0
    0.1439   -1.4246    0.0000 C   0  0  0  0  0  0  0  0  0  0  0  0
   -0.6970    0.9031    0.0000 C   0  0  0  0  0  0  0  0  0  0  0  0
   -1.5091    1.0483    0.0000 C   0  0  0  0  0  0  0  0  0  0  0  0
   -2.0409    0.4176    0.0000 C   0  0  0  0  0  0  0  0  0  0  0  0
   -1.7606   -0.3583    0.0000 C   0  0  0  0  0  0  0  0  0  0  0  0
   -2.4008    1.1600    0.0000 C   0  0  0  0  0  0  0  0  0  0  0  0
   -2.8655    0.3908    0.0000 C   0  0  0  0  0  0  0  0  0  0  0  0
   -3.0948   -0.4017    0.0000 C   0  0  0  0  0  0  0  0  0  0  0  0
   -2.4120   -0.8646    0.0000 C   0  0  0  0  0  0  0  0  0  0  0  0
   -3.3718    1.0422    0.0000 C   0  0  0  0  0  0  0  0  0  0  0  0
   -4.1891    0.9293    0.0000 C   0  0  0  0  0  0  0  0  0  0  0  0
   -5.0063    0.8165    0.0000 N   0  0  0  0  0  0  0  0  0  0  0  0
  1  4  2  0
  1  9  1  0
  1 11  1  0
  2  7  2  0
  3  7  2  0
  4  5  1  0
  4 12  1  0
  5  6  2  0
  6 10  1  0
  6 14  1  0
  7  8  1  0
  7  9  1  0
 10 11  2  0
 10 17  1  0
 12 13  1  0
 14 15  1  0
 14 18  1  6
 15 16  1  1
 15 21  1  0
 16 17  1  0
 18 19  1  0
 19 20  1  0
 20 21  1  0
 20 22  1  6
 20 23  1  0
 21 25  1  6
 23 24  1  0
 23 26  1  6
 24 25  1  0
 26 27  1  0
 27 28  3  0
M  END
>  <DRUGBANK_ID>  (1) 
DB07596

>  <COMMON_NAME>  (1) 
(17beta)-17-(cyanomethyl)-2-methoxyestra-1(10),2,4-trien-3-yl sulfamate

$$$$
