CIU
     RDKit          2D

 17 18  0  0  0  0  0  0  0  0999 V2000
   -0.8917    2.3077    0.0000 C   0  0  0  0  0  0  0  0  0  0  0  0
   -0.1773    1.8952    0.0000 C   0  0  0  0  0  0  0  0  0  0  0  0
   -0.1773    1.0702    0.0000 C   0  0  0  0  0  0  0  0  0  0  0  0
   -0.8917    0.6577    0.0000 C   0  0  0  0  0  0  0  0  0  0  0  0
   -1.6062    1.0702    0.0000 C   0  0  0  0  0  0  0  0  0  0  0  0
   -1.6062    1.8952    0.0000 C   0  0  0  0  0  0  0  0  0  0  0  0
    0.5372    0.6577    0.0000 N   0  0  0  0  0  0  0  0  0  0  0  0
    0.5372   -0.1673    0.0000 C   0  0  0  0  0  0  0  0  0  0  0  0
   -0.1773   -0.5798    0.0000 O   0  0  0  0  0  0  0  0  0  0  0  0
    1.2517   -0.5798    0.0000 N   0  0  0  0  0  0  0  0  0  0  0  0
    1.2517   -1.4048    0.0000 C   0  0  0  0  0  0  0  0  0  0  0  0
    1.2517   -3.8798    0.0000 I   0  0  0  0  0  0  0  0  0  0  0  0
    1.9662   -1.8173    0.0000 C   0  0  0  0  0  0  0  0  0  0  0  0
    1.9662   -2.6423    0.0000 C   0  0  0  0  0  0  0  0  0  0  0  0
    1.2517   -3.0548    0.0000 C   0  0  0  0  0  0  0  0  0  0  0  0
    0.5372   -2.6423    0.0000 C   0  0  0  0  0  0  0  0  0  0  0  0
    0.5372   -1.8173    0.0000 C   0  0  0  0  0  0  0  0  0  0  0  0
  1  2  1  0
  1  6  1  0
  2  3  1  0
  3  4  1  0
  3  7  1  0
  4  5  1  0
  5  6  1  0
  7  8  1  0
  8  9  2  0
  8 10  1  0
 10 11  1  0
 11 13  2  0
 11 17  1  0
 12 15  1  0
 13 14  1  0
 14 15  2  0
 15 16  1  0
 16 17  2  0
M  END
>  <DRUGBANK_ID>  (1) 
DB02029

>  <SECONDARY_ACCESSION_NUMBERS>  (1) 
EXPT00923

>  <COMMON_NAME>  (1) 
N-Cyclohexyl-N'-(4-Iodophenyl)Urea

$$$$
