959
     RDKit          2D

 15 15  0  0  0  0  0  0  0  0999 V2000
   -3.4802    0.5406    0.0000 O   0  0  0  0  0  0  0  0  0  0  0  0
   -2.7657    0.1281    0.0000 C   0  0  0  0  0  0  0  0  0  0  0  0
   -2.7657   -0.6969    0.0000 C   0  0  0  0  0  0  0  0  0  0  0  0
   -2.0513    0.5406    0.0000 C   0  0  0  0  0  0  0  0  0  0  0  0
   -1.3368    0.1281    0.0000 N   0  0  0  0  0  0  0  0  0  0  0  0
   -0.6223    0.5406    0.0000 C   0  0  0  0  0  0  0  0  0  0  0  0
   -0.6223    1.3656    0.0000 O   0  0  0  0  0  0  0  0  0  0  0  0
    0.0921    0.1281    0.0000 O   0  0  0  0  0  0  0  0  0  0  0  0
    0.8066    0.5406    0.0000 C   0  0  0  0  0  0  0  0  0  0  0  0
    1.5211    0.1281    0.0000 C   0  0  0  0  0  0  0  0  0  0  0  0
    2.2356    0.5406    0.0000 C   0  0  0  0  0  0  0  0  0  0  0  0
    2.9500    0.1281    0.0000 C   0  0  0  0  0  0  0  0  0  0  0  0
    2.9500   -0.6969    0.0000 C   0  0  0  0  0  0  0  0  0  0  0  0
    2.2356   -1.1094    0.0000 C   0  0  0  0  0  0  0  0  0  0  0  0
    1.5211   -0.6969    0.0000 C   0  0  0  0  0  0  0  0  0  0  0  0
  1  2  2  0
  2  3  1  0
  2  4  1  0
  4  5  1  0
  5  6  1  0
  6  7  2  0
  6  8  1  0
  8  9  1  0
  9 10  1  0
 10 11  2  0
 10 15  1  0
 11 12  1  0
 12 13  2  0
 13 14  1  0
 14 15  2  0
M  END
>  <DRUGBANK_ID>  (1) 
DB07293

>  <COMMON_NAME>  (1) 
benzyl (2-oxopropyl)carbamate

>  <UNII>  (1) 
UAZ6B2TP7B

$$$$
