AL6
     RDKit          2D

 23 25  0  0  0  0  0  0  0  0999 V2000
   -2.3230   -0.5625    0.0000 C   0  0  0  0  0  0  0  0  0  0  0  0
    3.2334   -0.1500    0.0000 O   0  0  0  0  0  0  0  0  0  0  0  0
    0.3755   -0.9750    0.0000 C   0  0  0  0  0  0  0  0  0  0  0  0
   -0.3390   -1.3875    0.0000 C   0  0  0  0  0  0  0  0  0  0  0  0
    1.0900    0.2625    0.0000 C   0  0  0  0  0  0  0  0  0  0  0  0
    1.0900    1.0875    0.0000 C   0  0  0  0  0  0  0  0  0  0  0  0
    1.8044    1.5000    0.0000 C   0  0  0  0  0  0  0  0  0  0  0  0
    2.5189    1.0875    0.0000 C   0  0  0  0  0  0  0  0  0  0  0  0
    2.5189    0.2625    0.0000 C   0  0  0  0  0  0  0  0  0  0  0  0
    1.8044   -0.1500    0.0000 C   0  0  0  0  0  0  0  0  0  0  0  0
   -3.9730   -0.5625    0.0000 O   0  0  0  0  0  0  0  0  0  0  0  0
   -3.1480   -1.3875    0.0000 O   0  0  0  0  0  0  0  0  0  0  0  0
   -3.1480    0.2625    0.0000 N   0  0  0  0  0  0  0  0  0  0  0  0
   -3.1480   -0.5625    0.0000 S   0  0  0  0  0  0  0  0  0  0  0  0
   -1.8381   -1.2300    0.0000 C   0  0  0  0  0  0  0  0  0  0  0  0
   -1.0534   -0.9750    0.0000 C   0  0  0  0  0  0  0  0  0  0  0  0
   -1.0534   -0.1500    0.0000 C   0  0  0  0  0  0  0  0  0  0  0  0
   -1.8381    0.1049    0.0000 S   0  0  0  0  0  0  0  0  0  0  0  0
   -0.3390    0.2625    0.0000 S   0  0  0  0  0  0  0  0  0  0  0  0
   -0.8693    0.8944    0.0000 O   0  0  0  0  0  0  0  0  0  0  0  0
    0.1913    0.8944    0.0000 O   0  0  0  0  0  0  0  0  0  0  0  0
    0.3755   -0.1500    0.0000 N   0  0  0  0  0  0  0  0  0  0  0  0
    3.9478    0.2625    0.0000 C   0  0  0  0  0  0  0  0  0  0  0  0
  1 14  1  0
  1 15  2  0
  1 18  1  0
  2  9  1  0
  2 23  1  0
  3  4  2  0
  3 22  1  0
  4 16  1  0
  5  6  2  0
  5 10  1  0
  5 22  1  0
  6  7  1  0
  7  8  2  0
  8  9  1  0
  9 10  2  0
 11 14  2  0
 12 14  2  0
 13 14  1  0
 15 16  1  0
 16 17  2  0
 17 18  1  0
 17 19  1  0
 19 20  2  0
 19 21  2  0
 19 22  1  0
M  END
>  <DRUGBANK_ID>  (1) 
DB04371

>  <SECONDARY_ACCESSION_NUMBERS>  (1) 
EXPT00490

>  <COMMON_NAME>  (1) 
AL6528

$$$$
