RHS
     RDKit          2D

 17 16  0  0  0  0  0  0  0  0999 V2000
   -2.6966   -0.3403    0.0000 N   0  0  0  0  0  0  0  0  0  0  0  0
   -1.9822   -0.7528    0.0000 C   0  0  0  0  0  0  0  0  0  0  0  0
   -1.9822   -1.5778    0.0000 O   0  0  0  0  0  0  0  0  0  0  0  0
   -1.2677   -0.3403    0.0000 C   0  0  0  0  0  0  0  0  0  0  0  0
   -1.2677    0.4847    0.0000 C   0  0  0  0  0  0  0  0  0  0  0  0
   -1.2677    1.3097    0.0000 C   0  0  0  0  0  0  0  0  0  0  0  0
   -2.0927    0.4847    0.0000 C   0  0  0  0  0  0  0  0  0  0  0  0
   -0.4427    0.4847    0.0000 C   0  0  0  0  0  0  0  0  0  0  0  0
   -0.5532   -0.7528    0.0000 C   0  0  0  0  0  0  0  0  0  0  0  0
    0.1612   -0.3403    0.0000 C   0  0  0  0  0  0  0  0  0  0  0  0
    0.1612    0.4847    0.0000 O   0  0  0  0  0  0  0  0  0  0  0  0
    0.8757   -0.7528    0.0000 N   0  0  0  0  0  0  0  0  0  0  0  0
    1.5902   -0.3403    0.0000 C   0  0  0  0  0  0  0  0  0  0  0  0
    2.3047   -0.7528    0.0000 C   0  0  0  0  0  0  0  0  0  0  0  0
    3.0191   -0.3403    0.0000 C   0  0  0  0  0  0  0  0  0  0  0  0
    1.5902    0.4847    0.0000 C   0  0  0  0  0  0  0  0  0  0  0  0
    2.3047    0.8972    0.0000 C   0  0  0  0  0  0  0  0  0  0  0  0
  1  2  1  0
  2  3  2  0
  2  4  1  0
  4  5  1  0
  4  9  1  1
  5  6  1  0
  5  7  1  0
  5  8  1  0
  9 10  1  0
 10 11  2  0
 10 12  1  0
 12 13  1  0
 13 14  1  0
 13 16  1  0
 14 15  1  0
 16 17  1  0
M  END
>  <DRUGBANK_ID>  (1) 
DB08474

>  <COMMON_NAME>  (1) 
3-(CARBOXYAMIDE(2-CARBOXYAMIDE-2-TERTBUTYLETHYL))PENTAN

$$$$
