
     RDKit          2D

 30 33  0  0  0  0  0  0  0  0999 V2000
    9.5182    0.5817    0.0000 C   0  0  0  0  0  0  0  0  0  0  0  0
    8.6977    0.4955    0.0000 N   0  0  0  0  0  0  0  0  0  0  0  0
    8.3622   -0.2582    0.0000 C   0  0  0  0  0  0  0  0  0  0  0  0
    8.2128    1.1629    0.0000 C   0  0  0  0  0  0  0  0  0  0  0  0
    8.5484    1.9166    0.0000 O   0  0  0  0  0  0  0  0  0  0  0  0
    7.3923    1.0767    0.0000 C   0  0  0  0  0  0  0  0  0  0  0  0
    6.9074    1.7441    0.0000 C   0  0  0  0  0  0  0  0  0  0  0  0
    6.0869    1.6579    0.0000 N   0  0  0  0  0  0  0  0  0  0  0  0
    5.6744    0.9434    0.0000 C   0  0  0  0  0  0  0  0  0  0  0  0
    4.8675    1.1150    0.0000 N   0  0  0  0  0  0  0  0  0  0  0  0
    4.7812    1.9354    0.0000 C   0  0  0  0  0  0  0  0  0  0  0  0
    5.5349    2.2710    0.0000 N   0  0  0  0  0  0  0  0  0  0  0  0
    4.0668    2.3479    0.0000 N   0  0  0  0  0  0  0  0  0  0  0  0
    3.3523    1.9354    0.0000 C   0  0  0  0  0  0  0  0  0  0  0  0
    3.3523    1.1104    0.0000 C   0  0  0  0  0  0  0  0  0  0  0  0
    2.6378    0.6979    0.0000 C   0  0  0  0  0  0  0  0  0  0  0  0
    1.9233    1.1104    0.0000 C   0  0  0  0  0  0  0  0  0  0  0  0
    1.9233    1.9354    0.0000 C   0  0  0  0  0  0  0  0  0  0  0  0
    2.6378    2.3479    0.0000 C   0  0  0  0  0  0  0  0  0  0  0  0
    1.1387    2.1904    0.0000 O   0  0  0  0  0  0  0  0  0  0  0  0
    0.6538    1.5229    0.0000 C   0  0  0  0  0  0  0  0  0  0  0  0
    1.1387    0.8555    0.0000 O   0  0  0  0  0  0  0  0  0  0  0  0
   -0.0650    1.9279    0.0000 F   0  0  0  0  0  0  0  0  0  0  0  0
   -0.0650    1.1179    0.0000 F   0  0  0  0  0  0  0  0  0  0  0  0
    6.0100    0.1898    0.0000 C   0  0  0  0  0  0  0  0  0  0  0  0
    6.8305    0.1035    0.0000 C   0  0  0  0  0  0  0  0  0  0  0  0
    7.1660   -0.6502    0.0000 C   0  0  0  0  0  0  0  0  0  0  0  0
    6.6811   -1.3176    0.0000 N   0  0  0  0  0  0  0  0  0  0  0  0
    5.8606   -1.2314    0.0000 C   0  0  0  0  0  0  0  0  0  0  0  0
    5.5251   -0.4777    0.0000 C   0  0  0  0  0  0  0  0  0  0  0  0
  1  2  1  0
  2  3  1  0
  2  4  1  0
  4  5  2  0
  4  6  1  0
  6  7  1  0
  7  8  1  0
  8  9  1  0
  8 12  1  0
  9 10  2  0
  9 25  1  0
 10 11  1  0
 11 12  2  0
 11 13  1  0
 13 14  1  0
 14 15  2  0
 14 19  1  0
 15 16  1  0
 16 17  2  0
 17 18  1  0
 17 22  1  0
 18 19  2  0
 18 20  1  0
 20 21  1  0
 21 22  1  0
 21 23  1  0
 21 24  1  0
 25 26  2  0
 25 30  1  0
 26 27  1  0
 27 28  2  0
 28 29  1  0
 29 30  2  0
M  END
>  <DRUGBANK_ID>  (1) 
DB11867

>  <COMMON_NAME>  (1) 
JNJ-39393406

>  <CAS_NUMBER>  (1) 
953428-73-4

>  <UNII>  (1) 
T930SOU82P

$$$$
