887
     RDKit          2D

 31 35  0  0  0  0  0  0  0  0999 V2000
    0.2391    0.7828    0.0000 C   0  0  0  0  0  0  0  0  0  0  0  0
    0.2391    1.6078    0.0000 C   0  0  0  0  0  0  0  0  0  0  0  0
   -0.4754    2.0203    0.0000 C   0  0  0  0  0  0  0  0  0  0  0  0
   -1.1899    1.6078    0.0000 C   0  0  0  0  0  0  0  0  0  0  0  0
   -1.1899    0.7828    0.0000 C   0  0  0  0  0  0  0  0  0  0  0  0
   -0.4754    0.3703    0.0000 C   0  0  0  0  0  0  0  0  0  0  0  0
   -0.4754    2.8453    0.0000 C   0  0  0  0  0  0  0  0  0  0  0  0
   -1.1899    3.2578    0.0000 C   0  0  0  0  0  0  0  0  0  0  0  0
   -1.9044    2.8453    0.0000 C   0  0  0  0  0  0  0  0  0  0  0  0
   -1.9044    2.0203    0.0000 C   0  0  0  0  0  0  0  0  0  0  0  0
    0.9535    0.3703    0.0000 O   0  0  0  0  0  0  0  0  0  0  0  0
    0.9535   -0.4547    0.0000 C   0  0  0  0  0  0  0  0  0  0  0  0
    1.6680   -0.8672    0.0000 C   0  0  0  0  0  0  0  0  0  0  0  0
    1.6680   -1.6922    0.0000 C   0  0  0  0  0  0  0  0  0  0  0  0
    0.9535   -2.1047    0.0000 N   0  0  0  0  0  0  0  0  0  0  0  0
    0.2391   -1.6922    0.0000 C   0  0  0  0  0  0  0  0  0  0  0  0
    0.2391   -0.8672    0.0000 C   0  0  0  0  0  0  0  0  0  0  0  0
    2.3825   -0.4547    0.0000 C   0  0  0  0  0  0  0  0  0  0  0  0
    3.0969   -0.8672    0.0000 C   0  0  0  0  0  0  0  0  0  0  0  0
    3.0969   -1.6922    0.0000 C   0  0  0  0  0  0  0  0  0  0  0  0
    2.3825   -2.1047    0.0000 C   0  0  0  0  0  0  0  0  0  0  0  0
    3.8114   -0.4547    0.0000 O   0  0  0  0  0  0  0  0  0  0  0  0
    3.8114   -2.1047    0.0000 O   0  0  0  0  0  0  0  0  0  0  0  0
    3.8114   -2.9297    0.0000 C   0  0  0  0  0  0  0  0  0  0  0  0
    4.5259   -0.8672    0.0000 C   0  0  0  0  0  0  0  0  0  0  0  0
   -2.6188    1.6078    0.0000 C   0  0  0  0  0  0  0  0  0  0  0  0
   -2.6188    0.7828    0.0000 N   0  0  0  0  0  0  0  0  0  0  0  0
   -3.3333    0.3703    0.0000 C   0  0  0  0  0  0  0  0  0  0  0  0
   -3.3333    2.0203    0.0000 O   0  0  0  0  0  0  0  0  0  0  0  0
   -3.7458   -0.3442    0.0000 C   0  0  0  0  0  0  0  0  0  0  0  0
   -4.1583    0.3703    0.0000 C   0  0  0  0  0  0  0  0  0  0  0  0
  1  6  1  0
  2  1  2  0
  2  3  1  0
  3  4  2  0
  4  5  1  0
  4 10  1  0
  6  5  2  0
  7  3  1  0
  7  8  2  0
  8  9  1  0
  9 10  2  0
 10 26  1  0
 11  1  1  0
 12 11  1  0
 12 17  1  0
 13 12  2  0
 14 13  1  0
 14 15  2  0
 15 16  1  0
 16 17  2  0
 18 13  1  0
 19 18  2  0
 20 19  1  0
 20 21  2  0
 21 14  1  0
 22 19  1  0
 22 25  1  0
 23 20  1  0
 24 23  1  0
 26 29  2  0
 26 27  1  0
 27 28  1  0
 28 30  1  0
 28 31  1  0
 30 31  1  0
M  END
>  <DRUGBANK_ID>  (1) 
DB07274

>  <COMMON_NAME>  (1) 
N-cyclopropyl-6-[(6,7-dimethoxyquinolin-4-yl)oxy]naphthalene-1-carboxamide

$$$$
