CMZ
     RDKit          2D

 19 20  0  0  0  0  0  0  0  0999 V2000
   -2.1803   -0.3491    0.0000 C   0  0  0  0  0  0  0  0  0  0  0  0
   -1.4659    0.0634    0.0000 C   0  0  0  0  0  0  0  0  0  0  0  0
   -1.4659    0.8884    0.0000 C   0  0  0  0  0  0  0  0  0  0  0  0
   -0.7514    1.3009    0.0000 C   0  0  0  0  0  0  0  0  0  0  0  0
   -0.0369    0.8884    0.0000 C   0  0  0  0  0  0  0  0  0  0  0  0
    0.6775    1.3009    0.0000 C   0  0  0  0  0  0  0  0  0  0  0  0
   -0.0369    0.0634    0.0000 C   0  0  0  0  0  0  0  0  0  0  0  0
    0.6775   -0.3491    0.0000 O   0  0  0  0  0  0  0  0  0  0  0  0
    1.3920    0.0634    0.0000 C   0  0  0  0  0  0  0  0  0  0  0  0
    2.1065   -0.3491    0.0000 C   0  0  0  0  0  0  0  0  0  0  0  0
    2.1065   -1.1741    0.0000 O   0  0  0  0  0  0  0  0  0  0  0  0
    2.8210    0.0634    0.0000 C   0  0  0  0  0  0  0  0  0  0  0  0
    3.5354   -0.3491    0.0000 N   0  0  0  0  0  0  0  0  0  0  0  0
    4.2499    0.0634    0.0000 C   0  0  0  0  0  0  0  0  0  0  0  0
    4.9644   -0.3491    0.0000 C   0  0  0  0  0  0  0  0  0  0  0  0
    4.9644   -1.1741    0.0000 O   0  0  0  0  0  0  0  0  0  0  0  0
    4.2499   -1.5866    0.0000 C   0  0  0  0  0  0  0  0  0  0  0  0
    3.5354   -1.1741    0.0000 C   0  0  0  0  0  0  0  0  0  0  0  0
   -0.7514   -0.3491    0.0000 C   0  0  0  0  0  0  0  0  0  0  0  0
  1  2  1  0
  2  3  2  0
  3  4  1  0
  5  4  2  0
  5  6  1  0
  7  5  1  0
  8  7  1  0
  9 10  1  0
  9  8  1  0
 10 12  1  0
 10 11  1  6
 13 12  1  0
 13 14  1  0
 13 18  1  0
 15 14  1  0
 15 16  1  0
 17 18  1  0
 17 16  1  0
 19  2  1  0
 19  7  2  0
M  END
>  <DRUGBANK_ID>  (1) 
DB07573

>  <COMMON_NAME>  (1) 
(2S)-1-(2,5-dimethylphenoxy)-3-morpholin-4-ylpropan-2-ol

$$$$
