34C
     RDKit          2D

 15 15  0  0  0  0  0  0  0  0999 V2000
    2.2834    0.2792    0.0000 Cl  0  0  0  0  0  0  0  0  0  0  0  0
    1.5689   -0.1333    0.0000 C   0  0  0  0  0  0  0  0  0  0  0  0
    1.5689   -0.9583    0.0000 C   0  0  0  0  0  0  0  0  0  0  0  0
    0.8545   -1.3708    0.0000 C   0  0  0  0  0  0  0  0  0  0  0  0
    0.1400   -0.9583    0.0000 C   0  0  0  0  0  0  0  0  0  0  0  0
    0.1400   -0.1333    0.0000 C   0  0  0  0  0  0  0  0  0  0  0  0
    0.8545    0.2792    0.0000 C   0  0  0  0  0  0  0  0  0  0  0  0
    0.8545   -2.1958    0.0000 C   0  0  0  0  0  0  0  0  0  0  0  0
    0.1400   -2.6083    0.0000 C   0  0  0  0  0  0  0  0  0  0  0  0
    0.1400    1.5167    0.0000 C   0  0  0  0  0  0  0  0  0  0  0  0
    0.1400    2.3417    0.0000 C   0  0  0  0  0  0  0  0  0  0  0  0
   -0.5745    2.7542    0.0000 C   0  0  0  0  0  0  0  0  0  0  0  0
    0.8545    1.1042    0.0000 O   0  0  0  0  0  0  0  0  0  0  0  0
    0.1400   -3.4333    0.0000 O   0  0  0  0  0  0  0  0  0  0  0  0
   -0.5745   -2.1958    0.0000 O   0  0  0  0  0  0  0  0  0  0  0  0
  1  2  1  0
  2  3  2  0
  2  7  1  0
  3  4  1  0
  4  5  2  0
  4  8  1  0
  5  6  1  0
  6  7  2  0
  7 13  1  0
  8  9  1  0
  9 14  2  0
  9 15  1  0
 10 11  1  0
 10 13  1  0
 11 12  1  0
M  END
>  <DRUGBANK_ID>  (1) 
DB02773

>  <SECONDARY_ACCESSION_NUMBERS>  (1) 
EXPT00156

>  <COMMON_NAME>  (1) 
(3-Chloro-4-Propoxy-Phenyl)-Acetic Acid

$$$$
