53N
     RDKit          2D

 19 20  0  0  0  0  0  0  0  0999 V2000
   -0.1195    1.1213    0.0000 C   0  0  0  0  0  0  0  0  0  0  0  0
   -0.8340    0.7088    0.0000 C   0  0  0  0  0  0  0  0  0  0  0  0
   -0.8340   -0.1162    0.0000 C   0  0  0  0  0  0  0  0  0  0  0  0
    0.0634   -2.0532    0.0000 C   0  0  0  0  0  0  0  0  0  0  0  0
   -1.2465   -1.3857    0.0000 C   0  0  0  0  0  0  0  0  0  0  0  0
   -1.5485    1.1213    0.0000 C   0  0  0  0  0  0  0  0  0  0  0  0
   -0.1195    1.9463    0.0000 C   0  0  0  0  0  0  0  0  0  0  0  0
    0.5949    2.3588    0.0000 N   0  0  0  0  0  0  0  0  0  0  0  0
    0.5949    3.1838    0.0000 O   0  0  0  0  0  0  0  0  0  0  0  0
    1.3094    1.9463    0.0000 O   0  0  0  0  0  0  0  0  0  0  0  0
   -0.1666   -0.6011    0.0000 S   0  0  0  0  0  0  0  0  0  0  0  0
   -0.4215   -1.3857    0.0000 C   0  0  0  0  0  0  0  0  0  0  0  0
    0.8839   -1.9669    0.0000 C   0  0  0  0  0  0  0  0  0  0  0  0
    1.3688   -2.6344    0.0000 C   0  0  0  0  0  0  0  0  0  0  0  0
    2.1893   -2.5481    0.0000 O   0  0  0  0  0  0  0  0  0  0  0  0
    1.0333   -3.3881    0.0000 O   0  0  0  0  0  0  0  0  0  0  0  0
   -1.5014   -0.6011    0.0000 C   0  0  0  0  0  0  0  0  0  0  0  0
   -1.5485    1.9463    0.0000 C   0  0  0  0  0  0  0  0  0  0  0  0
   -0.8340    2.3588    0.0000 C   0  0  0  0  0  0  0  0  0  0  0  0
  1  2  2  0
  1  7  1  0
  2  3  1  0
  2  6  1  0
  3 11  1  0
  3 17  2  0
  4 12  1  0
  4 13  1  0
  5 12  2  0
  5 17  1  0
  6 18  2  0
  7  8  1  0
  7 19  2  0
  8  9  1  0
  8 10  2  0
 11 12  1  0
 13 14  1  0
 14 15  1  0
 14 16  2  0
 18 19  1  0
M  CHG  2   8   1   9  -1
M  END
>  <DRUGBANK_ID>  (1) 
DB07139

>  <COMMON_NAME>  (1) 
3-[5-(3-nitrophenyl)thiophen-2-yl]propanoic acid

$$$$
