
     RDKit          2D

 24 26  0  0  0  0  0  0  0  0999 V2000
    1.4109    0.6247    0.0000 C   0  0  0  0  0  0  0  0  0  0  0  0
    1.4097   -0.2049    0.0000 C   0  0  0  0  0  0  0  0  0  0  0  0
    2.1266   -0.6190    0.0000 C   0  0  0  0  0  0  0  0  0  0  0  0
    2.8451   -0.2044    0.0000 C   0  0  0  0  0  0  0  0  0  0  0  0
    2.8422    0.6284    0.0000 C   0  0  0  0  0  0  0  0  0  0  0  0
    2.1248    1.0386    0.0000 O   0  0  0  0  0  0  0  0  0  0  0  0
   -1.4290    0.6289    0.0000 C   0  0  0  0  0  0  0  0  0  0  0  0
   -2.1393    1.0467    0.0000 C   0  0  0  0  0  0  0  0  0  0  0  0
   -2.8497    0.6289    0.0000 C   0  0  0  0  0  0  0  0  0  0  0  0
   -1.4290   -0.2067    0.0000 O   0  0  0  0  0  0  0  0  0  0  0  0
    0.7020   -0.6246    0.0000 C   0  0  0  0  0  0  0  0  0  0  0  0
   -2.8497   -0.2067    0.0000 C   0  0  0  0  0  0  0  0  0  0  0  0
   -2.1393   -0.6246    0.0000 C   0  0  0  0  0  0  0  0  0  0  0  0
   -0.7187    1.0467    0.0000 O   0  0  0  0  0  0  0  0  0  0  0  0
   -0.0083   -0.2067    0.0000 C   0  0  0  0  0  0  0  0  0  0  0  0
   -0.0083    0.6289    0.0000 C   0  0  0  0  0  0  0  0  0  0  0  0
   -2.1393    1.8781    0.0000 O   0  0  0  0  0  0  0  0  0  0  0  0
   -3.5559    1.0467    0.0000 O   0  0  0  0  0  0  0  0  0  0  0  0
   -3.5559   -0.6246    0.0000 O   0  0  0  0  0  0  0  0  0  0  0  0
    0.7020    1.0467    0.0000 C   0  0  0  0  0  0  0  0  0  0  0  0
   -2.1393   -1.4603    0.0000 C   0  0  0  0  0  0  0  0  0  0  0  0
   -1.4290   -1.8781    0.0000 O   0  0  0  0  0  0  0  0  0  0  0  0
    3.5559    1.0467    0.0000 O   0  0  0  0  0  0  0  0  0  0  0  0
    2.1186   -1.4437    0.0000 C   0  0  0  0  0  0  0  0  0  0  0  0
  1  2  2  0
  1 20  1  0
  2  3  1  0
  3  4  2  0
  3 24  1  0
  4  5  1  0
  5  6  1  0
  5 23  2  0
  6  1  1  0
  7 14  1  1
  8  7  1  0
  8 17  1  1
  9  8  1  0
  9 18  1  6
  9 12  1  0
 10  7  1  0
 11 15  2  0
 11  2  1  0
 12 13  1  0
 12 19  1  1
 13 10  1  0
 13 21  1  6
 15 16  1  0
 16 14  1  0
 20 16  2  0
 22 21  1  0
M  END
>  <DRUGBANK_ID>  (1) 
DB02639

>  <SECONDARY_ACCESSION_NUMBERS>  (1) 
EXPT02256

>  <COMMON_NAME>  (1) 
7-(alpha-D-Glucopyranosyloxy)-4-methyl-2H-1-benzopyran-2-one

>  <CAS_NUMBER>  (1) 
17833-43-1

>  <SYNONYMS>  (1) 
4-Methylumbelliferyl a-D-glucopyranoside; 4-Methylumbelliferyl α-D-glucoside; 7-(alpha-D-Glucopyranosyloxy)-4-methyl-2H-1-benzopyran-2-one; 7-(α-D-glucopyranosyloxy)-4-methyl-2H-1-benzopyran-2-one

$$$$
