
     RDKit          2D

 28 30  0  0  0  0  0  0  0  0999 V2000
   -1.8562    1.9668    0.0000 O   0  0  0  0  0  0  0  0  0  0  0  0
   -1.4437    2.6812    0.0000 O   0  0  0  0  0  0  0  0  0  0  0  0
   -0.6187   -0.3977    0.0000 N   0  0  0  0  0  0  0  0  0  0  0  0
   -0.2062    1.9668    0.0000 N   0  0  0  0  0  0  0  0  0  0  0  0
   -0.6187    1.2522    0.0000 C   0  0  0  0  0  0  0  0  0  0  0  0
   -1.3332    0.8397    0.0000 C   0  0  0  0  0  0  0  0  0  0  0  0
    0.0957    0.8397    0.0000 C   0  0  0  0  0  0  0  0  0  0  0  0
   -1.3332    0.0147    0.0000 C   0  0  0  0  0  0  0  0  0  0  0  0
    0.0957    0.0147    0.0000 C   0  0  0  0  0  0  0  0  0  0  0  0
   -1.0312    1.9668    0.0000 C   0  0  0  0  0  0  0  0  0  0  0  0
   -0.6187   -1.2227    0.0000 C   0  0  0  0  0  0  0  0  0  0  0  0
    0.6187    1.9668    0.0000 C   0  0  0  0  0  0  0  0  0  0  0  0
   -0.6187    2.6812    0.0000 C   0  0  0  0  0  0  0  0  0  0  0  0
   -1.3332   -1.6352    0.0000 C   0  0  0  0  0  0  0  0  0  0  0  0
   -0.2062    3.3957    0.0000 C   0  0  0  0  0  0  0  0  0  0  0  0
    1.0312    2.6812    0.0000 C   0  0  0  0  0  0  0  0  0  0  0  0
    1.0312    1.2522    0.0000 C   0  0  0  0  0  0  0  0  0  0  0  0
   -1.3332   -2.4602    0.0000 C   0  0  0  0  0  0  0  0  0  0  0  0
   -2.2687    2.6812    0.0000 C   0  0  0  0  0  0  0  0  0  0  0  0
   -0.6187    4.1102    0.0000 C   0  0  0  0  0  0  0  0  0  0  0  0
    1.8562    2.6812    0.0000 C   0  0  0  0  0  0  0  0  0  0  0  0
    1.8562    1.2522    0.0000 C   0  0  0  0  0  0  0  0  0  0  0  0
   -0.6187   -2.8727    0.0000 C   0  0  0  0  0  0  0  0  0  0  0  0
   -2.0477   -2.8727    0.0000 C   0  0  0  0  0  0  0  0  0  0  0  0
    2.2687    1.9668    0.0000 C   0  0  0  0  0  0  0  0  0  0  0  0
   -0.6187   -3.6977    0.0000 C   0  0  0  0  0  0  0  0  0  0  0  0
   -2.0477   -3.6977    0.0000 C   0  0  0  0  0  0  0  0  0  0  0  0
   -1.3332   -4.1102    0.0000 C   0  0  0  0  0  0  0  0  0  0  0  0
  1 10  1  0
  1 19  1  0
  2 13  2  0
  3  8  1  0
  3  9  1  0
  3 11  1  0
  4  5  1  0
  4 12  1  0
  4 13  1  0
  5  6  1  0
  5  7  1  0
  5 10  1  0
  6  8  1  0
  7  9  1  0
 11 14  1  0
 12 16  2  0
 12 17  1  0
 13 15  1  0
 14 18  1  0
 15 20  1  0
 16 21  1  0
 17 22  2  0
 18 23  2  0
 18 24  1  0
 21 25  2  0
 22 25  1  0
 23 26  1  0
 24 27  2  0
 26 28  2  0
 27 28  1  0
M  END
>  <DRUGBANK_ID>  (1) 
DB09179

>  <COMMON_NAME>  (1) 
R-30490

>  <CAS_NUMBER>  (1) 
60618-49-7

>  <UNII>  (1) 
03DNV05OD4

$$$$
