
     RDKit          2D

 26 27  0  0  0  0  0  0  0  0999 V2000
   -1.2259    0.8240    0.0000 S   0  0  0  0  0  0  0  0  0  0  0  0
    3.6521   -0.6910    0.0000 S   0  0  0  0  0  0  0  0  0  0  0  0
    0.2030   -1.6509    0.0000 O   0  0  0  0  0  0  0  0  0  0  0  0
    0.9174   -1.2384    0.0000 O   0  0  0  0  0  0  0  0  0  0  0  0
   -3.3693   -1.2384    0.0000 O   0  0  0  0  0  0  0  0  0  0  0  0
   -4.0838   -0.0009    0.0000 O   0  0  0  0  0  0  0  0  0  0  0  0
    0.9174    1.2365    0.0000 O   0  0  0  0  0  0  0  0  0  0  0  0
    0.2030   -0.0009    0.0000 N   0  0  0  0  0  0  0  0  0  0  0  0
   -1.9404   -0.4134    0.0000 N   0  0  0  0  0  0  0  0  0  0  0  0
    1.6319    0.8240    0.0000 N   0  0  0  0  0  0  0  0  0  0  0  0
    2.4326   -1.2339    0.0000 N   0  0  0  0  0  0  0  0  0  0  0  0
    3.5751   -2.1591    0.0000 N   0  0  0  0  0  0  0  0  0  0  0  0
   -1.2259   -0.0009    0.0000 C   0  0  0  0  0  0  0  0  0  0  0  0
   -0.5115   -0.4134    0.0000 C   0  0  0  0  0  0  0  0  0  0  0  0
   -1.9404    1.2365    0.0000 C   0  0  0  0  0  0  0  0  0  0  0  0
   -2.6549    0.8240    0.0000 C   0  0  0  0  0  0  0  0  0  0  0  0
   -2.6549   -0.0009    0.0000 C   0  0  0  0  0  0  0  0  0  0  0  0
   -0.5115   -1.2384    0.0000 C   0  0  0  0  0  0  0  0  0  0  0  0
    0.9174   -0.4134    0.0000 C   0  0  0  0  0  0  0  0  0  0  0  0
    1.6319   -0.0009    0.0000 C   0  0  0  0  0  0  0  0  0  0  0  0
   -3.3693   -0.4134    0.0000 C   0  0  0  0  0  0  0  0  0  0  0  0
   -3.3693    1.2365    0.0000 C   0  0  0  0  0  0  0  0  0  0  0  0
    2.3463   -0.4134    0.0000 C   0  0  0  0  0  0  0  0  0  0  0  0
    3.1001   -0.0779    0.0000 C   0  0  0  0  0  0  0  0  0  0  0  0
    3.2396   -1.4054    0.0000 C   0  0  0  0  0  0  0  0  0  0  0  0
    0.9174    2.0615    0.0000 C   0  0  0  0  0  0  0  0  0  0  0  0
  1 13  1  0
  1 15  1  0
  2 24  1  0
  2 25  1  0
  3 18  2  0
  4 19  2  0
  5 21  1  0
  6 21  2  0
  7 10  1  0
  7 26  1  0
  8 19  1  0
 13  9  1  6
  9 17  2  0
 10 20  2  0
 11 23  1  0
 11 25  2  0
 12 25  1  0
 13 14  1  0
 14  8  1  0
 14 18  1  6
 15 16  1  0
 16 17  1  0
 16 22  2  0
 17 21  1  0
 19 20  1  0
 20 23  1  0
 23 24  2  0
M  END
>  <DRUGBANK_ID>  (1) 
DB08375

>  <SECONDARY_ACCESSION_NUMBERS>  (1) 
EXPT00885; DB04181

>  <COMMON_NAME>  (1) 
(2R)-2-[(1R)-1-[[(2Z)-2-(2-Amino-1,3-thiazol-4-yl)-2-methoxyiminoacetyl]amino]-2-oxoethyl]-5-methylidene-2H-1,3-thiazine-4-carboxylic acid

>  <SYNONYMS>  (1) 
Pcnotaxime group

$$$$
