
     RDKit          2D

 26 28  0  0  0  0  0  0  0  0999 V2000
    2.5475   -2.0631    0.0000 C   0  0  0  0  0  0  0  0  0  0  0  0
    1.8329   -2.4747    0.0000 O   0  0  0  0  0  0  0  0  0  0  0  0
    3.2620   -2.4747    0.0000 O   0  0  0  0  0  0  0  0  0  0  0  0
    2.5475   -1.2381    0.0000 C   0  0  0  0  0  0  0  0  0  0  0  0
    1.8309   -0.8244    0.0000 N   0  0  0  0  0  0  0  0  0  0  0  0
    3.2600   -0.8244    0.0000 C   0  0  0  0  0  0  0  0  0  0  0  0
    1.8309    0.0006    0.0000 C   0  0  0  0  0  0  0  0  0  0  0  0
    1.0058   -0.8244    0.0000 C   0  0  0  0  0  0  0  0  0  0  0  0
    3.9766   -1.2381    0.0000 C   0  0  0  0  0  0  0  0  0  0  0  0
    3.2600    0.0006    0.0000 C   0  0  0  0  0  0  0  0  0  0  0  0
    1.0058    0.0006    0.0000 C   0  0  0  0  0  0  0  0  0  0  0  0
    2.5475    0.4120    0.0000 S   0  0  0  0  0  0  0  0  0  0  0  0
    0.4224   -1.4080    0.0000 O   0  0  0  0  0  0  0  0  0  0  0  0
    0.2933    0.4120    0.0000 N   0  0  0  0  0  0  0  0  0  0  0  0
   -0.4212   -0.0004    0.0000 C   0  0  0  0  0  0  0  0  0  0  0  0
   -1.1356    0.4121    0.0000 C   0  0  0  0  0  0  0  0  0  0  0  0
   -0.4212   -0.8255    0.0000 O   0  0  0  0  0  0  0  0  0  0  0  0
   -1.1356    1.2372    0.0000 N   0  0  0  0  0  0  0  0  0  0  0  0
   -1.8501   -0.0002    0.0000 C   0  0  0  0  0  0  0  0  0  0  0  0
   -1.9365   -0.8208    0.0000 C   0  0  0  0  0  0  0  0  0  0  0  0
   -2.6039    0.3353    0.0000 N   0  0  0  0  0  0  0  0  0  0  0  0
   -2.7436   -0.9922    0.0000 S   0  0  0  0  0  0  0  0  0  0  0  0
   -3.1562   -0.2778    0.0000 C   0  0  0  0  0  0  0  0  0  0  0  0
   -3.9766   -0.1915    0.0000 N   0  0  0  0  0  0  0  0  0  0  0  0
   -0.4209    1.6496    0.0000 O   0  0  0  0  0  0  0  0  0  0  0  0
   -0.4209    2.4747    0.0000 C   0  0  0  0  0  0  0  0  0  0  0  0
  1  2  1  0
  1  3  2  0
  1  4  1  0
  4  5  1  0
  4  6  2  0
  5  8  1  0
  6  9  1  0
  6 10  1  0
  7  5  1  0
  7 12  1  1
  8 13  2  0
 10 12  1  0
 11  7  1  0
 11  8  1  0
 11 14  1  1
 14 15  1  0
 15 16  1  0
 15 17  2  0
 16 18  2  0
 16 19  1  0
 18 25  1  0
 20 19  2  0
 21 19  1  0
 22 20  1  0
 23 21  2  0
 23 22  1  0
 23 24  1  0
 25 26  1  0
M  END
>  <DRUGBANK_ID>  (1) 
DB13504

>  <COMMON_NAME>  (1) 
Cefetamet

>  <CAS_NUMBER>  (1) 
65052-63-3

>  <UNII>  (1) 
4R5TV783X3

>  <SYNONYMS>  (1) 
Cefetamet; Céfétamet; Cefetametum

$$$$
