
     RDKit          2D

 25 28  0  0  1  0  0  0  0  0999 V2000
    1.6500   -1.7462    0.0000 O   0  0  0  0  0  0  0  0  0  0  0  0
    2.7999   -2.4101    0.0000 O   0  0  0  0  0  0  0  0  0  0  0  0
    4.2169    2.8010    0.0000 O   0  0  0  0  0  0  0  0  0  0  0  0
    4.2169    1.3720    0.0000 N   0  0  0  0  0  0  0  0  0  0  0  0
    4.6736    0.7041    0.0000 N   0  0  0  0  0  0  0  0  0  0  0  0
    6.8694   -2.3017    0.0000 N   0  0  0  0  0  0  0  0  0  0  0  0
    3.4101    1.4336    0.0000 C   0  0  0  0  0  0  0  0  0  0  0  0
    2.8574    0.8426    0.0000 C   0  0  0  0  0  0  0  0  0  0  0  0
    2.9725    0.0417    0.0000 C   0  0  0  0  0  0  0  0  0  0  0  0
    3.6871   -0.3708    0.0000 C   0  0  0  0  0  0  0  0  0  0  0  0
    4.4383   -0.0701    0.0000 C   0  0  0  0  0  0  0  0  0  0  0  0
    3.1108    2.2024    0.0000 C   0  0  0  0  0  0  0  0  0  0  0  0
    2.2581   -0.3708    0.0000 C   0  0  0  0  0  0  0  0  0  0  0  0
    3.6871   -1.1959    0.0000 C   0  0  0  0  0  0  0  0  0  0  0  0
    2.2581   -1.1959    0.0000 C   0  0  0  0  0  0  0  0  0  0  0  0
    2.9725   -1.6084    0.0000 C   0  0  0  0  0  0  0  0  0  0  0  0
    5.0461   -0.6280    0.0000 C   0  0  0  0  0  0  0  0  0  0  0  0
    4.6294    2.0865    0.0000 C   0  0  0  0  0  0  0  0  0  0  0  0
    1.9843   -2.4951    0.0000 C   0  0  0  0  0  0  0  0  0  0  0  0
    5.8331   -0.3806    0.0000 C   0  0  0  0  0  0  0  0  0  0  0  0
    4.8669   -1.4333    0.0000 C   0  0  0  0  0  0  0  0  0  0  0  0
    5.4544    2.0865    0.0000 C   0  0  0  0  0  0  0  0  0  0  0  0
    6.4409   -0.9385    0.0000 C   0  0  0  0  0  0  0  0  0  0  0  0
    5.4747   -1.9912    0.0000 C   0  0  0  0  0  0  0  0  0  0  0  0
    6.2616   -1.7438    0.0000 C   0  0  0  0  0  0  0  0  0  0  0  0
  1 15  1  0
  1 19  1  0
  2 16  1  0
  2 19  1  0
  3 18  2  0
  4  5  1  0
  4  7  1  0
  4 18  1  0
  5 11  2  0
  6 25  1  0
  7  8  1  0
  7 12  1  1
  8  9  1  0
  9 10  2  0
  9 13  1  0
 10 11  1  0
 10 14  1  0
 11 17  1  0
 13 15  2  0
 14 16  2  0
 15 16  1  0
 17 20  2  0
 17 21  1  0
 18 22  1  0
 20 23  1  0
 21 24  2  0
 23 25  2  0
 24 25  1  0
M  END
>  <DRUGBANK_ID>  (1) 
DB04982

>  <COMMON_NAME>  (1) 
Talampanel

>  <CAS_NUMBER>  (1) 
161832-65-1

>  <UNII>  (1) 
CVS43XG1L5

>  <SYNONYMS>  (1) 
Talampanel

$$$$
