NND
     RDKit          2D

 20 20  0  0  0  0  0  0  0  0999 V2000
    0.2211   -0.6248    0.0000 O   0  0  0  0  0  0  0  0  0  0  0  0
   -0.4934   -1.0374    0.0000 C   0  0  0  0  0  0  0  0  0  0  0  0
   -1.2080   -0.6248    0.0000 C   0  0  0  0  0  0  0  0  0  0  0  0
   -1.9225   -1.0374    0.0000 C   0  0  0  0  0  0  0  0  0  0  0  0
   -1.9225   -1.8624    0.0000 O   0  0  0  0  0  0  0  0  0  0  0  0
   -3.3515   -1.0374    0.0000 O   0  0  0  0  0  0  0  0  0  0  0  0
   -2.6370    0.2002    0.0000 C   0  0  0  0  0  0  0  0  0  0  0  0
   -3.3515    0.6127    0.0000 O   0  0  0  0  0  0  0  0  0  0  0  0
   -1.2080    0.2002    0.0000 N   0  0  0  0  0  0  0  0  0  0  0  0
   -0.4934    0.6127    0.0000 C   0  0  0  0  0  0  0  0  0  0  0  0
    0.2211    0.2002    0.0000 C   0  0  0  0  0  0  0  0  0  0  0  0
   -1.9225    0.6127    0.0000 C   0  0  0  0  0  0  0  0  0  0  0  0
    0.9356    0.6127    0.0000 C   0  0  0  0  0  0  0  0  0  0  0  0
    1.6501    0.2002    0.0000 C   0  0  0  0  0  0  0  0  0  0  0  0
    2.3647    0.6127    0.0000 C   0  0  0  0  0  0  0  0  0  0  0  0
    3.0791    0.2002    0.0000 C   0  0  0  0  0  0  0  0  0  0  0  0
    3.7937    0.6127    0.0000 C   0  0  0  0  0  0  0  0  0  0  0  0
    5.2228    0.6127    0.0000 C   0  0  0  0  0  0  0  0  0  0  0  0
    4.5082    0.2002    0.0000 C   0  0  0  0  0  0  0  0  0  0  0  0
   -2.6370   -0.6248    0.0000 C   0  0  0  0  0  0  0  0  0  0  0  0
  1  2  1  0
  3  2  1  6
  3  4  1  0
  3  9  1  0
  4  5  1  1
  4 20  1  0
  7  8  1  1
  7 12  1  0
  7 20  1  0
  9 10  1  0
  9 12  1  0
 10 11  1  0
 11 13  1  0
 13 14  1  0
 14 15  1  0
 15 16  1  0
 16 17  1  0
 17 19  1  0
 18 19  1  0
 20  6  1  6
M  END
>  <DRUGBANK_ID>  (1) 
DB08283

>  <COMMON_NAME>  (1) 
(2R,3R,4R,5S)-2-(HYDROXYMETHYL)-1-NONYLPIPERIDINE-3,4,5-TRIOL

$$$$
