167
     RDKit          2D

  9  8  0  0  1  0  0  0  0  0999 V2000
    5.2224   -0.0784    0.0000 O   0  0  0  0  0  0  0  0  0  0  0  0
    4.5080    1.1592    0.0000 O   0  0  0  0  0  0  0  0  0  0  0  0
    3.7935   -0.9034    0.0000 N   0  0  0  0  0  0  0  0  0  0  0  0
    3.0791    0.3341    0.0000 C   0  0  0  0  0  0  0  0  0  0  0  0
    3.7935   -0.0784    0.0000 C   0  0  0  0  0  0  0  0  0  0  0  0
    2.3645   -0.0784    0.0000 C   0  0  0  0  0  0  0  0  0  0  0  0
    3.0791    1.1592    0.0000 C   0  0  0  0  0  0  0  0  0  0  0  0
    1.6500    0.3341    0.0000 C   0  0  0  0  0  0  0  0  0  0  0  0
    4.5080    0.3341    0.0000 C   0  0  0  0  0  0  0  0  0  0  0  0
  1  9  1  0
  2  9  2  0
  4  5  1  0
  4  6  1  0
  4  7  1  6
  5  3  1  1
  5  9  1  0
  6  8  1  0
M  END
>  <DRUGBANK_ID>  (1) 
DB00167

>  <SECONDARY_ACCESSION_NUMBERS>  (1) 
NUTR00031

>  <COMMON_NAME>  (1) 
Isoleucine

>  <CAS_NUMBER>  (1) 
73-32-5

>  <UNII>  (1) 
04Y7590D77

>  <SYNONYMS>  (1) 
(2S,3S)-2-Amino-3-methylpentanoic acid; 2-Amino-3-methylvaleric acid; alpha-amino-beta-methylvaleric acid; Ile; Isoleucina; Isoleucine; Isoleucinum; L-Isoleucine; α-amino-β-methylvaleric acid

$$$$
