
     RDKit          2D

 20 20  0  0  0  0  0  0  0  0999 V2000
    1.2932   -0.0166    0.0000 S   0  0  0  0  0  0  0  0  0  0  0  0
    2.0077    0.3958    0.0000 O   0  0  0  0  0  0  0  0  0  0  0  0
    1.2933   -0.8417    0.0000 O   0  0  0  0  0  0  0  0  0  0  0  0
   -1.5648   -0.0166    0.0000 O   0  0  0  0  0  0  0  0  0  0  0  0
   -0.8502    1.2208    0.0000 O   0  0  0  0  0  0  0  0  0  0  0  0
   -0.1357   -3.3168    0.0000 O   0  0  0  0  0  0  0  0  0  0  0  0
    1.2932    1.6334    0.0000 N   0  0  0  0  0  0  0  0  0  0  0  0
   -0.1357   -0.8417    0.0000 N   0  0  0  0  0  0  0  0  0  0  0  0
    1.9606    2.1184    0.0000 N   0  0  0  0  0  0  0  0  0  0  0  0
    1.7057    2.9030    0.0000 N   0  0  0  0  0  0  0  0  0  0  0  0
    0.5787    0.3958    0.0000 C   0  0  0  0  0  0  0  0  0  0  0  0
   -0.1357   -0.0166    0.0000 C   0  0  0  0  0  0  0  0  0  0  0  0
    1.2932    0.8083    0.0000 C   0  0  0  0  0  0  0  0  0  0  0  0
    0.1661    1.1103    0.0000 C   0  0  0  0  0  0  0  0  0  0  0  0
   -0.8502    0.3958    0.0000 C   0  0  0  0  0  0  0  0  0  0  0  0
    0.6257    2.1184    0.0000 C   0  0  0  0  0  0  0  0  0  0  0  0
   -0.8502   -1.2542    0.0000 C   0  0  0  0  0  0  0  0  0  0  0  0
    0.8806    2.9030    0.0000 C   0  0  0  0  0  0  0  0  0  0  0  0
   -0.8502   -2.0793    0.0000 C   0  0  0  0  0  0  0  0  0  0  0  0
   -0.1357   -2.4918    0.0000 C   0  0  0  0  0  0  0  0  0  0  0  0
  1  2  1  0
  1  3  2  0
  1 11  1  0
  4 15  1  0
  5 15  2  0
  6 20  2  0
  7  9  1  0
  7 13  1  0
  7 16  1  0
  8 17  1  0
  9 10  2  0
 10 18  1  0
 11 12  1  0
 11 13  1  0
 11 14  1  1
 12  8  1  1
 12 15  1  0
 16 18  2  0
 17 19  2  0
 19 20  1  0
M  CHG  1   2  -1
M  END
>  <DRUGBANK_ID>  (1) 
DB03834

>  <SECONDARY_ACCESSION_NUMBERS>  (1) 
EXPT03014

>  <COMMON_NAME>  (1) 
(3S)-3-(dioxidosulfanyl)-N-[(1Z)-3-oxoprop-1-en-1-yl]-4-(1H-1,2,3-triazol-1-yl)-D-valine

>  <SYNONYMS>  (1) 
Tazobactam Intermediate

$$$$
