
     RDKit          2D

  3  2  0  0  0  0  0  0  0  0999 V2000
    0.0000    0.0000    0.0000 Zr  0  0  0  0  0  2  0  0  0  0  0  0
   -0.8250    0.0000    0.0000 O   0  0  0  0  0  0  0  0  0  0  0  0
    0.8250    0.0000    0.0000 Cl  0  0  0  0  0  0  0  0  0  0  0  0
  1  2  1  0
  1  3  1  0
M  END
>  <DRUGBANK_ID>  (1) 
DB15479

>  <COMMON_NAME>  (1) 
Zirconium chloride hydroxide

>  <CAS_NUMBER>  (1) 
10119-31-0

>  <UNII>  (1) 
R7EF6G80G1

>  <SYNONYMS>  (1) 
Zirconium chlorohydrate; Zirconium hydroxychloride; Zirconyl hydroxychloride

$$$$
