
     RDKit          2D

 23 22  0  0  1  0  0  0  0  0999 V2000
    5.3988    0.3152    0.0000 C   0  0  0  0  0  0  0  0  0  0  0  0
    6.7859    0.6584    0.0000 C   0  0  0  0  0  0  0  0  0  0  0  0
    8.1731    1.0016    0.0000 C   0  0  0  0  0  0  0  0  0  0  0  0
    4.2099   -0.8289    0.0000 C   0  0  0  0  0  0  0  0  0  0  0  0
    3.6154   -1.4009    0.0000 C   0  0  0  0  0  0  0  0  0  0  0  0
    5.0025   -1.0577    0.0000 C   0  0  0  0  0  0  0  0  0  0  0  0
    2.8228   -1.1721    0.0000 C   0  0  0  0  0  0  0  0  0  0  0  0
    6.3896   -0.7145    0.0000 C   0  0  0  0  0  0  0  0  0  0  0  0
    7.7767   -0.3713    0.0000 C   0  0  0  0  0  0  0  0  0  0  0  0
    9.1638   -0.0280    0.0000 C   0  0  0  0  0  0  0  0  0  0  0  0
    0.8412   -2.0874    0.0000 C   0  0  0  0  0  0  0  0  0  0  0  0
    1.2375   -0.7145    0.0000 C   0  0  0  0  0  0  0  0  0  0  0  0
    5.5970   -0.4857    0.0000 C   0  0  0  0  0  0  0  0  0  0  0  0
    6.9841   -0.1424    0.0000 C   0  0  0  0  0  0  0  0  0  0  0  0
    8.3712    0.2008    0.0000 C   0  0  0  0  0  0  0  0  0  0  0  0
    1.4357   -1.5153    0.0000 C   0  0  0  0  0  0  0  0  0  0  0  0
    2.2283   -1.7441    0.0000 C   0  0  0  0  0  0  0  0  0  0  0  0
    9.7583    0.5440    0.0000 C   0  0  0  0  0  0  0  0  0  0  0  0
    0.0485   -1.8585    0.0000 O   0  0  0  0  0  0  0  0  0  0  0  0
    1.8320   -0.1424    0.0000 O   0  0  0  0  0  0  0  0  0  0  0  0
    2.4265   -2.5450    0.0000 O   0  0  0  0  0  0  0  0  0  0  0  0
    9.5602    1.3449    0.0000 O   0  0  0  0  0  0  0  0  0  0  0  0
   10.5510    0.3152    0.0000 O   0  0  0  0  0  0  0  0  0  0  0  0
  5  4  1  0
  6  4  1  0
  7  5  1  0
 13  1  1  1
 13  6  1  0
 13  8  1  0
 14  2  1  0
 14  8  1  0
 14  9  2  0
 15  3  1  0
 15  9  1  0
 15 10  2  3
 16 11  1  6
 16 12  1  0
 17  7  1  0
 17 16  1  0
 17 21  1  1
 18 10  1  0
 19 11  2  0
 20 12  1  0
 22 18  2  0
 23 18  1  0
M  END
>  <DRUGBANK_ID>  (1) 
DB07740

>  <COMMON_NAME>  (1) 
(7R,12R,13R)-13-formyl-12,14-dihydroxy-3,5,7-trimethyltetradeca-2,4-dienoic acid

$$$$
