
     RDKit          2D

  5  4  0  0  0  0  0  0  0  0999 V2000
    2.3834   -0.0446    0.0000 Mo  0  0  0  0  0  6  0  0  0  0  0  0
    2.3834    0.7804    0.0000 S   0  0  0  0  0  0  0  0  0  0  0  0
    3.2084   -0.0446    0.0000 S   0  0  0  0  0  0  0  0  0  0  0  0
    1.5584   -0.0446    0.0000 S   0  0  0  0  0  0  0  0  0  0  0  0
    2.3834   -0.8696    0.0000 S   0  0  0  0  0  0  0  0  0  0  0  0
  2  1  1  0
  3  1  2  0
  4  1  2  0
  5  1  1  0
M  CHG  2   2  -1   5  -1
M  END
>  <DRUGBANK_ID>  (1) 
DB05088

>  <COMMON_NAME>  (1) 
Tetrathiomolybdate

>  <CAS_NUMBER>  (1) 
16330-92-0

>  <UNII>  (1) 
91U3TGV99T

>  <SYNONYMS>  (1) 
Thiomolybdate; Tiomolibdate ion

$$$$
