
     RDKit          2D

 27 32  0  0  1  0  0  0  0  0999 V2000
    8.0374    1.9727    0.0000 C   0  0  0  0  0  0  0  0  0  0  0  0
    7.1609    1.2447    0.0000 C   0  0  0  0  0  0  0  0  0  0  0  0
    6.3359    1.2447    0.0000 C   0  0  0  0  0  0  0  0  0  0  0  0
   10.2197    2.0148    0.0000 C   0  0  0  0  0  0  0  0  0  0  0  0
    9.4351    2.2698    0.0000 C   0  0  0  0  0  0  0  0  0  0  0  0
   11.1758    0.9529    0.0000 C   0  0  0  0  0  0  0  0  0  0  0  0
    9.9497   -0.1511    0.0000 C   0  0  0  0  0  0  0  0  0  0  0  0
   11.8903   -1.0735    0.0000 C   0  0  0  0  0  0  0  0  0  0  0  0
    5.0302   -0.4617    0.0000 C   0  0  0  0  0  0  0  0  0  0  0  0
   10.3912    1.2079    0.0000 C   0  0  0  0  0  0  0  0  0  0  0  0
    7.5734    0.5303    0.0000 C   0  0  0  0  0  0  0  0  0  0  0  0
    9.7781    0.6558    0.0000 C   0  0  0  0  0  0  0  0  0  0  0  0
    5.9234    0.5303    0.0000 C   0  0  0  0  0  0  0  0  0  0  0  0
   11.3474    0.1459    0.0000 C   0  0  0  0  0  0  0  0  0  0  0  0
   10.7343   -0.4061    0.0000 C   0  0  0  0  0  0  0  0  0  0  0  0
    7.1609   -0.1842    0.0000 C   0  0  0  0  0  0  0  0  0  0  0  0
    8.9935    0.9108    0.0000 C   0  0  0  0  0  0  0  0  0  0  0  0
    8.3804    0.3587    0.0000 C   0  0  0  0  0  0  0  0  0  0  0  0
    6.3359   -0.1842    0.0000 C   0  0  0  0  0  0  0  0  0  0  0  0
    7.7130   -0.7973    0.0000 C   0  0  0  0  0  0  0  0  0  0  0  0
    8.8220    1.7177    0.0000 N   0  0  0  0  0  0  0  0  0  0  0  0
    7.5415   -1.6043    0.0000 O   0  0  0  0  0  0  0  0  0  0  0  0
    5.1165    0.3587    0.0000 O   0  0  0  0  0  0  0  0  0  0  0  0
   12.0618   -0.2666    0.0000 O   0  0  0  0  0  0  0  0  0  0  0  0
   11.0698   -1.1598    0.0000 O   0  0  0  0  0  0  0  0  0  0  0  0
    5.7839   -0.7973    0.0000 O   0  0  0  0  0  0  0  0  0  0  0  0
    8.4667   -0.4617    0.0000 O   0  0  0  0  0  0  0  0  0  0  0  0
  3  2  2  0
  5  4  1  0
 10  4  1  0
 10  6  2  0
 11  2  1  0
 12  7  2  0
 12 10  1  0
 13  3  1  0
 14  6  1  0
 15  7  1  0
 15 14  2  0
 16 11  2  0
 17 12  1  0
 17 18  1  0
 18 11  1  0
 19 13  2  0
 19 16  1  0
 20 16  1  0
 21  1  1  0
 21  5  1  0
 17 21  1  1
 22 20  2  0
 23  9  1  0
 23 13  1  0
 24  8  1  0
 24 14  1  0
 25  8  1  0
 25 15  1  0
 26  9  1  0
 26 19  1  0
 18 27  1  6
 27 20  1  0
M  END
>  <DRUGBANK_ID>  (1) 
DB11562

>  <COMMON_NAME>  (1) 
Bicuculline

>  <CAS_NUMBER>  (1) 
485-49-4

>  <UNII>  (1) 
Y37615DVKC

>  <SYNONYMS>  (1) 
Bicculine; Bicucullin; d-Bicuculline

$$$$
