
     RDKit          2D

 36 40  0  0  0  0  0  0  0  0999 V2000
    3.3680   -1.3827    0.0000 S   0  0  0  0  0  0  0  0  0  0  0  0
    0.8929    0.0462    0.0000 O   0  0  0  0  0  0  0  0  0  0  0  0
    2.1305   -3.5262    0.0000 O   0  0  0  0  0  0  0  0  0  0  0  0
   -3.1461    0.5396    0.0000 O   0  0  0  0  0  0  0  0  0  0  0  0
   -1.1695    2.1896    0.0000 N   0  0  0  0  0  0  0  0  0  0  0  0
    2.1305    0.7607    0.0000 N   0  0  0  0  0  0  0  0  0  0  0  0
   -1.6510    2.8535    0.0000 N   0  0  0  0  0  0  0  0  0  0  0  0
   -1.6510    1.5257    0.0000 N   0  0  0  0  0  0  0  0  0  0  0  0
   -3.1461    3.0146    0.0000 N   0  0  0  0  0  0  0  0  0  0  0  0
   -3.8605    1.7771    0.0000 N   0  0  0  0  0  0  0  0  0  0  0  0
   -4.5751    3.0146    0.0000 N   0  0  0  0  0  0  0  0  0  0  0  0
    3.3680    0.0462    0.0000 C   0  0  0  0  0  0  0  0  0  0  0  0
    2.5430    0.0462    0.0000 C   0  0  0  0  0  0  0  0  0  0  0  0
   -0.3445    2.1896    0.0000 C   0  0  0  0  0  0  0  0  0  0  0  0
    0.8929    1.4752    0.0000 C   0  0  0  0  0  0  0  0  0  0  0  0
    0.0679    1.4752    0.0000 C   0  0  0  0  0  0  0  0  0  0  0  0
    3.7805   -0.6682    0.0000 C   0  0  0  0  0  0  0  0  0  0  0  0
    1.3055    0.7607    0.0000 C   0  0  0  0  0  0  0  0  0  0  0  0
    0.0679    2.9041    0.0000 C   0  0  0  0  0  0  0  0  0  0  0  0
   -2.4316    2.6021    0.0000 C   0  0  0  0  0  0  0  0  0  0  0  0
   -2.4316    1.7771    0.0000 C   0  0  0  0  0  0  0  0  0  0  0  0
    1.3055    2.1896    0.0000 C   0  0  0  0  0  0  0  0  0  0  0  0
    3.7805    0.7607    0.0000 C   0  0  0  0  0  0  0  0  0  0  0  0
    0.8929    2.9041    0.0000 C   0  0  0  0  0  0  0  0  0  0  0  0
    3.7805   -2.0972    0.0000 C   0  0  0  0  0  0  0  0  0  0  0  0
    4.6055   -0.6682    0.0000 C   0  0  0  0  0  0  0  0  0  0  0  0
    3.3680   -2.8117    0.0000 C   0  0  0  0  0  0  0  0  0  0  0  0
    4.6055    0.7607    0.0000 C   0  0  0  0  0  0  0  0  0  0  0  0
    5.0180    0.0462    0.0000 C   0  0  0  0  0  0  0  0  0  0  0  0
   -3.1461    1.3646    0.0000 C   0  0  0  0  0  0  0  0  0  0  0  0
    4.6055   -2.0972    0.0000 C   0  0  0  0  0  0  0  0  0  0  0  0
    3.7805   -3.5262    0.0000 C   0  0  0  0  0  0  0  0  0  0  0  0
    2.5430   -2.8117    0.0000 C   0  0  0  0  0  0  0  0  0  0  0  0
    5.0180   -2.8117    0.0000 C   0  0  0  0  0  0  0  0  0  0  0  0
    4.6055   -3.5262    0.0000 C   0  0  0  0  0  0  0  0  0  0  0  0
   -3.8605    2.6021    0.0000 C   0  0  0  0  0  0  0  0  0  0  0  0
  1 17  1  0
  1 25  1  0
  2 18  2  0
  3 33  1  0
  4 30  2  0
  5  7  1  0
  5  8  1  0
  5 14  1  0
  6 13  1  0
  6 18  1  0
  7 20  1  0
  8 21  2  0
  9 20  2  0
  9 36  1  0
 10 30  1  0
 10 36  2  0
 11 36  1  0
 12 13  1  0
 12 17  1  0
 12 23  2  0
 14 16  2  0
 14 19  1  0
 15 16  1  0
 15 18  1  0
 15 22  2  0
 17 26  2  0
 19 24  2  0
 20 21  1  0
 21 30  1  0
 22 24  1  0
 23 28  1  0
 25 27  2  0
 25 31  1  0
 26 29  1  0
 27 32  1  0
 27 33  1  0
 28 29  2  0
 31 34  2  0
 32 35  2  0
 34 35  1  0
M  END
>  <DRUGBANK_ID>  (1) 
DB03231

>  <SECONDARY_ACCESSION_NUMBERS>  (1) 
EXPT02670

>  <COMMON_NAME>  (1) 
3-(5-Amino-7-oxo-3,7-dihydro-2H-[1,2,3]triazolo[4,5-d]pyrimidin-2-yl)-N-(2-{[2-(hydroxymethyl)phenyl]sulfanyl}benzyl)benzamide

$$$$
