
     RDKit          2D

 10  9  0  0  0  0  0  0  0  0999 V2000
    2.5006   -0.2062    0.0000 O   0  0  0  0  0  0  0  0  0  0  0  0
    0.3572    0.2062    0.0000 C   0  0  0  0  0  0  0  0  0  0  0  0
   -0.3572   -0.2063    0.0000 C   0  0  0  0  0  0  0  0  0  0  0  0
   -1.0717    0.2062    0.0000 C   0  0  0  0  0  0  0  0  0  0  0  0
   -1.7862   -0.2063    0.0000 C   0  0  0  0  0  0  0  0  0  0  0  0
   -2.5006    0.2062    0.0000 N   0  0  0  0  0  0  0  0  0  0  0  0
    1.7862    0.2063    0.0000 C   0  0  0  0  0  0  0  0  0  0  0  0
    1.7862    1.0313    0.0000 O   0  0  0  0  0  0  0  0  0  0  0  0
    1.0717   -0.2063    0.0000 C   0  0  0  0  0  0  0  0  0  0  0  0
    1.0717   -1.0313    0.0000 N   0  0  0  0  0  0  0  0  0  0  0  0
  1  7  1  0
  2  9  1  0
  3  2  1  0
  4  3  1  0
  5  4  1  0
  6  5  1  0
  7  8  2  0
  9  7  1  0
  9 10  1  6
M  END
>  <DRUGBANK_ID>  (1) 
DB03252

>  <SECONDARY_ACCESSION_NUMBERS>  (1) 
EXPT01219

>  <COMMON_NAME>  (1) 
D-Lysine

>  <CAS_NUMBER>  (1) 
923-27-3

>  <UNII>  (1) 
3HQ6U6424Q

>  <SYNONYMS>  (1) 
(R)-2,6-diaminohexanoic acid; D-2,6-Diaminohexanoic acid; D-Lysin

$$$$
