
     RDKit          2D

 22 21  0  0  1  0  0  0  0  0999 V2000
    3.3000    1.4289    0.0000 C   0  0  0  0  0  0  0  0  0  0  0  0
    2.0625    2.1434    0.0000 C   0  0  0  0  0  0  0  0  0  0  0  0
   -2.8875   -0.7145    0.0000 C   0  0  0  0  0  0  0  0  0  0  0  0
   -0.4125    0.7145    0.0000 C   0  0  0  0  0  0  0  0  0  0  0  0
   -4.9500   -2.0329    0.0000 C   0  0  0  0  0  0  0  0  0  0  0  0
   -4.9500   -3.6829    0.0000 C   0  0  0  0  0  0  0  0  0  0  0  0
   -6.1875   -3.5724    0.0000 C   0  0  0  0  0  0  0  0  0  0  0  0
   -1.2375   -0.7145    0.0000 C   0  0  0  0  0  0  0  0  0  0  0  0
   -3.7125   -2.1434    0.0000 C   0  0  0  0  0  0  0  0  0  0  0  0
   -1.6500   -1.4289    0.0000 C   0  0  0  0  0  0  0  0  0  0  0  0
   -0.4125   -0.7145    0.0000 C   0  0  0  0  0  0  0  0  0  0  0  0
   -2.8875   -2.1434    0.0000 C   0  0  0  0  0  0  0  0  0  0  0  0
   -4.1250   -2.8579    0.0000 C   0  0  0  0  0  0  0  0  0  0  0  0
    0.8250    0.0000    0.0000 C   0  0  0  0  0  0  0  0  0  0  0  0
    2.4750    1.4289    0.0000 C   0  0  0  0  0  0  0  0  0  0  0  0
   -2.4750   -1.4289    0.0000 C   0  0  0  0  0  0  0  0  0  0  0  0
    0.0000    0.0000    0.0000 C   0  0  0  0  0  0  0  0  0  0  0  0
    1.2375    0.7145    0.0000 C   0  0  0  0  0  0  0  0  0  0  0  0
   -4.9500   -2.8579    0.0000 C   0  0  0  0  0  0  0  0  0  0  0  0
    0.8250    1.4289    0.0000 O   0  0  0  0  0  0  0  0  0  0  0  0
   -5.7750   -2.8579    0.0000 O   0  0  0  0  0  0  0  0  0  0  0  0
    2.0625    0.7145    0.0000 O   0  0  0  0  0  0  0  0  0  0  0  0
 10  8  1  0
 11  8  2  0
 12  9  1  0
 13  9  1  0
 15  1  1  0
 15  2  1  0
 16  3  1  6
 16 10  1  0
 16 12  1  0
 17  4  1  0
 17 11  1  0
 17 14  2  0
 18 14  1  0
 19  5  1  0
 19  6  1  0
 19 13  1  0
 20 18  2  0
 21  7  1  0
 21 19  1  0
 22 15  1  0
 22 18  1  0
M  END
>  <DRUGBANK_ID>  (1) 
DB11495

>  <COMMON_NAME>  (1) 
(S)-methoprene

>  <CAS_NUMBER>  (1) 
65733-16-6

>  <UNII>  (1) 
4YIQ0A94UR

>  <SYNONYMS>  (1) 
(7S)-Methoprene; isopropyl (2E,4E,7S)-11-methoxy-3,7,11-trimethyldodeca-2,4-dienoate; S-Methoprene

$$$$
