
     RDKit          2D

 42 46  0  0  0  0  0  0  0  0999 V2000
   -1.1624    3.4358    0.0000 C   0  0  0  0  0  0  0  0  0  0  0  0
   -1.2486    2.6153    0.0000 C   0  0  0  0  0  0  0  0  0  0  0  0
   -0.5812    2.1304    0.0000 C   0  0  0  0  0  0  0  0  0  0  0  0
   -0.6674    1.3099    0.0000 C   0  0  0  0  0  0  0  0  0  0  0  0
    0.0000    0.8250    0.0000 C   0  0  0  0  0  0  0  0  0  0  0  0
    0.7846    1.0799    0.0000 N   0  0  0  0  0  0  0  0  0  0  0  0
    1.2695    0.4125    0.0000 C   0  0  0  0  0  0  0  0  0  0  0  0
    1.7545    1.0799    0.0000 C   0  0  0  0  0  0  0  0  0  0  0  0
    2.5391    0.8250    0.0000 C   0  0  0  0  0  0  0  0  0  0  0  0
    2.5391    0.0000    0.0000 C   0  0  0  0  0  0  0  0  0  0  0  0
    1.7545   -0.2549    0.0000 C   0  0  0  0  0  0  0  0  0  0  0  0
    0.7846   -0.2549    0.0000 C   0  0  0  0  0  0  0  0  0  0  0  0
    1.0396   -1.0396    0.0000 O   0  0  0  0  0  0  0  0  0  0  0  0
   -0.0000    0.0000    0.0000 N   0  0  0  0  0  0  0  0  0  0  0  0
   -0.6674   -0.4849    0.0000 C   0  0  0  0  0  0  0  0  0  0  0  0
   -0.5812   -1.3054    0.0000 C   0  0  0  0  0  0  0  0  0  0  0  0
    0.1725   -1.6410    0.0000 C   0  0  0  0  0  0  0  0  0  0  0  0
    0.2587   -2.4614    0.0000 C   0  0  0  0  0  0  0  0  0  0  0  0
   -0.4087   -2.9464    0.0000 C   0  0  0  0  0  0  0  0  0  0  0  0
   -1.1624   -2.6108    0.0000 C   0  0  0  0  0  0  0  0  0  0  0  0
   -1.2486   -1.7903    0.0000 C   0  0  0  0  0  0  0  0  0  0  0  0
   -1.8298   -3.0957    0.0000 C   0  0  0  0  0  0  0  0  0  0  0  0
   -2.5835   -2.7602    0.0000 O   0  0  0  0  0  0  0  0  0  0  0  0
   -3.2510   -3.2451    0.0000 C   0  0  0  0  0  0  0  0  0  0  0  0
   -4.0046   -2.9095    0.0000 C   0  0  0  0  0  0  0  0  0  0  0  0
   -0.3225   -3.7668    0.0000 C   0  0  0  0  0  0  0  0  0  0  0  0
   -0.9899   -4.2518    0.0000 C   0  0  0  0  0  0  0  0  0  0  0  0
   -0.9037   -5.0722    0.0000 C   0  0  0  0  0  0  0  0  0  0  0  0
   -0.1500   -5.4078    0.0000 C   0  0  0  0  0  0  0  0  0  0  0  0
    0.5174   -4.9229    0.0000 C   0  0  0  0  0  0  0  0  0  0  0  0
    0.4312   -4.1024    0.0000 C   0  0  0  0  0  0  0  0  0  0  0  0
    1.0986   -3.6175    0.0000 S   0  0  0  0  0  0  0  0  0  0  0  0
    1.7661   -3.1326    0.0000 O   0  0  0  0  0  0  0  0  0  0  0  0
    0.6137   -2.9500    0.0000 O   0  0  0  0  0  0  0  0  0  0  0  0
    1.5835   -4.2849    0.0000 N   0  0  0  0  0  0  0  0  0  0  0  0
    2.4040   -4.1987    0.0000 C   0  0  0  0  0  0  0  0  0  0  0  0
    2.9561   -4.8118    0.0000 C   0  0  0  0  0  0  0  0  0  0  0  0
    3.7097   -4.4762    0.0000 C   0  0  0  0  0  0  0  0  0  0  0  0
    3.6235   -3.6557    0.0000 O   0  0  0  0  0  0  0  0  0  0  0  0
    2.8165   -3.4842    0.0000 N   0  0  0  0  0  0  0  0  0  0  0  0
    4.4242   -4.8887    0.0000 C   0  0  0  0  0  0  0  0  0  0  0  0
    2.7845   -5.6187    0.0000 C   0  0  0  0  0  0  0  0  0  0  0  0
  1  2  1  0
  2  3  1  0
  3  4  1  0
  4  5  1  0
  5  6  2  0
  5 14  1  0
  6  7  1  0
  7  8  1  0
  7 11  1  0
  7 12  1  0
  8  9  1  0
  9 10  1  0
 10 11  1  0
 12 13  2  0
 12 14  1  0
 14 15  1  0
 15 16  1  0
 16 17  2  0
 16 21  1  0
 17 18  1  0
 18 19  2  0
 19 20  1  0
 19 26  1  0
 20 21  2  0
 20 22  1  0
 22 23  1  0
 23 24  1  0
 24 25  1  0
 26 27  2  0
 26 31  1  0
 27 28  1  0
 28 29  2  0
 29 30  1  0
 30 31  2  0
 31 32  1  0
 32 33  2  0
 32 34  2  0
 32 35  1  0
 35 36  1  0
 36 37  1  0
 36 40  2  0
 37 38  2  0
 37 42  1  0
 38 39  1  0
 38 41  1  0
 39 40  1  0
M  END
>  <DRUGBANK_ID>  (1) 
DB12548

>  <SECONDARY_ACCESSION_NUMBERS>  (1) 
DB05206

>  <COMMON_NAME>  (1) 
Sparsentan

>  <CAS_NUMBER>  (1) 
254740-64-2

>  <UNII>  (1) 
9242RO5URM

>  <SYNONYMS>  (1) 
Sparsentan

$$$$
