
     RDKit          2D

 19 20  0  0  0  0  0  0  0  0999 V2000
    2.5387    2.3320    0.0000 Br  0  0  0  0  0  0  0  0  0  0  0  0
   -0.8443   -0.3930    0.0000 O   0  0  0  0  0  0  0  0  0  0  0  0
    1.0947   -2.0002    0.0000 O   0  0  0  0  0  0  0  0  0  0  0  0
   -1.7527   -2.3320    0.0000 O   0  0  0  0  0  0  0  0  0  0  0  0
    2.9114    0.1891    0.0000 O   0  0  0  0  0  0  0  0  0  0  0  0
   -2.9114   -1.2199    0.0000 O   0  0  0  0  0  0  0  0  0  0  0  0
    0.5998   -0.6784    0.0000 N   0  0  0  0  0  0  0  0  0  0  0  0
    2.0030   -0.9287    0.0000 N   0  0  0  0  0  0  0  0  0  0  0  0
   -0.1863   -0.9287    0.0000 C   0  0  0  0  0  0  0  0  0  0  0  0
    1.2169   -1.1733    0.0000 C   0  0  0  0  0  0  0  0  0  0  0  0
   -1.5081   -0.8880    0.0000 C   0  0  0  0  0  0  0  0  0  0  0  0
    0.7628    0.1484    0.0000 C   0  0  0  0  0  0  0  0  0  0  0  0
   -1.2577   -1.6741    0.0000 C   0  0  0  0  0  0  0  0  0  0  0  0
   -0.4308   -1.6741    0.0000 C   0  0  0  0  0  0  0  0  0  0  0  0
    1.5488    0.4337    0.0000 C   0  0  0  0  0  0  0  0  0  0  0  0
    2.1661   -0.1018    0.0000 C   0  0  0  0  0  0  0  0  0  0  0  0
   -2.2942   -0.6376    0.0000 C   0  0  0  0  0  0  0  0  0  0  0  0
    1.6712    1.2606    0.0000 C   0  0  0  0  0  0  0  0  0  0  0  0
    2.4572    1.5109    0.0000 C   0  0  0  0  0  0  0  0  0  0  0  0
  1 19  1  0
  2  9  1  0
  2 11  1  0
  3 10  2  0
  5 16  2  0
  6 17  1  0
  7 10  1  0
  7 12  1  0
  8 10  1  0
  8 16  1  0
  9  7  1  1
  9 14  1  0
 11 13  1  0
 11 17  1  1
 12 15  2  0
 13  4  1  6
 13 14  1  0
 15 16  1  0
 15 18  1  0
 18 19  2  0
M  END
>  <DRUGBANK_ID>  (1) 
DB03312

>  <SECONDARY_ACCESSION_NUMBERS>  (1) 
EXPT00783; DB05041

>  <COMMON_NAME>  (1) 
Brivudine

>  <CAS_NUMBER>  (1) 
69304-47-8

>  <UNII>  (1) 
2M3055079H

>  <SYNONYMS>  (1) 
(E)-5-(2-Bromovinyl)-deoxyuridine; Brivudina; Brivudine; Brivudinum; BVdU

$$$$
