1CM
     RDKit          2D

 18 19  0  0  0  0  0  0  0  0999 V2000
    0.3902   -0.8377    0.0000 O   0  0  0  0  0  0  0  0  0  0  0  0
    0.3902   -0.0127    0.0000 C   0  0  0  0  0  0  0  0  0  0  0  0
   -0.3242    0.3998    0.0000 C   0  0  0  0  0  0  0  0  0  0  0  0
   -0.3242    1.2248    0.0000 C   0  0  0  0  0  0  0  0  0  0  0  0
    0.3902    1.6373    0.0000 C   0  0  0  0  0  0  0  0  0  0  0  0
   -1.7532    0.3998    0.0000 C   0  0  0  0  0  0  0  0  0  0  0  0
   -1.0387   -0.0127    0.0000 C   0  0  0  0  0  0  0  0  0  0  0  0
   -1.7532   -1.2502    0.0000 C   0  0  0  0  0  0  0  0  0  0  0  0
   -2.4676   -0.8377    0.0000 C   0  0  0  0  0  0  0  0  0  0  0  0
    1.1047    0.3998    0.0000 N   0  0  0  0  0  0  0  0  0  0  0  0
    1.8192   -0.0127    0.0000 C   0  0  0  0  0  0  0  0  0  0  0  0
    2.5337    0.3998    0.0000 C   0  0  0  0  0  0  0  0  0  0  0  0
   -2.4676   -0.0127    0.0000 C   0  0  0  0  0  0  0  0  0  0  0  0
    3.2481   -0.0127    0.0000 C   0  0  0  0  0  0  0  0  0  0  0  0
    3.2481   -0.8377    0.0000 N   0  0  0  0  0  0  0  0  0  0  0  0
    2.5337   -1.2502    0.0000 C   0  0  0  0  0  0  0  0  0  0  0  0
   -1.0387   -0.8377    0.0000 C   0  0  0  0  0  0  0  0  0  0  0  0
    1.8192   -0.8377    0.0000 C   0  0  0  0  0  0  0  0  0  0  0  0
  1  2  2  0
  2  3  1  0
  2 10  1  0
  3  4  1  1
  3  7  1  0
  4  5  1  0
  6  7  2  0
  6 13  1  0
  7 17  1  0
  8  9  1  0
  8 17  2  0
  9 13  2  0
 10 11  1  0
 11 12  2  0
 11 18  1  0
 12 14  1  0
 14 15  2  0
 15 16  1  0
 16 18  2  0
M  END
>  <DRUGBANK_ID>  (1) 
DB06890

>  <COMMON_NAME>  (1) 
(2R)-2-PHENYL-N-PYRIDIN-4-YLBUTANAMIDE

$$$$
