
     RDKit          2D

 13 13  0  0  0  0  0  0  0  0999 V2000
   -0.1595   -0.1755    0.0000 C   0  0  0  0  0  0  0  0  0  0  0  0
    0.6654   -0.1755    0.0000 C   0  0  0  0  0  0  0  0  0  0  0  0
   -0.4753   -0.9377    0.0000 C   0  0  0  0  0  0  0  0  0  0  0  0
   -0.4753    0.5866    0.0000 N   0  0  0  0  0  0  0  0  0  0  0  0
    1.0779    0.5389    0.0000 N   0  0  0  0  0  0  0  0  0  0  0  0
   -1.2375   -1.2534    0.0000 C   0  0  0  0  0  0  0  0  0  0  0  0
   -1.2375    0.9023    0.0000 C   0  0  0  0  0  0  0  0  0  0  0  0
    1.9029    0.5389    0.0000 C   0  0  0  0  0  0  0  0  0  0  0  0
   -1.9997   -0.9377    0.0000 C   0  0  0  0  0  0  0  0  0  0  0  0
   -1.9997    0.5866    0.0000 C   0  0  0  0  0  0  0  0  0  0  0  0
    2.3154    1.2534    0.0000 N   0  0  0  0  0  0  0  0  0  0  0  0
    2.3154   -0.1755    0.0000 N   0  0  0  0  0  0  0  0  0  0  0  0
   -2.3154   -0.1755    0.0000 C   0  0  0  0  0  0  0  0  0  0  0  0
  1  2  1  0
  1  3  1  0
  1  4  1  0
  2  5  1  0
  3  6  1  0
  4  7  1  0
  5  8  1  0
  6  9  1  0
  7 10  1  0
  8 11  2  0
  8 12  1  0
  9 13  1  0
 10 13  1  0
M  END
>  <DRUGBANK_ID>  (1) 
DB13604

>  <COMMON_NAME>  (1) 
Guanazodine

>  <CAS_NUMBER>  (1) 
32059-15-7

>  <UNII>  (1) 
7N05KQ38YI

>  <SYNONYMS>  (1) 
Guanazodine

$$$$
