
     RDKit          2D

 34 38  0  0  1  0  0  0  0  0999 V2000
   -1.1270    9.3770    0.0000 C   0  0  0  0  0  0  0  0  0  0  0  0
   -0.4125    8.9645    0.0000 C   0  0  0  0  0  0  0  0  0  0  0  0
   -0.4125    8.1395    0.0000 C   0  0  0  0  0  0  0  0  0  0  0  0
    0.3020    7.7270    0.0000 N   0  0  0  0  0  0  0  0  0  0  0  0
    1.0164    8.1395    0.0000 C   0  0  0  0  0  0  0  0  0  0  0  0
    1.0164    8.9645    0.0000 C   0  0  0  0  0  0  0  0  0  0  0  0
    0.3020    9.3770    0.0000 N   0  0  0  0  0  0  0  0  0  0  0  0
    0.3020   10.2020    0.0000 C   0  0  0  0  0  0  0  0  0  0  0  0
    0.3020    6.9020    0.0000 C   0  0  0  0  0  0  0  0  0  0  0  0
    1.0164    6.4895    0.0000 C   0  0  0  0  0  0  0  0  0  0  0  0
    1.0164    5.6645    0.0000 N   0  0  0  0  0  0  0  0  0  0  0  0
    0.3020    5.2520    0.0000 C   0  0  0  0  0  0  0  0  0  0  0  0
    0.3020    4.4270    0.0000 N   0  0  0  0  0  0  0  0  0  0  0  0
   -0.4125    4.0145    0.0000 C   0  0  0  0  0  0  0  0  0  0  0  0
   -0.4125    3.1895    0.0000 C   0  0  0  0  0  0  0  0  0  0  0  0
   -1.1270    2.7770    0.0000 C   0  0  0  0  0  0  0  0  0  0  0  0
   -1.1270    1.9520    0.0000 C   0  0  0  0  0  0  0  0  0  0  0  0
   -0.7145    1.2375    0.0000 C   0  0  0  0  0  0  0  0  0  0  0  0
   -1.5395    1.2375    0.0000 C   0  0  0  0  0  0  0  0  0  0  0  0
   -1.8414    3.1895    0.0000 C   0  0  0  0  0  0  0  0  0  0  0  0
   -2.5559    2.7770    0.0000 F   0  0  0  0  0  0  0  0  0  0  0  0
   -1.8414    4.0145    0.0000 C   0  0  0  0  0  0  0  0  0  0  0  0
   -2.5559    4.4270    0.0000 C   0  0  0  0  0  0  0  0  0  0  0  0
   -1.1270    4.4270    0.0000 N   0  0  0  0  0  0  0  0  0  0  0  0
   -0.4125    5.6645    0.0000 N   0  0  0  0  0  0  0  0  0  0  0  0
   -0.4125    6.4895    0.0000 C   0  0  0  0  0  0  0  0  0  0  0  0
   -1.1270    6.9020    0.0000 N   0  0  0  0  0  0  0  0  0  0  0  0
   -1.8414    6.4895    0.0000 C   0  0  0  0  0  0  0  0  0  0  0  0
   -1.9277    5.6690    0.0000 C   0  0  0  0  0  0  0  0  0  0  0  0
   -2.7346    5.4975    0.0000 C   0  0  0  0  0  0  0  0  0  0  0  0
   -3.0702    4.7438    0.0000 C   0  0  0  0  0  0  0  0  0  0  0  0
   -3.1471    6.2119    0.0000 N   0  0  0  0  0  0  0  0  0  0  0  0
   -3.9676    6.2982    0.0000 C   0  0  0  0  0  0  0  0  0  0  0  0
   -2.5951    6.8250    0.0000 N   0  0  0  0  0  0  0  0  0  0  0  0
  2  1  1  1
  2  3  1  0
  2  7  1  0
  3  4  1  0
  4  5  1  0
  4  9  1  0
  5  6  1  0
  6  7  1  0
  7  8  1  0
  9 10  2  0
  9 26  1  0
 10 11  1  0
 11 12  2  0
 12 13  1  0
 12 25  1  0
 13 14  1  0
 14 15  2  0
 14 24  1  0
 15 16  1  0
 16 17  1  0
 16 20  2  0
 17 18  1  0
 17 19  1  0
 18 19  1  0
 20 21  1  0
 20 22  1  0
 22 23  1  0
 22 24  2  0
 25 26  2  0
 26 27  1  0
 27 28  1  0
 28 29  1  0
 28 34  2  0
 29 30  2  0
 30 31  1  0
 30 32  1  0
 32 33  1  0
 32 34  1  0
M  END
>  <DRUGBANK_ID>  (1) 
DB18062

>  <COMMON_NAME>  (1) 
ZY19489

>  <CAS_NUMBER>  (1) 
1821293-40-6

>  <UNII>  (1) 
VL8W9427Y4

>  <SYNONYMS>  (1) 
ZY-19489

$$$$
