RXB
     RDKit          2D

 27 29  0  0  0  0  0  0  0  0999 V2000
   -1.9123    3.1119    0.0000 O   0  0  0  0  0  0  0  0  0  0  0  0
   -1.1978    2.6994    0.0000 C   0  0  0  0  0  0  0  0  0  0  0  0
   -0.4833    3.1119    0.0000 N   0  0  0  0  0  0  0  0  0  0  0  0
    0.2311    2.6994    0.0000 C   0  0  0  0  0  0  0  0  0  0  0  0
    0.9456    3.1119    0.0000 O   0  0  0  0  0  0  0  0  0  0  0  0
   -1.1978    1.8744    0.0000 C   0  0  0  0  0  0  0  0  0  0  0  0
   -0.4833    1.4619    0.0000 C   0  0  0  0  0  0  0  0  0  0  0  0
    0.2311    1.8744    0.0000 C   0  0  0  0  0  0  0  0  0  0  0  0
    0.9456    1.4619    0.0000 O   0  0  0  0  0  0  0  0  0  0  0  0
   -1.9123    1.4619    0.0000 C   0  0  0  0  0  0  0  0  0  0  0  0
   -1.9123    0.6369    0.0000 C   0  0  0  0  0  0  0  0  0  0  0  0
   -1.1978    0.2244    0.0000 C   0  0  0  0  0  0  0  0  0  0  0  0
   -0.4833    0.6369    0.0000 C   0  0  0  0  0  0  0  0  0  0  0  0
    0.2311    0.2244    0.0000 N   0  0  0  0  0  0  0  0  0  0  0  0
    0.2311   -0.6006    0.0000 C   0  0  0  0  0  0  0  0  0  0  0  0
   -0.4833   -1.0131    0.0000 O   0  0  0  0  0  0  0  0  0  0  0  0
    0.9456   -1.0131    0.0000 C   0  0  0  0  0  0  0  0  0  0  0  0
    1.6601   -0.6006    0.0000 O   0  0  0  0  0  0  0  0  0  0  0  0
    1.6601    0.2244    0.0000 C   0  0  0  0  0  0  0  0  0  0  0  0
    0.9456    0.6369    0.0000 O   0  0  0  0  0  0  0  0  0  0  0  0
    2.3746    0.6369    0.0000 C   0  0  0  0  0  0  0  0  0  0  0  0
    0.9456   -1.8381    0.0000 C   0  0  0  0  0  0  0  0  0  0  0  0
    1.6601   -2.2506    0.0000 C   0  0  0  0  0  0  0  0  0  0  0  0
    1.6601   -3.0756    0.0000 C   0  0  0  0  0  0  0  0  0  0  0  0
    0.9456   -3.4881    0.0000 C   0  0  0  0  0  0  0  0  0  0  0  0
    0.2311   -3.0756    0.0000 C   0  0  0  0  0  0  0  0  0  0  0  0
    0.2311   -2.2506    0.0000 C   0  0  0  0  0  0  0  0  0  0  0  0
  1  2  2  0
  2  3  1  0
  2  6  1  0
  3  4  1  0
  4  5  2  0
  4  8  1  0
  6  7  2  0
  6 10  1  0
  7  8  1  0
  7 13  1  0
  8  9  2  0
 10 11  2  0
 11 12  1  0
 12 13  2  0
 13 14  1  0
 14 15  1  0
 15 16  2  0
 15 17  1  0
 17 18  1  1
 17 22  1  0
 18 19  1  0
 19 20  2  0
 19 21  1  0
 22 23  2  0
 22 27  1  0
 23 24  1  0
 24 25  2  0
 25 26  1  0
 26 27  2  0
M  END
>  <DRUGBANK_ID>  (1) 
DB08497

>  <COMMON_NAME>  (1) 
(1S)-2-oxo-1-phenyl-2-[(1,3,4-trioxo-1,2,3,4-tetrahydroisoquinolin-5-yl)amino]ethyl acetate

$$$$
