
     RDKit          2D

 33 36  0  0  0  0  0  0  0  0999 V2000
    1.8804    2.0609    0.0000 C   0  0  0  0  0  0  0  0  0  0  0  0
    1.8804    1.2359    0.0000 C   0  0  0  0  0  0  0  0  0  0  0  0
    1.1659    2.4734    0.0000 C   0  0  0  0  0  0  0  0  0  0  0  0
    1.1659    0.8234    0.0000 C   0  0  0  0  0  0  0  0  0  0  0  0
    0.4515    2.0609    0.0000 C   0  0  0  0  0  0  0  0  0  0  0  0
    0.4515    1.2359    0.0000 C   0  0  0  0  0  0  0  0  0  0  0  0
    2.5950    0.8234    0.0000 C   0  0  0  0  0  0  0  0  0  0  0  0
    3.3094    1.2359    0.0000 C   0  0  0  0  0  0  0  0  0  0  0  0
    2.5950   -0.0015    0.0000 C   0  0  0  0  0  0  0  0  0  0  0  0
    4.0238    0.8233    0.0000 C   0  0  0  0  0  0  0  0  0  0  0  0
    3.3094   -0.4140    0.0000 C   0  0  0  0  0  0  0  0  0  0  0  0
    4.0238   -0.0016    0.0000 C   0  0  0  0  0  0  0  0  0  0  0  0
    4.7383    1.2358    0.0000 C   0  0  0  0  0  0  0  0  0  0  0  0
    4.7384    2.0608    0.0000 O   0  0  0  0  0  0  0  0  0  0  0  0
    5.4529    0.8232    0.0000 O   0  0  0  0  0  0  0  0  0  0  0  0
    1.1658   -0.0015    0.0000 O   0  0  0  0  0  0  0  0  0  0  0  0
   -0.2630    0.8234    0.0000 N   0  0  0  0  0  0  0  0  0  0  0  0
   -0.9774    1.2359    0.0000 N   0  0  0  0  0  0  0  0  0  0  0  0
   -1.7619    0.9810    0.0000 C   0  0  0  0  0  0  0  0  0  0  0  0
   -2.4295    1.4659    0.0000 C   0  0  0  0  0  0  0  0  0  0  0  0
   -2.0170    0.1963    0.0000 C   0  0  0  0  0  0  0  0  0  0  0  0
   -3.0969    0.9809    0.0000 N   0  0  0  0  0  0  0  0  0  0  0  0
   -2.8421    0.1963    0.0000 N   0  0  0  0  0  0  0  0  0  0  0  0
   -1.5319   -0.4710    0.0000 O   0  0  0  0  0  0  0  0  0  0  0  0
   -2.4295    2.2909    0.0000 C   0  0  0  0  0  0  0  0  0  0  0  0
   -3.3270   -0.4710    0.0000 C   0  0  0  0  0  0  0  0  0  0  0  0
   -4.1475   -0.3847    0.0000 C   0  0  0  0  0  0  0  0  0  0  0  0
   -2.9915   -1.2247    0.0000 C   0  0  0  0  0  0  0  0  0  0  0  0
   -4.6325   -1.0523    0.0000 C   0  0  0  0  0  0  0  0  0  0  0  0
   -3.4763   -1.8921    0.0000 C   0  0  0  0  0  0  0  0  0  0  0  0
   -4.2969   -1.8060    0.0000 C   0  0  0  0  0  0  0  0  0  0  0  0
   -4.7819   -2.4734    0.0000 C   0  0  0  0  0  0  0  0  0  0  0  0
   -5.4529   -0.9660    0.0000 C   0  0  0  0  0  0  0  0  0  0  0  0
  2  1  2  0
  2  7  1  0
  3  1  1  0
  4  2  1  0
  4 16  1  0
  5  3  2  0
  6  4  2  0
  6  5  1  0
  6 17  1  0
  8  7  2  0
  9  7  1  0
 10  8  1  0
 10 13  1  0
 11  9  2  0
 12 10  2  0
 12 11  1  0
 14 13  2  0
 15 13  1  0
 17 18  1  0
 18 19  2  0
 20 19  1  0
 20 25  1  0
 21 19  1  0
 21 24  2  0
 22 20  2  0
 23 21  1  0
 23 22  1  0
 23 26  1  0
 27 26  2  0
 28 26  1  0
 29 27  1  0
 29 33  1  0
 30 28  2  0
 31 29  2  0
 31 30  1  0
 31 32  1  0
M  END
>  <DRUGBANK_ID>  (1) 
DB06210

>  <COMMON_NAME>  (1) 
Eltrombopag

>  <CAS_NUMBER>  (1) 
496775-61-2

>  <UNII>  (1) 
S56D65XJ9G

>  <SYNONYMS>  (1) 
Eltrombopag; Eltrombopagum

$$$$
