
     RDKit          2D

 24 23  0  0  0  0  0  0  0  0999 V2000
   -0.3572    1.6499    0.0000 C   0  0  0  0  0  0  0  0  0  0  0  0
   -1.0717    2.0625    0.0000 C   0  0  0  0  0  0  0  0  0  0  0  0
   -1.7862    1.6499    0.0000 C   0  0  0  0  0  0  0  0  0  0  0  0
   -2.5007    2.0625    0.0000 C   0  0  0  0  0  0  0  0  0  0  0  0
   -3.2149    1.6499    0.0000 C   0  0  0  0  0  0  0  0  0  0  0  0
   -3.2149    0.8250    0.0000 C   0  0  0  0  0  0  0  0  0  0  0  0
   -3.9294    0.4125    0.0000 C   0  0  0  0  0  0  0  0  0  0  0  0
   -3.9294   -0.4125    0.0000 C   0  0  0  0  0  0  0  0  0  0  0  0
   -3.2149   -0.8249    0.0000 C   0  0  0  0  0  0  0  0  0  0  0  0
   -3.2149   -1.6499    0.0000 C   0  0  0  0  0  0  0  0  0  0  0  0
   -2.5007   -2.0625    0.0000 C   0  0  0  0  0  0  0  0  0  0  0  0
   -1.7862   -1.6499    0.0000 C   0  0  0  0  0  0  0  0  0  0  0  0
   -1.0717   -2.0625    0.0000 C   0  0  0  0  0  0  0  0  0  0  0  0
   -0.3572   -1.6499    0.0000 C   0  0  0  0  0  0  0  0  0  0  0  0
   -0.3572   -0.8249    0.0000 C   0  0  0  0  0  0  0  0  0  0  0  0
    0.3572   -0.4125    0.0000 C   0  0  0  0  0  0  0  0  0  0  0  0
    1.0716   -0.8249    0.0000 C   0  0  0  0  0  0  0  0  0  0  0  0
   -0.3572    0.8250    0.0000 C   0  0  0  0  0  0  0  0  0  0  0  0
    0.3572    0.4125    0.0000 C   0  0  0  0  0  0  0  0  0  0  0  0
    1.7861    0.4125    0.0000 O   0  0  0  0  0  0  0  0  0  0  0  0
    2.5006   -0.8249    0.0000 O   0  0  0  0  0  0  0  0  0  0  0  0
    1.7861   -0.4125    0.0000 C   0  0  0  0  0  0  0  0  0  0  0  0
    3.2150   -0.4125    0.0000 C   0  0  0  0  0  0  0  0  0  0  0  0
    3.9294   -0.8249    0.0000 C   0  0  0  0  0  0  0  0  0  0  0  0
  1  2  2  0
  2  3  1  0
  3  4  1  0
  4  5  2  0
  5  6  1  0
  6  7  1  0
  7  8  2  0
  8  9  1  0
  9 10  1  0
 10 11  2  0
 11 12  1  0
 12 13  1  0
 13 14  2  0
 14 15  1  0
 15 16  1  0
 16 17  1  0
 17 22  1  0
 18  1  1  0
 18 19  1  0
 21 23  1  0
 22 20  2  0
 22 21  1  0
 23 24  1  0
M  END
>  <DRUGBANK_ID>  (1) 
DB08887

>  <SECONDARY_ACCESSION_NUMBERS>  (1) 
DB06291

>  <COMMON_NAME>  (1) 
Icosapent ethyl

>  <CAS_NUMBER>  (1) 
86227-47-6

>  <UNII>  (1) 
6GC8A4PAYH

>  <SYNONYMS>  (1) 
(all-Z)-5,8,11,14,17-Eicosapentaenoic acid ethyl ester; all-cis-ethyl 5,8,11,14,17-icosapentaenoate; cis-Eicosapentaenoic acid ethyl ester; E-EPA; Eicosapentaenoic acid ethyl ester; ethyl (5Z,8Z,11Z,14Z,17Z)-eicosa-5,8,11,14,17-pentaenoate; ethyl (5Z,8Z,11Z,14Z,17Z)-eicosapentaenoate; ethyl (5Z,8Z,11Z,14Z,17Z)-icosapentaenoate; Ethyl (all cis)-5,8,11,14,17-icosapentaenoate; Ethyl all-cis-5,8,11,14,17-icosapentaenoate; Ethyl eicosapentaenoate; Ethyl icosapentate ; ethyl-eicosapentaenoic acid; Ethyl-EPA; Icosapent ethyl; Timnodonic acid ethyl ester

$$$$
