
     RDKit          2D

 25 26  0  0  0  0  0  0  0  0999 V2000
   -0.5759    0.8071    0.0000 C   0  0  0  0  0  0  0  0  0  0  0  0
   -0.5759   -0.0179    0.0000 C   0  0  0  0  0  0  0  0  0  0  0  0
   -1.4030    0.8071    0.0000 C   0  0  0  0  0  0  0  0  0  0  0  0
    0.2510    0.8071    0.0000 O   0  0  0  0  0  0  0  0  0  0  0  0
   -0.5759    1.6362    0.0000 C   0  0  0  0  0  0  0  0  0  0  0  0
   -1.3572   -0.4225    0.0000 C   0  0  0  0  0  0  0  0  0  0  0  0
    0.1574   -0.4444    0.0000 C   0  0  0  0  0  0  0  0  0  0  0  0
   -1.8354    0.0757    0.0000 C   0  0  0  0  0  0  0  0  0  0  0  0
   -1.7996    1.5127    0.0000 C   0  0  0  0  0  0  0  0  0  0  0  0
    0.6437    0.1136    0.0000 C   0  0  0  0  0  0  0  0  0  0  0  0
   -0.5859   -1.0661    0.0000 C   0  0  0  0  0  0  0  0  0  0  0  0
   -1.3453   -1.2396    0.0000 C   0  0  0  0  0  0  0  0  0  0  0  0
    0.1534   -1.2216    0.0000 C   0  0  0  0  0  0  0  0  0  0  0  0
   -2.6067    0.0777    0.0000 C   0  0  0  0  0  0  0  0  0  0  0  0
   -2.6287    1.5127    0.0000 C   0  0  0  0  0  0  0  0  0  0  0  0
    1.4668    0.1136    0.0000 C   0  0  0  0  0  0  0  0  0  0  0  0
   -0.5759   -1.6362    0.0000 C   0  0  0  0  0  0  0  0  0  0  0  0
   -3.0253    0.8071    0.0000 C   0  0  0  0  0  0  0  0  0  0  0  0
    1.8634    0.8270    0.0000 N   0  0  0  0  0  0  0  0  0  0  0  0
    2.5729    0.4325    0.0000 C   0  0  0  0  0  0  0  0  0  0  0  0
    2.2381    1.5346    0.0000 C   0  0  0  0  0  0  0  0  0  0  0  0
    1.1579    1.2176    0.0000 C   0  0  0  0  0  0  0  0  0  0  0  0
    2.5848   -0.3487    0.0000 C   0  0  0  0  0  0  0  0  0  0  0  0
    3.0253    1.5346    0.0000 C   0  0  0  0  0  0  0  0  0  0  0  0
    1.8335   -1.3472    0.0000 Br  0  0  0  0  0  0  0  0  0  0  0  0
  1  2  1  0
  1  3  1  0
  1  4  1  0
  1  5  1  0
  2  6  1  0
  2  7  1  0
  3  8  2  0
  3  9  1  0
  4 10  1  0
  6 11  1  0
  6 12  1  0
  7 13  1  0
  8 14  1  0
  9 15  2  0
 10 16  1  0
 11 13  1  0
 12 17  2  0
 13 17  1  0
 14 18  2  0
 15 18  1  0
 16 19  1  0
 19 20  1  0
 19 21  1  0
 19 22  1  0
 20 23  1  0
 21 24  1  0
M  CHG  2  19   1  25  -1
M  END
>  <DRUGBANK_ID>  (1) 
DB15827

>  <COMMON_NAME>  (1) 
Ciclonium bromide

>  <CAS_NUMBER>  (1) 
29546-59-6

>  <UNII>  (1) 
72R7F44611

>  <SYNONYMS>  (1) 
Bromure de ciclonium; Bromuro de ciclonio; Ciclonii bromidum; Ciclonium bromide; Cyclonium bromide

$$$$
