1461
     RDKit          2D

 24 25  0  0  0  0  0  0  0  0999 V2000
    2.8876    0.0000    0.0000 O   0  0  0  0  0  0  0  0  0  0  0  0
    4.9501   -0.7145    0.0000 O   0  0  0  0  0  0  0  0  0  0  0  0
    4.9501    0.7145    0.0000 O   0  0  0  0  0  0  0  0  0  0  0  0
    7.0127   -1.4290    0.0000 N   0  0  0  0  0  0  0  0  0  0  0  0
    3.7126    0.0000    0.0000 C   0  0  0  0  0  0  0  0  0  0  0  0
    3.7126   -0.8250    0.0000 C   0  0  0  0  0  0  0  0  0  0  0  0
    3.7126    0.8250    0.0000 C   0  0  0  0  0  0  0  0  0  0  0  0
    4.5376    0.0000    0.0000 C   0  0  0  0  0  0  0  0  0  0  0  0
    4.4270   -1.2375    0.0000 C   0  0  0  0  0  0  0  0  0  0  0  0
    2.9981    1.2375    0.0000 C   0  0  0  0  0  0  0  0  0  0  0  0
    2.9981   -1.2375    0.0000 C   0  0  0  0  0  0  0  0  0  0  0  0
    4.4270    1.2375    0.0000 C   0  0  0  0  0  0  0  0  0  0  0  0
    2.4751    0.7145    0.0000 C   0  0  0  0  0  0  0  0  0  0  0  0
    5.7751   -0.7145    0.0000 C   0  0  0  0  0  0  0  0  0  0  0  0
    6.1876   -1.4290    0.0000 C   0  0  0  0  0  0  0  0  0  0  0  0
    4.4270   -2.0625    0.0000 C   0  0  0  0  0  0  0  0  0  0  0  0
    2.9981    2.0625    0.0000 C   0  0  0  0  0  0  0  0  0  0  0  0
    2.9981   -2.0625    0.0000 C   0  0  0  0  0  0  0  0  0  0  0  0
    4.4270    2.0625    0.0000 C   0  0  0  0  0  0  0  0  0  0  0  0
    3.7126   -2.4751    0.0000 C   0  0  0  0  0  0  0  0  0  0  0  0
    3.7126    2.4751    0.0000 C   0  0  0  0  0  0  0  0  0  0  0  0
    1.6500    0.7145    0.0000 C   0  0  0  0  0  0  0  0  0  0  0  0
    7.4252   -2.1435    0.0000 C   0  0  0  0  0  0  0  0  0  0  0  0
    7.4252   -0.7145    0.0000 C   0  0  0  0  0  0  0  0  0  0  0  0
  1  5  1  0
  1 13  1  0
  2  8  1  0
  2 14  1  0
  3  8  2  0
  4 15  1  0
  4 23  1  0
  4 24  1  0
  5  6  1  0
  5  7  1  0
  5  8  1  0
  6  9  2  0
  6 11  1  0
  7 10  2  0
  7 12  1  0
  9 16  1  0
 10 17  1  0
 11 18  2  0
 12 19  2  0
 13 22  1  0
 14 15  1  0
 16 20  2  0
 17 21  2  0
 18 20  1  0
 19 21  1  0
M  END
>  <DRUGBANK_ID>  (1) 
DB01461

>  <COMMON_NAME>  (1) 
Dimenoxadol

>  <CAS_NUMBER>  (1) 
509-78-4

>  <UNII>  (1) 
4D65PBX0VK

>  <SYNONYMS>  (1) 
Dimenossadolo; Dimenoxadol; Dimenoxadole; Dimenoxadolum

$$$$
