
     RDKit          2D

 25 27  0  0  0  0  0  0  0  0999 V2000
    0.1067   -0.1848    0.0000 C   0  0  0  0  0  0  0  0  0  0  0  0
   -0.6078   -0.5973    0.0000 C   0  0  0  0  0  0  0  0  0  0  0  0
   -1.3222   -0.1848    0.0000 C   0  0  0  0  0  0  0  0  0  0  0  0
   -0.6078   -1.4223    0.0000 N   0  0  0  0  0  0  0  0  0  0  0  0
    0.0597   -1.9072    0.0000 N   0  0  0  0  0  0  0  0  0  0  0  0
   -0.1953   -2.6919    0.0000 C   0  0  0  0  0  0  0  0  0  0  0  0
   -1.0203   -2.6919    0.0000 C   0  0  0  0  0  0  0  0  0  0  0  0
   -1.2752   -1.9072    0.0000 C   0  0  0  0  0  0  0  0  0  0  0  0
   -2.0598   -1.6523    0.0000 C   0  0  0  0  0  0  0  0  0  0  0  0
   -2.6729   -2.2043    0.0000 C   0  0  0  0  0  0  0  0  0  0  0  0
   -2.5014   -3.0113    0.0000 C   0  0  0  0  0  0  0  0  0  0  0  0
   -1.7168   -3.2662    0.0000 O   0  0  0  0  0  0  0  0  0  0  0  0
   -1.5452   -4.0732    0.0000 C   0  0  0  0  0  0  0  0  0  0  0  0
   -0.7606   -4.3282    0.0000 C   0  0  0  0  0  0  0  0  0  0  0  0
   -0.5891   -5.1351    0.0000 C   0  0  0  0  0  0  0  0  0  0  0  0
   -1.2022   -5.6872    0.0000 C   0  0  0  0  0  0  0  0  0  0  0  0
   -1.9868   -5.4322    0.0000 C   0  0  0  0  0  0  0  0  0  0  0  0
   -2.5999   -5.9843    0.0000 O   0  0  0  0  0  0  0  0  0  0  0  0
   -2.1583   -4.6253    0.0000 C   0  0  0  0  0  0  0  0  0  0  0  0
   -2.9430   -4.3703    0.0000 C   0  0  0  0  0  0  0  0  0  0  0  0
   -3.1145   -3.5633    0.0000 O   0  0  0  0  0  0  0  0  0  0  0  0
   -3.4575   -1.9494    0.0000 C   0  0  0  0  0  0  0  0  0  0  0  0
   -3.6291   -1.1424    0.0000 C   0  0  0  0  0  0  0  0  0  0  0  0
   -3.0160   -0.5904    0.0000 C   0  0  0  0  0  0  0  0  0  0  0  0
   -2.2314   -0.8453    0.0000 N   0  0  0  0  0  0  0  0  0  0  0  0
  1  2  1  0
  2  3  1  0
  2  4  1  0
  4  5  1  0
  4  8  1  0
  5  6  2  0
  6  7  1  0
  7  8  2  0
  8  9  1  0
  9 10  1  0
  9 25  2  0
 10 11  1  0
 10 22  2  0
 11 12  1  0
 12 13  1  0
 13 14  2  0
 13 19  1  0
 14 15  1  0
 15 16  2  0
 16 17  1  0
 17 18  1  0
 17 19  2  0
 19 20  1  0
 20 21  2  0
 22 23  1  0
 23 24  2  0
 24 25  1  0
M  END
>  <DRUGBANK_ID>  (1) 
DB14975

>  <COMMON_NAME>  (1) 
Voxelotor

>  <CAS_NUMBER>  (1) 
1446321-46-5

>  <UNII>  (1) 
3ZO554A4Q8

>  <SYNONYMS>  (1) 
Voxelotor; Vox√©lotor; Voxelotorum

$$$$
