
     RDKit          2D

 19 20  0  0  1  0  0  0  0  0999 V2000
   16.8537   -6.8636    0.0000 C   0  0  0  0  0  0  0  0  0  0  0  0
   16.8537   -6.0579    0.0000 C   0  0  0  0  0  0  0  0  0  0  0  0
   16.1375   -7.2933    0.0000 S   0  0  0  0  0  0  0  0  0  0  0  0
   17.6415   -7.1322    0.0000 S   0  0  0  0  0  0  0  0  0  0  0  0
   16.1375   -5.6460    0.0000 C   0  0  0  0  0  0  0  0  0  0  0  0
   17.6415   -5.7893    0.0000 C   0  0  0  0  0  0  0  0  0  0  0  0
   15.4213   -6.8636    0.0000 C   0  0  0  0  0  0  0  0  0  0  0  0
   15.7257   -7.9916    0.0000 O   0  0  0  0  0  0  0  0  0  0  0  0
   16.5135   -7.9916    0.0000 O   0  0  0  0  0  0  0  0  0  0  0  0
   18.1071   -6.4697    0.0000 C   0  0  0  0  0  0  0  0  0  0  0  0
   15.4213   -6.0579    0.0000 C   0  0  0  0  0  0  0  0  0  0  0  0
   16.1375   -4.8045    0.0000 N   0  0  0  0  0  0  0  0  0  0  0  0
   14.7230   -7.2933    0.0000 C   0  0  0  0  0  0  0  0  0  0  0  0
   18.9307   -6.4697    0.0000 S   0  0  0  0  0  0  0  0  0  0  0  0
   19.3425   -7.1859    0.0000 N   0  0  0  0  0  0  0  0  0  0  0  0
   18.9307   -5.6460    0.0000 O   0  0  0  0  0  0  0  0  0  0  0  0
   19.6469   -6.0758    0.0000 O   0  0  0  0  0  0  0  0  0  0  0  0
   15.4182   -4.3995    0.0000 C   0  0  0  0  0  0  0  0  0  0  0  0
   14.7072   -4.8202    0.0000 C   0  0  0  0  0  0  0  0  0  0  0  0
  2  1  2  0
  3  1  1  0
  4  1  1  0
  5  2  1  0
  5 12  1  6
  6  2  1  0
  7  3  1  0
  7 13  1  1
  8  3  2  0
  9  3  2  0
 10  4  1  0
 10  6  2  0
 11  5  1  0
 11  7  1  0
 12 18  1  0
 14 10  1  0
 15 14  1  0
 16 14  2  0
 17 14  2  0
 18 19  1  0
M  END
>  <DRUGBANK_ID>  (1) 
DB00869

>  <SECONDARY_ACCESSION_NUMBERS>  (1) 
APRD00577; DB04507

>  <COMMON_NAME>  (1) 
Dorzolamide

>  <CAS_NUMBER>  (1) 
120279-96-1

>  <UNII>  (1) 
9JDX055TW1

>  <SYNONYMS>  (1) 
(4S,6S)-4-ethylamino-6-methyl-7,7-dioxo-4,5,6,7-tetrahydro-7lambda*6*-thieno[2,3-b]thiopyran-2-sulfonic acid amide; (4S,trans)-4-(ethylamino)-6-methyl-5,6-dihydro-4H-thieno[2,3-b]thiopyran-2-sulfonamide 7,7-dioxide; 4-Ethylamino-6-methyl-7,7-dioxo-4,5,6,7-tetrahydro-7lambda*6*-thieno[2,3-b]thiopyran-2-sulfonic acid amide; 4-ethylamino-6-methyl-7,7-dioxo-4,5,6,7-tetrahydro-7lambda6-thieno[2,3-b]thiopyran-2-sulfonic acid amide; 4S,6S-dorzolamide; Dorzolamid; Dorzolamida; Dorzolamide; Dorzolamidum

$$$$
