
     RDKit          2D

 17 17  0  0  0  0  0  0  0  0999 V2000
    0.0391    0.7537    0.0000 N   0  0  0  0  0  0  0  0  0  0  0  0
    0.0391   -0.0713    0.0000 C   0  0  0  0  0  0  0  0  0  0  0  0
   -0.6754   -0.4838    0.0000 C   0  0  0  0  0  0  0  0  0  0  0  0
   -0.6754   -1.3089    0.0000 C   0  0  0  0  0  0  0  0  0  0  0  0
   -1.3899   -1.7213    0.0000 C   0  0  0  0  0  0  0  0  0  0  0  0
   -2.1044   -1.3089    0.0000 C   0  0  0  0  0  0  0  0  0  0  0  0
    0.1496   -1.3089    0.0000 C   0  0  0  0  0  0  0  0  0  0  0  0
   -0.2628   -2.0233    0.0000 C   0  0  0  0  0  0  0  0  0  0  0  0
   -1.3899   -0.0713    0.0000 O   0  0  0  0  0  0  0  0  0  0  0  0
    0.7536   -0.4838    0.0000 O   0  0  0  0  0  0  0  0  0  0  0  0
    0.7066    1.2388    0.0000 C   0  0  0  0  0  0  0  0  0  0  0  0
    1.4913    0.9837    0.0000 C   0  0  0  0  0  0  0  0  0  0  0  0
    1.6628    0.1767    0.0000 O   0  0  0  0  0  0  0  0  0  0  0  0
    2.1044    1.5358    0.0000 O   0  0  0  0  0  0  0  0  0  0  0  0
    0.4517    2.0233    0.0000 C   0  0  0  0  0  0  0  0  0  0  0  0
   -0.3733    2.0233    0.0000 C   0  0  0  0  0  0  0  0  0  0  0  0
   -0.6283    1.2388    0.0000 C   0  0  0  0  0  0  0  0  0  0  0  0
  2  1  1  0
  3  2  1  0
  4  3  1  0
  5  4  1  0
  6  5  1  0
  7  4  1  0
  8  4  1  0
  9  3  2  0
 10  2  2  0
 11  1  1  0
 11 12  1  1
 13 12  2  0
 14 12  1  0
 15 11  1  0
 16 15  1  0
 16 17  1  0
 17  1  1  0
M  END
>  <DRUGBANK_ID>  (1) 
DB05814

>  <COMMON_NAME>  (1) 
GPI-1485

>  <CAS_NUMBER>  (1) 
186268-78-0

>  <UNII>  (1) 
0709BVY57W

$$$$
