
     RDKit          2D

  2  1  0  0  0  0  0  0  0  0999 V2000
   -0.4125    0.0032    0.0000 Li  0  0  0  0  0  1  0  0  0  0  0  0
    0.4125   -0.0032    0.0000 Cl  0  0  0  0  0  0  0  0  0  0  0  0
  2  1  1  0
M  END
>  <DRUGBANK_ID>  (1) 
DB16607

>  <COMMON_NAME>  (1) 
Lithium chloride

>  <CAS_NUMBER>  (1) 
7447-41-8

>  <UNII>  (1) 
G4962QA067

>  <SYNONYMS>  (1) 
Lithium muriaticum

$$$$
