
     RDKit          2D

 33 35  0  0  0  0  0  0  0  0999 V2000
   -1.4966    1.1674    0.0000 O   0  0  0  0  0  0  0  0  0  0  0  0
    0.0428    1.5799    0.0000 O   0  0  0  0  0  0  0  0  0  0  0  0
   -0.2591   -0.9760    0.0000 O   0  0  0  0  0  0  0  0  0  0  0  0
   -3.1466   -0.2615    0.0000 O   0  0  0  0  0  0  0  0  0  0  0  0
   -2.7341    1.8818    0.0000 O   0  0  0  0  0  0  0  0  0  0  0  0
   -1.3860    2.4050    0.0000 O   0  0  0  0  0  0  0  0  0  0  0  0
    0.0428    2.4050    0.0000 O   0  0  0  0  0  0  0  0  0  0  0  0
   -4.3841    1.8818    0.0000 O   0  0  0  0  0  0  0  0  0  0  0  0
   -0.6716   -1.6904    0.0000 O   0  0  0  0  0  0  0  0  0  0  0  0
    2.9237    1.6084    0.0000 O   0  0  0  0  0  0  0  0  0  0  0  0
    4.3841    1.5998    0.0000 O   0  0  0  0  0  0  0  0  0  0  0  0
   -1.9091   -0.9760    0.0000 N   0  0  0  0  0  0  0  0  0  0  0  0
   -1.4966   -0.2615    0.0000 C   0  0  0  0  0  0  0  0  0  0  0  0
   -1.9091    0.4528    0.0000 C   0  0  0  0  0  0  0  0  0  0  0  0
   -0.6716   -0.2615    0.0000 C   0  0  0  0  0  0  0  0  0  0  0  0
   -0.2591    0.4528    0.0000 C   0  0  0  0  0  0  0  0  0  0  0  0
   -0.6716    1.1674    0.0000 C   0  0  0  0  0  0  0  0  0  0  0  0
   -2.7341    0.4528    0.0000 C   0  0  0  0  0  0  0  0  0  0  0  0
   -3.1466    1.1674    0.0000 C   0  0  0  0  0  0  0  0  0  0  0  0
   -0.6716    1.9924    0.0000 C   0  0  0  0  0  0  0  0  0  0  0  0
   -3.9716    1.1674    0.0000 C   0  0  0  0  0  0  0  0  0  0  0  0
   -1.4966   -1.6904    0.0000 C   0  0  0  0  0  0  0  0  0  0  0  0
    0.7574    1.1674    0.0000 C   0  0  0  0  0  0  0  0  0  0  0  0
   -1.9091   -2.4050    0.0000 C   0  0  0  0  0  0  0  0  0  0  0  0
    1.4718    1.5799    0.0000 C   0  0  0  0  0  0  0  0  0  0  0  0
    0.7574    0.3424    0.0000 C   0  0  0  0  0  0  0  0  0  0  0  0
    2.1863    1.1674    0.0000 C   0  0  0  0  0  0  0  0  0  0  0  0
    2.1863    0.3424    0.0000 C   0  0  0  0  0  0  0  0  0  0  0  0
    1.4718   -0.0700    0.0000 C   0  0  0  0  0  0  0  0  0  0  0  0
    2.9237   -0.0986    0.0000 C   0  0  0  0  0  0  0  0  0  0  0  0
    3.6713    0.3251    0.0000 C   0  0  0  0  0  0  0  0  0  0  0  0
    3.6713    1.1846    0.0000 C   0  0  0  0  0  0  0  0  0  0  0  0
    2.9142   -0.9236    0.0000 C   0  0  0  0  0  0  0  0  0  0  0  0
 14  1  1  6
  1 17  1  0
  2 23  1  0
  6 20  1  0
  7 20  2  0
  8 21  1  0
  9 22  2  0
 10 27  1  0
 10 32  1  0
 11 32  2  0
 12 22  1  0
 13 12  1  1
 13 14  1  0
 13 15  1  0
 14 18  1  0
 15  3  1  6
 15 16  1  0
 16 17  1  0
 17  2  1  6
 17 20  1  0
 18  4  1  6
 18 19  1  0
 19  5  1  1
 19 21  1  0
 22 24  1  0
 23 25  1  0
 23 26  2  0
 25 27  2  0
 26 29  1  0
 27 28  1  0
 28 29  2  0
 28 30  1  0
 30 31  2  0
 30 33  1  0
 31 32  1  0
M  END
>  <DRUGBANK_ID>  (1) 
DB01768

>  <SECONDARY_ACCESSION_NUMBERS>  (1) 
EXPT02257

>  <COMMON_NAME>  (1) 
Methylumbelliferyl sialic acid

>  <CAS_NUMBER>  (1) 
59322-44-0

$$$$
