
     RDKit          2D

 17 18  0  0  0  0  0  0  0  0999 V2000
    0.0000   -0.0000    0.0000 C   0  0  0  0  0  0  0  0  0  0  0  0
    0.7145   -0.4125    0.0000 N   0  0  0  0  0  0  0  0  0  0  0  0
    0.7145   -1.2375    0.0000 C   0  0  0  0  0  0  0  0  0  0  0  0
    1.2978   -1.8209    0.0000 C   0  0  0  0  0  0  0  0  0  0  0  0
    0.7145   -2.4042    0.0000 N   0  0  0  0  0  0  0  0  0  0  0  0
    0.1311   -1.8209    0.0000 C   0  0  0  0  0  0  0  0  0  0  0  0
    0.7145   -3.2292    0.0000 C   0  0  0  0  0  0  0  0  0  0  0  0
    1.4289   -3.6417    0.0000 C   0  0  0  0  0  0  0  0  0  0  0  0
    1.4289   -4.4667    0.0000 C   0  0  0  0  0  0  0  0  0  0  0  0
    2.1434   -4.8792    0.0000 N   0  0  0  0  0  0  0  0  0  0  0  0
    0.7145   -4.8792    0.0000 N   0  0  0  0  0  0  0  0  0  0  0  0
    0.0000   -4.4667    0.0000 C   0  0  0  0  0  0  0  0  0  0  0  0
   -0.7145   -4.8792    0.0000 C   0  0  0  0  0  0  0  0  0  0  0  0
   -1.4289   -4.4667    0.0000 C   0  0  0  0  0  0  0  0  0  0  0  0
   -2.1434   -4.8792    0.0000 C   0  0  0  0  0  0  0  0  0  0  0  0
   -1.4289   -3.6417    0.0000 C   0  0  0  0  0  0  0  0  0  0  0  0
    0.0000   -3.6417    0.0000 N   0  0  0  0  0  0  0  0  0  0  0  0
  1  2  1  0
  2  3  1  0
  3  4  1  0
  3  6  1  0
  4  5  1  0
  5  6  1  0
  5  7  1  0
  7  8  2  0
  7 17  1  0
  8  9  1  0
  9 10  1  0
  9 11  2  0
 11 12  1  0
 12 13  1  0
 12 17  2  0
 13 14  1  0
 14 15  1  0
 14 16  1  0
M  END
>  <DRUGBANK_ID>  (1) 
DB15220

>  <COMMON_NAME>  (1) 
Seliforant

>  <CAS_NUMBER>  (1) 
1164115-89-2

>  <UNII>  (1) 
B61N8R7TDH

>  <SYNONYMS>  (1) 
Seliforant

$$$$
