FRT
     RDKit          2D

 30 32  0  0  0  0  0  0  0  0999 V2000
   -1.5062   -0.2009    0.0000 C   0  0  0  0  0  0  0  0  0  0  0  0
   -1.5062    0.6241    0.0000 N   0  0  0  0  0  0  0  0  0  0  0  0
   -0.7917    1.0367    0.0000 C   0  0  0  0  0  0  0  0  0  0  0  0
   -0.0772    0.6241    0.0000 N   0  0  0  0  0  0  0  0  0  0  0  0
   -0.0772   -0.2009    0.0000 C   0  0  0  0  0  0  0  0  0  0  0  0
   -0.7917   -0.6134    0.0000 C   0  0  0  0  0  0  0  0  0  0  0  0
   -0.7917    1.8617    0.0000 N   0  0  0  0  0  0  0  0  0  0  0  0
   -0.0772    2.2742    0.0000 C   0  0  0  0  0  0  0  0  0  0  0  0
   -0.0772    3.0993    0.0000 C   0  0  0  0  0  0  0  0  0  0  0  0
    0.6373    3.5118    0.0000 C   0  0  0  0  0  0  0  0  0  0  0  0
    1.3518    3.0993    0.0000 C   0  0  0  0  0  0  0  0  0  0  0  0
    1.3518    2.2742    0.0000 C   0  0  0  0  0  0  0  0  0  0  0  0
    0.6373    1.8617    0.0000 C   0  0  0  0  0  0  0  0  0  0  0  0
    2.0663    3.5118    0.0000 S   0  0  0  0  0  0  0  0  0  0  0  0
    2.7809    3.9243    0.0000 N   0  0  0  0  0  0  0  0  0  0  0  0
    3.4954    3.5118    0.0000 C   0  0  0  0  0  0  0  0  0  0  0  0
    4.2099    3.9243    0.0000 C   0  0  0  0  0  0  0  0  0  0  0  0
    4.9244    3.5118    0.0000 O   0  0  0  0  0  0  0  0  0  0  0  0
    5.6390    3.9243    0.0000 C   0  0  0  0  0  0  0  0  0  0  0  0
   -2.2207   -0.6134    0.0000 C   0  0  0  0  0  0  0  0  0  0  0  0
   -2.3069   -1.4339    0.0000 N   0  0  0  0  0  0  0  0  0  0  0  0
   -3.1140   -1.6055    0.0000 C   0  0  0  0  0  0  0  0  0  0  0  0
   -3.5265   -0.8910    0.0000 N   0  0  0  0  0  0  0  0  0  0  0  0
   -2.9745   -0.2778    0.0000 C   0  0  0  0  0  0  0  0  0  0  0  0
   -1.6938   -1.9860    0.0000 C   0  0  0  0  0  0  0  0  0  0  0  0
   -1.8654   -2.7930    0.0000 C   0  0  0  0  0  0  0  0  0  0  0  0
   -0.9092   -1.7310    0.0000 C   0  0  0  0  0  0  0  0  0  0  0  0
   -3.4496   -2.3591    0.0000 C   0  0  0  0  0  0  0  0  0  0  0  0
    1.6538    4.2264    0.0000 O   0  0  0  0  0  0  0  0  0  0  0  0
    2.4789    2.7974    0.0000 O   0  0  0  0  0  0  0  0  0  0  0  0
  1  2  2  0
  1  6  1  0
  1 20  1  0
  2  3  1  0
  3  4  2  0
  3  7  1  0
  4  5  1  0
  5  6  2  0
  7  8  1  0
  8  9  2  0
  8 13  1  0
  9 10  1  0
 10 11  2  0
 11 12  1  0
 11 14  1  0
 12 13  2  0
 14 15  1  0
 14 29  2  0
 14 30  2  0
 15 16  1  0
 16 17  1  0
 17 18  1  0
 18 19  1  0
 20 21  1  0
 20 24  2  0
 21 22  1  0
 21 25  1  0
 22 23  2  0
 22 28  1  0
 23 24  1  0
 25 26  1  0
 25 27  1  0
M  END
>  <DRUGBANK_ID>  (1) 
DB07790

>  <COMMON_NAME>  (1) 
N-(2-METHOXYETHYL)-4-({4-[2-METHYL-1-(1-METHYLETHYL)-1H-IMIDAZOL-5-YL]PYRIMIDIN-2-YL}AMINO)BENZENESULFONAMIDE

$$$$
