
     RDKit          2D

 22 21  0  0  0  0  0  0  0  0999 V2000
   -2.5584    0.0000    0.0000 C   0  0  0  0  0  0  0  0  0  0  0  0
   -2.5584   -0.8250    0.0000 C   0  0  0  0  0  0  0  0  0  0  0  0
   -3.2731    0.4125    0.0000 C   0  0  0  0  0  0  0  0  0  0  0  0
   -3.2731   -1.2375    0.0000 C   0  0  0  0  0  0  0  0  0  0  0  0
   -3.9875    0.0000    0.0000 C   0  0  0  0  0  0  0  0  0  0  0  0
   -3.9875   -0.8250    0.0000 C   0  0  0  0  0  0  0  0  0  0  0  0
   -1.1294    0.0000    0.0000 C   0  0  0  0  0  0  0  0  0  0  0  0
   -1.1294   -0.8250    0.0000 C   0  0  0  0  0  0  0  0  0  0  0  0
   -1.8439    0.4125    0.0000 C   0  0  0  0  0  0  0  0  0  0  0  0
   -1.8439   -1.2375    0.0000 C   0  0  0  0  0  0  0  0  0  0  0  0
    0.2996    0.0000    0.0000 C   0  0  0  0  0  0  0  0  0  0  0  0
    0.2996   -0.8250    0.0000 C   0  0  0  0  0  0  0  0  0  0  0  0
   -0.4149    0.4125    0.0000 C   0  0  0  0  0  0  0  0  0  0  0  0
   -0.4149   -1.2375    0.0000 C   0  0  0  0  0  0  0  0  0  0  0  0
    1.0139    0.4125    0.0000 C   0  0  0  0  0  0  0  0  0  0  0  0
    1.0139   -1.2375    0.0000 C   0  0  0  0  0  0  0  0  0  0  0  0
    1.7285    0.0000    0.0000 N   0  0  0  0  0  0  0  0  0  0  0  0
    1.0139    1.2375    0.0000 O   0  0  0  0  0  0  0  0  0  0  0  0
    3.3148    0.0000    0.0000 C   0  0  0  0  0  0  0  0  0  0  0  0
    3.9875    0.3883    0.0000 O   0  0  0  0  0  0  0  0  0  0  0  0
    3.3148   -0.7660    0.0000 O   0  0  0  0  0  0  0  0  0  0  0  0
    2.5218    0.4545    0.0000 C   0  0  0  0  0  0  0  0  0  0  0  0
  1  9  1  0
  2 10  1  0
  3  1  1  0
  4  2  1  0
  5  3  1  0
  6  4  1  0
  6  5  1  0
  7 13  1  0
  8 14  1  0
  9  7  1  0
 10  8  1  0
 11 15  1  0
 12 16  1  0
 13 11  1  0
 14 12  1  0
 15 17  1  0
 15 18  2  0
 19 21  2  0
 19 22  1  0
 20 19  1  0
 22 17  1  0
M  END
>  <DRUGBANK_ID>  (1) 
DB03440

>  <SECONDARY_ACCESSION_NUMBERS>  (1) 
EXPT00027

>  <COMMON_NAME>  (1) 
N-hexadecanoylglycine

>  <CAS_NUMBER>  (1) 
2441-41-0

>  <UNII>  (1) 
M6V3RIU5KI

>  <SYNONYMS>  (1) 
2-(Hexadecanoylamino)acetic acid; Elmiric acid; N-(1-Oxohexadecyl)glycine; N-ethanoyl-hexadecanamide; N-Palmitoyl glycine; N-Palmitoylglycine

$$$$
