
     RDKit          2D

 10  4  0  0  0  0  0  0  0  0999 V2000
   -1.0312    0.1105    0.0000 C   0  0  0  0  0  0  0  0  0  0  0  0
   -1.4437    0.8250    0.0000 C   0  0  0  0  0  0  0  0  0  0  0  0
   -0.2062    0.1105    0.0000 N   0  0  0  0  0  0  0  0  0  0  0  0
   -1.0312    1.5394    0.0000 O   0  0  0  0  0  0  0  0  0  0  0  0
   -2.2687    0.8250    0.0000 O   0  0  0  0  0  0  0  0  0  0  0  0
   -3.0937    0.8250    0.0000 Al  0  0  0  0  0 15  0  0  0  0  0  0
    3.0937    0.7059    0.0000 Cl  0  0  0  0  0  0  0  0  0  0  0  0
   -1.5125   -1.5394    0.0000 O   0  0  0  0  0  0  0  0  0  0  0  0
    0.8446   -1.5394    0.0000 O   0  0  0  0  0  0  0  0  0  0  0  0
    2.2687    0.7059    0.0000 Zr  0  0  0  0  0 15  0  0  0  0  0  0
  2  1  1  0
  3  1  1  0
  4  2  2  0
  5  2  1  0
M  CHG  4   5  -1   6   3   7  -1  10   4
M  END
>  <DRUGBANK_ID>  (1) 
DB11200

>  <COMMON_NAME>  (1) 
Aluminum zirconium octachlorohydrex gly

>  <CAS_NUMBER>  (1) 
174514-58-0

>  <UNII>  (1) 
P9D3YP29MY

>  <SYNONYMS>  (1) 
Aluminium zirconium octachlorohydrex gly; Aluminium zirconium octachlorohydrex glycine complex; Aluminum zirconium octachlorohydrex gly; Aluminum zirconium octachlorohydrex glycine complex

$$$$
