JCL
     RDKit          2D

 18 18  0  0  0  0  0  0  0  0999 V2000
   -2.8479   -0.1684    0.0000 N   0  0  0  0  0  0  0  0  0  0  0  0
   -2.1334    1.0691    0.0000 N   0  0  0  0  0  0  0  0  0  0  0  0
   -1.4189    0.6566    0.0000 C   0  0  0  0  0  0  0  0  0  0  0  0
   -0.7045    1.0691    0.0000 Cl  0  0  0  0  0  0  0  0  0  0  0  0
   -1.4189   -0.1684    0.0000 C   0  0  0  0  0  0  0  0  0  0  0  0
   -0.7045   -0.5809    0.0000 C   0  0  0  0  0  0  0  0  0  0  0  0
   -2.8479    0.6566    0.0000 C   0  0  0  0  0  0  0  0  0  0  0  0
   -2.1334   -0.5809    0.0000 C   0  0  0  0  0  0  0  0  0  0  0  0
   -3.5624    1.0691    0.0000 O   0  0  0  0  0  0  0  0  0  0  0  0
   -2.1334   -1.4059    0.0000 O   0  0  0  0  0  0  0  0  0  0  0  0
    0.0100   -0.1684    0.0000 C   0  0  0  0  0  0  0  0  0  0  0  0
    0.7245   -0.5809    0.0000 C   0  0  0  0  0  0  0  0  0  0  0  0
    1.4389   -0.1684    0.0000 C   0  0  0  0  0  0  0  0  0  0  0  0
    2.1534   -0.5809    0.0000 O   0  0  0  0  0  0  0  0  0  0  0  0
    2.8679   -0.1684    0.0000 P   0  0  0  0  0  0  0  0  0  0  0  0
    3.5823    0.2441    0.0000 O   0  0  0  0  0  0  0  0  0  0  0  0
    3.2804   -0.8829    0.0000 O   0  0  0  0  0  0  0  0  0  0  0  0
    2.4554    0.5460    0.0000 O   0  0  0  0  0  0  0  0  0  0  0  0
  1  7  1  0
  1  8  1  0
  2  3  1  0
  2  7  1  0
  3  4  1  0
  3  5  2  0
  5  6  1  0
  5  8  1  0
  6 11  1  0
  7  9  2  0
  8 10  2  0
 11 12  1  0
 12 13  1  0
 13 14  1  0
 14 15  1  0
 15 16  1  0
 15 17  1  0
 15 18  2  0
M  END
>  <DRUGBANK_ID>  (1) 
DB08016

>  <COMMON_NAME>  (1) 
4-(6-CHLORO-2,4-DIOXO-1,2,3,4-TETRAHYDROPYRIMIDIN-5-YL) BUTYL PHOSPHATE

$$$$
