
     RDKit          2D

 38 40  0  0  0  0  0  0  0  0999 V2000
   -5.9189   -5.3448    0.0000 C   0  0  0  0  0  0  0  0  0  0  0  0
   -5.1343   -5.5997    0.0000 C   0  0  0  0  0  0  0  0  0  0  0  0
   -4.5212   -5.0477    0.0000 C   0  0  0  0  0  0  0  0  0  0  0  0
   -4.9627   -6.4067    0.0000 C   0  0  0  0  0  0  0  0  0  0  0  0
   -4.2091   -6.7422    0.0000 C   0  0  0  0  0  0  0  0  0  0  0  0
   -4.2953   -7.5627    0.0000 N   0  0  0  0  0  0  0  0  0  0  0  0
   -5.1023   -7.7342    0.0000 C   0  0  0  0  0  0  0  0  0  0  0  0
   -5.4378   -8.4879    0.0000 N   0  0  0  0  0  0  0  0  0  0  0  0
   -6.2583   -8.5741    0.0000 C   0  0  0  0  0  0  0  0  0  0  0  0
   -6.7432   -7.9067    0.0000 O   0  0  0  0  0  0  0  0  0  0  0  0
   -6.5939   -9.3278    0.0000 C   0  0  0  0  0  0  0  0  0  0  0  0
   -6.1814  -10.0423    0.0000 C   0  0  0  0  0  0  0  0  0  0  0  0
   -6.7334  -10.6554    0.0000 C   0  0  0  0  0  0  0  0  0  0  0  0
   -6.5619  -11.4624    0.0000 N   0  0  0  0  0  0  0  0  0  0  0  0
   -7.1750  -12.0144    0.0000 C   0  0  0  0  0  0  0  0  0  0  0  0
   -7.9596  -11.7595    0.0000 O   0  0  0  0  0  0  0  0  0  0  0  0
   -7.0034  -12.8214    0.0000 C   0  0  0  0  0  0  0  0  0  0  0  0
   -6.2498  -13.1569    0.0000 C   0  0  0  0  0  0  0  0  0  0  0  0
   -6.3360  -13.9774    0.0000 C   0  0  0  0  0  0  0  0  0  0  0  0
   -5.7229  -14.5294    0.0000 N   0  0  0  0  0  0  0  0  0  0  0  0
   -5.8944  -15.3364    0.0000 C   0  0  0  0  0  0  0  0  0  0  0  0
   -5.2813  -15.8884    0.0000 O   0  0  0  0  0  0  0  0  0  0  0  0
   -7.1430  -14.1489    0.0000 C   0  0  0  0  0  0  0  0  0  0  0  0
   -7.5555  -13.4345    0.0000 N   0  0  0  0  0  0  0  0  0  0  0  0
   -8.3760  -13.3482    0.0000 C   0  0  0  0  0  0  0  0  0  0  0  0
   -7.4871  -10.3198    0.0000 C   0  0  0  0  0  0  0  0  0  0  0  0
   -7.4008   -9.4994    0.0000 N   0  0  0  0  0  0  0  0  0  0  0  0
   -8.0139   -8.9473    0.0000 C   0  0  0  0  0  0  0  0  0  0  0  0
   -5.5148   -7.0198    0.0000 S   0  0  0  0  0  0  0  0  0  0  0  0
   -3.4946   -6.3297    0.0000 C   0  0  0  0  0  0  0  0  0  0  0  0
   -3.4946   -5.5047    0.0000 O   0  0  0  0  0  0  0  0  0  0  0  0
   -2.7801   -6.7422    0.0000 N   0  0  0  0  0  0  0  0  0  0  0  0
   -2.0656   -6.3297    0.0000 C   0  0  0  0  0  0  0  0  0  0  0  0
   -1.3512   -6.7422    0.0000 C   0  0  0  0  0  0  0  0  0  0  0  0
   -0.6367   -6.3297    0.0000 C   0  0  0  0  0  0  0  0  0  0  0  0
    0.0778   -6.7422    0.0000 N   0  0  0  0  0  0  0  0  0  0  0  0
    0.7922   -6.3297    0.0000 C   0  0  0  0  0  0  0  0  0  0  0  0
    0.0778   -7.5672    0.0000 C   0  0  0  0  0  0  0  0  0  0  0  0
  1  2  1  0
  2  3  1  0
  2  4  1  0
  4  5  2  0
  4 29  1  0
  5  6  1  0
  5 30  1  0
  6  7  2  0
  7  8  1  0
  7 29  1  0
  8  9  1  0
  9 10  2  0
  9 11  1  0
 11 12  2  0
 11 27  1  0
 12 13  1  0
 13 14  1  0
 13 26  2  0
 14 15  1  0
 15 16  2  0
 15 17  1  0
 17 18  2  0
 17 24  1  0
 18 19  1  0
 19 20  1  0
 19 23  2  0
 20 21  1  0
 21 22  2  0
 23 24  1  0
 24 25  1  0
 26 27  1  0
 27 28  1  0
 30 31  2  0
 30 32  1  0
 32 33  1  0
 33 34  1  0
 34 35  1  0
 35 36  1  0
 36 37  1  0
 36 38  1  0
M  END
>  <DRUGBANK_ID>  (1) 
DB02295

>  <SECONDARY_ACCESSION_NUMBERS>  (1) 
EXPT00474

>  <COMMON_NAME>  (1) 
N-[3-(Dimethylamino)Propyl]-2-({[4-({[4-(Formylamino)-1-Methyl-1h-Pyrrol-2-Yl]Carbonyl}Amino)-1-Methyl-1h-Pyrrol-2-Yl]Carbonyl}Amino)-5-Isopropyl-1,3-Thiazole-4-Carboxamide

$$$$
