AUR
     RDKit          2D

 33 35  0  0  0  0  0  0  0  0999 V2000
   -1.7171   -0.6028    0.0000 C   0  0  0  0  0  0  0  0  0  0  0  0
   -1.8687    0.2241    0.0000 C   0  0  0  0  0  0  0  0  0  0  0  0
   -2.1093    1.0897    0.0000 C   0  0  0  0  0  0  0  0  0  0  0  0
   -1.7888    1.7983    0.0000 C   0  0  0  0  0  0  0  0  0  0  0  0
   -2.2669    1.9907    0.0000 C   0  0  0  0  0  0  0  0  0  0  0  0
   -2.2097    1.4251    0.0000 C   0  0  0  0  0  0  0  0  0  0  0  0
   -1.2380    1.4251    0.0000 C   0  0  0  0  0  0  0  0  0  0  0  0
   -0.7218    0.9964    0.0000 C   0  0  0  0  0  0  0  0  0  0  0  0
   -1.7476    2.7170    0.0000 C   0  0  0  0  0  0  0  0  0  0  0  0
   -3.1007    1.4397    0.0000 C   0  0  0  0  0  0  0  0  0  0  0  0
   -4.3334    2.6585    0.0000 C   0  0  0  0  0  0  0  0  0  0  0  0
   -3.6267    3.0842    0.0000 C   0  0  0  0  0  0  0  0  0  0  0  0
   -2.7296    0.7128    0.0000 O   0  0  0  0  0  0  0  0  0  0  0  0
   -0.8600    1.8138    0.0000 O   0  0  0  0  0  0  0  0  0  0  0  0
   -2.8633    2.6621    0.0000 O   0  0  0  0  0  0  0  0  0  0  0  0
   -0.9397    2.3776    0.0000 O   0  0  0  0  0  0  0  0  0  0  0  0
   -3.6420    3.9090    0.0000 O   0  0  0  0  0  0  0  0  0  0  0  0
   -0.1488    0.3295    0.0000 C   0  0  0  0  0  0  0  0  0  0  0  0
    0.7080    0.1968    0.0000 C   0  0  0  0  0  0  0  0  0  0  0  0
    1.0063   -0.5723    0.0000 C   0  0  0  0  0  0  0  0  0  0  0  0
    1.8216   -0.6986    0.0000 C   0  0  0  0  0  0  0  0  0  0  0  0
    2.1199   -1.4678    0.0000 C   0  0  0  0  0  0  0  0  0  0  0  0
    2.9352   -1.5940    0.0000 C   0  0  0  0  0  0  0  0  0  0  0  0
    3.2335   -2.3632    0.0000 C   0  0  0  0  0  0  0  0  0  0  0  0
    4.0488   -2.4895    0.0000 C   0  0  0  0  0  0  0  0  0  0  0  0
    4.3471   -3.2587    0.0000 C   0  0  0  0  0  0  0  0  0  0  0  0
    3.8301   -3.9016    0.0000 C   0  0  0  0  0  0  0  0  0  0  0  0
    3.0148   -3.7753    0.0000 C   0  0  0  0  0  0  0  0  0  0  0  0
    4.5658   -1.8466    0.0000 C   0  0  0  0  0  0  0  0  0  0  0  0
    5.6793   -2.7420    0.0000 C   0  0  0  0  0  0  0  0  0  0  0  0
    2.7165   -3.0061    0.0000 O   0  0  0  0  0  0  0  0  0  0  0  0
    5.1624   -3.3849    0.0000 O   0  0  0  0  0  0  0  0  0  0  0  0
    2.4978   -4.4183    0.0000 O   0  0  0  0  0  0  0  0  0  0  0  0
  1  2  1  0
  3  2  1  1
  3  4  1  0
  3 13  1  0
  4  5  1  0
  4  9  1  6
  4 14  1  0
  5  6  1  0
  5 15  1  6
  6  7  1  0
  6 10  1  1
  6 13  1  0
  7  8  1  0
  7 16  1  1
  8 14  1  0
  8 18  1  1
 11 12  1  0
 12 15  1  0
 12 17  2  0
 18 19  2  0
 19 20  1  0
 20 21  2  0
 21 22  1  0
 22 23  2  0
 23 24  1  0
 24 25  2  0
 24 31  1  0
 25 26  1  0
 25 29  1  0
 26 27  2  0
 26 32  1  0
 27 28  1  0
 28 31  1  0
 28 33  2  0
 30 32  1  0
M  END
>  <DRUGBANK_ID>  (1) 
DB07394

>  <COMMON_NAME>  (1) 
AUROVERTIN B

$$$$
