
     RDKit          2D

  1  0  0  0  0  0  0  0  0  0999 V2000
    0.0000    0.0000    0.0000 Mg  0  0  0  0  0  2  0  0  0  0  0  0
M  END
>  <DRUGBANK_ID>  (1) 
DB14513

>  <COMMON_NAME>  (1) 
Magnesium

>  <CAS_NUMBER>  (1) 
7439-95-4

>  <UNII>  (1) 
I38ZP9992A

>  <SYNONYMS>  (1) 
Magnesio; Magn√©sium; Magnesium metallicum; Magnesium powder; Mg

$$$$
