
     RDKit          2D

 22 24  0  0  1  0  0  0  0  0999 V2000
   -1.5269   -2.2058    0.0000 C   0  0  0  0  0  0  0  0  0  0  0  0
   -0.9966   -2.8377    0.0000 C   0  0  0  0  0  0  0  0  0  0  0  0
   -0.2822   -3.2502    0.0000 C   0  0  0  0  0  0  0  0  0  0  0  0
   -0.2822   -4.0752    0.0000 C   0  0  0  0  0  0  0  0  0  0  0  0
   -0.9966   -4.4877    0.0000 S   0  0  0  0  0  0  0  0  0  0  0  0
   -1.7111   -4.0752    0.0000 C   0  0  0  0  0  0  0  0  0  0  0  0
   -1.7111   -3.2502    0.0000 N   0  0  0  0  0  0  0  0  0  0  0  0
   -2.4256   -4.4877    0.0000 N   0  0  0  0  0  0  0  0  0  0  0  0
   -0.4663   -2.2058    0.0000 C   0  0  0  0  0  0  0  0  0  0  0  0
   -0.7485   -1.4305    0.0000 C   0  0  0  0  0  0  0  0  0  0  0  0
   -0.2182   -0.7985    0.0000 C   0  0  0  0  0  0  0  0  0  0  0  0
    0.5943   -0.9418    0.0000 C   0  0  0  0  0  0  0  0  0  0  0  0
    0.8764   -1.7170    0.0000 C   0  0  0  0  0  0  0  0  0  0  0  0
    0.3461   -2.3490    0.0000 C   0  0  0  0  0  0  0  0  0  0  0  0
    0.6283   -3.1243    0.0000 F   0  0  0  0  0  0  0  0  0  0  0  0
    1.1246   -0.3098    0.0000 F   0  0  0  0  0  0  0  0  0  0  0  0
   -0.5004   -0.0233    0.0000 C   0  0  0  0  0  0  0  0  0  0  0  0
   -1.3128    0.1200    0.0000 C   0  0  0  0  0  0  0  0  0  0  0  0
   -1.5950    0.8952    0.0000 N   0  0  0  0  0  0  0  0  0  0  0  0
   -1.0647    1.5272    0.0000 C   0  0  0  0  0  0  0  0  0  0  0  0
   -0.2522    1.3840    0.0000 N   0  0  0  0  0  0  0  0  0  0  0  0
    0.0299    0.6087    0.0000 C   0  0  0  0  0  0  0  0  0  0  0  0
  2  1  1  1
  2  3  1  0
  2  7  1  0
  2  9  1  0
  3  4  1  0
  4  5  1  0
  5  6  1  0
  6  7  2  0
  6  8  1  0
  9 10  2  0
  9 14  1  0
 10 11  1  0
 11 12  2  0
 11 17  1  0
 12 13  1  0
 12 16  1  0
 13 14  2  0
 14 15  1  0
 17 18  2  0
 17 22  1  0
 18 19  1  0
 19 20  2  0
 20 21  1  0
 21 22  2  0
M  END
>  <DRUGBANK_ID>  (1) 
DB13065

>  <COMMON_NAME>  (1) 
LY-2811376

>  <CAS_NUMBER>  (1) 
1194044-20-6

>  <UNII>  (1) 
UR18YJ97SJ

$$$$
