ZZ2
     RDKit          2D

 13 13  0  0  0  0  0  0  0  0999 V2000
   -2.5783    0.6405    0.0000 N   0  0  0  0  0  0  0  0  0  0  0  0
   -1.8638    0.2280    0.0000 C   0  0  0  0  0  0  0  0  0  0  0  0
   -1.1493    0.6405    0.0000 N   0  0  0  0  0  0  0  0  0  0  0  0
   -0.4348    0.2280    0.0000 C   0  0  0  0  0  0  0  0  0  0  0  0
   -0.4348   -0.5970    0.0000 C   0  0  0  0  0  0  0  0  0  0  0  0
   -1.1493   -1.0095    0.0000 C   0  0  0  0  0  0  0  0  0  0  0  0
   -1.1493   -1.8345    0.0000 C   0  0  0  0  0  0  0  0  0  0  0  0
   -1.8638   -0.5970    0.0000 N   0  0  0  0  0  0  0  0  0  0  0  0
    0.2796    0.6405    0.0000 O   0  0  0  0  0  0  0  0  0  0  0  0
    0.9941    0.2280    0.0000 C   0  0  0  0  0  0  0  0  0  0  0  0
    1.7086    0.6405    0.0000 C   0  0  0  0  0  0  0  0  0  0  0  0
    2.4230    0.2280    0.0000 O   0  0  0  0  0  0  0  0  0  0  0  0
    3.1375    0.6405    0.0000 C   0  0  0  0  0  0  0  0  0  0  0  0
  1  2  1  0
  2  3  2  0
  2  8  1  0
  3  4  1  0
  4  5  2  0
  4  9  1  0
  5  6  1  0
  6  7  1  0
  6  8  2  0
  9 10  1  0
 10 11  1  0
 11 12  1  0
 12 13  1  0
M  END
>  <DRUGBANK_ID>  (1) 
DB08786

>  <COMMON_NAME>  (1) 
4-(2-methoxyethoxy)-6-methylpyrimidin-2-amine

$$$$
