LPF
     RDKit          2D

 26 26  0  0  0  0  0  0  0  0999 V2000
   -2.2617    0.1636    0.0000 C   0  0  0  0  0  0  0  0  0  0  0  0
   -3.0718    0.0077    0.0000 F   0  0  0  0  0  0  0  0  0  0  0  0
   -2.4176    0.9737    0.0000 F   0  0  0  0  0  0  0  0  0  0  0  0
   -2.1058   -0.6465    0.0000 F   0  0  0  0  0  0  0  0  0  0  0  0
   -1.4516    0.3195    0.0000 C   0  0  0  0  0  0  0  0  0  0  0  0
   -1.1815    1.0991    0.0000 O   0  0  0  0  0  0  0  0  0  0  0  0
   -0.9115   -0.3041    0.0000 C   0  0  0  0  0  0  0  0  0  0  0  0
   -1.1815   -1.0837    0.0000 C   0  0  0  0  0  0  0  0  0  0  0  0
   -1.9917   -1.2396    0.0000 C   0  0  0  0  0  0  0  0  0  0  0  0
   -2.2617   -2.0191    0.0000 C   0  0  0  0  0  0  0  0  0  0  0  0
   -3.0718   -2.1751    0.0000 C   0  0  0  0  0  0  0  0  0  0  0  0
   -3.6119   -1.5514    0.0000 C   0  0  0  0  0  0  0  0  0  0  0  0
   -3.3419   -0.7719    0.0000 C   0  0  0  0  0  0  0  0  0  0  0  0
   -2.5318   -0.6160    0.0000 C   0  0  0  0  0  0  0  0  0  0  0  0
   -0.1014   -0.1482    0.0000 N   0  0  0  0  0  0  0  0  0  0  0  0
    0.1687    0.6313    0.0000 C   0  0  0  0  0  0  0  0  0  0  0  0
   -0.3714    1.2550    0.0000 O   0  0  0  0  0  0  0  0  0  0  0  0
    0.9788    0.7872    0.0000 C   0  0  0  0  0  0  0  0  0  0  0  0
    1.2489    1.5668    0.0000 N   0  0  0  0  0  0  0  0  0  0  0  0
    0.7088    2.1904    0.0000 C   0  0  0  0  0  0  0  0  0  0  0  0
    0.9788    2.9700    0.0000 O   0  0  0  0  0  0  0  0  0  0  0  0
   -0.1014    2.0345    0.0000 C   0  0  0  0  0  0  0  0  0  0  0  0
    1.5189    0.1636    0.0000 C   0  0  0  0  0  0  0  0  0  0  0  0
    2.3290    0.3195    0.0000 C   0  0  0  0  0  0  0  0  0  0  0  0
    2.5991    1.0991    0.0000 C   0  0  0  0  0  0  0  0  0  0  0  0
    2.8691   -0.3041    0.0000 C   0  0  0  0  0  0  0  0  0  0  0  0
  1  2  1  0
  1  3  1  0
  1  4  1  0
  1  5  1  0
  5  6  2  0
  5  7  1  0
  7  8  1  1
  7 15  1  0
  8  9  1  0
  9 10  2  0
  9 14  1  0
 10 11  1  0
 11 12  2  0
 12 13  1  0
 13 14  2  0
 15 16  1  0
 16 17  2  0
 16 18  1  0
 18 19  1  0
 18 23  1  1
 19 20  1  0
 20 21  2  0
 20 22  1  0
 23 24  1  0
 24 25  1  0
 24 26  1  0
M  END
>  <DRUGBANK_ID>  (1) 
DB08119

>  <COMMON_NAME>  (1) 
1,1,1-TRIFLUORO-3-((N-ACETYL)-L-LEUCYLAMIDO)-4-PHENYL-BUTAN-2-ONE(N-ACETYL-L-LEUCYL-L-PHENYLALANYL TRIFLUOROMETHYL KETONE)

$$$$
