
     RDKit          2D

 21 22  0  0  0  0  0  0  0  0999 V2000
   -2.6871    0.0825    0.0000 C   0  0  0  0  0  0  0  0  0  0  0  0
   -3.5076    0.1687    0.0000 C   0  0  0  0  0  0  0  0  0  0  0  0
   -3.9925   -0.4987    0.0000 C   0  0  0  0  0  0  0  0  0  0  0  0
   -4.8130   -0.4125    0.0000 C   0  0  0  0  0  0  0  0  0  0  0  0
   -5.2979   -1.0799    0.0000 C   0  0  0  0  0  0  0  0  0  0  0  0
   -6.1184   -0.9937    0.0000 C   0  0  0  0  0  0  0  0  0  0  0  0
   -6.4539   -0.2400    0.0000 C   0  0  0  0  0  0  0  0  0  0  0  0
   -5.9690    0.4274    0.0000 C   0  0  0  0  0  0  0  0  0  0  0  0
   -5.1485    0.3412    0.0000 C   0  0  0  0  0  0  0  0  0  0  0  0
   -3.6569   -1.2524    0.0000 C   0  0  0  0  0  0  0  0  0  0  0  0
   -2.8500   -1.4239    0.0000 N   0  0  0  0  0  0  0  0  0  0  0  0
   -2.7637   -2.2444    0.0000 C   0  0  0  0  0  0  0  0  0  0  0  0
   -3.5174   -2.5800    0.0000 O   0  0  0  0  0  0  0  0  0  0  0  0
   -4.0694   -1.9669    0.0000 N   0  0  0  0  0  0  0  0  0  0  0  0
   -2.0492   -2.6569    0.0000 C   0  0  0  0  0  0  0  0  0  0  0  0
   -2.0492   -3.4819    0.0000 C   0  0  0  0  0  0  0  0  0  0  0  0
   -1.3348   -3.8944    0.0000 N   0  0  0  0  0  0  0  0  0  0  0  0
   -1.3348   -4.7194    0.0000 C   0  0  0  0  0  0  0  0  0  0  0  0
   -0.6203   -5.1319    0.0000 C   0  0  0  0  0  0  0  0  0  0  0  0
   -0.6203   -3.4819    0.0000 C   0  0  0  0  0  0  0  0  0  0  0  0
    0.0942   -3.8944    0.0000 C   0  0  0  0  0  0  0  0  0  0  0  0
  1  2  1  0
  2  3  1  0
  3  4  1  0
  3 10  1  0
  4  5  2  0
  4  9  1  0
  5  6  1  0
  6  7  2  0
  7  8  1  0
  8  9  2  0
 10 11  1  0
 10 14  2  0
 11 12  2  0
 12 13  1  0
 12 15  1  0
 13 14  1  0
 15 16  1  0
 16 17  1  0
 17 18  1  0
 17 20  1  0
 18 19  1  0
 20 21  1  0
M  END
>  <DRUGBANK_ID>  (1) 
DB13819

>  <COMMON_NAME>  (1) 
Proxazole

>  <CAS_NUMBER>  (1) 
5696-09-3

>  <UNII>  (1) 
FD72T13M0K

>  <SYNONYMS>  (1) 
Proxazole

$$$$
