TUI
     RDKit          2D

 33 36  0  0  0  0  0  0  0  0999 V2000
    0.3049   -1.6598    0.0000 O   0  0  0  0  0  0  0  0  0  0  0  0
   -0.4096   -1.2473    0.0000 C   0  0  0  0  0  0  0  0  0  0  0  0
   -1.1241   -1.6598    0.0000 N   0  0  0  0  0  0  0  0  0  0  0  0
   -1.1241   -2.4848    0.0000 C   0  0  0  0  0  0  0  0  0  0  0  0
   -1.7915   -2.9697    0.0000 S   0  0  0  0  0  0  0  0  0  0  0  0
   -1.5366   -3.7543    0.0000 C   0  0  0  0  0  0  0  0  0  0  0  0
   -2.0215   -4.4218    0.0000 S   0  0  0  0  0  0  0  0  0  0  0  0
   -1.6860   -5.1754    0.0000 C   0  0  0  0  0  0  0  0  0  0  0  0
   -2.1709   -5.8429    0.0000 N   0  0  0  0  0  0  0  0  0  0  0  0
   -1.8353   -6.5966    0.0000 C   0  0  0  0  0  0  0  0  0  0  0  0
   -1.0148   -6.6828    0.0000 C   0  0  0  0  0  0  0  0  0  0  0  0
   -0.5299   -6.0154    0.0000 C   0  0  0  0  0  0  0  0  0  0  0  0
   -0.8655   -5.2617    0.0000 C   0  0  0  0  0  0  0  0  0  0  0  0
   -0.7116   -3.7543    0.0000 C   0  0  0  0  0  0  0  0  0  0  0  0
   -0.4566   -2.9697    0.0000 N   0  0  0  0  0  0  0  0  0  0  0  0
   -0.4096   -0.4223    0.0000 N   0  0  0  0  0  0  0  0  0  0  0  0
    0.3049   -0.0098    0.0000 C   0  0  0  0  0  0  0  0  0  0  0  0
    0.3049    0.8152    0.0000 C   0  0  0  0  0  0  0  0  0  0  0  0
    0.9723    1.3001    0.0000 N   0  0  0  0  0  0  0  0  0  0  0  0
   -0.3626    1.3001    0.0000 N   0  0  0  0  0  0  0  0  0  0  0  0
   -0.1076    2.0848    0.0000 C   0  0  0  0  0  0  0  0  0  0  0  0
    0.7174    2.0848    0.0000 C   0  0  0  0  0  0  0  0  0  0  0  0
    1.2023    2.7522    0.0000 C   0  0  0  0  0  0  0  0  0  0  0  0
    2.0228    2.6660    0.0000 C   0  0  0  0  0  0  0  0  0  0  0  0
    2.5077    3.3334    0.0000 C   0  0  0  0  0  0  0  0  0  0  0  0
    0.8667    3.5059    0.0000 C   0  0  0  0  0  0  0  0  0  0  0  0
    1.3516    4.1733    0.0000 C   0  0  0  0  0  0  0  0  0  0  0  0
    2.1721    4.0871    0.0000 C   0  0  0  0  0  0  0  0  0  0  0  0
    2.6570    4.7545    0.0000 O   0  0  0  0  0  0  0  0  0  0  0  0
    2.3215    5.5082    0.0000 C   0  0  0  0  0  0  0  0  0  0  0  0
    2.8064    6.1756    0.0000 C   0  0  0  0  0  0  0  0  0  0  0  0
    2.4709    6.9293    0.0000 O   0  0  0  0  0  0  0  0  0  0  0  0
    3.6269    6.0894    0.0000 O   0  0  0  0  0  0  0  0  0  0  0  0
  1  2  2  0
  2 16  1  0
  2  3  1  0
  3  4  1  0
  4 15  2  0
  4  5  1  0
  5  6  1  0
  6 14  2  0
  6  7  1  0
  7  8  1  0
  8 13  1  0
  8  9  2  0
  9 10  1  0
 10 11  2  0
 11 12  1  0
 12 13  2  0
 14 15  1  0
 16 17  1  0
 17 18  1  0
 18 20  1  0
 18 19  2  0
 19 22  1  0
 20 21  1  0
 21 22  2  0
 22 23  1  0
 23 26  1  0
 23 24  2  0
 24 25  1  0
 25 28  2  0
 26 27  2  0
 27 28  1  0
 28 29  1  0
 29 30  1  0
 30 31  1  0
 31 32  1  0
 31 33  2  0
M  END
>  <DRUGBANK_ID>  (1) 
DB08657

>  <COMMON_NAME>  (1) 
2-(4-(2-((3-(5-(PYRIDIN-2-YLTHIO)THIAZOL-2-YL)UREIDO)METHYL)-1H-IMIDAZOL-4-YL)PHENOXY)ACETIC ACID

$$$$
