
     RDKit          2D

 19 19  0  0  0  0  0  0  0  0999 V2000
    0.1191   -1.0313    0.0000 C   0  0  0  0  0  0  0  0  0  0  0  0
    0.1191   -0.2062    0.0000 C   0  0  0  0  0  0  0  0  0  0  0  0
    0.9441   -0.2063    0.0000 C   0  0  0  0  0  0  0  0  0  0  0  0
    0.1191    0.6188    0.0000 C   0  0  0  0  0  0  0  0  0  0  0  0
   -0.5954    1.0313    0.0000 O   0  0  0  0  0  0  0  0  0  0  0  0
   -0.7059   -0.2062    0.0000 N   0  0  0  0  0  0  0  0  0  0  0  0
    4.8138   -1.6500    0.0000 C   0  0  0  0  0  0  0  0  0  0  0  0
    4.8138   -0.8250    0.0000 N   0  0  0  0  0  0  0  0  0  0  0  0
    4.0993   -0.4125    0.0000 C   0  0  0  0  0  0  0  0  0  0  0  0
    4.0993    0.4125    0.0000 C   0  0  0  0  0  0  0  0  0  0  0  0
    4.8138    0.8250    0.0000 C   0  0  0  0  0  0  0  0  0  0  0  0
    4.8138    1.6500    0.0000 O   0  0  0  0  0  0  0  0  0  0  0  0
    5.5283    0.4125    0.0000 N   0  0  0  0  0  0  0  0  0  0  0  0
    5.5283   -0.4125    0.0000 C   0  0  0  0  0  0  0  0  0  0  0  0
    6.2428   -0.8250    0.0000 O   0  0  0  0  0  0  0  0  0  0  0  0
    6.2428    0.8250    0.0000 C   0  0  0  0  0  0  0  0  0  0  0  0
    3.3147    0.6674    0.0000 N   0  0  0  0  0  0  0  0  0  0  0  0
    2.8298    0.0000    0.0000 C   0  0  0  0  0  0  0  0  0  0  0  0
    3.3147   -0.6674    0.0000 N   0  0  0  0  0  0  0  0  0  0  0  0
  1  2  1  0
  2  3  1  0
  2  4  1  0
  2  6  1  0
  4  5  1  0
  7  8  1  0
  8  9  1  0
  8 14  1  0
  9 10  2  0
  9 19  1  0
 10 11  1  0
 10 17  1  0
 11 12  2  0
 11 13  1  0
 13 14  1  0
 13 16  1  0
 14 15  2  0
 17 18  2  0
 18 19  1  0
M  END
>  <DRUGBANK_ID>  (1) 
DB13812

>  <COMMON_NAME>  (1) 
Bufylline

>  <CAS_NUMBER>  (1) 
5634-34-4

>  <UNII>  (1) 
VOU5V0B772

>  <SYNONYMS>  (1) 
Ambuphylline

$$$$
