
     RDKit          2D

 15 13  0  0  0  0  0  0  0  0999 V2000
   -1.7862   -0.2062    0.0000 C   0  0  0  0  0  0  0  0  0  0  0  0
   -1.0717    0.2063    0.0000 C   0  0  0  0  0  0  0  0  0  0  0  0
   -1.0717    1.0313    0.0000 O   0  0  0  0  0  0  0  0  0  0  0  0
   -0.3572   -0.2063    0.0000 N   0  0  0  0  0  0  0  0  0  0  0  0
    0.3572    0.2063    0.0000 C   0  0  0  0  0  0  0  0  0  0  0  0
    1.0717   -0.2063    0.0000 C   0  0  0  0  0  0  0  0  0  0  0  0
    1.7862    0.2062    0.0000 O   0  0  0  0  0  0  0  0  0  0  0  0
    1.0717   -1.0313    0.0000 O   0  0  0  0  0  0  0  0  0  0  0  0
    4.4969   -0.4083    0.0000 C   0  0  0  0  0  0  0  0  0  0  0  0
    4.9094    0.3062    0.0000 C   0  0  0  0  0  0  0  0  0  0  0  0
    5.3219    1.0207    0.0000 Cl  0  0  0  0  0  0  0  0  0  0  0  0
    4.1949    0.7187    0.0000 Cl  0  0  0  0  0  0  0  0  0  0  0  0
    5.6239   -0.1063    0.0000 Cl  0  0  0  0  0  0  0  0  0  0  0  0
    4.9094   -1.1227    0.0000 O   0  0  0  0  0  0  0  0  0  0  0  0
    3.6719   -0.4083    0.0000 O   0  0  0  0  0  0  0  0  0  0  0  0
  1  2  1  0
  2  3  2  0
  2  4  1  0
  4  5  1  0
  5  6  1  0
  6  7  2  0
  6  8  1  0
  9 10  1  0
  9 14  1  0
  9 15  1  0
 10 11  1  0
 10 12  1  0
 10 13  1  0
M  END
>  <DRUGBANK_ID>  (1) 
DB13402

>  <COMMON_NAME>  (1) 
Acetylglycinamide chloral hydrate

>  <CAS_NUMBER>  (1) 
17427-14-4

>  <UNII>  (1) 
6WZ3595RLZ

$$$$
