
     RDKit          2D

 30 33  0  0  0  0  0  0  0  0999 V2000
    0.6984    0.3456    0.0000 C   0  0  0  0  0  0  0  0  0  0  0  0
   -0.0164    0.7574    0.0000 C   0  0  0  0  0  0  0  0  0  0  0  0
    0.6984    1.1694    0.0000 C   0  0  0  0  0  0  0  0  0  0  0  0
   -0.7268    1.1694    0.0000 C   0  0  0  0  0  0  0  0  0  0  0  0
   -0.7268    1.9932    0.0000 C   0  0  0  0  0  0  0  0  0  0  0  0
   -1.4416    2.4051    0.0000 C   0  0  0  0  0  0  0  0  0  0  0  0
   -2.1566    1.9932    0.0000 C   0  0  0  0  0  0  0  0  0  0  0  0
   -2.1566    1.1694    0.0000 C   0  0  0  0  0  0  0  0  0  0  0  0
   -1.4416    0.7574    0.0000 C   0  0  0  0  0  0  0  0  0  0  0  0
   -1.4416    3.2289    0.0000 F   0  0  0  0  0  0  0  0  0  0  0  0
   -0.7268    0.3456    0.0000 C   0  0  0  0  0  0  0  0  0  0  0  0
   -0.7268   -0.4828    0.0000 O   0  0  0  0  0  0  0  0  0  0  0  0
   -1.4416   -0.8948    0.0000 C   0  0  0  0  0  0  0  0  0  0  0  0
   -2.1566   -0.4828    0.0000 C   0  0  0  0  0  0  0  0  0  0  0  0
   -2.8716   -0.8948    0.0000 N   0  0  0  0  0  0  0  0  0  0  0  0
   -2.8716   -1.7185    0.0000 C   0  0  0  0  0  0  0  0  0  0  0  0
   -2.1566   -2.1305    0.0000 N   0  0  0  0  0  0  0  0  0  0  0  0
   -1.4416   -1.7185    0.0000 C   0  0  0  0  0  0  0  0  0  0  0  0
   -3.5865   -2.1305    0.0000 C   0  0  0  0  0  0  0  0  0  0  0  0
   -2.1566    0.3456    0.0000 C   0  0  0  0  0  0  0  0  0  0  0  0
    1.1103   -0.3693    0.0000 C   0  0  0  0  0  0  0  0  0  0  0  0
    0.6984   -1.0841    0.0000 O   0  0  0  0  0  0  0  0  0  0  0  0
    1.9389   -0.3693    0.0000 N   0  0  0  0  0  0  0  0  0  0  0  0
    2.3507   -1.0841    0.0000 C   0  0  0  0  0  0  0  0  0  0  0  0
    3.1746   -1.0841    0.0000 C   0  0  0  0  0  0  0  0  0  0  0  0
    3.5865   -1.7991    0.0000 C   0  0  0  0  0  0  0  0  0  0  0  0
    3.1746   -2.5142    0.0000 C   0  0  0  0  0  0  0  0  0  0  0  0
    2.3507   -2.5142    0.0000 C   0  0  0  0  0  0  0  0  0  0  0  0
    1.9389   -1.7991    0.0000 N   0  0  0  0  0  0  0  0  0  0  0  0
    3.5865   -3.2289    0.0000 F   0  0  0  0  0  0  0  0  0  0  0  0
  1  2  1  0
  1  3  1  0
  1 21  1  1
  2  3  1  0
  2  4  1  0
  2 11  1  1
  4  5  2  0
  4  9  1  0
  5  6  1  0
  6  7  2  0
  6 10  1  0
  7  8  1  0
  8  9  2  0
 11 12  1  0
 12 13  1  0
 13 18  1  0
 14 13  2  0
 14 20  1  0
 15 14  1  0
 16 15  2  0
 16 17  1  0
 16 19  1  0
 18 17  2  0
 21 22  2  0
 21 23  1  0
 23 24  1  0
 24 25  2  0
 24 29  1  0
 25 26  1  0
 26 27  2  0
 27 28  1  0
 27 30  1  0
 28 29  2  0
M  END
>  <DRUGBANK_ID>  (1) 
DB11951

>  <COMMON_NAME>  (1) 
Lemborexant

>  <CAS_NUMBER>  (1) 
1369764-02-2

>  <UNII>  (1) 
0K5743G68X

>  <SYNONYMS>  (1) 
Lemborexant

$$$$
