
     RDKit          2D

 14 15  0  0  1  0  0  0  0  0999 V2000
    3.3523    1.1104    0.0000 C   0  0  0  0  0  0  0  0  0  0  0  0
    3.3523    1.9354    0.0000 C   0  0  0  0  0  0  0  0  0  0  0  0
    2.6378    0.6979    0.0000 C   0  0  0  0  0  0  0  0  0  0  0  0
    2.6378    2.3479    0.0000 C   0  0  0  0  0  0  0  0  0  0  0  0
    1.1387    0.8555    0.0000 C   0  0  0  0  0  0  0  0  0  0  0  0
    1.1387    2.1904    0.0000 C   0  0  0  0  0  0  0  0  0  0  0  0
    1.9233    1.1104    0.0000 C   0  0  0  0  0  0  0  0  0  0  0  0
    1.9233    1.9354    0.0000 C   0  0  0  0  0  0  0  0  0  0  0  0
    0.6538    1.5229    0.0000 C   0  0  0  0  0  0  0  0  0  0  0  0
   -0.1712    1.5229    0.0000 C   0  0  0  0  0  0  0  0  0  0  0  0
   -0.5837    2.2374    0.0000 C   0  0  0  0  0  0  0  0  0  0  0  0
   -0.5837    0.8085    0.0000 N   0  0  0  0  0  0  0  0  0  0  0  0
   -1.4087    2.2374    0.0000 O   0  0  0  0  0  0  0  0  0  0  0  0
   -0.1712    2.9519    0.0000 O   0  0  0  0  0  0  0  0  0  0  0  0
  2  1  2  0
  3  1  1  0
  4  2  1  0
  7  3  2  0
  7  5  1  0
  8  4  2  0
  8  6  1  0
  8  7  1  0
  9  5  1  0
  9  6  1  0
 10  9  1  0
 10 12  1  1
 11 10  1  0
 13 11  2  0
 14 11  1  0
M  END
>  <DRUGBANK_ID>  (1) 
DB04061

>  <SECONDARY_ACCESSION_NUMBERS>  (1) 
EXPT01849

>  <COMMON_NAME>  (1) 
Alpha-Amino-2-Indanacetic Acid

$$$$
