
     RDKit          2D

 10  9  0  0  0  0  0  0  0  0999 V2000
   -1.6500    1.4289    0.0000 C   0  0  0  0  0  0  0  0  0  0  0  0
    2.0625   -0.7145    0.0000 C   0  0  0  0  0  0  0  0  0  0  0  0
   -1.2375    0.7145    0.0000 C   0  0  0  0  0  0  0  0  0  0  0  0
    1.2375   -0.7145    0.0000 C   0  0  0  0  0  0  0  0  0  0  0  0
   -0.4125    0.7145    0.0000 C   0  0  0  0  0  0  0  0  0  0  0  0
    1.2375    0.7145    0.0000 C   0  0  0  0  0  0  0  0  0  0  0  0
    0.8250    0.0000    0.0000 C   0  0  0  0  0  0  0  0  0  0  0  0
    0.0000    0.0000    0.0000 C   0  0  0  0  0  0  0  0  0  0  0  0
    2.0625    0.7145    0.0000 O   0  0  0  0  0  0  0  0  0  0  0  0
   -0.4125   -0.7145    0.0000 O   0  0  0  0  0  0  0  0  0  0  0  0
  3  1  1  0
  4  2  1  0
  5  3  1  0
  7  4  1  0
  7  6  1  0
  8  5  1  0
  8  7  1  0
  9  6  1  0
 10  8  1  0
M  END
>  <DRUGBANK_ID>  (1) 
DB13826

>  <COMMON_NAME>  (1) 
Etohexadiol

>  <CAS_NUMBER>  (1) 
94-96-2

>  <UNII>  (1) 
M9JGK7U88V

>  <SYNONYMS>  (1) 
Ethohexadiol

$$$$
