
     RDKit          2D

  4  2  0  0  0  0  0  0  0  0999 V2000
    0.0000    0.2062    0.0000 I   0  0  0  0  0  0  0  0  0  0  0  0
    0.7145    0.6188    0.0000 I   0  0  0  0  0  0  0  0  0  0  0  0
    0.0000   -0.6188    0.0000 I   0  0  0  0  0  0  0  0  0  0  0  0
   -0.7145    0.6188    0.0000 K   0  0  0  0  0 15  0  0  0  0  0  0
  1  2  1  0
  1  3  1  0
M  CHG  2   1  -1   4   1
M  END
>  <DRUGBANK_ID>  (1) 
DB14492

>  <COMMON_NAME>  (1) 
Potassium triiodide

>  <CAS_NUMBER>  (1) 
12298-68-9

>  <UNII>  (1) 
T66M6Y3KSA

>  <SYNONYMS>  (1) 
Iodine aqueous; Lugol's iodine; Lugol's solution; Microiodide; Potassium triiodide

$$$$
