
     RDKit          2D

 16 17  0  0  1  0  0  0  0  0999 V2000
    0.5020   -0.0194    0.0000 C   0  0  0  0  0  0  0  0  0  0  0  0
    1.3288   -0.1960    0.0000 C   0  0  0  0  0  0  0  0  0  0  0  0
    1.5837   -0.9806    0.0000 O   0  0  0  0  0  0  0  0  0  0  0  0
    0.2471    0.7652    0.0000 C   0  0  0  0  0  0  0  0  0  0  0  0
    1.8822    0.4155    0.0000 C   0  0  0  0  0  0  0  0  0  0  0  0
    0.8005    1.3768    0.0000 C   0  0  0  0  0  0  0  0  0  0  0  0
    1.6273    1.2002    0.0000 C   0  0  0  0  0  0  0  0  0  0  0  0
   -0.3236   -0.0597    0.0000 C   0  0  0  0  0  0  0  0  0  0  0  0
    0.5459   -0.8465    0.0000 N   0  0  0  0  0  0  0  0  0  0  0  0
   -0.7008   -0.7935    0.0000 C   0  0  0  0  0  0  0  0  0  0  0  0
   -1.5248   -0.8337    0.0000 C   0  0  0  0  0  0  0  0  0  0  0  0
   -1.9717   -0.1402    0.0000 C   0  0  0  0  0  0  0  0  0  0  0  0
   -0.7706    0.6337    0.0000 C   0  0  0  0  0  0  0  0  0  0  0  0
   -1.5944    0.5933    0.0000 C   0  0  0  0  0  0  0  0  0  0  0  0
   -0.1455   -1.2963    0.0000 C   0  0  0  0  0  0  0  0  0  0  0  0
   -0.3935    1.3673    0.0000 Cl  0  0  0  0  0  0  0  0  0  0  0  0
  1  8  1  0
  1  9  1  6
  2  1  1  0
  3  2  2  0
  4  1  1  0
  5  2  1  0
  6  4  1  0
  7  5  1  0
  7  6  1  0
  8 10  2  0
  9 15  1  0
 11 10  1  0
 12 11  2  0
 13  8  1  0
 13 16  1  0
 14 12  1  0
 14 13  2  0
M  END
>  <DRUGBANK_ID>  (1) 
DB11823

>  <COMMON_NAME>  (1) 
Esketamine

>  <CAS_NUMBER>  (1) 
33643-46-8

>  <UNII>  (1) 
50LFG02TXD

>  <SYNONYMS>  (1) 
(-)-Ketamine; (−)-ketamine; (S)-(−)-ketamine; (S)-2-(o-chlorophenyl)-2-(methylamino)cyclohexanone; (S)-ketamine; Esketamine; L-ketamine; S-(-)-Ketamine; S-ketamine

$$$$
