
     RDKit          2D

 39 40  0  0  1  0  0  0  0  0999 V2000
    3.7245   -0.5945    0.0000 C   0  0  0  0  0  0  0  0  0  0  0  0
    3.1304   -0.0220    0.0000 C   0  0  0  0  0  0  0  0  0  0  0  0
    3.4683    0.7306    0.0000 C   0  0  0  0  0  0  0  0  0  0  0  0
    4.2886    0.6418    0.0000 C   0  0  0  0  0  0  0  0  0  0  0  0
    4.4575   -0.1658    0.0000 C   0  0  0  0  0  0  0  0  0  0  0  0
    5.1624   -0.7299    0.0000 C   0  0  0  0  0  0  0  0  0  0  0  0
    5.0735   -1.5501    0.0000 C   0  0  0  0  0  0  0  0  0  0  0  0
    5.7394   -2.0371    0.0000 C   0  0  0  0  0  0  0  0  0  0  0  0
    5.6506   -2.8573    0.0000 C   0  0  0  0  0  0  0  0  0  0  0  0
    6.3165   -3.3444    0.0000 C   0  0  0  0  0  0  0  0  0  0  0  0
    6.2276   -4.1646    0.0000 C   0  0  0  0  0  0  0  0  0  0  0  0
    5.4729   -4.4977    0.0000 C   0  0  0  0  0  0  0  0  0  0  0  0
    4.8070   -4.0107    0.0000 C   0  0  0  0  0  0  0  0  0  0  0  0
    4.0523   -4.3438    0.0000 C   0  0  0  0  0  0  0  0  0  0  0  0
    3.3864   -3.8568    0.0000 C   0  0  0  0  0  0  0  0  0  0  0  0
    2.6316   -4.1899    0.0000 O   0  0  0  0  0  0  0  0  0  0  0  0
    3.4752   -3.0366    0.0000 N   0  0  0  0  0  0  0  0  0  0  0  0
    2.8093   -2.5495    0.0000 C   0  0  0  0  0  0  0  0  0  0  0  0
    2.0546   -2.8827    0.0000 C   0  0  0  0  0  0  0  0  0  0  0  0
    1.3887   -2.3957    0.0000 C   0  0  0  0  0  0  0  0  0  0  0  0
    0.6339   -2.7288    0.0000 O   0  0  0  0  0  0  0  0  0  0  0  0
    1.4775   -1.5755    0.0000 C   0  0  0  0  0  0  0  0  0  0  0  0
    2.2323   -1.2423    0.0000 C   0  0  0  0  0  0  0  0  0  0  0  0
    2.3211   -0.4221    0.0000 C   0  0  0  0  0  0  0  0  0  0  0  0
    2.8982   -1.7293    0.0000 C   0  0  0  0  0  0  0  0  0  0  0  0
    3.6529   -1.3962    0.0000 O   0  0  0  0  0  0  0  0  0  0  0  0
    0.8116   -1.0884    0.0000 N   0  0  0  0  0  0  0  0  0  0  0  0
    3.9634   -5.1640    0.0000 C   0  0  0  0  0  0  0  0  0  0  0  0
    7.0712   -3.0112    0.0000 O   0  0  0  0  0  0  0  0  0  0  0  0
    7.7371   -3.4982    0.0000 C   0  0  0  0  0  0  0  0  0  0  0  0
    6.4053   -2.5241    0.0000 O   0  0  0  0  0  0  0  0  0  0  0  0
    6.4942   -1.7039    0.0000 C   0  0  0  0  0  0  0  0  0  0  0  0
    6.2417   -0.9185    0.0000 O   0  0  0  0  0  0  0  0  0  0  0  0
    7.2489   -1.3708    0.0000 N   0  0  0  0  0  0  0  0  0  0  0  0
    6.1542   -1.3240    0.0000 C   0  0  0  0  0  0  0  0  0  0  0  0
    5.9242   -0.4132    0.0000 C   0  0  0  0  0  0  0  0  0  0  0  0
    3.9225   -0.7938    0.0000 O   0  0  0  0  0  0  0  0  0  0  0  0
    4.8425    1.2531    0.0000 O   0  0  0  0  0  0  0  0  0  0  0  0
    4.5901    2.0385    0.0000 C   0  0  0  0  0  0  0  0  0  0  0  0
  2  1  1  6
  2  3  1  0
  2 24  1  0
  3  4  1  0
  4  5  1  0
  4 38  1  6
  5  6  1  0
  5 37  1  1
  6  7  1  0
  6 36  1  1
  7  8  2  0
  8  9  1  0
  8 35  1  0
  9 10  1  0
  9 31  1  1
 10 11  1  0
 10 29  1  1
 11 12  2  0
 12 13  1  0
 13 14  2  0
 14 15  1  0
 14 28  1  0
 15 16  2  0
 15 17  1  0
 17 18  1  0
 18 19  2  0
 18 25  1  0
 19 20  1  0
 20 21  2  0
 20 22  1  0
 22 23  2  0
 22 27  1  0
 23 24  1  0
 23 25  1  0
 25 26  2  0
 29 30  1  0
 31 32  1  0
 32 33  2  0
 32 34  1  0
 38 39  1  0
M  END
>  <DRUGBANK_ID>  (1) 
DB13023

>  <COMMON_NAME>  (1) 
IPI-493

>  <CAS_NUMBER>  (1) 
64202-81-9

>  <UNII>  (1) 
SLQ1AJG3VB

$$$$
