
     RDKit          2D

 35 37  0  0  1  0  0  0  0  0999 V2000
    5.5732    3.9760    0.0000 C   0  0  0  0  0  0  0  0  0  0  0  0
    4.8588    4.3885    0.0000 C   0  0  0  0  0  0  0  0  0  0  0  0
    4.8588    5.2135    0.0000 C   0  0  0  0  0  0  0  0  0  0  0  0
    4.1443    5.6260    0.0000 O   0  0  0  0  0  0  0  0  0  0  0  0
    5.5732    5.6260    0.0000 O   0  0  0  0  0  0  0  0  0  0  0  0
    5.5732    6.4510    0.0000 C   0  0  0  0  0  0  0  0  0  0  0  0
    4.1443    3.9760    0.0000 N   0  0  0  0  0  0  0  0  0  0  0  0
    4.1443    3.1510    0.0000 P   0  0  0  0  0  0  0  0  0  0  0  0
    3.3193    3.1510    0.0000 O   0  0  0  0  0  0  0  0  0  0  0  0
    4.1443    2.3260    0.0000 O   0  0  0  0  0  0  0  0  0  0  0  0
    3.4298    1.9135    0.0000 C   0  0  0  0  0  0  0  0  0  0  0  0
    3.4298    1.0885    0.0000 C   0  0  0  0  0  0  0  0  0  0  0  0
    4.0973    0.6036    0.0000 C   0  0  0  0  0  0  0  0  0  0  0  0
    3.8423   -0.1811    0.0000 C   0  0  0  0  0  0  0  0  0  0  0  0
    3.0173   -0.1811    0.0000 C   0  0  0  0  0  0  0  0  0  0  0  0
    2.7624    0.6036    0.0000 O   0  0  0  0  0  0  0  0  0  0  0  0
    2.5324   -0.8485    0.0000 N   0  0  0  0  0  0  0  0  0  0  0  0
    2.8680   -1.6022    0.0000 C   0  0  0  0  0  0  0  0  0  0  0  0
    2.3830   -2.2696    0.0000 C   0  0  0  0  0  0  0  0  0  0  0  0
    1.5626   -2.1834    0.0000 C   0  0  0  0  0  0  0  0  0  0  0  0
    1.0776   -2.8508    0.0000 O   0  0  0  0  0  0  0  0  0  0  0  0
    1.2270   -1.4297    0.0000 N   0  0  0  0  0  0  0  0  0  0  0  0
    1.7119   -0.7623    0.0000 C   0  0  0  0  0  0  0  0  0  0  0  0
    1.3764   -0.0086    0.0000 O   0  0  0  0  0  0  0  0  0  0  0  0
    2.7186   -3.0233    0.0000 C   0  0  0  0  0  0  0  0  0  0  0  0
    2.2337   -3.6907    0.0000 C   0  0  0  0  0  0  0  0  0  0  0  0
    2.5692   -4.4444    0.0000 Br  0  0  0  0  0  0  0  0  0  0  0  0
    4.8819    0.8585    0.0000 O   0  0  0  0  0  0  0  0  0  0  0  0
    4.9693    3.1510    0.0000 O   0  0  0  0  0  0  0  0  0  0  0  0
    5.3818    2.4365    0.0000 C   0  0  0  0  0  0  0  0  0  0  0  0
    6.2068    2.4365    0.0000 C   0  0  0  0  0  0  0  0  0  0  0  0
    6.6193    1.7221    0.0000 C   0  0  0  0  0  0  0  0  0  0  0  0
    6.2068    1.0076    0.0000 C   0  0  0  0  0  0  0  0  0  0  0  0
    5.3818    1.0076    0.0000 C   0  0  0  0  0  0  0  0  0  0  0  0
    4.9693    1.7221    0.0000 C   0  0  0  0  0  0  0  0  0  0  0  0
  2  1  1  6
  2  3  1  0
  2  7  1  0
  3  4  2  0
  3  5  1  0
  5  6  1  0
  7  8  1  0
  8  9  2  0
  8 10  1  0
  8 29  1  0
 10 11  1  0
 12 11  1  6
 12 13  1  0
 12 16  1  0
 13 14  1  0
 13 28  1  1
 14 15  1  0
 15 16  1  0
 15 17  1  6
 17 18  1  0
 17 23  1  0
 18 19  2  0
 19 20  1  0
 19 25  1  0
 20 21  2  0
 20 22  1  0
 22 23  1  0
 23 24  2  0
 25 26  2  0
 26 27  1  0
 29 30  1  0
 30 31  2  0
 30 35  1  0
 31 32  1  0
 32 33  2  0
 33 34  1  0
 34 35  2  0
M  END
>  <DRUGBANK_ID>  (1) 
DB05116

>  <COMMON_NAME>  (1) 
Thymectacin

>  <CAS_NUMBER>  (1) 
232925-18-7

>  <UNII>  (1) 
2ZRZ4TSW3F

>  <SYNONYMS>  (1) 
Brivudine phosphoramidate

$$$$
