DPK
     RDKit          2D

 14 14  0  0  0  0  0  0  0  0999 V2000
   -2.8256   -0.0361    0.0000 C   0  0  0  0  0  0  0  0  0  0  0  0
   -2.1111    0.3764    0.0000 C   0  0  0  0  0  0  0  0  0  0  0  0
   -1.3967   -0.0361    0.0000 C   0  0  0  0  0  0  0  0  0  0  0  0
   -0.6822    0.3764    0.0000 N   0  0  0  0  0  0  0  0  0  0  0  0
   -0.6822    1.2014    0.0000 C   0  0  0  0  0  0  0  0  0  0  0  0
    0.0323   -0.0361    0.0000 C   0  0  0  0  0  0  0  0  0  0  0  0
    0.0323   -0.8611    0.0000 C   0  0  0  0  0  0  0  0  0  0  0  0
    0.7468    0.3764    0.0000 C   0  0  0  0  0  0  0  0  0  0  0  0
    1.4612   -0.0361    0.0000 C   0  0  0  0  0  0  0  0  0  0  0  0
    2.1757    0.3764    0.0000 C   0  0  0  0  0  0  0  0  0  0  0  0
    2.8902   -0.0361    0.0000 C   0  0  0  0  0  0  0  0  0  0  0  0
    2.8902   -0.8611    0.0000 C   0  0  0  0  0  0  0  0  0  0  0  0
    2.1757   -1.2736    0.0000 C   0  0  0  0  0  0  0  0  0  0  0  0
    1.4612   -0.8611    0.0000 C   0  0  0  0  0  0  0  0  0  0  0  0
  1  2  2  0
  2  3  1  0
  3  4  1  0
  4  5  1  0
  4  6  1  0
  6  7  1  1
  6  8  1  0
  8  9  1  0
  9 10  2  0
  9 14  1  0
 10 11  1  0
 11 12  2  0
 12 13  1  0
 13 14  2  0
M  END
>  <DRUGBANK_ID>  (1) 
DB04677

>  <COMMON_NAME>  (1) 
N-METHYL-N-[(1R)-1-METHYL-2-PHENYLETHYL]PROP-2-EN-1-AMINE

$$$$
