
     RDKit          2D

 25 27  0  0  0  0  0  0  0  0999 V2000
   -0.2866   -0.8866    0.0000 S   0  0  0  0  0  0  0  0  0  0  0  0
   -0.6991    0.3827    0.0000 C   0  0  0  0  0  0  0  0  0  0  0  0
    0.1258    0.3827    0.0000 C   0  0  0  0  0  0  0  0  0  0  0  0
    0.3806   -0.4018    0.0000 C   0  0  0  0  0  0  0  0  0  0  0  0
    1.1654   -0.6566    0.0000 C   0  0  0  0  0  0  0  0  0  0  0  0
    1.7785   -0.1046    0.0000 O   0  0  0  0  0  0  0  0  0  0  0  0
    2.6654   -0.9373    0.0000 C   0  0  0  0  0  0  0  0  0  0  0  0
    2.1531   -1.5840    0.0000 C   0  0  0  0  0  0  0  0  0  0  0  0
    2.4570   -2.3510    0.0000 C   0  0  0  0  0  0  0  0  0  0  0  0
    3.2732   -2.4713    0.0000 C   0  0  0  0  0  0  0  0  0  0  0  0
    3.7854   -1.8245    0.0000 C   0  0  0  0  0  0  0  0  0  0  0  0
    3.4815   -1.0575    0.0000 N   0  0  0  0  0  0  0  0  0  0  0  0
    1.3369   -1.4636    0.0000 N   0  0  0  0  0  0  0  0  0  0  0  0
   -2.3697   -0.2075    0.0000 C   0  0  0  0  0  0  0  0  0  0  0  0
   -3.1336   -0.5190    0.0000 C   0  0  0  0  0  0  0  0  0  0  0  0
   -3.2458   -1.3363    0.0000 C   0  0  0  0  0  0  0  0  0  0  0  0
   -2.5942   -1.8422    0.0000 C   0  0  0  0  0  0  0  0  0  0  0  0
   -1.8302   -1.5307    0.0000 C   0  0  0  0  0  0  0  0  0  0  0  0
   -1.7180   -0.7132    0.0000 C   0  0  0  0  0  0  0  0  0  0  0  0
   -3.7854   -0.0131    0.0000 F   0  0  0  0  0  0  0  0  0  0  0  0
   -0.9541   -0.4018    0.0000 C   0  0  0  0  0  0  0  0  0  0  0  0
    0.6107    1.0502    0.0000 N   0  0  0  0  0  0  0  0  0  0  0  0
    0.2752    1.8039    0.0000 C   0  0  0  0  0  0  0  0  0  0  0  0
   -0.5452    1.8901    0.0000 O   0  0  0  0  0  0  0  0  0  0  0  0
    0.7601    2.4713    0.0000 N   0  0  0  0  0  0  0  0  0  0  0  0
  1 21  1  0
  1  4  1  0
  2  3  1  0
  3  4  2  0
  3 22  1  0
  4  5  1  0
  5 13  1  0
  5  6  2  0
  7  8  1  0
  7 12  1  0
  8  9  1  0
  8 13  1  6
  9 10  1  0
 10 11  1  0
 11 12  1  0
 14 15  2  0
 14 19  1  0
 15 16  1  0
 15 20  1  0
 16 17  2  0
 17 18  1  0
 18 19  2  0
 19 21  1  0
 21  2  2  0
 22 23  1  0
 23 24  2  0
 23 25  1  0
M  END
>  <DRUGBANK_ID>  (1) 
DB12242

>  <COMMON_NAME>  (1) 
AZD-7762

>  <CAS_NUMBER>  (1) 
860352-01-8

>  <UNII>  (1) 
5D822Y3L1H

$$$$
