
     RDKit          2D

 25 27  0  0  0  0  0  0  0  0999 V2000
   -4.2845    1.4800    0.0000 C   0  0  0  0  0  0  0  0  0  0  0  0
   -4.2845    0.6514    0.0000 C   0  0  0  0  0  0  0  0  0  0  0  0
   -3.5681    0.2433    0.0000 C   0  0  0  0  0  0  0  0  0  0  0  0
   -2.8579    0.6551    0.0000 C   0  0  0  0  0  0  0  0  0  0  0  0
   -2.8579    1.4804    0.0000 C   0  0  0  0  0  0  0  0  0  0  0  0
   -3.5698    1.8924    0.0000 C   0  0  0  0  0  0  0  0  0  0  0  0
   -2.1434    0.2426    0.0000 C   0  0  0  0  0  0  0  0  0  0  0  0
   -1.4290    0.6551    0.0000 C   0  0  0  0  0  0  0  0  0  0  0  0
   -0.7145    0.2426    0.0000 C   0  0  0  0  0  0  0  0  0  0  0  0
    0.0001    0.6550    0.0000 C   0  0  0  0  0  0  0  0  0  0  0  0
    0.7120    0.2430    0.0000 C   0  0  0  0  0  0  0  0  0  0  0  0
    0.7120   -0.5821    0.0000 C   0  0  0  0  0  0  0  0  0  0  0  0
    0.0019   -0.9940    0.0000 C   0  0  0  0  0  0  0  0  0  0  0  0
   -0.7145   -0.5858    0.0000 N   0  0  0  0  0  0  0  0  0  0  0  0
   -1.3240   -1.1411    0.0000 N   0  0  0  0  0  0  0  0  0  0  0  0
   -0.9841   -1.8924    0.0000 C   0  0  0  0  0  0  0  0  0  0  0  0
   -0.1647   -1.8014    0.0000 N   0  0  0  0  0  0  0  0  0  0  0  0
    1.4266   -0.9946    0.0000 C   0  0  0  0  0  0  0  0  0  0  0  0
    2.1410   -0.5821    0.0000 N   0  0  0  0  0  0  0  0  0  0  0  0
    2.8554   -0.9946    0.0000 C   0  0  0  0  0  0  0  0  0  0  0  0
    3.5700   -0.5821    0.0000 C   0  0  0  0  0  0  0  0  0  0  0  0
    4.2845   -0.9946    0.0000 O   0  0  0  0  0  0  0  0  0  0  0  0
    3.5700    0.2427    0.0000 O   0  0  0  0  0  0  0  0  0  0  0  0
    1.4266   -1.8197    0.0000 O   0  0  0  0  0  0  0  0  0  0  0  0
    1.4266    0.6555    0.0000 O   0  0  0  0  0  0  0  0  0  0  0  0
  1  2  2  0
  2  3  1  0
  3  4  2  0
  4  5  1  0
  4  7  1  0
  5  6  2  0
  6  1  1  0
  7  8  1  0
  8  9  1  0
  9 14  1  0
 10  9  2  0
 11 10  1  0
 11 25  1  0
 12 11  2  0
 12 18  1  0
 13 12  1  0
 13 17  2  0
 14 13  1  0
 14 15  1  0
 15 16  2  0
 16 17  1  0
 18 19  1  0
 18 24  2  0
 19 20  1  0
 20 21  1  0
 21 22  1  0
 21 23  2  0
M  END
>  <DRUGBANK_ID>  (1) 
DB14985

>  <COMMON_NAME>  (1) 
Enarodustat

>  <CAS_NUMBER>  (1) 
1262132-81-9

>  <UNII>  (1) 
JSK7TUA223

>  <SYNONYMS>  (1) 
Ã©narodustat; Enarodustat; Enarodustatum

$$$$
