
     RDKit          2D

 31 32  0  0  0  0  0  0  0  0999 V2000
   -6.4100   -0.4811    0.0000 C   0  0  0  0  0  0  0  0  0  0  0  0
   -5.6956   -1.7186    0.0000 C   0  0  0  0  0  0  0  0  0  0  0  0
   -2.8377   -1.7186    0.0000 C   0  0  0  0  0  0  0  0  0  0  0  0
    0.0201   -1.7186    0.0000 C   0  0  0  0  0  0  0  0  0  0  0  0
    5.3494    1.7186    0.0000 C   0  0  0  0  0  0  0  0  0  0  0  0
    3.7245    1.4321    0.0000 C   0  0  0  0  0  0  0  0  0  0  0  0
    5.8457   -1.0958    0.0000 C   0  0  0  0  0  0  0  0  0  0  0  0
    2.3477   -1.5256    0.0000 C   0  0  0  0  0  0  0  0  0  0  0  0
   -4.2666   -0.8936    0.0000 C   0  0  0  0  0  0  0  0  0  0  0  0
   -1.4087   -0.8936    0.0000 C   0  0  0  0  0  0  0  0  0  0  0  0
    1.4491   -0.8936    0.0000 C   0  0  0  0  0  0  0  0  0  0  0  0
   -4.9811   -0.4811    0.0000 C   0  0  0  0  0  0  0  0  0  0  0  0
   -3.5521   -0.4811    0.0000 C   0  0  0  0  0  0  0  0  0  0  0  0
   -2.1232   -0.4811    0.0000 C   0  0  0  0  0  0  0  0  0  0  0  0
   -0.6943   -0.4811    0.0000 C   0  0  0  0  0  0  0  0  0  0  0  0
    0.7346   -0.4811    0.0000 C   0  0  0  0  0  0  0  0  0  0  0  0
    4.2208   -1.3823    0.0000 C   0  0  0  0  0  0  0  0  0  0  0  0
    2.1635   -0.4811    0.0000 C   0  0  0  0  0  0  0  0  0  0  0  0
    3.4083   -1.5256    0.0000 C   0  0  0  0  0  0  0  0  0  0  0  0
   -5.6956   -0.8936    0.0000 C   0  0  0  0  0  0  0  0  0  0  0  0
   -2.8377   -0.8936    0.0000 C   0  0  0  0  0  0  0  0  0  0  0  0
    0.0201   -0.8936    0.0000 C   0  0  0  0  0  0  0  0  0  0  0  0
    5.0673    0.9433    0.0000 C   0  0  0  0  0  0  0  0  0  0  0  0
    4.2548    0.8001    0.0000 C   0  0  0  0  0  0  0  0  0  0  0  0
    5.3154   -0.4638    0.0000 C   0  0  0  0  0  0  0  0  0  0  0  0
    4.5029   -0.6071    0.0000 C   0  0  0  0  0  0  0  0  0  0  0  0
    5.5976    0.3113    0.0000 C   0  0  0  0  0  0  0  0  0  0  0  0
    3.9726    0.0248    0.0000 C   0  0  0  0  0  0  0  0  0  0  0  0
    2.8780   -0.8936    0.0000 C   0  0  0  0  0  0  0  0  0  0  0  0
    6.4100    0.4546    0.0000 O   0  0  0  0  0  0  0  0  0  0  0  0
    3.1602   -0.1183    0.0000 O   0  0  0  0  0  0  0  0  0  0  0  0
 12  9  1  0
 13  9  1  0
 14 10  1  0
 15 10  1  0
 16 11  1  0
 18 11  1  0
 19 17  1  0
 20  1  1  0
 20  2  1  0
 20 12  1  0
 21  3  1  0
 21 13  1  0
 21 14  1  0
 22  4  1  0
 22 15  1  0
 22 16  1  0
 23  5  1  0
 24  6  1  0
 24 23  1  0
 25  7  1  0
 26 17  1  0
 26 25  2  0
 27 23  2  0
 27 25  1  0
 28 24  2  0
 28 26  1  0
 29  8  1  0
 29 18  1  0
 29 19  1  0
 30 27  1  0
 31 28  1  0
 31 29  1  0
M  END
>  <DRUGBANK_ID>  (1) 
DB14476

>  <COMMON_NAME>  (1) 
DL-alpha-Tocopherol

>  <CAS_NUMBER>  (1) 
10191-41-0

>  <UNII>  (1) 
7QWA1RIO01

>  <SYNONYMS>  (1) 
(+)-alpha-tocopherol; (±)-α-tocopherol; all-rac-alpha-tocopherol; DL-5,7,8-trimethyltocol; DL-alpha tocopherol; DL-α-tocopherol; Vitamin E DL-alpha

$$$$
