
     RDKit          2D

 23 26  0  0  0  0  0  0  0  0999 V2000
    2.7512   -1.7116    0.0000 O   0  0  0  0  0  0  0  0  0  0  0  0
    2.7512   -2.5366    0.0000 C   0  0  0  0  0  0  0  0  0  0  0  0
    3.4186   -3.0215    0.0000 N   0  0  0  0  0  0  0  0  0  0  0  0
    3.1637   -3.8062    0.0000 N   0  0  0  0  0  0  0  0  0  0  0  0
    2.3387   -3.8062    0.0000 C   0  0  0  0  0  0  0  0  0  0  0  0
    2.0837   -3.0215    0.0000 C   0  0  0  0  0  0  0  0  0  0  0  0
    1.2991   -2.7666    0.0000 N   0  0  0  0  0  0  0  0  0  0  0  0
    0.6317   -3.2515    0.0000 C   0  0  0  0  0  0  0  0  0  0  0  0
   -0.0358   -2.7666    0.0000 C   0  0  0  0  0  0  0  0  0  0  0  0
    0.2192   -1.9820    0.0000 N   0  0  0  0  0  0  0  0  0  0  0  0
    1.0442   -1.9820    0.0000 N   0  0  0  0  0  0  0  0  0  0  0  0
    4.2032   -2.7666    0.0000 C   0  0  0  0  0  0  0  0  0  0  0  0
    4.3748   -1.9596    0.0000 N   0  0  0  0  0  0  0  0  0  0  0  0
    5.1594   -1.7047    0.0000 C   0  0  0  0  0  0  0  0  0  0  0  0
    5.7725   -2.2567    0.0000 N   0  0  0  0  0  0  0  0  0  0  0  0
    5.6010   -3.0637    0.0000 C   0  0  0  0  0  0  0  0  0  0  0  0
    4.8163   -3.3186    0.0000 C   0  0  0  0  0  0  0  0  0  0  0  0
    6.2140   -3.6157    0.0000 N   0  0  0  0  0  0  0  0  0  0  0  0
    6.9987   -3.3608    0.0000 C   0  0  0  0  0  0  0  0  0  0  0  0
    7.6118   -3.9128    0.0000 C   0  0  0  0  0  0  0  0  0  0  0  0
    7.4402   -4.7198    0.0000 O   0  0  0  0  0  0  0  0  0  0  0  0
    6.6556   -4.9747    0.0000 C   0  0  0  0  0  0  0  0  0  0  0  0
    6.0425   -4.4227    0.0000 C   0  0  0  0  0  0  0  0  0  0  0  0
  1  2  2  0
  2  3  1  0
  2  6  1  0
  3  4  1  0
  3 12  1  0
  4  5  1  0
  5  6  2  0
  6  7  1  0
  7  8  1  0
  7 11  1  0
  8  9  2  0
  9 10  1  0
 10 11  2  0
 12 13  2  0
 12 17  1  0
 13 14  1  0
 14 15  2  0
 15 16  1  0
 16 17  2  0
 16 18  1  0
 18 19  1  0
 18 23  1  0
 19 20  1  0
 20 21  1  0
 21 22  1  0
 22 23  1  0
M  END
>  <DRUGBANK_ID>  (1) 
DB15642

>  <COMMON_NAME>  (1) 
Molidustat

>  <CAS_NUMBER>  (1) 
1154028-82-6

>  <UNII>  (1) 
9JH486CZ13

>  <SYNONYMS>  (1) 
Molidustat

$$$$
