
     RDKit          2D

 30 34  0  0  0  0  0  0  0  0999 V2000
    2.4796   -3.1607    0.0000 C   0  0  0  0  0  0  0  0  0  0  0  0
    2.4797   -3.9857    0.0000 C   0  0  0  0  0  0  0  0  0  0  0  0
    3.1941   -4.3980    0.0000 C   0  0  0  0  0  0  0  0  0  0  0  0
    3.9086   -3.9856    0.0000 C   0  0  0  0  0  0  0  0  0  0  0  0
    3.9086   -3.1607    0.0000 C   0  0  0  0  0  0  0  0  0  0  0  0
    3.1941   -2.7482    0.0000 N   0  0  0  0  0  0  0  0  0  0  0  0
    3.1941   -1.9232    0.0000 C   0  0  0  0  0  0  0  0  0  0  0  0
    2.4796   -1.5107    0.0000 C   0  0  0  0  0  0  0  0  0  0  0  0
    2.4796   -0.6857    0.0000 O   0  0  0  0  0  0  0  0  0  0  0  0
    1.7651   -0.2732    0.0000 C   0  0  0  0  0  0  0  0  0  0  0  0
    1.0506   -0.6857    0.0000 C   0  0  0  0  0  0  0  0  0  0  0  0
    0.3362   -0.2732    0.0000 C   0  0  0  0  0  0  0  0  0  0  0  0
    1.7651    0.5517    0.0000 C   0  0  0  0  0  0  0  0  0  0  0  0
    1.0506    0.9642    0.0000 C   0  0  0  0  0  0  0  0  0  0  0  0
    0.3362    0.5517    0.0000 C   0  0  0  0  0  0  0  0  0  0  0  0
   -0.3782    0.9642    0.0000 C   0  0  0  0  0  0  0  0  0  0  0  0
   -1.0927    0.5517    0.0000 C   0  0  0  0  0  0  0  0  0  0  0  0
   -0.3782    1.7892    0.0000 C   0  0  0  0  0  0  0  0  0  0  0  0
   -1.0927    2.2017    0.0000 N   0  0  0  0  0  0  0  0  0  0  0  0
   -1.8071    1.7892    0.0000 C   0  0  0  0  0  0  0  0  0  0  0  0
   -1.8071    0.9642    0.0000 N   0  0  0  0  0  0  0  0  0  0  0  0
   -2.5918    0.7092    0.0000 N   0  0  0  0  0  0  0  0  0  0  0  0
   -3.0767    1.3767    0.0000 C   0  0  0  0  0  0  0  0  0  0  0  0
   -2.5918    2.0441    0.0000 C   0  0  0  0  0  0  0  0  0  0  0  0
   -2.8467    2.8287    0.0000 C   0  0  0  0  0  0  0  0  0  0  0  0
   -3.6537    3.0003    0.0000 C   0  0  0  0  0  0  0  0  0  0  0  0
   -3.9086    3.7849    0.0000 C   0  0  0  0  0  0  0  0  0  0  0  0
   -3.3566    4.3980    0.0000 N   0  0  0  0  0  0  0  0  0  0  0  0
   -2.5496    4.2264    0.0000 C   0  0  0  0  0  0  0  0  0  0  0  0
   -2.2947    3.4418    0.0000 C   0  0  0  0  0  0  0  0  0  0  0  0
  1  2  1  0
  1  6  1  0
  2  3  1  0
  3  4  1  0
  4  5  1  0
  5  6  1  0
  7  6  1  0
  7  8  1  0
  8  9  1  0
 10  9  1  0
 10 11  2  0
 12 11  1  0
 12 15  2  0
 13 10  1  0
 13 14  2  0
 14 15  1  0
 15 16  1  0
 16 17  2  0
 16 18  1  0
 17 21  1  0
 18 19  2  0
 20 19  1  0
 20 21  1  0
 20 24  2  0
 21 22  1  0
 23 22  2  0
 23 24  1  0
 24 25  1  0
 25 26  2  0
 25 30  1  0
 26 27  1  0
 27 28  2  0
 29 28  1  0
 29 30  2  0
M  END
>  <DRUGBANK_ID>  (1) 
DB08597

>  <COMMON_NAME>  (1) 
Dorsomorphin

>  <CAS_NUMBER>  (1) 
866405-64-3

>  <UNII>  (1) 
10K52CIC1Z

$$$$
