GVK
     RDKit          2D

 28 32  0  0  0  0  0  0  0  0999 V2000
    3.6967    2.7346    0.0000 Cl  0  0  0  0  0  0  0  0  0  0  0  0
    2.8843    2.8778    0.0000 C   0  0  0  0  0  0  0  0  0  0  0  0
    2.3540    2.2459    0.0000 C   0  0  0  0  0  0  0  0  0  0  0  0
    1.5415    2.3891    0.0000 C   0  0  0  0  0  0  0  0  0  0  0  0
    1.2593    3.1644    0.0000 C   0  0  0  0  0  0  0  0  0  0  0  0
    1.7896    3.7964    0.0000 C   0  0  0  0  0  0  0  0  0  0  0  0
    2.6021    3.6531    0.0000 C   0  0  0  0  0  0  0  0  0  0  0  0
    0.4469    3.3076    0.0000 C   0  0  0  0  0  0  0  0  0  0  0  0
   -0.3656    3.1644    0.0000 C   0  0  0  0  0  0  0  0  0  0  0  0
   -0.8959    3.7964    0.0000 C   0  0  0  0  0  0  0  0  0  0  0  0
   -0.6137    4.5716    0.0000 N   0  0  0  0  0  0  0  0  0  0  0  0
    0.1987    4.7149    0.0000 C   0  0  0  0  0  0  0  0  0  0  0  0
    0.7290    4.0829    0.0000 C   0  0  0  0  0  0  0  0  0  0  0  0
    0.4469    2.4826    0.0000 C   0  0  0  0  0  0  0  0  0  0  0  0
    1.1613    2.0701    0.0000 C   0  0  0  0  0  0  0  0  0  0  0  0
    1.1613    1.2451    0.0000 C   0  0  0  0  0  0  0  0  0  0  0  0
    0.4469    0.8326    0.0000 C   0  0  0  0  0  0  0  0  0  0  0  0
   -0.2676    1.2451    0.0000 C   0  0  0  0  0  0  0  0  0  0  0  0
   -0.2676    2.0701    0.0000 C   0  0  0  0  0  0  0  0  0  0  0  0
    0.4469    0.0076    0.0000 C   0  0  0  0  0  0  0  0  0  0  0  0
    1.1613   -0.4049    0.0000 N   0  0  0  0  0  0  0  0  0  0  0  0
    1.1613   -1.2299    0.0000 C   0  0  0  0  0  0  0  0  0  0  0  0
    0.4469   -1.6424    0.0000 N   0  0  0  0  0  0  0  0  0  0  0  0
   -0.2676   -1.2299    0.0000 C   0  0  0  0  0  0  0  0  0  0  0  0
   -1.0522   -1.4848    0.0000 N   0  0  0  0  0  0  0  0  0  0  0  0
   -1.5372   -0.8174    0.0000 C   0  0  0  0  0  0  0  0  0  0  0  0
   -1.0522   -0.1499    0.0000 N   0  0  0  0  0  0  0  0  0  0  0  0
   -0.2676   -0.4049    0.0000 C   0  0  0  0  0  0  0  0  0  0  0  0
  1  2  1  0
  2  3  2  0
  2  7  1  0
  3  4  1  0
  4  5  2  0
  5  6  1  0
  5  8  1  0
  6  7  2  0
  8  9  1  0
  8 13  1  0
  8 14  1  0
  9 10  1  0
 10 11  1  0
 11 12  1  0
 12 13  1  0
 14 15  2  0
 14 19  1  0
 15 16  1  0
 16 17  2  0
 17 18  1  0
 17 20  1  0
 18 19  2  0
 20 21  2  0
 20 28  1  0
 21 22  1  0
 22 23  2  0
 23 24  1  0
 24 25  1  0
 24 28  2  0
 25 26  1  0
 26 27  2  0
 27 28  1  0
M  END
>  <DRUGBANK_ID>  (1) 
DB07856

>  <COMMON_NAME>  (1) 
6-{4-[4-(4-CHLOROPHENYL)PIPERIDIN-4-YL]PHENYL}-9H-PURINE

$$$$
