
     RDKit          2D

 18 19  0  0  1  0  0  0  0  0999 V2000
    9.7429   -8.9570    0.0000 C   0  0  0  0  0  0  0  0  0  0  0  0
    9.0755   -9.4420    0.0000 N   0  0  0  0  0  0  0  0  0  0  0  0
    8.6629   -8.1724    0.0000 N   0  0  0  0  0  0  0  0  0  0  0  0
   10.5275   -9.2120    0.0000 C   0  0  0  0  0  0  0  0  0  0  0  0
    8.4080   -8.9570    0.0000 C   0  0  0  0  0  0  0  0  0  0  0  0
    9.0755  -10.2670    0.0000 C   0  0  0  0  0  0  0  0  0  0  0  0
    9.4880   -8.1724    0.0000 C   0  0  0  0  0  0  0  0  0  0  0  0
   10.6990  -10.0189    0.0000 O   0  0  0  0  0  0  0  0  0  0  0  0
    8.3610  -10.6795    0.0000 C   0  0  0  0  0  0  0  0  0  0  0  0
   11.1406   -8.6599    0.0000 O   0  0  0  0  0  0  0  0  0  0  0  0
    9.7899  -10.6795    0.0000 C   0  0  0  0  0  0  0  0  0  0  0  0
    8.3610  -11.5045    0.0000 C   0  0  0  0  0  0  0  0  0  0  0  0
    7.6465  -10.2670    0.0000 C   0  0  0  0  0  0  0  0  0  0  0  0
   11.9253   -8.9149    0.0000 C   0  0  0  0  0  0  0  0  0  0  0  0
   12.5384   -8.3628    0.0000 C   0  0  0  0  0  0  0  0  0  0  0  0
    6.9320  -10.6795    0.0000 C   0  0  0  0  0  0  0  0  0  0  0  0
    7.6465  -11.9170    0.0000 C   0  0  0  0  0  0  0  0  0  0  0  0
    6.9320  -11.5045    0.0000 C   0  0  0  0  0  0  0  0  0  0  0  0
  2  1  1  0
  4  1  1  0
  5  2  1  0
  5  3  2  0
  6  2  1  0
  6 11  1  6
  7  1  2  0
  7  3  1  0
  8  4  2  0
  9  6  1  0
 10  4  1  0
 12  9  2  0
 13  9  1  0
 14 10  1  0
 15 14  1  0
 16 13  2  0
 17 12  1  0
 18 16  1  0
 18 17  2  0
M  END
>  <DRUGBANK_ID>  (1) 
DB00292

>  <SECONDARY_ACCESSION_NUMBERS>  (1) 
APRD00965

>  <COMMON_NAME>  (1) 
Etomidate

>  <CAS_NUMBER>  (1) 
33125-97-2

>  <UNII>  (1) 
Z22628B598

>  <SYNONYMS>  (1) 
(+)-ethyl 1-(α-methylbenzyl)imidazole-5-carboxylate; (+)-etomidate; (R)-(+)-1-(α-methylbenzyl)imidazole-5-carboxylic acid ethyl ester; (R)-1-(1-phenylethyl)-1H-imidazole-5-carboxylic acid ethyl ester; 3-((R)-1-Phenyl-ethyl)-3H-imidazole-4-carboxylic acid ethyl ester; Etomidate; Etomidato; Etomidatum; R-(+)-ethyl 1-(1-phenylethyl)-1H-imidazole-5-carboxylate

$$$$
