UA5
     RDKit          2D

 13 13  0  0  0  0  0  0  0  0999 V2000
    3.5652   -0.5878    0.0000 O   0  0  0  0  0  0  0  0  0  0  0  0
    2.8507   -0.1753    0.0000 S   0  0  0  0  0  0  0  0  0  0  0  0
    3.2632    0.5392    0.0000 O   0  0  0  0  0  0  0  0  0  0  0  0
    2.4382   -0.8898    0.0000 O   0  0  0  0  0  0  0  0  0  0  0  0
    2.1363    0.2372    0.0000 N   0  0  0  0  0  0  0  0  0  0  0  0
    1.4218   -0.1753    0.0000 C   0  0  0  0  0  0  0  0  0  0  0  0
    0.7073    0.2372    0.0000 C   0  0  0  0  0  0  0  0  0  0  0  0
   -0.0072   -0.1753    0.0000 C   0  0  0  0  0  0  0  0  0  0  0  0
   -0.0072   -1.0003    0.0000 C   0  0  0  0  0  0  0  0  0  0  0  0
   -0.7216   -1.4128    0.0000 C   0  0  0  0  0  0  0  0  0  0  0  0
   -0.7216   -2.2378    0.0000 C   0  0  0  0  0  0  0  0  0  0  0  0
    0.7073   -1.4128    0.0000 C   0  0  0  0  0  0  0  0  0  0  0  0
    1.4218   -1.0003    0.0000 C   0  0  0  0  0  0  0  0  0  0  0  0
  1  2  2  0
  2  5  1  0
  2  3  2  0
  2  4  1  0
  5  6  1  0
  6 13  2  0
  6  7  1  0
  7  8  2  0
  8  9  1  0
  9 12  2  0
  9 10  1  0
 10 11  1  0
 12 13  1  0
M  END
>  <DRUGBANK_ID>  (1) 
DB08678

>  <COMMON_NAME>  (1) 
(4-ETHYLPHENYL)SULFAMIC ACID

$$$$
