
     RDKit          2D

 23 25  0  0  0  0  0  0  0  0999 V2000
    2.2145    0.6513    0.0000 C   0  0  0  0  0  0  0  0  0  0  0  0
    2.8821    1.1363    0.0000 N   0  0  0  0  0  0  0  0  0  0  0  0
    2.7959    1.9568    0.0000 O   0  0  0  0  0  0  0  0  0  0  0  0
    3.6357    0.8008    0.0000 O   0  0  0  0  0  0  0  0  0  0  0  0
    1.4299    0.9063    0.0000 O   0  0  0  0  0  0  0  0  0  0  0  0
    0.9450    0.2389    0.0000 C   0  0  0  0  0  0  0  0  0  0  0  0
    0.1200    0.2389    0.0000 C   0  0  0  0  0  0  0  0  0  0  0  0
   -0.2924    0.9533    0.0000 N   0  0  0  0  0  0  0  0  0  0  0  0
   -1.1174    0.9533    0.0000 N   0  0  0  0  0  0  0  0  0  0  0  0
   -1.6023    1.6208    0.0000 C   0  0  0  0  0  0  0  0  0  0  0  0
   -2.3870    1.3658    0.0000 O   0  0  0  0  0  0  0  0  0  0  0  0
   -2.3870    0.5408    0.0000 C   0  0  0  0  0  0  0  0  0  0  0  0
   -1.6023    0.2859    0.0000 C   0  0  0  0  0  0  0  0  0  0  0  0
   -3.0544    0.0559    0.0000 C   0  0  0  0  0  0  0  0  0  0  0  0
   -2.9683   -0.7645    0.0000 N   0  0  0  0  0  0  0  0  0  0  0  0
   -2.2145   -1.1001    0.0000 C   0  0  0  0  0  0  0  0  0  0  0  0
   -2.1283   -1.9205    0.0000 C   0  0  0  0  0  0  0  0  0  0  0  0
   -2.7958   -2.4054    0.0000 O   0  0  0  0  0  0  0  0  0  0  0  0
   -3.5493   -2.0700    0.0000 C   0  0  0  0  0  0  0  0  0  0  0  0
   -3.6357   -1.2495    0.0000 C   0  0  0  0  0  0  0  0  0  0  0  0
   -1.3474    2.4054    0.0000 O   0  0  0  0  0  0  0  0  0  0  0  0
    1.4299   -0.4286    0.0000 C   0  0  0  0  0  0  0  0  0  0  0  0
    2.2145   -0.1736    0.0000 C   0  0  0  0  0  0  0  0  0  0  0  0
  2  1  1  0
  3  2  1  0
  4  2  2  0
  5  1  1  0
  6  5  1  0
  6 22  2  0
  7  6  1  0
  8  7  2  0
  9  8  1  0
 10  9  1  0
 11 10  1  0
 11 12  1  0
 12 13  1  0
 12 14  1  0
 13  9  1  0
 15 14  1  0
 16 15  1  0
 17 16  1  0
 18 17  1  0
 18 19  1  0
 19 20  1  0
 20 15  1  0
 21 10  2  0
 22 23  1  0
 23  1  2  0
M  CHG  2   2   1   3  -1
M  END
>  <DRUGBANK_ID>  (1) 
DB16567

>  <COMMON_NAME>  (1) 
Furaltadone

>  <CAS_NUMBER>  (1) 
139-91-3

>  <UNII>  (1) 
5X4V82ZN30

>  <SYNONYMS>  (1) 
Furaltadona; Furaltadone

$$$$
