HOM
     RDKit          2D

 16 17  0  0  0  0  0  0  0  0999 V2000
   -0.4969   -0.0587    0.0000 C   0  0  0  0  0  0  0  0  0  0  0  0
   -0.4969    0.7663    0.0000 C   0  0  0  0  0  0  0  0  0  0  0  0
    0.9320    0.7663    0.0000 C   0  0  0  0  0  0  0  0  0  0  0  0
    1.6465    1.1788    0.0000 C   0  0  0  0  0  0  0  0  0  0  0  0
    2.3610    0.7663    0.0000 C   0  0  0  0  0  0  0  0  0  0  0  0
    2.3610   -0.0587    0.0000 C   0  0  0  0  0  0  0  0  0  0  0  0
    1.6465   -0.4712    0.0000 C   0  0  0  0  0  0  0  0  0  0  0  0
    0.9320   -0.0587    0.0000 C   0  0  0  0  0  0  0  0  0  0  0  0
    0.2176   -0.4712    0.0000 C   0  0  0  0  0  0  0  0  0  0  0  0
   -1.2114   -0.4712    0.0000 C   0  0  0  0  0  0  0  0  0  0  0  0
   -1.9259   -0.0587    0.0000 C   0  0  0  0  0  0  0  0  0  0  0  0
    0.2176   -1.2962    0.0000 C   0  0  0  0  0  0  0  0  0  0  0  0
   -1.2114    1.1788    0.0000 O   0  0  0  0  0  0  0  0  0  0  0  0
    0.2176    1.1788    0.0000 O   0  0  0  0  0  0  0  0  0  0  0  0
    3.0754    1.1788    0.0000 O   0  0  0  0  0  0  0  0  0  0  0  0
   -2.6403   -0.4712    0.0000 O   0  0  0  0  0  0  0  0  0  0  0  0
  1  2  1  0
  1  9  2  0
  1 10  1  0
  2 13  2  0
  2 14  1  0
  3  4  1  0
  3  8  2  0
  3 14  1  0
  4  5  2  0
  5  6  1  0
  5 15  1  0
  6  7  2  0
  7  8  1  0
  8  9  1  0
  9 12  1  0
 10 11  1  0
 11 16  1  0
M  END
>  <DRUGBANK_ID>  (1) 
DB07908

>  <COMMON_NAME>  (1) 
7-HYDROXY-4-METHYL-3-(2-HYDROXY-ETHYL)COUMARIN

$$$$
