D3E
     RDKit          2D

 31 34  0  0  0  0  0  0  0  0999 V2000
    4.6241   -2.0081    0.0000 F   0  0  0  0  0  0  0  0  0  0  0  0
    3.9096   -1.5956    0.0000 C   0  0  0  0  0  0  0  0  0  0  0  0
    4.3221   -0.8811    0.0000 F   0  0  0  0  0  0  0  0  0  0  0  0
    3.4971   -2.3100    0.0000 F   0  0  0  0  0  0  0  0  0  0  0  0
    3.1952   -1.1831    0.0000 C   0  0  0  0  0  0  0  0  0  0  0  0
    3.6077   -0.4686    0.0000 C   0  0  0  0  0  0  0  0  0  0  0  0
    2.7827   -1.8975    0.0000 O   0  0  0  0  0  0  0  0  0  0  0  0
    2.4807   -0.7706    0.0000 C   0  0  0  0  0  0  0  0  0  0  0  0
    1.7662   -1.1831    0.0000 C   0  0  0  0  0  0  0  0  0  0  0  0
    1.0517   -0.7706    0.0000 C   0  0  0  0  0  0  0  0  0  0  0  0
    1.0517    0.0544    0.0000 C   0  0  0  0  0  0  0  0  0  0  0  0
    1.7662    0.4669    0.0000 C   0  0  0  0  0  0  0  0  0  0  0  0
    2.4807    0.0544    0.0000 C   0  0  0  0  0  0  0  0  0  0  0  0
    0.3373    0.4669    0.0000 C   0  0  0  0  0  0  0  0  0  0  0  0
    0.3373    1.2919    0.0000 O   0  0  0  0  0  0  0  0  0  0  0  0
   -0.3772    0.0544    0.0000 N   0  0  0  0  0  0  0  0  0  0  0  0
   -0.3772   -0.7706    0.0000 C   0  0  0  0  0  0  0  0  0  0  0  0
    0.0353   -1.4850    0.0000 C   0  0  0  0  0  0  0  0  0  0  0  0
   -0.7897   -1.4850    0.0000 C   0  0  0  0  0  0  0  0  0  0  0  0
   -1.0917    0.4669    0.0000 C   0  0  0  0  0  0  0  0  0  0  0  0
   -1.8061    0.0544    0.0000 C   0  0  0  0  0  0  0  0  0  0  0  0
   -2.5206    0.4669    0.0000 C   0  0  0  0  0  0  0  0  0  0  0  0
   -2.5206    1.2919    0.0000 C   0  0  0  0  0  0  0  0  0  0  0  0
   -1.8061    1.7044    0.0000 C   0  0  0  0  0  0  0  0  0  0  0  0
   -1.0917    1.2919    0.0000 C   0  0  0  0  0  0  0  0  0  0  0  0
   -3.2351    1.7044    0.0000 C   0  0  0  0  0  0  0  0  0  0  0  0
   -3.9495    1.2919    0.0000 C   0  0  0  0  0  0  0  0  0  0  0  0
   -4.6640    1.7044    0.0000 C   0  0  0  0  0  0  0  0  0  0  0  0
   -4.6640    2.5294    0.0000 C   0  0  0  0  0  0  0  0  0  0  0  0
   -3.9495    2.9419    0.0000 N   0  0  0  0  0  0  0  0  0  0  0  0
   -3.2351    2.5294    0.0000 C   0  0  0  0  0  0  0  0  0  0  0  0
  1  2  1  0
  2  3  1  0
  2  4  1  0
  2  5  1  0
  5  6  1  6
  5  7  1  0
  5  8  1  0
  8  9  2  0
  8 13  1  0
  9 10  1  0
 10 11  2  0
 11 12  1  0
 11 14  1  0
 12 13  2  0
 14 15  2  0
 14 16  1  0
 16 17  1  0
 17 18  1  0
 17 19  1  0
 18 19  1  0
 20 16  1  6
 20 21  1  0
 20 25  1  0
 21 22  1  0
 22 23  1  0
 23 24  1  0
 23 26  1  1
 24 25  1  0
 26 27  2  0
 26 31  1  0
 27 28  1  0
 28 29  2  0
 29 30  1  0
 30 31  2  0
M  END
>  <DRUGBANK_ID>  (1) 
DB07619

>  <COMMON_NAME>  (1) 
N-cyclopropyl-N-(trans-4-pyridin-3-ylcyclohexyl)-4-[(1S)-2,2,2-trifluoro-1-hydroxy-1-methylethyl]benzamide

$$$$
