PY8
     RDKit          2D

 22 24  0  0  0  0  0  0  0  0999 V2000
    4.9485   -0.1974    0.0000 Br  0  0  0  0  0  0  0  0  0  0  0  0
    4.2341    0.2151    0.0000 C   0  0  0  0  0  0  0  0  0  0  0  0
    4.2341    1.0401    0.0000 C   0  0  0  0  0  0  0  0  0  0  0  0
    3.5196    1.4526    0.0000 N   0  0  0  0  0  0  0  0  0  0  0  0
    2.8051    1.0401    0.0000 C   0  0  0  0  0  0  0  0  0  0  0  0
    2.8051    0.2151    0.0000 N   0  0  0  0  0  0  0  0  0  0  0  0
    3.5196   -0.1974    0.0000 C   0  0  0  0  0  0  0  0  0  0  0  0
    3.5196   -1.0224    0.0000 N   0  0  0  0  0  0  0  0  0  0  0  0
    2.7581   -1.5073    0.0000 C   0  0  0  0  0  0  0  0  0  0  0  0
    2.5031   -2.2919    0.0000 C   0  0  0  0  0  0  0  0  0  0  0  0
    1.6781   -2.2919    0.0000 C   0  0  0  0  0  0  0  0  0  0  0  0
    1.4232   -1.5073    0.0000 N   0  0  0  0  0  0  0  0  0  0  0  0
    0.6617   -1.0224    0.0000 S   0  0  0  0  0  0  0  0  0  0  0  0
    0.3572   -1.7891    0.0000 O   0  0  0  0  0  0  0  0  0  0  0  0
   -0.1486   -0.8674    0.0000 O   0  0  0  0  0  0  0  0  0  0  0  0
    0.6617   -0.1974    0.0000 C   0  0  0  0  0  0  0  0  0  0  0  0
    1.3762    0.2151    0.0000 C   0  0  0  0  0  0  0  0  0  0  0  0
   -0.0528    0.2151    0.0000 C   0  0  0  0  0  0  0  0  0  0  0  0
   -0.0528    1.0401    0.0000 C   0  0  0  0  0  0  0  0  0  0  0  0
    0.6617    1.4526    0.0000 C   0  0  0  0  0  0  0  0  0  0  0  0
    1.3762    1.0401    0.0000 C   0  0  0  0  0  0  0  0  0  0  0  0
    2.0906    1.4526    0.0000 N   0  0  0  0  0  0  0  0  0  0  0  0
  1  2  1  0
  2  3  2  0
  2  7  1  0
  3  4  1  0
  4  5  2  0
  5  6  1  0
  5 22  1  0
  6  7  2  0
  7  8  1  0
  8  9  1  0
  9 10  1  0
 10 11  1  0
 11 12  1  0
 12 13  1  0
 13 14  2  0
 13 15  2  0
 13 16  1  0
 16 17  1  0
 16 18  2  0
 17 21  2  0
 18 19  1  0
 19 20  2  0
 20 21  1  0
 21 22  1  0
M  END
>  <DRUGBANK_ID>  (1) 
DB08441

>  <COMMON_NAME>  (1) 
6-BROMO-13-THIA-2,4,8,12,19-PENTAAZATRICYCLO[12.3.1.1~3,7~]NONADECA-1(18),3(19),4,6,14,16-HEXAENE 13,13-DIOXIDE

$$$$
