
     RDKit          2D

 29 32  0  0  1  0  0  0  0  0999 V2000
    3.7054    1.0256    0.0000 C   0  0  0  0  0  0  0  0  0  0  0  0
    3.9604    0.2410    0.0000 C   0  0  0  0  0  0  0  0  0  0  0  0
    2.8985    1.1971    0.0000 C   0  0  0  0  0  0  0  0  0  0  0  0
    3.4084   -0.3721    0.0000 C   0  0  0  0  0  0  0  0  0  0  0  0
   -0.1768    4.6056    0.0000 C   0  0  0  0  0  0  0  0  0  0  0  0
    1.1822    4.1641    0.0000 C   0  0  0  0  0  0  0  0  0  0  0  0
   -0.0925    0.2410    0.0000 C   0  0  0  0  0  0  0  0  0  0  0  0
   -0.4317    3.8210    0.0000 C   0  0  0  0  0  0  0  0  0  0  0  0
    0.9273    3.3795    0.0000 C   0  0  0  0  0  0  0  0  0  0  0  0
    0.4595   -0.3721    0.0000 C   0  0  0  0  0  0  0  0  0  0  0  0
    2.6484   -1.9230    0.0000 C   0  0  0  0  0  0  0  0  0  0  0  0
    1.9339   -1.5105    0.0000 C   0  0  0  0  0  0  0  0  0  0  0  0
    0.9694    1.1971    0.0000 C   0  0  0  0  0  0  0  0  0  0  0  0
    0.6302    4.7772    0.0000 C   0  0  0  0  0  0  0  0  0  0  0  0
    0.1624    1.0256    0.0000 C   0  0  0  0  0  0  0  0  0  0  0  0
    0.1203    3.2079    0.0000 C   0  0  0  0  0  0  0  0  0  0  0  0
    2.3464    0.5840    0.0000 C   0  0  0  0  0  0  0  0  0  0  0  0
    1.5214    0.5840    0.0000 C   0  0  0  0  0  0  0  0  0  0  0  0
    2.6014   -0.2006    0.0000 C   0  0  0  0  0  0  0  0  0  0  0  0
    1.2665   -0.2006    0.0000 C   0  0  0  0  0  0  0  0  0  0  0  0
    2.6484   -2.7480    0.0000 C   0  0  0  0  0  0  0  0  0  0  0  0
    0.8851    5.5618    0.0000 F   0  0  0  0  0  0  0  0  0  0  0  0
   -0.3896    1.6387    0.0000 N   0  0  0  0  0  0  0  0  0  0  0  0
    1.9339   -0.6855    0.0000 N   0  0  0  0  0  0  0  0  0  0  0  0
    3.3629   -3.1605    0.0000 O   0  0  0  0  0  0  0  0  0  0  0  0
    1.9339   -3.1605    0.0000 O   0  0  0  0  0  0  0  0  0  0  0  0
   -0.9193    2.6782    0.0000 O   0  0  0  0  0  0  0  0  0  0  0  0
    0.6500    2.1684    0.0000 O   0  0  0  0  0  0  0  0  0  0  0  0
   -0.1347    2.4233    0.0000 S   0  0  0  0  0  0  0  0  0  0  0  0
  2  1  2  0
  3  1  1  0
  4  2  1  0
  8  5  2  0
  9  6  1  0
 10  7  1  0
 12 11  1  0
 14  5  1  0
 14  6  2  0
 15  7  1  0
 15 13  1  0
 15 23  1  1
 16  8  1  0
 16  9  2  0
 17  3  2  0
 18 13  1  0
 18 17  1  0
 19  4  2  0
 19 17  1  0
 20 10  1  0
 20 18  2  0
 21 11  1  0
 22 14  1  0
 24 12  1  0
 24 19  1  0
 24 20  1  0
 25 21  2  0
 26 21  1  0
 29 16  1  0
 29 23  1  0
 29 27  2  0
 29 28  2  0
M  END
>  <DRUGBANK_ID>  (1) 
DB13036

>  <COMMON_NAME>  (1) 
Ramatroban

>  <CAS_NUMBER>  (1) 
116649-85-5

>  <UNII>  (1) 
P1ALI72U6C

>  <SYNONYMS>  (1) 
Ramatroban

$$$$
