
     RDKit          2D

 29 30  0  0  0  0  0  0  0  0999 V2000
   -3.6422   -1.3424    0.0000 O   0  0  0  0  0  0  0  0  0  0  0  0
   -3.6422    1.5526    0.0000 O   0  0  0  0  0  0  0  0  0  0  0  0
    0.7004   -0.3074    0.0000 O   0  0  0  0  0  0  0  0  0  0  0  0
   -0.1244   -1.7161    0.0000 O   0  0  0  0  0  0  0  0  0  0  0  0
    3.1909    1.2179    0.0000 O   0  0  0  0  0  0  0  0  0  0  0  0
    2.4827    2.4632    0.0000 O   0  0  0  0  0  0  0  0  0  0  0  0
   -2.6072   -0.3074    0.0000 C   0  0  0  0  0  0  0  0  0  0  0  0
   -2.6072    0.5175    0.0000 C   0  0  0  0  0  0  0  0  0  0  0  0
   -3.3933   -0.5564    0.0000 C   0  0  0  0  0  0  0  0  0  0  0  0
   -3.3933    0.7666    0.0000 C   0  0  0  0  0  0  0  0  0  0  0  0
   -3.8913    0.1050    0.0000 C   0  0  0  0  0  0  0  0  0  0  0  0
   -1.7822   -0.3074    0.0000 C   0  0  0  0  0  0  0  0  0  0  0  0
   -1.7822    0.5175    0.0000 C   0  0  0  0  0  0  0  0  0  0  0  0
   -1.3697   -1.0156    0.0000 C   0  0  0  0  0  0  0  0  0  0  0  0
   -1.3697    1.2179    0.0000 C   0  0  0  0  0  0  0  0  0  0  0  0
   -0.5369   -1.0156    0.0000 C   0  0  0  0  0  0  0  0  0  0  0  0
   -0.1244   -0.3074    0.0000 C   0  0  0  0  0  0  0  0  0  0  0  0
    1.1207   -1.0156    0.0000 C   0  0  0  0  0  0  0  0  0  0  0  0
   -0.5369    1.2179    0.0000 C   0  0  0  0  0  0  0  0  0  0  0  0
    1.9457   -1.0156    0.0000 C   0  0  0  0  0  0  0  0  0  0  0  0
    0.7004   -1.7627    0.0000 C   0  0  0  0  0  0  0  0  0  0  0  0
    0.2879    1.2179    0.0000 C   0  0  0  0  0  0  0  0  0  0  0  0
    2.3582   -1.7627    0.0000 C   0  0  0  0  0  0  0  0  0  0  0  0
    1.1207   -2.4632    0.0000 C   0  0  0  0  0  0  0  0  0  0  0  0
    1.9457   -2.4632    0.0000 C   0  0  0  0  0  0  0  0  0  0  0  0
    1.0351    1.6382    0.0000 C   0  0  0  0  0  0  0  0  0  0  0  0
    1.7356    1.2179    0.0000 C   0  0  0  0  0  0  0  0  0  0  0  0
    2.4827    1.6382    0.0000 C   0  0  0  0  0  0  0  0  0  0  0  0
    3.8913    1.6382    0.0000 C   0  0  0  0  0  0  0  0  0  0  0  0
  3 17  1  0
  3 18  1  0
  5 28  1  0
  5 29  1  0
  6 28  2  0
  7  8  1  0
  7  9  1  0
  7 12  1  6
  8 10  1  0
  8 13  1  1
  9  1  1  1
  9 11  1  0
 10  2  1  1
 10 11  1  0
 12 14  2  0
 13 15  1  0
 14 16  1  0
 15 19  2  0
 16  4  1  1
 16 17  1  0
 18 20  2  0
 18 21  1  0
 19 22  2  0
 20 23  1  0
 21 24  2  0
 22 26  1  0
 23 25  2  0
 24 25  1  0
 26 27  1  0
 27 28  1  0
M  END
>  <DRUGBANK_ID>  (1) 
DB11411

>  <COMMON_NAME>  (1) 
Fenprostalene

>  <CAS_NUMBER>  (1) 
69381-94-8

>  <UNII>  (1) 
X8I39OJF4P

>  <SYNONYMS>  (1) 
Fenprostalene

$$$$
