
     RDKit          2D

 27 30  0  0  0  0  0  0  0  0999 V2000
    0.7757   -0.2133    0.0000 C   0  0  0  0  0  0  0  0  0  0  0  0
   -0.6609   -0.2057    0.0000 C   0  0  0  0  0  0  0  0  0  0  0  0
    2.1974   -0.2207    0.0000 C   0  0  0  0  0  0  0  0  0  0  0  0
    0.0548   -0.6172    0.0000 C   0  0  0  0  0  0  0  0  0  0  0  0
    1.4865   -0.6248    0.0000 C   0  0  0  0  0  0  0  0  0  0  0  0
   -1.3793   -0.6172    0.0000 C   0  0  0  0  0  0  0  0  0  0  0  0
    2.2049    0.6098    0.0000 C   0  0  0  0  0  0  0  0  0  0  0  0
   -2.0901   -0.1982    0.0000 C   0  0  0  0  0  0  0  0  0  0  0  0
    0.7757    0.6172    0.0000 C   0  0  0  0  0  0  0  0  0  0  0  0
   -0.6609    0.6248    0.0000 C   0  0  0  0  0  0  0  0  0  0  0  0
   -2.0901    0.5724    0.0000 C   0  0  0  0  0  0  0  0  0  0  0  0
    2.8784   -0.5026    0.0000 C   0  0  0  0  0  0  0  0  0  0  0  0
    1.4940    1.0288    0.0000 C   0  0  0  0  0  0  0  0  0  0  0  0
    0.0623    1.0313    0.0000 C   0  0  0  0  0  0  0  0  0  0  0  0
   -1.3718    1.0389    0.0000 C   0  0  0  0  0  0  0  0  0  0  0  0
    1.4865   -1.4554    0.0000 O   0  0  0  0  0  0  0  0  0  0  0  0
   -1.3793   -1.4404    0.0000 O   0  0  0  0  0  0  0  0  0  0  0  0
   -2.7636   -0.5849    0.0000 C   0  0  0  0  0  0  0  0  0  0  0  0
    2.8784   -1.1685    0.0000 O   0  0  0  0  0  0  0  0  0  0  0  0
    0.0548   -1.4479    0.0000 O   0  0  0  0  0  0  0  0  0  0  0  0
    2.7138    0.9316    0.0000 O   0  0  0  0  0  0  0  0  0  0  0  0
    3.4246   -0.1159    0.0000 N   0  0  0  0  0  0  0  0  0  0  0  0
   -2.7562    0.9640    0.0000 C   0  0  0  0  0  0  0  0  0  0  0  0
   -2.7636   -1.4080    0.0000 O   0  0  0  0  0  0  0  0  0  0  0  0
   -3.4246    0.5799    0.0000 C   0  0  0  0  0  0  0  0  0  0  0  0
   -3.4246   -0.1907    0.0000 C   0  0  0  0  0  0  0  0  0  0  0  0
    0.7732   -1.0389    0.0000 O   0  0  0  0  0  0  0  0  0  0  0  0
  1 27  1  6
  2 10  1  0
  2  4  2  0
  3  5  1  0
  4  1  1  0
  5  1  1  0
  6  2  1  0
  7 13  1  0
  7  3  2  0
  8  6  1  0
  8 11  2  0
  9  1  1  0
 10 14  1  1
 11 15  1  0
 12  3  1  0
  9 13  1  1
 14  9  1  0
 15 10  1  0
 16  5  2  0
 17  6  2  0
 18  8  1  0
 19 12  2  0
 20  4  1  0
 21  7  1  0
 22 12  1  0
 23 11  1  0
 24 18  1  0
 25 23  2  0
 26 18  2  0
 26 25  1  0
M  END
>  <DRUGBANK_ID>  (1) 
DB11647

>  <COMMON_NAME>  (1) 
Incyclinide

>  <CAS_NUMBER>  (1) 
15866-90-7

>  <UNII>  (1) 
21G64WZQ4I

>  <SYNONYMS>  (1) 
Incyclinide

$$$$
