
     RDKit          2D

 28 31  0  0  1  0  0  0  0  0999 V2000
   -3.6632   -2.2348    0.0000 C   0  0  0  0  0  0  0  0  0  0  0  0
   -4.3551   -1.7855    0.0000 N   0  0  0  0  0  0  0  0  0  0  0  0
   -4.1415   -0.9886    0.0000 N   0  0  0  0  0  0  0  0  0  0  0  0
   -3.3177   -0.9455    0.0000 N   0  0  0  0  0  0  0  0  0  0  0  0
   -3.0220   -1.7157    0.0000 N   0  0  0  0  0  0  0  0  0  0  0  0
   -2.2251   -1.9292    0.0000 C   0  0  0  0  0  0  0  0  0  0  0  0
   -1.6418   -1.3458    0.0000 C   0  0  0  0  0  0  0  0  0  0  0  0
   -1.8553   -0.5489    0.0000 O   0  0  0  0  0  0  0  0  0  0  0  0
   -0.8449   -1.5593    0.0000 N   0  0  0  0  0  0  0  0  0  0  0  0
   -0.2615   -0.9760    0.0000 C   0  0  0  0  0  0  0  0  0  0  0  0
    0.5635   -0.9760    0.0000 C   0  0  0  0  0  0  0  0  0  0  0  0
    0.5635   -0.1510    0.0000 N   0  0  0  0  0  0  0  0  0  0  0  0
   -0.2615   -0.1510    0.0000 C   0  0  0  0  0  0  0  0  0  0  0  0
   -0.8449    0.4324    0.0000 O   0  0  0  0  0  0  0  0  0  0  0  0
    1.2780    0.2615    0.0000 C   0  0  0  0  0  0  0  0  0  0  0  0
    1.9924   -0.1510    0.0000 C   0  0  0  0  0  0  0  0  0  0  0  0
    1.9924   -0.9760    0.0000 C   0  0  0  0  0  0  0  0  0  0  0  0
    1.2780   -1.3885    0.0000 S   0  0  0  0  0  0  0  0  0  0  0  0
    2.7069    0.2615    0.0000 C   0  0  0  0  0  0  0  0  0  0  0  0
    2.7069    1.0865    0.0000 S   0  0  0  0  0  0  0  0  0  0  0  0
    3.4214    1.4990    0.0000 C   0  0  0  0  0  0  0  0  0  0  0  0
    3.5076    2.3195    0.0000 N   0  0  0  0  0  0  0  0  0  0  0  0
    4.3146    2.4910    0.0000 N   0  0  0  0  0  0  0  0  0  0  0  0
    4.7271    1.7766    0.0000 C   0  0  0  0  0  0  0  0  0  0  0  0
    4.1750    1.1635    0.0000 S   0  0  0  0  0  0  0  0  0  0  0  0
    1.2780    1.0865    0.0000 C   0  0  0  0  0  0  0  0  0  0  0  0
    1.9924    1.4990    0.0000 O   0  0  0  0  0  0  0  0  0  0  0  0
    0.5635    1.4990    0.0000 O   0  0  0  0  0  0  0  0  0  0  0  0
  1  2  2  0
  1  5  1  0
  2  3  1  0
  3  4  2  0
  4  5  1  0
  5  6  1  0
  6  7  1  0
  7  8  2  0
  7  9  1  0
 10  9  1  6
 10 11  1  0
 10 13  1  0
 11 12  1  0
 11 18  1  6
 12 13  1  0
 12 15  1  0
 13 14  2  0
 15 16  2  0
 15 26  1  0
 16 17  1  0
 16 19  1  0
 17 18  1  0
 19 20  1  0
 20 21  1  0
 21 22  2  0
 21 25  1  0
 22 23  1  0
 23 24  2  0
 24 25  1  0
 26 27  2  0
 26 28  1  0
M  END
>  <DRUGBANK_ID>  (1) 
DB13821

>  <COMMON_NAME>  (1) 
Ceftezole

>  <CAS_NUMBER>  (1) 
26973-24-0

>  <UNII>  (1) 
2Z86SYP11W

>  <SYNONYMS>  (1) 
ceftezol; Ceftezole

$$$$
