46U
     RDKit          2D

 28 30  0  0  0  0  0  0  0  0999 V2000
    1.3535    0.4757    0.0000 O   0  0  0  0  0  0  0  0  0  0  0  0
    0.7405    1.0277    0.0000 C   0  0  0  0  0  0  0  0  0  0  0  0
    0.9120    1.8347    0.0000 C   0  0  0  0  0  0  0  0  0  0  0  0
    1.6966    2.0896    0.0000 O   0  0  0  0  0  0  0  0  0  0  0  0
    1.8681    2.8966    0.0000 C   0  0  0  0  0  0  0  0  0  0  0  0
    1.2550    3.4486    0.0000 C   0  0  0  0  0  0  0  0  0  0  0  0
    1.4266    4.2556    0.0000 C   0  0  0  0  0  0  0  0  0  0  0  0
    2.2112    4.5105    0.0000 C   0  0  0  0  0  0  0  0  0  0  0  0
    2.8243    3.9585    0.0000 C   0  0  0  0  0  0  0  0  0  0  0  0
    2.6527    3.1515    0.0000 C   0  0  0  0  0  0  0  0  0  0  0  0
   -0.0442    0.7728    0.0000 N   0  0  0  0  0  0  0  0  0  0  0  0
   -0.2991   -0.0119    0.0000 C   0  0  0  0  0  0  0  0  0  0  0  0
   -1.1241   -0.0119    0.0000 C   0  0  0  0  0  0  0  0  0  0  0  0
   -1.3790    0.7728    0.0000 C   0  0  0  0  0  0  0  0  0  0  0  0
   -0.7116    1.2577    0.0000 C   0  0  0  0  0  0  0  0  0  0  0  0
    0.1858   -0.6793    0.0000 C   0  0  0  0  0  0  0  0  0  0  0  0
    1.0063   -0.5931    0.0000 O   0  0  0  0  0  0  0  0  0  0  0  0
   -0.1497   -1.4330    0.0000 N   0  0  0  0  0  0  0  0  0  0  0  0
    0.3352   -2.1004    0.0000 C   0  0  0  0  0  0  0  0  0  0  0  0
   -0.0004   -2.8541    0.0000 C   0  0  0  0  0  0  0  0  0  0  0  0
    0.4845   -3.5215    0.0000 C   0  0  0  0  0  0  0  0  0  0  0  0
    0.1490   -4.2752    0.0000 C   0  0  0  0  0  0  0  0  0  0  0  0
   -0.6715   -4.3614    0.0000 C   0  0  0  0  0  0  0  0  0  0  0  0
   -1.0071   -5.1151    0.0000 C   0  0  0  0  0  0  0  0  0  0  0  0
   -0.5221   -5.7825    0.0000 N   0  0  0  0  0  0  0  0  0  0  0  0
   -1.8275   -5.2013    0.0000 N   0  0  0  0  0  0  0  0  0  0  0  0
   -1.1564   -3.6940    0.0000 C   0  0  0  0  0  0  0  0  0  0  0  0
   -0.8209   -2.9403    0.0000 C   0  0  0  0  0  0  0  0  0  0  0  0
  1  2  2  0
  2  3  1  0
  2 11  1  0
  3  4  1  0
  4  5  1  0
  5  6  1  0
  5 10  1  0
  6  7  1  0
  7  8  1  0
  8  9  1  0
  9 10  1  0
 11 12  1  0
 11 15  1  0
 12 13  1  0
 12 16  1  6
 13 14  1  0
 14 15  1  0
 16 17  2  0
 16 18  1  0
 18 19  1  0
 19 20  1  0
 20 21  2  0
 20 28  1  0
 21 22  1  0
 22 23  2  0
 23 24  1  0
 23 27  1  0
 24 25  2  0
 24 26  1  0
 27 28  2  0
M  END
>  <DRUGBANK_ID>  (1) 
DB07091

>  <COMMON_NAME>  (1) 
(S)-N-(4-carbamimidoylbenzyl)-1-(2-(cyclohexyloxy)ethanoyl)pyrrolidine-2-carboxamide

$$$$
