
     RDKit          2D

  8  9  0  0  1  0  0  0  0  0999 V2000
    2.1503    1.6420    0.0000 O   0  0  0  0  0  0  0  0  0  0  0  0
    3.1897    0.6025    0.0000 N   0  0  0  0  0  0  0  0  0  0  0  0
    1.9203    0.1901    0.0000 N   0  0  0  0  0  0  0  0  0  0  0  0
    2.1503   -1.2620    0.0000 N   0  0  0  0  0  0  0  0  0  0  0  0
    3.1897   -0.2224    0.0000 C   0  0  0  0  0  0  0  0  0  0  0  0
    3.9046    0.1901    0.0000 C   0  0  0  0  0  0  0  0  0  0  0  0
    2.4051   -0.4773    0.0000 C   0  0  0  0  0  0  0  0  0  0  0  0
    2.4051    0.8575    0.0000 C   0  0  0  0  0  0  0  0  0  0  0  0
  1  8  2  0
  2  5  1  0
  2  6  1  0
  2  8  1  0
  3  7  2  0
  3  8  1  0
  4  7  1  0
  5  6  1  0
  5  7  1  0
M  END
>  <DRUGBANK_ID>  (1) 
DB05003

>  <COMMON_NAME>  (1) 
Imexon

>  <CAS_NUMBER>  (1) 
59643-91-3

>  <UNII>  (1) 
8F63U28T2V

>  <SYNONYMS>  (1) 
Imexon

$$$$
