
     RDKit          2D

 33 33  0  0  0  0  0  0  0  0999 V2000
    0.6774    2.4083    0.0000 C   0  0  0  0  0  0  0  0  0  0  0  0
    0.0941    1.8250    0.0000 C   0  0  0  0  0  0  0  0  0  0  0  0
   -0.7028    2.0385    0.0000 O   0  0  0  0  0  0  0  0  0  0  0  0
   -1.2862    1.4551    0.0000 P   0  0  0  0  0  0  0  0  0  0  0  0
   -1.8696    2.0385    0.0000 O   0  0  0  0  0  0  0  0  0  0  0  0
   -0.7028    0.8718    0.0000 O   0  0  0  0  0  0  0  0  0  0  0  0
    0.0941    1.0853    0.0000 C   0  0  0  0  0  0  0  0  0  0  0  0
    0.6774    0.5019    0.0000 C   0  0  0  0  0  0  0  0  0  0  0  0
   -1.8696    0.8718    0.0000 C   0  0  0  0  0  0  0  0  0  0  0  0
   -2.6664    1.0853    0.0000 C   0  0  0  0  0  0  0  0  0  0  0  0
   -2.8800    1.8822    0.0000 C   0  0  0  0  0  0  0  0  0  0  0  0
   -3.6769    2.0957    0.0000 C   0  0  0  0  0  0  0  0  0  0  0  0
   -3.8904    2.8926    0.0000 C   0  0  0  0  0  0  0  0  0  0  0  0
   -3.3070    3.4760    0.0000 C   0  0  0  0  0  0  0  0  0  0  0  0
   -3.5205    4.2729    0.0000 O   0  0  0  0  0  0  0  0  0  0  0  0
   -2.5101    3.2624    0.0000 C   0  0  0  0  0  0  0  0  0  0  0  0
   -2.2966    2.4656    0.0000 C   0  0  0  0  0  0  0  0  0  0  0  0
   -1.9268    3.8458    0.0000 C   0  0  0  0  0  0  0  0  0  0  0  0
   -1.3434    4.4292    0.0000 C   0  0  0  0  0  0  0  0  0  0  0  0
   -1.3434    3.2624    0.0000 C   0  0  0  0  0  0  0  0  0  0  0  0
   -2.5101    4.4292    0.0000 C   0  0  0  0  0  0  0  0  0  0  0  0
   -4.6873    3.1061    0.0000 C   0  0  0  0  0  0  0  0  0  0  0  0
   -5.4842    3.3197    0.0000 C   0  0  0  0  0  0  0  0  0  0  0  0
   -4.4737    3.9030    0.0000 C   0  0  0  0  0  0  0  0  0  0  0  0
   -4.9008    2.3092    0.0000 C   0  0  0  0  0  0  0  0  0  0  0  0
   -1.6560    0.0749    0.0000 P   0  0  0  0  0  0  0  0  0  0  0  0
   -0.8591    0.2884    0.0000 O   0  0  0  0  0  0  0  0  0  0  0  0
   -2.4529   -0.1386    0.0000 O   0  0  0  0  0  0  0  0  0  0  0  0
   -2.6664   -0.9355    0.0000 C   0  0  0  0  0  0  0  0  0  0  0  0
   -3.4633   -1.1491    0.0000 C   0  0  0  0  0  0  0  0  0  0  0  0
   -1.4425   -0.7220    0.0000 O   0  0  0  0  0  0  0  0  0  0  0  0
   -0.6456   -0.9355    0.0000 C   0  0  0  0  0  0  0  0  0  0  0  0
   -0.0622   -0.3522    0.0000 C   0  0  0  0  0  0  0  0  0  0  0  0
  1  2  1  0
  2  3  1  0
  3  4  1  0
  4  5  2  0
  4  6  1  0
  4  9  1  0
  6  7  1  0
  7  8  1  0
  9 10  2  3
  9 26  1  0
 10 11  1  0
 11 12  2  0
 11 17  1  0
 12 13  1  0
 13 14  2  0
 13 22  1  0
 14 15  1  0
 14 16  1  0
 16 17  2  0
 16 18  1  0
 18 19  1  0
 18 20  1  0
 18 21  1  0
 22 23  1  0
 22 24  1  0
 22 25  1  0
 26 27  2  0
 26 28  1  0
 26 31  1  0
 28 29  1  0
 29 30  1  0
 31 32  1  0
 32 33  1  0
M  END
>  <DRUGBANK_ID>  (1) 
DB04466

>  <SECONDARY_ACCESSION_NUMBERS>  (1) 
EXPT02953

>  <COMMON_NAME>  (1) 
SR12813

>  <CAS_NUMBER>  (1) 
126411-39-0

>  <UNII>  (1) 
6Q7MN2PVB9

$$$$
