
     RDKit          2D

 17 18  0  0  0  0  0  0  0  0999 V2000
   -0.0001   -0.3047    0.0000 C   0  0  0  0  0  0  0  0  0  0  0  0
   -0.0001    0.5203    0.0000 N   0  0  0  0  0  0  0  0  0  0  0  0
   -0.6674   -0.7896    0.0000 O   0  0  0  0  0  0  0  0  0  0  0  0
    0.6673   -0.7896    0.0000 C   0  0  0  0  0  0  0  0  0  0  0  0
    0.7144    0.9328    0.0000 C   0  0  0  0  0  0  0  0  0  0  0  0
   -0.7145    0.9328    0.0000 C   0  0  0  0  0  0  0  0  0  0  0  0
   -0.4126   -1.5741    0.0000 C   0  0  0  0  0  0  0  0  0  0  0  0
    0.4123   -1.5741    0.0000 C   0  0  0  0  0  0  0  0  0  0  0  0
    0.7144    1.7578    0.0000 N   0  0  0  0  0  0  0  0  0  0  0  0
    1.4289    0.5203    0.0000 O   0  0  0  0  0  0  0  0  0  0  0  0
   -0.7145    1.7578    0.0000 C   0  0  0  0  0  0  0  0  0  0  0  0
    0.8974   -2.2417    0.0000 O   0  0  0  0  0  0  0  0  0  0  0  0
   -0.0001    2.1703    0.0000 C   0  0  0  0  0  0  0  0  0  0  0  0
   -0.8974   -2.2417    0.0000 C   0  0  0  0  0  0  0  0  0  0  0  0
   -0.5619   -2.9953    0.0000 O   0  0  0  0  0  0  0  0  0  0  0  0
   -0.0001    2.9953    0.0000 O   0  0  0  0  0  0  0  0  0  0  0  0
   -1.4289    2.1703    0.0000 I   0  0  0  0  0  0  0  0  0  0  0  0
  1  2  1  1
  1  3  1  0
  1  4  1  0
  2  5  1  0
  2  6  1  0
  3  7  1  0
  4  8  1  0
  5  9  1  0
  5 10  2  0
  6 11  2  0
  7 14  1  1
  7  8  1  0
  8 12  1  6
  9 13  1  0
 11 13  1  0
 11 17  1  0
 13 16  2  0
 14 15  1  0
M  END
>  <DRUGBANK_ID>  (1) 
DB00249

>  <SECONDARY_ACCESSION_NUMBERS>  (1) 
APRD00504; EXPT01835; DB03778

>  <COMMON_NAME>  (1) 
Idoxuridine

>  <CAS_NUMBER>  (1) 
54-42-2

>  <UNII>  (1) 
LGP81V5245

>  <SYNONYMS>  (1) 
(+)-5-Iodo-2'-deoxyuridine; 1-(2-Deoxy-beta-D-ribofuranosyl)-5-iodouracil; 1-beta-D-2'-Deoxyribofuranosyl-5-iodouracil; 1beta-D-2'-Deoxyribofuranosyl-5-iodouracil; 2'-Deoxy-5-iodouridine; 5-iodo-2'-deoxyuridine; 5-Iododeoxyuridine; 5-Iodouracil deoxyriboside; Idoxuridin; Idoxuridina; Idoxuridine; Idoxuridinum; IdU; Iododeoxyridine; Iodoxuridine; Joddeoxiuridin

$$$$
