
     RDKit          2D

 30 32  0  0  0  0  0  0  0  0999 V2000
   -0.6600    0.4331    0.0000 C   0  0  0  0  0  0  0  0  0  0  0  0
   -1.3613    0.0206    0.0000 C   0  0  0  0  0  0  0  0  0  0  0  0
   -1.3613   -0.8456    0.0000 C   0  0  0  0  0  0  0  0  0  0  0  0
   -0.6600   -1.2581    0.0000 N   0  0  0  0  0  0  0  0  0  0  0  0
    0.0824   -0.8456    0.0000 C   0  0  0  0  0  0  0  0  0  0  0  0
    0.0824    0.0206    0.0000 C   0  0  0  0  0  0  0  0  0  0  0  0
    0.0824    0.8456    0.0000 C   0  0  0  0  0  0  0  0  0  0  0  0
   -1.3613    0.8456    0.0000 N   0  0  0  0  0  0  0  0  0  0  0  0
   -2.0213    0.4331    0.0000 C   0  0  0  0  0  0  0  0  0  0  0  0
   -1.3613    1.6706    0.0000 C   0  0  0  0  0  0  0  0  0  0  0  0
   -0.6600    2.0832    0.0000 C   0  0  0  0  0  0  0  0  0  0  0  0
   -0.6600    2.9494    0.0000 C   0  0  0  0  0  0  0  0  0  0  0  0
   -1.3613    3.3619    0.0000 C   0  0  0  0  0  0  0  0  0  0  0  0
   -2.0626    2.9082    0.0000 C   0  0  0  0  0  0  0  0  0  0  0  0
   -2.0626    2.0832    0.0000 C   0  0  0  0  0  0  0  0  0  0  0  0
   -2.7226    0.8456    0.0000 C   0  0  0  0  0  0  0  0  0  0  0  0
   -3.5063    0.4331    0.0000 C   0  0  0  0  0  0  0  0  0  0  0  0
   -2.0213   -0.3918    0.0000 O   0  0  0  0  0  0  0  0  0  0  0  0
    0.7837    0.4331    0.0000 O   0  0  0  0  0  0  0  0  0  0  0  0
    1.4849    0.8456    0.0000 C   0  0  0  0  0  0  0  0  0  0  0  0
   -0.6600   -2.0832    0.0000 C   0  0  0  0  0  0  0  0  0  0  0  0
    0.0412   -2.4544    0.0000 C   0  0  0  0  0  0  0  0  0  0  0  0
    0.7837   -2.0832    0.0000 N   0  0  0  0  0  0  0  0  0  0  0  0
    1.4437   -2.5369    0.0000 C   0  0  0  0  0  0  0  0  0  0  0  0
    2.1038   -2.0419    0.0000 N   0  0  0  0  0  0  0  0  0  0  0  0
    1.8563   -1.2993    0.0000 N   0  0  0  0  0  0  0  0  0  0  0  0
    1.0312   -1.2993    0.0000 N   0  0  0  0  0  0  0  0  0  0  0  0
    1.4437   -3.3619    0.0000 O   0  0  0  0  0  0  0  0  0  0  0  0
    2.8050   -2.4544    0.0000 C   0  0  0  0  0  0  0  0  0  0  0  0
    3.5063   -2.0419    0.0000 C   0  0  0  0  0  0  0  0  0  0  0  0
  1  2  1  0
  1  6  1  0
  1  7  1  0
  1  8  1  0
  2  3  1  0
  3  4  1  0
  4  5  1  0
  4 21  1  0
  5  6  1  0
  7 19  1  0
  8  9  1  0
  8 10  1  0
  9 16  1  0
  9 18  2  0
 10 11  2  0
 10 15  1  0
 11 12  1  0
 12 13  2  0
 13 14  1  0
 14 15  2  0
 16 17  1  0
 19 20  1  0
 21 22  1  0
 22 23  1  0
 23 24  1  0
 23 27  1  0
 24 25  1  0
 24 28  2  0
 25 26  1  0
 25 29  1  0
 26 27  2  0
 29 30  1  0
M  END
>  <DRUGBANK_ID>  (1) 
DB00802

>  <SECONDARY_ACCESSION_NUMBERS>  (1) 
APRD00726

>  <COMMON_NAME>  (1) 
Alfentanil

>  <CAS_NUMBER>  (1) 
71195-58-9

>  <UNII>  (1) 
1N74HM2BS7

>  <SYNONYMS>  (1) 
Alfentanil; Alfentanilo; Alfentanilum; Alfentanyl; N-(1-(2-(4-Ethyl-5-oxo-2-tetrazolin-1-yl)ethyl)-4-(methoxymethyl)-4-piperidyl)propionanilide

$$$$
