
     RDKit          2D

 23 26  0  0  1  0  0  0  0  0999 V2000
    9.1110  -10.3796    0.0000 C   0  0  0  0  0  0  0  0  0  0  0  0
    9.1110  -11.2046    0.0000 C   0  0  0  0  0  0  0  0  0  0  0  0
    9.8255  -11.6171    0.0000 C   0  0  0  0  0  0  0  0  0  0  0  0
   10.5400  -11.2046    0.0000 C   0  0  0  0  0  0  0  0  0  0  0  0
   10.5400  -10.3796    0.0000 C   0  0  0  0  0  0  0  0  0  0  0  0
    9.8255   -9.9672    0.0000 C   0  0  0  0  0  0  0  0  0  0  0  0
   11.2544  -11.6171    0.0000 C   0  0  0  0  0  0  0  0  0  0  0  0
   11.9688  -11.2046    0.0000 C   0  0  0  0  0  0  0  0  0  0  0  0
   11.9688  -10.3796    0.0000 C   0  0  0  0  0  0  0  0  0  0  0  0
   11.2544   -9.9672    0.0000 C   0  0  0  0  0  0  0  0  0  0  0  0
   12.6833   -9.9672    0.0000 C   0  0  0  0  0  0  0  0  0  0  0  0
   12.6833   -9.1422    0.0000 C   0  0  0  0  0  0  0  0  0  0  0  0
   11.9688   -8.7297    0.0000 C   0  0  0  0  0  0  0  0  0  0  0  0
   11.2544   -9.1422    0.0000 C   0  0  0  0  0  0  0  0  0  0  0  0
   14.1122   -9.9672    0.0000 C   0  0  0  0  0  0  0  0  0  0  0  0
   14.1122   -9.1422    0.0000 C   0  0  0  0  0  0  0  0  0  0  0  0
   13.3978   -8.7297    0.0000 C   0  0  0  0  0  0  0  0  0  0  0  0
   13.3978   -7.9047    0.0000 C   0  0  0  0  0  0  0  0  0  0  0  0
   12.6833   -8.3171    0.0000 C   0  0  0  0  0  0  0  0  0  0  0  0
   10.5400   -9.5546    0.0000 C   0  0  0  0  0  0  0  0  0  0  0  0
    8.3966  -11.6171    0.0000 O   0  0  0  0  0  0  0  0  0  0  0  0
   14.1146   -7.4908    0.0000 C   0  0  0  0  0  0  0  0  0  0  0  0
   12.6857   -7.4935    0.0000 O   0  0  0  0  0  0  0  0  0  0  0  0
  1  2  1  0
  1  6  1  0
  2  3  1  0
  2 21  1  6
  4  3  1  6
  4  5  1  0
  4  7  1  0
  5  6  1  0
  5 10  1  0
  5 20  1  1
  7  8  1  0
  9  8  1  6
  9 10  1  0
  9 11  1  0
 10 14  1  1
 11 12  1  0
 11 15  1  1
 12 13  1  0
 12 17  1  0
 12 19  1  1
 13 14  1  0
 15 16  1  0
 16 17  1  0
 17 18  1  1
 18 22  1  0
 18 23  2  0
M  END
>  <DRUGBANK_ID>  (1) 
DB12308

>  <COMMON_NAME>  (1) 
Eltanolone

>  <CAS_NUMBER>  (1) 
128-20-1

>  <UNII>  (1) 
BXO86P3XXW

>  <SYNONYMS>  (1) 
eltanolona; Eltanolone; Pregnanolone

$$$$
