JNO
     RDKit          2D

 27 30  0  0  0  0  0  0  0  0999 V2000
   -2.6154    4.1990    0.0000 C   0  0  0  0  0  0  0  0  0  0  0  0
   -1.8084    4.0275    0.0000 N   0  0  0  0  0  0  0  0  0  0  0  0
   -1.5535    3.2429    0.0000 C   0  0  0  0  0  0  0  0  0  0  0  0
   -2.1055    2.6298    0.0000 O   0  0  0  0  0  0  0  0  0  0  0  0
   -0.7465    3.0713    0.0000 C   0  0  0  0  0  0  0  0  0  0  0  0
   -0.4916    2.2867    0.0000 N   0  0  0  0  0  0  0  0  0  0  0  0
    0.3154    2.1152    0.0000 C   0  0  0  0  0  0  0  0  0  0  0  0
    0.5703    1.3306    0.0000 C   0  0  0  0  0  0  0  0  0  0  0  0
    0.0183    0.7175    0.0000 C   0  0  0  0  0  0  0  0  0  0  0  0
   -0.7887    0.8890    0.0000 C   0  0  0  0  0  0  0  0  0  0  0  0
   -1.0436    1.6736    0.0000 C   0  0  0  0  0  0  0  0  0  0  0  0
    0.2732   -0.0672    0.0000 N   0  0  0  0  0  0  0  0  0  0  0  0
   -0.2788   -0.6803    0.0000 C   0  0  0  0  0  0  0  0  0  0  0  0
   -0.0239   -1.4649    0.0000 N   0  0  0  0  0  0  0  0  0  0  0  0
   -0.5759   -2.0780    0.0000 C   0  0  0  0  0  0  0  0  0  0  0  0
   -1.3829   -1.9064    0.0000 C   0  0  0  0  0  0  0  0  0  0  0  0
   -1.6378   -1.1218    0.0000 C   0  0  0  0  0  0  0  0  0  0  0  0
   -1.0858   -0.5087    0.0000 N   0  0  0  0  0  0  0  0  0  0  0  0
   -0.3210   -2.8626    0.0000 C   0  0  0  0  0  0  0  0  0  0  0  0
    0.4637   -3.1175    0.0000 N   0  0  0  0  0  0  0  0  0  0  0  0
    1.1781   -2.7050    0.0000 C   0  0  0  0  0  0  0  0  0  0  0  0
    1.8926   -3.1175    0.0000 C   0  0  0  0  0  0  0  0  0  0  0  0
    1.8926   -3.9425    0.0000 C   0  0  0  0  0  0  0  0  0  0  0  0
    1.1781   -4.3550    0.0000 C   0  0  0  0  0  0  0  0  0  0  0  0
    0.4637   -3.9425    0.0000 C   0  0  0  0  0  0  0  0  0  0  0  0
   -0.3210   -4.1975    0.0000 N   0  0  0  0  0  0  0  0  0  0  0  0
   -0.8059   -3.5300    0.0000 C   0  0  0  0  0  0  0  0  0  0  0  0
  1  2  1  0
  2  3  1  0
  3  4  2  0
  3  5  1  0
  5  6  1  0
  6  7  1  0
  6 11  1  0
  7  8  1  0
  8  9  1  0
  9 10  1  0
  9 12  1  0
 10 11  1  0
 12 13  1  0
 13 14  2  0
 13 18  1  0
 14 15  1  0
 15 16  2  0
 15 19  1  0
 16 17  1  0
 17 18  2  0
 19 20  1  0
 19 27  2  0
 20 21  1  0
 20 25  1  0
 21 22  2  0
 22 23  1  0
 23 24  2  0
 24 25  1  0
 25 26  2  0
 26 27  1  0
M  END
>  <DRUGBANK_ID>  (1) 
DB08026

>  <COMMON_NAME>  (1) 
2-{4-[(4-imidazo[1,2-a]pyridin-3-ylpyrimidin-2-yl)amino]piperidin-1-yl}-N-methylacetamide

$$$$
