
     RDKit          2D

 25 28  0  0  1  0  0  0  0  0999 V2000
   -0.7353   -3.4106    0.0000 C   0  0  0  0  0  0  0  0  0  0  0  0
    3.3377   -2.8566    0.0000 C   0  0  0  0  0  0  0  0  0  0  0  0
    0.8218   -3.2587    0.0000 C   0  0  0  0  0  0  0  0  0  0  0  0
    4.9620   -2.5662    0.0000 C   0  0  0  0  0  0  0  0  0  0  0  0
    2.5256   -3.0018    0.0000 C   0  0  0  0  0  0  0  0  0  0  0  0
    0.8106   -1.2340    0.0000 C   0  0  0  0  0  0  0  0  0  0  0  0
    4.1498   -2.7114    0.0000 C   0  0  0  0  0  0  0  0  0  0  0  0
    1.7135   -3.1470    0.0000 C   0  0  0  0  0  0  0  0  0  0  0  0
    0.1278   -1.6970    0.0000 C   0  0  0  0  0  0  0  0  0  0  0  0
    4.7104   -1.1595    0.0000 C   0  0  0  0  0  0  0  0  0  0  0  0
    2.5544   -0.8192    0.0000 C   0  0  0  0  0  0  0  0  0  0  0  0
   -0.4550   -2.6347    0.0000 C   0  0  0  0  0  0  0  0  0  0  0  0
    5.2423   -1.7902    0.0000 C   0  0  0  0  0  0  0  0  0  0  0  0
    2.2741   -1.5952    0.0000 C   0  0  0  0  0  0  0  0  0  0  0  0
    2.8059   -2.2259    0.0000 C   0  0  0  0  0  0  0  0  0  0  0  0
    1.4620   -1.7404    0.0000 C   0  0  0  0  0  0  0  0  0  0  0  0
    3.8983   -1.3047    0.0000 C   0  0  0  0  0  0  0  0  0  0  0  0
    3.3665   -0.6740    0.0000 C   0  0  0  0  0  0  0  0  0  0  0  0
    3.6180   -2.0807    0.0000 C   0  0  0  0  0  0  0  0  0  0  0  0
    1.1817   -2.5163    0.0000 C   0  0  0  0  0  0  0  0  0  0  0  0
    0.3571   -2.4895    0.0000 C   0  0  0  0  0  0  0  0  0  0  0  0
    3.6468    0.1019    0.0000 Cl  0  0  0  0  0  0  0  0  0  0  0  0
   -0.9868   -2.0040    0.0000 O   0  0  0  0  0  0  0  0  0  0  0  0
    6.0544   -1.6450    0.0000 O   0  0  0  0  0  0  0  0  0  0  0  0
    0.4166   -3.3123    0.0000 O   0  0  0  0  0  0  0  0  0  0  0  0
  7  4  1  0
  8  5  1  0
  9  6  1  0
 12  1  1  0
 13  4  1  0
 13 10  1  0
 14 11  1  6
 15  5  1  1
 15 14  1  0
 16  6  1  1
 16 14  1  0
 17 10  2  0
 18 11  2  0
 18 17  1  0
 19  2  1  1
 19  7  1  0
 19 15  1  0
 19 17  1  0
 20  3  1  1
 20  8  1  0
 20 16  1  0
 21  9  1  0
 21 12  1  0
 21 20  1  0
 21 25  1  6
 22 18  1  0
 23 12  2  0
 24 13  2  0
M  END
>  <DRUGBANK_ID>  (1) 
DB13528

>  <COMMON_NAME>  (1) 
Chlormadinone

>  <CAS_NUMBER>  (1) 
1961-77-9

>  <UNII>  (1) 
SDS4N642GG

>  <SYNONYMS>  (1) 
Chlormadinone

$$$$
