237
     RDKit          2D

 15 15  0  0  1  0  0  0  0  0999 V2000
    4.5080    0.1658    0.0000 O   0  0  0  0  0  0  0  0  0  0  0  0
    1.6500    0.1658    0.0000 O   0  0  0  0  0  0  0  0  0  0  0  0
    3.0791   -2.3092    0.0000 O   0  0  0  0  0  0  0  0  0  0  0  0
    3.7935   -1.0717    0.0000 N   0  0  0  0  0  0  0  0  0  0  0  0
    2.3645   -1.0717    0.0000 N   0  0  0  0  0  0  0  0  0  0  0  0
    3.0791    0.1658    0.0000 C   0  0  0  0  0  0  0  0  0  0  0  0
    3.4916    0.8803    0.0000 C   0  0  0  0  0  0  0  0  0  0  0  0
    2.6665    0.8803    0.0000 C   0  0  0  0  0  0  0  0  0  0  0  0
    3.0791    1.5948    0.0000 C   0  0  0  0  0  0  0  0  0  0  0  0
    3.7935   -0.2467    0.0000 C   0  0  0  0  0  0  0  0  0  0  0  0
    2.3645   -0.2467    0.0000 C   0  0  0  0  0  0  0  0  0  0  0  0
    4.3166    0.8803    0.0000 C   0  0  0  0  0  0  0  0  0  0  0  0
    1.8415    0.8803    0.0000 C   0  0  0  0  0  0  0  0  0  0  0  0
    3.4916    2.3092    0.0000 C   0  0  0  0  0  0  0  0  0  0  0  0
    3.0791   -1.4842    0.0000 C   0  0  0  0  0  0  0  0  0  0  0  0
  1 10  2  0
  2 11  2  0
  3 15  2  0
  4 10  1  0
  4 15  1  0
  5 11  1  0
  5 15  1  0
  6  7  1  0
  6  8  1  0
  6 10  1  0
  6 11  1  0
  7  9  1  0
  7 12  1  0
  8 13  1  0
  9 14  1  0
M  END
>  <DRUGBANK_ID>  (1) 
DB00237

>  <SECONDARY_ACCESSION_NUMBERS>  (1) 
APRD00752

>  <COMMON_NAME>  (1) 
Butabarbital

>  <CAS_NUMBER>  (1) 
125-40-6

>  <UNII>  (1) 
P0078O25A9

>  <SYNONYMS>  (1) 
5-ethyl-5-(1-methylpropyl)-2,4,6(1H,3H,5H)-pyrimidinetrione; 5-ethyl-5-(1-methylpropyl)barbituric acid; 5-sec-butyl-5-ethyl-2,4,6(1H,3H,5H)-pyrimidinetrione; 5-sec-butyl-5-ethylbarbituric acid; 5-sec-butyl-5-ethylpyrimidine-2,4,6(1H,3H,5H)-trione; Butabarbital; Secbutabarbital; Secbutabarbitale; Secbutabarbitalum

$$$$
