BBS
     RDKit          2D

 14 14  0  0  0  0  0  0  0  0999 V2000
   -0.0386    1.9390    0.0000 C   0  0  0  0  0  0  0  0  0  0  0  0
   -0.0386    1.1140    0.0000 C   0  0  0  0  0  0  0  0  0  0  0  0
   -0.8636    1.1140    0.0000 C   0  0  0  0  0  0  0  0  0  0  0  0
    0.7864    1.1140    0.0000 C   0  0  0  0  0  0  0  0  0  0  0  0
    0.6759   -0.1235    0.0000 C   0  0  0  0  0  0  0  0  0  0  0  0
    0.6759   -0.9485    0.0000 C   0  0  0  0  0  0  0  0  0  0  0  0
   -0.0386   -1.3610    0.0000 C   0  0  0  0  0  0  0  0  0  0  0  0
   -0.7531   -0.9485    0.0000 C   0  0  0  0  0  0  0  0  0  0  0  0
   -0.7531   -0.1235    0.0000 C   0  0  0  0  0  0  0  0  0  0  0  0
   -0.0386    0.2890    0.0000 C   0  0  0  0  0  0  0  0  0  0  0  0
   -0.0386   -2.1860    0.0000 S   0  0  0  0  0  0  0  0  0  0  0  0
   -0.0386   -3.0110    0.0000 O   0  0  0  0  0  0  0  0  0  0  0  0
   -0.8636   -2.1860    0.0000 O   0  0  0  0  0  0  0  0  0  0  0  0
    0.7864   -2.1860    0.0000 O   0  0  0  0  0  0  0  0  0  0  0  0
  1  2  1  0
  2  3  1  0
  2  4  1  0
  2 10  1  0
  5  6  2  0
  5 10  1  0
  6  7  1  0
  7  8  2  0
  7 11  1  0
  8  9  1  0
  9 10  2  0
 11 12  2  0
 11 13  2  0
 11 14  1  0
M  END
>  <DRUGBANK_ID>  (1) 
DB07440

>  <COMMON_NAME>  (1) 
4-TERT-BUTYLBENZENESULFONIC ACID

>  <UNII>  (1) 
YV1D0UF57S

$$$$
