E1P
     RDKit          2D

 13 13  0  0  0  0  0  0  0  0999 V2000
   -0.6606   -0.5698    0.0000 C   0  0  0  0  0  0  0  0  0  0  0  0
   -1.3751   -0.9823    0.0000 C   0  0  0  0  0  0  0  0  0  0  0  0
   -2.0896   -0.5698    0.0000 C   0  0  0  0  0  0  0  0  0  0  0  0
   -2.0896    0.2552    0.0000 C   0  0  0  0  0  0  0  0  0  0  0  0
   -1.3751    0.6677    0.0000 C   0  0  0  0  0  0  0  0  0  0  0  0
   -0.6606    0.2552    0.0000 N   0  0  0  0  0  0  0  0  0  0  0  0
    0.0538    0.6677    0.0000 C   0  0  0  0  0  0  0  0  0  0  0  0
    0.0538    1.4927    0.0000 O   0  0  0  0  0  0  0  0  0  0  0  0
    0.7683    0.2552    0.0000 C   0  0  0  0  0  0  0  0  0  0  0  0
    0.7683   -0.5698    0.0000 O   0  0  0  0  0  0  0  0  0  0  0  0
    1.4828    0.6677    0.0000 O   0  0  0  0  0  0  0  0  0  0  0  0
    2.1973    0.2552    0.0000 C   0  0  0  0  0  0  0  0  0  0  0  0
    2.9117    0.6677    0.0000 C   0  0  0  0  0  0  0  0  0  0  0  0
  1  2  1  0
  1  6  1  0
  2  3  1  0
  3  4  1  0
  4  5  1  0
  5  6  1  0
  6  7  1  0
  7  8  2  0
  7  9  1  0
  9 10  2  0
  9 11  1  0
 11 12  1  0
 12 13  1  0
M  END
>  <DRUGBANK_ID>  (1) 
DB02419

>  <SECONDARY_ACCESSION_NUMBERS>  (1) 
EXPT01313

>  <COMMON_NAME>  (1) 
Ethyl Oxo(Piperidin-1-Yl)Acetate

>  <CAS_NUMBER>  (1) 
53074-96-7

>  <UNII>  (1) 
D7IIF4X1TU

$$$$
