421
     RDKit          2D

 25 29  0  0  1  0  0  0  0  0999 V2000
    5.9017   -2.2620    0.0000 O   0  0  0  0  0  0  0  0  0  0  0  0
    7.0427   -3.1892    0.0000 O   0  0  0  0  0  0  0  0  0  0  0  0
    5.2976    3.5672    0.0000 O   0  0  0  0  0  0  0  0  0  0  0  0
    5.2537   -1.5451    0.0000 C   0  0  0  0  0  0  0  0  0  0  0  0
    4.5392   -1.1326    0.0000 C   0  0  0  0  0  0  0  0  0  0  0  0
    4.5392   -0.3076    0.0000 C   0  0  0  0  0  0  0  0  0  0  0  0
    5.0811   -2.3468    0.0000 C   0  0  0  0  0  0  0  0  0  0  0  0
    5.2537    0.1049    0.0000 C   0  0  0  0  0  0  0  0  0  0  0  0
    5.9682   -1.1326    0.0000 C   0  0  0  0  0  0  0  0  0  0  0  0
    3.9312   -1.6829    0.0000 C   0  0  0  0  0  0  0  0  0  0  0  0
    5.2670    0.9642    0.0000 C   0  0  0  0  0  0  0  0  0  0  0  0
    5.9682   -0.3076    0.0000 C   0  0  0  0  0  0  0  0  0  0  0  0
    4.2654   -2.4319    0.0000 C   0  0  0  0  0  0  0  0  0  0  0  0
    3.7885    0.1106    0.0000 C   0  0  0  0  0  0  0  0  0  0  0  0
    6.0662   -1.6884    0.0000 C   0  0  0  0  0  0  0  0  0  0  0  0
    4.9082   -3.1535    0.0000 C   0  0  0  0  0  0  0  0  0  0  0  0
    4.5260    1.3996    0.0000 C   0  0  0  0  0  0  0  0  0  0  0  0
    3.7819    0.9699    0.0000 C   0  0  0  0  0  0  0  0  0  0  0  0
    6.0523    1.3937    0.0000 C   0  0  0  0  0  0  0  0  0  0  0  0
    5.9783    0.5462    0.0000 C   0  0  0  0  0  0  0  0  0  0  0  0
    5.6220   -3.5672    0.0000 C   0  0  0  0  0  0  0  0  0  0  0  0
    6.2360   -3.0162    0.0000 C   0  0  0  0  0  0  0  0  0  0  0  0
    6.0660    2.2887    0.0000 C   0  0  0  0  0  0  0  0  0  0  0  0
    4.5192    2.2947    0.0000 C   0  0  0  0  0  0  0  0  0  0  0  0
    5.2944    2.7421    0.0000 C   0  0  0  0  0  0  0  0  0  0  0  0
  1 22  1  0
  2 22  2  0
  3 25  2  0
  4  5  1  0
  4  7  1  0
  4  9  1  0
  4 15  1  1
  5  6  1  0
  5 10  1  1
  6  8  1  0
  6 14  1  6
  7  1  1  0
  7 13  1  1
  7 16  1  0
  8 11  1  0
  8 12  1  1
  9 12  1  0
 10 13  1  0
 11 17  1  0
 11 19  1  0
 11 20  1  1
 14 18  2  0
 16 21  1  0
 17 18  1  0
 17 24  2  0
 19 23  1  0
 21 22  1  0
 23 25  1  0
 24 25  1  0
M  END
>  <DRUGBANK_ID>  (1) 
DB12221

>  <COMMON_NAME>  (1) 
Canrenone

>  <CAS_NUMBER>  (1) 
976-71-6

>  <UNII>  (1) 
78O20X9J0U

>  <SYNONYMS>  (1) 
Canrenone

$$$$
