
     RDKit          2D

  5  4  0  0  0  0  0  0  0  0999 V2000
    2.0625   -0.7145    0.0000 O   0  0  0  0  0  0  0  0  0  0  0  0
    1.2375   -0.7145    0.0000 C   0  0  0  0  0  0  0  0  0  0  0  0
    0.8250   -1.4289    0.0000 O   0  0  0  0  0  0  0  0  0  0  0  0
    0.8250    0.0000    0.0000 C   0  0  0  0  0  0  0  0  0  0  0  0
    0.0000    0.0000    0.0000 F   0  0  0  0  0  0  0  0  0  0  0  0
  1  2  1  0
  2  3  2  0
  2  4  1  0
  4  5  1  0
M  ISO  1   5  18
M  END
>  <DRUGBANK_ID>  (1) 
DB15202

>  <COMMON_NAME>  (1) 
Fluoroacetic acid F-18

>  <CAS_NUMBER>  (1) 
7574-44-9

>  <UNII>  (1) 
74Q3U8O789

>  <SYNONYMS>  (1) 
18F-FLUOROACETATE

$$$$
