
     RDKit          2D

 18 20  0  0  0  0  0  0  0  0999 V2000
   -1.1545    0.0052    0.0000 C   0  0  0  0  0  0  0  0  0  0  0  0
   -1.8249   -0.4788    0.0000 C   0  0  0  0  0  0  0  0  0  0  0  0
   -1.5695   -1.2609    0.0000 N   0  0  0  0  0  0  0  0  0  0  0  0
   -0.4894   -0.4788    0.0000 C   0  0  0  0  0  0  0  0  0  0  0  0
   -0.7449   -1.2609    0.0000 C   0  0  0  0  0  0  0  0  0  0  0  0
    0.2820   -0.1861    0.0000 C   0  0  0  0  0  0  0  0  0  0  0  0
   -0.2873   -1.9526    0.0000 C   0  0  0  0  0  0  0  0  0  0  0  0
    1.1013   -1.4312    0.0000 C   0  0  0  0  0  0  0  0  0  0  0  0
    0.9896   -0.6119    0.0000 C   0  0  0  0  0  0  0  0  0  0  0  0
    0.3564    0.6331    0.0000 C   0  0  0  0  0  0  0  0  0  0  0  0
    0.0904    1.9419    0.0000 C   0  0  0  0  0  0  0  0  0  0  0  0
    1.0748    1.0428    0.0000 C   0  0  0  0  0  0  0  0  0  0  0  0
    1.8249    0.7023    0.0000 O   0  0  0  0  0  0  0  0  0  0  0  0
    0.9098    1.8515    0.0000 N   0  0  0  0  0  0  0  0  0  0  0  0
   -0.2500    1.1917    0.0000 N   0  0  0  0  0  0  0  0  0  0  0  0
   -0.3192    2.6602    0.0000 N   0  0  0  0  0  0  0  0  0  0  0  0
    0.5321   -2.0271    0.0000 N   0  0  0  0  0  0  0  0  0  0  0  0
   -0.7129   -2.6602    0.0000 O   0  0  0  0  0  0  0  0  0  0  0  0
  1  2  2  0
  1  4  1  0
  2  3  1  0
  3  5  1  0
  4  6  1  0
  4  5  2  0
  5  7  1  0
  6  9  1  0
  6 10  2  0
  7 17  1  0
  7 18  2  0
  8 17  1  0
  8  9  1  0
 10 15  1  0
 10 12  1  0
 11 15  1  0
 11 14  2  0
 11 16  1  0
 12 14  1  0
 12 13  2  0
M  END
>  <DRUGBANK_ID>  (1) 
DB04367

>  <SECONDARY_ACCESSION_NUMBERS>  (1) 
EXPT01124

>  <COMMON_NAME>  (1) 
Debromohymenialdisine

>  <CAS_NUMBER>  (1) 
125118-55-0

$$$$
