RS1
     RDKit          2D

 28 30  0  0  0  0  0  0  0  0999 V2000
    3.2147   -0.2481    0.0000 C   0  0  0  0  0  0  0  0  0  0  0  0
    3.9292   -0.6606    0.0000 C   0  0  0  0  0  0  0  0  0  0  0  0
    3.9292   -1.4856    0.0000 C   0  0  0  0  0  0  0  0  0  0  0  0
    3.2147   -1.8981    0.0000 C   0  0  0  0  0  0  0  0  0  0  0  0
    2.5003   -1.4856    0.0000 C   0  0  0  0  0  0  0  0  0  0  0  0
    2.5003   -0.6606    0.0000 C   0  0  0  0  0  0  0  0  0  0  0  0
    1.7858   -1.8981    0.0000 O   0  0  0  0  0  0  0  0  0  0  0  0
    1.0713   -1.4856    0.0000 C   0  0  0  0  0  0  0  0  0  0  0  0
    0.3569   -1.8981    0.0000 C   0  0  0  0  0  0  0  0  0  0  0  0
   -0.3576   -1.4856    0.0000 C   0  0  0  0  0  0  0  0  0  0  0  0
   -0.3576   -0.6606    0.0000 C   0  0  0  0  0  0  0  0  0  0  0  0
    0.3569   -0.2481    0.0000 C   0  0  0  0  0  0  0  0  0  0  0  0
    1.0713   -0.6606    0.0000 C   0  0  0  0  0  0  0  0  0  0  0  0
   -1.0721   -0.2481    0.0000 S   0  0  0  0  0  0  0  0  0  0  0  0
   -1.4846   -0.9626    0.0000 O   0  0  0  0  0  0  0  0  0  0  0  0
   -0.6596    0.4664    0.0000 O   0  0  0  0  0  0  0  0  0  0  0  0
   -1.7866    0.1644    0.0000 C   0  0  0  0  0  0  0  0  0  0  0  0
   -1.7866    0.9894    0.0000 C   0  0  0  0  0  0  0  0  0  0  0  0
   -2.0687    1.7646    0.0000 C   0  0  0  0  0  0  0  0  0  0  0  0
   -1.5384    2.3966    0.0000 C   0  0  0  0  0  0  0  0  0  0  0  0
   -0.7260    2.2534    0.0000 O   0  0  0  0  0  0  0  0  0  0  0  0
   -0.4438    1.4781    0.0000 C   0  0  0  0  0  0  0  0  0  0  0  0
   -0.9741    0.8461    0.0000 C   0  0  0  0  0  0  0  0  0  0  0  0
   -2.5990    0.8461    0.0000 C   0  0  0  0  0  0  0  0  0  0  0  0
   -2.8812    0.0709    0.0000 N   0  0  0  0  0  0  0  0  0  0  0  0
   -3.1293    1.4781    0.0000 O   0  0  0  0  0  0  0  0  0  0  0  0
   -3.6937   -0.0724    0.0000 O   0  0  0  0  0  0  0  0  0  0  0  0
    4.6437   -0.2481    0.0000 Cl  0  0  0  0  0  0  0  0  0  0  0  0
  1  2  2  0
  1  6  1  0
  2  3  1  0
  2 28  1  0
  3  4  2  0
  4  5  1  0
  5  6  2  0
  5  7  1  0
  7  8  1  0
  8  9  2  0
  8 13  1  0
  9 10  1  0
 10 11  2  0
 11 12  1  0
 11 14  1  0
 12 13  2  0
 14 15  2  0
 14 16  2  0
 14 17  1  0
 17 18  1  0
 18 19  1  0
 18 23  1  0
 18 24  1  0
 19 20  1  0
 20 21  1  0
 21 22  1  0
 22 23  1  0
 24 25  1  0
 24 26  2  0
 25 27  1  0
M  END
>  <DRUGBANK_ID>  (1) 
DB08490

>  <SECONDARY_ACCESSION_NUMBERS>  (1) 
DB12372

>  <COMMON_NAME>  (1) 
CTS-1027

>  <CAS_NUMBER>  (1) 
193022-04-7

>  <UNII>  (1) 
2QD3F58224

>  <SYNONYMS>  (1) 
2H-PYRAN-4-CARBOXAMIDE, 4-(((4-(4-CHLOROPHENOXY)PHENYL)SULFONYL)METHYL)TETRAHYDRO-N-HYDROXY-; 4-(((4-(4-CHLOROPHENOXY)PHENYL)SULFONYL)-METHYL) TETRAHYDRO-N-HYDROXY-2H-PYRAN-4-CARBOXAMIDE; 4-(4-(4-CHLORO-PHENOXY)-BENZENESULFONYLMETHYL )-TETRAHYDRO-PYRAN-4-CARBOXYLIC ACID HYDROXYAMIDE; 4-(4-(4-CHLORO-PHENOXY)-BENZENESULFONYLMETHYL)-TETRAHYDRO-PYRAN-4-CARBOXYLIC ACID HYDROXYAMIDE; 4-[[[4-(4-Chlorophenoxy)phenyl]sulfonyl]-methyl] tetrahydro-N-hydroxy-2H-pyran-4-carboxamide

$$$$
