SG2
     RDKit          2D

 15 16  0  0  0  0  0  0  0  0999 V2000
    1.7711    0.8782    0.0000 S   0  0  0  0  0  0  0  0  0  0  0  0
    1.0566    0.4657    0.0000 C   0  0  0  0  0  0  0  0  0  0  0  0
    1.0566   -0.3593    0.0000 C   0  0  0  0  0  0  0  0  0  0  0  0
    0.3421   -0.7718    0.0000 C   0  0  0  0  0  0  0  0  0  0  0  0
   -0.3723   -0.3593    0.0000 C   0  0  0  0  0  0  0  0  0  0  0  0
   -1.1569   -0.6142    0.0000 N   0  0  0  0  0  0  0  0  0  0  0  0
   -1.4119   -1.3988    0.0000 C   0  0  0  0  0  0  0  0  0  0  0  0
   -1.6419    0.0532    0.0000 S   0  0  0  0  0  0  0  0  0  0  0  0
   -1.1569    0.7207    0.0000 C   0  0  0  0  0  0  0  0  0  0  0  0
   -1.4119    1.5053    0.0000 O   0  0  0  0  0  0  0  0  0  0  0  0
   -0.3723    0.4657    0.0000 C   0  0  0  0  0  0  0  0  0  0  0  0
    0.3421    0.8782    0.0000 C   0  0  0  0  0  0  0  0  0  0  0  0
    2.4856    1.2907    0.0000 N   0  0  0  0  0  0  0  0  0  0  0  0
    2.1836    0.1638    0.0000 O   0  0  0  0  0  0  0  0  0  0  0  0
    1.3586    1.5927    0.0000 O   0  0  0  0  0  0  0  0  0  0  0  0
  1  2  1  0
  1 13  1  0
  1 14  2  0
  1 15  2  0
  2  3  2  0
  2 12  1  0
  3  4  1  0
  4  5  2  0
  5  6  1  0
  5 11  1  0
  6  7  1  0
  6  8  1  0
  8  9  1  0
  9 10  2  0
  9 11  1  0
 11 12  2  0
M  END
>  <DRUGBANK_ID>  (1) 
DB03294

>  <SECONDARY_ACCESSION_NUMBERS>  (1) 
EXPT02893

>  <COMMON_NAME>  (1) 
1-Methyl-3-Oxo-1,3-Dihydro-Benzo[C]Isothiazole-5-Sulfonic Acid Amide

$$$$
