
     RDKit          2D

 30 31  0  0  0  0  0  0  0  0999 V2000
   -3.7540    1.6276    0.0000 C   0  0  0  0  0  0  0  0  0  0  0  0
   -4.2389    0.9601    0.0000 C   0  0  0  0  0  0  0  0  0  0  0  0
   -3.7540    0.2927    0.0000 C   0  0  0  0  0  0  0  0  0  0  0  0
   -2.9694    0.5477    0.0000 C   0  0  0  0  0  0  0  0  0  0  0  0
   -2.9694    1.3726    0.0000 C   0  0  0  0  0  0  0  0  0  0  0  0
   -4.0089    2.4122    0.0000 O   0  0  0  0  0  0  0  0  0  0  0  0
   -4.0089   -0.4918    0.0000 O   0  0  0  0  0  0  0  0  0  0  0  0
   -2.3019    1.8575    0.0000 C   0  0  0  0  0  0  0  0  0  0  0  0
   -2.3019    0.0627    0.0000 C   0  0  0  0  0  0  0  0  0  0  0  0
   -1.5874    1.4450    0.0000 C   0  0  0  0  0  0  0  0  0  0  0  0
   -0.7624    1.4450    0.0000 C   0  0  0  0  0  0  0  0  0  0  0  0
   -0.0480    1.8575    0.0000 C   0  0  0  0  0  0  0  0  0  0  0  0
    0.6664    1.4450    0.0000 C   0  0  0  0  0  0  0  0  0  0  0  0
    1.3809    1.8575    0.0000 C   0  0  0  0  0  0  0  0  0  0  0  0
    2.0953    1.4450    0.0000 C   0  0  0  0  0  0  0  0  0  0  0  0
    2.8099    1.8575    0.0000 N   0  0  0  0  0  0  0  0  0  0  0  0
    3.5244    1.4450    0.0000 C   0  0  0  0  0  0  0  0  0  0  0  0
    4.2389    1.8575    0.0000 C   0  0  0  0  0  0  0  0  0  0  0  0
   -1.5874    0.4752    0.0000 C   0  0  0  0  0  0  0  0  0  0  0  0
   -0.8730    0.0627    0.0000 C   0  0  0  0  0  0  0  0  0  0  0  0
   -0.1585    0.4752    0.0000 C   0  0  0  0  0  0  0  0  0  0  0  0
    0.5559    0.0627    0.0000 C   0  0  0  0  0  0  0  0  0  0  0  0
    0.5559   -0.7622    0.0000 C   0  0  0  0  0  0  0  0  0  0  0  0
   -0.1585   -1.1747    0.0000 C   0  0  0  0  0  0  0  0  0  0  0  0
   -0.1585   -1.9997    0.0000 C   0  0  0  0  0  0  0  0  0  0  0  0
    0.5559   -2.4122    0.0000 C   0  0  0  0  0  0  0  0  0  0  0  0
    1.2703   -1.9997    0.0000 C   0  0  0  0  0  0  0  0  0  0  0  0
    1.2703   -1.1747    0.0000 C   0  0  0  0  0  0  0  0  0  0  0  0
    2.0953    0.6200    0.0000 O   0  0  0  0  0  0  0  0  0  0  0  0
   -0.8730   -0.7622    0.0000 O   0  0  0  0  0  0  0  0  0  0  0  0
  1  2  1  0
  1  5  1  0
  1  6  1  6
  2  3  1  0
  3  4  1  0
  3  7  1  6
  4  5  1  0
  4  9  1  1
  5  8  1  6
  8 10  1  0
  9 19  2  0
 10 11  2  0
 11 12  1  0
 12 13  1  0
 13 14  1  0
 14 15  1  0
 15 16  1  0
 15 29  2  0
 16 17  1  0
 17 18  1  0
 19 20  1  0
 20 21  1  0
 20 30  1  6
 21 22  1  0
 22 23  1  0
 23 24  2  0
 23 28  1  0
 24 25  1  0
 25 26  2  0
 26 27  1  0
 27 28  2  0
M  END
>  <DRUGBANK_ID>  (1) 
DB00905

>  <SECONDARY_ACCESSION_NUMBERS>  (1) 
APRD00826; DB06863

>  <COMMON_NAME>  (1) 
Bimatoprost

>  <CAS_NUMBER>  (1) 
155206-00-1

>  <UNII>  (1) 
QXS94885MZ

>  <SYNONYMS>  (1) 
(Z)-7-((1R,2R,3R,5S)-3,5-Dihydroxy-2-((1E,3S)-3-hydroxy-5-phenyl-1-pentenyl)cyclopentyl)-N-ethyl-5-heptenamide; Bimatoprost; Bimatoprostum

$$$$
