
     RDKit          2D

 10 10  0  0  0  0  0  0  0  0999 V2000
    0.0000    0.8250    0.0000 C   0  0  0  0  0  0  0  0  0  0  0  0
   -0.7145    0.4125    0.0000 C   0  0  0  0  0  0  0  0  0  0  0  0
   -0.7145   -0.4125    0.0000 C   0  0  0  0  0  0  0  0  0  0  0  0
    0.7145    0.4125    0.0000 C   0  0  0  0  0  0  0  0  0  0  0  0
    1.4289    0.8250    0.0000 C   0  0  0  0  0  0  0  0  0  0  0  0
    2.1434    0.4125    0.0000 O   0  0  0  0  0  0  0  0  0  0  0  0
    1.4289    1.6500    0.0000 O   0  0  0  0  0  0  0  0  0  0  0  0
   -1.4991    0.6674    0.0000 N   0  0  0  0  0  0  0  0  0  0  0  0
   -1.4991   -0.6674    0.0000 N   0  0  0  0  0  0  0  0  0  0  0  0
   -1.9840    0.0000    0.0000 C   0  0  0  0  0  0  0  0  0  0  0  0
  1  4  2  0
  2  1  1  0
  2  8  1  0
  3  2  2  0
  3  9  1  0
  4  5  1  0
  5  7  2  0
  6  5  1  0
 10  8  2  0
 10  9  1  0
M  END
>  <DRUGBANK_ID>  (1) 
DB01971

>  <SECONDARY_ACCESSION_NUMBERS>  (1) 
EXPT03207

>  <COMMON_NAME>  (1) 
trans-urocanic acid

>  <CAS_NUMBER>  (1) 
3465-72-3

>  <UNII>  (1) 
G8D26XJJ3B

>  <SYNONYMS>  (1) 
(2E)-3-(1H-imidazol-4-yl)acrylic acid; (E)-3-(1H-imidazol-4-yl)-2-propenoic acid; Urocanic acid

$$$$
