
     RDKit          2D

 25 28  0  0  0  0  0  0  0  0999 V2000
    1.2279   -0.4170    0.0000 C   0  0  0  0  0  0  0  0  0  0  0  0
    1.1417    0.4035    0.0000 C   0  0  0  0  0  0  0  0  0  0  0  0
    0.4272    0.8160    0.0000 S   0  0  0  0  0  0  0  0  0  0  0  0
    0.5987    1.6230    0.0000 C   0  0  0  0  0  0  0  0  0  0  0  0
    1.4192    1.7092    0.0000 C   0  0  0  0  0  0  0  0  0  0  0  0
    1.7548    0.9555    0.0000 N   0  0  0  0  0  0  0  0  0  0  0  0
    2.5617    0.7840    0.0000 C   0  0  0  0  0  0  0  0  0  0  0  0
    3.1138    1.3971    0.0000 O   0  0  0  0  0  0  0  0  0  0  0  0
    2.8167   -0.0006    0.0000 C   0  0  0  0  0  0  0  0  0  0  0  0
    3.6236   -0.1721    0.0000 C   0  0  0  0  0  0  0  0  0  0  0  0
    3.8786   -0.9568    0.0000 C   0  0  0  0  0  0  0  0  0  0  0  0
    3.3937   -1.6242    0.0000 C   0  0  0  0  0  0  0  0  0  0  0  0
    3.8786   -2.2916    0.0000 N   0  0  0  0  0  0  0  0  0  0  0  0
    4.6632   -2.0367    0.0000 C   0  0  0  0  0  0  0  0  0  0  0  0
    4.6632   -1.2117    0.0000 C   0  0  0  0  0  0  0  0  0  0  0  0
    5.3777   -0.7992    0.0000 C   0  0  0  0  0  0  0  0  0  0  0  0
    6.0921   -1.2117    0.0000 C   0  0  0  0  0  0  0  0  0  0  0  0
    6.0921   -2.0367    0.0000 C   0  0  0  0  0  0  0  0  0  0  0  0
    5.3777   -2.4492    0.0000 C   0  0  0  0  0  0  0  0  0  0  0  0
   -0.2083    1.4514    0.0000 C   0  0  0  0  0  0  0  0  0  0  0  0
   -0.7603    2.0645    0.0000 C   0  0  0  0  0  0  0  0  0  0  0  0
   -0.5054    2.8492    0.0000 N   0  0  0  0  0  0  0  0  0  0  0  0
   -1.0574    3.4623    0.0000 C   0  0  0  0  0  0  0  0  0  0  0  0
    0.3016    3.0207    0.0000 C   0  0  0  0  0  0  0  0  0  0  0  0
    0.8537    2.4076    0.0000 C   0  0  0  0  0  0  0  0  0  0  0  0
  1  2  1  0
  2  3  1  0
  2  6  1  0
  3  4  1  0
  4  5  1  0
  4 20  1  0
  4 25  1  0
  5  6  1  0
  6  7  1  0
  7  8  2  0
  7  9  1  0
  9 10  1  0
 10 11  1  0
 11 12  2  0
 11 15  1  0
 12 13  1  0
 13 14  1  0
 14 15  2  0
 14 19  1  0
 15 16  1  0
 16 17  2  0
 17 18  1  0
 18 19  2  0
 20 21  1  0
 21 22  1  0
 22 23  1  0
 22 24  1  0
 24 25  1  0
M  END
>  <DRUGBANK_ID>  (1) 
DB16911

>  <COMMON_NAME>  (1) 
AF-710B

>  <CAS_NUMBER>  (1) 
1235733-73-9

>  <UNII>  (1) 
AAE07Z061B

>  <SYNONYMS>  (1) 
1-(2,8-dimethyl-1-thia-3,8-diazaspiro(4.5)dec-3-yl)-3-(1h-indol-3-yl)propan-1-one; 1-(2,8-Dimethyl-1-Thia-3,8-Diazaspiro[4.5]Dec-3-yl)-3-(1H-Indol-3-yl)Propan-1-one; 1-propanone, 1-(2,8-dimethyl-1-thia-3,8-diazaspiro(4.5)dec-3-yl)-3-(1h-indol-3-yl)-; Anavex 3-71; ANAVEX3-71

$$$$
