NDF
     RDKit          2D

 17 17  0  0  0  0  0  0  0  0999 V2000
   -1.1808   -1.3304    0.0000 C   0  0  0  0  0  0  0  0  0  0  0  0
   -2.0058   -1.3304    0.0000 C   0  0  0  0  0  0  0  0  0  0  0  0
   -2.4183   -0.6159    0.0000 C   0  0  0  0  0  0  0  0  0  0  0  0
   -2.0058    0.0986    0.0000 C   0  0  0  0  0  0  0  0  0  0  0  0
   -1.1808    0.0986    0.0000 C   0  0  0  0  0  0  0  0  0  0  0  0
   -0.7683   -0.6159    0.0000 C   0  0  0  0  0  0  0  0  0  0  0  0
    0.0567   -0.6159    0.0000 C   0  0  0  0  0  0  0  0  0  0  0  0
    0.4692    0.0986    0.0000 C   0  0  0  0  0  0  0  0  0  0  0  0
    0.0567    0.8130    0.0000 C   0  0  0  0  0  0  0  0  0  0  0  0
   -0.7683    0.8130    0.0000 O   0  0  0  0  0  0  0  0  0  0  0  0
    0.4692    1.5275    0.0000 O   0  0  0  0  0  0  0  0  0  0  0  0
    1.2942    0.0986    0.0000 N   0  0  0  0  0  0  0  0  0  0  0  0
    1.7067    0.8130    0.0000 C   0  0  0  0  0  0  0  0  0  0  0  0
    1.2942    1.5275    0.0000 O   0  0  0  0  0  0  0  0  0  0  0  0
    2.5317    0.8130    0.0000 C   0  0  0  0  0  0  0  0  0  0  0  0
    2.9442    1.5275    0.0000 O   0  0  0  0  0  0  0  0  0  0  0  0
    2.9442    0.0986    0.0000 O   0  0  0  0  0  0  0  0  0  0  0  0
  1  2  2  0
  1  6  1  0
  2  3  1  0
  3  4  2  0
  4  5  1  0
  5  6  2  0
  6  7  1  0
  8  7  1  6
  8  9  1  0
  8 12  1  0
  9 10  2  0
  9 11  1  0
 12 13  1  0
 13 14  2  0
 13 15  1  0
 15 16  1  0
 15 17  2  0
M  END
>  <DRUGBANK_ID>  (1) 
DB08263

>  <COMMON_NAME>  (1) 
N-(carboxycarbonyl)-D-phenylalanine

>  <CAS_NUMBER>  (1) 
856680-67-6

$$$$
