
     RDKit          2D

 17 19  0  0  0  0  0  0  0  0999 V2000
    0.0574    0.5833    0.0000 C   0  0  0  0  0  0  0  0  0  0  0  0
   -0.6590    1.0059    0.0000 N   0  0  0  0  0  0  0  0  0  0  0  0
   -1.3665    0.5833    0.0000 C   0  0  0  0  0  0  0  0  0  0  0  0
   -1.3665   -0.2433    0.0000 C   0  0  0  0  0  0  0  0  0  0  0  0
    0.0574   -0.2433    0.0000 C   0  0  0  0  0  0  0  0  0  0  0  0
   -0.6590   -0.6476    0.0000 C   0  0  0  0  0  0  0  0  0  0  0  0
    0.7740    0.9921    0.0000 C   0  0  0  0  0  0  0  0  0  0  0  0
    0.7693   -0.6476    0.0000 C   0  0  0  0  0  0  0  0  0  0  0  0
    1.4767    0.5833    0.0000 C   0  0  0  0  0  0  0  0  0  0  0  0
    0.9392    1.7959    0.0000 O   0  0  0  0  0  0  0  0  0  0  0  0
   -2.0830    0.9921    0.0000 O   0  0  0  0  0  0  0  0  0  0  0  0
    2.0830    1.1299    0.0000 O   0  0  0  0  0  0  0  0  0  0  0  0
    1.7524    1.8878    0.0000 C   0  0  0  0  0  0  0  0  0  0  0  0
    1.4905   -0.2433    0.0000 C   0  0  0  0  0  0  0  0  0  0  0  0
   -0.6590   -1.4744    0.0000 O   0  0  0  0  0  0  0  0  0  0  0  0
   -0.6590    1.8327    0.0000 C   0  0  0  0  0  0  0  0  0  0  0  0
   -1.3756   -1.8878    0.0000 C   0  0  0  0  0  0  0  0  0  0  0  0
  2  1  1  0
  3  2  1  0
  3  4  1  0
  4  6  2  0
  5  1  2  0
  6  5  1  0
  7  1  1  0
  8  5  1  0
  8 14  2  0
  9  7  2  0
 10  7  1  0
 11  3  2  0
 12  9  1  0
 12 13  1  0
 13 10  1  0
 14  9  1  0
 15  6  1  0
 16  2  1  0
 17 15  1  0
M  END
>  <DRUGBANK_ID>  (1) 
DB08744

>  <COMMON_NAME>  (1) 
Casimiroin

>  <CAS_NUMBER>  (1) 
477-89-4

>  <UNII>  (1) 
1X2A1U6BH3

>  <SYNONYMS>  (1) 
6-Methoxy-9-methyl-(1,3)dioxolo(4,5-h)quinolin-8(9H)-one

$$$$
