
     RDKit          2D

 14 15  0  0  0  0  0  0  0  0999 V2000
   15.0250   -4.1869    0.0000 C   0  0  0  0  0  0  0  0  0  0  0  0
   15.0250   -3.3274    0.0000 C   0  0  0  0  0  0  0  0  0  0  0  0
   14.2780   -4.6098    0.0000 C   0  0  0  0  0  0  0  0  0  0  0  0
   14.2780   -2.9045    0.0000 C   0  0  0  0  0  0  0  0  0  0  0  0
   13.5407   -4.1691    0.0000 C   0  0  0  0  0  0  0  0  0  0  0  0
   13.5407   -3.3452    0.0000 C   0  0  0  0  0  0  0  0  0  0  0  0
   12.1127   -4.1691    0.0000 C   0  0  0  0  0  0  0  0  0  0  0  0
   12.8267   -4.5810    0.0000 C   0  0  0  0  0  0  0  0  0  0  0  0
   12.1127   -3.3452    0.0000 C   0  0  0  0  0  0  0  0  0  0  0  0
   12.8267   -2.9319    0.0000 N   0  0  0  0  0  0  0  0  0  0  0  0
   12.8267   -5.4062    0.0000 O   0  0  0  0  0  0  0  0  0  0  0  0
   11.3987   -2.9319    0.0000 C   0  0  0  0  0  0  0  0  0  0  0  0
   10.6847   -3.3452    0.0000 O   0  0  0  0  0  0  0  0  0  0  0  0
   11.3987   -2.1081    0.0000 O   0  0  0  0  0  0  0  0  0  0  0  0
  1  3  2  0
  2  1  1  0
  2  4  2  0
  3  5  1  0
  5  6  2  0
  5  8  1  0
  6  4  1  0
  6 10  1  0
  7  9  2  0
  8  7  1  0
  8 11  2  0
  9 12  1  0
  9 10  1  0
 12 13  1  0
 12 14  2  0
M  END
>  <DRUGBANK_ID>  (1) 
DB11937

>  <COMMON_NAME>  (1) 
Kynurenic Acid

>  <CAS_NUMBER>  (1) 
492-27-3

>  <UNII>  (1) 
H030S2S85J

$$$$
