
     RDKit          2D

 18 21  0  0  0  0  0  0  0  0999 V2000
    2.4493    0.9376    0.0000 C   0  0  0  0  0  0  0  0  0  0  0  0
   -2.3513   -0.2818    0.0000 C   0  0  0  0  0  0  0  0  0  0  0  0
    2.8839    0.2363    0.0000 C   0  0  0  0  0  0  0  0  0  0  0  0
   -2.8839   -0.9118    0.0000 C   0  0  0  0  0  0  0  0  0  0  0  0
    0.3655    1.5873    0.0000 C   0  0  0  0  0  0  0  0  0  0  0  0
    1.6693   -0.5163    0.0000 C   0  0  0  0  0  0  0  0  0  0  0  0
    1.2347    0.1848    0.0000 C   0  0  0  0  0  0  0  0  0  0  0  0
    1.6247    0.9118    0.0000 C   0  0  0  0  0  0  0  0  0  0  0  0
   -1.5875   -0.5936    0.0000 C   0  0  0  0  0  0  0  0  0  0  0  0
   -0.0244    0.8603    0.0000 C   0  0  0  0  0  0  0  0  0  0  0  0
    0.4101    0.1590    0.0000 C   0  0  0  0  0  0  0  0  0  0  0  0
   -0.8862   -0.1590    0.0000 C   0  0  0  0  0  0  0  0  0  0  0  0
    1.1901    1.6131    0.0000 N   0  0  0  0  0  0  0  0  0  0  0  0
   -0.8257    0.6636    0.0000 N   0  0  0  0  0  0  0  0  0  0  0  0
   -0.1224   -0.4709    0.0000 N   0  0  0  0  0  0  0  0  0  0  0  0
   -1.6480   -1.4164    0.0000 N   0  0  0  0  0  0  0  0  0  0  0  0
    2.4939   -0.4906    0.0000 O   0  0  0  0  0  0  0  0  0  0  0  0
   -2.4493   -1.6131    0.0000 O   0  0  0  0  0  0  0  0  0  0  0  0
  3  1  1  0
  4  2  2  0
  7  6  1  0
  8  1  1  0
  8  7  2  0
  9  2  1  0
 10  5  1  0
 11  7  1  0
 11 10  2  0
 12  9  1  0
 13  5  2  0
 13  8  1  0
 14 10  1  0
 14 12  1  0
 15 11  1  0
 15 12  2  0
 16  9  2  0
 17  3  1  0
 17  6  1  0
 18  4  1  0
 18 16  1  0
M  END
>  <DRUGBANK_ID>  (1) 
DB06504

>  <COMMON_NAME>  (1) 
S-8510

>  <UNII>  (1) 
92SP8RX873

$$$$
