
     RDKit          2D

 13 13  0  0  0  0  0  0  0  0999 V2000
   -2.3232    2.3469    0.0000 C   0  0  0  0  0  0  0  0  0  0  0  0
   -2.9363    1.7948    0.0000 C   0  0  0  0  0  0  0  0  0  0  0  0
   -2.8501    0.9744    0.0000 C   0  0  0  0  0  0  0  0  0  0  0  0
   -2.1356    0.5619    0.0000 C   0  0  0  0  0  0  0  0  0  0  0  0
   -1.4211    0.9744    0.0000 C   0  0  0  0  0  0  0  0  0  0  0  0
   -0.7066    0.5619    0.0000 O   0  0  0  0  0  0  0  0  0  0  0  0
    0.0078    0.9744    0.0000 P   0  0  0  0  0  0  0  0  0  0  0  0
    0.7223    1.3869    0.0000 O   0  0  0  0  0  0  0  0  0  0  0  0
    0.4203    0.2599    0.0000 O   0  0  0  0  0  0  0  0  0  0  0  0
   -0.4047    1.6888    0.0000 O   0  0  0  0  0  0  0  0  0  0  0  0
   -3.6037    0.6388    0.0000 S   0  0  0  0  0  0  0  0  0  0  0  0
   -4.1558    1.2519    0.0000 C   0  0  0  0  0  0  0  0  0  0  0  0
   -3.7433    1.9664    0.0000 N   0  0  0  0  0  0  0  0  0  0  0  0
  1  2  1  0
  2  3  2  0
  2 13  1  0
  3  4  1  0
  3 11  1  0
  4  5  1  0
  5  6  1  0
  6  7  1  0
  7  8  1  0
  7  9  1  0
  7 10  2  0
 11 12  1  0
 12 13  2  0
M  END
>  <DRUGBANK_ID>  (1) 
DB03145

>  <SECONDARY_ACCESSION_NUMBERS>  (1) 
EXPT03154

>  <COMMON_NAME>  (1) 
4-Methyl-5-Hydroxyethylthiazole Phosphate

$$$$
