
     RDKit          2D

 22 23  0  0  0  0  0  0  0  0999 V2000
    1.2134    0.2942    0.0000 C   0  0  0  0  0  0  0  0  0  0  0  0
    1.2134   -0.4666    0.0000 C   0  0  0  0  0  0  0  0  0  0  0  0
    1.9192    0.7487    0.0000 C   0  0  0  0  0  0  0  0  0  0  0  0
    0.4837    0.7487    0.0000 C   0  0  0  0  0  0  0  0  0  0  0  0
    1.8813   -0.9003    0.0000 C   0  0  0  0  0  0  0  0  0  0  0  0
    0.4837   -0.8865    0.0000 O   0  0  0  0  0  0  0  0  0  0  0  0
    2.6491    0.3458    0.0000 C   0  0  0  0  0  0  0  0  0  0  0  0
    1.9329    1.5921    0.0000 O   0  0  0  0  0  0  0  0  0  0  0  0
   -0.2254    0.3458    0.0000 N   0  0  0  0  0  0  0  0  0  0  0  0
    0.4837    1.6299    0.0000 O   0  0  0  0  0  0  0  0  0  0  0  0
    2.6491   -0.4767    0.0000 C   0  0  0  0  0  0  0  0  0  0  0  0
    1.8813   -1.7470    0.0000 Cl  0  0  0  0  0  0  0  0  0  0  0  0
    0.4837   -1.7126    0.0000 C   0  0  0  0  0  0  0  0  0  0  0  0
    3.3789    0.7452    0.0000 Cl  0  0  0  0  0  0  0  0  0  0  0  0
   -0.9449    0.7487    0.0000 C   0  0  0  0  0  0  0  0  0  0  0  0
   -1.6506    0.3458    0.0000 C   0  0  0  0  0  0  0  0  0  0  0  0
   -2.4218    0.6935    0.0000 N   0  0  0  0  0  0  0  0  0  0  0  0
   -1.7505   -0.4666    0.0000 C   0  0  0  0  0  0  0  0  0  0  0  0
   -2.9726    0.0843    0.0000 C   0  0  0  0  0  0  0  0  0  0  0  0
   -2.5939    1.4922    0.0000 C   0  0  0  0  0  0  0  0  0  0  0  0
   -2.5595   -0.6282    0.0000 C   0  0  0  0  0  0  0  0  0  0  0  0
   -3.3789    1.7470    0.0000 C   0  0  0  0  0  0  0  0  0  0  0  0
  1  2  2  0
  1  3  1  0
  1  4  1  0
  2  5  1  0
  2  6  1  0
  3  7  2  0
  3  8  1  0
  4  9  1  0
  4 10  2  0
  5 11  2  0
  5 12  1  0
  6 13  1  0
  7 14  1  0
  7 11  1  0
  9 15  1  0
 16 15  1  6
 16 17  1  0
 16 18  1  0
 17 19  1  0
 17 20  1  0
 18 21  1  0
 19 21  1  0
 20 22  1  0
M  END
>  <DRUGBANK_ID>  (1) 
DB12518

>  <COMMON_NAME>  (1) 
Raclopride

>  <CAS_NUMBER>  (1) 
84225-95-6

>  <UNII>  (1) 
430K3SOZ7G

>  <SYNONYMS>  (1) 
Racloprida; Raclopride; Raclopridum

$$$$
