
     RDKit          2D

 33 35  0  0  0  0  0  0  0  0999 V2000
    2.1433    3.3000    0.0000 C   0  0  0  0  0  0  0  0  0  0  0  0
    1.4289    2.8875    0.0000 C   0  0  0  0  0  0  0  0  0  0  0  0
    1.4289    2.0625    0.0000 C   0  0  0  0  0  0  0  0  0  0  0  0
    2.1433    1.6500    0.0000 C   0  0  0  0  0  0  0  0  0  0  0  0
    2.8578    2.0625    0.0000 C   0  0  0  0  0  0  0  0  0  0  0  0
    2.8578    2.8875    0.0000 C   0  0  0  0  0  0  0  0  0  0  0  0
    3.5723    1.6500    0.0000 C   0  0  0  0  0  0  0  0  0  0  0  0
    4.2868    2.0625    0.0000 N   0  0  0  0  0  0  0  0  0  0  0  0
    4.2868    2.8875    0.0000 C   0  0  0  0  0  0  0  0  0  0  0  0
    3.5723    3.3000    0.0000 N   0  0  0  0  0  0  0  0  0  0  0  0
    5.0013    3.3000    0.0000 N   0  0  0  0  0  0  0  0  0  0  0  0
    3.5723    0.8250    0.0000 N   0  0  0  0  0  0  0  0  0  0  0  0
    0.7144    1.6500    0.0000 C   0  0  0  0  0  0  0  0  0  0  0  0
    0.0000    2.0625    0.0000 C   0  0  0  0  0  0  0  0  0  0  0  0
   -0.7144    1.6500    0.0000 C   0  0  0  0  0  0  0  0  0  0  0  0
   -1.4289    2.0625    0.0000 C   0  0  0  0  0  0  0  0  0  0  0  0
   -2.1434    1.6500    0.0000 C   0  0  0  0  0  0  0  0  0  0  0  0
   -2.1434    0.8250    0.0000 C   0  0  0  0  0  0  0  0  0  0  0  0
   -1.4289    0.4125    0.0000 C   0  0  0  0  0  0  0  0  0  0  0  0
   -0.7144    0.8250    0.0000 C   0  0  0  0  0  0  0  0  0  0  0  0
   -2.8578    0.4125    0.0000 C   0  0  0  0  0  0  0  0  0  0  0  0
   -2.8578   -0.4124    0.0000 N   0  0  0  0  0  0  0  0  0  0  0  0
   -3.5723    0.8250    0.0000 O   0  0  0  0  0  0  0  0  0  0  0  0
   -3.5723   -0.8249    0.0000 C   0  0  0  0  0  0  0  0  0  0  0  0
   -3.5723   -1.6500    0.0000 C   0  0  0  0  0  0  0  0  0  0  0  0
   -4.2868   -2.0624    0.0000 C   0  0  0  0  0  0  0  0  0  0  0  0
   -4.2868   -0.4124    0.0000 C   0  0  0  0  0  0  0  0  0  0  0  0
   -5.0013   -0.8249    0.0000 O   0  0  0  0  0  0  0  0  0  0  0  0
   -4.2868    0.4125    0.0000 O   0  0  0  0  0  0  0  0  0  0  0  0
   -4.2868   -2.8875    0.0000 C   0  0  0  0  0  0  0  0  0  0  0  0
   -5.0013   -1.6500    0.0000 C   0  0  0  0  0  0  0  0  0  0  0  0
   -5.0013   -3.3000    0.0000 O   0  0  0  0  0  0  0  0  0  0  0  0
   -3.5723   -3.3000    0.0000 O   0  0  0  0  0  0  0  0  0  0  0  0
  1  2  2  0
  1  6  1  0
  2  3  1  0
  3  4  2  0
  3 13  1  0
  4  5  1  0
  5  6  2  0
  5  7  1  0
  6 10  1  0
  7  8  2  0
  7 12  1  0
  8  9  1  0
  9 10  2  0
  9 11  1  0
 13 14  1  0
 14 15  1  0
 16 17  2  0
 16 15  1  0
 17 18  1  0
 18 19  2  0
 18 21  1  0
 19 20  1  0
 20 15  2  0
 21 22  1  0
 21 23  2  0
 22 24  1  0
 24 25  1  0
 24 27  1  0
 25 26  1  0
 26 30  1  0
 26 31  2  0
 27 28  1  0
 27 29  2  0
 30 32  2  0
 30 33  1  0
M  END
>  <DRUGBANK_ID>  (1) 
DB05616

>  <COMMON_NAME>  (1) 
4'-Methylene-5,8,10-trideazaaminopterin

>  <CAS_NUMBER>  (1) 
238074-89-0

>  <UNII>  (1) 
8Y3RH62XPB

$$$$
