
     RDKit          2D

 29 33  0  0  1  0  0  0  0  0999 V2000
    3.9940    1.2104    0.0000 C   0  0  0  0  0  0  0  0  0  0  0  0
    4.7085    1.6229    0.0000 C   0  0  0  0  0  0  0  0  0  0  0  0
    5.4230    1.2104    0.0000 C   0  0  0  0  0  0  0  0  0  0  0  0
    6.0361    1.7625    0.0000 O   0  0  0  0  0  0  0  0  0  0  0  0
    5.7005    2.5161    0.0000 C   0  0  0  0  0  0  0  0  0  0  0  0
    4.8800    2.4299    0.0000 C   0  0  0  0  0  0  0  0  0  0  0  0
    6.1130    3.2306    0.0000 C   0  0  0  0  0  0  0  0  0  0  0  0
    6.9380    3.2306    0.0000 C   0  0  0  0  0  0  0  0  0  0  0  0
    5.7005    3.9451    0.0000 C   0  0  0  0  0  0  0  0  0  0  0  0
    5.4230    0.3854    0.0000 C   0  0  0  0  0  0  0  0  0  0  0  0
    4.7085   -0.0271    0.0000 C   0  0  0  0  0  0  0  0  0  0  0  0
    3.9940    0.3854    0.0000 C   0  0  0  0  0  0  0  0  0  0  0  0
    3.2795   -0.0271    0.0000 C   0  0  0  0  0  0  0  0  0  0  0  0
    3.2795   -0.8521    0.0000 O   0  0  0  0  0  0  0  0  0  0  0  0
    2.5651    0.3854    0.0000 C   0  0  0  0  0  0  0  0  0  0  0  0
    2.5651    1.2104    0.0000 C   0  0  0  0  0  0  0  0  0  0  0  0
    3.2795    1.6229    0.0000 O   0  0  0  0  0  0  0  0  0  0  0  0
    1.8506    1.6229    0.0000 C   0  0  0  0  0  0  0  0  0  0  0  0
    1.1361    1.2104    0.0000 O   0  0  0  0  0  0  0  0  0  0  0  0
    1.1361    0.3854    0.0000 C   0  0  0  0  0  0  0  0  0  0  0  0
    1.8506   -0.0271    0.0000 C   0  0  0  0  0  0  0  0  0  0  0  0
    1.8506   -0.8521    0.0000 C   0  0  0  0  0  0  0  0  0  0  0  0
    1.1361   -1.2646    0.0000 C   0  0  0  0  0  0  0  0  0  0  0  0
    0.4217   -0.8521    0.0000 C   0  0  0  0  0  0  0  0  0  0  0  0
    0.4217   -0.0271    0.0000 C   0  0  0  0  0  0  0  0  0  0  0  0
   -0.2928   -1.2646    0.0000 O   0  0  0  0  0  0  0  0  0  0  0  0
   -0.2928   -2.0896    0.0000 C   0  0  0  0  0  0  0  0  0  0  0  0
    1.1361   -2.0896    0.0000 O   0  0  0  0  0  0  0  0  0  0  0  0
    0.4217   -2.5021    0.0000 C   0  0  0  0  0  0  0  0  0  0  0  0
  1  2  1  0
  1 12  2  0
  1 17  1  0
  2  3  2  0
  2  6  1  0
  3  4  1  0
  3 10  1  0
  4  5  1  0
  5  6  1  0
  5  7  1  6
  7  8  2  0
  7  9  1  0
 10 11  2  0
 11 12  1  0
 12 13  1  0
 13 14  2  0
 15 13  1  1
 15 16  1  0
 15 21  1  0
 16 17  1  0
 16 18  1  1
 18 19  1  0
 19 20  1  0
 20 21  2  0
 20 25  1  0
 21 22  1  0
 22 23  2  0
 23 24  1  0
 23 28  1  0
 24 25  2  0
 24 26  1  0
 26 27  1  0
 28 29  1  0
M  END
>  <DRUGBANK_ID>  (1) 
DB11457

>  <COMMON_NAME>  (1) 
Rotenone

>  <CAS_NUMBER>  (1) 
83-79-4

>  <UNII>  (1) 
03L9OT429T

>  <SYNONYMS>  (1) 
(−)-cis-rotenone; (−)-rotenone; (12aS,6aS,2R)-8,9-dimethoxy-2-(1-methylvinyl)-1,2-dihydrochromano[3,4-b]furano [2,3-h]chroman-6-one; [2R-(2α,6aα,12aα)]-1,2,12,12a-tetrahydro-8,9-dimethoxy-2-(1-methylethenyl)[1]benzopyrano[3,4-b]furo[2,3-H][1]benzopyran-6(6aH)-one; 5'β-rotenone; Dactinol; Tubatoxin

$$$$
