
     RDKit          2D

 19 20  0  0  0  0  0  0  0  0999 V2000
   -0.4908    1.3500    0.0000 C   0  0  0  0  0  0  0  0  0  0  0  0
   -1.2053    0.9375    0.0000 C   0  0  0  0  0  0  0  0  0  0  0  0
   -0.4908    2.1750    0.0000 C   0  0  0  0  0  0  0  0  0  0  0  0
    0.2235    0.9375    0.0000 C   0  0  0  0  0  0  0  0  0  0  0  0
   -1.9197    1.3499    0.0000 C   0  0  0  0  0  0  0  0  0  0  0  0
   -2.6343    0.9374    0.0000 C   0  0  0  0  0  0  0  0  0  0  0  0
   -2.6344    0.1124    0.0000 C   0  0  0  0  0  0  0  0  0  0  0  0
   -1.9199   -0.3000    0.0000 C   0  0  0  0  0  0  0  0  0  0  0  0
   -1.2053    0.1124    0.0000 C   0  0  0  0  0  0  0  0  0  0  0  0
    0.2235    0.1125    0.0000 C   0  0  0  0  0  0  0  0  0  0  0  0
    0.9381   -0.3000    0.0000 C   0  0  0  0  0  0  0  0  0  0  0  0
    1.6525    0.1124    0.0000 C   0  0  0  0  0  0  0  0  0  0  0  0
    1.6526    0.9374    0.0000 C   0  0  0  0  0  0  0  0  0  0  0  0
    0.9380    1.3500    0.0000 C   0  0  0  0  0  0  0  0  0  0  0  0
    0.2235    2.5875    0.0000 C   0  0  0  0  0  0  0  0  0  0  0  0
    0.2235    3.4125    0.0000 N   0  0  0  0  0  0  0  0  0  0  0  0
   -0.4908    3.8250    0.0000 C   0  0  0  0  0  0  0  0  0  0  0  0
    0.9380    3.8250    0.0000 C   0  0  0  0  0  0  0  0  0  0  0  0
    2.3670   -0.3001    0.0000 C   0  0  0  0  0  0  0  0  0  0  0  0
  1  3  1  0
  1  4  1  0
  2  1  1  0
  2  5  2  0
  3 15  1  0
  4 10  2  0
  5  6  1  0
  6  7  2  0
  7  8  1  0
  8  9  2  0
  9  2  1  0
 10 11  1  0
 11 12  2  0
 12 13  1  0
 12 19  1  0
 13 14  2  0
 14  4  1  0
 15 16  1  0
 16 17  1  0
 16 18  1  0
M  END
>  <DRUGBANK_ID>  (1) 
DB13305

>  <COMMON_NAME>  (1) 
Tolpropamine

>  <CAS_NUMBER>  (1) 
5632-44-0

>  <UNII>  (1) 
TBZ8909KFS

>  <SYNONYMS>  (1) 
Tolpropamina; Tolpropamine; Tolpropaminum

$$$$
