
     RDKit          2D

 23 26  0  0  1  0  0  0  0  0999 V2000
    2.6093   -2.1512    0.0000 C   0  0  0  0  0  0  0  0  0  0  0  0
    1.9418   -2.6361    0.0000 C   0  0  0  0  0  0  0  0  0  0  0  0
    1.8128   -3.4509    0.0000 C   0  0  0  0  0  0  0  0  0  0  0  0
    0.9979   -3.3219    0.0000 N   0  0  0  0  0  0  0  0  0  0  0  0
    0.3305   -3.8068    0.0000 C   0  0  0  0  0  0  0  0  0  0  0  0
   -0.4232   -3.4713    0.0000 O   0  0  0  0  0  0  0  0  0  0  0  0
    0.4167   -4.6273    0.0000 C   0  0  0  0  0  0  0  0  0  0  0  0
   -0.2507   -5.1122    0.0000 C   0  0  0  0  0  0  0  0  0  0  0  0
   -0.9182   -5.5971    0.0000 N   0  0  0  0  0  0  0  0  0  0  0  0
    1.1270   -2.5070    0.0000 C   0  0  0  0  0  0  0  0  0  0  0  0
    0.3020   -2.5070    0.0000 C   0  0  0  0  0  0  0  0  0  0  0  0
    0.0470   -1.7224    0.0000 C   0  0  0  0  0  0  0  0  0  0  0  0
    0.7145   -1.2375    0.0000 N   0  0  0  0  0  0  0  0  0  0  0  0
    1.3819   -1.7224    0.0000 C   0  0  0  0  0  0  0  0  0  0  0  0
    0.7145   -0.4125    0.0000 C   0  0  0  0  0  0  0  0  0  0  0  0
    0.0000    0.0000    0.0000 C   0  0  0  0  0  0  0  0  0  0  0  0
   -0.7846   -0.2549    0.0000 C   0  0  0  0  0  0  0  0  0  0  0  0
   -1.2695    0.4125    0.0000 C   0  0  0  0  0  0  0  0  0  0  0  0
   -0.7846    1.0799    0.0000 N   0  0  0  0  0  0  0  0  0  0  0  0
    0.0000    0.8250    0.0000 C   0  0  0  0  0  0  0  0  0  0  0  0
    0.7145    1.2375    0.0000 N   0  0  0  0  0  0  0  0  0  0  0  0
    1.4289    0.8250    0.0000 C   0  0  0  0  0  0  0  0  0  0  0  0
    1.4289    0.0000    0.0000 N   0  0  0  0  0  0  0  0  0  0  0  0
  2  1  1  1
  2  3  1  0
  2 10  1  0
  3  4  1  0
  4  5  1  0
  5  6  2  0
  5  7  1  0
  7  8  1  0
  8  9  3  0
 10  4  1  0
 10 11  1  6
 10 14  1  0
 11 12  1  0
 12 13  1  0
 13 14  1  0
 13 15  1  0
 15 16  2  0
 15 23  1  0
 16 17  1  0
 16 20  1  0
 17 18  2  0
 18 19  1  0
 19 20  1  0
 20 21  2  0
 21 22  1  0
 22 23  2  0
M  END
>  <DRUGBANK_ID>  (1) 
DB16133

>  <COMMON_NAME>  (1) 
Delgocitinib

>  <CAS_NUMBER>  (1) 
1263774-59-9

>  <UNII>  (1) 
9L0Q8KK220

>  <SYNONYMS>  (1) 
Delgocitinib

$$$$
