
     RDKit          2D

 26 28  0  0  0  0  0  0  0  0999 V2000
    0.3571    2.2686    0.0000 N   0  0  0  0  0  0  0  0  0  0  0  0
    1.0717    2.6811    0.0000 C   0  0  0  0  0  0  0  0  0  0  0  0
    0.3571   -0.2062    0.0000 N   0  0  0  0  0  0  0  0  0  0  0  0
    0.3571    1.4437    0.0000 C   0  0  0  0  0  0  0  0  0  0  0  0
    1.0717    1.0311    0.0000 C   0  0  0  0  0  0  0  0  0  0  0  0
   -0.3571    1.0311    0.0000 C   0  0  0  0  0  0  0  0  0  0  0  0
    1.0717    3.5061    0.0000 O   0  0  0  0  0  0  0  0  0  0  0  0
   -0.3571    2.6811    0.0000 C   0  0  0  0  0  0  0  0  0  0  0  0
   -0.3571    0.2061    0.0000 C   0  0  0  0  0  0  0  0  0  0  0  0
    1.0717    0.2061    0.0000 C   0  0  0  0  0  0  0  0  0  0  0  0
    0.3571   -1.0312    0.0000 C   0  0  0  0  0  0  0  0  0  0  0  0
    1.0717   -1.4438    0.0000 C   0  0  0  0  0  0  0  0  0  0  0  0
    1.0717   -2.2687    0.0000 C   0  0  0  0  0  0  0  0  0  0  0  0
    1.7861    2.2686    0.0000 C   0  0  0  0  0  0  0  0  0  0  0  0
   -1.0716    2.2686    0.0000 C   0  0  0  0  0  0  0  0  0  0  0  0
   -0.3571    3.5061    0.0000 C   0  0  0  0  0  0  0  0  0  0  0  0
    1.7861   -2.6812    0.0000 C   0  0  0  0  0  0  0  0  0  0  0  0
    0.3571   -2.6812    0.0000 C   0  0  0  0  0  0  0  0  0  0  0  0
   -1.7861    2.6811    0.0000 C   0  0  0  0  0  0  0  0  0  0  0  0
   -1.0716    3.9186    0.0000 C   0  0  0  0  0  0  0  0  0  0  0  0
    1.7861   -3.5062    0.0000 C   0  0  0  0  0  0  0  0  0  0  0  0
    0.3571   -3.5062    0.0000 C   0  0  0  0  0  0  0  0  0  0  0  0
   -1.7861    3.5061    0.0000 C   0  0  0  0  0  0  0  0  0  0  0  0
    1.0717   -3.9187    0.0000 C   0  0  0  0  0  0  0  0  0  0  0  0
    2.5006    2.6811    0.0000 C   0  0  0  0  0  0  0  0  0  0  0  0
   -2.5006    3.9187    0.0000 F   0  0  0  0  0  0  0  0  0  0  0  0
  2  1  1  0
  4  1  1  0
  5  4  1  0
  6  4  1  0
  7  2  2  0
  8  1  1  0
  9  3  1  0
  9  6  1  0
 10  3  1  0
 10  5  1  0
 11  3  1  0
 12 11  1  0
 13 12  1  0
 14  2  1  0
 14 25  1  0
 15  8  2  0
 16  8  1  0
 17 13  2  0
 18 13  1  0
 19 15  1  0
 20 16  2  0
 21 17  1  0
 22 18  2  0
 23 19  2  0
 23 20  1  0
 23 26  1  0
 24 21  2  0
 24 22  1  0
M  END
>  <DRUGBANK_ID>  (1) 
DB09177

>  <COMMON_NAME>  (1) 
p-Fluorofentanyl

>  <CAS_NUMBER>  (1) 
90736-23-5

>  <UNII>  (1) 
I45R05QM0Z

>  <SYNONYMS>  (1) 
4-Fluorofentanyl; Parafluorofentanyl

$$$$
