
     RDKit          2D

 12 13  0  0  0  0  0  0  0  0999 V2000
   -0.3612   -0.6107    0.0000 N   0  0  0  0  0  0  0  0  0  0  0  0
   -0.3612    0.2111    0.0000 C   0  0  0  0  0  0  0  0  0  0  0  0
    0.3046   -1.0754    0.0000 C   0  0  0  0  0  0  0  0  0  0  0  0
   -1.0187   -1.0754    0.0000 N   0  0  0  0  0  0  0  0  0  0  0  0
    0.3641    0.6334    0.0000 C   0  0  0  0  0  0  0  0  0  0  0  0
   -1.0754    0.6334    0.0000 C   0  0  0  0  0  0  0  0  0  0  0  0
    0.0496   -1.8661    0.0000 N   0  0  0  0  0  0  0  0  0  0  0  0
    1.0924   -0.8148    0.0000 N   0  0  0  0  0  0  0  0  0  0  0  0
   -0.7835   -1.8661    0.0000 N   0  0  0  0  0  0  0  0  0  0  0  0
    0.3357    1.4495    0.0000 C   0  0  0  0  0  0  0  0  0  0  0  0
   -1.0924    1.4495    0.0000 C   0  0  0  0  0  0  0  0  0  0  0  0
   -0.3612    1.8661    0.0000 C   0  0  0  0  0  0  0  0  0  0  0  0
  1  2  1  0
  1  3  1  0
  1  4  1  0
  2  5  2  0
  2  6  1  0
  3  7  2  0
  3  8  1  0
  4  9  2  0
  5 10  1  0
  6 11  2  0
  7  9  1  0
 10 12  2  0
 11 12  1  0
M  END
>  <DRUGBANK_ID>  (1) 
DB12506

>  <COMMON_NAME>  (1) 
Fenamole

>  <CAS_NUMBER>  (1) 
5467-78-7

>  <UNII>  (1) 
K4H264PBQ7

>  <SYNONYMS>  (1) 
Fenamole; Fenamolum; PAT

$$$$
