1188
     RDKit          2D

 15 16  0  0  0  0  0  0  0  0999 V2000
    4.5080   -1.4438    0.0000 O   0  0  0  0  0  0  0  0  0  0  0  0
    5.9370   -0.6188    0.0000 O   0  0  0  0  0  0  0  0  0  0  0  0
    4.5080   -0.6188    0.0000 N   0  0  0  0  0  0  0  0  0  0  0  0
    3.0791   -0.6188    0.0000 C   0  0  0  0  0  0  0  0  0  0  0  0
    3.0791   -1.4438    0.0000 C   0  0  0  0  0  0  0  0  0  0  0  0
    2.3645   -0.2063    0.0000 C   0  0  0  0  0  0  0  0  0  0  0  0
    2.3645   -1.8563    0.0000 C   0  0  0  0  0  0  0  0  0  0  0  0
    1.6500   -0.6188    0.0000 C   0  0  0  0  0  0  0  0  0  0  0  0
    1.6500   -1.4438    0.0000 C   0  0  0  0  0  0  0  0  0  0  0  0
    3.7935   -0.2063    0.0000 C   0  0  0  0  0  0  0  0  0  0  0  0
    3.7935    0.6188    0.0000 C   0  0  0  0  0  0  0  0  0  0  0  0
    4.5080    1.0313    0.0000 C   0  0  0  0  0  0  0  0  0  0  0  0
    5.2224   -0.2063    0.0000 C   0  0  0  0  0  0  0  0  0  0  0  0
    5.2224    0.6188    0.0000 C   0  0  0  0  0  0  0  0  0  0  0  0
    4.5080    1.8563    0.0000 C   0  0  0  0  0  0  0  0  0  0  0  0
  1  3  1  0
  2 13  2  0
  3 10  1  0
  3 13  1  0
  4  5  1  0
  4  6  1  0
  4 10  1  0
  5  7  1  0
  6  8  1  0
  7  9  1  0
  8  9  1  0
 10 11  2  0
 11 12  1  0
 12 14  2  0
 12 15  1  0
 13 14  1  0
M  END
>  <DRUGBANK_ID>  (1) 
DB01188

>  <SECONDARY_ACCESSION_NUMBERS>  (1) 
APRD00871

>  <COMMON_NAME>  (1) 
Ciclopirox

>  <CAS_NUMBER>  (1) 
29342-05-0

>  <UNII>  (1) 
19W019ZDRJ

>  <SYNONYMS>  (1) 
6-cyclohexyl-1-hydroxy-4-methyl-2(1H)-pyridinone; Ciclopirox; Ciclopiroxum

$$$$
