
     RDKit          2D

 12 13  0  0  1  0  0  0  0  0999 V2000
   -0.6284    1.5229    0.0000 C   0  0  0  0  0  0  0  0  0  0  0  0
   -0.1435    0.8555    0.0000 C   0  0  0  0  0  0  0  0  0  0  0  0
    1.3556    0.6979    0.0000 C   0  0  0  0  0  0  0  0  0  0  0  0
    2.0701    1.1104    0.0000 C   0  0  0  0  0  0  0  0  0  0  0  0
    2.0701    1.9354    0.0000 C   0  0  0  0  0  0  0  0  0  0  0  0
    1.3556    2.3479    0.0000 C   0  0  0  0  0  0  0  0  0  0  0  0
    0.6411    1.9354    0.0000 C   0  0  0  0  0  0  0  0  0  0  0  0
   -0.1435    2.1904    0.0000 N   0  0  0  0  0  0  0  0  0  0  0  0
    0.6411    1.1104    0.0000 N   0  0  0  0  0  0  0  0  0  0  0  0
    2.7845    0.6979    0.0000 O   0  0  0  0  0  0  0  0  0  0  0  0
    2.7845    2.3479    0.0000 O   0  0  0  0  0  0  0  0  0  0  0  0
    1.3556    3.1729    0.0000 O   0  0  0  0  0  0  0  0  0  0  0  0
  2  1  2  0
  4  3  1  0
  4 10  1  6
  5  4  1  0
  5 11  1  1
  6  5  1  0
  6 12  1  6
  7  6  1  0
  8  1  1  0
  8  7  2  0
  9  2  1  0
  9  3  1  0
  9  7  1  0
M  END
>  <DRUGBANK_ID>  (1) 
DB02374

>  <SECONDARY_ACCESSION_NUMBERS>  (1) 
EXPT03259

>  <COMMON_NAME>  (1) 
Xylose-Derived Imidazole

$$$$
