PZZ
     RDKit          2D

 17 18  0  0  0  0  0  0  0  0999 V2000
   -1.0300    0.1178    0.0000 C   0  0  0  0  0  0  0  0  0  0  0  0
   -0.5451    0.7853    0.0000 C   0  0  0  0  0  0  0  0  0  0  0  0
   -0.5451   -0.5496    0.0000 N   0  0  0  0  0  0  0  0  0  0  0  0
    0.9540    0.9428    0.0000 C   0  0  0  0  0  0  0  0  0  0  0  0
    1.6685    0.5303    0.0000 C   0  0  0  0  0  0  0  0  0  0  0  0
    1.6685   -0.2947    0.0000 C   0  0  0  0  0  0  0  0  0  0  0  0
    0.9540   -0.7072    0.0000 C   0  0  0  0  0  0  0  0  0  0  0  0
    0.2395    0.5303    0.0000 C   0  0  0  0  0  0  0  0  0  0  0  0
    0.2395   -0.2947    0.0000 C   0  0  0  0  0  0  0  0  0  0  0  0
   -0.8000    1.5699    0.0000 C   0  0  0  0  0  0  0  0  0  0  0  0
   -1.6070    1.7414    0.0000 N   0  0  0  0  0  0  0  0  0  0  0  0
   -1.8620    2.5260    0.0000 C   0  0  0  0  0  0  0  0  0  0  0  0
   -2.1590    1.1283    0.0000 C   0  0  0  0  0  0  0  0  0  0  0  0
    0.9540   -1.5322    0.0000 C   0  0  0  0  0  0  0  0  0  0  0  0
    1.6685   -1.9447    0.0000 C   0  0  0  0  0  0  0  0  0  0  0  0
    1.6685   -2.7697    0.0000 C   0  0  0  0  0  0  0  0  0  0  0  0
    2.3829   -3.1822    0.0000 O   0  0  0  0  0  0  0  0  0  0  0  0
  1  3  1  0
  1  2  2  0
  2  8  1  0
  2 10  1  0
  3  9  1  0
  4  5  1  0
  4  8  2  0
  5  6  2  0
  6  7  1  0
  7 14  1  0
  7  9  2  0
  8  9  1  0
 10 11  1  0
 11 12  1  0
 11 13  1  0
 14 15  1  0
 15 16  1  0
 16 17  1  0
M  END
>  <DRUGBANK_ID>  (1) 
DB08447

>  <COMMON_NAME>  (1) 
3-{3-[(DIMETHYLAMINO)METHYL]-1H-INDOL-7-YL}PROPAN-1-OL

$$$$
