PU9
     RDKit          2D

 29 31  0  0  0  0  0  0  0  0999 V2000
    0.2648   -2.1853    0.0000 Cl  0  0  0  0  0  0  0  0  0  0  0  0
   -0.3483   -1.6333    0.0000 C   0  0  0  0  0  0  0  0  0  0  0  0
   -1.1330   -1.8882    0.0000 C   0  0  0  0  0  0  0  0  0  0  0  0
   -1.3045   -2.6952    0.0000 O   0  0  0  0  0  0  0  0  0  0  0  0
   -2.0891   -2.9501    0.0000 C   0  0  0  0  0  0  0  0  0  0  0  0
   -1.7461   -1.3362    0.0000 C   0  0  0  0  0  0  0  0  0  0  0  0
   -2.5307   -1.5911    0.0000 O   0  0  0  0  0  0  0  0  0  0  0  0
   -3.1438   -1.0391    0.0000 C   0  0  0  0  0  0  0  0  0  0  0  0
   -1.5745   -0.5292    0.0000 C   0  0  0  0  0  0  0  0  0  0  0  0
   -2.1876    0.0228    0.0000 O   0  0  0  0  0  0  0  0  0  0  0  0
   -2.0161    0.8298    0.0000 C   0  0  0  0  0  0  0  0  0  0  0  0
   -0.7899   -0.2743    0.0000 C   0  0  0  0  0  0  0  0  0  0  0  0
   -0.1768   -0.8263    0.0000 C   0  0  0  0  0  0  0  0  0  0  0  0
    0.6078   -0.5714    0.0000 C   0  0  0  0  0  0  0  0  0  0  0  0
    0.7793    0.2356    0.0000 C   0  0  0  0  0  0  0  0  0  0  0  0
    0.2273    0.8487    0.0000 N   0  0  0  0  0  0  0  0  0  0  0  0
    0.6398    1.5632    0.0000 C   0  0  0  0  0  0  0  0  0  0  0  0
    0.3849    2.3478    0.0000 C   0  0  0  0  0  0  0  0  0  0  0  0
   -0.4221    2.5193    0.0000 N   0  0  0  0  0  0  0  0  0  0  0  0
    1.4468    1.3916    0.0000 C   0  0  0  0  0  0  0  0  0  0  0  0
    1.9988    2.0047    0.0000 N   0  0  0  0  0  0  0  0  0  0  0  0
    1.7439    2.7894    0.0000 C   0  0  0  0  0  0  0  0  0  0  0  0
    0.9369    2.9609    0.0000 N   0  0  0  0  0  0  0  0  0  0  0  0
    1.5330    0.5712    0.0000 N   0  0  0  0  0  0  0  0  0  0  0  0
    2.2475    0.1587    0.0000 C   0  0  0  0  0  0  0  0  0  0  0  0
    2.9619    0.5712    0.0000 C   0  0  0  0  0  0  0  0  0  0  0  0
    3.6764    0.1587    0.0000 C   0  0  0  0  0  0  0  0  0  0  0  0
    4.3909    0.5712    0.0000 C   0  0  0  0  0  0  0  0  0  0  0  0
    5.1054    0.9837    0.0000 C   0  0  0  0  0  0  0  0  0  0  0  0
  1  2  1  0
  2  3  2  0
  2 13  1  0
  3  4  1  0
  3  6  1  0
  4  5  1  0
  6  7  1  0
  6  9  2  0
  7  8  1  0
  9 10  1  0
  9 12  1  0
 10 11  1  0
 12 13  2  0
 13 14  1  0
 14 15  1  0
 15 16  2  0
 15 24  1  0
 16 17  1  0
 17 18  2  0
 17 20  1  0
 18 19  1  0
 18 23  1  0
 20 21  2  0
 20 24  1  0
 21 22  1  0
 22 23  2  0
 24 25  1  0
 25 26  1  0
 26 27  1  0
 27 28  1  0
 28 29  3  0
M  END
>  <DRUGBANK_ID>  (1) 
DB04505

>  <SECONDARY_ACCESSION_NUMBERS>  (1) 
EXPT02699

>  <COMMON_NAME>  (1) 
8-(2-Chloro-3,4,5-Trimethoxy-Benzyl)-9-Pent-4-Ylnyl-9h-Purin-6-Ylamine

$$$$
