790
     RDKit          2D

 15 16  0  0  0  0  0  0  0  0999 V2000
   -1.1714   -0.8246    0.0000 C   0  0  0  0  0  0  0  0  0  0  0  0
   -0.4569   -1.2371    0.0000 C   0  0  0  0  0  0  0  0  0  0  0  0
    0.2575   -0.8246    0.0000 C   0  0  0  0  0  0  0  0  0  0  0  0
    0.2575    0.0004    0.0000 C   0  0  0  0  0  0  0  0  0  0  0  0
   -0.4569    0.4129    0.0000 N   0  0  0  0  0  0  0  0  0  0  0  0
   -1.1714    0.0004    0.0000 C   0  0  0  0  0  0  0  0  0  0  0  0
    0.9720   -1.2371    0.0000 C   0  0  0  0  0  0  0  0  0  0  0  0
    1.6865   -0.8246    0.0000 C   0  0  0  0  0  0  0  0  0  0  0  0
    1.6865    0.0004    0.0000 C   0  0  0  0  0  0  0  0  0  0  0  0
    0.9720    0.4129    0.0000 C   0  0  0  0  0  0  0  0  0  0  0  0
    0.9720    1.2379    0.0000 O   0  0  0  0  0  0  0  0  0  0  0  0
    0.2575    1.6504    0.0000 P   0  0  0  0  0  0  0  0  0  0  0  0
   -0.4569    2.0629    0.0000 O   0  0  0  0  0  0  0  0  0  0  0  0
    0.6700    2.3649    0.0000 O   0  0  0  0  0  0  0  0  0  0  0  0
   -0.1550    0.9360    0.0000 O   0  0  0  0  0  0  0  0  0  0  0  0
  1  2  1  0
  1  6  1  0
  2  3  1  0
  3  4  2  0
  3  7  1  0
  4  5  1  0
  4 10  1  0
  5  6  1  0
  7  8  2  0
  8  9  1  0
  9 10  2  0
 10 11  1  0
 11 12  1  0
 12 13  1  0
 12 14  2  0
 12 15  1  0
M  END
>  <DRUGBANK_ID>  (1) 
DB03525

>  <SECONDARY_ACCESSION_NUMBERS>  (1) 
EXPT00304

>  <COMMON_NAME>  (1) 
RU79073

$$$$
