GWB
     RDKit          2D

 21 23  0  0  0  0  0  0  0  0999 V2000
    0.2765    1.0395    0.0000 C   0  0  0  0  0  0  0  0  0  0  0  0
   -0.4380    1.4520    0.0000 C   0  0  0  0  0  0  0  0  0  0  0  0
   -1.1524    1.8645    0.0000 C   0  0  0  0  0  0  0  0  0  0  0  0
   -1.9774    1.8645    0.0000 C   0  0  0  0  0  0  0  0  0  0  0  0
   -1.5649    2.5790    0.0000 C   0  0  0  0  0  0  0  0  0  0  0  0
    0.9910   -1.8480    0.0000 N   0  0  0  0  0  0  0  0  0  0  0  0
    0.2765   -1.4355    0.0000 C   0  0  0  0  0  0  0  0  0  0  0  0
   -0.4380   -1.8480    0.0000 O   0  0  0  0  0  0  0  0  0  0  0  0
    0.2765   -0.6105    0.0000 C   0  0  0  0  0  0  0  0  0  0  0  0
    0.9910   -0.1980    0.0000 C   0  0  0  0  0  0  0  0  0  0  0  0
    0.9910    0.6270    0.0000 O   0  0  0  0  0  0  0  0  0  0  0  0
    1.7054   -1.4355    0.0000 C   0  0  0  0  0  0  0  0  0  0  0  0
    1.7054   -0.6105    0.0000 C   0  0  0  0  0  0  0  0  0  0  0  0
    2.4199   -0.1980    0.0000 C   0  0  0  0  0  0  0  0  0  0  0  0
    3.1344   -0.6105    0.0000 C   0  0  0  0  0  0  0  0  0  0  0  0
    3.1344   -1.4355    0.0000 C   0  0  0  0  0  0  0  0  0  0  0  0
    2.4199   -1.8480    0.0000 C   0  0  0  0  0  0  0  0  0  0  0  0
    3.8489   -0.1980    0.0000 F   0  0  0  0  0  0  0  0  0  0  0  0
   -0.4380   -0.1980    0.0000 C   0  0  0  0  0  0  0  0  0  0  0  0
   -0.4380    0.6270    0.0000 C   0  0  0  0  0  0  0  0  0  0  0  0
   -1.1524   -0.6105    0.0000 C   0  0  0  0  0  0  0  0  0  0  0  0
  1  2  3  0
  1 11  1  0
  2  3  1  0
  3  4  1  0
  3  5  1  0
  4  5  1  0
  6  7  1  0
  6 12  1  0
  7  8  2  0
  7  9  1  0
  9 10  2  0
  9 19  1  0
 10 11  1  0
 10 13  1  0
 12 13  2  0
 12 17  1  0
 13 14  1  0
 14 15  2  0
 15 16  1  0
 15 18  1  0
 16 17  2  0
 19 20  1  0
 19 21  1  0
M  END
>  <DRUGBANK_ID>  (1) 
DB07864

>  <COMMON_NAME>  (1) 
4-[(CYCLOPROPYLETHYNYL)OXY]-6-FLUORO-3-ISOPROPYLQUINOLIN-2(1H)-ONE

$$$$
