ABJ
     RDKit          2D

 20 22  0  0  0  0  0  0  0  0999 V2000
   24.2880    9.7719    0.0000 C   0  0  0  0  0  0  0  0  0  0  0  0
   23.7360    9.1588    0.0000 C   0  0  0  0  0  0  0  0  0  0  0  0
   22.9290    9.3303    0.0000 C   0  0  0  0  0  0  0  0  0  0  0  0
   23.9909    8.3742    0.0000 N   0  0  0  0  0  0  0  0  0  0  0  0
   23.5060    7.7067    0.0000 N   0  0  0  0  0  0  0  0  0  0  0  0
   24.7756    8.1192    0.0000 C   0  0  0  0  0  0  0  0  0  0  0  0
   25.4900    8.5317    0.0000 N   0  0  0  0  0  0  0  0  0  0  0  0
   26.2045    8.1192    0.0000 C   0  0  0  0  0  0  0  0  0  0  0  0
   26.2045    7.2942    0.0000 N   0  0  0  0  0  0  0  0  0  0  0  0
   25.4900    6.8817    0.0000 C   0  0  0  0  0  0  0  0  0  0  0  0
   25.4900    6.0567    0.0000 N   0  0  0  0  0  0  0  0  0  0  0  0
   24.7756    7.2942    0.0000 C   0  0  0  0  0  0  0  0  0  0  0  0
   23.9909    7.0393    0.0000 C   0  0  0  0  0  0  0  0  0  0  0  0
   23.7360    6.2547    0.0000 C   0  0  0  0  0  0  0  0  0  0  0  0
   24.2880    5.6416    0.0000 C   0  0  0  0  0  0  0  0  0  0  0  0
   22.9290    6.0831    0.0000 C   0  0  0  0  0  0  0  0  0  0  0  0
   22.6741    5.2985    0.0000 C   0  0  0  0  0  0  0  0  0  0  0  0
   23.2261    4.6854    0.0000 C   0  0  0  0  0  0  0  0  0  0  0  0
   24.0331    4.8570    0.0000 C   0  0  0  0  0  0  0  0  0  0  0  0
   24.5851    4.2439    0.0000 O   0  0  0  0  0  0  0  0  0  0  0  0
  2  1  1  0
  2  4  1  0
  3  2  1  0
  4  5  1  0
  4  6  1  0
  5 13  2  0
  6  7  2  0
  6 12  1  0
  7  8  1  0
  8  9  2  0
  9 10  1  0
 10 11  1  0
 10 12  2  0
 12 13  1  0
 13 14  1  0
 14 15  2  0
 14 16  1  0
 15 19  1  0
 16 17  2  0
 17 18  1  0
 18 19  2  0
 19 20  1  0
M  END
>  <DRUGBANK_ID>  (1) 
DB07335

>  <COMMON_NAME>  (1) 
3-[4-AMINO-1-(1-METHYLETHYL)-1H-PYRAZOLO[3,4-D]PYRIMIDIN-3-YL]PHENOL

>  <UNII>  (1) 
E6993R9V55

$$$$
