MEI
     RDKit          2D

 19 18  0  0  0  0  0  0  0  0999 V2000
   -3.4964   -0.8275    0.0000 C   0  0  0  0  0  0  0  0  0  0  0  0
   -2.8728   -0.2874    0.0000 O   0  0  0  0  0  0  0  0  0  0  0  0
   -2.0932   -0.5574    0.0000 C   0  0  0  0  0  0  0  0  0  0  0  0
   -2.3633   -1.3370    0.0000 C   0  0  0  0  0  0  0  0  0  0  0  0
   -1.8232    0.2221    0.0000 C   0  0  0  0  0  0  0  0  0  0  0  0
   -1.3137   -0.8275    0.0000 C   0  0  0  0  0  0  0  0  0  0  0  0
   -0.6900   -0.2874    0.0000 C   0  0  0  0  0  0  0  0  0  0  0  0
    0.0895   -0.5574    0.0000 C   0  0  0  0  0  0  0  0  0  0  0  0
    0.7132   -0.0173    0.0000 C   0  0  0  0  0  0  0  0  0  0  0  0
    0.5573    0.7928    0.0000 C   0  0  0  0  0  0  0  0  0  0  0  0
    1.4927   -0.2874    0.0000 C   0  0  0  0  0  0  0  0  0  0  0  0
    2.1164    0.2527    0.0000 C   0  0  0  0  0  0  0  0  0  0  0  0
    2.8959   -0.0173    0.0000 C   0  0  0  0  0  0  0  0  0  0  0  0
    3.5196    0.5228    0.0000 C   0  0  0  0  0  0  0  0  0  0  0  0
    3.3637    1.3329    0.0000 C   0  0  0  0  0  0  0  0  0  0  0  0
    4.2991    0.2527    0.0000 C   0  0  0  0  0  0  0  0  0  0  0  0
    4.9228    0.7928    0.0000 C   0  0  0  0  0  0  0  0  0  0  0  0
    4.7668    1.6029    0.0000 O   0  0  0  0  0  0  0  0  0  0  0  0
    5.7023    0.5228    0.0000 O   0  0  0  0  0  0  0  0  0  0  0  0
  1  2  1  0
  2  3  1  0
  3  4  1  0
  3  5  1  0
  3  6  1  0
  6  7  1  0
  7  8  1  0
  8  9  1  0
  9 10  1  6
  9 11  1  0
 11 12  1  0
 12 13  2  0
 13 14  1  0
 14 15  1  0
 14 16  2  0
 16 17  1  0
 17 18  1  0
 17 19  2  0
M  END
>  <DRUGBANK_ID>  (1) 
DB08175

>  <COMMON_NAME>  (1) 
(2E,4E)-11-METHOXY-3,7,11-TRIMETHYLDODECA-2,4-DIENOIC ACID

>  <UNII>  (1) 
MB9LR353F8

$$$$
