D15
     RDKit          2D

 32 35  0  0  0  0  0  0  0  0999 V2000
   20.5376    9.1321    0.0000 C   0  0  0  0  0  0  0  0  0  0  0  0
   20.1251    8.4176    0.0000 C   0  0  0  0  0  0  0  0  0  0  0  0
   20.5376    7.7031    0.0000 Cl  0  0  0  0  0  0  0  0  0  0  0  0
   19.3001    8.4176    0.0000 C   0  0  0  0  0  0  0  0  0  0  0  0
   18.8876    9.1321    0.0000 C   0  0  0  0  0  0  0  0  0  0  0  0
   19.3001    9.8465    0.0000 C   0  0  0  0  0  0  0  0  0  0  0  0
   20.1251    9.8465    0.0000 C   0  0  0  0  0  0  0  0  0  0  0  0
   20.5376   10.5610    0.0000 C   0  0  0  0  0  0  0  0  0  0  0  0
   20.1251   11.2755    0.0000 C   0  0  0  0  0  0  0  0  0  0  0  0
   19.3001   11.2755    0.0000 C   0  0  0  0  0  0  0  0  0  0  0  0
   18.8876   11.9899    0.0000 N   0  0  0  0  0  0  0  0  0  0  0  0
   21.3626   10.5610    0.0000 C   0  0  0  0  0  0  0  0  0  0  0  0
   21.7751    9.8465    0.0000 O   0  0  0  0  0  0  0  0  0  0  0  0
   21.7751   11.2755    0.0000 N   0  0  0  0  0  0  0  0  0  0  0  0
   22.6001   11.2755    0.0000 C   0  0  0  0  0  0  0  0  0  0  0  0
   23.0126   11.9899    0.0000 C   0  0  0  0  0  0  0  0  0  0  0  0
   23.8376   11.9899    0.0000 C   0  0  0  0  0  0  0  0  0  0  0  0
   23.0126   10.5610    0.0000 C   0  0  0  0  0  0  0  0  0  0  0  0
   23.8376   10.5610    0.0000 C   0  0  0  0  0  0  0  0  0  0  0  0
   24.2501   11.2755    0.0000 C   0  0  0  0  0  0  0  0  0  0  0  0
   25.0570   11.4470    0.0000 N   0  0  0  0  0  0  0  0  0  0  0  0
   25.1433   12.2675    0.0000 N   0  0  0  0  0  0  0  0  0  0  0  0
   24.3896   12.6030    0.0000 C   0  0  0  0  0  0  0  0  0  0  0  0
   24.2181   13.4100    0.0000 N   0  0  0  0  0  0  0  0  0  0  0  0
   23.4334   13.6650    0.0000 C   0  0  0  0  0  0  0  0  0  0  0  0
   22.8203   13.1129    0.0000 O   0  0  0  0  0  0  0  0  0  0  0  0
   23.2619   14.4719    0.0000 C   0  0  0  0  0  0  0  0  0  0  0  0
   22.4773   14.7269    0.0000 C   0  0  0  0  0  0  0  0  0  0  0  0
   22.3058   15.5338    0.0000 C   0  0  0  0  0  0  0  0  0  0  0  0
   22.9189   16.0859    0.0000 C   0  0  0  0  0  0  0  0  0  0  0  0
   23.7035   15.8309    0.0000 C   0  0  0  0  0  0  0  0  0  0  0  0
   23.8750   15.0240    0.0000 C   0  0  0  0  0  0  0  0  0  0  0  0
  1  2  2  0
  1  7  1  0
  2  3  1  0
  2  4  1  0
  4  5  2  0
  5  6  1  0
  6  7  2  0
  7  8  1  0
  8  9  1  6
  8 12  1  0
  9 10  1  0
 10 11  1  0
 12 13  2  0
 12 14  1  0
 14 15  1  0
 15 16  2  0
 15 18  1  0
 16 17  1  0
 17 20  2  0
 17 23  1  0
 18 19  2  0
 19 20  1  0
 20 21  1  0
 21 22  1  0
 22 23  2  0
 23 24  1  0
 24 25  1  0
 25 26  2  0
 25 27  1  0
 27 28  2  0
 27 32  1  0
 28 29  1  0
 29 30  2  0
 30 31  1  0
 31 32  2  0
M  END
>  <DRUGBANK_ID>  (1) 
DB07608

>  <COMMON_NAME>  (1) 
N-(5-{[(2S)-4-amino-2-(3-chlorophenyl)butanoyl]amino}-1H-indazol-3-yl)benzamide

$$$$
