
     RDKit          2D

  9  8  0  0  0  0  0  0  0  0999 V2000
    0.3019   -0.7145    0.0000 S   0  0  0  0  0  0  0  0  0  0  0  0
   -0.7144    0.0000    0.0000 P   0  0  0  0  0  0  0  0  0  0  0  0
    0.7145    0.0000    0.0000 P   0  0  0  0  0  0  0  0  0  0  0  0
    0.0000    0.4124    0.0000 O   0  0  0  0  0  0  0  0  0  0  0  0
   -1.4289   -0.4125    0.0000 O   0  0  0  0  0  0  0  0  0  0  0  0
   -1.1269    0.7145    0.0000 O   0  0  0  0  0  0  0  0  0  0  0  0
    1.4289   -0.4125    0.0000 O   0  0  0  0  0  0  0  0  0  0  0  0
   -0.3019   -0.7145    0.0000 O   0  0  0  0  0  0  0  0  0  0  0  0
    1.1270    0.7145    0.0000 O   0  0  0  0  0  0  0  0  0  0  0  0
  2  4  1  0
  2  5  1  0
  2  6  1  0
  2  8  2  0
  3  1  2  0
  3  4  1  0
  3  7  1  0
  3  9  1  0
M  CHG  1   9  -1
M  END
>  <DRUGBANK_ID>  (1) 
DB02423

>  <SECONDARY_ACCESSION_NUMBERS>  (1) 
EXPT02603

>  <COMMON_NAME>  (1) 
Thiopyrophosphate

>  <CAS_NUMBER>  (1) 
68488-87-9

>  <SYNONYMS>  (1) 
Trihydrogen thiodiphosphate

$$$$
