
     RDKit          2D

 31 34  0  0  0  0  0  0  0  0999 V2000
   -1.8264   -0.7480    0.0000 C   0  0  0  0  0  0  0  0  0  0  0  0
    0.3303    0.4760    0.0000 C   0  0  0  0  0  0  0  0  0  0  0  0
   -1.8264   -1.5690    0.0000 C   0  0  0  0  0  0  0  0  0  0  0  0
    0.3157   -0.3449    0.0000 C   0  0  0  0  0  0  0  0  0  0  0  0
    1.1172    0.7238    0.0000 C   0  0  0  0  0  0  0  0  0  0  0  0
   -0.3983   -0.7529    0.0000 C   0  0  0  0  0  0  0  0  0  0  0  0
   -1.1123   -0.3303    0.0000 C   0  0  0  0  0  0  0  0  0  0  0  0
   -2.5405   -0.3303    0.0000 C   0  0  0  0  0  0  0  0  0  0  0  0
   -0.3837    0.8987    0.0000 C   0  0  0  0  0  0  0  0  0  0  0  0
   -1.1026    0.4906    0.0000 C   0  0  0  0  0  0  0  0  0  0  0  0
    1.5933    0.0534    0.0000 C   0  0  0  0  0  0  0  0  0  0  0  0
    1.1026   -0.6072    0.0000 C   0  0  0  0  0  0  0  0  0  0  0  0
   -0.3983   -1.5787    0.0000 C   0  0  0  0  0  0  0  0  0  0  0  0
   -1.1123   -1.9867    0.0000 C   0  0  0  0  0  0  0  0  0  0  0  0
   -2.5405   -1.9867    0.0000 C   0  0  0  0  0  0  0  0  0  0  0  0
    1.1123    1.5495    0.0000 C   0  0  0  0  0  0  0  0  0  0  0  0
   -3.2450   -0.7480    0.0000 C   0  0  0  0  0  0  0  0  0  0  0  0
   -3.2450   -1.5690    0.0000 C   0  0  0  0  0  0  0  0  0  0  0  0
    3.2546    1.9867    0.0000 C   0  0  0  0  0  0  0  0  0  0  0  0
    1.8168    1.9721    0.0000 C   0  0  0  0  0  0  0  0  0  0  0  0
    0.3886    1.9576    0.0000 O   0  0  0  0  0  0  0  0  0  0  0  0
    2.5405    1.5641    0.0000 O   0  0  0  0  0  0  0  0  0  0  0  0
    3.2450    2.8078    0.0000 O   0  0  0  0  0  0  0  0  0  0  0  0
   -3.9687   -1.9771    0.0000 O   0  0  0  0  0  0  0  0  0  0  0  0
    1.8313    1.1415    0.0000 O   0  0  0  0  0  0  0  0  0  0  0  0
   -1.8264    0.0776    0.0000 C   0  0  0  0  0  0  0  0  0  0  0  0
    0.3254    1.3018    0.0000 C   0  0  0  0  0  0  0  0  0  0  0  0
   -1.1172   -2.8078    0.0000 F   0  0  0  0  0  0  0  0  0  0  0  0
   -1.8168    0.9083    0.0000 O   0  0  0  0  0  0  0  0  0  0  0  0
    2.4143    0.0485    0.0000 C   0  0  0  0  0  0  0  0  0  0  0  0
    3.9687    1.5787    0.0000 C   0  0  0  0  0  0  0  0  0  0  0  0
  1 26  1  1
  2  9  1  0
  2 27  1  1
  3  1  1  0
  4  6  1  0
  4  2  1  0
  5  2  1  0
  5 16  1  0
  5 25  1  6
  5 11  1  0
  6  7  1  0
  7  1  1  0
  8  1  1  0
  9 10  1  0
  7 10  1  1
 10 29  1  1
 11 12  1  0
 11 30  1  6
  4 12  1  1
  6 13  1  6
 13 14  1  0
 14  3  1  0
 14 28  1  6
 15  3  2  0
 17  8  2  0
 18 17  1  0
 18 15  1  0
 19 22  1  0
 20 16  1  0
 21 16  2  0
 22 20  1  0
 23 19  2  0
 24 18  2  0
 31 19  1  0
M  END
>  <DRUGBANK_ID>  (1) 
DB14657

>  <SECONDARY_ACCESSION_NUMBERS>  (1) 
DBSALT001420

>  <COMMON_NAME>  (1) 
Paramethasone acetate

>  <CAS_NUMBER>  (1) 
1597-82-6

>  <UNII>  (1) 
8X50N88ZDP

>  <SYNONYMS>  (1) 
Haldrone; Paramethasone 21-acetate; Paramethasone acetate

$$$$
