
     RDKit          2D

 28 27  0  0  0  0  0  0  0  0999 V2000
    0.3593   -0.0501    0.0000 C   0  0  0  0  0  0  0  0  0  0  0  0
    1.0746   -0.4612    0.0000 C   0  0  0  0  0  0  0  0  0  0  0  0
   -0.3558   -0.4612    0.0000 C   0  0  0  0  0  0  0  0  0  0  0  0
    0.3593    0.7757    0.0000 S   0  0  0  0  0  0  0  0  0  0  0  0
    1.7863   -0.0501    0.0000 O   0  0  0  0  0  0  0  0  0  0  0  0
    1.0746   -1.2870    0.0000 O   0  0  0  0  0  0  0  0  0  0  0  0
   -1.0710   -0.0501    0.0000 C   0  0  0  0  0  0  0  0  0  0  0  0
    0.3594    1.6982    0.0000 O   0  0  0  0  0  0  0  0  0  0  0  0
   -0.4767    0.7410    0.0000 O   0  0  0  0  0  0  0  0  0  0  0  0
    1.2335    0.7444    0.0000 O   0  0  0  0  0  0  0  0  0  0  0  0
    2.4981   -0.4612    0.0000 C   0  0  0  0  0  0  0  0  0  0  0  0
   -1.7863   -0.4612    0.0000 O   0  0  0  0  0  0  0  0  0  0  0  0
   -1.0710    0.7757    0.0000 O   0  0  0  0  0  0  0  0  0  0  0  0
    3.2134   -0.0501    0.0000 C   0  0  0  0  0  0  0  0  0  0  0  0
   -2.4980   -0.0501    0.0000 C   0  0  0  0  0  0  0  0  0  0  0  0
    3.9286   -0.4612    0.0000 C   0  0  0  0  0  0  0  0  0  0  0  0
    3.2134    0.7757    0.0000 C   0  0  0  0  0  0  0  0  0  0  0  0
   -3.2132   -0.4612    0.0000 C   0  0  0  0  0  0  0  0  0  0  0  0
    4.6438   -0.0501    0.0000 C   0  0  0  0  0  0  0  0  0  0  0  0
    3.9286    1.1903    0.0000 C   0  0  0  0  0  0  0  0  0  0  0  0
   -3.9285   -0.0501    0.0000 C   0  0  0  0  0  0  0  0  0  0  0  0
   -3.2132   -1.2870    0.0000 C   0  0  0  0  0  0  0  0  0  0  0  0
    5.3591   -0.4612    0.0000 C   0  0  0  0  0  0  0  0  0  0  0  0
   -4.6403   -0.4612    0.0000 C   0  0  0  0  0  0  0  0  0  0  0  0
   -3.9285   -1.6982    0.0000 C   0  0  0  0  0  0  0  0  0  0  0  0
    6.0742   -0.0501    0.0000 C   0  0  0  0  0  0  0  0  0  0  0  0
   -5.3589   -0.0501    0.0000 C   0  0  0  0  0  0  0  0  0  0  0  0
   -6.0742   -0.4612    0.0000 C   0  0  0  0  0  0  0  0  0  0  0  0
  1  2  1  0
  1  3  1  0
  1  4  1  0
  2  5  1  0
  2  6  2  0
  3  7  1  0
  4  8  1  0
  4  9  2  0
  4 10  2  0
  5 11  1  0
  7 12  1  0
  7 13  2  0
 11 14  1  0
 12 15  1  0
 14 16  1  0
 14 17  1  0
 15 18  1  0
 16 19  1  0
 17 20  1  0
 18 21  1  0
 18 22  1  0
 19 23  1  0
 21 24  1  0
 22 25  1  0
 23 26  1  0
 24 27  1  0
 27 28  1  0
M  END
>  <DRUGBANK_ID>  (1) 
DB11089

>  <COMMON_NAME>  (1) 
Docusate

>  <CAS_NUMBER>  (1) 
10041-19-7

>  <UNII>  (1) 
M7P27195AG

>  <SYNONYMS>  (1) 
Dioctyl sulfosuccinate; Docusate hydrogen

$$$$
