[NO NAME]
     RDKit          2D

 38 40  0  0  1  0  0  0  0  0999 V2000
   15.6068  -12.7690    0.0000 C   0  0  0  0  0  0  0  0  0  0  0  0
   16.4293  -12.7724    0.0000 N   0  0  0  0  0  0  0  0  0  0  0  0
   15.3890  -13.5636    0.0000 C   0  0  0  0  0  0  0  0  0  0  0  0
   14.8918  -12.3616    0.0000 C   0  0  0  0  0  0  0  0  0  0  0  0
   17.1409  -12.3132    0.0000 C   0  0  0  0  0  0  0  0  0  0  0  0
   16.7232  -13.5021    0.0000 C   0  0  0  0  0  0  0  0  0  0  0  0
   16.0800  -14.0201    0.0000 C   0  0  0  0  0  0  0  0  0  0  0  0
   14.1768  -12.7690    0.0000 O   0  0  0  0  0  0  0  0  0  0  0  0
   14.8884  -11.5324    0.0000 O   0  0  0  0  0  0  0  0  0  0  0  0
   17.8525  -12.7310    0.0000 C   0  0  0  0  0  0  0  0  0  0  0  0
   17.1374  -11.4875    0.0000 O   0  0  0  0  0  0  0  0  0  0  0  0
   13.4685  -12.3616    0.0000 C   0  0  0  0  0  0  0  0  0  0  0  0
   18.5400  -12.2821    0.0000 N   0  0  0  0  0  0  0  0  0  0  0  0
   18.0634  -13.5298    0.0000 C   0  0  0  0  0  0  0  0  0  0  0  0
   13.4685  -11.5360    0.0000 C   0  0  0  0  0  0  0  0  0  0  0  0
   12.7492  -12.7655    0.0000 C   0  0  0  0  0  0  0  0  0  0  0  0
   19.1798  -12.8001    0.0000 C   0  0  0  0  0  0  0  0  0  0  0  0
   18.8859  -13.5257    0.0000 O   0  0  0  0  0  0  0  0  0  0  0  0
   14.1768  -11.1243    0.0000 C   0  0  0  0  0  0  0  0  0  0  0  0
   12.8737  -10.9488    0.0000 C   0  0  0  0  0  0  0  0  0  0  0  0
   12.7457  -13.5948    0.0000 C   0  0  0  0  0  0  0  0  0  0  0  0
   12.0307  -12.3546    0.0000 C   0  0  0  0  0  0  0  0  0  0  0  0
   20.0539  -12.4688    0.0000 C   0  0  0  0  0  0  0  0  0  0  0  0
   14.1768  -10.3022    0.0000 C   0  0  0  0  0  0  0  0  0  0  0  0
   20.2607  -11.6707    0.0000 C   0  0  0  0  0  0  0  0  0  0  0  0
   14.8918   -9.8912    0.0000 C   0  0  0  0  0  0  0  0  0  0  0  0
   19.6804  -11.0829    0.0000 C   0  0  0  0  0  0  0  0  0  0  0  0
   21.0588  -11.4494    0.0000 O   0  0  0  0  0  0  0  0  0  0  0  0
   15.6068  -10.2952    0.0000 N   0  0  0  0  0  0  0  0  0  0  0  0
   14.8884   -9.0620    0.0000 O   0  0  0  0  0  0  0  0  0  0  0  0
   19.8948  -10.2848    0.0000 C   0  0  0  0  0  0  0  0  0  0  0  0
   16.3220   -9.8878    0.0000 C   0  0  0  0  0  0  0  0  0  0  0  0
   19.1798   -9.8774    0.0000 C   0  0  0  0  0  0  0  0  0  0  0  0
   20.6583   -9.9708    0.0000 O   0  0  0  0  0  0  0  0  0  0  0  0
   17.0371  -10.2917    0.0000 C   0  0  0  0  0  0  0  0  0  0  0  0
   18.4680  -10.2883    0.0000 C   0  0  0  0  0  0  0  0  0  0  0  0
   17.7487   -9.8843    0.0000 C   0  0  0  0  0  0  0  0  0  0  0  0
   18.4645  -11.1141    0.0000 C   0  0  0  0  0  0  0  0  0  0  0  0
  1  2  1  0
  1  3  2  0
  1  4  1  0
  2  5  1  0
  2  6  1  0
  3  7  1  0
  4  8  1  0
  4  9  2  0
  5 10  1  0
  5 11  2  0
  6  7  1  0
  8 12  1  0
 10 13  1  0
 10 14  2  0
 12 15  1  0
 12 16  1  6
 13 17  2  0
 14 18  1  0
 15 19  1  0
 15 20  1  6
 16 21  1  0
 16 22  1  0
 17 23  1  0
 17 18  1  0
 19 24  2  0
 23 25  1  0
 24 26  1  0
 25 27  1  0
 25 28  2  0
 26 29  1  0
 26 30  2  0
 27 31  1  0
 29 32  1  0
 31 33  1  0
 31 34  1  1
 32 35  1  0
 33 36  2  0
 35 37  2  0
 36 38  1  0
 36 37  1  0
M  END
>  <DRUGBANK_ID>  (1) 
DB01669

>  <SECONDARY_ACCESSION_NUMBERS>  (1) 
EXPT03225

>  <COMMON_NAME>  (1) 
Virginiamycin M1

>  <CAS_NUMBER>  (1) 
21411-53-0

>  <UNII>  (1) 
8W4UOL59AZ

>  <SYNONYMS>  (1) 
Mikamycin A; Ostreogrycin A; Pristinamycin IIA; Streptogramin A; Virginiamycin factor M1; Virginiamycin M1

$$$$
