CXB
     RDKit          2D

 17 17  0  0  0  0  0  0  0  0999 V2000
    0.2957   -2.0298    0.0000 C   0  0  0  0  0  0  0  0  0  0  0  0
    0.2957   -1.2048    0.0000 O   0  0  0  0  0  0  0  0  0  0  0  0
   -0.4187   -0.7923    0.0000 N   0  0  0  0  0  0  0  0  0  0  0  0
   -0.4187    0.0327    0.0000 C   0  0  0  0  0  0  0  0  0  0  0  0
    0.2957    0.4452    0.0000 C   0  0  0  0  0  0  0  0  0  0  0  0
    0.2957    1.2702    0.0000 O   0  0  0  0  0  0  0  0  0  0  0  0
    1.0102    0.0327    0.0000 N   0  0  0  0  0  0  0  0  0  0  0  0
    1.7247    0.4452    0.0000 C   0  0  0  0  0  0  0  0  0  0  0  0
    2.4392    0.0327    0.0000 B   0  0  0  0  0  0  0  0  0  0  0  0
    3.1536    0.4452    0.0000 O   0  0  0  0  0  0  0  0  0  0  0  0
    2.4392   -0.7923    0.0000 O   0  0  0  0  0  0  0  0  0  0  0  0
   -1.1332    0.4452    0.0000 C   0  0  0  0  0  0  0  0  0  0  0  0
   -1.8869    0.1097    0.0000 C   0  0  0  0  0  0  0  0  0  0  0  0
   -2.4389    0.7228    0.0000 S   0  0  0  0  0  0  0  0  0  0  0  0
   -2.0264    1.4372    0.0000 C   0  0  0  0  0  0  0  0  0  0  0  0
   -2.3620    2.1909    0.0000 N   0  0  0  0  0  0  0  0  0  0  0  0
   -1.2194    1.2657    0.0000 N   0  0  0  0  0  0  0  0  0  0  0  0
  1  2  1  0
  2  3  1  0
  3  4  2  0
  4  5  1  0
  4 12  1  0
  5  6  2  0
  5  7  1  0
  7  8  1  0
  8  9  1  0
  9 10  1  0
  9 11  1  0
 12 13  2  0
 12 17  1  0
 13 14  1  0
 14 15  1  0
 15 16  1  0
 15 17  2  0
M  END
>  <DRUGBANK_ID>  (1) 
DB07599

>  <COMMON_NAME>  (1) 
[(2-AMINO-ALPHA-METHOXYIMINO-4-THIAZOLYLACETYL)AMINO]METHYLBORONIC ACID

$$$$
