
     RDKit          2D

 12 11  0  0  0  0  0  0  0  0999 V2000
    1.7861    0.2062    0.0000 C   0  0  0  0  0  0  0  0  0  0  0  0
    1.0717   -0.2062    0.0000 C   0  0  0  0  0  0  0  0  0  0  0  0
    0.3572    0.2062    0.0000 C   0  0  0  0  0  0  0  0  0  0  0  0
   -0.3572   -0.2062    0.0000 C   0  0  0  0  0  0  0  0  0  0  0  0
   -1.0716    0.2062    0.0000 C   0  0  0  0  0  0  0  0  0  0  0  0
    1.7861    1.0312    0.0000 O   0  0  0  0  0  0  0  0  0  0  0  0
    0.3572    1.0312    0.0000 O   0  0  0  0  0  0  0  0  0  0  0  0
   -0.3572   -1.0312    0.0000 O   0  0  0  0  0  0  0  0  0  0  0  0
   -1.0716    1.0312    0.0000 O   0  0  0  0  0  0  0  0  0  0  0  0
   -1.7861   -0.2062    0.0000 C   0  0  0  0  0  0  0  0  0  0  0  0
   -2.5006    0.2062    0.0000 O   0  0  0  0  0  0  0  0  0  0  0  0
    1.0717   -1.0312    0.0000 F   0  0  0  0  0  0  0  0  0  0  0  0
  2  1  1  0
  2 12  1  6
  3  2  1  0
  3  7  1  6
  4  3  1  0
  4  8  1  6
  5  4  1  0
  5  9  1  1
  6  1  2  0
 10  5  1  0
 10 11  1  0
M  ISO  1  12  18
M  END
>  <DRUGBANK_ID>  (1) 
DB09502

>  <SECONDARY_ACCESSION_NUMBERS>  (1) 
DB09150

>  <COMMON_NAME>  (1) 
Fludeoxyglucose (18F)

>  <CAS_NUMBER>  (1) 
63503-12-8

>  <UNII>  (1) 
0Z5B2CJX4D

>  <SYNONYMS>  (1) 
(18F)-FDG; 18-F FDG; 18F-FDG; Fludeoxyglucose (18F); Fludeoxyglucose F 18; Fludeoxyglucose F-18; Fludeoxyglucose, F-18; Fluorine (18F) fludeoxyglucose

$$$$
