
     RDKit          2D

  2  0  0  0  0  0  0  0  0  0999 V2000
   -0.4125    0.0000    0.0000 Li  0  0  0  0  0 15  0  0  0  0  0  0
    0.4125    0.0000    0.0000 O   0  0  0  0  0  0  0  0  0  0  0  0
M  CHG  2   1   1   2  -1
M  END
>  <DRUGBANK_ID>  (1) 
DB14506

>  <COMMON_NAME>  (1) 
Lithium hydroxide

>  <CAS_NUMBER>  (1) 
1310-65-2

>  <UNII>  (1) 
903YL31JAS

>  <SYNONYMS>  (1) 
Lithium hydrate; Lithium hydroxide anhydrous; Lithiumhydroxid

$$$$
