
     RDKit          2D

 26 27  0  0  1  0  0  0  0  0999 V2000
    0.6358    0.7698    0.0000 C   0  0  0  0  0  0  0  0  0  0  0  0
   -0.1744    0.6139    0.0000 C   0  0  0  0  0  0  0  0  0  0  0  0
   -0.4444   -0.1657    0.0000 O   0  0  0  0  0  0  0  0  0  0  0  0
   -0.7145    1.2375    0.0000 N   0  0  0  0  0  0  0  0  0  0  0  0
   -0.4444    2.0171    0.0000 C   0  0  0  0  0  0  0  0  0  0  0  0
   -0.9845    2.6407    0.0000 C   0  0  0  0  0  0  0  0  0  0  0  0
   -1.7946    2.4848    0.0000 C   0  0  0  0  0  0  0  0  0  0  0  0
   -2.3347    3.1084    0.0000 C   0  0  0  0  0  0  0  0  0  0  0  0
   -3.1449    2.9525    0.0000 C   0  0  0  0  0  0  0  0  0  0  0  0
   -3.4149    2.1730    0.0000 C   0  0  0  0  0  0  0  0  0  0  0  0
   -2.8748    1.5493    0.0000 C   0  0  0  0  0  0  0  0  0  0  0  0
   -2.0647    1.7052    0.0000 C   0  0  0  0  0  0  0  0  0  0  0  0
   -1.5246    1.0816    0.0000 C   0  0  0  0  0  0  0  0  0  0  0  0
   -1.7946    0.3020    0.0000 C   0  0  0  0  0  0  0  0  0  0  0  0
   -2.6048    0.1461    0.0000 C   0  0  0  0  0  0  0  0  0  0  0  0
   -3.1449    0.7698    0.0000 C   0  0  0  0  0  0  0  0  0  0  0  0
    0.3657    2.1730    0.0000 B   0  0  0  0  0  0  0  0  0  0  0  0
    0.5216    1.3628    0.0000 O   0  0  0  0  0  0  0  0  0  0  0  0
    0.2098    2.9831    0.0000 O   0  0  0  0  0  0  0  0  0  0  0  0
    1.1758    2.3289    0.0000 O   0  0  0  0  0  0  0  0  0  0  0  0
    1.7159    1.7052    0.0000 C   0  0  0  0  0  0  0  0  0  0  0  0
    2.5261    1.8611    0.0000 C   0  0  0  0  0  0  0  0  0  0  0  0
    2.7961    2.6407    0.0000 N   0  0  0  0  0  0  0  0  0  0  0  0
    3.0662    1.2375    0.0000 C   0  0  0  0  0  0  0  0  0  0  0  0
    3.8763    1.3934    0.0000 O   0  0  0  0  0  0  0  0  0  0  0  0
    2.7961    0.4579    0.0000 O   0  0  0  0  0  0  0  0  0  0  0  0
  1  2  1  0
  2  3  2  0
  2  4  1  0
  4  5  1  0
  5  6  1  6
  5 17  1  0
  6  7  1  0
  7  8  2  0
  7 12  1  0
  8  9  1  0
  9 10  2  0
 10 11  1  0
 11 12  2  0
 11 16  1  0
 12 13  1  0
 13 14  2  0
 14 15  1  0
 15 16  2  0
 17 18  1  0
 17 19  1  0
 17 20  1  0
 20 21  1  0
 21 22  1  0
 22 23  1  6
 22 24  1  0
 24 25  1  0
 24 26  2  0
M  CHG  1  17  -1
M  END
>  <DRUGBANK_ID>  (1) 
DB02677

>  <SECONDARY_ACCESSION_NUMBERS>  (1) 
EXPT02852

>  <COMMON_NAME>  (1) 
D-naphthyl-1-acetamido boronic acid alanine

$$$$
