
     RDKit          2D

 30 34  0  0  0  0  0  0  0  0999 V2000
   -1.4534   -2.1269    0.0000 O   0  0  0  0  0  0  0  0  0  0  0  0
   -1.8659   -1.4124    0.0000 C   0  0  0  0  0  0  0  0  0  0  0  0
   -1.4534   -0.6979    0.0000 N   0  0  0  0  0  0  0  0  0  0  0  0
   -0.6284   -0.6979    0.0000 C   0  0  0  0  0  0  0  0  0  0  0  0
   -0.1435   -1.3654    0.0000 N   0  0  0  0  0  0  0  0  0  0  0  0
    0.6411   -1.1104    0.0000 N   0  0  0  0  0  0  0  0  0  0  0  0
    0.6411   -0.2854    0.0000 C   0  0  0  0  0  0  0  0  0  0  0  0
    1.3556    0.1271    0.0000 C   0  0  0  0  0  0  0  0  0  0  0  0
    2.0701   -0.2854    0.0000 C   0  0  0  0  0  0  0  0  0  0  0  0
    2.0701   -1.1104    0.0000 C   0  0  0  0  0  0  0  0  0  0  0  0
    1.3556   -1.5229    0.0000 C   0  0  0  0  0  0  0  0  0  0  0  0
    1.3556   -2.3479    0.0000 C   0  0  0  0  0  0  0  0  0  0  0  0
    2.0701   -2.7604    0.0000 C   0  0  0  0  0  0  0  0  0  0  0  0
    2.0701   -3.5854    0.0000 C   0  0  0  0  0  0  0  0  0  0  0  0
    1.3556   -3.9979    0.0000 C   0  0  0  0  0  0  0  0  0  0  0  0
    1.3556   -4.8229    0.0000 C   0  0  0  0  0  0  0  0  0  0  0  0
    0.6411   -5.2354    0.0000 N   0  0  0  0  0  0  0  0  0  0  0  0
    0.6411   -6.0604    0.0000 C   0  0  0  0  0  0  0  0  0  0  0  0
   -0.0734   -6.4729    0.0000 C   0  0  0  0  0  0  0  0  0  0  0  0
   -0.7878   -6.0604    0.0000 S   0  0  0  0  0  0  0  0  0  0  0  0
   -1.0700   -6.8357    0.0000 O   0  0  0  0  0  0  0  0  0  0  0  0
   -1.6003   -5.9172    0.0000 O   0  0  0  0  0  0  0  0  0  0  0  0
   -0.7878   -5.2354    0.0000 C   0  0  0  0  0  0  0  0  0  0  0  0
   -0.0734   -4.8229    0.0000 C   0  0  0  0  0  0  0  0  0  0  0  0
    0.6411   -3.5854    0.0000 C   0  0  0  0  0  0  0  0  0  0  0  0
    0.6411   -2.7604    0.0000 C   0  0  0  0  0  0  0  0  0  0  0  0
   -0.1435   -0.0305    0.0000 N   0  0  0  0  0  0  0  0  0  0  0  0
   -2.6909   -1.4124    0.0000 C   0  0  0  0  0  0  0  0  0  0  0  0
   -3.4054   -1.8249    0.0000 C   0  0  0  0  0  0  0  0  0  0  0  0
   -3.4054   -0.9999    0.0000 C   0  0  0  0  0  0  0  0  0  0  0  0
  1  2  2  0
  2  3  1  0
  2 28  1  0
  3  4  1  0
  4  5  2  0
  4 27  1  0
  5  6  1  0
  6  7  1  0
  6 11  1  0
  7  8  1  0
  7 27  2  0
  8  9  2  0
  9 10  1  0
 10 11  2  0
 11 12  1  0
 12 13  2  0
 12 26  1  0
 13 14  1  0
 14 15  2  0
 15 16  1  0
 15 25  1  0
 16 17  1  0
 17 18  1  0
 17 24  1  0
 18 19  1  0
 19 20  1  0
 20 21  2  0
 20 22  2  0
 20 23  1  0
 23 24  1  0
 25 26  2  0
 28 29  1  0
 28 30  1  0
 29 30  1  0
M  END
>  <DRUGBANK_ID>  (1) 
DB14845

>  <COMMON_NAME>  (1) 
Filgotinib

>  <CAS_NUMBER>  (1) 
1206161-97-8

>  <UNII>  (1) 
3XVL385Q0M

>  <SYNONYMS>  (1) 
Filgotinib

$$$$
