
     RDKit          2D

 27 29  0  0  0  0  0  0  0  0999 V2000
   -0.9071   -0.4910    0.0000 C   0  0  0  0  0  0  0  0  0  0  0  0
   -0.1927   -0.9036    0.0000 O   0  0  0  0  0  0  0  0  0  0  0  0
   -1.6216   -0.9036    0.0000 C   0  0  0  0  0  0  0  0  0  0  0  0
   -1.6216   -1.7286    0.0000 N   0  0  0  0  0  0  0  0  0  0  0  0
   -2.3361   -2.1410    0.0000 C   0  0  0  0  0  0  0  0  0  0  0  0
   -0.9071   -2.1410    0.0000 C   0  0  0  0  0  0  0  0  0  0  0  0
    0.0196    1.4961    0.0000 C   0  0  0  0  0  0  0  0  0  0  0  0
   -0.1638    0.6918    0.0000 C   0  0  0  0  0  0  0  0  0  0  0  0
    0.4408    0.1306    0.0000 C   0  0  0  0  0  0  0  0  0  0  0  0
    1.2292    0.3738    0.0000 C   0  0  0  0  0  0  0  0  0  0  0  0
    1.4127    1.1781    0.0000 C   0  0  0  0  0  0  0  0  0  0  0  0
    0.8080    1.7393    0.0000 C   0  0  0  0  0  0  0  0  0  0  0  0
   -3.2271    1.1781    0.0000 C   0  0  0  0  0  0  0  0  0  0  0  0
   -3.0436    0.3738    0.0000 C   0  0  0  0  0  0  0  0  0  0  0  0
   -2.2552    0.1306    0.0000 C   0  0  0  0  0  0  0  0  0  0  0  0
   -1.6458    0.7119    0.0000 C   0  0  0  0  0  0  0  0  0  0  0  0
   -1.8294    1.5163    0.0000 C   0  0  0  0  0  0  0  0  0  0  0  0
   -2.6224    1.7393    0.0000 C   0  0  0  0  0  0  0  0  0  0  0  0
   -1.3196    2.1410    0.0000 C   0  0  0  0  0  0  0  0  0  0  0  0
   -0.9071    0.3339    0.0000 N   0  0  0  0  0  0  0  0  0  0  0  0
   -0.4946    2.1410    0.0000 C   0  0  0  0  0  0  0  0  0  0  0  0
    1.8339   -0.1872    0.0000 N   0  0  0  0  0  0  0  0  0  0  0  0
    1.6504   -0.9916    0.0000 C   0  0  0  0  0  0  0  0  0  0  0  0
    0.8620   -1.2348    0.0000 O   0  0  0  0  0  0  0  0  0  0  0  0
    2.2551   -1.5528    0.0000 O   0  0  0  0  0  0  0  0  0  0  0  0
    3.0435   -1.3096    0.0000 C   0  0  0  0  0  0  0  0  0  0  0  0
    3.2271   -0.5053    0.0000 C   0  0  0  0  0  0  0  0  0  0  0  0
  1  3  1  0
  1  2  2  0
  3  4  1  0
  4  5  1  0
  4  6  1  0
  7  8  1  0
  7 21  1  0
  8  9  2  0
  9 10  1  0
 10 11  2  0
 10 22  1  0
 11 12  1  0
 12  7  2  0
 13 14  1  0
 14 15  2  0
 15 16  1  0
 16 20  1  0
 16 17  2  0
 17 18  1  0
 17 19  1  0
 18 13  2  0
 19 21  1  0
 20  8  1  0
 20  1  1  0
 22 23  1  0
 23 24  2  0
 23 25  1  0
 25 26  1  0
 26 27  1  0
M  END
>  <DRUGBANK_ID>  (1) 
DB13635

>  <COMMON_NAME>  (1) 
Tiracizine

>  <CAS_NUMBER>  (1) 
83275-56-3

>  <UNII>  (1) 
9UUO2T61K7

>  <SYNONYMS>  (1) 
Tiracizina; Tiracizine; Tiracizinum

$$$$
