
     RDKit          2D

 19 22  0  0  1  0  0  0  0  0999 V2000
    4.7791    1.5503    0.0000 C   0  0  0  0  0  0  0  0  0  0  0  0
    4.1170    1.0582    0.0000 C   0  0  0  0  0  0  0  0  0  0  0  0
    4.2121    0.2387    0.0000 C   0  0  0  0  0  0  0  0  0  0  0  0
    3.5499   -0.2534    0.0000 C   0  0  0  0  0  0  0  0  0  0  0  0
    2.8196   -0.1578    0.0000 C   0  0  0  0  0  0  0  0  0  0  0  0
    2.6976    0.8935    0.0000 C   0  0  0  0  0  0  0  0  0  0  0  0
    3.1279    1.3587    0.0000 C   0  0  0  0  0  0  0  0  0  0  0  0
    2.0508    1.4057    0.0000 C   0  0  0  0  0  0  0  0  0  0  0  0
    2.7782    1.7950    0.0000 C   0  0  0  0  0  0  0  0  0  0  0  0
    3.4790    1.3597    0.0000 C   0  0  0  0  0  0  0  0  0  0  0  0
    3.4525    0.5351    0.0000 C   0  0  0  0  0  0  0  0  0  0  0  0
    2.7251    0.1459    0.0000 C   0  0  0  0  0  0  0  0  0  0  0  0
    2.0243    0.5811    0.0000 C   0  0  0  0  0  0  0  0  0  0  0  0
    1.4609   -0.6678    0.0000 C   0  0  0  0  0  0  0  0  0  0  0  0
    2.2804   -0.5727    0.0000 C   0  0  0  0  0  0  0  0  0  0  0  0
    0.8142   -0.1556    0.0000 N   0  0  0  0  0  0  0  0  0  0  0  0
    0.7191    0.6639    0.0000 C   0  0  0  0  0  0  0  0  0  0  0  0
    1.2313    1.3106    0.0000 C   0  0  0  0  0  0  0  0  0  0  0  0
    0.0935   -0.5571    0.0000 C   0  0  0  0  0  0  0  0  0  0  0  0
  1  2  1  0
  2  3  2  0
  2  7  1  0
  3  4  1  0
  4  5  2  0
  5  6  1  0
  5 15  1  0
  6  7  2  0
  8  6  1  0
  8  9  1  1
  8 13  1  0
  8 18  1  0
  9 10  1  0
 10 11  1  0
 11 12  1  0
 13 12  1  6
 13 14  1  0
 14 15  1  6
 14 16  1  0
 16 17  1  0
 16 19  1  0
 17 18  1  0
M  END
>  <DRUGBANK_ID>  (1) 
DB13810

>  <COMMON_NAME>  (1) 
Dimemorfan

>  <CAS_NUMBER>  (1) 
36309-01-0

>  <UNII>  (1) 
623OAC38YU

>  <SYNONYMS>  (1) 
Dimemorfan; Dimemorfano

$$$$
