
     RDKit          2D

 22 24  0  0  0  0  0  0  0  0999 V2000
   -0.7235   -0.6118    0.0000 C   0  0  0  0  0  0  0  0  0  0  0  0
   -0.7201    0.2130    0.0000 C   0  0  0  0  0  0  0  0  0  0  0  0
   -1.4316   -1.0243    0.0000 C   0  0  0  0  0  0  0  0  0  0  0  0
   -0.0086   -1.0278    0.0000 C   0  0  0  0  0  0  0  0  0  0  0  0
   -0.0017    0.6255    0.0000 O   0  0  0  0  0  0  0  0  0  0  0  0
   -1.4316    0.6288    0.0000 C   0  0  0  0  0  0  0  0  0  0  0  0
   -2.1499   -0.6118    0.0000 C   0  0  0  0  0  0  0  0  0  0  0  0
   -1.4316   -1.8526    0.0000 O   0  0  0  0  0  0  0  0  0  0  0  0
    0.7097   -0.6187    0.0000 C   0  0  0  0  0  0  0  0  0  0  0  0
   -0.0120   -1.8526    0.0000 O   0  0  0  0  0  0  0  0  0  0  0  0
    0.7132    0.2061    0.0000 C   0  0  0  0  0  0  0  0  0  0  0  0
   -2.1499    0.2130    0.0000 C   0  0  0  0  0  0  0  0  0  0  0  0
   -2.8613   -1.0243    0.0000 O   0  0  0  0  0  0  0  0  0  0  0  0
    1.4316    0.6186    0.0000 C   0  0  0  0  0  0  0  0  0  0  0  0
   -2.8613    0.6288    0.0000 O   0  0  0  0  0  0  0  0  0  0  0  0
   -3.5797   -0.6154    0.0000 C   0  0  0  0  0  0  0  0  0  0  0  0
    2.1429    0.1993    0.0000 C   0  0  0  0  0  0  0  0  0  0  0  0
    1.4350    1.4436    0.0000 C   0  0  0  0  0  0  0  0  0  0  0  0
    2.8579    0.6117    0.0000 C   0  0  0  0  0  0  0  0  0  0  0  0
    2.1498    1.8526    0.0000 C   0  0  0  0  0  0  0  0  0  0  0  0
    2.8613    1.4367    0.0000 C   0  0  0  0  0  0  0  0  0  0  0  0
    3.5797    1.8457    0.0000 O   0  0  0  0  0  0  0  0  0  0  0  0
  1  2  1  0
  1  3  2  0
  1  4  1  0
  2  5  1  0
  2  6  2  0
  3  7  1  0
  3  8  1  0
  4  9  1  0
  4 10  2  0
  5 11  1  0
  6 12  1  0
  7 13  1  0
  7 12  2  0
  9 11  2  0
 11 14  1  0
 12 15  1  0
 13 16  1  0
 14 17  2  0
 14 18  1  0
 17 19  1  0
 18 20  2  0
 19 21  2  0
 20 21  1  0
 21 22  1  0
M  END
>  <DRUGBANK_ID>  (1) 
DB14008

>  <COMMON_NAME>  (1) 
Hispidulin

>  <CAS_NUMBER>  (1) 
1447-88-7

>  <UNII>  (1) 
N7F61604C2

>  <SYNONYMS>  (1) 
4',5,7-Trihydroxy-6-methoxyflavone; Dinatin; Salvitin; Scutellarein 6-methyl ether

$$$$
