I4A
     RDKit          2D

 27 30  0  0  0  0  0  0  0  0999 V2000
    3.4126    0.6582    0.0000 O   0  0  0  0  0  0  0  0  0  0  0  0
    2.6028    0.5004    0.0000 C   0  0  0  0  0  0  0  0  0  0  0  0
    2.0613    1.1229    0.0000 O   0  0  0  0  0  0  0  0  0  0  0  0
    2.3346   -0.2797    0.0000 C   0  0  0  0  0  0  0  0  0  0  0  0
    1.5248   -0.4375    0.0000 C   0  0  0  0  0  0  0  0  0  0  0  0
    1.2565   -1.2176    0.0000 C   0  0  0  0  0  0  0  0  0  0  0  0
    0.4316   -1.2036    0.0000 C   0  0  0  0  0  0  0  0  0  0  0  0
   -0.0346   -1.8842    0.0000 C   0  0  0  0  0  0  0  0  0  0  0  0
   -0.8574   -1.9442    0.0000 C   0  0  0  0  0  0  0  0  0  0  0  0
   -1.4172   -1.3382    0.0000 C   0  0  0  0  0  0  0  0  0  0  0  0
   -1.2926   -0.5227    0.0000 C   0  0  0  0  0  0  0  0  0  0  0  0
   -0.5772   -0.1117    0.0000 C   0  0  0  0  0  0  0  0  0  0  0  0
    0.1901   -0.4147    0.0000 C   0  0  0  0  0  0  0  0  0  0  0  0
    1.7980   -1.8400    0.0000 C   0  0  0  0  0  0  0  0  0  0  0  0
    2.6078   -1.6823    0.0000 C   0  0  0  0  0  0  0  0  0  0  0  0
    2.8761   -0.9021    0.0000 C   0  0  0  0  0  0  0  0  0  0  0  0
    0.8657    0.0588    0.0000 N   0  0  0  0  0  0  0  0  0  0  0  0
    0.8798    0.8837    0.0000 C   0  0  0  0  0  0  0  0  0  0  0  0
    0.1724    1.3083    0.0000 C   0  0  0  0  0  0  0  0  0  0  0  0
    0.1865    2.1332    0.0000 C   0  0  0  0  0  0  0  0  0  0  0  0
   -0.5208    2.5578    0.0000 C   0  0  0  0  0  0  0  0  0  0  0  0
   -0.5067    3.3827    0.0000 C   0  0  0  0  0  0  0  0  0  0  0  0
   -1.2141    3.8073    0.0000 N   0  0  0  0  0  0  0  0  0  0  0  0
    0.2147    3.7829    0.0000 O   0  0  0  0  0  0  0  0  0  0  0  0
   -1.2422    2.1575    0.0000 C   0  0  0  0  0  0  0  0  0  0  0  0
   -1.2563    1.3326    0.0000 C   0  0  0  0  0  0  0  0  0  0  0  0
   -0.5490    0.9080    0.0000 C   0  0  0  0  0  0  0  0  0  0  0  0
  2  1  1  0
  2  4  1  0
  3  2  2  0
  4 16  2  0
  5  4  1  0
  5  6  2  0
  6 14  1  0
  7  6  1  0
  7  8  1  0
  9  8  1  0
 10  9  1  0
 11 10  1  0
 11 12  1  0
 12 13  1  0
 13  7  2  0
 14 15  2  0
 16 15  1  0
 17  5  1  0
 17 13  1  0
 18 17  1  0
 19 18  1  0
 20 19  2  0
 21 20  1  0
 22 21  1  0
 22 24  2  0
 23 22  1  0
 25 21  2  0
 25 26  1  0
 26 27  2  0
 27 19  1  0
M  END
>  <DRUGBANK_ID>  (1) 
DB07945

>  <COMMON_NAME>  (1) 
5-(3-carbamoylbenzyl)-5,6,7,8,9,10-hexahydrocyclohepta[b]indole-4-carboxylic acid

$$$$
