
     RDKit          2D

 27 29  0  0  1  0  0  0  0  0999 V2000
   23.3843  -18.8859    0.0000 C   0  0  0  0  0  0  0  0  0  0  0  0
   23.3843  -19.7109    0.0000 C   0  0  0  0  0  0  0  0  0  0  0  0
   24.0988  -20.1234    0.0000 C   0  0  0  0  0  0  0  0  0  0  0  0
   24.8133  -19.7109    0.0000 C   0  0  0  0  0  0  0  0  0  0  0  0
   24.8133  -18.8859    0.0000 C   0  0  0  0  0  0  0  0  0  0  0  0
   24.0988  -18.4733    0.0000 C   0  0  0  0  0  0  0  0  0  0  0  0
   25.5278  -20.1234    0.0000 C   0  0  0  0  0  0  0  0  0  0  0  0
   26.2423  -19.7109    0.0000 C   0  0  0  0  0  0  0  0  0  0  0  0
   26.2423  -18.8859    0.0000 C   0  0  0  0  0  0  0  0  0  0  0  0
   25.5278  -18.4733    0.0000 C   0  0  0  0  0  0  0  0  0  0  0  0
   26.9568  -20.1234    0.0000 N   0  0  0  0  0  0  0  0  0  0  0  0
   27.6712  -19.7109    0.0000 C   0  0  0  0  0  0  0  0  0  0  0  0
   27.6712  -18.8859    0.0000 C   0  0  0  0  0  0  0  0  0  0  0  0
   26.9568  -18.4733    0.0000 C   0  0  0  0  0  0  0  0  0  0  0  0
   24.0988  -17.6485    0.0000 O   0  0  0  0  0  0  0  0  0  0  0  0
   26.9568  -20.9482    0.0000 C   0  0  0  0  0  0  0  0  0  0  0  0
   27.6835  -21.3680    0.0000 C   0  0  0  0  0  0  0  0  0  0  0  0
   28.3943  -20.9578    0.0000 C   0  0  0  0  0  0  0  0  0  0  0  0
   28.3881  -18.4720    0.0000 N   0  0  0  0  0  0  0  0  0  0  0  0
   28.3872  -17.6533    0.0000 S   0  0  0  0  0  0  0  0  0  0  0  0
   29.2006  -17.6470    0.0000 N   0  0  0  0  0  0  0  0  0  0  0  0
   29.6193  -18.3593    0.0000 C   0  0  0  0  0  0  0  0  0  0  0  0
   29.6070  -16.9303    0.0000 C   0  0  0  0  0  0  0  0  0  0  0  0
   30.4378  -16.9238    0.0000 C   0  0  0  0  0  0  0  0  0  0  0  0
   30.4382  -18.3529    0.0000 C   0  0  0  0  0  0  0  0  0  0  0  0
   28.3799  -16.7739    0.0000 O   0  0  0  0  0  0  0  0  0  0  0  0
   27.5587  -17.6392    0.0000 O   0  0  0  0  0  0  0  0  0  0  0  0
  1  2  2  0
  1  6  1  0
  2  3  1  0
  3  4  2  0
  4  5  1  0
  4  7  1  0
  5  6  2  0
  5 10  1  0
  6 15  1  0
  8  7  1  6
  8  9  1  0
  8 11  1  0
  9 10  1  1
  9 14  1  0
 11 12  1  0
 11 16  1  0
 12 13  1  0
 13 14  1  0
 13 19  1  6
 16 17  1  0
 17 18  1  0
 19 20  1  0
 20 21  1  0
 20 26  2  0
 20 27  2  0
 21 22  1  0
 21 23  1  0
 22 25  1  0
 23 24  1  0
M  END
>  <DRUGBANK_ID>  (1) 
DB09097

>  <COMMON_NAME>  (1) 
Quinagolide

>  <CAS_NUMBER>  (1) 
87056-78-8

>  <UNII>  (1) 
80Q9QWN15M

>  <SYNONYMS>  (1) 
(+-)-N,N-Diethyl-N'-((3R*,4aR*,10aS*)-1,2,3,4,4a,5,10,10a-octahydro-6-hydroxy-1-propylbenzo(g)quinolin-3-yl)sulfamide; Quinagolida; Quinagolide; Quinagolidum

$$$$
