ANM
     RDKit          2D

 19 20  0  0  0  0  0  0  0  0999 V2000
   -1.3709   -1.4853    0.0000 C   0  0  0  0  0  0  0  0  0  0  0  0
    1.1358    0.6557    0.0000 C   0  0  0  0  0  0  0  0  0  0  0  0
    1.8032    0.1708    0.0000 C   0  0  0  0  0  0  0  0  0  0  0  0
    1.5483   -0.6139    0.0000 C   0  0  0  0  0  0  0  0  0  0  0  0
    1.8503    1.8932    0.0000 C   0  0  0  0  0  0  0  0  0  0  0  0
    1.8503    2.7182    0.0000 C   0  0  0  0  0  0  0  0  0  0  0  0
   -2.1555   -1.2304    0.0000 C   0  0  0  0  0  0  0  0  0  0  0  0
   -2.3271   -0.4234    0.0000 C   0  0  0  0  0  0  0  0  0  0  0  0
   -1.7140    0.1286    0.0000 C   0  0  0  0  0  0  0  0  0  0  0  0
   -0.9293   -0.1263    0.0000 C   0  0  0  0  0  0  0  0  0  0  0  0
   -0.7578   -0.9333    0.0000 C   0  0  0  0  0  0  0  0  0  0  0  0
   -2.5971   -2.5894    0.0000 C   0  0  0  0  0  0  0  0  0  0  0  0
   -0.3163    0.4257    0.0000 C   0  0  0  0  0  0  0  0  0  0  0  0
    0.4684    0.1708    0.0000 C   0  0  0  0  0  0  0  0  0  0  0  0
    0.7233   -0.6139    0.0000 N   0  0  0  0  0  0  0  0  0  0  0  0
   -2.7686   -1.7824    0.0000 O   0  0  0  0  0  0  0  0  0  0  0  0
    1.1358    1.4807    0.0000 O   0  0  0  0  0  0  0  0  0  0  0  0
    2.5648    1.4807    0.0000 O   0  0  0  0  0  0  0  0  0  0  0  0
    2.5879    0.4257    0.0000 O   0  0  0  0  0  0  0  0  0  0  0  0
  1  7  2  0
  1 11  1  0
  2  3  1  0
  2 14  1  0
  2 17  1  6
  3  4  1  0
  3 19  1  1
  4 15  1  0
  5  6  1  0
  5 17  1  0
  5 18  2  0
  7  8  1  0
  7 16  1  0
  8  9  2  0
  9 10  1  0
 10 11  2  0
 10 13  1  0
 12 16  1  0
 14 13  1  6
 14 15  1  0
M  END
>  <DRUGBANK_ID>  (1) 
DB07374

>  <COMMON_NAME>  (1) 
Anisomycin

>  <CAS_NUMBER>  (1) 
22862-76-6

>  <UNII>  (1) 
6C74YM2NGI

$$$$
