
     RDKit          2D

 25 28  0  0  0  0  0  0  0  0999 V2000
    3.7294   -3.9243    0.0000 C   0  0  0  0  0  0  0  0  0  0  0  0
    3.0147   -3.5121    0.0000 C   0  0  0  0  0  0  0  0  0  0  0  0
    3.7294   -4.7435    0.0000 C   0  0  0  0  0  0  0  0  0  0  0  0
    4.7048   -3.3671    0.0000 C   0  0  0  0  0  0  0  0  0  0  0  0
    3.0147   -5.1557    0.0000 O   0  0  0  0  0  0  0  0  0  0  0  0
    2.3111   -3.9243    0.0000 C   0  0  0  0  0  0  0  0  0  0  0  0
    2.3111   -4.7435    0.0000 C   0  0  0  0  0  0  0  0  0  0  0  0
    4.4440   -5.1613    0.0000 O   0  0  0  0  0  0  0  0  0  0  0  0
    3.0147   -2.6873    0.0000 O   0  0  0  0  0  0  0  0  0  0  0  0
    1.5964   -3.5121    0.0000 C   0  0  0  0  0  0  0  0  0  0  0  0
    1.5964   -5.1557    0.0000 C   0  0  0  0  0  0  0  0  0  0  0  0
    0.8818   -3.9243    0.0000 C   0  0  0  0  0  0  0  0  0  0  0  0
    0.8818   -4.7435    0.0000 C   0  0  0  0  0  0  0  0  0  0  0  0
    5.6802   -3.9243    0.0000 C   0  0  0  0  0  0  0  0  0  0  0  0
    6.3949   -3.5121    0.0000 C   0  0  0  0  0  0  0  0  0  0  0  0
    5.6802   -4.7435    0.0000 C   0  0  0  0  0  0  0  0  0  0  0  0
    6.3949   -5.1557    0.0000 O   0  0  0  0  0  0  0  0  0  0  0  0
    7.0985   -3.9243    0.0000 C   0  0  0  0  0  0  0  0  0  0  0  0
    7.0985   -4.7435    0.0000 C   0  0  0  0  0  0  0  0  0  0  0  0
    4.9655   -5.1613    0.0000 O   0  0  0  0  0  0  0  0  0  0  0  0
    6.3949   -2.6873    0.0000 O   0  0  0  0  0  0  0  0  0  0  0  0
    7.8132   -3.5121    0.0000 C   0  0  0  0  0  0  0  0  0  0  0  0
    7.8132   -5.1557    0.0000 C   0  0  0  0  0  0  0  0  0  0  0  0
    8.5279   -3.9243    0.0000 C   0  0  0  0  0  0  0  0  0  0  0  0
    8.5279   -4.7435    0.0000 C   0  0  0  0  0  0  0  0  0  0  0  0
  2  1  2  0
  3  1  1  0
  4  1  1  0
  4 14  1  0
  5  3  1  0
  6  2  1  0
  7  5  1  0
  7  6  2  0
  8  3  2  0
  9  2  1  0
 10  6  1  0
 11  7  1  0
 12 10  2  0
 13 11  2  0
 13 12  1  0
 15 14  2  0
 16 14  1  0
 17 16  1  0
 18 15  1  0
 19 17  1  0
 19 18  2  0
 20 16  2  0
 21 15  1  0
 22 18  1  0
 23 19  1  0
 24 22  2  0
 25 23  2  0
 25 24  1  0
M  END
>  <DRUGBANK_ID>  (1) 
DB00266

>  <SECONDARY_ACCESSION_NUMBERS>  (1) 
APRD00761

>  <COMMON_NAME>  (1) 
Dicoumarol

>  <CAS_NUMBER>  (1) 
66-76-2

>  <UNII>  (1) 
7QID3E7BG7

>  <SYNONYMS>  (1) 
3,3'-methylen-bis(4-hydroxy-cumarin); 3,3'-methylene-bis(4-hydroxycoumarine); 3,3'-methylenebis(4-hydroxy-1,2-benzopyrone); 3,3'-methylenebis(4-hydroxy-2H-1-benzopyran-2-one); 3,3'-methylenebis(4-hydroxycoumarin); bis-3,3'-(4-hydroxycoumarinyl)methane; bis-hydroxycoumarin; bis(4-hydroxycoumarin-3-yl)methane; di-(4-hydroxy-3-coumarinyl)methane; Dicoumarol; Dicoumarolum; Dicumarol

$$$$
