
     RDKit          2D

 24 25  0  0  0  0  0  0  0  0999 V2000
   -0.8891   -1.1069    0.0000 O   0  0  0  0  0  0  0  0  0  0  0  0
   -0.3591   -0.4747    0.0000 S   0  0  0  0  0  0  0  0  0  0  0  0
    0.1708   -1.1069    0.0000 O   0  0  0  0  0  0  0  0  0  0  0  0
   -1.0712   -0.0593    0.0000 C   0  0  0  0  0  0  0  0  0  0  0  0
    0.3529   -0.0593    0.0000 N   0  0  0  0  0  0  0  0  0  0  0  0
   -1.0712    0.7713    0.0000 C   0  0  0  0  0  0  0  0  0  0  0  0
   -1.7833   -0.4747    0.0000 C   0  0  0  0  0  0  0  0  0  0  0  0
    0.3529    0.7713    0.0000 C   0  0  0  0  0  0  0  0  0  0  0  0
   -0.3591    1.1867    0.0000 N   0  0  0  0  0  0  0  0  0  0  0  0
   -1.7833    1.1867    0.0000 C   0  0  0  0  0  0  0  0  0  0  0  0
   -2.4952   -0.0593    0.0000 C   0  0  0  0  0  0  0  0  0  0  0  0
    1.0670    1.1846    0.0000 C   0  0  0  0  0  0  0  0  0  0  0  0
   -2.4952    0.7713    0.0000 C   0  0  0  0  0  0  0  0  0  0  0  0
   -3.2094   -0.4727    0.0000 S   0  0  0  0  0  0  0  0  0  0  0  0
    1.7812    0.7713    0.0000 S   0  0  0  0  0  0  0  0  0  0  0  0
   -3.2094    1.1846    0.0000 Cl  0  0  0  0  0  0  0  0  0  0  0  0
   -3.9235   -0.0593    0.0000 N   0  0  0  0  0  0  0  0  0  0  0  0
   -3.6228   -1.1867    0.0000 O   0  0  0  0  0  0  0  0  0  0  0  0
   -2.7982   -1.1867    0.0000 O   0  0  0  0  0  0  0  0  0  0  0  0
    2.4952    1.1846    0.0000 C   0  0  0  0  0  0  0  0  0  0  0  0
    3.2093    0.7713    0.0000 C   0  0  0  0  0  0  0  0  0  0  0  0
    3.9235    1.1846    0.0000 F   0  0  0  0  0  0  0  0  0  0  0  0
    3.6227    0.0572    0.0000 F   0  0  0  0  0  0  0  0  0  0  0  0
    2.7981    0.0572    0.0000 F   0  0  0  0  0  0  0  0  0  0  0  0
  1  2  2  0
  2  3  2  0
  2  4  1  0
  2  5  1  0
  4  6  2  0
  4  7  1  0
  6  9  1  0
  6 10  1  0
  7 11  2  0
  8  5  1  0
  8  9  1  0
  8 12  1  0
 10 13  2  0
 11 13  1  0
 11 14  1  0
 12 15  1  0
 13 16  1  0
 14 17  1  0
 14 18  2  0
 14 19  2  0
 15 20  1  0
 20 21  1  0
 21 22  1  0
 21 23  1  0
 21 24  1  0
M  END
>  <DRUGBANK_ID>  (1) 
DB13989

>  <COMMON_NAME>  (1) 
Epitizide

>  <CAS_NUMBER>  (1) 
1764-85-8

>  <UNII>  (1) 
5B266B85J1

>  <SYNONYMS>  (1) 
Epithiazide; Epitizide; Epitizidum; Eptizida

$$$$
