
     RDKit          2D

 33 36  0  0  0  0  0  0  0  0999 V2000
   -4.1699    1.7727    0.0000 C   0  0  0  0  0  0  0  0  0  0  0  0
   -3.4554    1.3602    0.0000 C   0  0  0  0  0  0  0  0  0  0  0  0
   -2.7410    1.7727    0.0000 C   0  0  0  0  0  0  0  0  0  0  0  0
   -2.0265    1.3602    0.0000 C   0  0  0  0  0  0  0  0  0  0  0  0
   -1.3120    1.7727    0.0000 C   0  0  0  0  0  0  0  0  0  0  0  0
   -0.5975    1.3602    0.0000 N   0  0  0  0  0  0  0  0  0  0  0  0
   -0.5975    0.5352    0.0000 C   0  0  0  0  0  0  0  0  0  0  0  0
    0.1168    0.1227    0.0000 N   0  0  0  0  0  0  0  0  0  0  0  0
    0.8313    0.5352    0.0000 C   0  0  0  0  0  0  0  0  0  0  0  0
    0.8313    1.3602    0.0000 C   0  0  0  0  0  0  0  0  0  0  0  0
    1.5458    1.7727    0.0000 C   0  0  0  0  0  0  0  0  0  0  0  0
    2.2602    1.3602    0.0000 C   0  0  0  0  0  0  0  0  0  0  0  0
    2.9747    1.7727    0.0000 C   0  0  0  0  0  0  0  0  0  0  0  0
    3.0610    2.5932    0.0000 N   0  0  0  0  0  0  0  0  0  0  0  0
    3.8679    2.7647    0.0000 N   0  0  0  0  0  0  0  0  0  0  0  0
    4.2804    2.0502    0.0000 C   0  0  0  0  0  0  0  0  0  0  0  0
    3.7284    1.4371    0.0000 N   0  0  0  0  0  0  0  0  0  0  0  0
    3.8999    0.6302    0.0000 C   0  0  0  0  0  0  0  0  0  0  0  0
    2.2602    0.5352    0.0000 C   0  0  0  0  0  0  0  0  0  0  0  0
    1.5458    0.1227    0.0000 C   0  0  0  0  0  0  0  0  0  0  0  0
    1.5458   -0.7022    0.0000 O   0  0  0  0  0  0  0  0  0  0  0  0
    2.2602   -1.1147    0.0000 C   0  0  0  0  0  0  0  0  0  0  0  0
    2.2602   -1.9397    0.0000 C   0  0  0  0  0  0  0  0  0  0  0  0
   -1.3120    0.1227    0.0000 N   0  0  0  0  0  0  0  0  0  0  0  0
   -2.0265    0.5352    0.0000 C   0  0  0  0  0  0  0  0  0  0  0  0
   -2.7410    0.1227    0.0000 C   0  0  0  0  0  0  0  0  0  0  0  0
   -2.7410   -0.7022    0.0000 N   0  0  0  0  0  0  0  0  0  0  0  0
   -3.4554   -1.1147    0.0000 C   0  0  0  0  0  0  0  0  0  0  0  0
   -3.4554   -1.9397    0.0000 C   0  0  0  0  0  0  0  0  0  0  0  0
   -3.4554   -2.7647    0.0000 C   0  0  0  0  0  0  0  0  0  0  0  0
   -4.2804   -1.9397    0.0000 C   0  0  0  0  0  0  0  0  0  0  0  0
   -2.6304   -1.9397    0.0000 C   0  0  0  0  0  0  0  0  0  0  0  0
   -3.4554    0.5352    0.0000 N   0  0  0  0  0  0  0  0  0  0  0  0
  1  2  1  0
  2  3  2  0
  2 33  1  0
  3  4  1  0
  4  5  2  0
  4 25  1  0
  5  6  1  0
  6  7  2  0
  7  8  1  0
  7 24  1  0
  8  9  1  0
  9 10  2  0
  9 20  1  0
 10 11  1  0
 11 12  2  0
 12 13  1  0
 12 19  1  0
 13 14  2  0
 13 17  1  0
 14 15  1  0
 15 16  2  0
 16 17  1  0
 17 18  1  0
 19 20  2  0
 20 21  1  0
 21 22  1  0
 22 23  1  0
 24 25  2  0
 25 26  1  0
 26 27  1  0
 26 33  2  0
 27 28  1  0
 28 29  1  0
 29 30  1  0
 29 31  1  0
 29 32  1  0
M  END
>  <DRUGBANK_ID>  (1) 
DB15498

>  <COMMON_NAME>  (1) 
BOS172722

>  <CAS_NUMBER>  (1) 
1578245-44-9

$$$$
