
     RDKit          2D

 33 34  0  0  0  0  0  0  0  0999 V2000
   -4.5810    0.0825    0.0000 C   0  0  0  0  0  0  0  0  0  0  0  0
   -3.1545    0.0830    0.0000 C   0  0  0  0  0  0  0  0  0  0  0  0
   -3.8664    0.4949    0.0000 C   0  0  0  0  0  0  0  0  0  0  0  0
   -3.1545   -0.7422    0.0000 C   0  0  0  0  0  0  0  0  0  0  0  0
   -4.5810   -0.7459    0.0000 C   0  0  0  0  0  0  0  0  0  0  0  0
   -3.8646   -1.1541    0.0000 C   0  0  0  0  0  0  0  0  0  0  0  0
   -2.4399    0.4954    0.0000 C   0  0  0  0  0  0  0  0  0  0  0  0
   -1.7255    0.0830    0.0000 O   0  0  0  0  0  0  0  0  0  0  0  0
   -1.0110    0.4954    0.0000 C   0  0  0  0  0  0  0  0  0  0  0  0
   -0.2965    0.0830    0.0000 N   0  0  0  0  0  0  0  0  0  0  0  0
    0.4179    0.4954    0.0000 C   0  0  0  0  0  0  0  0  0  0  0  0
    1.1324    0.0830    0.0000 C   0  0  0  0  0  0  0  0  0  0  0  0
    1.8469    0.4954    0.0000 N   0  0  0  0  0  0  0  0  0  0  0  0
    2.5614    0.0830    0.0000 C   0  0  0  0  0  0  0  0  0  0  0  0
    3.2759    0.4954    0.0000 C   0  0  0  0  0  0  0  0  0  0  0  0
    3.9903    0.0830    0.0000 O   0  0  0  0  0  0  0  0  0  0  0  0
   -1.0110    1.3204    0.0000 O   0  0  0  0  0  0  0  0  0  0  0  0
    0.4179    1.3204    0.0000 C   0  0  0  0  0  0  0  0  0  0  0  0
    1.1324    1.7330    0.0000 C   0  0  0  0  0  0  0  0  0  0  0  0
    1.1324    2.5580    0.0000 C   0  0  0  0  0  0  0  0  0  0  0  0
    1.8469    1.3204    0.0000 C   0  0  0  0  0  0  0  0  0  0  0  0
    1.1324   -0.7420    0.0000 O   0  0  0  0  0  0  0  0  0  0  0  0
    2.5614   -0.7420    0.0000 C   0  0  0  0  0  0  0  0  0  0  0  0
    3.2759   -1.1546    0.0000 C   0  0  0  0  0  0  0  0  0  0  0  0
    4.0292   -0.8191    0.0000 C   0  0  0  0  0  0  0  0  0  0  0  0
    4.5810   -1.4320    0.0000 C   0  0  0  0  0  0  0  0  0  0  0  0
    4.1687   -2.1460    0.0000 N   0  0  0  0  0  0  0  0  0  0  0  0
    3.3621   -1.9746    0.0000 C   0  0  0  0  0  0  0  0  0  0  0  0
    2.7786   -2.5580    0.0000 O   0  0  0  0  0  0  0  0  0  0  0  0
    3.2759    1.3204    0.0000 S   0  0  0  0  0  0  0  0  0  0  0  0
    2.6925    1.9038    0.0000 O   0  0  0  0  0  0  0  0  0  0  0  0
    3.4894    2.1173    0.0000 O   0  0  0  0  0  0  0  0  0  0  0  0
    4.0728    1.5341    0.0000 O   0  0  0  0  0  0  0  0  0  0  0  0
  1  5  2  0
  2  3  2  0
  2  7  1  0
  3  1  1  0
  4  2  1  0
  5  6  1  0
  6  4  2  0
  7  8  1  0
  8  9  1  0
  9 10  1  0
  9 17  2  0
 10 11  1  0
 11 12  1  0
 11 18  1  1
 12 13  1  0
 12 22  2  0
 13 14  1  0
 14 15  1  0
 14 23  1  6
 15 16  1  0
 15 30  1  0
 18 19  1  0
 19 20  1  0
 19 21  1  0
 23 24  1  0
 24 25  1  0
 25 26  1  0
 26 27  1  0
 27 28  1  0
 28 24  1  0
 28 29  2  0
 30 31  2  0
 30 32  2  0
 30 33  1  0
M  END
>  <DRUGBANK_ID>  (1) 
DB15796

>  <COMMON_NAME>  (1) 
GC-376 free acid

>  <CAS_NUMBER>  (1) 
1417031-79-8

>  <UNII>  (1) 
O9H5KY11SV

$$$$
