
     RDKit          2D

 10 10  0  0  0  0  0  0  0  0999 V2000
    2.1434    1.2375    0.0000 N   0  0  0  0  0  0  0  0  0  0  0  0
    1.4289    0.8250    0.0000 C   0  0  0  0  0  0  0  0  0  0  0  0
    1.4289    0.0000    0.0000 C   0  0  0  0  0  0  0  0  0  0  0  0
    0.7145   -0.4125    0.0000 C   0  0  0  0  0  0  0  0  0  0  0  0
    0.0000    0.0000    0.0000 C   0  0  0  0  0  0  0  0  0  0  0  0
    0.0000    0.8250    0.0000 C   0  0  0  0  0  0  0  0  0  0  0  0
    0.7145    1.2375    0.0000 C   0  0  0  0  0  0  0  0  0  0  0  0
    0.7145    2.0625    0.0000 C   0  0  0  0  0  0  0  0  0  0  0  0
    0.0000    2.4750    0.0000 O   0  0  0  0  0  0  0  0  0  0  0  0
    1.4289    2.4750    0.0000 O   0  0  0  0  0  0  0  0  0  0  0  0
  1  2  1  0
  2  3  2  0
  2  7  1  0
  3  4  1  0
  4  5  2  0
  5  6  1  0
  6  7  2  0
  7  8  1  0
  8  9  1  0
  8 10  2  0
M  END
>  <DRUGBANK_ID>  (1) 
DB04166

>  <SECONDARY_ACCESSION_NUMBERS>  (1) 
EXPT00283; EXPT00656; DB04056

>  <COMMON_NAME>  (1) 
Anthranilic acid

>  <CAS_NUMBER>  (1) 
118-92-3

>  <UNII>  (1) 
0YS975XI6W

>  <SYNONYMS>  (1) 
2-Aminobenzoesäure; 2-aminobenzoic acid; 2-carboxyaniline; o-Aminobenzoesäure; o-Aminobenzoic acid; o-carboxyaniline; Vitamin L1

$$$$
