
     RDKit          2D

 38 44  0  0  0  0  0  0  0  0999 V2000
    4.4965    3.5410    0.0000 C   0  0  0  0  0  0  0  0  0  0  0  0
    3.8658    3.0093    0.0000 C   0  0  0  0  0  0  0  0  0  0  0  0
    3.0899    3.2897    0.0000 C   0  0  0  0  0  0  0  0  0  0  0  0
    2.9447    4.1018    0.0000 N   0  0  0  0  0  0  0  0  0  0  0  0
    3.5755    4.6335    0.0000 C   0  0  0  0  0  0  0  0  0  0  0  0
    4.3514    4.3532    0.0000 C   0  0  0  0  0  0  0  0  0  0  0  0
    3.2647    5.3978    0.0000 N   0  0  0  0  0  0  0  0  0  0  0  0
    2.4418    5.3383    0.0000 C   0  0  0  0  0  0  0  0  0  0  0  0
    2.2441    4.5374    0.0000 C   0  0  0  0  0  0  0  0  0  0  0  0
    1.4799    4.2265    0.0000 C   0  0  0  0  0  0  0  0  0  0  0  0
    1.2821    3.4256    0.0000 C   0  0  0  0  0  0  0  0  0  0  0  0
    0.4593    3.3661    0.0000 C   0  0  0  0  0  0  0  0  0  0  0  0
    0.0237    2.6655    0.0000 O   0  0  0  0  0  0  0  0  0  0  0  0
    0.1485    4.1304    0.0000 N   0  0  0  0  0  0  0  0  0  0  0  0
    0.7792    4.6621    0.0000 C   0  0  0  0  0  0  0  0  0  0  0  0
    0.7198    5.4850    0.0000 O   0  0  0  0  0  0  0  0  0  0  0  0
    1.8139    2.7948    0.0000 C   0  0  0  0  0  0  0  0  0  0  0  0
    2.6367    2.8543    0.0000 C   0  0  0  0  0  0  0  0  0  0  0  0
    2.9476    2.0901    0.0000 N   0  0  0  0  0  0  0  0  0  0  0  0
    2.3168    1.5583    0.0000 C   0  0  0  0  0  0  0  0  0  0  0  0
    1.6162    1.9939    0.0000 C   0  0  0  0  0  0  0  0  0  0  0  0
    0.8886    1.6049    0.0000 C   0  0  0  0  0  0  0  0  0  0  0  0
    0.8617    0.7803    0.0000 C   0  0  0  0  0  0  0  0  0  0  0  0
    1.5624    0.3448    0.0000 C   0  0  0  0  0  0  0  0  0  0  0  0
    2.3393    0.7336    0.0000 C   0  0  0  0  0  0  0  0  0  0  0  0
    2.9981    0.2370    0.0000 C   0  0  0  0  0  0  0  0  0  0  0  0
    3.7971    0.4424    0.0000 N   0  0  0  0  0  0  0  0  0  0  0  0
    4.1346    1.1952    0.0000 C   0  0  0  0  0  0  0  0  0  0  0  0
    3.7566    1.9285    0.0000 C   0  0  0  0  0  0  0  0  0  0  0  0
    4.3288   -0.1883    0.0000 C   0  0  0  0  0  0  0  0  0  0  0  0
    5.1410   -0.0432    0.0000 O   0  0  0  0  0  0  0  0  0  0  0  0
    4.0484   -0.9642    0.0000 N   0  0  0  0  0  0  0  0  0  0  0  0
    4.5802   -1.5950    0.0000 C   0  0  0  0  0  0  0  0  0  0  0  0
    4.2998   -2.3709    0.0000 C   0  0  0  0  0  0  0  0  0  0  0  0
    3.4877   -2.5160    0.0000 C   0  0  0  0  0  0  0  0  0  0  0  0
    2.9559   -1.8853    0.0000 C   0  0  0  0  0  0  0  0  0  0  0  0
    3.2363   -1.1094    0.0000 C   0  0  0  0  0  0  0  0  0  0  0  0
    0.1342    0.3913    0.0000 F   0  0  0  0  0  0  0  0  0  0  0  0
  1  2  1  0
  1  6  2  0
  2  3  2  0
  3  4  1  0
  4  5  1  0
  4  9  1  0
  5  6  1  0
  5  7  2  0
  7  8  1  0
  8  9  2  0
  9 10  1  0
 10 11  2  0
 10 15  1  0
 11 12  1  0
 11 17  1  0
 12 13  2  0
 12 14  1  0
 14 15  1  0
 15 16  2  0
 17 18  2  0
 17 21  1  0
 18 19  1  0
 19 20  1  0
 19 29  1  0
 20 21  2  0
 20 25  1  0
 21 22  1  0
 22 23  2  0
 23 24  1  0
 23 38  1  0
 24 25  2  0
 25 26  1  0
 26 27  1  0
 27 28  1  0
 27 30  1  0
 28 29  1  0
 30 31  2  0
 30 32  1  0
 32 33  1  0
 32 37  1  0
 33 34  1  0
 34 35  1  0
 35 36  1  0
 36 37  1  0
M  END
>  <DRUGBANK_ID>  (1) 
DB11913

>  <COMMON_NAME>  (1) 
LY-2090314

>  <CAS_NUMBER>  (1) 
603288-22-8

>  <UNII>  (1) 
822M3GYM67

$$$$
