GB5
     RDKit          2D

 13 13  0  0  0  0  0  0  0  0999 V2000
    2.2375    0.8469    0.0000 O   0  0  0  0  0  0  0  0  0  0  0  0
    2.2375    0.0219    0.0000 C   0  0  0  0  0  0  0  0  0  0  0  0
    2.9520   -0.3906    0.0000 N   0  0  0  0  0  0  0  0  0  0  0  0
    3.6665    0.0219    0.0000 O   0  0  0  0  0  0  0  0  0  0  0  0
    1.5231   -0.3906    0.0000 C   0  0  0  0  0  0  0  0  0  0  0  0
    0.8086    0.0219    0.0000 C   0  0  0  0  0  0  0  0  0  0  0  0
    0.0941   -0.3906    0.0000 C   0  0  0  0  0  0  0  0  0  0  0  0
   -0.6203    0.0219    0.0000 C   0  0  0  0  0  0  0  0  0  0  0  0
   -1.3348   -0.3906    0.0000 C   0  0  0  0  0  0  0  0  0  0  0  0
   -1.3348   -1.2156    0.0000 C   0  0  0  0  0  0  0  0  0  0  0  0
   -2.0493   -1.6281    0.0000 Cl  0  0  0  0  0  0  0  0  0  0  0  0
   -0.6203   -1.6281    0.0000 C   0  0  0  0  0  0  0  0  0  0  0  0
    0.0941   -1.2156    0.0000 C   0  0  0  0  0  0  0  0  0  0  0  0
  1  2  2  0
  2  5  1  0
  2  3  1  0
  3  4  1  0
  5  6  2  0
  6  7  1  0
  7 13  2  0
  7  8  1  0
  8  9  2  0
  9 10  1  0
 10 12  2  0
 10 11  1  0
 12 13  1  0
M  END
>  <DRUGBANK_ID>  (1) 
DB07819

>  <COMMON_NAME>  (1) 
(2E)-3-(4-CHLOROPHENYL)-N-HYDROXYACRYLAMIDE

$$$$
