FMD
     RDKit          2D

 28 30  0  0  0  0  0  0  0  0999 V2000
    2.4382    1.3857    0.0000 F   0  0  0  0  0  0  0  0  0  0  0  0
    1.7238    1.7982    0.0000 C   0  0  0  0  0  0  0  0  0  0  0  0
    1.0093    1.3857    0.0000 C   0  0  0  0  0  0  0  0  0  0  0  0
    1.0093    0.5607    0.0000 C   0  0  0  0  0  0  0  0  0  0  0  0
    1.0093   -0.2643    0.0000 C   0  0  0  0  0  0  0  0  0  0  0  0
    1.0093   -1.0893    0.0000 C   0  0  0  0  0  0  0  0  0  0  0  0
    0.2948   -1.5018    0.0000 O   0  0  0  0  0  0  0  0  0  0  0  0
    1.7238   -1.5018    0.0000 C   0  0  0  0  0  0  0  0  0  0  0  0
    2.4382   -1.0893    0.0000 N   0  0  0  0  0  0  0  0  0  0  0  0
    1.7238   -2.3268    0.0000 C   0  0  0  0  0  0  0  0  0  0  0  0
    2.4382   -2.7393    0.0000 O   0  0  0  0  0  0  0  0  0  0  0  0
    1.0093   -2.7393    0.0000 C   0  0  0  0  0  0  0  0  0  0  0  0
    0.2948    1.7982    0.0000 C   0  0  0  0  0  0  0  0  0  0  0  0
    0.2948    2.6232    0.0000 C   0  0  0  0  0  0  0  0  0  0  0  0
   -0.4898    2.8781    0.0000 N   0  0  0  0  0  0  0  0  0  0  0  0
   -0.9747    2.2107    0.0000 C   0  0  0  0  0  0  0  0  0  0  0  0
   -1.7997    2.2107    0.0000 O   0  0  0  0  0  0  0  0  0  0  0  0
    1.0093    3.0357    0.0000 C   0  0  0  0  0  0  0  0  0  0  0  0
    1.7238    2.6232    0.0000 C   0  0  0  0  0  0  0  0  0  0  0  0
   -0.4898    1.5432    0.0000 C   0  0  0  0  0  0  0  0  0  0  0  0
   -0.7447    0.7586    0.0000 C   0  0  0  0  0  0  0  0  0  0  0  0
   -1.5517    0.5871    0.0000 C   0  0  0  0  0  0  0  0  0  0  0  0
   -1.8873   -0.1666    0.0000 C   0  0  0  0  0  0  0  0  0  0  0  0
   -1.4748   -0.8811    0.0000 O   0  0  0  0  0  0  0  0  0  0  0  0
   -0.6498   -0.8811    0.0000 C   0  0  0  0  0  0  0  0  0  0  0  0
   -2.7077   -0.0804    0.0000 C   0  0  0  0  0  0  0  0  0  0  0  0
   -2.8793    0.7266    0.0000 C   0  0  0  0  0  0  0  0  0  0  0  0
   -2.1648    1.1391    0.0000 N   0  0  0  0  0  0  0  0  0  0  0  0
  1  2  1  0
  2  3  2  0
  2 19  1  0
  3  4  1  0
  3 13  1  0
  4  5  3  0
  5  6  1  0
  6  7  1  6
  6  8  1  0
  8  9  1  1
  8 10  1  0
 10 11  1  0
 10 12  1  6
 13 14  2  0
 13 20  1  0
 14 15  1  0
 14 18  1  0
 15 16  1  0
 16 17  2  0
 16 20  1  0
 18 19  2  0
 20 21  2  0
 21 22  1  0
 22 23  2  0
 22 28  1  0
 23 24  1  0
 23 26  1  0
 24 25  1  0
 26 27  2  0
 27 28  1  0
M  END
>  <DRUGBANK_ID>  (1) 
DB03737

>  <SECONDARY_ACCESSION_NUMBERS>  (1) 
EXPT01454

>  <COMMON_NAME>  (1) 
4-((3r,4s,5r)-4-Amino-3,5-Dihydroxy-Hex-1-Ynyl)-5-Fluoro-3-[1-(3-Methoxy-1h-Pyrrol-2-Yl)-Meth-(Z)-Ylidene]-1,3-Dihydro-Indol-2-One

$$$$
