
     RDKit          2D

 20 21  0  0  0  0  0  0  0  0999 V2000
   -1.2958    2.7463    0.0000 C   0  0  0  0  0  0  0  0  0  0  0  0
   -2.1028    2.9178    0.0000 C   0  0  0  0  0  0  0  0  0  0  0  0
   -2.6548    2.3046    0.0000 C   0  0  0  0  0  0  0  0  0  0  0  0
   -2.3999    1.5199    0.0000 C   0  0  0  0  0  0  0  0  0  0  0  0
   -1.5928    1.3485    0.0000 C   0  0  0  0  0  0  0  0  0  0  0  0
   -1.0408    1.9616    0.0000 C   0  0  0  0  0  0  0  0  0  0  0  0
    0.3181    2.4031    0.0000 O   0  0  0  0  0  0  0  0  0  0  0  0
   -0.2338    1.7901    0.0000 C   0  0  0  0  0  0  0  0  0  0  0  0
   -0.2759   -0.3923    0.0000 C   0  0  0  0  0  0  0  0  0  0  0  0
   -0.5308    0.3922    0.0000 C   0  0  0  0  0  0  0  0  0  0  0  0
    0.0211    1.0054    0.0000 C   0  0  0  0  0  0  0  0  0  0  0  0
    0.8281    0.8339    0.0000 C   0  0  0  0  0  0  0  0  0  0  0  0
    1.0830    0.0492    0.0000 C   0  0  0  0  0  0  0  0  0  0  0  0
    0.5309   -0.5638    0.0000 C   0  0  0  0  0  0  0  0  0  0  0  0
    0.7860   -1.3485    0.0000 C   0  0  0  0  0  0  0  0  0  0  0  0
    2.1450   -0.9069    0.0000 N   0  0  0  0  0  0  0  0  0  0  0  0
    1.5929   -1.5200    0.0000 C   0  0  0  0  0  0  0  0  0  0  0  0
    1.2958   -2.9178    0.0000 O   0  0  0  0  0  0  0  0  0  0  0  0
    1.8479   -2.3047    0.0000 C   0  0  0  0  0  0  0  0  0  0  0  0
    2.6548   -2.4762    0.0000 O   0  0  0  0  0  0  0  0  0  0  0  0
  1  2  2  0
  2  3  1  0
  4  3  2  0
  5  4  1  0
  6  1  1  0
  6  5  2  0
  8  6  1  0
  8  7  2  0
  9 10  2  0
 10 11  1  0
 11  8  1  0
 12 11  2  0
 13 12  1  0
 14  9  1  0
 14 13  2  0
 15 14  1  0
 17 15  1  0
 17 16  1  6
 19 17  1  0
 19 18  2  0
 20 19  1  0
M  END
>  <DRUGBANK_ID>  (1) 
DB08371

>  <COMMON_NAME>  (1) 
p-Benzoyl-L-phenylalanine

>  <CAS_NUMBER>  (1) 
104504-45-2

>  <UNII>  (1) 
9RU6KQ9WYD

>  <SYNONYMS>  (1) 
4-Benzoyl-L-phenylalanine; Para-(benzoyl)-phenylalanine

$$$$
