444703
     RDKit          2D

 20 23  0  0  1  0  0  0  0  0999 V2000
    4.5933    0.5604    0.0000 S   0  0  0  0  0  0  0  0  0  0  0  0
    3.5644   -2.0398    0.0000 O   0  0  0  0  0  0  0  0  0  0  0  0
    4.2059   -0.7170    0.0000 N   0  0  0  0  0  0  0  0  0  0  0  0
    3.9356    0.0625    0.0000 C   0  0  0  0  0  0  0  0  0  0  0  0
    3.1107    0.0462    0.0000 C   0  0  0  0  0  0  0  0  0  0  0  0
    5.0308   -0.7007    0.0000 C   0  0  0  0  0  0  0  0  0  0  0  0
    5.2702    0.0888    0.0000 C   0  0  0  0  0  0  0  0  0  0  0  0
    3.6652    0.8419    0.0000 C   0  0  0  0  0  0  0  0  0  0  0  0
    2.8713   -0.7433    0.0000 C   0  0  0  0  0  0  0  0  0  0  0  0
    3.5482   -1.2150    0.0000 C   0  0  0  0  0  0  0  0  0  0  0  0
    2.5467    0.6483    0.0000 C   0  0  0  0  0  0  0  0  0  0  0  0
    2.8550    0.9975    0.0000 C   0  0  0  0  0  0  0  0  0  0  0  0
    2.0679   -0.9307    0.0000 C   0  0  0  0  0  0  0  0  0  0  0  0
    4.2051    1.4658    0.0000 C   0  0  0  0  0  0  0  0  0  0  0  0
    1.7433    0.4609    0.0000 C   0  0  0  0  0  0  0  0  0  0  0  0
    2.5847    1.7769    0.0000 C   0  0  0  0  0  0  0  0  0  0  0  0
    1.5039   -0.3286    0.0000 C   0  0  0  0  0  0  0  0  0  0  0  0
    3.9347    2.2452    0.0000 C   0  0  0  0  0  0  0  0  0  0  0  0
    3.1245    2.4008    0.0000 C   0  0  0  0  0  0  0  0  0  0  0  0
    1.7745    1.9325    0.0000 C   0  0  0  0  0  0  0  0  0  0  0  0
  1  4  1  0
  1  7  1  0
  2 10  2  0
  3  4  1  0
  3  6  1  0
  3 10  1  0
  4  5  1  0
  4  8  1  6
  5  9  2  0
  5 11  1  0
  6  7  1  0
  8 12  2  0
  8 14  1  0
  9 10  1  0
  9 13  1  0
 11 15  2  0
 12 16  1  0
 13 17  2  0
 14 18  2  0
 15 17  1  0
 16 19  2  0
 16 20  1  0
 18 19  1  0
M  END
>  <DRUGBANK_ID>  (1) 
DB07472

>  <COMMON_NAME>  (1) 
(R)-(+)9B-(3-METHYL)PHENYL-2,3-DIHYDROTHIAZOLO[2,3-A]ISOINDOL-5(9BH)-ONE

$$$$
