
     RDKit          2D

 22 21  0  0  0  0  0  0  0  0999 V2000
    3.5725    0.4124    0.0000 C   0  0  0  0  0  0  0  0  0  0  0  0
    2.8580    0.0000    0.0000 C   0  0  0  0  0  0  0  0  0  0  0  0
    2.1435    0.4124    0.0000 C   0  0  0  0  0  0  0  0  0  0  0  0
    1.4289    0.0000    0.0000 C   0  0  0  0  0  0  0  0  0  0  0  0
    0.7145    0.4124    0.0000 C   0  0  0  0  0  0  0  0  0  0  0  0
    0.0000    0.0000    0.0000 C   0  0  0  0  0  0  0  0  0  0  0  0
   -0.7145    0.4124    0.0000 C   0  0  0  0  0  0  0  0  0  0  0  0
   -1.4289    0.0000    0.0000 C   0  0  0  0  0  0  0  0  0  0  0  0
   -2.1435    0.4124    0.0000 C   0  0  0  0  0  0  0  0  0  0  0  0
   -2.8580    0.0000    0.0000 C   0  0  0  0  0  0  0  0  0  0  0  0
    4.2870    0.0000    0.0000 O   0  0  0  0  0  0  0  0  0  0  0  0
   -3.5725    0.4124    0.0000 C   0  0  0  0  0  0  0  0  0  0  0  0
   -4.2870    0.0000    0.0000 C   0  0  0  0  0  0  0  0  0  0  0  0
    3.5725    1.2374    0.0000 O   0  0  0  0  0  0  0  0  0  0  0  0
   -4.2870   -0.8250    0.0000 C   0  0  0  0  0  0  0  0  0  0  0  0
   -3.5724   -1.2374    0.0000 C   0  0  0  0  0  0  0  0  0  0  0  0
   -2.8580   -0.8247    0.0000 C   0  0  0  0  0  0  0  0  0  0  0  0
   -2.1434   -1.2371    0.0000 C   0  0  0  0  0  0  0  0  0  0  0  0
   -1.4290   -0.8244    0.0000 C   0  0  0  0  0  0  0  0  0  0  0  0
   -0.7144   -1.2368    0.0000 C   0  0  0  0  0  0  0  0  0  0  0  0
    0.0000   -0.8241    0.0000 C   0  0  0  0  0  0  0  0  0  0  0  0
    0.7146   -1.2365    0.0000 C   0  0  0  0  0  0  0  0  0  0  0  0
  1 14  2  0
  1  2  1  0
  1 11  1  0
  2  3  1  0
  3  4  1  0
  4  5  1  0
  5  6  1  0
  6  7  1  0
  7  8  1  0
  8  9  1  0
  9 10  1  0
 12 10  1  0
 13 12  2  0
 15 13  1  0
 16 15  1  0
 17 16  1  0
 18 17  1  0
 19 18  1  0
 20 19  1  0
 21 20  1  0
 22 21  1  0
M  END
>  <DRUGBANK_ID>  (1) 
DB14073

>  <COMMON_NAME>  (1) 
Gondoic acid

>  <CAS_NUMBER>  (1) 
5561-99-9

>  <UNII>  (1) 
UDX6WPL94T

>  <SYNONYMS>  (1) 
(11Z)-Eicosenoic acid; (11Z)-Icosenoic acid; (Z)-eicos-11-enoic acid; (Z)-icos-11-enoic acid; (Z)-Icosa-11-enoic acid; 11-Eicosenoic acid; 11-Icosenoic acid; cis-11-eicosenoic acid; cis-gondoic acid; cis-Î”11-eicosenoic acid; Eicosenoic acid

$$$$
