VXX
     RDKit          2D

 13 13  0  0  0  0  0  0  0  0999 V2000
    2.0879   -0.5069    0.0000 C   0  0  0  0  0  0  0  0  0  0  0  0
    2.0879   -1.3319    0.0000 C   0  0  0  0  0  0  0  0  0  0  0  0
    1.3735   -0.0944    0.0000 C   0  0  0  0  0  0  0  0  0  0  0  0
    1.3735   -1.7444    0.0000 C   0  0  0  0  0  0  0  0  0  0  0  0
    0.6590   -0.5069    0.0000 C   0  0  0  0  0  0  0  0  0  0  0  0
   -0.0555   -0.0944    0.0000 O   0  0  0  0  0  0  0  0  0  0  0  0
    0.6590   -1.3319    0.0000 C   0  0  0  0  0  0  0  0  0  0  0  0
    2.8024   -0.0944    0.0000 C   0  0  0  0  0  0  0  0  0  0  0  0
   -0.7699   -0.5069    0.0000 C   0  0  0  0  0  0  0  0  0  0  0  0
    2.8024    0.7306    0.0000 O   0  0  0  0  0  0  0  0  0  0  0  0
    3.5169   -0.5069    0.0000 O   0  0  0  0  0  0  0  0  0  0  0  0
   -0.0555   -1.7444    0.0000 O   0  0  0  0  0  0  0  0  0  0  0  0
    4.2313   -0.0944    0.0000 C   0  0  0  0  0  0  0  0  0  0  0  0
  1  2  2  0
  1  3  1  0
  1  8  1  0
  2  4  1  0
  3  5  2  0
  4  7  2  0
  5  6  1  0
  5  7  1  0
  6  9  1  0
  7 12  1  0
  8 10  2  0
  8 11  1  0
 11 13  1  0
M  END
>  <DRUGBANK_ID>  (1) 
DB08711

>  <COMMON_NAME>  (1) 
Methyl vanillate

>  <CAS_NUMBER>  (1) 
3943-74-6

>  <UNII>  (1) 
2HXG8QSO3D

>  <SYNONYMS>  (1) 
4-hydroxy-3-methoxy methyl benzoate; 4-hydroxy-3-methoxybenzoic acid methyl ester; Methyl 3-methoxy-4-hydroxybenzoate; Methyl 4-hydroxy-3-methoxybenzoate; Vanillic acid, methyl ester

$$$$
