
     RDKit          2D

 35 38  0  0  0  0  0  0  0  0999 V2000
   -1.3222   -0.0616    0.0000 N   0  0  0  0  0  0  0  0  0  0  0  0
   -2.0367   -0.4741    0.0000 C   0  0  0  0  0  0  0  0  0  0  0  0
   -2.0367   -1.2991    0.0000 N   0  0  0  0  0  0  0  0  0  0  0  0
   -2.7512   -1.7116    0.0000 C   0  0  0  0  0  0  0  0  0  0  0  0
   -2.7512   -2.5366    0.0000 S   0  0  0  0  0  0  0  0  0  0  0  0
   -2.0367   -2.9491    0.0000 C   0  0  0  0  0  0  0  0  0  0  0  0
   -2.0367   -3.7741    0.0000 C   0  0  0  0  0  0  0  0  0  0  0  0
   -1.3693   -4.2590    0.0000 C   0  0  0  0  0  0  0  0  0  0  0  0
   -1.6242   -5.0437    0.0000 S   0  0  0  0  0  0  0  0  0  0  0  0
   -2.4492   -5.0437    0.0000 C   0  0  0  0  0  0  0  0  0  0  0  0
   -2.7041   -4.2590    0.0000 N   0  0  0  0  0  0  0  0  0  0  0  0
   -2.9341   -5.7111    0.0000 C   0  0  0  0  0  0  0  0  0  0  0  0
   -2.5986   -6.4648    0.0000 C   0  0  0  0  0  0  0  0  0  0  0  0
   -3.0835   -7.1322    0.0000 C   0  0  0  0  0  0  0  0  0  0  0  0
   -3.9040   -7.0460    0.0000 C   0  0  0  0  0  0  0  0  0  0  0  0
   -4.3889   -7.7134    0.0000 Cl  0  0  0  0  0  0  0  0  0  0  0  0
   -4.2395   -6.2923    0.0000 C   0  0  0  0  0  0  0  0  0  0  0  0
   -3.7546   -5.6249    0.0000 C   0  0  0  0  0  0  0  0  0  0  0  0
   -3.4656   -1.2991    0.0000 C   0  0  0  0  0  0  0  0  0  0  0  0
   -4.1801   -1.7116    0.0000 C   0  0  0  0  0  0  0  0  0  0  0  0
   -4.8946   -2.1241    0.0000 N   0  0  0  0  0  0  0  0  0  0  0  0
   -3.4656   -0.4741    0.0000 C   0  0  0  0  0  0  0  0  0  0  0  0
   -4.1801   -0.0616    0.0000 C   0  0  0  0  0  0  0  0  0  0  0  0
   -4.8946   -0.4741    0.0000 C   0  0  0  0  0  0  0  0  0  0  0  0
   -5.6091   -0.0616    0.0000 C   0  0  0  0  0  0  0  0  0  0  0  0
   -5.6091    0.7634    0.0000 C   0  0  0  0  0  0  0  0  0  0  0  0
   -6.3235    1.1759    0.0000 O   0  0  0  0  0  0  0  0  0  0  0  0
   -7.0380    0.7634    0.0000 C   0  0  0  0  0  0  0  0  0  0  0  0
   -7.7525    1.1759    0.0000 C   0  0  0  0  0  0  0  0  0  0  0  0
   -7.7525    2.0009    0.0000 O   0  0  0  0  0  0  0  0  0  0  0  0
   -4.8946    1.1759    0.0000 C   0  0  0  0  0  0  0  0  0  0  0  0
   -4.1801    0.7634    0.0000 C   0  0  0  0  0  0  0  0  0  0  0  0
   -2.7512   -0.0616    0.0000 C   0  0  0  0  0  0  0  0  0  0  0  0
   -2.7512    0.7634    0.0000 C   0  0  0  0  0  0  0  0  0  0  0  0
   -2.7512    1.5884    0.0000 N   0  0  0  0  0  0  0  0  0  0  0  0
  1  2  1  0
  2  3  2  0
  2 33  1  0
  3  4  1  0
  4  5  1  0
  4 19  2  0
  5  6  1  0
  6  7  1  0
  7  8  2  0
  7 11  1  0
  8  9  1  0
  9 10  1  0
 10 11  2  0
 10 12  1  0
 12 13  2  0
 12 18  1  0
 13 14  1  0
 14 15  2  0
 15 16  1  0
 15 17  1  0
 17 18  2  0
 19 20  1  0
 19 22  1  0
 20 21  3  0
 22 23  1  0
 22 33  2  0
 23 24  2  0
 23 32  1  0
 24 25  1  0
 25 26  2  0
 26 27  1  0
 26 31  1  0
 27 28  1  0
 28 29  1  0
 29 30  1  0
 31 32  2  0
 33 34  1  0
 34 35  3  0
M  END
>  <DRUGBANK_ID>  (1) 
DB16118

>  <COMMON_NAME>  (1) 
Capadenoson

>  <CAS_NUMBER>  (1) 
544417-40-5

>  <UNII>  (1) 
O519NVW73R

>  <SYNONYMS>  (1) 
Capadenoson

$$$$
