
     RDKit          2D

 25 27  0  0  0  0  0  0  0  0999 V2000
   -1.0240   -0.6171    0.0000 C   0  0  0  0  0  0  0  0  0  0  0  0
   -0.3096   -1.0297    0.0000 C   0  0  0  0  0  0  0  0  0  0  0  0
    0.4033    0.2132    0.0000 C   0  0  0  0  0  0  0  0  0  0  0  0
    0.4021   -0.6192    0.0000 C   0  0  0  0  0  0  0  0  0  0  0  0
    1.1185   -1.0342    0.0000 F   0  0  0  0  0  0  0  0  0  0  0  0
    1.1209    0.6307    0.0000 N   0  0  0  0  0  0  0  0  0  0  0  0
    1.8419    0.2111    0.0000 C   0  0  0  0  0  0  0  0  0  0  0  0
    1.8406   -0.6171    0.0000 C   0  0  0  0  0  0  0  0  0  0  0  0
    2.5562   -1.0306    0.0000 C   0  0  0  0  0  0  0  0  0  0  0  0
    3.2736   -0.6169    0.0000 C   0  0  0  0  0  0  0  0  0  0  0  0
    3.2708    0.2145    0.0000 C   0  0  0  0  0  0  0  0  0  0  0  0
    2.5547    0.6242    0.0000 C   0  0  0  0  0  0  0  0  0  0  0  0
   -1.0228    0.2095    0.0000 C   0  0  0  0  0  0  0  0  0  0  0  0
   -0.3100    0.6202    0.0000 C   0  0  0  0  0  0  0  0  0  0  0  0
   -0.3093    1.4383    0.0000 C   0  0  0  0  0  0  0  0  0  0  0  0
   -1.0197    1.8519    0.0000 N   0  0  0  0  0  0  0  0  0  0  0  0
   -1.7324    1.4413    0.0000 O   0  0  0  0  0  0  0  0  0  0  0  0
    0.4055    1.8489    0.0000 O   0  0  0  0  0  0  0  0  0  0  0  0
   -2.4460    1.8541    0.0000 C   0  0  0  0  0  0  0  0  0  0  0  0
   -3.1604    1.4426    0.0000 C   0  0  0  0  0  0  0  0  0  0  0  0
   -3.9881    1.4439    0.0000 C   0  0  0  0  0  0  0  0  0  0  0  0
   -3.5765    0.7295    0.0000 C   0  0  0  0  0  0  0  0  0  0  0  0
   -0.3099   -1.8541    0.0000 F   0  0  0  0  0  0  0  0  0  0  0  0
    3.9881   -1.0281    0.0000 I   0  0  0  0  0  0  0  0  0  0  0  0
    2.5523    1.4487    0.0000 Cl  0  0  0  0  0  0  0  0  0  0  0  0
  1  2  2  0
  2 23  1  0
  2  4  1  0
  3  6  1  0
  3 14  1  0
  3  4  2  0
  4  5  1  0
  7  6  1  0
  7  8  2  0
  8  9  1  0
  9 10  2  0
 10 11  1  0
 10 24  1  0
 11 12  2  0
 12  7  1  0
 12 25  1  0
 13 14  2  0
 13  1  1  0
 14 15  1  0
 15 16  1  0
 15 18  2  0
 16 17  1  0
 17 19  1  0
 19 20  1  0
 20 22  1  0
 21 20  1  0
 22 21  1  0
M  END
>  <DRUGBANK_ID>  (1) 
DB12429

>  <COMMON_NAME>  (1) 
CI-1040

>  <CAS_NUMBER>  (1) 
212631-79-3

>  <UNII>  (1) 
R3K9Y00J04

$$$$
