
     RDKit          2D

 10  9  0  0  1  0  0  0  0  0999 V2000
   -0.7145    0.4125    0.0000 C   0  0  0  0  0  0  0  0  0  0  0  0
    1.4289    0.0000    0.0000 C   0  0  0  0  0  0  0  0  0  0  0  0
    0.7145    0.4125    0.0000 C   0  0  0  0  0  0  0  0  0  0  0  0
    2.1434    0.4125    0.0000 C   0  0  0  0  0  0  0  0  0  0  0  0
    2.8579    0.0000    0.0000 C   0  0  0  0  0  0  0  0  0  0  0  0
    2.1434    1.2375    0.0000 N   0  0  0  0  0  0  0  0  0  0  0  0
    3.5724    0.4125    0.0000 O   0  0  0  0  0  0  0  0  0  0  0  0
    2.8579   -0.8250    0.0000 O   0  0  0  0  0  0  0  0  0  0  0  0
   -0.0000   -0.8250    0.0000 O   0  0  0  0  0  0  0  0  0  0  0  0
    0.0000    0.0000    0.0000 Se  0  0  0  0  0  4  0  0  0  0  0  0
  3  2  1  0
  4  2  1  0
  4  6  1  6
  5  4  1  0
  7  5  2  0
  8  5  1  0
 10  1  1  0
 10  3  1  0
 10  9  2  0
M  END
>  <DRUGBANK_ID>  (1) 
DB02958

>  <SECONDARY_ACCESSION_NUMBERS>  (1) 
EXPT02238

>  <COMMON_NAME>  (1) 
Selenomethionine Selenoxide

$$$$
