
     RDKit          2D

  8  7  0  0  1  0  0  0  0  0999 V2000
    1.9520    1.1270    0.0000 C   0  0  0  0  0  0  0  0  0  0  0  0
    0.5230    1.1270    0.0000 C   0  0  0  0  0  0  0  0  0  0  0  0
    1.2375    0.7145    0.0000 C   0  0  0  0  0  0  0  0  0  0  0  0
    2.6664    0.7145    0.0000 C   0  0  0  0  0  0  0  0  0  0  0  0
    1.2375   -0.1105    0.0000 N   0  0  0  0  0  0  0  0  0  0  0  0
    3.3809    1.1270    0.0000 O   0  0  0  0  0  0  0  0  0  0  0  0
    2.6664   -0.1105    0.0000 O   0  0  0  0  0  0  0  0  0  0  0  0
   -0.1914    0.7145    0.0000 S   0  0  0  0  0  0  0  0  0  0  0  0
  3  1  1  0
  3  2  1  0
  3  5  1  1
  4  1  1  0
  6  4  2  0
  7  4  1  0
  8  2  1  0
M  END
>  <DRUGBANK_ID>  (1) 
DB02780

>  <SECONDARY_ACCESSION_NUMBERS>  (1) 
EXPT00644

>  <COMMON_NAME>  (1) 
Beta-3-Cysteine

$$$$
