H16
     RDKit          2D

 22 24  0  0  0  0  0  0  0  0999 V2000
    0.3972    1.0124    0.0000 C   0  0  0  0  0  0  0  0  0  0  0  0
   -0.3173    0.5999    0.0000 C   0  0  0  0  0  0  0  0  0  0  0  0
   -1.0317    1.0124    0.0000 C   0  0  0  0  0  0  0  0  0  0  0  0
   -1.0317    1.8374    0.0000 C   0  0  0  0  0  0  0  0  0  0  0  0
   -0.3173    2.2499    0.0000 C   0  0  0  0  0  0  0  0  0  0  0  0
    0.3972    1.8374    0.0000 C   0  0  0  0  0  0  0  0  0  0  0  0
    1.1117   -1.8751    0.0000 N   0  0  0  0  0  0  0  0  0  0  0  0
    0.3972   -1.4626    0.0000 C   0  0  0  0  0  0  0  0  0  0  0  0
   -0.3173   -1.8751    0.0000 O   0  0  0  0  0  0  0  0  0  0  0  0
    0.3972   -0.6376    0.0000 C   0  0  0  0  0  0  0  0  0  0  0  0
    1.1117   -0.2251    0.0000 C   0  0  0  0  0  0  0  0  0  0  0  0
    1.1117    0.5999    0.0000 S   0  0  0  0  0  0  0  0  0  0  0  0
    1.8262   -1.4626    0.0000 C   0  0  0  0  0  0  0  0  0  0  0  0
    1.8262   -0.6376    0.0000 C   0  0  0  0  0  0  0  0  0  0  0  0
    2.5406   -0.2251    0.0000 C   0  0  0  0  0  0  0  0  0  0  0  0
    3.2551   -0.6376    0.0000 C   0  0  0  0  0  0  0  0  0  0  0  0
    3.2551   -1.4626    0.0000 C   0  0  0  0  0  0  0  0  0  0  0  0
    2.5406   -1.8751    0.0000 C   0  0  0  0  0  0  0  0  0  0  0  0
    3.9696   -0.2251    0.0000 Cl  0  0  0  0  0  0  0  0  0  0  0  0
   -0.3173   -0.2251    0.0000 C   0  0  0  0  0  0  0  0  0  0  0  0
   -1.0317   -0.6376    0.0000 C   0  0  0  0  0  0  0  0  0  0  0  0
   -1.7462   -0.2251    0.0000 C   0  0  0  0  0  0  0  0  0  0  0  0
  1  2  1  0
  1  6  1  0
  1 12  1  0
  2  3  1  0
  3  4  1  0
  4  5  1  0
  5  6  1  0
  7  8  1  0
  7 13  1  0
  8  9  2  0
  8 10  1  0
 10 11  2  0
 10 20  1  0
 11 12  1  0
 11 14  1  0
 13 14  2  0
 13 18  1  0
 14 15  1  0
 15 16  2  0
 16 17  1  0
 16 19  1  0
 17 18  2  0
 20 21  1  0
 21 22  1  0
M  END
>  <DRUGBANK_ID>  (1) 
DB07868

>  <COMMON_NAME>  (1) 
6-CHLORO-4-(CYCLOHEXYLSULFANYL)-3-PROPYLQUINOLIN-2(1H)-ONE

$$$$
