4TB
     RDKit          2D

 11 11  0  0  0  0  0  0  0  0999 V2000
   -1.5757    0.3251    0.0000 S   0  0  0  0  0  0  0  0  0  0  0  0
   -0.8220   -0.0105    0.0000 C   0  0  0  0  0  0  0  0  0  0  0  0
   -0.9083   -0.8310    0.0000 C   0  0  0  0  0  0  0  0  0  0  0  0
   -1.7153   -1.0026    0.0000 C   0  0  0  0  0  0  0  0  0  0  0  0
   -2.1279   -0.2880    0.0000 C   0  0  0  0  0  0  0  0  0  0  0  0
   -0.1075    0.4020    0.0000 C   0  0  0  0  0  0  0  0  0  0  0  0
    0.6070   -0.0105    0.0000 C   0  0  0  0  0  0  0  0  0  0  0  0
    1.3216    0.4020    0.0000 C   0  0  0  0  0  0  0  0  0  0  0  0
    2.0361   -0.0105    0.0000 C   0  0  0  0  0  0  0  0  0  0  0  0
    2.7506    0.4020    0.0000 O   0  0  0  0  0  0  0  0  0  0  0  0
    2.0361   -0.8356    0.0000 O   0  0  0  0  0  0  0  0  0  0  0  0
  1  2  1  0
  1  5  1  0
  2  3  2  0
  2  6  1  0
  3  4  1  0
  4  5  2  0
  6  7  1  0
  7  8  1  0
  8  9  1  0
  9 10  1  0
  9 11  2  0
M  END
>  <DRUGBANK_ID>  (1) 
DB02434

>  <SECONDARY_ACCESSION_NUMBERS>  (1) 
EXPT00230

>  <COMMON_NAME>  (1) 
4-(2-Thienyl)Butyric Acid

>  <CAS_NUMBER>  (1) 
4653-11-6

>  <UNII>  (1) 
VLB4C9G6WY

$$$$
