
     RDKit          2D

 22 23  0  0  0  0  0  0  0  0999 V2000
    2.0341    0.6936    0.0000 P   0  0  0  0  0  0  0  0  0  0  0  0
    3.4630    0.6991    0.0000 P   0  0  0  0  0  0  0  0  0  0  0  0
    1.3212    0.2784    0.0000 O   0  0  0  0  0  0  0  0  0  0  0  0
    2.7469    1.1089    0.0000 O   0  0  0  0  0  0  0  0  0  0  0  0
    2.4494   -0.0192    0.0000 O   0  0  0  0  0  0  0  0  0  0  0  0
    1.6188    1.4065    0.0000 O   0  0  0  0  0  0  0  0  0  0  0  0
   -2.3071    1.4932    0.0000 O   0  0  0  0  0  0  0  0  0  0  0  0
    4.1791    0.2894    0.0000 O   0  0  0  0  0  0  0  0  0  0  0  0
    3.8727    1.4153    0.0000 O   0  0  0  0  0  0  0  0  0  0  0  0
    3.0533   -0.0168    0.0000 O   0  0  0  0  0  0  0  0  0  0  0  0
   -0.8551    0.6968    0.0000 N   0  0  0  0  0  0  0  0  0  0  0  0
   -2.3071   -0.9817    0.0000 N   0  0  0  0  0  0  0  0  0  0  0  0
   -0.8551   -1.0103    0.0000 N   0  0  0  0  0  0  0  0  0  0  0  0
   -3.0216    0.2557    0.0000 N   0  0  0  0  0  0  0  0  0  0  0  0
   -3.7361   -0.9817    0.0000 N   0  0  0  0  0  0  0  0  0  0  0  0
   -0.1077    0.2729    0.0000 C   0  0  0  0  0  0  0  0  0  0  0  0
    0.6051    0.6882    0.0000 C   0  0  0  0  0  0  0  0  0  0  0  0
   -1.5927    0.2557    0.0000 C   0  0  0  0  0  0  0  0  0  0  0  0
   -1.5927   -0.5692    0.0000 C   0  0  0  0  0  0  0  0  0  0  0  0
   -0.1077   -0.5864    0.0000 C   0  0  0  0  0  0  0  0  0  0  0  0
   -2.3071    0.6682    0.0000 C   0  0  0  0  0  0  0  0  0  0  0  0
   -3.0216   -0.5692    0.0000 C   0  0  0  0  0  0  0  0  0  0  0  0
  1  3  1  0
  1  4  1  0
  1  5  1  0
  1  6  2  0
  2  4  1  0
  2  8  1  0
  2  9  1  0
  2 10  2  0
  3 17  1  0
  7 21  2  0
 11 16  2  0
 11 18  1  0
 12 19  1  0
 12 22  1  0
 13 19  1  0
 13 20  2  0
 14 21  1  0
 14 22  2  0
 15 22  1  0
 16 17  1  0
 16 20  1  0
 18 19  2  0
 18 21  1  0
M  END
>  <DRUGBANK_ID>  (1) 
DB04047

>  <SECONDARY_ACCESSION_NUMBERS>  (1) 
EXPT01742

>  <COMMON_NAME>  (1) 
6-hydroxymethylpterin diphosphate

>  <CAS_NUMBER>  (1) 
6863-06-5

>  <UNII>  (1) 
H4K6WCP5DQ

>  <SYNONYMS>  (1) 
2-Amino-4-hydroxy-6-hydroxymethylpteridine pyrophosphate

$$$$
