
     RDKit          2D

 23 26  0  0  1  0  0  0  0  0999 V2000
    1.2019    0.2397    0.0000 C   0  0  0  0  0  0  0  0  0  0  0  0
    0.5697    0.6774    0.0000 N   0  0  0  0  0  0  0  0  0  0  0  0
    1.9349    0.7781    0.0000 C   0  0  0  0  0  0  0  0  0  0  0  0
    1.2818   -0.6044    0.0000 N   0  0  0  0  0  0  0  0  0  0  0  0
   -0.1980    0.4308    0.0000 C   0  0  0  0  0  0  0  0  0  0  0  0
    0.8510    1.5076    0.0000 C   0  0  0  0  0  0  0  0  0  0  0  0
    1.7125    1.5041    0.0000 N   0  0  0  0  0  0  0  0  0  0  0  0
    2.6817    0.4481    0.0000 C   0  0  0  0  0  0  0  0  0  0  0  0
    2.0703   -0.9553    0.0000 C   0  0  0  0  0  0  0  0  0  0  0  0
   -0.4516   -0.3126    0.0000 C   0  0  0  0  0  0  0  0  0  0  0  0
   -0.8719    0.9344    0.0000 O   0  0  0  0  0  0  0  0  0  0  0  0
    2.7755   -0.4342    0.0000 N   0  0  0  0  0  0  0  0  0  0  0  0
    3.3382    0.9379    0.0000 O   0  0  0  0  0  0  0  0  0  0  0  0
    2.1641   -1.8306    0.0000 N   0  0  0  0  0  0  0  0  0  0  0  0
   -1.2714   -0.3126    0.0000 C   0  0  0  0  0  0  0  0  0  0  0  0
   -0.0626   -0.9900    0.0000 O   0  0  0  0  0  0  0  0  0  0  0  0
   -1.5284    0.4655    0.0000 C   0  0  0  0  0  0  0  0  0  0  0  0
   -1.8619   -0.8997    0.0000 O   0  0  0  0  0  0  0  0  0  0  0  0
   -2.3204    0.7225    0.0000 C   0  0  0  0  0  0  0  0  0  0  0  0
   -2.7650   -0.6461    0.0000 P   0  0  0  0  0  0  0  0  0  0  0  0
   -2.9387    0.1667    0.0000 O   0  0  0  0  0  0  0  0  0  0  0  0
   -2.7720   -1.4763    0.0000 O   0  0  0  0  0  0  0  0  0  0  0  0
   -3.5431   -0.3543    0.0000 O   0  0  0  0  0  0  0  0  0  0  0  0
  1  2  1  0
  1  3  2  0
  1  4  1  0
  2  6  1  0
  3  7  1  0
  3  8  1  0
  4  9  2  0
  5  2  1  1
  5 10  1  0
  5 11  1  0
  6  7  2  0
  8 12  1  0
  8 13  2  0
  9 14  1  0
  9 12  1  0
 10 15  1  0
 10 16  1  6
 11 17  1  0
 15 18  1  6
 15 17  1  0
 17 19  1  1
 18 20  1  0
 19 21  1  0
 20 22  1  0
 20 23  2  0
 20 21  1  0
M  END
>  <DRUGBANK_ID>  (1) 
DB02315

>  <SECONDARY_ACCESSION_NUMBERS>  (1) 
EXPT02518; DB04536

>  <COMMON_NAME>  (1) 
Cyclic GMP

>  <CAS_NUMBER>  (1) 
7665-99-8

>  <UNII>  (1) 
H2D2X058MU

>  <SYNONYMS>  (1) 
3',5'-cyclic GMP; cGMP; Cyclic GMP; Cyclic guanosine monophosphate; Guanosine 3',5'-cyclic monophosphate; Guanosine 3',5'-cyclic phosphate; Guanosine cyclic monophosphate

$$$$
