
     RDKit          2D

 20 20  0  0  0  0  0  0  0  0999 V2000
   13.2042   -9.1236    0.0000 C   0  0  0  0  0  0  0  0  0  0  0  0
   13.2042   -9.9486    0.0000 C   0  0  0  0  0  0  0  0  0  0  0  0
   13.9187  -10.3611    0.0000 N   0  0  0  0  0  0  0  0  0  0  0  0
   14.6330   -9.9486    0.0000 C   0  0  0  0  0  0  0  0  0  0  0  0
   14.6330   -9.1236    0.0000 N   0  0  0  0  0  0  0  0  0  0  0  0
   13.9187   -8.7112    0.0000 C   0  0  0  0  0  0  0  0  0  0  0  0
   12.4197   -8.8688    0.0000 N   0  0  0  0  0  0  0  0  0  0  0  0
   11.9348   -9.5361    0.0000 C   0  0  0  0  0  0  0  0  0  0  0  0
   12.4197  -10.2035    0.0000 N   0  0  0  0  0  0  0  0  0  0  0  0
   13.9187   -7.8863    0.0000 O   0  0  0  0  0  0  0  0  0  0  0  0
   15.3483  -10.3615    0.0000 O   0  0  0  0  0  0  0  0  0  0  0  0
   15.3483   -8.7108    0.0000 C   0  0  0  0  0  0  0  0  0  0  0  0
   13.9187  -11.1861    0.0000 C   0  0  0  0  0  0  0  0  0  0  0  0
   17.1672   -9.9413    0.0000 C   0  0  0  0  0  0  0  0  0  0  0  0
   17.8907   -9.5235    0.0000 N   0  0  0  0  0  0  0  0  0  0  0  0
   18.6142   -9.9413    0.0000 C   0  0  0  0  0  0  0  0  0  0  0  0
   19.3377   -9.5235    0.0000 C   0  0  0  0  0  0  0  0  0  0  0  0
   20.0611   -9.9413    0.0000 O   0  0  0  0  0  0  0  0  0  0  0  0
   17.8907   -8.6883    0.0000 C   0  0  0  0  0  0  0  0  0  0  0  0
   17.8907  -10.3590    0.0000 C   0  0  0  0  0  0  0  0  0  0  0  0
  1  2  2  0
  1  6  1  0
  1  7  1  0
  2  3  1  0
  2  9  1  0
  3  4  1  0
  3 13  1  0
  4  5  1  0
  4 11  2  0
  5  6  1  0
  5 12  1  0
  6 10  2  0
  7  8  1  0
  8  9  2  0
 14 15  1  0
 15 16  1  0
 15 19  1  0
 15 20  1  0
 16 17  1  0
 17 18  1  0
M  CHG  2   7  -1  15   1
M  END
>  <DRUGBANK_ID>  (1) 
DB01303

>  <COMMON_NAME>  (1) 
Oxtriphylline

>  <CAS_NUMBER>  (1) 
4499-40-5

>  <UNII>  (1) 
3K045XR58X

>  <SYNONYMS>  (1) 
Choline theophyllinate; Choline theophylline; Cholini theophyllinas; Oxtriphylline; Teofilinato de colina; Theocolin; Theophyllinate de choline

$$$$
