
     RDKit          2D

 34 36  0  0  0  0  0  0  0  0999 V2000
   -5.3585    2.4750    0.0000 C   0  0  0  0  0  0  0  0  0  0  0  0
   -4.6440    2.0625    0.0000 C   0  0  0  0  0  0  0  0  0  0  0  0
   -4.6440    1.2375    0.0000 C   0  0  0  0  0  0  0  0  0  0  0  0
   -5.3585    0.8250    0.0000 O   0  0  0  0  0  0  0  0  0  0  0  0
   -3.9295    0.8250    0.0000 N   0  0  0  0  0  0  0  0  0  0  0  0
   -3.9295    0.0000    0.0000 S   0  0  0  0  0  0  0  0  0  0  0  0
   -4.7545    0.0000    0.0000 O   0  0  0  0  0  0  0  0  0  0  0  0
   -3.1045    0.0000    0.0000 O   0  0  0  0  0  0  0  0  0  0  0  0
   -3.9295   -0.8250    0.0000 C   0  0  0  0  0  0  0  0  0  0  0  0
   -3.2151   -1.2375    0.0000 C   0  0  0  0  0  0  0  0  0  0  0  0
   -3.2151   -2.0625    0.0000 C   0  0  0  0  0  0  0  0  0  0  0  0
   -2.5006   -2.4750    0.0000 N   0  0  0  0  0  0  0  0  0  0  0  0
   -1.7861   -2.0625    0.0000 C   0  0  0  0  0  0  0  0  0  0  0  0
   -1.7861   -1.2375    0.0000 N   0  0  0  0  0  0  0  0  0  0  0  0
   -1.0717   -0.8250    0.0000 C   0  0  0  0  0  0  0  0  0  0  0  0
   -0.3572   -1.2375    0.0000 C   0  0  0  0  0  0  0  0  0  0  0  0
    0.3572   -0.8250    0.0000 F   0  0  0  0  0  0  0  0  0  0  0  0
   -0.3572   -2.0625    0.0000 C   0  0  0  0  0  0  0  0  0  0  0  0
    0.3572   -2.4750    0.0000 N   0  0  0  0  0  0  0  0  0  0  0  0
    1.0717   -2.0625    0.0000 C   0  0  0  0  0  0  0  0  0  0  0  0
    1.0717   -1.2375    0.0000 C   0  0  0  0  0  0  0  0  0  0  0  0
    1.7861   -0.8250    0.0000 C   0  0  0  0  0  0  0  0  0  0  0  0
    2.5006   -1.2375    0.0000 C   0  0  0  0  0  0  0  0  0  0  0  0
    3.2151   -0.8250    0.0000 O   0  0  0  0  0  0  0  0  0  0  0  0
    3.9295   -1.2375    0.0000 C   0  0  0  0  0  0  0  0  0  0  0  0
    4.6440   -0.8250    0.0000 C   0  0  0  0  0  0  0  0  0  0  0  0
    5.3585   -0.4125    0.0000 C   0  0  0  0  0  0  0  0  0  0  0  0
    2.5006   -2.0625    0.0000 C   0  0  0  0  0  0  0  0  0  0  0  0
    1.7861   -2.4750    0.0000 C   0  0  0  0  0  0  0  0  0  0  0  0
   -1.0717   -2.4750    0.0000 N   0  0  0  0  0  0  0  0  0  0  0  0
   -3.9295   -2.4750    0.0000 C   0  0  0  0  0  0  0  0  0  0  0  0
   -4.6440   -2.0625    0.0000 C   0  0  0  0  0  0  0  0  0  0  0  0
   -4.6440   -1.2375    0.0000 C   0  0  0  0  0  0  0  0  0  0  0  0
   -5.3585   -0.8250    0.0000 C   0  0  0  0  0  0  0  0  0  0  0  0
  1  2  1  0
  2  3  1  0
  3  4  2  0
  3  5  1  0
  5  6  1  0
  6  7  2  0
  6  8  2  0
  6  9  1  0
  9 10  2  0
  9 33  1  0
 10 11  1  0
 11 12  1  0
 11 31  2  0
 12 13  1  0
 13 14  2  0
 13 30  1  0
 14 15  1  0
 15 16  2  0
 16 17  1  0
 16 18  1  0
 18 19  1  0
 18 30  2  0
 19 20  1  0
 20 21  2  0
 20 29  1  0
 21 22  1  0
 22 23  2  0
 23 24  1  0
 23 28  1  0
 24 25  1  0
 25 26  1  0
 26 27  3  0
 28 29  2  0
 31 32  1  0
 32 33  2  0
 33 34  1  0
M  END
>  <DRUGBANK_ID>  (1) 
DB06321

>  <COMMON_NAME>  (1) 
R-348

>  <CAS_NUMBER>  (1) 
916742-11-5

>  <UNII>  (1) 
3J396119JY

>  <SYNONYMS>  (1) 
5-Fluoro-N-(4-methyl-3-propionylaminosulfonylphenyl)-N'-(4-(prop-2-ynyloxy)phenyl)-2,4-pyrimidinediamine

$$$$
