C90
     RDKit          2D

 32 34  0  0  0  0  0  0  0  0999 V2000
   -3.9747    2.2498    0.0000 C   0  0  0  0  0  0  0  0  0  0  0  0
   -3.2602    1.8373    0.0000 C   0  0  0  0  0  0  0  0  0  0  0  0
   -1.8313    1.0123    0.0000 C   0  0  0  0  0  0  0  0  0  0  0  0
   -1.1168    0.5998    0.0000 C   0  0  0  0  0  0  0  0  0  0  0  0
   -6.1181    1.0123    0.0000 O   0  0  0  0  0  0  0  0  0  0  0  0
   -0.4023    0.1873    0.0000 C   0  0  0  0  0  0  0  0  0  0  0  0
    0.3121   -0.2252    0.0000 C   0  0  0  0  0  0  0  0  0  0  0  0
    3.8845   -2.2877    0.0000 C   0  0  0  0  0  0  0  0  0  0  0  0
    1.7411   -1.0502    0.0000 C   0  0  0  0  0  0  0  0  0  0  0  0
    2.4555   -1.4627    0.0000 C   0  0  0  0  0  0  0  0  0  0  0  0
    3.8845   -1.4627    0.0000 C   0  0  0  0  0  0  0  0  0  0  0  0
    4.5990   -2.7002    0.0000 C   0  0  0  0  0  0  0  0  0  0  0  0
    4.5990   -1.0502    0.0000 C   0  0  0  0  0  0  0  0  0  0  0  0
   -6.1181    1.8373    0.0000 C   0  0  0  0  0  0  0  0  0  0  0  0
   -5.4036    0.5998    0.0000 C   0  0  0  0  0  0  0  0  0  0  0  0
   -5.4036    2.2498    0.0000 C   0  0  0  0  0  0  0  0  0  0  0  0
   -4.6892    1.0123    0.0000 C   0  0  0  0  0  0  0  0  0  0  0  0
   -4.6892    1.8373    0.0000 N   0  0  0  0  0  0  0  0  0  0  0  0
   -2.5458    2.2498    0.0000 C   0  0  0  0  0  0  0  0  0  0  0  0
   -3.2602    1.0123    0.0000 C   0  0  0  0  0  0  0  0  0  0  0  0
   -1.8313    1.8373    0.0000 C   0  0  0  0  0  0  0  0  0  0  0  0
   -2.5458    0.5998    0.0000 C   0  0  0  0  0  0  0  0  0  0  0  0
    0.3121   -1.0502    0.0000 C   0  0  0  0  0  0  0  0  0  0  0  0
    1.0266    0.1873    0.0000 C   0  0  0  0  0  0  0  0  0  0  0  0
    1.0266   -1.4627    0.0000 C   0  0  0  0  0  0  0  0  0  0  0  0
    1.7411   -0.2252    0.0000 C   0  0  0  0  0  0  0  0  0  0  0  0
    2.4555   -2.2877    0.0000 O   0  0  0  0  0  0  0  0  0  0  0  0
    3.1700   -1.0502    0.0000 N   0  0  0  0  0  0  0  0  0  0  0  0
    3.1700   -2.7002    0.0000 O   0  0  0  0  0  0  0  0  0  0  0  0
    5.3134   -1.4627    0.0000 N   0  0  0  0  0  0  0  0  0  0  0  0
    4.5990   -0.2252    0.0000 O   0  0  0  0  0  0  0  0  0  0  0  0
    6.0279   -1.0502    0.0000 O   0  0  0  0  0  0  0  0  0  0  0  0
  1 18  1  0
  1  2  1  0
  2 19  2  0
  3  4  1  0
  3 21  2  0
  4  6  3  0
  5 14  1  0
  6  7  1  0
  7 24  2  0
  8 29  1  0
  9 10  1  0
  9 26  2  0
 10 27  2  0
 11  8  1  0
 11 28  1  6
  8 12  1  1
 13 30  1  0
 13 11  1  0
 15  5  1  0
 16 14  1  0
 17 15  1  0
 17 18  1  0
 18 16  1  0
 19 21  1  0
 20 22  2  0
 20  2  1  0
 22  3  1  0
 23 25  2  0
 23  7  1  0
 24 26  1  0
 25  9  1  0
 28 10  1  0
 31 13  2  0
 32 30  1  0
M  END
>  <DRUGBANK_ID>  (1) 
DB07536

>  <COMMON_NAME>  (1) 
N-{(1S,2R)-2-hydroxy-1-[(hydroxyamino)carbonyl]propyl}-4-{[4-(morpholin-4-ylmethyl)phenyl]ethynyl}benzamide

$$$$
