
     RDKit          2D

 22 23  0  0  0  0  0  0  0  0999 V2000
    0.8470   -0.1695    0.0000 C   0  0  0  0  0  0  0  0  0  0  0  0
    0.8470    0.6552    0.0000 N   0  0  0  0  0  0  0  0  0  0  0  0
    0.1796   -0.6542    0.0000 O   0  0  0  0  0  0  0  0  0  0  0  0
    1.5145   -0.6542    0.0000 C   0  0  0  0  0  0  0  0  0  0  0  0
    1.5614    1.0678    0.0000 C   0  0  0  0  0  0  0  0  0  0  0  0
    0.1325    1.0678    0.0000 C   0  0  0  0  0  0  0  0  0  0  0  0
    0.4345   -1.4389    0.0000 C   0  0  0  0  0  0  0  0  0  0  0  0
    1.2596   -1.4389    0.0000 C   0  0  0  0  0  0  0  0  0  0  0  0
    1.5614    1.8928    0.0000 N   0  0  0  0  0  0  0  0  0  0  0  0
    2.2760    0.6552    0.0000 O   0  0  0  0  0  0  0  0  0  0  0  0
    1.7444   -2.1063    0.0000 O   0  0  0  0  0  0  0  0  0  0  0  0
    0.8470    2.3052    0.0000 C   0  0  0  0  0  0  0  0  0  0  0  0
   -2.2760   -1.8928    0.0000 O   0  0  0  0  0  0  0  0  0  0  0  0
   -1.5615   -3.1302    0.0000 O   0  0  0  0  0  0  0  0  0  0  0  0
   -1.5615   -1.4802    0.0000 O   0  0  0  0  0  0  0  0  0  0  0  0
   -1.5615   -2.3052    0.0000 P   0  0  0  0  0  0  0  0  0  0  0  0
   -0.8471   -1.8928    0.0000 O   0  0  0  0  0  0  0  0  0  0  0  0
   -0.0502   -2.1063    0.0000 C   0  0  0  0  0  0  0  0  0  0  0  0
    0.8470    3.1302    0.0000 O   0  0  0  0  0  0  0  0  0  0  0  0
    0.1325    1.8928    0.0000 C   0  0  0  0  0  0  0  0  0  0  0  0
   -0.5818    2.3052    0.0000 C   0  0  0  0  0  0  0  0  0  0  0  0
    2.2290   -0.2418    0.0000 O   0  0  0  0  0  0  0  0  0  0  0  0
  1  2  1  1
  1  3  1  0
  1  4  1  0
  2  5  1  0
  2  6  1  0
  3  7  1  0
  4  8  1  0
  4 22  1  6
  5  9  1  0
  5 10  2  0
  6 20  2  0
  7 18  1  1
  7  8  1  0
  8 11  1  6
  9 12  1  0
 12 19  2  0
 13 16  1  0
 16 17  1  0
 16 14  2  0
 16 15  1  0
 18 17  1  0
 20 12  1  0
 20 21  1  0
M  END
>  <DRUGBANK_ID>  (1) 
DB04243

>  <SECONDARY_ACCESSION_NUMBERS>  (1) 
EXPT00254

>  <COMMON_NAME>  (1) 
TMP

>  <SYNONYMS>  (1) 
5-methyl-5'-uridylic acid; 5-methyluridine 5'-monophosphate; 5-methyluridine 5'-phosphate; ribo-TMP; ribosylthymidine 5'-monophosphate; ribosylthymidine 5'-phosphate; ribosylthymine 5'-monophosphate; ribosylthymine 5'-phosphate; ribothymidine 5'-phosphate; rTMP

$$$$
