
     RDKit          2D

  7  4  0  0  0  0  0  0  0  0999 V2000
   -2.9696    0.0000    0.0000 K   0  0  0  0  0 15  0  0  0  0  0  0
   -4.4546    0.0000    0.0000 K   0  0  0  0  0 15  0  0  0  0  0  0
    3.6296   -0.8250    0.0000 O   0  0  0  0  0  0  0  0  0  0  0  0
    3.6296    0.0000    0.0000 P   0  0  0  0  0  0  0  0  0  0  0  0
    3.6296    0.8250    0.0000 O   0  0  0  0  0  0  0  0  0  0  0  0
    2.8046    0.0000    0.0000 O   0  0  0  0  0  0  0  0  0  0  0  0
    4.4546    0.0000    0.0000 O   0  0  0  0  0  0  0  0  0  0  0  0
  3  4  2  0
  4  5  1  0
  4  6  1  0
  4  7  1  0
M  CHG  4   1   1   2   1   5  -1   7  -1
M  END
>  <DRUGBANK_ID>  (1) 
DB09414

>  <COMMON_NAME>  (1) 
Dipotassium phosphate

>  <CAS_NUMBER>  (1) 
7758-11-4

>  <UNII>  (1) 
CI71S98N1Z

>  <SYNONYMS>  (1) 
Di-potassium hydrogen phosphate; Dibasic potassium phosphate; Dipotassium acid phosphate; Dipotassium hydrogen monophosphate; Dipotassium hydrogen orthophosphate; Dipotassium hydrogen phosphate; Dipotassium monophosphate; Kali phosphoricum; Phosphoric acid, dipotassium salt; Phosphoric acid, potassium salt (1:2); Potassium phosphate dibasic; Potassium phosphate, dibasic; Potassium phosphate,dibasic; Secondary potassium phosphate

$$$$
