
     RDKit          2D

 37 40  0  0  0  0  0  0  0  0999 V2000
   -0.9074    0.1443    0.0000 C   0  0  0  0  0  0  0  0  0  0  0  0
   -0.9074   -0.6806    0.0000 N   0  0  0  0  0  0  0  0  0  0  0  0
   -0.2062   -1.0931    0.0000 C   0  0  0  0  0  0  0  0  0  0  0  0
    0.4950   -0.6806    0.0000 C   0  0  0  0  0  0  0  0  0  0  0  0
    0.4950    0.1443    0.0000 C   0  0  0  0  0  0  0  0  0  0  0  0
   -0.2062    0.5568    0.0000 S   0  0  0  0  0  0  0  0  0  0  0  0
   -1.7324    0.1443    0.0000 C   0  0  0  0  0  0  0  0  0  0  0  0
   -1.7324   -0.6806    0.0000 C   0  0  0  0  0  0  0  0  0  0  0  0
   -2.4749    0.5568    0.0000 N   0  0  0  0  0  0  0  0  0  0  0  0
   -3.1762    0.1443    0.0000 C   0  0  0  0  0  0  0  0  0  0  0  0
   -3.1762   -0.6806    0.0000 O   0  0  0  0  0  0  0  0  0  0  0  0
   -2.4749   -1.0931    0.0000 O   0  0  0  0  0  0  0  0  0  0  0  0
   -3.8362    0.5568    0.0000 C   0  0  0  0  0  0  0  0  0  0  0  0
    1.2375   -1.0931    0.0000 C   0  0  0  0  0  0  0  0  0  0  0  0
   -4.5787    0.1443    0.0000 C   0  0  0  0  0  0  0  0  0  0  0  0
    1.9387   -0.6806    0.0000 S   0  0  0  0  0  0  0  0  0  0  0  0
    2.6400   -1.0931    0.0000 C   0  0  0  0  0  0  0  0  0  0  0  0
   -5.1974    0.6393    0.0000 C   0  0  0  0  0  0  0  0  0  0  0  0
   -5.8987    0.1856    0.0000 S   0  0  0  0  0  0  0  0  0  0  0  0
   -5.6512   -0.6393    0.0000 C   0  0  0  0  0  0  0  0  0  0  0  0
   -4.8262   -0.6393    0.0000 N   0  0  0  0  0  0  0  0  0  0  0  0
   -3.8362    1.3818    0.0000 N   0  0  0  0  0  0  0  0  0  0  0  0
    2.8875   -1.8768    0.0000 N   0  0  0  0  0  0  0  0  0  0  0  0
    3.7125   -1.8768    0.0000 C   0  0  0  0  0  0  0  0  0  0  0  0
    4.0012   -1.0931    0.0000 C   0  0  0  0  0  0  0  0  0  0  0  0
    3.3000   -0.5981    0.0000 S   0  0  0  0  0  0  0  0  0  0  0  0
   -0.2062   -1.9181    0.0000 C   0  0  0  0  0  0  0  0  0  0  0  0
    0.4950   -2.3306    0.0000 O   0  0  0  0  0  0  0  0  0  0  0  0
   -0.9487   -2.3306    0.0000 O   0  0  0  0  0  0  0  0  0  0  0  0
   -6.1462   -1.2993    0.0000 N   0  0  0  0  0  0  0  0  0  0  0  0
    5.4450   -1.0931    0.0000 C   0  0  0  0  0  0  0  0  0  0  0  0
    4.7025   -0.6806    0.0000 C   0  0  0  0  0  0  0  0  0  0  0  0
    6.1462   -0.6806    0.0000 O   0  0  0  0  0  0  0  0  0  0  0  0
    5.4450   -1.9181    0.0000 O   0  0  0  0  0  0  0  0  0  0  0  0
    4.2075   -2.5781    0.0000 C   0  0  0  0  0  0  0  0  0  0  0  0
   -3.1349    1.7531    0.0000 O   0  0  0  0  0  0  0  0  0  0  0  0
   -3.1349    2.5781    0.0000 C   0  0  0  0  0  0  0  0  0  0  0  0
  1  2  1  0
  1  6  1  1
  1  7  1  0
  2  3  1  0
  2  8  1  0
  3  4  2  0
  3 27  1  0
  4  5  1  0
  4 14  1  0
  5  6  1  0
  7  8  1  0
  7  9  1  1
  8 12  2  0
  9 10  1  0
 10 11  2  0
 10 13  1  0
 13 15  1  0
 13 22  2  0
 14 16  1  0
 15 18  2  0
 15 21  1  0
 16 17  1  0
 17 23  2  0
 17 26  1  0
 18 19  1  0
 19 20  1  0
 20 21  2  0
 20 30  1  0
 22 36  1  0
 23 24  1  0
 24 25  2  0
 24 35  1  0
 25 26  1  0
 25 32  1  0
 27 28  1  0
 27 29  2  0
 31 32  1  0
 31 33  1  0
 31 34  2  0
 36 37  1  0
M  END
>  <DRUGBANK_ID>  (1) 
DB13470

>  <COMMON_NAME>  (1) 
Cefodizime

>  <CAS_NUMBER>  (1) 
69739-16-8

>  <UNII>  (1) 
Z31298J4HQ

>  <SYNONYMS>  (1) 
CDZM; Cefodizima; Cefodizime; Cefodizimum

$$$$
