
     RDKit          2D

 35 37  0  0  0  0  0  0  0  0999 V2000
   -2.0534   -1.8607    0.0000 C   0  0  0  0  0  0  0  0  0  0  0  0
   -1.9304   -1.0449    0.0000 C   0  0  0  0  0  0  0  0  0  0  0  0
   -1.1625   -0.7435    0.0000 C   0  0  0  0  0  0  0  0  0  0  0  0
   -1.0395    0.0723    0.0000 C   0  0  0  0  0  0  0  0  0  0  0  0
   -0.2715    0.3737    0.0000 C   0  0  0  0  0  0  0  0  0  0  0  0
   -0.1486   -0.4421    0.0000 C   0  0  0  0  0  0  0  0  0  0  0  0
    0.6194   -0.7435    0.0000 C   0  0  0  0  0  0  0  0  0  0  0  0
    0.7424   -1.5593    0.0000 C   0  0  0  0  0  0  0  0  0  0  0  0
    1.5103   -1.8607    0.0000 C   0  0  0  0  0  0  0  0  0  0  0  0
   -0.7363    1.0553    0.0000 C   0  0  0  0  0  0  0  0  0  0  0  0
   -0.4931    1.8437    0.0000 N   0  0  0  0  0  0  0  0  0  0  0  0
   -1.0979    2.4048    0.0000 C   0  0  0  0  0  0  0  0  0  0  0  0
   -1.8862    2.1617    0.0000 C   0  0  0  0  0  0  0  0  0  0  0  0
   -2.4910    2.7228    0.0000 C   0  0  0  0  0  0  0  0  0  0  0  0
   -2.3074    3.5271    0.0000 C   0  0  0  0  0  0  0  0  0  0  0  0
   -1.5191    3.7703    0.0000 C   0  0  0  0  0  0  0  0  0  0  0  0
   -0.9143    3.2092    0.0000 C   0  0  0  0  0  0  0  0  0  0  0  0
    0.2749    2.1451    0.0000 C   0  0  0  0  0  0  0  0  0  0  0  0
    0.2749    2.9701    0.0000 C   0  0  0  0  0  0  0  0  0  0  0  0
    0.9893    3.3826    0.0000 C   0  0  0  0  0  0  0  0  0  0  0  0
    0.9893    4.2076    0.0000 S   0  0  0  0  0  0  0  0  0  0  0  0
    1.7038    4.6201    0.0000 C   0  0  0  0  0  0  0  0  0  0  0  0
    1.7038    2.9701    0.0000 C   0  0  0  0  0  0  0  0  0  0  0  0
    2.4183    3.3826    0.0000 O   0  0  0  0  0  0  0  0  0  0  0  0
    3.1328    2.9701    0.0000 C   0  0  0  0  0  0  0  0  0  0  0  0
    3.8472    3.3826    0.0000 C   0  0  0  0  0  0  0  0  0  0  0  0
    4.5617    2.9701    0.0000 C   0  0  0  0  0  0  0  0  0  0  0  0
    5.2762    3.3826    0.0000 O   0  0  0  0  0  0  0  0  0  0  0  0
    4.5617    2.1451    0.0000 O   0  0  0  0  0  0  0  0  0  0  0  0
    1.7038    2.1451    0.0000 C   0  0  0  0  0  0  0  0  0  0  0  0
    0.9893    1.7326    0.0000 C   0  0  0  0  0  0  0  0  0  0  0  0
    1.1123    0.9168    0.0000 S   0  0  0  0  0  0  0  0  0  0  0  0
    1.8803    1.2182    0.0000 O   0  0  0  0  0  0  0  0  0  0  0  0
    1.5770    0.2352    0.0000 O   0  0  0  0  0  0  0  0  0  0  0  0
    0.5512    0.3120    0.0000 N   0  0  0  0  0  0  0  0  0  0  0  0
  1  2  1  0
  2  3  1  0
  3  4  1  0
  4  5  1  0
  5  6  1  0
  5 10  1  0
  5 35  1  0
  6  7  1  0
  7  8  1  0
  8  9  1  0
 10 11  1  0
 11 12  1  0
 11 18  1  0
 12 13  2  0
 12 17  1  0
 13 14  1  0
 14 15  2  0
 15 16  1  0
 16 17  2  0
 18 19  2  0
 18 31  1  0
 19 20  1  0
 20 21  1  0
 20 23  2  0
 21 22  1  0
 23 24  1  0
 23 30  1  0
 24 25  1  0
 25 26  1  0
 26 27  1  0
 27 28  1  0
 27 29  2  0
 30 31  2  0
 31 32  1  0
 32 33  2  0
 32 34  2  0
 32 35  1  0
M  END
>  <DRUGBANK_ID>  (1) 
DB18030

>  <COMMON_NAME>  (1) 
Ritivixibat

>  <CAS_NUMBER>  (1) 
2460667-52-9

>  <UNII>  (1) 
3U7H6NE2KE

>  <SYNONYMS>  (1) 
3-([3,3-dibutyl-7-(methylsulfanyl)-1,1-dioxo-5-phenyl-2,3,4,5-tetrahydro-1H-1Lambda6,2,5-benzothiadiazepin-8-yl]oxy)propanoic acid

$$$$
