
     RDKit          2D

 26 29  0  0  0  0  0  0  0  0999 V2000
    0.7942   -0.1072    0.0000 C   0  0  0  0  0  0  0  0  0  0  0  0
    0.0796    0.3050    0.0000 C   0  0  0  0  0  0  0  0  0  0  0  0
   -0.6347   -0.1074    0.0000 C   0  0  0  0  0  0  0  0  0  0  0  0
   -0.6348   -0.9324    0.0000 C   0  0  0  0  0  0  0  0  0  0  0  0
    0.0796   -1.3449    0.0000 C   0  0  0  0  0  0  0  0  0  0  0  0
    0.7942   -0.9323    0.0000 C   0  0  0  0  0  0  0  0  0  0  0  0
    1.5088    0.3050    0.0000 C   0  0  0  0  0  0  0  0  0  0  0  0
    2.2233   -0.1072    0.0000 C   0  0  0  0  0  0  0  0  0  0  0  0
    2.2233   -0.9323    0.0000 C   0  0  0  0  0  0  0  0  0  0  0  0
    1.5088   -1.3449    0.0000 C   0  0  0  0  0  0  0  0  0  0  0  0
    1.5088    1.1302    0.0000 C   0  0  0  0  0  0  0  0  0  0  0  0
    2.2232    1.5427    0.0000 C   0  0  0  0  0  0  0  0  0  0  0  0
    2.9378    1.1302    0.0000 C   0  0  0  0  0  0  0  0  0  0  0  0
    2.9378    0.3050    0.0000 C   0  0  0  0  0  0  0  0  0  0  0  0
    3.7223    0.0503    0.0000 C   0  0  0  0  0  0  0  0  0  0  0  0
    4.2073    0.7177    0.0000 C   0  0  0  0  0  0  0  0  0  0  0  0
    3.7223    1.3853    0.0000 C   0  0  0  0  0  0  0  0  0  0  0  0
    3.9774    2.1699    0.0000 O   0  0  0  0  0  0  0  0  0  0  0  0
    2.9378    1.9552    0.0000 C   0  0  0  0  0  0  0  0  0  0  0  0
    0.7942    0.7177    0.0000 C   0  0  0  0  0  0  0  0  0  0  0  0
    1.5088   -2.1699    0.0000 O   0  0  0  0  0  0  0  0  0  0  0  0
   -1.3492   -1.3450    0.0000 N   0  0  0  0  0  0  0  0  0  0  0  0
   -2.0637   -1.7574    0.0000 O   0  0  0  0  0  0  0  0  0  0  0  0
   -2.7782   -1.3450    0.0000 C   0  0  0  0  0  0  0  0  0  0  0  0
   -3.4927   -1.7574    0.0000 C   0  0  0  0  0  0  0  0  0  0  0  0
   -4.2073   -1.3450    0.0000 N   0  0  0  0  0  0  0  0  0  0  0  0
  1  2  1  0
  1  7  1  0
  1 20  1  1
  2  3  1  0
  3  4  1  0
  4  5  1  0
  4 22  2  3
  6  5  1  1
  6  1  1  0
  7 11  1  1
  8  9  1  6
  8  7  1  0
  9 10  1  0
 10  6  1  0
 10 21  2  0
 11 12  1  0
 12 13  1  0
 13 17  1  0
 13 14  1  0
 13 19  1  1
 14  8  1  0
 14 15  1  1
 15 16  1  0
 16 17  1  0
 17 18  2  0
 22 23  1  0
 23 24  1  0
 24 25  1  0
 25 26  1  0
M  END
>  <DRUGBANK_ID>  (1) 
DB06157

>  <COMMON_NAME>  (1) 
Istaroxime

>  <CAS_NUMBER>  (1) 
203737-93-3

>  <UNII>  (1) 
W8I9H2TPPL

>  <SYNONYMS>  (1) 
(E,Z)-Istaroxime; 3-((2-Aminoethoxy)imino)-5alpha-androstan-6,17-dione; Istaroxime

$$$$
