M77
     RDKit          2D

 20 22  0  0  0  0  0  0  0  0999 V2000
   -1.2660   -0.1843    0.0000 O   0  0  0  0  0  0  0  0  0  0  0  0
   -0.4410   -0.1843    0.0000 S   0  0  0  0  0  0  0  0  0  0  0  0
    0.3840   -0.1843    0.0000 O   0  0  0  0  0  0  0  0  0  0  0  0
   -0.4410    0.6407    0.0000 N   0  0  0  0  0  0  0  0  0  0  0  0
   -1.1843    0.9987    0.0000 C   0  0  0  0  0  0  0  0  0  0  0  0
   -1.3679    1.8030    0.0000 C   0  0  0  0  0  0  0  0  0  0  0  0
   -0.8535    2.4480    0.0000 N   0  0  0  0  0  0  0  0  0  0  0  0
   -0.0285    2.4480    0.0000 C   0  0  0  0  0  0  0  0  0  0  0  0
    0.4859    1.8030    0.0000 C   0  0  0  0  0  0  0  0  0  0  0  0
    0.3023    0.9987    0.0000 C   0  0  0  0  0  0  0  0  0  0  0  0
   -0.4410   -1.0093    0.0000 C   0  0  0  0  0  0  0  0  0  0  0  0
   -1.1554   -1.4218    0.0000 C   0  0  0  0  0  0  0  0  0  0  0  0
   -1.1554   -2.2468    0.0000 C   0  0  0  0  0  0  0  0  0  0  0  0
   -0.4410   -2.6593    0.0000 C   0  0  0  0  0  0  0  0  0  0  0  0
    0.2735   -2.2468    0.0000 C   0  0  0  0  0  0  0  0  0  0  0  0
    0.2735   -1.4218    0.0000 C   0  0  0  0  0  0  0  0  0  0  0  0
    0.9880   -1.0093    0.0000 C   0  0  0  0  0  0  0  0  0  0  0  0
    0.9880   -2.6593    0.0000 C   0  0  0  0  0  0  0  0  0  0  0  0
    1.7024   -2.2468    0.0000 N   0  0  0  0  0  0  0  0  0  0  0  0
    1.7024   -1.4218    0.0000 C   0  0  0  0  0  0  0  0  0  0  0  0
  1  2  2  0
  2  3  2  0
  2  4  1  0
  2 11  1  0
  4  5  1  0
  4 10  1  0
  5  6  1  0
  6  7  1  0
  7  8  1  0
  8  9  1  0
  9 10  1  0
 11 12  2  0
 11 16  1  0
 12 13  1  0
 13 14  2  0
 14 15  1  0
 15 16  2  0
 15 18  1  0
 16 17  1  0
 17 20  2  0
 18 19  2  0
 19 20  1  0
M  END
>  <DRUGBANK_ID>  (1) 
DB08162

>  <SECONDARY_ACCESSION_NUMBERS>  (1) 
DB12469

>  <COMMON_NAME>  (1) 
Fasudil

>  <CAS_NUMBER>  (1) 
103745-39-7

>  <UNII>  (1) 
Q0CH43PGXS

>  <SYNONYMS>  (1) 
Fasudil

$$$$
