
     RDKit          2D

 16 16  0  0  0  0  0  0  0  0999 V2000
   -2.5269    0.0129    0.0000 S   0  0  0  0  0  0  0  0  0  0  0  0
   -1.7979   -0.4099    0.0000 N   0  0  0  0  0  0  0  0  0  0  0  0
   -2.9498   -0.7160    0.0000 O   0  0  0  0  0  0  0  0  0  0  0  0
   -2.1067    0.7446    0.0000 O   0  0  0  0  0  0  0  0  0  0  0  0
    0.3632   -0.0103    0.0000 C   0  0  0  0  0  0  0  0  0  0  0  0
   -0.3502   -0.4099    0.0000 C   0  0  0  0  0  0  0  0  0  0  0  0
   -1.0611   -0.0051    0.0000 C   0  0  0  0  0  0  0  0  0  0  0  0
    1.1104   -0.4177    0.0000 C   0  0  0  0  0  0  0  0  0  0  0  0
   -3.2586    0.4358    0.0000 C   0  0  0  0  0  0  0  0  0  0  0  0
    2.5218   -0.4255    0.0000 N   0  0  0  0  0  0  0  0  0  0  0  0
    1.1104   -1.2427    0.0000 O   0  0  0  0  0  0  0  0  0  0  0  0
    0.3632    0.8146    0.0000 C   0  0  0  0  0  0  0  0  0  0  0  0
   -0.3502    1.2427    0.0000 C   0  0  0  0  0  0  0  0  0  0  0  0
    1.7979   -0.0051    0.0000 C   0  0  0  0  0  0  0  0  0  0  0  0
   -1.0611    0.8146    0.0000 C   0  0  0  0  0  0  0  0  0  0  0  0
    3.2586   -0.0103    0.0000 C   0  0  0  0  0  0  0  0  0  0  0  0
  2  1  1  0
  3  1  2  0
  4  1  2  0
  5  6  2  0
  6  7  1  0
  7  2  1  0
  8  5  1  0
  8 11  1  0
  9  1  1  0
 10 14  1  0
 12  5  1  0
 13 15  1  0
 13 12  2  0
 14  8  1  0
 15  7  2  0
 16 10  1  0
M  END
>  <DRUGBANK_ID>  (1) 
DB16623

>  <COMMON_NAME>  (1) 
Amidephrine

>  <CAS_NUMBER>  (1) 
37571-84-9

>  <UNII>  (1) 
7E2P22546V

>  <SYNONYMS>  (1) 
Amidefrine; Amidephrine

$$$$
