
     RDKit          2D

 29 32  0  0  1  0  0  0  0  0999 V2000
    3.0790    0.4125    0.0000 O   0  0  0  0  0  0  0  0  0  0  0  0
    5.2223   -0.8250    0.0000 O   0  0  0  0  0  0  0  0  0  0  0  0
    3.7934   -0.8250    0.0000 N   0  0  0  0  0  0  0  0  0  0  0  0
    4.5079    2.0625    0.0000 N   0  0  0  0  0  0  0  0  0  0  0  0
    3.7934   -1.6500    0.0000 C   0  0  0  0  0  0  0  0  0  0  0  0
    4.5079   -2.0625    0.0000 C   0  0  0  0  0  0  0  0  0  0  0  0
    3.0790   -2.0625    0.0000 C   0  0  0  0  0  0  0  0  0  0  0  0
    4.5079    0.4125    0.0000 C   0  0  0  0  0  0  0  0  0  0  0  0
    4.5079   -0.4125    0.0000 C   0  0  0  0  0  0  0  0  0  0  0  0
    5.2223    0.8250    0.0000 C   0  0  0  0  0  0  0  0  0  0  0  0
    4.5079   -2.8875    0.0000 C   0  0  0  0  0  0  0  0  0  0  0  0
    3.7934    0.8250    0.0000 C   0  0  0  0  0  0  0  0  0  0  0  0
    5.2223    1.6500    0.0000 C   0  0  0  0  0  0  0  0  0  0  0  0
    3.7934    1.6500    0.0000 C   0  0  0  0  0  0  0  0  0  0  0  0
    2.3644   -1.6500    0.0000 C   0  0  0  0  0  0  0  0  0  0  0  0
    3.0790   -2.8875    0.0000 C   0  0  0  0  0  0  0  0  0  0  0  0
    5.9599    0.3839    0.0000 C   0  0  0  0  0  0  0  0  0  0  0  0
    3.0790    2.0625    0.0000 C   0  0  0  0  0  0  0  0  0  0  0  0
    5.9599    2.0911    0.0000 C   0  0  0  0  0  0  0  0  0  0  0  0
    1.6500   -2.0625    0.0000 C   0  0  0  0  0  0  0  0  0  0  0  0
    2.3644   -3.3000    0.0000 C   0  0  0  0  0  0  0  0  0  0  0  0
    6.7073    0.8078    0.0000 C   0  0  0  0  0  0  0  0  0  0  0  0
    1.6500   -2.8875    0.0000 C   0  0  0  0  0  0  0  0  0  0  0  0
    6.7073    1.6672    0.0000 C   0  0  0  0  0  0  0  0  0  0  0  0
    3.0790    2.8875    0.0000 C   0  0  0  0  0  0  0  0  0  0  0  0
    2.3644    1.6500    0.0000 C   0  0  0  0  0  0  0  0  0  0  0  0
    2.3644    3.3000    0.0000 C   0  0  0  0  0  0  0  0  0  0  0  0
    1.6500    2.0625    0.0000 C   0  0  0  0  0  0  0  0  0  0  0  0
    1.6500    2.8875    0.0000 C   0  0  0  0  0  0  0  0  0  0  0  0
  1 12  1  0
  2  9  2  0
  3  5  1  0
  3  9  1  0
  4 13  2  0
  4 14  1  0
  5  6  1  0
  5  7  1  0
  6 11  1  0
  7 15  2  0
  7 16  1  0
  8  9  1  0
  8 10  2  0
  8 12  1  0
 10 13  1  0
 10 17  1  0
 12 14  2  0
 13 19  1  0
 14 18  1  0
 15 20  1  0
 16 21  2  0
 17 22  2  0
 18 25  2  0
 18 26  1  0
 19 24  2  0
 20 23  2  0
 21 23  1  0
 22 24  1  0
 25 27  1  0
 26 28  2  0
 27 29  2  0
 28 29  1  0
M  END
>  <DRUGBANK_ID>  (1) 
DB06429

>  <COMMON_NAME>  (1) 
Talnetant

>  <CAS_NUMBER>  (1) 
174636-32-9

>  <UNII>  (1) 
CZ3T9T146K

>  <SYNONYMS>  (1) 
Talnetant

$$$$
