
     RDKit          2D

 18 19  0  0  0  0  0  0  0  0999 V2000
    0.3572   -0.2061    0.0000 C   0  0  0  0  0  0  0  0  0  0  0  0
   -0.3572    0.2062    0.0000 C   0  0  0  0  0  0  0  0  0  0  0  0
   -2.5006   -0.2062    0.0000 C   0  0  0  0  0  0  0  0  0  0  0  0
   -1.7861    0.2062    0.0000 C   0  0  0  0  0  0  0  0  0  0  0  0
   -1.0716   -0.2062    0.0000 C   0  0  0  0  0  0  0  0  0  0  0  0
   -1.0716   -1.0312    0.0000 C   0  0  0  0  0  0  0  0  0  0  0  0
    1.0717    1.0313    0.0000 C   0  0  0  0  0  0  0  0  0  0  0  0
    2.5006    1.0313    0.0000 C   0  0  0  0  0  0  0  0  0  0  0  0
    1.7862   -0.2061    0.0000 C   0  0  0  0  0  0  0  0  0  0  0  0
    1.0717    0.2063    0.0000 C   0  0  0  0  0  0  0  0  0  0  0  0
    2.5006    0.2063    0.0000 C   0  0  0  0  0  0  0  0  0  0  0  0
    3.2151   -0.2061    0.0000 O   0  0  0  0  0  0  0  0  0  0  0  0
    1.7862    1.4438    0.0000 C   0  0  0  0  0  0  0  0  0  0  0  0
    1.7862    2.2688    0.0000 O   0  0  0  0  0  0  0  0  0  0  0  0
   -2.5006   -1.0312    0.0000 C   0  0  0  0  0  0  0  0  0  0  0  0
   -3.2151   -1.4438    0.0000 O   0  0  0  0  0  0  0  0  0  0  0  0
   -1.7861   -1.4438    0.0000 C   0  0  0  0  0  0  0  0  0  0  0  0
   -1.7861   -2.2687    0.0000 O   0  0  0  0  0  0  0  0  0  0  0  0
  1  2  2  0
  3  4  2  0
  3 15  1  0
  4  5  1  0
  5  6  2  0
  5  2  1  0
  6 17  1  0
  7 13  2  0
  7 10  1  0
  8 11  2  0
  9 10  2  0
 10  1  1  0
 11  9  1  0
 11 12  1  0
 13  8  1  0
 13 14  1  0
 15 16  1  0
 17 15  2  0
 17 18  1  0
M  END
>  <DRUGBANK_ID>  (1) 
DB08399

>  <COMMON_NAME>  (1) 
Piceatannol

>  <CAS_NUMBER>  (1) 
10083-24-6

>  <UNII>  (1) 
6KS3LS0D4F

>  <SYNONYMS>  (1) 
3-hydroxyresveratol; 3,3',4,5'-Tetrahydroxystilbene; 3,3',4'5-Tetrahydroxystilbene; 3,5,3',4'-tetrahydroxystilbene; 4-[(E)-2-(3,5-dihydroxyphenyl)vinyl]benzene-1,2-diol; Piceatannol

$$$$
