
     RDKit          2D

 28 31  0  0  0  0  0  0  0  0999 V2000
   -2.5345   -0.3005    0.0000 C   0  0  0  0  0  0  0  0  0  0  0  0
   -3.2544   -0.7036    0.0000 C   0  0  0  0  0  0  0  0  0  0  0  0
   -3.2652   -1.5286    0.0000 C   0  0  0  0  0  0  0  0  0  0  0  0
   -2.5562   -1.9504    0.0000 C   0  0  0  0  0  0  0  0  0  0  0  0
   -1.8364   -1.5473    0.0000 C   0  0  0  0  0  0  0  0  0  0  0  0
   -1.8255   -0.7223    0.0000 C   0  0  0  0  0  0  0  0  0  0  0  0
   -1.1057   -0.3192    0.0000 C   0  0  0  0  0  0  0  0  0  0  0  0
   -1.1274   -1.9691    0.0000 C   0  0  0  0  0  0  0  0  0  0  0  0
   -0.4075   -1.5660    0.0000 C   0  0  0  0  0  0  0  0  0  0  0  0
   -0.3967   -0.7411    0.0000 C   0  0  0  0  0  0  0  0  0  0  0  0
   -0.3751    0.9087    0.0000 C   0  0  0  0  0  0  0  0  0  0  0  0
   -1.0949    0.5056    0.0000 C   0  0  0  0  0  0  0  0  0  0  0  0
    0.3230   -0.3379    0.0000 C   0  0  0  0  0  0  0  0  0  0  0  0
    0.3338    0.4869    0.0000 C   0  0  0  0  0  0  0  0  0  0  0  0
    1.1217    0.7316    0.0000 C   0  0  0  0  0  0  0  0  0  0  0  0
    1.1042   -0.6031    0.0000 C   0  0  0  0  0  0  0  0  0  0  0  0
    1.5978    0.0578    0.0000 C   0  0  0  0  0  0  0  0  0  0  0  0
   -3.9796   -1.9411    0.0000 O   0  0  0  0  0  0  0  0  0  0  0  0
   -1.1274   -2.7941    0.0000 O   0  0  0  0  0  0  0  0  0  0  0  0
   -1.8255    0.1026    0.0000 C   0  0  0  0  0  0  0  0  0  0  0  0
    0.3338    1.3119    0.0000 C   0  0  0  0  0  0  0  0  0  0  0  0
    1.1217    1.5566    0.0000 C   0  0  0  0  0  0  0  0  0  0  0  0
    1.8361    1.9691    0.0000 C   0  0  0  0  0  0  0  0  0  0  0  0
    2.5506    1.5566    0.0000 C   0  0  0  0  0  0  0  0  0  0  0  0
    3.2651    1.9691    0.0000 C   0  0  0  0  0  0  0  0  0  0  0  0
    3.9796    1.5566    0.0000 O   0  0  0  0  0  0  0  0  0  0  0  0
    3.2651    2.7941    0.0000 O   0  0  0  0  0  0  0  0  0  0  0  0
    0.4072    1.9691    0.0000 C   0  0  0  0  0  0  0  0  0  0  0  0
  1  2  1  0
  1  6  1  0
  2  3  1  0
  3  4  1  0
  3 18  1  6
  5  4  1  6
  5  8  1  0
  6  5  1  0
  6 20  1  1
  7  6  1  0
  7 10  1  0
  8  9  1  0
  8 19  1  6
 10  9  1  6
 10 13  1  0
 11 12  1  0
 11 14  1  0
  7 12  1  1
 13 16  1  1
 14 13  1  0
 14 21  1  1
 15 14  1  0
 15 17  1  1
 15 22  1  0
 16 17  1  0
 22 23  1  0
 22 28  1  6
 23 24  1  0
 24 25  1  0
 25 26  1  0
 25 27  2  0
M  END
>  <DRUGBANK_ID>  (1) 
DB11789

>  <COMMON_NAME>  (1) 
Hyodeoxycholic Acid

>  <CAS_NUMBER>  (1) 
83-49-8

>  <UNII>  (1) 
7A33Y6EHYK

$$$$
