
     RDKit          2D

 23 25  0  0  0  0  0  0  0  0999 V2000
   -2.7899    1.5732    0.0000 C   0  0  0  0  0  0  0  0  0  0  0  0
   -3.5044    1.9857    0.0000 C   0  0  0  0  0  0  0  0  0  0  0  0
   -4.2189    1.5731    0.0000 C   0  0  0  0  0  0  0  0  0  0  0  0
   -4.2190    0.7482    0.0000 C   0  0  0  0  0  0  0  0  0  0  0  0
   -3.5045    0.3357    0.0000 C   0  0  0  0  0  0  0  0  0  0  0  0
   -2.7899    0.7482    0.0000 C   0  0  0  0  0  0  0  0  0  0  0  0
   -2.0753    0.3357    0.0000 S   0  0  0  0  0  0  0  0  0  0  0  0
   -2.0755    1.9858    0.0000 N   0  0  0  0  0  0  0  0  0  0  0  0
   -0.6465    1.9858    0.0000 C   0  0  0  0  0  0  0  0  0  0  0  0
   -1.3609    1.5733    0.0000 C   0  0  0  0  0  0  0  0  0  0  0  0
   -1.3609    0.7482    0.0000 C   0  0  0  0  0  0  0  0  0  0  0  0
   -0.6465    0.3357    0.0000 C   0  0  0  0  0  0  0  0  0  0  0  0
    0.0679    0.7482    0.0000 C   0  0  0  0  0  0  0  0  0  0  0  0
    0.0679    1.5733    0.0000 C   0  0  0  0  0  0  0  0  0  0  0  0
   -2.6587   -0.2476    0.0000 O   0  0  0  0  0  0  0  0  0  0  0  0
   -1.4919   -0.2475    0.0000 O   0  0  0  0  0  0  0  0  0  0  0  0
   -2.0755    2.8108    0.0000 C   0  0  0  0  0  0  0  0  0  0  0  0
   -2.7900    3.2232    0.0000 C   0  0  0  0  0  0  0  0  0  0  0  0
   -3.5045    2.8107    0.0000 C   0  0  0  0  0  0  0  0  0  0  0  0
   -2.7901    4.0482    0.0000 C   0  0  0  0  0  0  0  0  0  0  0  0
   -4.2189    3.2231    0.0000 N   0  0  0  0  0  0  0  0  0  0  0  0
   -4.9334    2.8106    0.0000 C   0  0  0  0  0  0  0  0  0  0  0  0
   -4.2190    4.0481    0.0000 C   0  0  0  0  0  0  0  0  0  0  0  0
  1  2  2  0
  1  8  1  0
  2  3  1  0
  3  4  2  0
  4  5  1  0
  5  6  2  0
  6  1  1  0
  6  7  1  0
  7 11  1  0
  7 15  2  0
  7 16  2  0
  8 17  1  0
  9 10  1  0
 10 11  2  0
 10  8  1  0
 11 12  1  0
 12 13  2  0
 13 14  1  0
 14  9  2  0
 17 18  1  0
 18 19  1  0
 18 20  1  0
 19 21  1  0
 21 22  1  0
 21 23  1  0
M  END
>  <DRUGBANK_ID>  (1) 
DB13820

>  <COMMON_NAME>  (1) 
Oxomemazine

>  <CAS_NUMBER>  (1) 
3689-50-7

>  <UNII>  (1) 
305MB38V1C

>  <SYNONYMS>  (1) 
Oxomemazine

$$$$
