
     RDKit          2D

 13 13  0  0  0  0  0  0  0  0999 V2000
   -1.0717   -0.8250    0.0000 C   0  0  0  0  0  0  0  0  0  0  0  0
   -1.0717   -2.4750    0.0000 C   0  0  0  0  0  0  0  0  0  0  0  0
    1.0717    0.4125    0.0000 C   0  0  0  0  0  0  0  0  0  0  0  0
   -0.3572    0.4125    0.0000 C   0  0  0  0  0  0  0  0  0  0  0  0
    1.0717    1.2375    0.0000 C   0  0  0  0  0  0  0  0  0  0  0  0
   -0.3572    1.2375    0.0000 C   0  0  0  0  0  0  0  0  0  0  0  0
   -0.3572   -1.2375    0.0000 C   0  0  0  0  0  0  0  0  0  0  0  0
    0.3572    0.0000    0.0000 C   0  0  0  0  0  0  0  0  0  0  0  0
    0.3572    1.6500    0.0000 C   0  0  0  0  0  0  0  0  0  0  0  0
    0.3572   -0.8250    0.0000 C   0  0  0  0  0  0  0  0  0  0  0  0
   -0.3572   -2.0625    0.0000 N   0  0  0  0  0  0  0  0  0  0  0  0
    0.3572    2.4750    0.0000 O   0  0  0  0  0  0  0  0  0  0  0  0
    1.0717   -1.2375    0.0000 O   0  0  0  0  0  0  0  0  0  0  0  0
  5  3  2  0
  6  4  1  0
  7  1  1  1
  8  3  1  0
  8  4  2  0
  9  5  1  0
  9  6  2  0
 10  7  1  0
 10  8  1  0
 10 13  1  1
 11  2  1  0
 11  7  1  0
 12  9  1  0
M  END
>  <DRUGBANK_ID>  (1) 
DB11610

>  <COMMON_NAME>  (1) 
Oxilofrine

>  <CAS_NUMBER>  (1) 
365-26-4

>  <UNII>  (1) 
F49638UBDR

>  <SYNONYMS>  (1) 
4-HMP; 4-hydroxyephedrine; Methyl synephrin; Methyl synephrine; Methylsympatol; Methylsynephrin; Methylsynephrine; Oxilofrine; Oxyephedrin; p-hydroxyephedrine

$$$$
