
     RDKit          2D

 19 20  0  0  0  0  0  0  0  0999 V2000
   -2.5006    0.4125    0.0000 C   0  0  0  0  0  0  0  0  0  0  0  0
   -2.5006   -0.4125    0.0000 C   0  0  0  0  0  0  0  0  0  0  0  0
   -1.7860    0.8250    0.0000 N   0  0  0  0  0  0  0  0  0  0  0  0
   -3.2151    0.8250    0.0000 C   0  0  0  0  0  0  0  0  0  0  0  0
   -1.7860   -0.8250    0.0000 C   0  0  0  0  0  0  0  0  0  0  0  0
   -3.2151   -0.8250    0.0000 C   0  0  0  0  0  0  0  0  0  0  0  0
   -1.0716    0.4125    0.0000 C   0  0  0  0  0  0  0  0  0  0  0  0
   -1.7860    1.6500    0.0000 O   0  0  0  0  0  0  0  0  0  0  0  0
   -3.9296    0.4125    0.0000 C   0  0  0  0  0  0  0  0  0  0  0  0
   -1.0716   -0.4125    0.0000 C   0  0  0  0  0  0  0  0  0  0  0  0
   -1.7860   -1.6500    0.0000 O   0  0  0  0  0  0  0  0  0  0  0  0
   -3.9296   -0.4125    0.0000 C   0  0  0  0  0  0  0  0  0  0  0  0
   -0.3571    0.8250    0.0000 C   0  0  0  0  0  0  0  0  0  0  0  0
    0.3573    0.4125    0.0000 C   0  0  0  0  0  0  0  0  0  0  0  0
    1.0717    0.8250    0.0000 C   0  0  0  0  0  0  0  0  0  0  0  0
    1.7862    0.4125    0.0000 C   0  0  0  0  0  0  0  0  0  0  0  0
    2.5007    0.8250    0.0000 C   0  0  0  0  0  0  0  0  0  0  0  0
    3.2151    0.4125    0.0000 C   0  0  0  0  0  0  0  0  0  0  0  0
    3.9296    0.8250    0.0000 C   0  0  0  0  0  0  0  0  0  0  0  0
  1  2  1  0
  1  3  2  0
  1  4  1  0
  2  5  2  0
  2  6  1  0
  3  7  1  0
  3  8  1  0
  4  9  2  0
  5 10  1  0
  5 11  1  0
  6 12  2  0
  7 13  1  0
  7 10  2  0
  9 12  1  0
 13 14  1  0
 14 15  1  0
 15 16  1  0
 16 17  1  0
 17 18  1  0
 18 19  1  0
M  CHG  2   3   1   8  -1
M  END
>  <DRUGBANK_ID>  (1) 
DB07918

>  <COMMON_NAME>  (1) 
2-heptyl-4-hydroxyquinoline N-oxide

>  <CAS_NUMBER>  (1) 
341-88-8

>  <UNII>  (1) 
1FU5S5CG6A

>  <SYNONYMS>  (1) 
2-(n-heptyl)-4-hydroxyquinoline N-oxide; 2-heptyl-4-hydroxyquinoline N-oxide; 2-heptyl-4-hydroxyquinoline-N-oxide; 2-heptyl-4-quinolinol 1-oxide; HOQNO; HQNO

$$$$
