C92
     RDKit          2D

 27 29  0  0  0  0  0  0  0  0999 V2000
   -3.6249    0.5949    0.0000 C   0  0  0  0  0  0  0  0  0  0  0  0
   -4.1769   -0.0182    0.0000 C   0  0  0  0  0  0  0  0  0  0  0  0
   -3.7644   -0.7327    0.0000 C   0  0  0  0  0  0  0  0  0  0  0  0
   -2.9574   -0.5611    0.0000 C   0  0  0  0  0  0  0  0  0  0  0  0
   -2.8712    0.2593    0.0000 C   0  0  0  0  0  0  0  0  0  0  0  0
   -2.1567    0.6718    0.0000 C   0  0  0  0  0  0  0  0  0  0  0  0
   -1.4422    0.2593    0.0000 C   0  0  0  0  0  0  0  0  0  0  0  0
   -0.7278    0.6718    0.0000 N   0  0  0  0  0  0  0  0  0  0  0  0
   -0.0133    0.2593    0.0000 C   0  0  0  0  0  0  0  0  0  0  0  0
   -0.0133   -0.5657    0.0000 O   0  0  0  0  0  0  0  0  0  0  0  0
    0.7012    0.6718    0.0000 C   0  0  0  0  0  0  0  0  0  0  0  0
    1.4156    0.2593    0.0000 C   0  0  0  0  0  0  0  0  0  0  0  0
    0.7012    1.4968    0.0000 C   0  0  0  0  0  0  0  0  0  0  0  0
    1.4156    1.9093    0.0000 C   0  0  0  0  0  0  0  0  0  0  0  0
    2.1301    1.4968    0.0000 C   0  0  0  0  0  0  0  0  0  0  0  0
    2.8446    1.9093    0.0000 C   0  0  0  0  0  0  0  0  0  0  0  0
    2.1301    0.6718    0.0000 C   0  0  0  0  0  0  0  0  0  0  0  0
    2.8446    0.2593    0.0000 C   0  0  0  0  0  0  0  0  0  0  0  0
    3.5590    0.6718    0.0000 O   0  0  0  0  0  0  0  0  0  0  0  0
    2.8446   -0.5657    0.0000 N   0  0  0  0  0  0  0  0  0  0  0  0
    3.5590   -0.9782    0.0000 C   0  0  0  0  0  0  0  0  0  0  0  0
    3.5590   -1.8032    0.0000 C   0  0  0  0  0  0  0  0  0  0  0  0
    4.2735   -2.2157    0.0000 C   0  0  0  0  0  0  0  0  0  0  0  0
    4.9880   -1.8032    0.0000 C   0  0  0  0  0  0  0  0  0  0  0  0
    5.7025   -2.2157    0.0000 N   0  0  0  0  0  0  0  0  0  0  0  0
    4.9880   -0.9782    0.0000 N   0  0  0  0  0  0  0  0  0  0  0  0
    4.2735   -0.5657    0.0000 C   0  0  0  0  0  0  0  0  0  0  0  0
  1  5  1  0
  2  1  1  0
  2  3  1  0
  3  4  1  0
  4  5  1  0
  5  6  1  0
  6  7  1  0
  7  8  1  0
  8  9  1  0
  9 11  1  0
 10  9  2  0
 11 13  1  0
 11 12  2  0
 12 17  1  0
 13 14  2  0
 14 15  1  0
 15 16  1  0
 17 15  2  0
 17 18  1  0
 18 19  2  0
 18 20  1  0
 20 21  1  0
 21 27  1  0
 21 22  2  0
 22 23  1  0
 23 24  2  0
 24 25  1  0
 26 24  1  0
 27 26  2  0
M  END
>  <DRUGBANK_ID>  (1) 
DB07537

>  <COMMON_NAME>  (1) 
N'-(6-aminopyridin-3-yl)-N-(2-cyclopentylethyl)-4-methyl-benzene-1,3-dicarboxamide

$$$$
