D3F
     RDKit          2D

 28 29  0  0  0  0  0  0  0  0999 V2000
   -0.0728    2.6164    0.0000 C   0  0  0  0  0  0  0  0  0  0  0  0
    0.6417    2.2039    0.0000 C   0  0  0  0  0  0  0  0  0  0  0  0
    0.6417    1.3789    0.0000 C   0  0  0  0  0  0  0  0  0  0  0  0
   -0.0728    0.9664    0.0000 C   0  0  0  0  0  0  0  0  0  0  0  0
   -0.7872    1.3789    0.0000 C   0  0  0  0  0  0  0  0  0  0  0  0
   -0.7872    2.2039    0.0000 C   0  0  0  0  0  0  0  0  0  0  0  0
   -1.5017    2.6164    0.0000 C   0  0  0  0  0  0  0  0  0  0  0  0
   -0.0728    0.1414    0.0000 S   0  0  0  0  0  0  0  0  0  0  0  0
    0.7522    0.1414    0.0000 O   0  0  0  0  0  0  0  0  0  0  0  0
   -0.8978    0.1414    0.0000 O   0  0  0  0  0  0  0  0  0  0  0  0
   -0.0728   -0.6836    0.0000 C   0  0  0  0  0  0  0  0  0  0  0  0
    0.6417   -1.0961    0.0000 C   0  0  0  0  0  0  0  0  0  0  0  0
    0.6417   -1.9211    0.0000 C   0  0  0  0  0  0  0  0  0  0  0  0
   -0.0728   -2.3336    0.0000 C   0  0  0  0  0  0  0  0  0  0  0  0
   -0.7872   -1.9211    0.0000 C   0  0  0  0  0  0  0  0  0  0  0  0
   -0.7872   -1.0961    0.0000 C   0  0  0  0  0  0  0  0  0  0  0  0
   -1.5017   -0.6836    0.0000 N   0  0  0  0  0  0  0  0  0  0  0  0
   -2.2162   -1.0961    0.0000 O   0  0  0  0  0  0  0  0  0  0  0  0
   -1.5017    0.1414    0.0000 O   0  0  0  0  0  0  0  0  0  0  0  0
   -0.0728   -3.1586    0.0000 C   0  0  0  0  0  0  0  0  0  0  0  0
   -0.0728   -3.9836    0.0000 F   0  0  0  0  0  0  0  0  0  0  0  0
    0.7522   -3.1586    0.0000 F   0  0  0  0  0  0  0  0  0  0  0  0
   -0.8978   -3.1586    0.0000 F   0  0  0  0  0  0  0  0  0  0  0  0
    1.3562   -0.6836    0.0000 N   0  0  0  0  0  0  0  0  0  0  0  0
    2.0706   -1.0961    0.0000 O   0  0  0  0  0  0  0  0  0  0  0  0
    1.3562    0.1414    0.0000 O   0  0  0  0  0  0  0  0  0  0  0  0
    1.3562    0.9664    0.0000 Cl  0  0  0  0  0  0  0  0  0  0  0  0
   -0.0728    3.4414    0.0000 Cl  0  0  0  0  0  0  0  0  0  0  0  0
  1  2  2  0
  1  6  1  0
  1 28  1  0
  2  3  1  0
  3  4  2  0
  3 27  1  0
  4  5  1  0
  4  8  1  0
  5  6  2  0
  6  7  1  0
  8  9  2  0
  8 10  2  0
  8 11  1  0
 11 12  2  0
 11 16  1  0
 12 13  1  0
 12 24  1  0
 13 14  2  0
 14 15  1  0
 14 20  1  0
 15 16  2  0
 16 17  1  0
 17 18  1  0
 17 19  2  0
 20 21  1  0
 20 22  1  0
 20 23  1  0
 24 25  1  0
 24 26  2  0
M  CHG  4  17   1  18  -1  24   1  25  -1
M  END
>  <DRUGBANK_ID>  (1) 
DB07620

>  <COMMON_NAME>  (1) 
2-[(2,4-DICHLORO-5-METHYLPHENYL)SULFONYL]-1,3-DINITRO-5-(TRIFLUOROMETHYL)BENZENE

$$$$
