
     RDKit          2D

 34 38  0  0  0  0  0  0  0  0999 V2000
   -2.1262   -1.8413    0.0000 C   0  0  0  0  0  0  0  0  0  0  0  0
   -1.3057   -1.9275    0.0000 C   0  0  0  0  0  0  0  0  0  0  0  0
   -0.7537   -1.3144    0.0000 N   0  0  0  0  0  0  0  0  0  0  0  0
    0.0000   -1.6500    0.0000 N   0  0  0  0  0  0  0  0  0  0  0  0
   -0.0862   -2.4705    0.0000 C   0  0  0  0  0  0  0  0  0  0  0  0
    0.5269   -3.0225    0.0000 O   0  0  0  0  0  0  0  0  0  0  0  0
   -0.8932   -2.6420    0.0000 C   0  0  0  0  0  0  0  0  0  0  0  0
   -1.2288   -3.3957    0.0000 N   0  0  0  0  0  0  0  0  0  0  0  0
   -0.7438   -4.0631    0.0000 N   0  0  0  0  0  0  0  0  0  0  0  0
   -1.0794   -4.8168    0.0000 C   0  0  0  0  0  0  0  0  0  0  0  0
   -0.5945   -5.4842    0.0000 C   0  0  0  0  0  0  0  0  0  0  0  0
    0.2260   -5.3980    0.0000 O   0  0  0  0  0  0  0  0  0  0  0  0
   -0.9300   -6.2379    0.0000 C   0  0  0  0  0  0  0  0  0  0  0  0
   -1.7505   -6.3241    0.0000 C   0  0  0  0  0  0  0  0  0  0  0  0
   -2.2354   -5.6567    0.0000 C   0  0  0  0  0  0  0  0  0  0  0  0
   -1.8999   -4.9030    0.0000 C   0  0  0  0  0  0  0  0  0  0  0  0
   -0.4451   -6.9053    0.0000 C   0  0  0  0  0  0  0  0  0  0  0  0
    0.3799   -6.9053    0.0000 C   0  0  0  0  0  0  0  0  0  0  0  0
    0.6348   -7.6900    0.0000 C   0  0  0  0  0  0  0  0  0  0  0  0
   -0.0326   -8.1749    0.0000 C   0  0  0  0  0  0  0  0  0  0  0  0
   -0.7001   -7.6900    0.0000 O   0  0  0  0  0  0  0  0  0  0  0  0
   -0.0326   -8.9999    0.0000 C   0  0  0  0  0  0  0  0  0  0  0  0
    0.6819   -9.4124    0.0000 O   0  0  0  0  0  0  0  0  0  0  0  0
   -0.7471   -9.4124    0.0000 O   0  0  0  0  0  0  0  0  0  0  0  0
    0.7145   -1.2375    0.0000 C   0  0  0  0  0  0  0  0  0  0  0  0
    0.7145   -0.4125    0.0000 C   0  0  0  0  0  0  0  0  0  0  0  0
    1.4289    0.0000    0.0000 C   0  0  0  0  0  0  0  0  0  0  0  0
    2.1434   -0.4125    0.0000 C   0  0  0  0  0  0  0  0  0  0  0  0
    2.8579    0.0000    0.0000 C   0  0  0  0  0  0  0  0  0  0  0  0
    3.5724   -0.4125    0.0000 C   0  0  0  0  0  0  0  0  0  0  0  0
    3.5724   -1.2375    0.0000 C   0  0  0  0  0  0  0  0  0  0  0  0
    2.8579   -1.6500    0.0000 C   0  0  0  0  0  0  0  0  0  0  0  0
    2.1434   -1.2375    0.0000 C   0  0  0  0  0  0  0  0  0  0  0  0
    1.4289   -1.6500    0.0000 C   0  0  0  0  0  0  0  0  0  0  0  0
  1  2  1  0
  2  3  2  0
  2  7  1  0
  3  4  1  0
  4  5  1  0
  4 25  1  0
  5  6  2  0
  5  7  1  0
  7  8  2  0
  8  9  1  0
  9 10  1  0
 10 11  2  0
 10 16  1  0
 11 12  1  0
 11 13  1  0
 13 14  2  0
 13 17  1  0
 14 15  1  0
 15 16  2  0
 17 18  2  0
 17 21  1  0
 18 19  1  0
 19 20  2  0
 20 21  1  0
 20 22  1  0
 22 23  1  0
 22 24  2  0
 25 26  2  0
 25 34  1  0
 26 27  1  0
 27 28  2  0
 28 29  1  0
 28 33  1  0
 29 30  1  0
 30 31  1  0
 31 32  1  0
 32 33  1  0
 33 34  2  0
M  END
>  <DRUGBANK_ID>  (1) 
DB16184

>  <COMMON_NAME>  (1) 
Hetrombopag

>  <CAS_NUMBER>  (1) 
1257792-41-8

>  <UNII>  (1) 
9WGT51BDDL

$$$$
