
     RDKit          2D

 14 14  0  0  0  0  0  0  0  0999 V2000
   -1.4289    0.4125    0.0000 C   0  0  0  0  0  0  0  0  0  0  0  0
   -0.7144   -0.8250    0.0000 C   0  0  0  0  0  0  0  0  0  0  0  0
    0.0000    0.4125    0.0000 C   0  0  0  0  0  0  0  0  0  0  0  0
   -2.1434    0.0000    0.0000 C   0  0  0  0  0  0  0  0  0  0  0  0
   -1.4289   -1.2375    0.0000 C   0  0  0  0  0  0  0  0  0  0  0  0
    0.7144    0.0000    0.0000 C   0  0  0  0  0  0  0  0  0  0  0  0
   -0.7144    0.0000    0.0000 C   0  0  0  0  0  0  0  0  0  0  0  0
   -2.1434   -0.8250    0.0000 C   0  0  0  0  0  0  0  0  0  0  0  0
    1.4289    0.4125    0.0000 C   0  0  0  0  0  0  0  0  0  0  0  0
    2.1434    0.0000    0.0000 C   0  0  0  0  0  0  0  0  0  0  0  0
   -2.8578   -1.2375    0.0000 N   0  0  0  0  0  0  0  0  0  0  0  0
    1.4289    1.2375    0.0000 N   0  0  0  0  0  0  0  0  0  0  0  0
    2.8578    0.4125    0.0000 O   0  0  0  0  0  0  0  0  0  0  0  0
    2.1434   -0.8250    0.0000 O   0  0  0  0  0  0  0  0  0  0  0  0
  4  1  2  0
  5  2  2  0
  6  3  1  0
  7  1  1  0
  7  2  1  0
  7  3  1  0
  8  4  1  0
  8  5  1  0
  9  6  1  0
  9 10  1  0
  9 12  1  6
 11  8  1  0
 13 10  2  0
 14 10  1  0
M  END
>  <DRUGBANK_ID>  (1) 
DB02725

>  <SECONDARY_ACCESSION_NUMBERS>  (1) 
EXPT00424

>  <COMMON_NAME>  (1) 
2-Amino-4-(4-Amino-Cyclohexa-2,5-Dienyl)-Butyric Acid

$$$$
