1342
     RDKit          2D

 31 34  0  0  0  0  0  0  0  0999 V2000
    5.2679    0.7791    0.0000 N   0  0  0  0  0  0  0  0  0  0  0  0
    4.3747   -0.2130    0.0000 N   0  0  0  0  0  0  0  0  0  0  0  0
    4.5142    1.1146    0.0000 N   0  0  0  0  0  0  0  0  0  0  0  0
    7.4114   -0.4585    0.0000 N   0  0  0  0  0  0  0  0  0  0  0  0
    8.8873    1.2640    0.0000 N   0  0  0  0  0  0  0  0  0  0  0  0
   10.2223    1.2640    0.0000 N   0  0  0  0  0  0  0  0  0  0  0  0
    9.1423    2.0486    0.0000 N   0  0  0  0  0  0  0  0  0  0  0  0
    9.9673    2.0486    0.0000 N   0  0  0  0  0  0  0  0  0  0  0  0
    5.7948   -0.5935    0.0000 C   0  0  0  0  0  0  0  0  0  0  0  0
    5.1817   -0.0415    0.0000 C   0  0  0  0  0  0  0  0  0  0  0  0
    5.6232   -1.4005    0.0000 C   0  0  0  0  0  0  0  0  0  0  0  0
    3.1417    0.5877    0.0000 C   0  0  0  0  0  0  0  0  0  0  0  0
    5.9824    1.1916    0.0000 C   0  0  0  0  0  0  0  0  0  0  0  0
    3.9621    0.5015    0.0000 C   0  0  0  0  0  0  0  0  0  0  0  0
    2.8061    1.3414    0.0000 C   0  0  0  0  0  0  0  0  0  0  0  0
    4.8386   -1.6555    0.0000 C   0  0  0  0  0  0  0  0  0  0  0  0
    6.6968    0.7791    0.0000 C   0  0  0  0  0  0  0  0  0  0  0  0
    1.9856    1.4277    0.0000 C   0  0  0  0  0  0  0  0  0  0  0  0
    4.6670   -2.4624    0.0000 C   0  0  0  0  0  0  0  0  0  0  0  0
    7.4114    1.1916    0.0000 C   0  0  0  0  0  0  0  0  0  0  0  0
    6.6968   -0.0460    0.0000 C   0  0  0  0  0  0  0  0  0  0  0  0
    1.6500    2.1813    0.0000 C   0  0  0  0  0  0  0  0  0  0  0  0
    8.1259   -0.0460    0.0000 C   0  0  0  0  0  0  0  0  0  0  0  0
    8.1259    0.7791    0.0000 C   0  0  0  0  0  0  0  0  0  0  0  0
    8.8403   -0.4585    0.0000 C   0  0  0  0  0  0  0  0  0  0  0  0
    9.5548   -0.0460    0.0000 C   0  0  0  0  0  0  0  0  0  0  0  0
    8.8403   -1.2835    0.0000 C   0  0  0  0  0  0  0  0  0  0  0  0
   10.2693   -0.4585    0.0000 C   0  0  0  0  0  0  0  0  0  0  0  0
    9.5548   -1.6960    0.0000 C   0  0  0  0  0  0  0  0  0  0  0  0
    9.5548    0.7791    0.0000 C   0  0  0  0  0  0  0  0  0  0  0  0
   10.2693   -1.2835    0.0000 C   0  0  0  0  0  0  0  0  0  0  0  0
  1  3  1  0
  1 10  1  0
  1 13  1  0
  2 10  2  0
  2 14  1  0
  3 14  2  0
  4 21  2  0
  4 23  1  0
  5  7  1  0
  5 30  2  0
  6  8  2  0
  6 30  1  0
  7  8  1  0
  9 10  1  0
  9 11  1  0
 11 16  1  0
 12 14  1  0
 12 15  1  0
 13 17  1  0
 15 18  1  0
 16 19  1  0
 17 20  2  0
 17 21  1  0
 18 22  1  0
 20 24  1  0
 23 24  2  0
 23 25  1  0
 25 26  1  0
 25 27  2  0
 26 28  2  0
 26 30  1  0
 27 29  1  0
 28 31  1  0
 29 31  2  0
M  END
>  <DRUGBANK_ID>  (1) 
DB01342

>  <COMMON_NAME>  (1) 
Forasartan

>  <CAS_NUMBER>  (1) 
145216-43-9

>  <UNII>  (1) 
065F7WPT0B

>  <SYNONYMS>  (1) 
forasartÃ¡n; Forasartan

$$$$
