3CZ
     RDKit          2D

 29 31  0  0  0  0  0  0  0  0999 V2000
   -1.3347    5.6064    0.0000 O   0  0  0  0  0  0  0  0  0  0  0  0
   -0.6202    5.1939    0.0000 N   0  0  0  0  0  0  0  0  0  0  0  0
    0.0943    5.6064    0.0000 O   0  0  0  0  0  0  0  0  0  0  0  0
   -0.6202    4.3689    0.0000 C   0  0  0  0  0  0  0  0  0  0  0  0
    0.0943    3.9564    0.0000 C   0  0  0  0  0  0  0  0  0  0  0  0
    0.0943    3.1314    0.0000 C   0  0  0  0  0  0  0  0  0  0  0  0
   -1.3347    3.9564    0.0000 C   0  0  0  0  0  0  0  0  0  0  0  0
   -1.3347    3.1314    0.0000 C   0  0  0  0  0  0  0  0  0  0  0  0
   -0.6202    2.7189    0.0000 C   0  0  0  0  0  0  0  0  0  0  0  0
   -0.6202    1.8939    0.0000 N   0  0  0  0  0  0  0  0  0  0  0  0
    0.0943    1.4814    0.0000 C   0  0  0  0  0  0  0  0  0  0  0  0
    0.0943    0.6564    0.0000 C   0  0  0  0  0  0  0  0  0  0  0  0
    0.8087    0.2439    0.0000 C   0  0  0  0  0  0  0  0  0  0  0  0
   -1.3347    1.4814    0.0000 C   0  0  0  0  0  0  0  0  0  0  0  0
   -1.3347    0.6564    0.0000 C   0  0  0  0  0  0  0  0  0  0  0  0
   -0.6202    0.2439    0.0000 N   0  0  0  0  0  0  0  0  0  0  0  0
   -0.6202   -0.5811    0.0000 S   0  0  0  0  0  0  0  0  0  0  0  0
   -1.4452   -0.5811    0.0000 O   0  0  0  0  0  0  0  0  0  0  0  0
    0.2048   -0.5811    0.0000 O   0  0  0  0  0  0  0  0  0  0  0  0
   -0.6202   -1.4061    0.0000 C   0  0  0  0  0  0  0  0  0  0  0  0
    0.0943   -1.8186    0.0000 C   0  0  0  0  0  0  0  0  0  0  0  0
    0.0943   -2.6436    0.0000 C   0  0  0  0  0  0  0  0  0  0  0  0
   -1.3347   -1.8186    0.0000 C   0  0  0  0  0  0  0  0  0  0  0  0
   -1.3347   -2.6436    0.0000 C   0  0  0  0  0  0  0  0  0  0  0  0
   -0.6202   -3.0561    0.0000 C   0  0  0  0  0  0  0  0  0  0  0  0
   -0.6202   -3.8811    0.0000 C   0  0  0  0  0  0  0  0  0  0  0  0
   -0.6202   -4.7061    0.0000 C   0  0  0  0  0  0  0  0  0  0  0  0
   -1.4452   -3.8811    0.0000 C   0  0  0  0  0  0  0  0  0  0  0  0
    0.2048   -3.8811    0.0000 C   0  0  0  0  0  0  0  0  0  0  0  0
  1  2  1  0
  2  3  2  0
  2  4  1  0
  4  5  2  0
  4  7  1  0
  5  6  1  0
  6  9  2  0
  7  8  2  0
  8  9  1  0
  9 10  1  0
 10 11  1  0
 10 14  1  0
 11 12  1  0
 12 13  1  1
 12 16  1  0
 14 15  1  0
 15 16  1  0
 16 17  1  0
 17 18  2  0
 17 19  2  0
 17 20  1  0
 20 21  2  0
 20 23  1  0
 21 22  1  0
 22 25  2  0
 23 24  2  0
 24 25  1  0
 25 26  1  0
 26 27  1  0
 26 28  1  0
 26 29  1  0
M  CHG  2   1  -1   2   1
M  END
>  <DRUGBANK_ID>  (1) 
DB07049

>  <COMMON_NAME>  (1) 
(2R)-1-[(4-tert-butylphenyl)sulfonyl]-2-methyl-4-(4-nitrophenyl)piperazine

$$$$
