
     RDKit          2D

 13 12  0  0  0  0  0  0  0  0999 V2000
    2.4197   -1.7862    0.0000 O   0  0  0  0  0  0  0  0  0  0  0  0
    2.0072   -1.0717    0.0000 C   0  0  0  0  0  0  0  0  0  0  0  0
    2.4197   -0.3571    0.0000 O   0  0  0  0  0  0  0  0  0  0  0  0
    1.1822   -1.0717    0.0000 C   0  0  0  0  0  0  0  0  0  0  0  0
    0.7697   -1.7862    0.0000 N   0  0  0  0  0  0  0  0  0  0  0  0
    0.7697   -0.3571    0.0000 C   0  0  0  0  0  0  0  0  0  0  0  0
   -0.0552   -0.3571    0.0000 C   0  0  0  0  0  0  0  0  0  0  0  0
   -0.4677    0.3572    0.0000 C   0  0  0  0  0  0  0  0  0  0  0  0
   -1.2928    0.3572    0.0000 C   0  0  0  0  0  0  0  0  0  0  0  0
   -1.7053    1.0718    0.0000 N   0  0  0  0  0  0  0  0  0  0  0  0
   -0.9908    1.4842    0.0000 C   0  0  0  0  0  0  0  0  0  0  0  0
   -2.1178    1.7862    0.0000 C   0  0  0  0  0  0  0  0  0  0  0  0
   -2.4197    0.6592    0.0000 C   0  0  0  0  0  0  0  0  0  0  0  0
  2  1  1  0
  3  2  2  0
  4  2  1  0
  4  5  1  1
  6  4  1  0
  7  6  1  0
  8  7  1  0
  9  8  1  0
 10  9  1  0
 11 10  1  0
 12 10  1  0
 13 10  1  0
M  CHG  1  10   1
M  END
>  <DRUGBANK_ID>  (1) 
DB03977

>  <SECONDARY_ACCESSION_NUMBERS>  (1) 
EXPT02087

>  <COMMON_NAME>  (1) 
Trimethyllysine

>  <CAS_NUMBER>  (1) 
19253-88-4

>  <UNII>  (1) 
3YGF0495O2

>  <SYNONYMS>  (1) 
(S)-2-amino-6-(trimethylammonio)hexanoic acid; (S)-5-amino-5-carboxy-N,N,N-trimethyl-1-pentanaminium; epsilon-N-Trimethyl-L-lysine; epsilon-Trimethyl-L-lysine; epsilon-Trimethyllysine; N-Trimethyllysine; N6,N6,N6-Trimethyl-L-lysine; Nε-trimethyllysine; trimethyllysine; ε-N-trimethyl-L-lysine; ε-trimethyl-L-lysine; ε-trimethyllysine

$$$$
