
     RDKit          2D

 13 12  0  0  0  0  0  0  0  0999 V2000
    3.2284    0.2113    0.0000 C   0  0  0  0  0  0  0  0  0  0  0  0
    3.2284   -0.6190    0.0000 O   0  0  0  0  0  0  0  0  0  0  0  0
    3.9381    0.6190    0.0000 O   0  0  0  0  0  0  0  0  0  0  0  0
   -3.2133    0.6190    0.0000 C   0  0  0  0  0  0  0  0  0  0  0  0
   -3.9381    0.2113    0.0000 C   0  0  0  0  0  0  0  0  0  0  0  0
    2.5088    0.6190    0.0000 C   0  0  0  0  0  0  0  0  0  0  0  0
   -2.5037    0.2113    0.0000 C   0  0  0  0  0  0  0  0  0  0  0  0
    1.7993    0.2113    0.0000 C   0  0  0  0  0  0  0  0  0  0  0  0
   -1.7841    0.6190    0.0000 C   0  0  0  0  0  0  0  0  0  0  0  0
   -1.0693    0.2113    0.0000 C   0  0  0  0  0  0  0  0  0  0  0  0
    0.3648    0.2113    0.0000 C   0  0  0  0  0  0  0  0  0  0  0  0
    1.0845    0.6190    0.0000 C   0  0  0  0  0  0  0  0  0  0  0  0
   -0.3496    0.6190    0.0000 C   0  0  0  0  0  0  0  0  0  0  0  0
  2  1  1  0
  3  1  2  0
  4  7  1  0
  5  4  2  0
  6  1  1  0
  7  9  1  0
  8  6  1  0
  9 10  1  0
 10 13  1  0
 11 12  1  0
 12  8  1  0
 13 11  1  0
M  END
>  <DRUGBANK_ID>  (1) 
DB11117

>  <SECONDARY_ACCESSION_NUMBERS>  (1) 
DBSALT001514

>  <COMMON_NAME>  (1) 
Undecylenic acid

>  <CAS_NUMBER>  (1) 
112-38-9

>  <UNII>  (1) 
K3D86KJ24N

>  <SYNONYMS>  (1) 
10-undecenoic acid; Ã¡cido 10-undecenoico; Undecenoic acid; Undecylenate; Undecylenic acid

$$$$
