
     RDKit          2D

 24 28  0  0  0  0  0  0  0  0999 V2000
   -0.9919    0.0929    0.0000 C   0  0  0  0  0  0  0  0  0  0  0  0
   -1.7065   -0.3196    0.0000 C   0  0  0  0  0  0  0  0  0  0  0  0
   -1.7065   -1.1447    0.0000 C   0  0  0  0  0  0  0  0  0  0  0  0
   -0.9919   -1.5571    0.0000 C   0  0  0  0  0  0  0  0  0  0  0  0
   -0.2775   -1.1447    0.0000 C   0  0  0  0  0  0  0  0  0  0  0  0
   -0.2775   -0.3196    0.0000 C   0  0  0  0  0  0  0  0  0  0  0  0
    0.4368    0.0929    0.0000 C   0  0  0  0  0  0  0  0  0  0  0  0
    0.4368   -1.5571    0.0000 C   0  0  0  0  0  0  0  0  0  0  0  0
    1.1514   -1.1447    0.0000 C   0  0  0  0  0  0  0  0  0  0  0  0
    1.1514   -0.3196    0.0000 C   0  0  0  0  0  0  0  0  0  0  0  0
    1.1514    1.3304    0.0000 C   0  0  0  0  0  0  0  0  0  0  0  0
    0.4368    0.9179    0.0000 C   0  0  0  0  0  0  0  0  0  0  0  0
    1.8658    0.0929    0.0000 C   0  0  0  0  0  0  0  0  0  0  0  0
    1.8658    0.9179    0.0000 C   0  0  0  0  0  0  0  0  0  0  0  0
    2.6505    1.1728    0.0000 C   0  0  0  0  0  0  0  0  0  0  0  0
    2.6505   -0.1620    0.0000 C   0  0  0  0  0  0  0  0  0  0  0  0
    3.1354    0.5053    0.0000 C   0  0  0  0  0  0  0  0  0  0  0  0
   -2.4208   -1.5571    0.0000 O   0  0  0  0  0  0  0  0  0  0  0  0
   -2.4208    0.0928    0.0000 C   0  0  0  0  0  0  0  0  0  0  0  0
   -3.1353    0.5053    0.0000 N   0  0  0  0  0  0  0  0  0  0  0  0
   -0.2775   -1.9696    0.0000 O   0  0  0  0  0  0  0  0  0  0  0  0
   -0.2775    0.5053    0.0000 C   0  0  0  0  0  0  0  0  0  0  0  0
    1.8658    1.7429    0.0000 C   0  0  0  0  0  0  0  0  0  0  0  0
    2.8640    1.9697    0.0000 O   0  0  0  0  0  0  0  0  0  0  0  0
  1  2  1  0
  1  6  1  0
  2  3  2  0
  2 19  1  0
  3  4  1  0
  3 18  1  0
  4  5  1  0
  4 21  1  6
  5  8  1  1
  5 21  1  0
  6  5  1  0
  6 22  1  1
  7  6  1  0
  7 10  1  0
  8  9  1  0
 10  9  1  6
 10 13  1  0
 11 12  1  0
 11 14  1  0
  7 12  1  1
 13 16  1  1
 14 13  1  0
 14 23  1  1
 15 14  1  0
 15 17  1  0
 15 24  1  1
 16 17  1  0
 19 20  3  0
M  END
>  <DRUGBANK_ID>  (1) 
DB01108

>  <SECONDARY_ACCESSION_NUMBERS>  (1) 
APRD01276

>  <COMMON_NAME>  (1) 
Trilostane

>  <CAS_NUMBER>  (1) 
13647-35-3

>  <UNII>  (1) 
L0FPV48Q5R

>  <SYNONYMS>  (1) 
Trilostane; Trilostano; Trilostanum

$$$$
