
     RDKit          2D

 23 24  0  0  1  0  0  0  0  0999 V2000
   -2.7679   -2.3346    0.0000 C   0  0  0  0  0  0  0  0  0  0  0  0
   -2.0535   -2.7471    0.0000 C   0  0  0  0  0  0  0  0  0  0  0  0
   -2.0535   -3.5721    0.0000 C   0  0  0  0  0  0  0  0  0  0  0  0
   -1.3390   -2.3346    0.0000 C   0  0  0  0  0  0  0  0  0  0  0  0
   -0.6245   -2.7471    0.0000 C   0  0  0  0  0  0  0  0  0  0  0  0
   -0.6245   -3.5721    0.0000 O   0  0  0  0  0  0  0  0  0  0  0  0
    0.0900   -2.3346    0.0000 O   0  0  0  0  0  0  0  0  0  0  0  0
    0.0900   -1.5096    0.0000 C   0  0  0  0  0  0  0  0  0  0  0  0
   -0.5775   -1.0246    0.0000 C   0  0  0  0  0  0  0  0  0  0  0  0
   -0.3225   -0.2400    0.0000 C   0  0  0  0  0  0  0  0  0  0  0  0
    0.5025   -0.2400    0.0000 O   0  0  0  0  0  0  0  0  0  0  0  0
    0.7574   -1.0246    0.0000 C   0  0  0  0  0  0  0  0  0  0  0  0
    1.5420   -1.2796    0.0000 C   0  0  0  0  0  0  0  0  0  0  0  0
    1.7135   -2.0866    0.0000 O   0  0  0  0  0  0  0  0  0  0  0  0
   -0.8075    0.4274    0.0000 N   0  0  0  0  0  0  0  0  0  0  0  0
   -1.6280    0.3412    0.0000 C   0  0  0  0  0  0  0  0  0  0  0  0
   -2.1129    1.0086    0.0000 C   0  0  0  0  0  0  0  0  0  0  0  0
   -1.7773    1.7623    0.0000 C   0  0  0  0  0  0  0  0  0  0  0  0
   -0.9568    1.8485    0.0000 N   0  0  0  0  0  0  0  0  0  0  0  0
   -0.4719    1.1811    0.0000 C   0  0  0  0  0  0  0  0  0  0  0  0
    0.3486    1.2673    0.0000 O   0  0  0  0  0  0  0  0  0  0  0  0
   -2.2622    2.4297    0.0000 N   0  0  0  0  0  0  0  0  0  0  0  0
   -1.3390   -1.5096    0.0000 N   0  0  0  0  0  0  0  0  0  0  0  0
  1  2  1  0
  2  3  1  0
  2  4  1  0
  4  5  1  0
  4 23  1  6
  5  6  2  0
  5  7  1  0
  8  7  1  6
  8  9  1  0
  8 12  1  0
  9 10  1  0
 10 11  1  0
 10 15  1  1
 11 12  1  0
 12 13  1  1
 13 14  1  0
 15 16  1  0
 15 20  1  0
 16 17  2  0
 17 18  1  0
 18 19  2  0
 18 22  1  0
 19 20  1  0
 20 21  2  0
M  END
>  <DRUGBANK_ID>  (1) 
DB06187

>  <COMMON_NAME>  (1) 
Valtorcitabine

>  <CAS_NUMBER>  (1) 
380886-95-3

>  <UNII>  (1) 
D5YQG6AQXP

>  <SYNONYMS>  (1) 
Valtorcitabine

$$$$
