
     RDKit          2D

  8  7  0  0  0  0  0  0  0  0999 V2000
    1.7862   -0.0783    0.0000 O   0  0  0  0  0  0  0  0  0  0  0  0
    1.0717    1.1592    0.0000 O   0  0  0  0  0  0  0  0  0  0  0  0
   -0.3572    0.3341    0.0000 N   0  0  0  0  0  0  0  0  0  0  0  0
   -1.7862    0.3341    0.0000 N   0  0  0  0  0  0  0  0  0  0  0  0
   -1.0717   -0.9034    0.0000 N   0  0  0  0  0  0  0  0  0  0  0  0
    0.3572   -0.0783    0.0000 C   0  0  0  0  0  0  0  0  0  0  0  0
   -1.0717   -0.0783    0.0000 C   0  0  0  0  0  0  0  0  0  0  0  0
    1.0717    0.3341    0.0000 C   0  0  0  0  0  0  0  0  0  0  0  0
  1  8  1  0
  2  8  2  0
  3  6  1  0
  3  7  2  3
  4  7  1  0
  5  7  1  0
  6  8  1  0
M  END
>  <DRUGBANK_ID>  (1) 
DB02751

>  <SECONDARY_ACCESSION_NUMBERS>  (1) 
EXPT02364

>  <COMMON_NAME>  (1) 
Glycocyamine

>  <CAS_NUMBER>  (1) 
352-97-6

>  <UNII>  (1) 
GO52O1A04E

>  <SYNONYMS>  (1) 
Amidinoglycine; Betacyamine; Guanidineacetic acid; Guanidoacetic acid; Guanyl glycine; N-(aminoiminomethyl)glycine; N-amidinoglycine

$$$$
