U32
     RDKit          2D

 19 20  0  0  0  0  0  0  0  0999 V2000
   -4.0269   -0.4913    0.0000 O   0  0  0  0  0  0  0  0  0  0  0  0
   -3.2926   -1.3980    0.0000 O   0  0  0  0  0  0  0  0  0  0  0  0
    0.9730    1.0145    0.0000 C   0  0  0  0  0  0  0  0  0  0  0  0
    1.6404    0.5296    0.0000 C   0  0  0  0  0  0  0  0  0  0  0  0
    2.4250    0.7845    0.0000 C   0  0  0  0  0  0  0  0  0  0  0  0
    2.5966    1.5915    0.0000 C   0  0  0  0  0  0  0  0  0  0  0  0
    3.0381    0.2325    0.0000 C   0  0  0  0  0  0  0  0  0  0  0  0
    1.3855   -0.2551    0.0000 S   0  0  0  0  0  0  0  0  0  0  0  0
    0.5605   -0.2551    0.0000 C   0  0  0  0  0  0  0  0  0  0  0  0
    0.3055    0.5296    0.0000 N   0  0  0  0  0  0  0  0  0  0  0  0
   -3.1201    0.2429    0.0000 N   0  0  0  0  0  0  0  0  0  0  0  0
   -2.0503   -1.4175    0.0000 C   0  0  0  0  0  0  0  0  0  0  0  0
   -2.3859   -0.6638    0.0000 C   0  0  0  0  0  0  0  0  0  0  0  0
    0.0755   -0.9225    0.0000 N   0  0  0  0  0  0  0  0  0  0  0  0
   -1.9010    0.0036    0.0000 C   0  0  0  0  0  0  0  0  0  0  0  0
   -1.0805   -0.0826    0.0000 C   0  0  0  0  0  0  0  0  0  0  0  0
   -0.7449   -0.8363    0.0000 C   0  0  0  0  0  0  0  0  0  0  0  0
   -1.2299   -1.5037    0.0000 C   0  0  0  0  0  0  0  0  0  0  0  0
   -3.2064   -0.5776    0.0000 S   0  0  0  0  0  0  0  0  0  0  0  0
  1 19  2  0
  2 19  2  0
  3  4  2  0
  3 10  1  0
  4  5  1  0
  4  8  1  0
  5  6  1  0
  5  7  1  0
  8  9  1  0
  9 10  2  0
  9 14  1  0
 11 19  1  0
 12 13  2  0
 12 18  1  0
 13 15  1  0
 13 19  1  0
 14 17  1  0
 15 16  2  0
 16 17  1  0
 17 18  2  0
M  END
>  <DRUGBANK_ID>  (1) 
DB08673

>  <COMMON_NAME>  (1) 
4-[(5-ISOPROPYL-1,3-THIAZOL-2-YL)AMINO]BENZENESULFONAMIDE

$$$$
