
     RDKit          2D

 19 19  0  0  0  0  0  0  0  0999 V2000
   -1.1112    1.0093    0.0000 C   0  0  0  0  0  0  0  0  0  0  0  0
   -1.3684    0.2232    0.0000 C   0  0  0  0  0  0  0  0  0  0  0  0
   -1.7760    1.4946    0.0000 S   0  0  0  0  0  0  0  0  0  0  0  0
   -0.6551   -0.1844    0.0000 N   0  0  0  0  0  0  0  0  0  0  0  0
   -2.1932    0.2232    0.0000 C   0  0  0  0  0  0  0  0  0  0  0  0
   -0.6600   -1.0142    0.0000 C   0  0  0  0  0  0  0  0  0  0  0  0
   -0.4026    1.4314    0.0000 C   0  0  0  0  0  0  0  0  0  0  0  0
   -2.4456    1.0093    0.0000 C   0  0  0  0  0  0  0  0  0  0  0  0
   -1.3780   -1.4218    0.0000 O   0  0  0  0  0  0  0  0  0  0  0  0
   -0.4075    2.2515    0.0000 O   0  0  0  0  0  0  0  0  0  0  0  0
    0.0533   -1.4265    0.0000 C   0  0  0  0  0  0  0  0  0  0  0  0
    0.3202    1.0238    0.0000 O   0  0  0  0  0  0  0  0  0  0  0  0
    0.7666   -1.0189    0.0000 N   0  0  0  0  0  0  0  0  0  0  0  0
   -2.9115   -0.1844    0.0000 C   0  0  0  0  0  0  0  0  0  0  0  0
    1.4799   -1.4314    0.0000 C   0  0  0  0  0  0  0  0  0  0  0  0
    0.0485   -2.2515    0.0000 C   0  0  0  0  0  0  0  0  0  0  0  0
    1.0286    1.4460    0.0000 C   0  0  0  0  0  0  0  0  0  0  0  0
    2.1982   -1.0238    0.0000 C   0  0  0  0  0  0  0  0  0  0  0  0
    2.9115   -1.4363    0.0000 C   0  0  0  0  0  0  0  0  0  0  0  0
  2  1  2  0
  3  1  1  0
  4  2  1  0
  5  2  1  0
  5  8  2  0
  6  4  1  0
  7  1  1  0
  8  3  1  0
  9  6  2  0
 10  7  2  0
 11  6  1  0
 12  7  1  0
 13 11  1  0
 14  5  1  0
 15 13  1  0
 16 11  1  0
 17 12  1  0
 18 15  1  0
 19 18  1  0
M  END
>  <DRUGBANK_ID>  (1) 
DB09009

>  <COMMON_NAME>  (1) 
Articaine

>  <CAS_NUMBER>  (1) 
23964-58-1

>  <UNII>  (1) 
D3SQ406G9X

>  <SYNONYMS>  (1) 
Artica√≠na; Articaine; Articainum

$$$$
