
     RDKit          2D

 22 26  0  0  0  0  0  0  0  0999 V2000
   -1.0717    0.4124    0.0000 C   0  0  0  0  0  0  0  0  0  0  0  0
   -1.0717   -0.4125    0.0000 C   0  0  0  0  0  0  0  0  0  0  0  0
   -1.7863    0.8249    0.0000 C   0  0  0  0  0  0  0  0  0  0  0  0
   -1.7863   -0.8250    0.0000 C   0  0  0  0  0  0  0  0  0  0  0  0
   -2.5008    0.4124    0.0000 C   0  0  0  0  0  0  0  0  0  0  0  0
   -2.5008   -0.4125    0.0000 C   0  0  0  0  0  0  0  0  0  0  0  0
    0.3574    0.4124    0.0000 N   0  0  0  0  0  0  0  0  0  0  0  0
    0.3574   -0.4125    0.0000 C   0  0  0  0  0  0  0  0  0  0  0  0
   -0.3573    0.8249    0.0000 C   0  0  0  0  0  0  0  0  0  0  0  0
   -0.3573   -0.8250    0.0000 C   0  0  0  0  0  0  0  0  0  0  0  0
   -0.3573   -1.6500    0.0000 C   0  0  0  0  0  0  0  0  0  0  0  0
   -1.0718   -2.0625    0.0000 C   0  0  0  0  0  0  0  0  0  0  0  0
   -1.7862   -1.6500    0.0000 C   0  0  0  0  0  0  0  0  0  0  0  0
   -0.3573    1.6501    0.0000 O   0  0  0  0  0  0  0  0  0  0  0  0
    1.0718    0.8249    0.0000 C   0  0  0  0  0  0  0  0  0  0  0  0
    1.0718    1.6500    0.0000 C   0  0  0  0  0  0  0  0  0  0  0  0
    1.7864    0.4124    0.0000 C   0  0  0  0  0  0  0  0  0  0  0  0
    1.7864    2.0625    0.0000 N   0  0  0  0  0  0  0  0  0  0  0  0
    2.5008    0.8249    0.0000 C   0  0  0  0  0  0  0  0  0  0  0  0
    2.5008    1.6500    0.0000 C   0  0  0  0  0  0  0  0  0  0  0  0
    1.5080    1.0972    0.0000 C   0  0  0  0  0  0  0  0  0  0  0  0
    2.0962    1.3106    0.0000 C   0  0  0  0  0  0  0  0  0  0  0  0
  1  9  1  0
  2  1  1  0
  2 10  1  0
  3  1  2  0
  4  2  2  0
  5  3  1  0
  6  4  1  0
  6  5  2  0
  8  7  1  0
  9  7  1  0
  9 14  2  0
 10  8  1  1
 11 10  1  0
 12 11  1  0
 13 12  1  0
 13  4  1  0
 15  7  1  6
 16 15  1  0
 17 15  1  0
 17 21  1  0
 18 16  1  0
 19 17  1  0
 20 18  1  0
 20 19  1  0
 21 22  1  0
 22 18  1  0
M  END
>  <DRUGBANK_ID>  (1) 
DB00377

>  <SECONDARY_ACCESSION_NUMBERS>  (1) 
APRD00351

>  <COMMON_NAME>  (1) 
Palonosetron

>  <CAS_NUMBER>  (1) 
135729-56-5

>  <UNII>  (1) 
5D06587D6R

>  <SYNONYMS>  (1) 
(3aS)-2-[(3S)-1-azabicyclo[2.2.2]octan-3-yl]-2,3,3a,4,5,6-hexahydro-1H-benzo[de]isoquinolin-1-one; 2-(1-Azabicyclo(2.2.2)oct-3-yl)-2,3,3a,4,5,6-hexahydro-1H-benz(de)isoquinolin-1-one; Palonosetron; Palonosétron; Palonosetrón; Palonosetronum

$$$$
