
     RDKit          2D

 21 22  0  0  1  0  0  0  0  0999 V2000
   -3.0677   -3.1317    0.0000 N   0  0  0  0  0  0  0  0  0  0  0  0
   -2.3532   -2.7192    0.0000 C   0  0  0  0  0  0  0  0  0  0  0  0
   -1.6387   -3.1317    0.0000 C   0  0  0  0  0  0  0  0  0  0  0  0
   -0.9243   -2.7192    0.0000 O   0  0  0  0  0  0  0  0  0  0  0  0
   -0.2098   -3.1317    0.0000 N   0  0  0  0  0  0  0  0  0  0  0  0
    0.5047   -2.7192    0.0000 C   0  0  0  0  0  0  0  0  0  0  0  0
    0.5047   -1.8942    0.0000 O   0  0  0  0  0  0  0  0  0  0  0  0
    1.2192   -3.1317    0.0000 C   0  0  0  0  0  0  0  0  0  0  0  0
    1.1575   -3.9544    0.0000 C   0  0  0  0  0  0  0  0  0  0  0  0
    1.7623   -4.5156    0.0000 C   0  0  0  0  0  0  0  0  0  0  0  0
    2.5781   -4.3926    0.0000 C   0  0  0  0  0  0  0  0  0  0  0  0
    2.4551   -3.4452    0.0000 C   0  0  0  0  0  0  0  0  0  0  0  0
    1.9008   -2.6670    0.0000 N   0  0  0  0  0  0  0  0  0  0  0  0
    2.6891   -2.9102    0.0000 C   0  0  0  0  0  0  0  0  0  0  0  0
    3.2503   -2.3054    0.0000 O   0  0  0  0  0  0  0  0  0  0  0  0
    2.9906   -3.6782    0.0000 N   0  0  0  0  0  0  0  0  0  0  0  0
    3.8132   -3.7398    0.0000 O   0  0  0  0  0  0  0  0  0  0  0  0
    4.2780   -3.0582    0.0000 S   0  0  0  0  0  0  0  0  0  0  0  0
    4.7427   -2.3765    0.0000 O   0  0  0  0  0  0  0  0  0  0  0  0
    4.9596   -3.5229    0.0000 O   0  0  0  0  0  0  0  0  0  0  0  0
    3.5963   -2.5934    0.0000 O   0  0  0  0  0  0  0  0  0  0  0  0
  1  2  1  0
  2  3  1  0
  3  4  1  0
  4  5  1  0
  5  6  1  0
  6  7  2  0
  8  6  1  1
  8  9  1  0
  8 13  1  0
  9 10  1  0
 11 10  1  6
 11 12  1  0
 11 16  1  0
 13 12  1  0
 13 14  1  0
 14 15  2  0
 14 16  1  0
 16 17  1  0
 17 18  1  0
 18 19  1  0
 18 20  2  0
 18 21  2  0
M  END
>  <DRUGBANK_ID>  (1) 
DB15353

>  <COMMON_NAME>  (1) 
Nacubactam

>  <CAS_NUMBER>  (1) 
1452458-86-4

>  <UNII>  (1) 
832O37V7MZ

>  <SYNONYMS>  (1) 
Nacubactam

$$$$
