
     RDKit          2D

 36 40  0  0  0  0  0  0  0  0999 V2000
    0.3896   -0.3913    0.0000 C   0  0  0  0  0  0  0  0  0  0  0  0
   -4.7529    2.8735    0.0000 C   0  0  0  0  0  0  0  0  0  0  0  0
    3.4817   -3.4342    0.0000 C   0  0  0  0  0  0  0  0  0  0  0  0
   -4.5699    2.0691    0.0000 C   0  0  0  0  0  0  0  0  0  0  0  0
   -4.1476    3.4342    0.0000 C   0  0  0  0  0  0  0  0  0  0  0  0
    4.1784   -2.9924    0.0000 C   0  0  0  0  0  0  0  0  0  0  0  0
    2.7507   -3.0518    0.0000 C   0  0  0  0  0  0  0  0  0  0  0  0
   -3.7818    1.8253    0.0000 C   0  0  0  0  0  0  0  0  0  0  0  0
   -3.3595    3.1904    0.0000 C   0  0  0  0  0  0  0  0  0  0  0  0
    4.1441   -2.1681    0.0000 C   0  0  0  0  0  0  0  0  0  0  0  0
    2.7164   -2.2275    0.0000 C   0  0  0  0  0  0  0  0  0  0  0  0
   -2.2054    1.3377    0.0000 C   0  0  0  0  0  0  0  0  0  0  0  0
   -1.7832    2.7028    0.0000 C   0  0  0  0  0  0  0  0  0  0  0  0
   -1.4173    1.0939    0.0000 C   0  0  0  0  0  0  0  0  0  0  0  0
   -0.9950    2.4591    0.0000 C   0  0  0  0  0  0  0  0  0  0  0  0
   -0.8408   -0.5437    0.0000 C   0  0  0  0  0  0  0  0  0  0  0  0
   -0.8408    0.2812    0.0000 C   0  0  0  0  0  0  0  0  0  0  0  0
    0.6084   -0.8745    0.0000 C   0  0  0  0  0  0  0  0  0  0  0  0
    0.6084    0.6120    0.0000 C   0  0  0  0  0  0  0  0  0  0  0  0
    0.1871    0.4825    0.0000 C   0  0  0  0  0  0  0  0  0  0  0  0
    3.9461   -0.3330    0.0000 C   0  0  0  0  0  0  0  0  0  0  0  0
   -3.1765    2.3860    0.0000 C   0  0  0  0  0  0  0  0  0  0  0  0
   -2.3884    2.1422    0.0000 C   0  0  0  0  0  0  0  0  0  0  0  0
    3.4131   -1.7856    0.0000 C   0  0  0  0  0  0  0  0  0  0  0  0
   -0.8121    1.6546    0.0000 C   0  0  0  0  0  0  0  0  0  0  0  0
   -0.1958   -1.0581    0.0000 C   0  0  0  0  0  0  0  0  0  0  0  0
   -0.1958    0.7955    0.0000 C   0  0  0  0  0  0  0  0  0  0  0  0
    0.9664   -0.1312    0.0000 C   0  0  0  0  0  0  0  0  0  0  0  0
    3.3788   -0.9614    0.0000 C   0  0  0  0  0  0  0  0  0  0  0  0
   -0.0239    1.4108    0.0000 C   0  0  0  0  0  0  0  0  0  0  0  0
    2.6085   -0.5583    0.0000 C   0  0  0  0  0  0  0  0  0  0  0  0
   -0.4275   -0.1312    0.0000 N   0  0  0  0  0  0  0  0  0  0  0  0
    4.7529   -0.5056    0.0000 O   0  0  0  0  0  0  0  0  0  0  0  0
    0.5812    1.9715    0.0000 O   0  0  0  0  0  0  0  0  0  0  0  0
    2.6054   -1.3833    0.0000 O   0  0  0  0  0  0  0  0  0  0  0  0
    1.8798   -0.1341    0.0000 O   0  0  0  0  0  0  0  0  0  0  0  0
  4  2  2  0
  5  2  1  0
  6  3  2  0
  7  3  1  0
  8  4  1  0
  9  5  2  0
 10  6  1  0
 11  7  2  0
 14 12  2  0
 15 13  1  0
 17 16  1  0
 22  8  2  0
 22  9  1  0
 23 12  1  0
 23 13  2  0
 23 22  1  0
 24 10  2  0
 24 11  1  0
 25 14  1  0
 25 15  2  0
 26 16  1  1
 26 18  1  0
 27 17  1  1
 27 19  1  0
 28 18  1  0
 28 19  1  0
 28 36  1  1
 29 21  1  6
 29 24  1  0
 29 31  1  0
 30 20  1  0
 30 25  1  0
 32  1  1  0
 32 20  1  0
 32 26  1  0
 32 27  1  0
 33 21  1  0
 34 30  2  0
 35 31  2  0
 36 31  1  0
M  CHG  1  32   1
M  END
>  <DRUGBANK_ID>  (1) 
DB08978

>  <COMMON_NAME>  (1) 
Fentonium

>  <CAS_NUMBER>  (1) 
34786-74-8

>  <UNII>  (1) 
26BF4S8FO5

$$$$
