
     RDKit          2D

 27 27  0  0  0  0  0  0  0  0999 V2000
    3.3751    4.9500    0.0000 S   0  0  0  0  0  0  0  0  0  0  0  0
    0.5172   -2.4750    0.0000 O   0  0  0  0  0  0  0  0  0  0  0  0
   -0.1972    0.4125    0.0000 O   0  0  0  0  0  0  0  0  0  0  0  0
    2.6606    1.2375    0.0000 O   0  0  0  0  0  0  0  0  0  0  0  0
   -1.6261   -2.0625    0.0000 N   0  0  0  0  0  0  0  0  0  0  0  0
   -0.1972   -1.2375    0.0000 N   0  0  0  0  0  0  0  0  0  0  0  0
   -2.8636   -2.7770    0.0000 N   0  0  0  0  0  0  0  0  0  0  0  0
   -2.8636   -1.3479    0.0000 N   0  0  0  0  0  0  0  0  0  0  0  0
    1.2317    0.4125    0.0000 N   0  0  0  0  0  0  0  0  0  0  0  0
    1.9461    2.4750    0.0000 N   0  0  0  0  0  0  0  0  0  0  0  0
   -0.9117   -3.3000    0.0000 C   0  0  0  0  0  0  0  0  0  0  0  0
   -1.6261   -3.7125    0.0000 C   0  0  0  0  0  0  0  0  0  0  0  0
   -0.1972   -3.7125    0.0000 C   0  0  0  0  0  0  0  0  0  0  0  0
   -1.6261   -4.5375    0.0000 C   0  0  0  0  0  0  0  0  0  0  0  0
   -0.1972   -4.5375    0.0000 C   0  0  0  0  0  0  0  0  0  0  0  0
   -0.9117   -4.9500    0.0000 C   0  0  0  0  0  0  0  0  0  0  0  0
   -0.9117   -2.4750    0.0000 C   0  0  0  0  0  0  0  0  0  0  0  0
   -0.1972   -2.0625    0.0000 C   0  0  0  0  0  0  0  0  0  0  0  0
   -2.4511   -2.0625    0.0000 C   0  0  0  0  0  0  0  0  0  0  0  0
    0.5172   -0.8250    0.0000 C   0  0  0  0  0  0  0  0  0  0  0  0
    0.5172    0.0000    0.0000 C   0  0  0  0  0  0  0  0  0  0  0  0
    1.2317    1.2375    0.0000 C   0  0  0  0  0  0  0  0  0  0  0  0
    1.9461    1.6500    0.0000 C   0  0  0  0  0  0  0  0  0  0  0  0
    0.5172    1.6500    0.0000 C   0  0  0  0  0  0  0  0  0  0  0  0
    2.6606    2.8875    0.0000 C   0  0  0  0  0  0  0  0  0  0  0  0
    2.6606    3.7125    0.0000 C   0  0  0  0  0  0  0  0  0  0  0  0
    3.3751    4.1250    0.0000 C   0  0  0  0  0  0  0  0  0  0  0  0
  1 27  1  0
  2 18  2  0
  3 21  2  0
  4 23  2  0
  5 19  2  3
  6 18  1  0
  6 20  1  0
  7 19  1  0
  8 19  1  0
  9 21  1  0
 10 23  1  0
 10 25  1  0
 11 12  1  0
 11 13  1  0
 11 17  1  0
 12 14  1  0
 13 15  1  0
 14 16  1  0
 15 16  1  0
 17  5  1  1
 17 18  1  0
 20 21  1  0
 22  9  1  0
 22 23  1  0
 22 24  1  1
 25 26  1  0
 26 27  1  0
M  END
>  <DRUGBANK_ID>  (1) 
DB04278

>  <SECONDARY_ACCESSION_NUMBERS>  (1) 
EXPT02368

>  <COMMON_NAME>  (1) 
2-[2-(2-Cyclohexyl-2-guanidino-acetylamino)-acetylamino]-N-(3-mercapto-propyl)-propionamide

>  <SYNONYMS>  (1) 
N-{(2R)-2-Cyclohexyl-2-[(diaminomethylene)amino]acetyl}glycyl-N-(3-sulfanylpropyl)-L-alaninamide

$$$$
