GG1
     RDKit          2D

 32 35  0  0  0  0  0  0  0  0999 V2000
   -1.1006   -2.5726    0.0000 N   0  0  0  0  0  0  0  0  0  0  0  0
   -2.5296   -0.9226    0.0000 C   0  0  0  0  0  0  0  0  0  0  0  0
   -1.1006   -0.9226    0.0000 C   0  0  0  0  0  0  0  0  0  0  0  0
    1.0428   -2.1601    0.0000 C   0  0  0  0  0  0  0  0  0  0  0  0
    1.7573   -0.9226    0.0000 C   0  0  0  0  0  0  0  0  0  0  0  0
    1.0428   -1.3351    0.0000 C   0  0  0  0  0  0  0  0  0  0  0  0
   -4.6730   -2.1601    0.0000 C   0  0  0  0  0  0  0  0  0  0  0  0
   -4.6730   -1.3351    0.0000 C   0  0  0  0  0  0  0  0  0  0  0  0
   -3.9585   -0.9226    0.0000 C   0  0  0  0  0  0  0  0  0  0  0  0
   -3.2440   -2.1601    0.0000 C   0  0  0  0  0  0  0  0  0  0  0  0
    3.9007   -0.5101    0.0000 C   0  0  0  0  0  0  0  0  0  0  0  0
   -3.2440   -1.3351    0.0000 C   0  0  0  0  0  0  0  0  0  0  0  0
   -0.3862   -1.3351    0.0000 C   0  0  0  0  0  0  0  0  0  0  0  0
   -5.3875   -2.5726    0.0000 C   0  0  0  0  0  0  0  0  0  0  0  0
    2.4717   -0.5101    0.0000 C   0  0  0  0  0  0  0  0  0  0  0  0
   -5.3875   -3.3976    0.0000 O   0  0  0  0  0  0  0  0  0  0  0  0
   -6.1019   -2.1601    0.0000 O   0  0  0  0  0  0  0  0  0  0  0  0
   -3.9585   -2.5726    0.0000 C   0  0  0  0  0  0  0  0  0  0  0  0
   -1.8151   -1.3351    0.0000 N   0  0  0  0  0  0  0  0  0  0  0  0
   -1.1006   -0.0976    0.0000 O   0  0  0  0  0  0  0  0  0  0  0  0
   -0.3862   -2.1601    0.0000 C   0  0  0  0  0  0  0  0  0  0  0  0
    0.3283   -2.5726    0.0000 C   0  0  0  0  0  0  0  0  0  0  0  0
   -1.1006   -3.3976    0.0000 C   0  0  0  0  0  0  0  0  0  0  0  0
   -1.8151   -2.1601    0.0000 C   0  0  0  0  0  0  0  0  0  0  0  0
   -2.5296   -2.5726    0.0000 O   0  0  0  0  0  0  0  0  0  0  0  0
    0.3283   -0.9226    0.0000 C   0  0  0  0  0  0  0  0  0  0  0  0
    3.1862   -0.0976    0.0000 C   0  0  0  0  0  0  0  0  0  0  0  0
    4.6151   -0.0976    0.0000 C   0  0  0  0  0  0  0  0  0  0  0  0
    5.3296   -0.5101    0.0000 C   0  0  0  0  0  0  0  0  0  0  0  0
    3.9007   -1.3351    0.0000 C   0  0  0  0  0  0  0  0  0  0  0  0
    4.6151   -1.7476    0.0000 C   0  0  0  0  0  0  0  0  0  0  0  0
    5.3296   -1.3351    0.0000 C   0  0  0  0  0  0  0  0  0  0  0  0
  1 23  1  0
  1 21  1  0
  1 24  1  0
  2 19  1  0
  2 12  1  0
  3 13  1  0
  3 19  1  0
  3 20  2  0
  4 22  2  0
  4  6  1  0
  5 15  3  0
  5  6  1  0
  6 26  2  0
  7  8  2  0
  7 18  1  0
  7 14  1  0
  8  9  1  0
  9 12  2  0
 10 12  1  0
 10 18  2  0
 11 28  2  0
 11 27  1  0
 11 30  1  0
 13 21  2  0
 13 26  1  0
 14 16  2  0
 14 17  1  0
 15 27  1  0
 19 24  1  0
 21 22  1  0
 24 25  2  0
 28 29  1  0
 29 32  2  0
 30 31  2  0
 31 32  1  0
M  END
>  <DRUGBANK_ID>  (1) 
DB07827

>  <COMMON_NAME>  (1) 
4-{[1-METHYL-2,4-DIOXO-6-(3-PHENYLPROP-1-YN-1-YL)-1,4-DIHYDROQUINAZOLIN-3(2H)-YL]METHYL}BENZOIC ACID

$$$$
