
     RDKit          2D

 11 10  0  0  0  0  0  0  0  0999 V2000
    1.5159    0.2393    0.0000 C   0  0  0  0  0  0  0  0  0  0  0  0
    0.8014   -0.1731    0.0000 C   0  0  0  0  0  0  0  0  0  0  0  0
    1.5159    1.0643    0.0000 O   0  0  0  0  0  0  0  0  0  0  0  0
    0.8014   -0.9981    0.0000 N   0  0  0  0  0  0  0  0  0  0  0  0
    0.0870    0.2393    0.0000 C   0  0  0  0  0  0  0  0  0  0  0  0
   -0.6274   -0.1731    0.0000 O   0  0  0  0  0  0  0  0  0  0  0  0
    2.2304   -0.1731    0.0000 O   0  0  0  0  0  0  0  0  0  0  0  0
   -1.4205   -0.1848    0.0000 S   0  0  0  0  0  0  0  0  0  0  0  0
   -1.4087   -1.0643    0.0000 O   0  0  0  0  0  0  0  0  0  0  0  0
   -1.4244    0.7338    0.0000 O   0  0  0  0  0  0  0  0  0  0  0  0
   -2.2304   -0.1809    0.0000 O   0  0  0  0  0  0  0  0  0  0  0  0
  1  2  1  0
  1  3  2  0
  2  4  1  1
  2  5  1  0
  5  6  1  0
  6  8  1  0
  7  1  1  0
  9  8  2  0
 10  8  2  0
 11  8  1  0
M  END
>  <DRUGBANK_ID>  (1) 
DB03497

>  <SECONDARY_ACCESSION_NUMBERS>  (1) 
EXPT02449

>  <COMMON_NAME>  (1) 
L-serine O-sulfate

>  <CAS_NUMBER>  (1) 
626-69-7

>  <UNII>  (1) 
81K4VO7FNP

>  <SYNONYMS>  (1) 
O-sulfo-L-serine; O-sulfonato-L-serine; Serine O-sulfate; Sulfoserine

$$$$
