5289593
     RDKit          2D

 13 12  0  0  1  0  0  0  0  0999 V2000
    3.7932   -1.0312    0.0000 O   0  0  0  0  0  0  0  0  0  0  0  0
    4.5076    1.0312    0.0000 O   0  0  0  0  0  0  0  0  0  0  0  0
    3.0787    1.0312    0.0000 O   0  0  0  0  0  0  0  0  0  0  0  0
    5.2219   -1.0312    0.0000 O   0  0  0  0  0  0  0  0  0  0  0  0
    1.6498    0.2063    0.0000 O   0  0  0  0  0  0  0  0  0  0  0  0
    2.3643   -1.0312    0.0000 O   0  0  0  0  0  0  0  0  0  0  0  0
    6.6509   -0.2063    0.0000 O   0  0  0  0  0  0  0  0  0  0  0  0
    5.9365    0.2063    0.0000 N   0  0  0  0  0  0  0  0  0  0  0  0
    3.7932   -0.2063    0.0000 C   0  0  0  0  0  0  0  0  0  0  0  0
    4.5076    0.2063    0.0000 C   0  0  0  0  0  0  0  0  0  0  0  0
    3.0787    0.2063    0.0000 C   0  0  0  0  0  0  0  0  0  0  0  0
    5.2219   -0.2063    0.0000 C   0  0  0  0  0  0  0  0  0  0  0  0
    2.3643   -0.2063    0.0000 C   0  0  0  0  0  0  0  0  0  0  0  0
  4 12  2  0
  5 13  1  0
  6 13  2  0
  7  8  1  0
  8 12  1  0
  9  1  1  6
  9 10  1  0
  9 11  1  0
 10  2  1  6
 10 12  1  0
 11  3  1  6
 11 13  1  0
M  CHG  1   5  -1
M  END
>  <DRUGBANK_ID>  (1) 
DB03734

>  <SECONDARY_ACCESSION_NUMBERS>  (1) 
EXPT03267

>  <COMMON_NAME>  (1) 
Xylarohydroxamate

$$$$
