AM8
     RDKit          2D

 31 34  0  0  0  0  0  0  0  0999 V2000
   -3.5681   -1.7595    0.0000 C   0  0  0  0  0  0  0  0  0  0  0  0
   -3.0161   -1.1464    0.0000 C   0  0  0  0  0  0  0  0  0  0  0  0
   -2.1956   -1.2327    0.0000 C   0  0  0  0  0  0  0  0  0  0  0  0
   -1.7831   -1.9471    0.0000 C   0  0  0  0  0  0  0  0  0  0  0  0
   -3.1876   -0.3395    0.0000 C   0  0  0  0  0  0  0  0  0  0  0  0
   -3.9413   -0.0039    0.0000 C   0  0  0  0  0  0  0  0  0  0  0  0
   -2.4731    0.0730    0.0000 N   0  0  0  0  0  0  0  0  0  0  0  0
   -1.8600   -0.4790    0.0000 C   0  0  0  0  0  0  0  0  0  0  0  0
   -1.0531   -0.3075    0.0000 C   0  0  0  0  0  0  0  0  0  0  0  0
   -0.7981    0.4772    0.0000 C   0  0  0  0  0  0  0  0  0  0  0  0
   -0.0135    0.7321    0.0000 C   0  0  0  0  0  0  0  0  0  0  0  0
    0.7010    0.3196    0.0000 C   0  0  0  0  0  0  0  0  0  0  0  0
   -1.2830    1.1446    0.0000 C   0  0  0  0  0  0  0  0  0  0  0  0
   -2.1080    1.1446    0.0000 O   0  0  0  0  0  0  0  0  0  0  0  0
   -0.7981    1.8120    0.0000 N   0  0  0  0  0  0  0  0  0  0  0  0
   -0.0135    1.5571    0.0000 C   0  0  0  0  0  0  0  0  0  0  0  0
    0.7010    1.9696    0.0000 C   0  0  0  0  0  0  0  0  0  0  0  0
    1.4154    1.5571    0.0000 C   0  0  0  0  0  0  0  0  0  0  0  0
    1.4154    0.7321    0.0000 C   0  0  0  0  0  0  0  0  0  0  0  0
    2.1299    0.3196    0.0000 S   0  0  0  0  0  0  0  0  0  0  0  0
    1.7174   -0.3949    0.0000 O   0  0  0  0  0  0  0  0  0  0  0  0
    2.5424    1.0341    0.0000 O   0  0  0  0  0  0  0  0  0  0  0  0
    2.8444   -0.0929    0.0000 N   0  0  0  0  0  0  0  0  0  0  0  0
    2.8444   -0.9179    0.0000 C   0  0  0  0  0  0  0  0  0  0  0  0
    3.5589    0.3196    0.0000 C   0  0  0  0  0  0  0  0  0  0  0  0
    4.2733   -0.0929    0.0000 C   0  0  0  0  0  0  0  0  0  0  0  0
    4.9878    0.3196    0.0000 C   0  0  0  0  0  0  0  0  0  0  0  0
    5.7023   -0.0929    0.0000 Cl  0  0  0  0  0  0  0  0  0  0  0  0
    4.9878    1.1446    0.0000 C   0  0  0  0  0  0  0  0  0  0  0  0
    4.2733    1.5571    0.0000 C   0  0  0  0  0  0  0  0  0  0  0  0
    3.5589    1.1446    0.0000 C   0  0  0  0  0  0  0  0  0  0  0  0
  2  1  1  0
  3  2  1  0
  4  3  1  0
  5  2  2  0
  5  6  1  0
  7  5  1  0
  8  7  1  0
  8  3  2  0
  9  8  1  0
 10  9  1  0
 11 10  2  0
 12 11  1  0
 13 10  1  0
 13 14  2  0
 15 13  1  0
 16 15  2  0
 16 11  1  0
 17 16  1  0
 18 17  2  0
 18 19  1  0
 19 12  2  0
 20 19  1  0
 20 21  2  0
 22 20  2  0
 23 25  1  0
 23 20  1  0
 24 23  1  0
 25 31  1  0
 26 25  2  0
 26 27  1  0
 27 29  2  0
 28 27  1  0
 29 30  1  0
 31 30  2  0
M  END
>  <DRUGBANK_ID>  (1) 
DB07369

>  <COMMON_NAME>  (1) 
N-(3-chlorophenyl)-N-methyl-2-oxo-3-[(3,4,5-trimethyl-1H-pyrrol-2-yl)methyl]-2H-indole-5-sulfonamide

$$$$
