
     RDKit          2D

 12 11  0  0  1  0  0  0  0  0999 V2000
    1.0461   -1.4289    0.0000 C   0  0  0  0  0  0  0  0  0  0  0  0
    1.7605   -1.0164    0.0000 C   0  0  0  0  0  0  0  0  0  0  0  0
    2.4750   -1.4289    0.0000 C   0  0  0  0  0  0  0  0  0  0  0  0
    3.1895   -1.0164    0.0000 O   0  0  0  0  0  0  0  0  0  0  0  0
    3.9039   -1.4289    0.0000 P   0  0  0  0  0  0  0  0  0  0  0  0
    3.4914   -2.1434    0.0000 O   0  0  0  0  0  0  0  0  0  0  0  0
    4.3164   -0.7145    0.0000 O   0  0  0  0  0  0  0  0  0  0  0  0
    4.6184   -1.8414    0.0000 O   0  0  0  0  0  0  0  0  0  0  0  0
    5.3329   -1.4289    0.0000 P   0  0  0  0  0  0  0  0  0  0  0  0
    6.0474   -1.0164    0.0000 O   0  0  0  0  0  0  0  0  0  0  0  0
    5.7454   -2.1434    0.0000 O   0  0  0  0  0  0  0  0  0  0  0  0
    4.9204   -0.7145    0.0000 O   0  0  0  0  0  0  0  0  0  0  0  0
  1  2  1  0
  2  3  1  0
  3  4  1  0
  5  4  1  0
  5  6  1  0
  5  7  2  0
  5  8  1  0
  8  9  1  0
  9 10  1  0
  9 11  1  0
  9 12  2  0
M  END
>  <DRUGBANK_ID>  (1) 
DB01679

>  <SECONDARY_ACCESSION_NUMBERS>  (1) 
EXPT02471

>  <COMMON_NAME>  (1) 
Propyl Trihydrogen Diphosphate

$$$$
