
     RDKit          2D

 15 16  0  0  0  0  0  0  0  0999 V2000
   -0.2451   -0.1498    0.0000 C   0  0  0  0  0  0  0  0  0  0  0  0
   -0.3313   -0.9703    0.0000 C   0  0  0  0  0  0  0  0  0  0  0  0
   -1.1383   -1.1418    0.0000 N   0  0  0  0  0  0  0  0  0  0  0  0
   -1.5508   -0.4274    0.0000 C   0  0  0  0  0  0  0  0  0  0  0  0
   -0.9988    0.1856    0.0000 C   0  0  0  0  0  0  0  0  0  0  0  0
   -1.2537    0.9702    0.0000 C   0  0  0  0  0  0  0  0  0  0  0  0
   -2.3578   -0.2558    0.0000 C   0  0  0  0  0  0  0  0  0  0  0  0
   -2.6127    0.5287    0.0000 C   0  0  0  0  0  0  0  0  0  0  0  0
   -2.0607    1.1418    0.0000 C   0  0  0  0  0  0  0  0  0  0  0  0
    1.8982    1.0876    0.0000 O   0  0  0  0  0  0  0  0  0  0  0  0
    1.8982    0.2626    0.0000 C   0  0  0  0  0  0  0  0  0  0  0  0
    2.6127   -0.1498    0.0000 O   0  0  0  0  0  0  0  0  0  0  0  0
    1.1837   -0.1498    0.0000 C   0  0  0  0  0  0  0  0  0  0  0  0
    1.1837   -0.9748    0.0000 N   0  0  0  0  0  0  0  0  0  0  0  0
    0.4693    0.2626    0.0000 C   0  0  0  0  0  0  0  0  0  0  0  0
  1  2  2  0
  1  5  1  0
  1 15  1  0
  2  3  1  0
  3  4  1  0
  4  5  2  0
  4  7  1  0
  5  6  1  0
  6  9  2  0
  7  8  2  0
  8  9  1  0
 11 10  2  0
 12 11  1  0
 13 11  1  0
 13 14  1  1
 15 13  1  0
M  END
>  <DRUGBANK_ID>  (1) 
DB00150

>  <SECONDARY_ACCESSION_NUMBERS>  (1) 
NUTR00058; EXPT02064

>  <COMMON_NAME>  (1) 
Tryptophan

>  <CAS_NUMBER>  (1) 
73-22-3

>  <UNII>  (1) 
8DUH1N11BX

>  <SYNONYMS>  (1) 
(2S)-2-amino-3-(1H-indol-3-yl)propanoic acid; (S)-alpha-Amino-beta-(3-indolyl)-propionic acid; (S)-Tryptophan; (S)-α-amino-1H-indole-3-propanoic acid; L-(-)-Tryptophan; L-(−)-tryptophan; L-Tryptophan; L-β-3-indolylalanine; Triptofano; Trp; Tryptophan; Tryptophane; Tryptophanum; W

$$$$
