NPC
     RDKit          2D

 22 22  0  0  0  0  0  0  0  0999 V2000
   -2.3079    0.1229    0.0000 C   0  0  0  0  0  0  0  0  0  0  0  0
   -3.0224   -0.2896    0.0000 C   0  0  0  0  0  0  0  0  0  0  0  0
   -3.7369    0.1229    0.0000 C   0  0  0  0  0  0  0  0  0  0  0  0
   -4.4514   -0.2896    0.0000 N   0  0  0  0  0  0  0  0  0  0  0  0
   -5.1658    0.1229    0.0000 O   0  0  0  0  0  0  0  0  0  0  0  0
   -4.4514   -1.1146    0.0000 O   0  0  0  0  0  0  0  0  0  0  0  0
   -3.7369    0.9479    0.0000 C   0  0  0  0  0  0  0  0  0  0  0  0
   -4.4514    1.3604    0.0000 O   0  0  0  0  0  0  0  0  0  0  0  0
   -3.0224    1.3604    0.0000 C   0  0  0  0  0  0  0  0  0  0  0  0
   -2.3079    0.9479    0.0000 C   0  0  0  0  0  0  0  0  0  0  0  0
   -1.5935   -0.2896    0.0000 C   0  0  0  0  0  0  0  0  0  0  0  0
   -0.8790    0.1229    0.0000 C   0  0  0  0  0  0  0  0  0  0  0  0
   -0.8790    0.9479    0.0000 O   0  0  0  0  0  0  0  0  0  0  0  0
   -0.1645   -0.2896    0.0000 N   0  0  0  0  0  0  0  0  0  0  0  0
    0.5499    0.1229    0.0000 C   0  0  0  0  0  0  0  0  0  0  0  0
    1.2644   -0.2896    0.0000 C   0  0  0  0  0  0  0  0  0  0  0  0
    1.9789    0.1229    0.0000 C   0  0  0  0  0  0  0  0  0  0  0  0
    2.6933   -0.2896    0.0000 C   0  0  0  0  0  0  0  0  0  0  0  0
    3.4078    0.1229    0.0000 C   0  0  0  0  0  0  0  0  0  0  0  0
    4.1223   -0.2896    0.0000 C   0  0  0  0  0  0  0  0  0  0  0  0
    4.8368    0.1229    0.0000 O   0  0  0  0  0  0  0  0  0  0  0  0
    4.1223   -1.1146    0.0000 O   0  0  0  0  0  0  0  0  0  0  0  0
  1  2  2  0
  1 10  1  0
  1 11  1  0
  2  3  1  0
  3  4  1  0
  3  7  2  0
  4  5  1  0
  4  6  2  0
  7  8  1  0
  7  9  1  0
  9 10  2  0
 11 12  1  0
 12 13  2  0
 12 14  1  0
 14 15  1  0
 15 16  1  0
 16 17  1  0
 17 18  1  0
 18 19  1  0
 19 20  1  0
 20 21  2  0
 20 22  1  0
M  CHG  3   4   1   5  -1  22  -1
M  END
>  <DRUGBANK_ID>  (1) 
DB08295

>  <COMMON_NAME>  (1) 
4-HYDROXY-3-NITROPHENYLACETYL-EPSILON-AMINOCAPROIC ACID ANION

$$$$
