
     RDKit          2D

 25 27  0  0  1  0  0  0  0  0999 V2000
   -2.3981   -4.5897    0.0000 C   0  0  0  0  0  0  0  0  0  0  0  0
   -1.7307   -4.1048    0.0000 C   0  0  0  0  0  0  0  0  0  0  0  0
   -0.5683   -1.4940    0.0000 C   0  0  0  0  0  0  0  0  0  0  0  0
    3.3523    1.1104    0.0000 C   0  0  0  0  0  0  0  0  0  0  0  0
    0.6538    1.5229    0.0000 C   0  0  0  0  0  0  0  0  0  0  0  0
    0.0992   -1.0091    0.0000 C   0  0  0  0  0  0  0  0  0  0  0  0
    1.9233    1.9354    0.0000 C   0  0  0  0  0  0  0  0  0  0  0  0
    0.8838   -1.2640    0.0000 C   0  0  0  0  0  0  0  0  0  0  0  0
    1.3687   -0.5966    0.0000 C   0  0  0  0  0  0  0  0  0  0  0  0
    2.6378    2.3479    0.0000 C   0  0  0  0  0  0  0  0  0  0  0  0
    1.9233    1.1104    0.0000 C   0  0  0  0  0  0  0  0  0  0  0  0
    0.8838    0.0709    0.0000 C   0  0  0  0  0  0  0  0  0  0  0  0
    2.6378    3.1729    0.0000 N   0  0  0  0  0  0  0  0  0  0  0  0
    3.3523    1.9354    0.0000 N   0  0  0  0  0  0  0  0  0  0  0  0
    2.6378    0.6979    0.0000 N   0  0  0  0  0  0  0  0  0  0  0  0
    1.1387    2.1904    0.0000 N   0  0  0  0  0  0  0  0  0  0  0  0
   -1.8169   -3.2843    0.0000 N   0  0  0  0  0  0  0  0  0  0  0  0
    1.1387    0.8555    0.0000 N   0  0  0  0  0  0  0  0  0  0  0  0
    1.1387   -2.0486    0.0000 O   0  0  0  0  0  0  0  0  0  0  0  0
    2.1937   -0.5966    0.0000 O   0  0  0  0  0  0  0  0  0  0  0  0
   -0.6646   -3.4668    0.0000 O   0  0  0  0  0  0  0  0  0  0  0  0
   -1.6344   -2.1319    0.0000 O   0  0  0  0  0  0  0  0  0  0  0  0
   -0.4820   -2.3145    0.0000 O   0  0  0  0  0  0  0  0  0  0  0  0
    0.0992   -0.1841    0.0000 O   0  0  0  0  0  0  0  0  0  0  0  0
   -1.1495   -2.7994    0.0000 S   0  0  0  0  0  0  0  0  0  0  0  0
  2  1  1  0
  6  3  1  1
  8  6  1  0
  8 19  1  6
  9  8  1  0
  9 20  1  6
 10  7  2  0
 11  7  1  0
 12  9  1  0
 12 18  1  1
 13 10  1  0
 14  4  2  0
 14 10  1  0
 15  4  1  0
 15 11  2  0
 16  5  2  0
 16  7  1  0
 17  2  1  0
 18  5  1  0
 18 11  1  0
 23  3  1  0
 24  6  1  0
 24 12  1  0
 25 17  1  0
 25 21  2  0
 25 22  2  0
 25 23  1  0
M  END
>  <DRUGBANK_ID>  (1) 
DB02162

>  <SECONDARY_ACCESSION_NUMBERS>  (1) 
EXPT00240

>  <COMMON_NAME>  (1) 
5'-O-(N-Ethyl-Sulfamoyl)Adenosine

$$$$
