1561
     RDKit          2D

 21 24  0  0  1  0  0  0  0  0999 V2000
    7.1353    1.7956    0.0000 O   0  0  0  0  0  0  0  0  0  0  0  0
    1.6498   -1.7578    0.0000 O   0  0  0  0  0  0  0  0  0  0  0  0
    4.6697   -0.0648    0.0000 C   0  0  0  0  0  0  0  0  0  0  0  0
    5.3842   -0.4772    0.0000 C   0  0  0  0  0  0  0  0  0  0  0  0
    3.9191   -0.4829    0.0000 C   0  0  0  0  0  0  0  0  0  0  0  0
    6.0985   -0.0648    0.0000 C   0  0  0  0  0  0  0  0  0  0  0  0
    6.0985    0.7601    0.0000 C   0  0  0  0  0  0  0  0  0  0  0  0
    3.9125   -1.3421    0.0000 C   0  0  0  0  0  0  0  0  0  0  0  0
    4.6697    0.7601    0.0000 C   0  0  0  0  0  0  0  0  0  0  0  0
    5.3974   -1.3363    0.0000 C   0  0  0  0  0  0  0  0  0  0  0  0
    5.3842    1.1725    0.0000 C   0  0  0  0  0  0  0  0  0  0  0  0
    4.6566   -1.7717    0.0000 C   0  0  0  0  0  0  0  0  0  0  0  0
    6.8790   -0.3162    0.0000 C   0  0  0  0  0  0  0  0  0  0  0  0
    3.1546   -0.0176    0.0000 C   0  0  0  0  0  0  0  0  0  0  0  0
    6.8790    1.0115    0.0000 C   0  0  0  0  0  0  0  0  0  0  0  0
    3.9254    0.3420    0.0000 C   0  0  0  0  0  0  0  0  0  0  0  0
    3.1409   -1.7956    0.0000 C   0  0  0  0  0  0  0  0  0  0  0  0
    7.3604    0.3477    0.0000 C   0  0  0  0  0  0  0  0  0  0  0  0
    6.0985    1.5850    0.0000 C   0  0  0  0  0  0  0  0  0  0  0  0
    2.3726   -0.4531    0.0000 C   0  0  0  0  0  0  0  0  0  0  0  0
    2.3657   -1.3480    0.0000 C   0  0  0  0  0  0  0  0  0  0  0  0
  1 15  2  0
  2 21  2  0
  3  4  1  0
  3  5  1  0
  3  9  1  1
  4  6  1  0
  4 10  1  6
  5  8  1  0
  5 14  1  0
  5 16  1  1
  6  7  1  0
  6 13  1  1
  7 11  1  0
  7 15  1  0
  7 19  1  1
  8 12  1  1
  8 17  1  0
  9 11  1  0
 10 12  1  0
 13 18  1  0
 14 20  1  0
 15 18  1  0
 17 21  1  0
 20 21  1  0
M  END
>  <DRUGBANK_ID>  (1) 
DB01561

>  <SECONDARY_ACCESSION_NUMBERS>  (1) 
DB03620

>  <COMMON_NAME>  (1) 
Androstanedione

>  <CAS_NUMBER>  (1) 
846-46-8

>  <UNII>  (1) 
2KR72RNR8Z

>  <SYNONYMS>  (1) 
5alpha-Androstan-3,17-dione; 5Î±-androstane-3,17-dione

$$$$
