VX1
     RDKit          2D

 23 26  0  0  0  0  0  0  0  0999 V2000
    2.5035    1.6197    0.0000 N   0  0  0  0  0  0  0  0  0  0  0  0
    2.5035    0.7947    0.0000 C   0  0  0  0  0  0  0  0  0  0  0  0
    3.2179    0.3822    0.0000 N   0  0  0  0  0  0  0  0  0  0  0  0
    3.2179   -0.4428    0.0000 C   0  0  0  0  0  0  0  0  0  0  0  0
    2.5035   -0.8553    0.0000 C   0  0  0  0  0  0  0  0  0  0  0  0
    1.7890   -0.4428    0.0000 C   0  0  0  0  0  0  0  0  0  0  0  0
    1.7890    0.3822    0.0000 N   0  0  0  0  0  0  0  0  0  0  0  0
    1.0745   -0.8553    0.0000 C   0  0  0  0  0  0  0  0  0  0  0  0
    1.0745   -1.6803    0.0000 C   0  0  0  0  0  0  0  0  0  0  0  0
    0.3600   -2.0928    0.0000 C   0  0  0  0  0  0  0  0  0  0  0  0
   -0.3544   -1.6803    0.0000 C   0  0  0  0  0  0  0  0  0  0  0  0
   -1.1390   -1.9352    0.0000 N   0  0  0  0  0  0  0  0  0  0  0  0
   -1.6240   -1.2678    0.0000 O   0  0  0  0  0  0  0  0  0  0  0  0
   -1.1390   -0.6004    0.0000 C   0  0  0  0  0  0  0  0  0  0  0  0
   -1.3940    0.1843    0.0000 C   0  0  0  0  0  0  0  0  0  0  0  0
   -2.2010    0.3558    0.0000 C   0  0  0  0  0  0  0  0  0  0  0  0
   -2.4559    1.1404    0.0000 C   0  0  0  0  0  0  0  0  0  0  0  0
   -1.9039    1.7535    0.0000 C   0  0  0  0  0  0  0  0  0  0  0  0
   -2.1588    2.5381    0.0000 Cl  0  0  0  0  0  0  0  0  0  0  0  0
   -1.0969    1.5820    0.0000 C   0  0  0  0  0  0  0  0  0  0  0  0
   -0.8420    0.7974    0.0000 C   0  0  0  0  0  0  0  0  0  0  0  0
   -0.3544   -0.8553    0.0000 C   0  0  0  0  0  0  0  0  0  0  0  0
    0.3600   -0.4428    0.0000 C   0  0  0  0  0  0  0  0  0  0  0  0
  1  2  1  0
  2  3  2  0
  2  7  1  0
  3  4  1  0
  4  5  2  0
  5  6  1  0
  6  7  2  0
  6  8  1  0
  8  9  1  0
  8 23  2  0
  9 10  2  0
 10 11  1  0
 11 12  2  0
 11 22  1  0
 12 13  1  0
 13 14  1  0
 14 15  1  0
 14 22  2  0
 15 16  2  0
 15 21  1  0
 16 17  1  0
 17 18  2  0
 18 19  1  0
 18 20  1  0
 20 21  2  0
 22 23  1  0
M  END
>  <DRUGBANK_ID>  (1) 
DB08707

>  <COMMON_NAME>  (1) 
4-[3-(4-chlorophenyl)-2,1-benzisoxazol-5-yl]pyrimidin-2-amine

>  <UNII>  (1) 
QJ8ZMA6BSL

$$$$
