
     RDKit          2D

 34 33  0  0  0  0  0  0  0  0999 V2000
   -4.6990   -1.1001    0.0000 C   0  0  0  0  0  0  0  0  0  0  0  0
   -3.9850   -1.5093    0.0000 C   0  0  0  0  0  0  0  0  0  0  0  0
   -5.9765   -0.6951    0.0000 C   0  0  0  0  0  0  0  0  0  0  0  0
   -4.7073   -0.2735    0.0000 C   0  0  0  0  0  0  0  0  0  0  0  0
   -5.4880   -1.3631    0.0000 C   0  0  0  0  0  0  0  0  0  0  0  0
   -5.4963   -0.0230    0.0000 C   0  0  0  0  0  0  0  0  0  0  0  0
   -3.2711   -1.0959    0.0000 C   0  0  0  0  0  0  0  0  0  0  0  0
   -0.4279    1.3965    0.0000 C   0  0  0  0  0  0  0  0  0  0  0  0
   -2.5572   -1.5093    0.0000 C   0  0  0  0  0  0  0  0  0  0  0  0
   -0.4279    2.2231    0.0000 O   0  0  0  0  0  0  0  0  0  0  0  0
   -3.9975    0.9707    0.0000 C   0  0  0  0  0  0  0  0  0  0  0  0
   -3.2836    1.3922    0.0000 C   0  0  0  0  0  0  0  0  0  0  0  0
   -5.9013   -2.0728    0.0000 O   0  0  0  0  0  0  0  0  0  0  0  0
   -5.9139    0.6951    0.0000 O   0  0  0  0  0  0  0  0  0  0  0  0
    0.2859    0.9831    0.0000 O   0  0  0  0  0  0  0  0  0  0  0  0
   -3.9933    0.1440    0.0000 C   0  0  0  0  0  0  0  0  0  0  0  0
   -2.1522   -2.2231    0.0000 O   0  0  0  0  0  0  0  0  0  0  0  0
   -1.1419    0.9831    0.0000 C   0  0  0  0  0  0  0  0  0  0  0  0
   -1.8432   -1.0876    0.0000 C   0  0  0  0  0  0  0  0  0  0  0  0
   -2.5696    0.9789    0.0000 C   0  0  0  0  0  0  0  0  0  0  0  0
   -2.9788   -2.2231    0.0000 C   0  0  0  0  0  0  0  0  0  0  0  0
   -1.8558    1.3965    0.0000 C   0  0  0  0  0  0  0  0  0  0  0  0
   -1.1293   -1.5009    0.0000 C   0  0  0  0  0  0  0  0  0  0  0  0
    0.2984   -1.4967    0.0000 C   0  0  0  0  0  0  0  0  0  0  0  0
   -0.4153   -1.0834    0.0000 C   0  0  0  0  0  0  0  0  0  0  0  0
    1.0123   -1.0834    0.0000 C   0  0  0  0  0  0  0  0  0  0  0  0
    4.5486    0.2776    0.0000 C   0  0  0  0  0  0  0  0  0  0  0  0
    4.9620   -0.4363    0.0000 N   0  0  0  0  0  0  0  0  0  0  0  0
    5.2625    0.6909    0.0000 C   0  0  0  0  0  0  0  0  0  0  0  0
    4.1353   -0.4363    0.0000 C   0  0  0  0  0  0  0  0  0  0  0  0
    3.8348    0.6909    0.0000 C   0  0  0  0  0  0  0  0  0  0  0  0
    3.1208    0.2776    0.0000 O   0  0  0  0  0  0  0  0  0  0  0  0
    5.9765    0.2818    0.0000 O   0  0  0  0  0  0  0  0  0  0  0  0
    3.3086   -0.4321    0.0000 O   0  0  0  0  0  0  0  0  0  0  0  0
  1  2  1  1
  3  5  1  0
  4 16  1  6
  4  1  1  0
  5 13  1  6
  5  1  1  0
  6  4  1  0
  6 14  1  6
  6  3  1  0
  7  2  2  0
  8 18  1  0
  9  7  1  0
  9 17  1  0
  9 21  1  1
 10  8  2  0
 11 16  1  0
 12 11  2  0
 15  8  1  0
 18 22  1  0
 19  9  1  0
 20 12  1  0
 22 20  1  0
 23 19  1  0
 24 25  1  0
 25 23  1  0
 26 24  1  0
 28 27  1  0
 29 27  1  0
 30 27  1  0
 31 27  1  0
 32 31  1  0
 33 29  1  0
 34 30  1  0
M  END
>  <DRUGBANK_ID>  (1) 
DB00429

>  <SECONDARY_ACCESSION_NUMBERS>  (1) 
APRD00847

>  <COMMON_NAME>  (1) 
Carboprost tromethamine

>  <CAS_NUMBER>  (1) 
58551-69-2

>  <UNII>  (1) 
U4526F86FJ

>  <SYNONYMS>  (1) 
(15S)-15-methyl-PGF2α tromethamine salt; (15S)-15-methylprostaglandin F2α tromethamine; 1,3-dihydroxy-2-(hydroxymethyl)propan-2-aminium (5Z,9α,11β,13E,15S)-9,11,15-trihydroxy-15-methylprosta-5,13-dien-1-oate; 15(S)-15-methyl-PGF2α tromethamine salt; 15(S)-15-methylprostaglandin F2α tromethamine; Carboprost trometamol; Carboprost tromethamine

$$$$
