MGM
     RDKit          2D

 29 28  0  0  0  0  0  0  0  0999 V2000
   -4.2052    4.4847    0.0000 C   0  0  0  0  0  0  0  0  0  0  0  0
   -2.7763    4.4847    0.0000 C   0  0  0  0  0  0  0  0  0  0  0  0
   -3.4908    4.0722    0.0000 C   0  0  0  0  0  0  0  0  0  0  0  0
   -3.4908    3.2472    0.0000 C   0  0  0  0  0  0  0  0  0  0  0  0
   -2.7763    2.8347    0.0000 C   0  0  0  0  0  0  0  0  0  0  0  0
   -1.3474    2.0097    0.0000 C   0  0  0  0  0  0  0  0  0  0  0  0
   -2.0618    1.5972    0.0000 C   0  0  0  0  0  0  0  0  0  0  0  0
   -2.7763    2.0097    0.0000 C   0  0  0  0  0  0  0  0  0  0  0  0
   -2.0618    0.7722    0.0000 C   0  0  0  0  0  0  0  0  0  0  0  0
   -1.3474    0.3597    0.0000 C   0  0  0  0  0  0  0  0  0  0  0  0
   -1.3474   -0.4653    0.0000 C   0  0  0  0  0  0  0  0  0  0  0  0
   -0.6329   -0.8778    0.0000 C   0  0  0  0  0  0  0  0  0  0  0  0
    0.0816   -0.4653    0.0000 C   0  0  0  0  0  0  0  0  0  0  0  0
   -0.6329   -1.7028    0.0000 C   0  0  0  0  0  0  0  0  0  0  0  0
    0.0816   -2.1153    0.0000 C   0  0  0  0  0  0  0  0  0  0  0  0
    0.7960   -1.7028    0.0000 C   0  0  0  0  0  0  0  0  0  0  0  0
    1.5105   -2.1153    0.0000 N   0  0  0  0  0  0  0  0  0  0  0  0
    1.5105   -2.9403    0.0000 C   0  0  0  0  0  0  0  0  0  0  0  0
    2.2250   -1.7028    0.0000 C   0  0  0  0  0  0  0  0  0  0  0  0
    2.9395   -2.1153    0.0000 C   0  0  0  0  0  0  0  0  0  0  0  0
    3.6539   -1.7028    0.0000 O   0  0  0  0  0  0  0  0  0  0  0  0
    4.3684   -2.1153    0.0000 P   0  0  0  0  0  0  0  0  0  0  0  0
    3.9559   -2.8298    0.0000 O   0  0  0  0  0  0  0  0  0  0  0  0
    5.0829   -2.5278    0.0000 O   0  0  0  0  0  0  0  0  0  0  0  0
    4.7809   -1.4008    0.0000 O   0  0  0  0  0  0  0  0  0  0  0  0
    5.7973   -2.1153    0.0000 P   0  0  0  0  0  0  0  0  0  0  0  0
    6.5118   -1.7028    0.0000 O   0  0  0  0  0  0  0  0  0  0  0  0
    6.2098   -2.8298    0.0000 O   0  0  0  0  0  0  0  0  0  0  0  0
    5.3848   -1.4008    0.0000 O   0  0  0  0  0  0  0  0  0  0  0  0
  1  3  1  0
  2  3  1  0
  3  4  2  3
  4  5  1  0
  5  8  1  0
  6  7  1  0
  7  8  1  0
  7  9  2  0
  9 10  1  0
 10 11  1  0
 11 12  1  0
 12 13  1  0
 12 14  2  0
 14 15  1  0
 15 16  1  0
 16 17  1  0
 17 18  1  0
 17 19  1  0
 19 20  1  0
 20 21  1  0
 22 21  1  0
 22 23  1  0
 22 24  1  0
 22 25  2  0
 24 26  1  0
 26 27  1  0
 26 28  1  0
 26 29  2  0
M  END
>  <DRUGBANK_ID>  (1) 
DB08180

>  <COMMON_NAME>  (1) 
2-[METHYL-(5-GERANYL-4-METHYL-PENT-3-ENYL)-AMINO]-ETHYL-DIPHOSPHATE

$$$$
