
     RDKit          2D

 12 11  0  0  1  0  0  0  0  0999 V2000
    3.9039    1.4289    0.0000 C   0  0  0  0  0  0  0  0  0  0  0  0
    1.7605    1.8414    0.0000 C   0  0  0  0  0  0  0  0  0  0  0  0
    3.1895    1.8414    0.0000 C   0  0  0  0  0  0  0  0  0  0  0  0
    4.6184    1.8414    0.0000 C   0  0  0  0  0  0  0  0  0  0  0  0
    2.4750    1.4289    0.0000 C   0  0  0  0  0  0  0  0  0  0  0  0
    5.3329    1.4289    0.0000 C   0  0  0  0  0  0  0  0  0  0  0  0
    1.0461    1.4289    0.0000 O   0  0  0  0  0  0  0  0  0  0  0  0
    3.1895    2.6664    0.0000 O   0  0  0  0  0  0  0  0  0  0  0  0
    4.6184    2.6664    0.0000 O   0  0  0  0  0  0  0  0  0  0  0  0
    2.4750    0.6039    0.0000 O   0  0  0  0  0  0  0  0  0  0  0  0
    6.0474    1.8414    0.0000 O   0  0  0  0  0  0  0  0  0  0  0  0
    5.3329    0.6039    0.0000 O   0  0  0  0  0  0  0  0  0  0  0  0
  3  1  1  0
  3  8  1  6
  4  1  1  0
  4  9  1  6
  5  2  1  0
  5  3  1  0
  5 10  1  6
  6  4  1  0
  7  2  1  0
 11  6  2  0
 12  6  1  0
M  END
>  <DRUGBANK_ID>  (1) 
DB02807

>  <SECONDARY_ACCESSION_NUMBERS>  (1) 
EXPT02819

>  <COMMON_NAME>  (1) 
3-deoxy-D-lyxo-hexonic acid

>  <SYNONYMS>  (1) 
D-2-keto-3-deoxygalactonate

$$$$
