
     RDKit          2D

 41 44  0  0  1  0  0  0  0  0999 V2000
   -0.0000    9.9000    0.0000 C   0  0  0  0  0  0  0  0  0  0  0  0
   -0.7145    9.4875    0.0000 C   0  0  0  0  0  0  0  0  0  0  0  0
   -2.1434    4.5375    0.0000 C   0  0  0  0  0  0  0  0  0  0  0  0
   -6.4302   11.1375    0.0000 C   0  0  0  0  0  0  0  0  0  0  0  0
   -1.4289    4.9500    0.0000 C   0  0  0  0  0  0  0  0  0  0  0  0
   -2.8579    4.9500    0.0000 C   0  0  0  0  0  0  0  0  0  0  0  0
   -6.4302   10.3125    0.0000 C   0  0  0  0  0  0  0  0  0  0  0  0
   -5.7158   11.5500    0.0000 C   0  0  0  0  0  0  0  0  0  0  0  0
   -1.4289    9.9000    0.0000 C   0  0  0  0  0  0  0  0  0  0  0  0
   -1.4289    5.7750    0.0000 C   0  0  0  0  0  0  0  0  0  0  0  0
   -2.8579    5.7750    0.0000 C   0  0  0  0  0  0  0  0  0  0  0  0
   -5.7158    9.9000    0.0000 C   0  0  0  0  0  0  0  0  0  0  0  0
   -5.0013   11.1375    0.0000 C   0  0  0  0  0  0  0  0  0  0  0  0
   -5.7158    5.7750    0.0000 C   0  0  0  0  0  0  0  0  0  0  0  0
   -6.4302    7.0125    0.0000 C   0  0  0  0  0  0  0  0  0  0  0  0
   -2.8579    9.9000    0.0000 C   0  0  0  0  0  0  0  0  0  0  0  0
   -5.0013    6.1875    0.0000 C   0  0  0  0  0  0  0  0  0  0  0  0
   -5.7158    7.4250    0.0000 C   0  0  0  0  0  0  0  0  0  0  0  0
   -7.8592    6.1875    0.0000 C   0  0  0  0  0  0  0  0  0  0  0  0
   -7.1447    4.9500    0.0000 C   0  0  0  0  0  0  0  0  0  0  0  0
   -8.5737    5.7750    0.0000 C   0  0  0  0  0  0  0  0  0  0  0  0
   -7.8592    4.5375    0.0000 C   0  0  0  0  0  0  0  0  0  0  0  0
   -3.5724    9.4875    0.0000 C   0  0  0  0  0  0  0  0  0  0  0  0
   -2.1434    7.0125    0.0000 C   0  0  0  0  0  0  0  0  0  0  0  0
   -2.1434    6.1875    0.0000 C   0  0  0  0  0  0  0  0  0  0  0  0
   -2.1434    9.4875    0.0000 C   0  0  0  0  0  0  0  0  0  0  0  0
   -6.4302    6.1875    0.0000 C   0  0  0  0  0  0  0  0  0  0  0  0
   -5.0013   10.3125    0.0000 C   0  0  0  0  0  0  0  0  0  0  0  0
   -2.8579    7.4250    0.0000 C   0  0  0  0  0  0  0  0  0  0  0  0
   -2.8579    8.2500    0.0000 C   0  0  0  0  0  0  0  0  0  0  0  0
   -4.2868    7.4250    0.0000 C   0  0  0  0  0  0  0  0  0  0  0  0
   -2.1434    8.6625    0.0000 N   0  0  0  0  0  0  0  0  0  0  0  0
   -3.5724    7.0125    0.0000 N   0  0  0  0  0  0  0  0  0  0  0  0
   -7.1447    5.7750    0.0000 N   0  0  0  0  0  0  0  0  0  0  0  0
   -5.0013    7.0125    0.0000 N   0  0  0  0  0  0  0  0  0  0  0  0
   -3.5724    8.6625    0.0000 O   0  0  0  0  0  0  0  0  0  0  0  0
   -4.2868    8.2500    0.0000 O   0  0  0  0  0  0  0  0  0  0  0  0
   -4.6993    9.1855    0.0000 O   0  0  0  0  0  0  0  0  0  0  0  0
   -3.8743   10.6145    0.0000 O   0  0  0  0  0  0  0  0  0  0  0  0
   -8.5737    4.9500    0.0000 O   0  0  0  0  0  0  0  0  0  0  0  0
   -4.2868    9.9000    0.0000 S   0  0  0  0  0  0  0  0  0  0  0  0
  2  1  1  0
  5  3  2  0
  6  3  1  0
  7  4  2  0
  8  4  1  0
  9  2  1  0
 10  5  1  0
 11  6  2  0
 12  7  1  0
 13  8  2  0
 17 14  1  0
 18 15  1  0
 21 19  1  0
 22 20  1  0
 23 16  2  3
 23 41  1  0
 25 10  2  0
 25 11  1  0
 25 24  1  0
 26  9  1  6
 26 16  1  0
 26 32  1  0
 27 14  1  0
 27 15  1  0
 28 12  2  0
 28 13  1  0
 29 24  1  6
 29 33  1  0
 30 29  1  0
 30 36  1  0
 31 37  1  0
 32 30  2  3
 33 31  2  3
 34 19  1  0
 34 20  1  0
 34 27  1  0
 35 17  1  0
 35 18  1  0
 35 31  1  0
 40 21  1  0
 40 22  1  0
 41 28  1  0
 41 38  2  0
 41 39  2  0
M  END
>  <DRUGBANK_ID>  (1) 
DB02243

>  <SECONDARY_ACCESSION_NUMBERS>  (1) 
EXPT02269

>  <COMMON_NAME>  (1) 
4-Morpholin-4-Yl-Piperidine-1-Carboxylic Acid [1-(3-Benzenesulfonyl-1-Propyl-Allylcarbamoyl)-2-Phenylethyl]-Amide

$$$$
