EPJ
     RDKit          2D

 14 16  0  0  0  0  0  0  0  0999 V2000
   -0.1763    0.0910    0.0000 C   0  0  0  0  0  0  0  0  0  0  0  0
    0.1890    0.7515    0.0000 C   0  0  0  0  0  0  0  0  0  0  0  0
    0.8293    1.2017    0.0000 C   0  0  0  0  0  0  0  0  0  0  0  0
    1.6248    0.7364    0.0000 C   0  0  0  0  0  0  0  0  0  0  0  0
    1.3297    0.1110    0.0000 C   0  0  0  0  0  0  0  0  0  0  0  0
    0.5992    0.4813    0.0000 C   0  0  0  0  0  0  0  0  0  0  0  0
    0.6693    2.0171    0.0000 N   0  0  0  0  0  0  0  0  0  0  0  0
   -0.7709   -0.4809    0.0000 C   0  0  0  0  0  0  0  0  0  0  0  0
   -0.5729   -1.2818    0.0000 C   0  0  0  0  0  0  0  0  0  0  0  0
   -1.1675   -1.8537    0.0000 C   0  0  0  0  0  0  0  0  0  0  0  0
   -1.9601   -1.6247    0.0000 C   0  0  0  0  0  0  0  0  0  0  0  0
   -2.5547   -2.1966    0.0000 Cl  0  0  0  0  0  0  0  0  0  0  0  0
   -2.1581   -0.8238    0.0000 N   0  0  0  0  0  0  0  0  0  0  0  0
   -1.5635   -0.2519    0.0000 C   0  0  0  0  0  0  0  0  0  0  0  0
  1  2  1  0
  1  6  1  0
  1  8  1  1
  3  2  1  1
  3  4  1  0
  3  7  1  0
  4  5  1  0
  6  5  1  6
  6  7  1  0
  8  9  2  0
  8 14  1  0
  9 10  1  0
 10 11  2  0
 11 12  1  0
 11 13  1  0
 13 14  2  0
M  END
>  <DRUGBANK_ID>  (1) 
DB07720

>  <COMMON_NAME>  (1) 
Epibatidine

>  <CAS_NUMBER>  (1) 
140111-52-0

>  <UNII>  (1) 
M6K314F1XX

>  <SYNONYMS>  (1) 
(+)-epibatidine; (1R,2R,4S)-epibatidine

$$$$
