
     RDKit          2D

  1  0  0  0  0  0  0  0  0  0999 V2000
    0.0000    0.0000    0.0000 Ac  0  0  0  0  0 15  0  0  0  0  0  0
M  END
>  <DRUGBANK_ID>  (1) 
DB12860

>  <COMMON_NAME>  (1) 
Actinium

>  <CAS_NUMBER>  (1) 
7440-34-8

>  <UNII>  (1) 
NIK1K0956U

>  <SYNONYMS>  (1) 
Ac; actinio

$$$$
