
     RDKit          2D

 29 32  0  0  1  0  0  0  0  0999 V2000
   -5.0686   -0.5786    0.0000 C   0  0  0  0  0  0  0  0  0  0  0  0
   -4.3541    0.6588    0.0000 C   0  0  0  0  0  0  0  0  0  0  0  0
   -1.4962    0.6588    0.0000 C   0  0  0  0  0  0  0  0  0  0  0  0
    1.8407    0.8845    0.0000 C   0  0  0  0  0  0  0  0  0  0  0  0
   -0.6412    0.3089    0.0000 C   0  0  0  0  0  0  0  0  0  0  0  0
   -2.9252   -0.1661    0.0000 C   0  0  0  0  0  0  0  0  0  0  0  0
   -3.6396   -0.5786    0.0000 C   0  0  0  0  0  0  0  0  0  0  0  0
   -2.2107   -0.5786    0.0000 C   0  0  0  0  0  0  0  0  0  0  0  0
    2.6898   -1.1262    0.0000 C   0  0  0  0  0  0  0  0  0  0  0  0
    1.8829   -1.2977    0.0000 C   0  0  0  0  0  0  0  0  0  0  0  0
   -0.6955   -1.3991    0.0000 C   0  0  0  0  0  0  0  0  0  0  0  0
    0.1113   -1.5706    0.0000 C   0  0  0  0  0  0  0  0  0  0  0  0
    3.4546    1.2276    0.0000 C   0  0  0  0  0  0  0  0  0  0  0  0
    1.0337    0.7130    0.0000 C   0  0  0  0  0  0  0  0  0  0  0  0
    2.6477    1.0560    0.0000 C   0  0  0  0  0  0  0  0  0  0  0  0
    0.2268    0.5415    0.0000 C   0  0  0  0  0  0  0  0  0  0  0  0
    3.7517   -0.1700    0.0000 C   0  0  0  0  0  0  0  0  0  0  0  0
   -4.3541   -0.1661    0.0000 C   0  0  0  0  0  0  0  0  0  0  0  0
   -1.4962   -0.1661    0.0000 C   0  0  0  0  0  0  0  0  0  0  0  0
    2.9448   -0.3416    0.0000 C   0  0  0  0  0  0  0  0  0  0  0  0
    4.0067    0.6145    0.0000 C   0  0  0  0  0  0  0  0  0  0  0  0
    1.3308   -0.6846    0.0000 C   0  0  0  0  0  0  0  0  0  0  0  0
   -0.7818   -0.5786    0.0000 C   0  0  0  0  0  0  0  0  0  0  0  0
    0.5238   -0.8562    0.0000 C   0  0  0  0  0  0  0  0  0  0  0  0
    1.5858    0.0999    0.0000 C   0  0  0  0  0  0  0  0  0  0  0  0
    2.3927    0.2714    0.0000 C   0  0  0  0  0  0  0  0  0  0  0  0
   -0.0281   -0.2431    0.0000 C   0  0  0  0  0  0  0  0  0  0  0  0
    4.8136    0.7860    0.0000 N   0  0  0  0  0  0  0  0  0  0  0  0
    5.0686    1.5706    0.0000 O   0  0  0  0  0  0  0  0  0  0  0  0
  7  6  1  0
  8  6  1  0
 10  9  1  0
 12 11  1  0
 15 13  1  0
 16 14  1  0
 18  1  1  0
 18  2  1  0
 18  7  1  0
 19  3  1  1
 19  8  1  0
 20  9  1  0
 20 17  2  0
 21 13  1  0
 21 17  1  0
 22 10  1  1
 22 24  1  0
 22 25  1  0
 23 11  1  6
 23 19  1  0
 24 12  1  6
 24 27  1  0
 25 14  1  6
 25 26  1  0
 26  4  1  6
 26 15  1  0
 26 20  1  0
 27  5  1  6
 27 16  1  0
 27 23  1  0
 28 21  2  0
 29 28  1  0
M  END
>  <DRUGBANK_ID>  (1) 
DB05185

>  <COMMON_NAME>  (1) 
Olesoxime

>  <CAS_NUMBER>  (1) 
22033-87-0

>  <UNII>  (1) 
8V8EF6094N

>  <SYNONYMS>  (1) 
(EZ)-N-(CHOLEST-4-EN-3-YLIDENE)HYDROXYLAMINE; 4-Cholesten-3-one, oxime; cholest-4-en-3-one, oxime

$$$$
