DTQ
     RDKit          2D

 22 24  0  0  0  0  0  0  0  0999 V2000
   -1.3650   -0.6185    0.0000 N   0  0  0  0  0  0  0  0  0  0  0  0
   -1.3650   -1.4435    0.0000 C   0  0  0  0  0  0  0  0  0  0  0  0
   -0.6505   -1.8560    0.0000 N   0  0  0  0  0  0  0  0  0  0  0  0
    0.0640   -1.4435    0.0000 C   0  0  0  0  0  0  0  0  0  0  0  0
    0.0640   -0.6185    0.0000 C   0  0  0  0  0  0  0  0  0  0  0  0
   -0.6505   -0.2060    0.0000 C   0  0  0  0  0  0  0  0  0  0  0  0
    0.7784   -1.8560    0.0000 C   0  0  0  0  0  0  0  0  0  0  0  0
    1.4929   -1.4435    0.0000 C   0  0  0  0  0  0  0  0  0  0  0  0
    1.4929   -0.6185    0.0000 C   0  0  0  0  0  0  0  0  0  0  0  0
    0.7784   -0.2060    0.0000 C   0  0  0  0  0  0  0  0  0  0  0  0
   -0.6505    0.6190    0.0000 N   0  0  0  0  0  0  0  0  0  0  0  0
   -1.3650    1.0315    0.0000 C   0  0  0  0  0  0  0  0  0  0  0  0
   -2.0794    0.6190    0.0000 C   0  0  0  0  0  0  0  0  0  0  0  0
   -2.7939    1.0315    0.0000 C   0  0  0  0  0  0  0  0  0  0  0  0
   -2.7939    1.8565    0.0000 C   0  0  0  0  0  0  0  0  0  0  0  0
   -2.0794    2.2690    0.0000 C   0  0  0  0  0  0  0  0  0  0  0  0
   -1.3650    1.8565    0.0000 C   0  0  0  0  0  0  0  0  0  0  0  0
   -3.5084    0.6190    0.0000 O   0  0  0  0  0  0  0  0  0  0  0  0
    2.2074   -1.8560    0.0000 O   0  0  0  0  0  0  0  0  0  0  0  0
    2.9219   -1.4435    0.0000 C   0  0  0  0  0  0  0  0  0  0  0  0
    2.2074   -0.2060    0.0000 O   0  0  0  0  0  0  0  0  0  0  0  0
    2.2074    0.6190    0.0000 C   0  0  0  0  0  0  0  0  0  0  0  0
  1  2  2  0
  1  6  1  0
  2  3  1  0
  3  4  2  0
  4  5  1  0
  4  7  1  0
  5  6  2  0
  5 10  1  0
  6 11  1  0
  7  8  2  0
  8  9  1  0
  8 19  1  0
  9 10  2  0
  9 21  1  0
 11 12  1  0
 12 13  2  0
 12 17  1  0
 13 14  1  0
 14 15  2  0
 14 18  1  0
 15 16  1  0
 16 17  2  0
 19 20  1  0
 21 22  1  0
M  END
>  <DRUGBANK_ID>  (1) 
DB03365

>  <SECONDARY_ACCESSION_NUMBERS>  (1) 
EXPT01289

>  <COMMON_NAME>  (1) 
4-[3-Hydroxyanilino]-6,7-Dimethoxyquinazoline

$$$$
