ANS
     RDKit          2D

 17 18  0  0  0  0  0  0  0  0999 V2000
   -0.8462   -1.1602    0.0000 C   0  0  0  0  0  0  0  0  0  0  0  0
   -1.5607   -0.7477    0.0000 C   0  0  0  0  0  0  0  0  0  0  0  0
   -1.5607    0.0773    0.0000 C   0  0  0  0  0  0  0  0  0  0  0  0
   -0.8462    0.4898    0.0000 C   0  0  0  0  0  0  0  0  0  0  0  0
   -0.1317    0.0773    0.0000 C   0  0  0  0  0  0  0  0  0  0  0  0
    0.5828    0.4898    0.0000 C   0  0  0  0  0  0  0  0  0  0  0  0
    1.2972    0.0773    0.0000 C   0  0  0  0  0  0  0  0  0  0  0  0
    1.2972   -0.7477    0.0000 C   0  0  0  0  0  0  0  0  0  0  0  0
    0.5828   -1.1602    0.0000 C   0  0  0  0  0  0  0  0  0  0  0  0
   -0.1317   -0.7477    0.0000 C   0  0  0  0  0  0  0  0  0  0  0  0
    0.5828    1.3148    0.0000 N   0  0  0  0  0  0  0  0  0  0  0  0
    1.2972    1.7273    0.0000 C   0  0  0  0  0  0  0  0  0  0  0  0
   -0.1317    1.7273    0.0000 C   0  0  0  0  0  0  0  0  0  0  0  0
   -0.8462   -1.9852    0.0000 S   0  0  0  0  0  0  0  0  0  0  0  0
   -0.8462   -2.8102    0.0000 O   0  0  0  0  0  0  0  0  0  0  0  0
   -1.6712   -1.9852    0.0000 O   0  0  0  0  0  0  0  0  0  0  0  0
   -0.0212   -1.9852    0.0000 O   0  0  0  0  0  0  0  0  0  0  0  0
  1  2  2  0
  1 10  1  0
  1 14  1  0
  2  3  1  0
  3  4  2  0
  4  5  1  0
  5  6  1  0
  5 10  2  0
  6  7  2  0
  6 11  1  0
  7  8  1  0
  8  9  2  0
  9 10  1  0
 11 12  1  0
 11 13  1  0
 14 15  2  0
 14 16  2  0
 14 17  1  0
M  END
>  <DRUGBANK_ID>  (1) 
DB07376

>  <COMMON_NAME>  (1) 
5-(DIMETHYLAMINO)-1-NAPHTHALENESULFONIC ACID(DANSYL ACID)

$$$$
