OA1
     RDKit          2D

 15 16  0  0  0  0  0  0  0  0999 V2000
   -0.0345    2.6028    0.0000 Br  0  0  0  0  0  0  0  0  0  0  0  0
   -0.0345    1.7778    0.0000 C   0  0  0  0  0  0  0  0  0  0  0  0
    0.6800    1.3653    0.0000 C   0  0  0  0  0  0  0  0  0  0  0  0
   -0.7490    1.3653    0.0000 C   0  0  0  0  0  0  0  0  0  0  0  0
   -0.7490    0.5403    0.0000 C   0  0  0  0  0  0  0  0  0  0  0  0
   -0.0345    0.1278    0.0000 C   0  0  0  0  0  0  0  0  0  0  0  0
    0.6800    0.5403    0.0000 C   0  0  0  0  0  0  0  0  0  0  0  0
    1.3944    0.1278    0.0000 C   0  0  0  0  0  0  0  0  0  0  0  0
    2.1089    0.5403    0.0000 O   0  0  0  0  0  0  0  0  0  0  0  0
    1.3944   -0.6972    0.0000 C   0  0  0  0  0  0  0  0  0  0  0  0
    2.0619   -1.1821    0.0000 O   0  0  0  0  0  0  0  0  0  0  0  0
    1.8069   -1.9667    0.0000 C   0  0  0  0  0  0  0  0  0  0  0  0
    2.2919   -2.6342    0.0000 N   0  0  0  0  0  0  0  0  0  0  0  0
    0.9819   -1.9667    0.0000 N   0  0  0  0  0  0  0  0  0  0  0  0
    0.7270   -1.1821    0.0000 C   0  0  0  0  0  0  0  0  0  0  0  0
  1  2  1  0
  2  3  2  0
  2  4  1  0
  3  7  1  0
  4  5  2  0
  5  6  1  0
  6  7  2  0
  7  8  1  0
  8  9  2  0
  8 10  1  0
 10 11  1  0
 10 15  2  0
 11 12  1  0
 12 13  1  0
 12 14  2  0
 14 15  1  0
M  END
>  <DRUGBANK_ID>  (1) 
DB08314

>  <COMMON_NAME>  (1) 
(2-AMINO-1,3-OXAZOL-5-YL)-(3-BROMOPHENYL)METHANONE

$$$$
