
     RDKit          2D

 28 30  0  0  0  0  0  0  0  0999 V2000
    1.3400   -2.2924    0.0000 C   0  0  0  0  0  0  0  0  0  0  0  0
    1.3585   -1.4647    0.0000 C   0  0  0  0  0  0  0  0  0  0  0  0
    0.6540   -1.0364    0.0000 C   0  0  0  0  0  0  0  0  0  0  0  0
    0.6167   -2.6963    0.0000 C   0  0  0  0  0  0  0  0  0  0  0  0
   -0.0906   -2.2604    0.0000 C   0  0  0  0  0  0  0  0  0  0  0  0
   -0.0739   -1.4325    0.0000 C   0  0  0  0  0  0  0  0  0  0  0  0
   -0.7792   -1.0058    0.0000 C   0  0  0  0  0  0  0  0  0  0  0  0
   -1.5047   -1.4035    0.0000 C   0  0  0  0  0  0  0  0  0  0  0  0
   -1.5214   -2.2313    0.0000 C   0  0  0  0  0  0  0  0  0  0  0  0
   -0.8129   -2.6612    0.0000 C   0  0  0  0  0  0  0  0  0  0  0  0
    2.0815   -1.0683    0.0000 C   0  0  0  0  0  0  0  0  0  0  0  0
   -0.7606   -0.1810    0.0000 O   0  0  0  0  0  0  0  0  0  0  0  0
   -1.4652    0.2472    0.0000 C   0  0  0  0  0  0  0  0  0  0  0  0
    0.6748   -0.2117    0.0000 C   0  0  0  0  0  0  0  0  0  0  0  0
    1.3990    0.1825    0.0000 C   0  0  0  0  0  0  0  0  0  0  0  0
    1.4198    1.0070    0.0000 C   0  0  0  0  0  0  0  0  0  0  0  0
    1.4651    2.6566    0.0000 C   0  0  0  0  0  0  0  0  0  0  0  0
    0.7387    2.2637    0.0000 C   0  0  0  0  0  0  0  0  0  0  0  0
    0.7143    1.4365    0.0000 C   0  0  0  0  0  0  0  0  0  0  0  0
    2.1439    1.4020    0.0000 O   0  0  0  0  0  0  0  0  0  0  0  0
    0.0366    2.6963    0.0000 O   0  0  0  0  0  0  0  0  0  0  0  0
   -1.4464    1.0718    0.0000 O   0  0  0  0  0  0  0  0  0  0  0  0
   -2.1887   -0.1487    0.0000 C   0  0  0  0  0  0  0  0  0  0  0  0
   -2.8935    0.2797    0.0000 C   0  0  0  0  0  0  0  0  0  0  0  0
   -2.2075   -0.9733    0.0000 C   0  0  0  0  0  0  0  0  0  0  0  0
   -2.8747    1.1045    0.0000 C   0  0  0  0  0  0  0  0  0  0  0  0
    2.1678    2.2246    0.0000 C   0  0  0  0  0  0  0  0  0  0  0  0
    2.8935    2.6166    0.0000 O   0  0  0  0  0  0  0  0  0  0  0  0
  1  2  1  0
  1  4  2  0
  2 11  1  1
  2  3  1  0
  3 14  1  1
  3  6  1  0
  5  4  1  0
  6  5  1  6
  5 10  2  0
  6  7  1  0
  7 12  1  6
  7  8  1  0
  8  9  1  0
  9 10  1  0
 12 13  1  0
 13 22  2  0
 13 23  1  0
 14 15  1  0
 16 15  1  6
 16 19  1  0
 16 20  1  0
 17 18  1  0
 17 27  1  0
 18 19  1  0
 18 21  1  1
 20 27  1  0
 23 24  1  0
 23 25  1  1
 24 26  1  0
 27 28  2  0
M  END
>  <DRUGBANK_ID>  (1) 
DB06693

>  <COMMON_NAME>  (1) 
Mevastatin

>  <CAS_NUMBER>  (1) 
73573-88-3

>  <UNII>  (1) 
1UQM1K0W9X

>  <SYNONYMS>  (1) 
Compactin; Mevastatin; Mevastatina; MÃ©vastatine; Mevastatinum

$$$$
