FR2
     RDKit          2D

 19 20  0  0  0  0  0  0  0  0999 V2000
   -1.8298    0.2709    0.0000 C   0  0  0  0  0  0  0  0  0  0  0  0
   -1.0761   -0.0647    0.0000 N   0  0  0  0  0  0  0  0  0  0  0  0
   -1.1623   -0.8852    0.0000 C   0  0  0  0  0  0  0  0  0  0  0  0
   -1.9693   -1.0567    0.0000 N   0  0  0  0  0  0  0  0  0  0  0  0
   -2.3818   -0.3422    0.0000 C   0  0  0  0  0  0  0  0  0  0  0  0
   -3.2023   -0.2560    0.0000 C   0  0  0  0  0  0  0  0  0  0  0  0
   -3.6872   -0.9234    0.0000 O   0  0  0  0  0  0  0  0  0  0  0  0
   -3.5379    0.4977    0.0000 N   0  0  0  0  0  0  0  0  0  0  0  0
   -0.3616    0.3478    0.0000 C   0  0  0  0  0  0  0  0  0  0  0  0
   -0.3616    1.1728    0.0000 C   0  0  0  0  0  0  0  0  0  0  0  0
    0.3528    1.5853    0.0000 O   0  0  0  0  0  0  0  0  0  0  0  0
    0.3528   -0.0647    0.0000 C   0  0  0  0  0  0  0  0  0  0  0  0
    1.0673    0.3478    0.0000 C   0  0  0  0  0  0  0  0  0  0  0  0
    1.7818   -0.0647    0.0000 C   0  0  0  0  0  0  0  0  0  0  0  0
    2.4962    0.3478    0.0000 C   0  0  0  0  0  0  0  0  0  0  0  0
    3.2107   -0.0647    0.0000 C   0  0  0  0  0  0  0  0  0  0  0  0
    3.2107   -0.8897    0.0000 C   0  0  0  0  0  0  0  0  0  0  0  0
    2.4962   -1.3022    0.0000 C   0  0  0  0  0  0  0  0  0  0  0  0
    1.7818   -0.8897    0.0000 C   0  0  0  0  0  0  0  0  0  0  0  0
  1  2  1  0
  1  5  2  0
  2  3  1  0
  3  4  2  0
  4  5  1  0
  5  6  1  0
  6  7  2  0
  6  8  1  0
  9  2  1  0
  9 10  1  1
  9 12  1  0
 10 11  1  0
 12 13  1  0
 13 14  1  0
 14 15  2  0
 14 19  1  0
 15 16  1  0
 16 17  2  0
 17 18  1  0
 18 19  2  0
M  END
>  <DRUGBANK_ID>  (1) 
DB02096

>  <SECONDARY_ACCESSION_NUMBERS>  (1) 
EXPT01483

>  <COMMON_NAME>  (1) 
FR221647

>  <CAS_NUMBER>  (1) 
256461-28-6

>  <UNII>  (1) 
4Z97161Z8Y

>  <SYNONYMS>  (1) 
1-[(2R)-1-hydroxy-4-phenylbutan-2-yl]-1H-imidazole-4-carboxamide

$$$$
