PGJ
     RDKit          2D

 31 34  0  0  0  0  0  0  0  0999 V2000
   -0.6226   -1.1311    0.0000 C   0  0  0  0  0  0  0  0  0  0  0  0
    0.0448   -1.6160    0.0000 N   0  0  0  0  0  0  0  0  0  0  0  0
   -0.2101   -2.4006    0.0000 O   0  0  0  0  0  0  0  0  0  0  0  0
   -1.0351   -2.4006    0.0000 C   0  0  0  0  0  0  0  0  0  0  0  0
   -1.2901   -1.6160    0.0000 C   0  0  0  0  0  0  0  0  0  0  0  0
    0.8294   -1.3611    0.0000 C   0  0  0  0  0  0  0  0  0  0  0  0
    1.4425   -1.9131    0.0000 O   0  0  0  0  0  0  0  0  0  0  0  0
    2.2272   -1.6582    0.0000 C   0  0  0  0  0  0  0  0  0  0  0  0
    2.8403   -2.2102    0.0000 C   0  0  0  0  0  0  0  0  0  0  0  0
   -0.6226   -0.3061    0.0000 C   0  0  0  0  0  0  0  0  0  0  0  0
   -1.3371    0.1064    0.0000 C   0  0  0  0  0  0  0  0  0  0  0  0
   -1.3371    0.9314    0.0000 C   0  0  0  0  0  0  0  0  0  0  0  0
   -0.6226    1.3439    0.0000 N   0  0  0  0  0  0  0  0  0  0  0  0
    0.0919    0.9314    0.0000 C   0  0  0  0  0  0  0  0  0  0  0  0
    0.0919    0.1064    0.0000 N   0  0  0  0  0  0  0  0  0  0  0  0
    0.8063    1.3439    0.0000 O   0  0  0  0  0  0  0  0  0  0  0  0
    0.8063    2.1689    0.0000 C   0  0  0  0  0  0  0  0  0  0  0  0
    0.0919    2.5814    0.0000 C   0  0  0  0  0  0  0  0  0  0  0  0
    0.0919    3.4064    0.0000 C   0  0  0  0  0  0  0  0  0  0  0  0
    0.8063    3.8189    0.0000 C   0  0  0  0  0  0  0  0  0  0  0  0
    1.5208    3.4064    0.0000 C   0  0  0  0  0  0  0  0  0  0  0  0
    1.5208    2.5814    0.0000 C   0  0  0  0  0  0  0  0  0  0  0  0
    2.2353    2.1689    0.0000 O   0  0  0  0  0  0  0  0  0  0  0  0
   -2.0747   -1.3611    0.0000 C   0  0  0  0  0  0  0  0  0  0  0  0
   -2.6878   -1.9131    0.0000 C   0  0  0  0  0  0  0  0  0  0  0  0
   -3.4724   -1.6582    0.0000 C   0  0  0  0  0  0  0  0  0  0  0  0
   -3.6439   -0.8512    0.0000 C   0  0  0  0  0  0  0  0  0  0  0  0
   -3.0308   -0.2992    0.0000 C   0  0  0  0  0  0  0  0  0  0  0  0
   -2.2462   -0.5541    0.0000 C   0  0  0  0  0  0  0  0  0  0  0  0
   -4.4285   -0.5963    0.0000 F   0  0  0  0  0  0  0  0  0  0  0  0
   -1.5200   -3.0681    0.0000 O   0  0  0  0  0  0  0  0  0  0  0  0
  1  2  1  0
  1  5  2  0
  1 10  1  0
  2  3  1  0
  2  6  1  0
  3  4  1  0
  4  5  1  0
  4 31  2  0
  5 24  1  0
  6  7  1  0
  7  8  1  0
  8  9  1  0
 10 11  2  0
 10 15  1  0
 11 12  1  0
 12 13  2  0
 13 14  1  0
 14 15  2  0
 14 16  1  0
 16 17  1  0
 17 18  2  0
 17 22  1  0
 18 19  1  0
 19 20  2  0
 20 21  1  0
 21 22  2  0
 22 23  1  0
 24 25  2  0
 24 29  1  0
 25 26  1  0
 26 27  2  0
 27 28  1  0
 27 30  1  0
 28 29  2  0
M  END
>  <DRUGBANK_ID>  (1) 
DB08395

>  <COMMON_NAME>  (1) 
2-(ETHOXYMETHYL)-4-(4-FLUOROPHENYL)-3-[2-(2-HYDROXYPHENOXY)PYRIMIDIN-4-YL]ISOXAZOL-5(2H)-ONE

$$$$
