MRX
     RDKit          2D

 21 23  0  0  0  0  0  0  0  0999 V2000
    2.3804    0.4653    0.0000 Br  0  0  0  0  0  0  0  0  0  0  0  0
    1.6659    0.8778    0.0000 C   0  0  0  0  0  0  0  0  0  0  0  0
    0.9515    0.4653    0.0000 C   0  0  0  0  0  0  0  0  0  0  0  0
    1.6659    1.7028    0.0000 C   0  0  0  0  0  0  0  0  0  0  0  0
    0.9515    2.1153    0.0000 C   0  0  0  0  0  0  0  0  0  0  0  0
    0.2370    1.7028    0.0000 C   0  0  0  0  0  0  0  0  0  0  0  0
   -0.5476    1.9577    0.0000 N   0  0  0  0  0  0  0  0  0  0  0  0
   -1.0326    1.2903    0.0000 C   0  0  0  0  0  0  0  0  0  0  0  0
   -1.8576    1.2903    0.0000 C   0  0  0  0  0  0  0  0  0  0  0  0
   -2.2701    0.5758    0.0000 N   0  0  0  0  0  0  0  0  0  0  0  0
   -2.2701    2.0048    0.0000 O   0  0  0  0  0  0  0  0  0  0  0  0
   -0.5476    0.6228    0.0000 C   0  0  0  0  0  0  0  0  0  0  0  0
    0.2370    0.8778    0.0000 C   0  0  0  0  0  0  0  0  0  0  0  0
   -0.8026   -0.1618    0.0000 S   0  0  0  0  0  0  0  0  0  0  0  0
   -0.0180   -0.4167    0.0000 O   0  0  0  0  0  0  0  0  0  0  0  0
   -1.5872    0.0932    0.0000 O   0  0  0  0  0  0  0  0  0  0  0  0
   -1.0575   -0.9464    0.0000 N   0  0  0  0  0  0  0  0  0  0  0  0
   -0.5726   -1.6138    0.0000 C   0  0  0  0  0  0  0  0  0  0  0  0
   -1.0575   -2.2813    0.0000 C   0  0  0  0  0  0  0  0  0  0  0  0
   -1.8421   -2.0263    0.0000 C   0  0  0  0  0  0  0  0  0  0  0  0
   -1.8421   -1.2013    0.0000 C   0  0  0  0  0  0  0  0  0  0  0  0
  2  3  2  0
  2  1  1  0
  4  2  1  0
  5  6  1  0
  5  4  2  0
  6 13  2  0
  7  8  1  0
  7  6  1  0
  8 12  2  0
  9 10  1  0
  9  8  1  0
 11  9  2  0
 12 13  1  0
 12 14  1  0
 13  3  1  0
 14 16  2  0
 14 17  1  0
 15 14  2  0
 17 18  1  0
 17 21  1  0
 18 19  1  0
 19 20  1  0
 21 20  1  0
M  END
>  <DRUGBANK_ID>  (1) 
DB08211

>  <COMMON_NAME>  (1) 
5-bromo-3-(pyrrolidin-1-ylsulfonyl)-1H-indole-2-carboxamide

>  <UNII>  (1) 
2REL8H3PKT

$$$$
