
     RDKit          2D

 25 26  0  0  1  0  0  0  0  0999 V2000
   26.1507  -15.5430    0.0000 O   0  0  0  0  0  0  0  0  0  0  0  0
   27.1671  -13.1785    0.0000 O   0  0  0  0  0  0  0  0  0  0  0  0
   27.5796  -16.3680    0.0000 O   0  0  0  0  0  0  0  0  0  0  0  0
   29.0086  -15.5430    0.0000 O   0  0  0  0  0  0  0  0  0  0  0  0
   28.8171  -13.1785    0.0000 O   0  0  0  0  0  0  0  0  0  0  0  0
   21.1492  -15.1305    0.0000 O   0  0  0  0  0  0  0  0  0  0  0  0
   21.1492  -16.7805    0.0000 O   0  0  0  0  0  0  0  0  0  0  0  0
   27.5796  -12.4640    0.0000 O   0  0  0  0  0  0  0  0  0  0  0  0
   25.4362  -14.3054    0.0000 O   0  0  0  0  0  0  0  0  0  0  0  0
   27.5796  -13.8929    0.0000 C   0  0  0  0  0  0  0  0  0  0  0  0
   27.5796  -15.5430    0.0000 C   0  0  0  0  0  0  0  0  0  0  0  0
   26.8651  -15.1305    0.0000 C   0  0  0  0  0  0  0  0  0  0  0  0
   28.2941  -15.1305    0.0000 C   0  0  0  0  0  0  0  0  0  0  0  0
   26.8651  -14.3054    0.0000 C   0  0  0  0  0  0  0  0  0  0  0  0
   28.2941  -14.3054    0.0000 C   0  0  0  0  0  0  0  0  0  0  0  0
   27.9921  -13.1785    0.0000 C   0  0  0  0  0  0  0  0  0  0  0  0
   25.4362  -15.1305    0.0000 C   0  0  0  0  0  0  0  0  0  0  0  0
   24.7216  -15.5430    0.0000 C   0  0  0  0  0  0  0  0  0  0  0  0
   24.0072  -15.1305    0.0000 C   0  0  0  0  0  0  0  0  0  0  0  0
   21.8637  -15.5430    0.0000 C   0  0  0  0  0  0  0  0  0  0  0  0
   21.8637  -16.3680    0.0000 C   0  0  0  0  0  0  0  0  0  0  0  0
   23.2927  -15.5430    0.0000 C   0  0  0  0  0  0  0  0  0  0  0  0
   22.5783  -15.1305    0.0000 C   0  0  0  0  0  0  0  0  0  0  0  0
   22.5783  -16.7805    0.0000 C   0  0  0  0  0  0  0  0  0  0  0  0
   23.2927  -16.3680    0.0000 C   0  0  0  0  0  0  0  0  0  0  0  0
  1 17  1  0
  5 16  1  0
  6 20  1  0
  7 21  1  0
  8 16  2  0
  9 17  2  0
 10  2  1  1
 10 14  1  0
 10 15  1  0
 10 16  1  0
 11  3  1  1
 11 12  1  0
 11 13  1  0
 12  1  1  6
 12 14  1  0
 13  4  1  1
 13 15  1  0
 17 18  1  0
 18 19  2  0
 19 22  1  0
 20 21  2  0
 20 23  1  0
 21 24  1  0
 22 23  2  0
 22 25  1  0
 24 25  2  0
M  END
>  <DRUGBANK_ID>  (1) 
DB12029

>  <COMMON_NAME>  (1) 
Chlorogenic Acid

>  <CAS_NUMBER>  (1) 
202650-88-2

>  <UNII>  (1) 
318ADP12RI

$$$$
