APJ
     RDKit          2D

 25 29  0  0  0  0  0  0  0  0999 V2000
    0.0240    0.2612    0.0000 N   0  0  0  0  0  0  0  0  0  0  0  0
   -1.4050    0.2612    0.0000 N   0  0  0  0  0  0  0  0  0  0  0  0
    0.7384    1.4987    0.0000 N   0  0  0  0  0  0  0  0  0  0  0  0
    1.5391    0.2657    0.0000 N   0  0  0  0  0  0  0  0  0  0  0  0
    2.3461    0.0942    0.0000 N   0  0  0  0  0  0  0  0  0  0  0  0
   -0.6905   -0.9763    0.0000 N   0  0  0  0  0  0  0  0  0  0  0  0
   -3.6185   -2.4687    0.0000 N   0  0  0  0  0  0  0  0  0  0  0  0
   -3.6185   -1.1339    0.0000 N   0  0  0  0  0  0  0  0  0  0  0  0
   -0.6905   -0.1513    0.0000 C   0  0  0  0  0  0  0  0  0  0  0  0
    0.0240    1.0862    0.0000 C   0  0  0  0  0  0  0  0  0  0  0  0
   -0.6905    1.4987    0.0000 C   0  0  0  0  0  0  0  0  0  0  0  0
   -1.4050    1.0862    0.0000 C   0  0  0  0  0  0  0  0  0  0  0  0
    1.4529    1.0862    0.0000 C   0  0  0  0  0  0  0  0  0  0  0  0
    2.7586    0.8087    0.0000 C   0  0  0  0  0  0  0  0  0  0  0  0
    2.2066    1.4218    0.0000 C   0  0  0  0  0  0  0  0  0  0  0  0
    3.5791    0.8949    0.0000 C   0  0  0  0  0  0  0  0  0  0  0  0
    4.3328    0.5593    0.0000 C   0  0  0  0  0  0  0  0  0  0  0  0
    4.2465    1.3798    0.0000 C   0  0  0  0  0  0  0  0  0  0  0  0
   -1.4050   -1.3888    0.0000 C   0  0  0  0  0  0  0  0  0  0  0  0
   -2.1195   -0.9763    0.0000 C   0  0  0  0  0  0  0  0  0  0  0  0
   -2.8339   -1.3888    0.0000 C   0  0  0  0  0  0  0  0  0  0  0  0
   -2.8339   -2.2138    0.0000 C   0  0  0  0  0  0  0  0  0  0  0  0
   -2.1195   -2.6263    0.0000 C   0  0  0  0  0  0  0  0  0  0  0  0
   -1.4050   -2.2138    0.0000 C   0  0  0  0  0  0  0  0  0  0  0  0
   -4.1035   -1.8013    0.0000 C   0  0  0  0  0  0  0  0  0  0  0  0
  1  9  2  0
  1 10  1  0
  2 12  2  0
  3 10  1  0
  4 13  1  0
  5  4  1  0
  6  9  1  0
  7 22  1  0
  8 21  1  0
  9  2  1  0
 10 11  2  0
 11 12  1  0
 13  3  1  0
 14  5  2  0
 14 15  1  0
 15 13  2  0
 16 14  1  0
 17 16  1  0
 18 16  1  0
 18 17  1  0
 19  6  1  0
 20 19  2  0
 21 20  1  0
 22 21  2  0
 22 23  1  0
 23 24  2  0
 24 19  1  0
 25  7  1  0
 25  8  2  0
M  END
>  <DRUGBANK_ID>  (1) 
DB07382

>  <COMMON_NAME>  (1) 
N~2~-1H-benzimidazol-5-yl-N~4~-(3-cyclopropyl-1H-pyrazol-5-yl)pyrimidine-2,4-diamine

$$$$
