KHP
     RDKit          2D

 19 20  0  0  0  0  0  0  0  0999 V2000
   -0.9051    2.9961    0.0000 O   0  0  0  0  0  0  0  0  0  0  0  0
   -0.1907    2.5836    0.0000 C   0  0  0  0  0  0  0  0  0  0  0  0
   -0.1907    1.7586    0.0000 C   0  0  0  0  0  0  0  0  0  0  0  0
    0.4768    1.2737    0.0000 O   0  0  0  0  0  0  0  0  0  0  0  0
    0.2218    0.4890    0.0000 C   0  0  0  0  0  0  0  0  0  0  0  0
   -0.6032    0.4890    0.0000 C   0  0  0  0  0  0  0  0  0  0  0  0
   -1.0881   -0.1784    0.0000 O   0  0  0  0  0  0  0  0  0  0  0  0
   -0.8581    1.2737    0.0000 C   0  0  0  0  0  0  0  0  0  0  0  0
   -1.6427    1.5286    0.0000 O   0  0  0  0  0  0  0  0  0  0  0  0
    0.7068   -0.1784    0.0000 O   0  0  0  0  0  0  0  0  0  0  0  0
    0.3712   -0.9321    0.0000 C   0  0  0  0  0  0  0  0  0  0  0  0
    0.8561   -1.5995    0.0000 C   0  0  0  0  0  0  0  0  0  0  0  0
    0.5206   -2.3532    0.0000 C   0  0  0  0  0  0  0  0  0  0  0  0
   -0.2999   -2.4394    0.0000 C   0  0  0  0  0  0  0  0  0  0  0  0
   -0.6355   -3.1931    0.0000 N   0  0  0  0  0  0  0  0  0  0  0  0
   -0.1506   -3.8605    0.0000 O   0  0  0  0  0  0  0  0  0  0  0  0
   -1.4560   -3.2793    0.0000 O   0  0  0  0  0  0  0  0  0  0  0  0
   -0.7848   -1.7720    0.0000 C   0  0  0  0  0  0  0  0  0  0  0  0
   -0.4493   -1.0183    0.0000 C   0  0  0  0  0  0  0  0  0  0  0  0
  1  2  1  0
  3  2  1  6
  3  4  1  0
  3  8  1  0
  4  5  1  0
  5  6  1  0
  5 10  1  1
  6  7  1  6
  6  8  1  0
  8  9  1  1
 10 11  1  0
 11 12  2  0
 11 19  1  0
 12 13  1  0
 13 14  2  0
 14 15  1  0
 14 18  1  0
 15 16  1  0
 15 17  2  0
 18 19  2  0
M  CHG  2  15   1  16  -1
M  END
>  <DRUGBANK_ID>  (1) 
DB03196

>  <SECONDARY_ACCESSION_NUMBERS>  (1) 
EXPT01972

>  <COMMON_NAME>  (1) 
4-Nitrophenyl-Ara

$$$$
