
     RDKit          2D

 20 22  0  0  0  0  0  0  0  0999 V2000
   -0.8708   -0.1202    0.0000 C   0  0  0  0  0  0  0  0  0  0  0  0
    2.2057    1.1687    0.0000 N   0  0  0  0  0  0  0  0  0  0  0  0
    1.9651    1.9594    0.0000 C   0  0  0  0  0  0  0  0  0  0  0  0
    0.0916    0.9453    0.0000 C   0  0  0  0  0  0  0  0  0  0  0  0
   -0.0802    0.1374    0.0000 C   0  0  0  0  0  0  0  0  0  0  0  0
    0.8650    1.1859    0.0000 C   0  0  0  0  0  0  0  0  0  0  0  0
   -1.0428   -0.9281    0.0000 O   0  0  0  0  0  0  0  0  0  0  0  0
    1.1401    1.9594    0.0000 C   0  0  0  0  0  0  0  0  0  0  0  0
   -1.4839    0.4468    0.0000 C   0  0  0  0  0  0  0  0  0  0  0  0
    1.5354    0.6875    0.0000 C   0  0  0  0  0  0  0  0  0  0  0  0
    2.4464    2.6297    0.0000 O   0  0  0  0  0  0  0  0  0  0  0  0
   -0.5213    1.4953    0.0000 C   0  0  0  0  0  0  0  0  0  0  0  0
   -1.3005    1.2547    0.0000 C   0  0  0  0  0  0  0  0  0  0  0  0
   -0.4353   -1.4782    0.0000 C   0  0  0  0  0  0  0  0  0  0  0  0
   -2.2630    0.1890    0.0000 O   0  0  0  0  0  0  0  0  0  0  0  0
   -2.4464   -0.6188    0.0000 C   0  0  0  0  0  0  0  0  0  0  0  0
    0.3838   -1.3062    0.0000 C   0  0  0  0  0  0  0  0  0  0  0  0
   -0.5213   -2.2860    0.0000 C   0  0  0  0  0  0  0  0  0  0  0  0
    0.2349   -2.6297    0.0000 C   0  0  0  0  0  0  0  0  0  0  0  0
    0.7791   -2.0281    0.0000 C   0  0  0  0  0  0  0  0  0  0  0  0
  2 10  1  0
  2  3  1  0
  3  8  1  0
  4  5  2  0
  4 12  1  0
  5  1  1  0
  6  4  1  6
  7  1  1  0
  8  6  1  0
  9  1  2  0
 10  6  1  0
 11  3  2  0
 12 13  2  0
 13  9  1  0
 14  7  1  0
 15  9  1  0
 16 15  1  0
 17 14  1  0
 18 14  1  0
 19 18  1  0
 19 20  1  0
 20 17  1  0
M  END
>  <DRUGBANK_ID>  (1) 
DB03606

>  <SECONDARY_ACCESSION_NUMBERS>  (1) 
EXPT00229

>  <COMMON_NAME>  (1) 
(S)-Rolipram

>  <CAS_NUMBER>  (1) 
85416-73-5

>  <UNII>  (1) 
H6G4VMQ24K

>  <SYNONYMS>  (1) 
(+)-rolipram; (S)-(+)-rolipram; S-rolipram

$$$$
