
     RDKit          2D

 15 15  0  0  0  0  0  0  0  0999 V2000
    1.7861    1.6500    0.0000 O   0  0  0  0  0  0  0  0  0  0  0  0
    1.7861    0.8250    0.0000 C   0  0  0  0  0  0  0  0  0  0  0  0
    2.5006    0.4125    0.0000 O   0  0  0  0  0  0  0  0  0  0  0  0
    1.0716    0.4125    0.0000 C   0  0  0  0  0  0  0  0  0  0  0  0
    1.0716   -0.4125    0.0000 N   0  0  0  0  0  0  0  0  0  0  0  0
    0.3572    0.8250    0.0000 C   0  0  0  0  0  0  0  0  0  0  0  0
   -0.3572    0.4125    0.0000 C   0  0  0  0  0  0  0  0  0  0  0  0
   -0.3572   -0.4125    0.0000 C   0  0  0  0  0  0  0  0  0  0  0  0
   -1.7861    0.4125    0.0000 C   0  0  0  0  0  0  0  0  0  0  0  0
   -1.7861   -0.4125    0.0000 C   0  0  0  0  0  0  0  0  0  0  0  0
   -2.5006   -0.8250    0.0000 O   0  0  0  0  0  0  0  0  0  0  0  0
   -1.0717    0.8250    0.0000 C   0  0  0  0  0  0  0  0  0  0  0  0
   -1.0717    1.6500    0.0000 O   0  0  0  0  0  0  0  0  0  0  0  0
   -1.0717   -0.8250    0.0000 C   0  0  0  0  0  0  0  0  0  0  0  0
   -1.0717   -1.6500    0.0000 O   0  0  0  0  0  0  0  0  0  0  0  0
  2  1  2  0
  3  2  1  0
  4  2  1  0
  4  5  1  1
  6  4  1  0
  7  6  1  0
  8  7  2  0
  9 12  1  0
 10  9  2  0
 11 10  1  0
 12  7  1  0
 12 13  2  0
 14  8  1  0
 14 10  1  0
 14 15  2  0
M  END
>  <DRUGBANK_ID>  (1) 
DB04334

>  <SECONDARY_ACCESSION_NUMBERS>  (1) 
EXPT03094

>  <COMMON_NAME>  (1) 
6-hydroxydopa quinone

>  <CAS_NUMBER>  (1) 
64192-68-3

>  <UNII>  (1) 
PAG3GKA51Y

>  <SYNONYMS>  (1) 
(S)-Î±-amino-4-hydroxy-3,6-dioxo-1,4-cyclohexadiene-1-propanoic acid; 6-Hydroxyphenylalanine-3,4-dione; L-topaquinone; Topa quinone; Topaquinone

$$$$
