GW9
     RDKit          2D

 19 20  0  0  0  0  0  0  0  0999 V2000
    1.3288    1.3743    0.0000 Cl  0  0  0  0  0  0  0  0  0  0  0  0
    1.3288    0.5493    0.0000 C   0  0  0  0  0  0  0  0  0  0  0  0
    2.0433    0.1368    0.0000 C   0  0  0  0  0  0  0  0  0  0  0  0
    2.0433   -0.6882    0.0000 C   0  0  0  0  0  0  0  0  0  0  0  0
    1.3288   -1.1007    0.0000 C   0  0  0  0  0  0  0  0  0  0  0  0
    1.3288   -1.9257    0.0000 N   0  0  0  0  0  0  0  0  0  0  0  0
    2.0433   -2.3382    0.0000 O   0  0  0  0  0  0  0  0  0  0  0  0
    0.6144   -2.3382    0.0000 O   0  0  0  0  0  0  0  0  0  0  0  0
    0.6144   -0.6882    0.0000 C   0  0  0  0  0  0  0  0  0  0  0  0
    0.6144    0.1368    0.0000 C   0  0  0  0  0  0  0  0  0  0  0  0
   -0.1001    0.5493    0.0000 C   0  0  0  0  0  0  0  0  0  0  0  0
   -0.1001    1.3743    0.0000 O   0  0  0  0  0  0  0  0  0  0  0  0
   -0.8146    0.1368    0.0000 N   0  0  0  0  0  0  0  0  0  0  0  0
   -1.5291    0.5493    0.0000 C   0  0  0  0  0  0  0  0  0  0  0  0
   -2.2435    0.1368    0.0000 C   0  0  0  0  0  0  0  0  0  0  0  0
   -2.9580    0.5493    0.0000 C   0  0  0  0  0  0  0  0  0  0  0  0
   -2.9580    1.3743    0.0000 C   0  0  0  0  0  0  0  0  0  0  0  0
   -2.2435    1.7868    0.0000 C   0  0  0  0  0  0  0  0  0  0  0  0
   -1.5291    1.3743    0.0000 C   0  0  0  0  0  0  0  0  0  0  0  0
  1  2  1  0
  2  3  2  0
  2 10  1  0
  3  4  1  0
  4  5  2  0
  5  6  1  0
  5  9  1  0
  6  7  1  0
  6  8  2  0
  9 10  2  0
 10 11  1  0
 11 12  2  0
 11 13  1  0
 13 14  1  0
 14 15  2  0
 14 19  1  0
 15 16  1  0
 16 17  2  0
 17 18  1  0
 18 19  2  0
M  CHG  2   6   1   7  -1
M  END
>  <DRUGBANK_ID>  (1) 
DB07863

>  <COMMON_NAME>  (1) 
2-chloro-5-nitro-N-phenylbenzamide

>  <UNII>  (1) 
UM18UZV2YD

$$$$
