
     RDKit          2D

 37 40  0  0  0  0  0  0  0  0999 V2000
    1.2197   -6.7208    0.0000 C   0  0  0  0  0  0  0  0  0  0  0  0
    1.9341   -6.3083    0.0000 C   0  0  0  0  0  0  0  0  0  0  0  0
    2.6486   -6.7208    0.0000 C   0  0  0  0  0  0  0  0  0  0  0  0
    3.3631   -6.3083    0.0000 C   0  0  0  0  0  0  0  0  0  0  0  0
    4.0776   -6.7208    0.0000 C   0  0  0  0  0  0  0  0  0  0  0  0
    4.0776   -7.5458    0.0000 C   0  0  0  0  0  0  0  0  0  0  0  0
    3.3631   -7.9583    0.0000 C   0  0  0  0  0  0  0  0  0  0  0  0
    2.6486   -7.5458    0.0000 C   0  0  0  0  0  0  0  0  0  0  0  0
    1.9341   -7.9583    0.0000 C   0  0  0  0  0  0  0  0  0  0  0  0
    1.9341   -8.7833    0.0000 N   0  0  0  0  0  0  0  0  0  0  0  0
    2.5175   -9.3667    0.0000 C   0  0  0  0  0  0  0  0  0  0  0  0
    1.9341   -9.9500    0.0000 C   0  0  0  0  0  0  0  0  0  0  0  0
    1.3508   -9.3667    0.0000 C   0  0  0  0  0  0  0  0  0  0  0  0
    1.9341  -10.7750    0.0000 C   0  0  0  0  0  0  0  0  0  0  0  0
    1.2197  -11.1875    0.0000 O   0  0  0  0  0  0  0  0  0  0  0  0
    2.6486  -11.1875    0.0000 O   0  0  0  0  0  0  0  0  0  0  0  0
    4.7920   -6.3083    0.0000 C   0  0  0  0  0  0  0  0  0  0  0  0
    5.5065   -6.7208    0.0000 N   0  0  0  0  0  0  0  0  0  0  0  0
    6.2210   -6.3083    0.0000 O   0  0  0  0  0  0  0  0  0  0  0  0
    6.2210   -5.4833    0.0000 C   0  0  0  0  0  0  0  0  0  0  0  0
    6.9354   -5.0708    0.0000 C   0  0  0  0  0  0  0  0  0  0  0  0
    6.9354   -4.2458    0.0000 C   0  0  0  0  0  0  0  0  0  0  0  0
    7.6499   -3.8333    0.0000 C   0  0  0  0  0  0  0  0  0  0  0  0
    8.3644   -4.2458    0.0000 C   0  0  0  0  0  0  0  0  0  0  0  0
    8.3644   -5.0708    0.0000 C   0  0  0  0  0  0  0  0  0  0  0  0
    7.6499   -5.4833    0.0000 C   0  0  0  0  0  0  0  0  0  0  0  0
    9.0789   -5.4833    0.0000 C   0  0  0  0  0  0  0  0  0  0  0  0
    9.7933   -5.8958    0.0000 F   0  0  0  0  0  0  0  0  0  0  0  0
    8.6664   -6.1978    0.0000 F   0  0  0  0  0  0  0  0  0  0  0  0
    9.4914   -4.7688    0.0000 F   0  0  0  0  0  0  0  0  0  0  0  0
    9.0789   -3.8333    0.0000 C   0  0  0  0  0  0  0  0  0  0  0  0
    9.0789   -3.0083    0.0000 C   0  0  0  0  0  0  0  0  0  0  0  0
    9.7933   -2.5958    0.0000 C   0  0  0  0  0  0  0  0  0  0  0  0
   10.5078   -3.0083    0.0000 C   0  0  0  0  0  0  0  0  0  0  0  0
   10.5078   -3.8333    0.0000 C   0  0  0  0  0  0  0  0  0  0  0  0
    9.7933   -4.2458    0.0000 C   0  0  0  0  0  0  0  0  0  0  0  0
    4.7920   -5.4833    0.0000 C   0  0  0  0  0  0  0  0  0  0  0  0
  1  2  1  0
  2  3  1  0
  3  4  2  0
  3  8  1  0
  4  5  1  0
  5  6  2  0
  5 17  1  0
  6  7  1  0
  7  8  2  0
  8  9  1  0
  9 10  1  0
 10 11  1  0
 10 13  1  0
 11 12  1  0
 12 13  1  0
 12 14  1  0
 14 15  2  0
 14 16  1  0
 17 18  2  0
 17 37  1  0
 18 19  1  0
 19 20  1  0
 20 21  1  0
 21 22  2  0
 21 26  1  0
 22 23  1  0
 23 24  2  0
 24 25  1  0
 24 31  1  0
 25 26  2  0
 25 27  1  0
 27 28  1  0
 27 29  1  0
 27 30  1  0
 31 32  1  0
 31 36  1  0
 32 33  1  0
 33 34  1  0
 34 35  1  0
 35 36  1  0
M  END
>  <DRUGBANK_ID>  (1) 
DB12371

>  <COMMON_NAME>  (1) 
Siponimod

>  <CAS_NUMBER>  (1) 
1230487-00-9

>  <UNII>  (1) 
RR6P8L282I

>  <SYNONYMS>  (1) 
Siponimod

$$$$
