
     RDKit          2D

 17 19  0  0  0  0  0  0  0  0999 V2000
    0.7761    1.3602    0.0000 C   0  0  0  0  0  0  0  0  0  0  0  0
    0.8623    2.1807    0.0000 N   0  0  0  0  0  0  0  0  0  0  0  0
    1.6693    2.3522    0.0000 C   0  0  0  0  0  0  0  0  0  0  0  0
    2.0818    1.6377    0.0000 C   0  0  0  0  0  0  0  0  0  0  0  0
    1.5298    1.0246    0.0000 N   0  0  0  0  0  0  0  0  0  0  0  0
    0.0615    0.9477    0.0000 C   0  0  0  0  0  0  0  0  0  0  0  0
    0.0615    0.1227    0.0000 C   0  0  0  0  0  0  0  0  0  0  0  0
    0.7761   -0.2897    0.0000 C   0  0  0  0  0  0  0  0  0  0  0  0
    0.7761   -1.1147    0.0000 C   0  0  0  0  0  0  0  0  0  0  0  0
    0.0615   -1.5272    0.0000 C   0  0  0  0  0  0  0  0  0  0  0  0
   -0.6528   -1.1147    0.0000 C   0  0  0  0  0  0  0  0  0  0  0  0
   -1.3673   -1.5272    0.0000 C   0  0  0  0  0  0  0  0  0  0  0  0
   -2.0818   -1.1147    0.0000 C   0  0  0  0  0  0  0  0  0  0  0  0
   -2.0818   -0.2897    0.0000 C   0  0  0  0  0  0  0  0  0  0  0  0
   -1.3673    0.1227    0.0000 C   0  0  0  0  0  0  0  0  0  0  0  0
   -0.6528   -0.2897    0.0000 C   0  0  0  0  0  0  0  0  0  0  0  0
    0.0615   -2.3522    0.0000 Cl  0  0  0  0  0  0  0  0  0  0  0  0
  1  2  2  0
  1  5  1  0
  1  6  1  0
  2  3  1  0
  3  4  1  0
  4  5  1  0
  6  7  1  0
  7  8  2  0
  7 16  1  0
  8  9  1  0
  9 10  2  0
 10 11  1  0
 10 17  1  0
 11 12  1  0
 11 16  2  0
 12 13  2  0
 13 14  1  0
 14 15  2  0
 15 16  1  0
M  END
>  <DRUGBANK_ID>  (1) 
DB15881

>  <COMMON_NAME>  (1) 
Clonazoline

>  <CAS_NUMBER>  (1) 
17692-28-3

>  <UNII>  (1) 
YH9K692U9S

>  <SYNONYMS>  (1) 
Clonazolina; Clonazoline; Clonazolinum

$$$$
