24I
     RDKit          2D

 21 21  0  0  0  0  0  0  0  0999 V2000
   -2.6687    0.8781    0.0000 O   0  0  0  0  0  0  0  0  0  0  0  0
   -2.0451    0.3380    0.0000 C   0  0  0  0  0  0  0  0  0  0  0  0
   -2.2010   -0.4722    0.0000 O   0  0  0  0  0  0  0  0  0  0  0  0
   -1.2655    0.6080    0.0000 C   0  0  0  0  0  0  0  0  0  0  0  0
   -0.6419    0.0679    0.0000 C   0  0  0  0  0  0  0  0  0  0  0  0
    0.1376    0.3380    0.0000 C   0  0  0  0  0  0  0  0  0  0  0  0
    0.2936    1.1481    0.0000 C   0  0  0  0  0  0  0  0  0  0  0  0
    1.0731    1.4182    0.0000 O   0  0  0  0  0  0  0  0  0  0  0  0
   -0.3301    1.6882    0.0000 O   0  0  0  0  0  0  0  0  0  0  0  0
    0.7613   -0.2021    0.0000 C   0  0  0  0  0  0  0  0  0  0  0  0
    1.5408    0.0679    0.0000 P   0  0  0  0  0  0  0  0  0  0  0  0
    1.8109   -0.7116    0.0000 O   0  0  0  0  0  0  0  0  0  0  0  0
    1.2708    0.8475    0.0000 O   0  0  0  0  0  0  0  0  0  0  0  0
    2.3204    0.3380    0.0000 C   0  0  0  0  0  0  0  0  0  0  0  0
    2.9440   -0.2021    0.0000 C   0  0  0  0  0  0  0  0  0  0  0  0
    3.7236    0.0679    0.0000 C   0  0  0  0  0  0  0  0  0  0  0  0
    4.3472   -0.4722    0.0000 C   0  0  0  0  0  0  0  0  0  0  0  0
    2.7881   -1.0122    0.0000 C   0  0  0  0  0  0  0  0  0  0  0  0
    3.4118   -1.5523    0.0000 C   0  0  0  0  0  0  0  0  0  0  0  0
    4.1913   -1.2823    0.0000 C   0  0  0  0  0  0  0  0  0  0  0  0
    4.8150   -1.8224    0.0000 I   0  0  0  0  0  0  0  0  0  0  0  0
  1  2  2  0
  2  3  1  0
  2  4  1  0
  4  5  1  0
  6  5  1  1
  6  7  1  0
  6 10  1  0
  7  8  1  0
  7  9  2  0
 10 11  1  0
 11 12  2  0
 11 13  1  0
 11 14  1  0
 14 15  1  0
 15 16  2  0
 15 18  1  0
 16 17  1  0
 17 20  2  0
 18 19  2  0
 19 20  1  0
 20 21  1  0
M  END
>  <DRUGBANK_ID>  (1) 
DB06928

>  <COMMON_NAME>  (1) 
(2S)-2-{[HYDROXY(4-IODOBENZYL)PHOSPHORYL]METHYL}PENTANEDIOIC ACID

$$$$
