
     RDKit          2D

 23 24  0  0  1  0  0  0  0  0999 V2000
   -0.6073    0.0000    0.0000 C   0  0  0  0  0  0  0  0  0  0  0  0
   -1.3218   -0.4125    0.0000 C   0  0  0  0  0  0  0  0  0  0  0  0
   -1.3218   -1.2375    0.0000 C   0  0  0  0  0  0  0  0  0  0  0  0
   -2.0363   -1.6500    0.0000 C   0  0  0  0  0  0  0  0  0  0  0  0
   -2.7507   -1.2375    0.0000 C   0  0  0  0  0  0  0  0  0  0  0  0
   -2.7507   -0.4125    0.0000 C   0  0  0  0  0  0  0  0  0  0  0  0
   -2.0363    0.0000    0.0000 C   0  0  0  0  0  0  0  0  0  0  0  0
   -0.0504   -0.9645    0.0000 C   0  0  0  0  0  0  0  0  0  0  0  0
    0.7745   -0.9645    0.0000 C   0  0  0  0  0  0  0  0  0  0  0  0
    1.1870   -1.6790    0.0000 C   0  0  0  0  0  0  0  0  0  0  0  0
    0.7745   -2.3934    0.0000 C   0  0  0  0  0  0  0  0  0  0  0  0
   -0.0504   -2.3934    0.0000 C   0  0  0  0  0  0  0  0  0  0  0  0
   -0.4629   -1.6790    0.0000 C   0  0  0  0  0  0  0  0  0  0  0  0
   -1.1642    0.9644    0.0000 C   0  0  0  0  0  0  0  0  0  0  0  0
   -1.9892    0.9644    0.0000 O   0  0  0  0  0  0  0  0  0  0  0  0
   -0.7517    1.6789    0.0000 C   0  0  0  0  0  0  0  0  0  0  0  0
   -1.1642    2.3934    0.0000 C   0  0  0  0  0  0  0  0  0  0  0  0
    0.3571    0.5568    0.0000 C   0  0  0  0  0  0  0  0  0  0  0  0
    1.3217    0.0000    0.0000 C   0  0  0  0  0  0  0  0  0  0  0  0
    1.3217   -0.8249    0.0000 C   0  0  0  0  0  0  0  0  0  0  0  0
    2.0361    0.4124    0.0000 N   0  0  0  0  0  0  0  0  0  0  0  0
    2.0361    1.2374    0.0000 C   0  0  0  0  0  0  0  0  0  0  0  0
    2.7506    0.0000    0.0000 C   0  0  0  0  0  0  0  0  0  0  0  0
  1  2  1  0
  1  8  1  0
  1 14  1  0
  1 18  1  0
  2  3  2  0
  2  7  1  0
  3  4  1  0
  4  5  2  0
  6  5  1  0
  7  6  2  0
  8  9  2  0
  8 13  1  0
  9 10  1  0
 10 11  2  0
 12 11  1  0
 13 12  2  0
 14 15  2  0
 14 16  1  0
 16 17  1  0
 18 19  1  0
 19 20  1  1
 19 21  1  0
 21 22  1  0
 21 23  1  0
M  END
>  <DRUGBANK_ID>  (1) 
DB15198

>  <COMMON_NAME>  (1) 
Dextromethadone

>  <CAS_NUMBER>  (1) 
5653-80-5

>  <UNII>  (1) 
S95RZH8AMH

>  <SYNONYMS>  (1) 
D-methadone

$$$$
