
     RDKit          2D

 40 48  0  0  0  0  0  0  0  0999 V2000
   -2.4835   -3.0816    0.0000 C   0  0  0  0  0  0  0  0  0  0  0  0
   -3.0719   -2.5033    0.0000 C   0  0  0  0  0  0  0  0  0  0  0  0
    2.5237   -3.0379    0.0000 C   0  0  0  0  0  0  0  0  0  0  0  0
    3.1019   -2.4494    0.0000 C   0  0  0  0  0  0  0  0  0  0  0  0
   -3.0585    2.4185    0.0000 C   0  0  0  0  0  0  0  0  0  0  0  0
   -2.4802    3.0069    0.0000 C   0  0  0  0  0  0  0  0  0  0  0  0
    3.0313    2.5302    0.0000 C   0  0  0  0  0  0  0  0  0  0  0  0
    2.4428    3.1084    0.0000 C   0  0  0  0  0  0  0  0  0  0  0  0
   -1.6885   -2.8611    0.0000 C   0  0  0  0  0  0  0  0  0  0  0  0
   -2.8653   -1.7046    0.0000 C   0  0  0  0  0  0  0  0  0  0  0  0
    1.7249   -2.8314    0.0000 C   0  0  0  0  0  0  0  0  0  0  0  0
    2.8813   -1.6544    0.0000 C   0  0  0  0  0  0  0  0  0  0  0  0
   -2.8380    1.6235    0.0000 C   0  0  0  0  0  0  0  0  0  0  0  0
   -1.6815    2.8003    0.0000 C   0  0  0  0  0  0  0  0  0  0  0  0
    2.8247    1.7315    0.0000 C   0  0  0  0  0  0  0  0  0  0  0  0
    1.6478    2.8880    0.0000 C   0  0  0  0  0  0  0  0  0  0  0  0
   -1.4819   -2.0624    0.0000 C   0  0  0  0  0  0  0  0  0  0  0  0
   -2.0703   -1.4841    0.0000 C   0  0  0  0  0  0  0  0  0  0  0  0
    1.5044   -2.0364    0.0000 C   0  0  0  0  0  0  0  0  0  0  0  0
    2.0826   -1.4479    0.0000 C   0  0  0  0  0  0  0  0  0  0  0  0
   -2.0393    1.4169    0.0000 C   0  0  0  0  0  0  0  0  0  0  0  0
   -1.4610    2.0053    0.0000 C   0  0  0  0  0  0  0  0  0  0  0  0
    2.0297    1.5110    0.0000 C   0  0  0  0  0  0  0  0  0  0  0  0
    1.4413    2.0893    0.0000 C   0  0  0  0  0  0  0  0  0  0  0  0
   -0.7243   -1.6459    0.0000 C   0  0  0  0  0  0  0  0  0  0  0  0
   -1.6690   -0.7465    0.0000 C   0  0  0  0  0  0  0  0  0  0  0  0
    0.7106   -1.6627    0.0000 C   0  0  0  0  0  0  0  0  0  0  0  0
   -1.6818    0.7174    0.0000 C   0  0  0  0  0  0  0  0  0  0  0  0
    1.6683   -0.6881    0.0000 C   0  0  0  0  0  0  0  0  0  0  0  0
   -0.7239    1.6627    0.0000 C   0  0  0  0  0  0  0  0  0  0  0  0
    1.6265    0.7462    0.0000 C   0  0  0  0  0  0  0  0  0  0  0  0
    0.7107    1.6752    0.0000 C   0  0  0  0  0  0  0  0  0  0  0  0
   -0.8480   -0.8857    0.0000 N   0  0  0  0  0  0  0  0  0  0  0  0
    0.8501   -0.8709    0.0000 N   0  0  0  0  0  0  0  0  0  0  0  0
   -0.8926    0.8706    0.0000 N   0  0  0  0  0  0  0  0  0  0  0  0
    0.8643    0.8567    0.0000 N   0  0  0  0  0  0  0  0  0  0  0  0
    0.0112   -2.0494    0.0000 N   0  0  0  0  0  0  0  0  0  0  0  0
   -2.0558   -0.0472    0.0000 N   0  0  0  0  0  0  0  0  0  0  0  0
    2.0427    0.0179    0.0000 N   0  0  0  0  0  0  0  0  0  0  0  0
    0.0047    2.0496    0.0000 N   0  0  0  0  0  0  0  0  0  0  0  0
  2  1  2  0
  4  3  2  0
  6  5  2  0
  8  7  1  0
  9  1  1  0
 10  2  1  0
 11  3  1  0
 12  4  1  0
 13  5  1  0
 14  6  1  0
 15  7  2  0
 16  8  2  0
 17  9  2  0
 18 10  2  0
 18 17  1  0
 19 11  2  0
 20 12  2  0
 20 19  1  0
 21 13  2  0
 22 14  2  0
 22 21  1  0
 23 15  1  0
 24 16  1  0
 24 23  1  0
 25 17  1  0
 26 18  1  0
 27 19  1  0
 28 21  1  0
 29 20  1  0
 30 22  1  0
 31 23  2  0
 32 24  2  0
 33 25  2  0
 33 26  1  0
 34 27  2  0
 34 29  1  0
 35 28  2  0
 35 30  1  0
 36 31  1  0
 36 32  1  0
 37 25  1  0
 37 27  1  0
 38 26  2  0
 38 28  1  0
 39 29  2  0
 39 31  1  0
 40 30  2  0
 40 32  1  0
M  END
>  <DRUGBANK_ID>  (1) 
DB12983

>  <COMMON_NAME>  (1) 
Phthalocyanine

>  <CAS_NUMBER>  (1) 
574-93-6

>  <UNII>  (1) 
V5PUF4VLGY

>  <SYNONYMS>  (1) 
ftalocianina; Pigment blue 16

$$$$
