
     RDKit          2D

 23 24  0  0  1  0  0  0  0  0999 V2000
    0.0000    2.4750    0.0000 C   0  0  0  0  0  0  0  0  0  0  0  0
    0.7145    2.0625    0.0000 C   0  0  0  0  0  0  0  0  0  0  0  0
   -0.7145    2.0625    0.0000 O   0  0  0  0  0  0  0  0  0  0  0  0
    0.7145    1.2375    0.0000 C   0  0  0  0  0  0  0  0  0  0  0  0
   -0.7145    1.2375    0.0000 C   0  0  0  0  0  0  0  0  0  0  0  0
    0.0000    0.8250    0.0000 C   0  0  0  0  0  0  0  0  0  0  0  0
    0.0000    3.3000    0.0000 O   0  0  0  0  0  0  0  0  0  0  0  0
    1.4289    2.4750    0.0000 O   0  0  0  0  0  0  0  0  0  0  0  0
    1.4289    0.8250    0.0000 O   0  0  0  0  0  0  0  0  0  0  0  0
    0.0000    0.0000    0.0000 O   0  0  0  0  0  0  0  0  0  0  0  0
   -1.4290    0.8250    0.0000 C   0  0  0  0  0  0  0  0  0  0  0  0
   -2.1434    1.2375    0.0000 O   0  0  0  0  0  0  0  0  0  0  0  0
   -0.7145   -0.4125    0.0000 C   0  0  0  0  0  0  0  0  0  0  0  0
   -0.7145   -1.2375    0.0000 C   0  0  0  0  0  0  0  0  0  0  0  0
   -1.4290    0.0000    0.0000 O   0  0  0  0  0  0  0  0  0  0  0  0
   -1.4290   -1.6500    0.0000 C   0  0  0  0  0  0  0  0  0  0  0  0
   -2.1434   -0.4125    0.0000 C   0  0  0  0  0  0  0  0  0  0  0  0
   -2.1434   -1.2375    0.0000 C   0  0  0  0  0  0  0  0  0  0  0  0
    0.0000   -1.6500    0.0000 O   0  0  0  0  0  0  0  0  0  0  0  0
   -1.4290   -2.4750    0.0000 O   0  0  0  0  0  0  0  0  0  0  0  0
   -2.8579   -1.6500    0.0000 O   0  0  0  0  0  0  0  0  0  0  0  0
   -2.8579    0.0000    0.0000 C   0  0  0  0  0  0  0  0  0  0  0  0
   -3.5724   -0.4125    0.0000 O   0  0  0  0  0  0  0  0  0  0  0  0
  1  2  1  0
  1  3  1  0
  1  7  1  1
  2  4  1  0
  2  8  1  6
  3  5  1  0
  4  6  1  0
  4  9  1  1
  5  6  1  0
  5 11  1  1
  6 10  1  1
 12 11  1  0
 13 14  1  0
 13 15  1  0
 13 10  1  1
 14 16  1  0
 14 19  1  6
 15 17  1  0
 16 18  1  0
 16 20  1  1
 17 18  1  0
 17 22  1  1
 18 21  1  1
 22 23  1  0
M  END
>  <DRUGBANK_ID>  (1) 
DB02743

>  <SECONDARY_ACCESSION_NUMBERS>  (1) 
EXPT00610

>  <COMMON_NAME>  (1) 
beta-D-galactopyranosyl-(1->4)-beta-D-galactopyranose

>  <SYNONYMS>  (1) 
4-O-β-D-galactopyranosyl-β-D-galactopyranose; Galactobiose; β-D-galactopyranosyl-(1→4)-β-D-galactopyranose; β-D-Galp-(1→4)-β-D-Galp

$$$$
