
     RDKit          2D

 31 34  0  0  1  0  0  0  0  0999 V2000
    1.7100   -2.4055    0.0000 C   0  0  0  0  0  0  0  0  0  0  0  0
    1.4201   -1.6331    0.0000 C   0  0  0  0  0  0  0  0  0  0  0  0
    0.6248   -1.4137    0.0000 N   0  0  0  0  0  0  0  0  0  0  0  0
    0.5878   -0.5895    0.0000 N   0  0  0  0  0  0  0  0  0  0  0  0
    1.3602   -0.2996    0.0000 C   0  0  0  0  0  0  0  0  0  0  0  0
    1.5438    0.5047    0.0000 C   0  0  0  0  0  0  0  0  0  0  0  0
    0.8988    1.0191    0.0000 C   0  0  0  0  0  0  0  0  0  0  0  0
    0.1308    0.7177    0.0000 C   0  0  0  0  0  0  0  0  0  0  0  0
    0.0078   -0.0981    0.0000 O   0  0  0  0  0  0  0  0  0  0  0  0
   -0.5142    1.2321    0.0000 O   0  0  0  0  0  0  0  0  0  0  0  0
   -1.2822    0.9306    0.0000 C   0  0  0  0  0  0  0  0  0  0  0  0
   -2.0501    0.6292    0.0000 C   0  0  0  0  0  0  0  0  0  0  0  0
   -0.9808    0.1627    0.0000 C   0  0  0  0  0  0  0  0  0  0  0  0
   -1.5836    1.6986    0.0000 C   0  0  0  0  0  0  0  0  0  0  0  0
    2.2871    0.8627    0.0000 N   0  0  0  0  0  0  0  0  0  0  0  0
    3.0304    0.5047    0.0000 C   0  0  0  0  0  0  0  0  0  0  0  0
    3.2140   -0.2996    0.0000 C   0  0  0  0  0  0  0  0  0  0  0  0
    2.6996   -0.9446    0.0000 C   0  0  0  0  0  0  0  0  0  0  0  0
    3.1541   -1.6331    0.0000 S   0  0  0  0  0  0  0  0  0  0  0  0
    3.9493   -1.4137    0.0000 C   0  0  0  0  0  0  0  0  0  0  0  0
    4.5944   -1.9280    0.0000 C   0  0  0  0  0  0  0  0  0  0  0  0
    3.9864   -0.5895    0.0000 C   0  0  0  0  0  0  0  0  0  0  0  0
    4.6749   -0.1350    0.0000 C   0  0  0  0  0  0  0  0  0  0  0  0
    1.8746   -0.9446    0.0000 N   0  0  0  0  0  0  0  0  0  0  0  0
    3.6754    1.0191    0.0000 C   0  0  0  0  0  0  0  0  0  0  0  0
    3.5524    1.8349    0.0000 C   0  0  0  0  0  0  0  0  0  0  0  0
    4.1974    2.3492    0.0000 C   0  0  0  0  0  0  0  0  0  0  0  0
    4.9654    2.0478    0.0000 C   0  0  0  0  0  0  0  0  0  0  0  0
    5.6104    2.5622    0.0000 Cl  0  0  0  0  0  0  0  0  0  0  0  0
    5.0884    1.2321    0.0000 C   0  0  0  0  0  0  0  0  0  0  0  0
    4.4434    0.7177    0.0000 C   0  0  0  0  0  0  0  0  0  0  0  0
  1  2  1  0
  2  3  2  0
  2 24  1  0
  3  4  1  0
  4  5  2  0
  5 24  1  0
  6  5  1  0
  6  7  1  6
  6 15  1  0
  7  8  1  0
  8  9  2  0
  8 10  1  0
 10 11  1  0
 11 12  1  0
 11 13  1  0
 11 14  1  0
 15 16  2  0
 16 17  1  0
 16 25  1  0
 17 18  2  0
 17 22  1  0
 18 19  1  0
 18 24  1  0
 19 20  1  0
 20 21  1  0
 20 22  2  0
 22 23  1  0
 25 26  2  0
 25 31  1  0
 26 27  1  0
 27 28  2  0
 28 29  1  0
 28 30  1  0
 30 31  2  0
M  END
>  <DRUGBANK_ID>  (1) 
DB17021

>  <COMMON_NAME>  (1) 
JQ1

>  <CAS_NUMBER>  (1) 
1268524-70-4

>  <UNII>  (1) 
1MRH0IMX0W

>  <SYNONYMS>  (1) 
(s)-(+)-tert-butyl 2-(4-(4-chlorophenyl)-2,3,9-trimethyl-6h-thieno(3,2-f)(1,2,4)triazolo(4,3-a)(1,4)diazepin-6-yl)acetate; 6h-thieno(3,2-f)(1,2,4)triazolo(4,3-a)(1,4)diazepine-6-acetic acid, 4-(4-chlorophenyl)-2,3,9-trimethyl-, 1,1-dimethylethyl ester, (6s)-; Tert-butyl 2-((6s)-4-(4-chlorophenyl)-2,3,9-trimethyl-6h-thieno(3,2-f)(1,2,4)triazolo(4,3-a)(1,4)diazepin-6-yl)acetate

$$$$
