WW7
     RDKit          2D

 22 23  0  0  0  0  0  0  0  0999 V2000
   -1.4418   -0.4783    0.0000 S   0  0  0  0  0  0  0  0  0  0  0  0
   -1.8543   -1.1928    0.0000 O   0  0  0  0  0  0  0  0  0  0  0  0
   -1.0293    0.2361    0.0000 O   0  0  0  0  0  0  0  0  0  0  0  0
   -0.7274   -0.8908    0.0000 N   0  0  0  0  0  0  0  0  0  0  0  0
   -3.5853    0.7592    0.0000 C   0  0  0  0  0  0  0  0  0  0  0  0
   -3.5853   -0.0658    0.0000 C   0  0  0  0  0  0  0  0  0  0  0  0
   -2.8708   -0.4783    0.0000 C   0  0  0  0  0  0  0  0  0  0  0  0
   -2.1563   -0.0658    0.0000 C   0  0  0  0  0  0  0  0  0  0  0  0
   -2.1563    0.7592    0.0000 C   0  0  0  0  0  0  0  0  0  0  0  0
   -2.8708    1.1717    0.0000 C   0  0  0  0  0  0  0  0  0  0  0  0
   -3.5853    2.4092    0.0000 Cl  0  0  0  0  0  0  0  0  0  0  0  0
   -2.8708    1.9967    0.0000 C   0  0  0  0  0  0  0  0  0  0  0  0
   -2.1563    2.4092    0.0000 C   0  0  0  0  0  0  0  0  0  0  0  0
   -1.4418    1.9967    0.0000 C   0  0  0  0  0  0  0  0  0  0  0  0
   -1.4418    1.1717    0.0000 C   0  0  0  0  0  0  0  0  0  0  0  0
   -0.0129   -0.4783    0.0000 C   0  0  0  0  0  0  0  0  0  0  0  0
    0.7016   -0.8908    0.0000 C   0  0  0  0  0  0  0  0  0  0  0  0
    2.1305   -0.8908    0.0000 C   0  0  0  0  0  0  0  0  0  0  0  0
    1.4160   -0.4783    0.0000 C   0  0  0  0  0  0  0  0  0  0  0  0
    2.8450   -0.4783    0.0000 C   0  0  0  0  0  0  0  0  0  0  0  0
    3.5595   -0.8908    0.0000 C   0  0  0  0  0  0  0  0  0  0  0  0
    4.2739   -0.4783    0.0000 N   0  0  0  0  0  0  0  0  0  0  0  0
  1  2  2  0
  1  3  2  0
  1  4  1  0
  1  8  1  0
  4 16  1  0
  5  6  2  0
  5 10  1  0
  6  7  1  0
  7  8  2  0
  8  9  1  0
  9 10  2  0
  9 15  1  0
 10 12  1  0
 11 12  1  0
 12 13  2  0
 13 14  1  0
 14 15  2  0
 16 17  1  0
 17 19  1  0
 18 19  1  0
 18 20  1  0
 20 21  1  0
 21 22  1  0
M  END
>  <DRUGBANK_ID>  (1) 
DB04513

>  <SECONDARY_ACCESSION_NUMBERS>  (1) 
EXPT03246

>  <COMMON_NAME>  (1) 
N-(6-Aminohexyl)-5-Chloro-1-Naphthalenesulfonamide

$$$$
