P4A
     RDKit          2D

 22 24  0  0  0  0  0  0  0  0999 V2000
    0.4339    2.3246    0.0000 N   0  0  0  0  0  0  0  0  0  0  0  0
    1.1013    1.8396    0.0000 N   0  0  0  0  0  0  0  0  0  0  0  0
    0.8464    1.0550    0.0000 C   0  0  0  0  0  0  0  0  0  0  0  0
    0.0214    1.0550    0.0000 C   0  0  0  0  0  0  0  0  0  0  0  0
   -0.2336    1.8396    0.0000 C   0  0  0  0  0  0  0  0  0  0  0  0
    1.3313    0.3876    0.0000 C   0  0  0  0  0  0  0  0  0  0  0  0
   -0.4636    0.3876    0.0000 C   0  0  0  0  0  0  0  0  0  0  0  0
   -1.0182    2.0946    0.0000 C   0  0  0  0  0  0  0  0  0  0  0  0
   -0.1280   -0.3661    0.0000 C   0  0  0  0  0  0  0  0  0  0  0  0
   -0.6129   -1.0335    0.0000 C   0  0  0  0  0  0  0  0  0  0  0  0
   -1.4334   -0.9473    0.0000 C   0  0  0  0  0  0  0  0  0  0  0  0
   -1.7690   -0.1936    0.0000 C   0  0  0  0  0  0  0  0  0  0  0  0
   -1.2840    0.4738    0.0000 C   0  0  0  0  0  0  0  0  0  0  0  0
    2.1518    0.4738    0.0000 C   0  0  0  0  0  0  0  0  0  0  0  0
    2.6367   -0.1936    0.0000 C   0  0  0  0  0  0  0  0  0  0  0  0
    2.3011   -0.9473    0.0000 C   0  0  0  0  0  0  0  0  0  0  0  0
    1.4806   -1.0335    0.0000 C   0  0  0  0  0  0  0  0  0  0  0  0
    0.9957   -0.3661    0.0000 C   0  0  0  0  0  0  0  0  0  0  0  0
    2.7860   -1.6147    0.0000 O   0  0  0  0  0  0  0  0  0  0  0  0
    2.4873    1.2275    0.0000 O   0  0  0  0  0  0  0  0  0  0  0  0
   -1.9183   -1.6147    0.0000 O   0  0  0  0  0  0  0  0  0  0  0  0
   -1.5828   -2.3684    0.0000 C   0  0  0  0  0  0  0  0  0  0  0  0
  1  2  1  0
  1  5  1  0
  2  3  2  0
  3  4  1  0
  3  6  1  0
  4  5  2  0
  4  7  1  0
  5  8  1  0
  6 14  2  0
  6 18  1  0
  7  9  2  0
  7 13  1  0
  9 10  1  0
 10 11  2  0
 11 12  1  0
 11 21  1  0
 12 13  2  0
 14 15  1  0
 14 20  1  0
 15 16  2  0
 16 17  1  0
 16 19  1  0
 17 18  2  0
 21 22  1  0
M  END
>  <DRUGBANK_ID>  (1) 
DB08356

>  <COMMON_NAME>  (1) 
4-[4-(4-methoxyphenyl)-5-methyl-1H-pyrazol-3-yl]benzene-1,3-diol

>  <UNII>  (1) 
0613LSI19F

$$$$
