HFP
     RDKit          2D

 20 19  0  0  0  0  0  0  0  0999 V2000
   -4.0044    0.4075    0.0000 P   0  0  0  0  0  0  0  0  0  0  0  0
   -4.7188    0.8200    0.0000 O   0  0  0  0  0  0  0  0  0  0  0  0
   -4.4169   -0.3070    0.0000 O   0  0  0  0  0  0  0  0  0  0  0  0
   -3.5919    1.1220    0.0000 O   0  0  0  0  0  0  0  0  0  0  0  0
   -3.2899   -0.0050    0.0000 C   0  0  0  0  0  0  0  0  0  0  0  0
   -3.2899   -0.8300    0.0000 O   0  0  0  0  0  0  0  0  0  0  0  0
   -2.5754    0.4075    0.0000 C   0  0  0  0  0  0  0  0  0  0  0  0
   -1.8610   -0.0050    0.0000 C   0  0  0  0  0  0  0  0  0  0  0  0
   -1.8610   -0.8300    0.0000 C   0  0  0  0  0  0  0  0  0  0  0  0
   -1.1465    0.4075    0.0000 C   0  0  0  0  0  0  0  0  0  0  0  0
   -0.4320   -0.0050    0.0000 C   0  0  0  0  0  0  0  0  0  0  0  0
    0.2825    0.4075    0.0000 C   0  0  0  0  0  0  0  0  0  0  0  0
    0.9969   -0.0050    0.0000 C   0  0  0  0  0  0  0  0  0  0  0  0
    0.9969   -0.8300    0.0000 C   0  0  0  0  0  0  0  0  0  0  0  0
    1.7114    0.4075    0.0000 C   0  0  0  0  0  0  0  0  0  0  0  0
    2.4259   -0.0050    0.0000 C   0  0  0  0  0  0  0  0  0  0  0  0
    3.1403    0.4075    0.0000 C   0  0  0  0  0  0  0  0  0  0  0  0
    3.8548   -0.0050    0.0000 C   0  0  0  0  0  0  0  0  0  0  0  0
    4.5693    0.4075    0.0000 C   0  0  0  0  0  0  0  0  0  0  0  0
    3.8548   -0.8300    0.0000 C   0  0  0  0  0  0  0  0  0  0  0  0
  1  2  2  0
  1  3  1  0
  1  4  1  0
  1  5  1  0
  5  6  1  1
  5  7  1  0
  7  8  1  0
  8  9  1  1
  8 10  1  0
 10 11  1  0
 11 12  1  0
 12 13  1  0
 13 14  1  1
 13 15  1  0
 15 16  1  0
 16 17  1  0
 17 18  1  0
 18 19  1  0
 18 20  1  0
M  END
>  <DRUGBANK_ID>  (1) 
DB07895

>  <COMMON_NAME>  (1) 
ALPHA-HYDROXYFARNESYLPHOSPHONIC ACID

$$$$
