
     RDKit          2D

 31 32  0  0  0  0  0  0  0  0999 V2000
    1.4008    0.8107    0.0000 S   0  0  0  0  0  0  0  0  0  0  0  0
   -0.7424   -1.2517    0.0000 O   0  0  0  0  0  0  0  0  0  0  0  0
   -0.0280   -1.6642    0.0000 O   0  0  0  0  0  0  0  0  0  0  0  0
   -4.3148   -0.0142    0.0000 O   0  0  0  0  0  0  0  0  0  0  0  0
   -3.6003   -1.2517    0.0000 O   0  0  0  0  0  0  0  0  0  0  0  0
    2.1154   -3.7267    0.0000 O   0  0  0  0  0  0  0  0  0  0  0  0
    2.8298   -2.4892    0.0000 O   0  0  0  0  0  0  0  0  0  0  0  0
   -0.0280   -0.0142    0.0000 N   0  0  0  0  0  0  0  0  0  0  0  0
    1.4008   -1.6642    0.0000 N   0  0  0  0  0  0  0  0  0  0  0  0
   -2.8858    0.8107    0.0000 N   0  0  0  0  0  0  0  0  0  0  0  0
    0.6864   -0.4267    0.0000 C   0  0  0  0  0  0  0  0  0  0  0  0
    1.4008   -0.0142    0.0000 C   0  0  0  0  0  0  0  0  0  0  0  0
   -2.1714   -0.4267    0.0000 C   0  0  0  0  0  0  0  0  0  0  0  0
   -1.4569   -0.0142    0.0000 C   0  0  0  0  0  0  0  0  0  0  0  0
   -2.8858   -0.0142    0.0000 C   0  0  0  0  0  0  0  0  0  0  0  0
   -0.7424   -0.4267    0.0000 C   0  0  0  0  0  0  0  0  0  0  0  0
    2.1154    2.0482    0.0000 C   0  0  0  0  0  0  0  0  0  0  0  0
    2.1154    1.2232    0.0000 C   0  0  0  0  0  0  0  0  0  0  0  0
    0.6864   -1.2517    0.0000 C   0  0  0  0  0  0  0  0  0  0  0  0
    2.8298    2.4607    0.0000 C   0  0  0  0  0  0  0  0  0  0  0  0
    2.8298    3.2857    0.0000 C   0  0  0  0  0  0  0  0  0  0  0  0
    1.4008    2.4607    0.0000 C   0  0  0  0  0  0  0  0  0  0  0  0
    3.5673    2.0196    0.0000 C   0  0  0  0  0  0  0  0  0  0  0  0
    2.1154    3.6982    0.0000 C   0  0  0  0  0  0  0  0  0  0  0  0
    1.4008    3.2857    0.0000 C   0  0  0  0  0  0  0  0  0  0  0  0
   -3.6003   -0.4267    0.0000 C   0  0  0  0  0  0  0  0  0  0  0  0
    3.5673    3.7267    0.0000 C   0  0  0  0  0  0  0  0  0  0  0  0
    4.3148    2.4435    0.0000 C   0  0  0  0  0  0  0  0  0  0  0  0
    1.4008   -2.4892    0.0000 C   0  0  0  0  0  0  0  0  0  0  0  0
    4.3148    3.3028    0.0000 C   0  0  0  0  0  0  0  0  0  0  0  0
    2.1154   -2.9017    0.0000 C   0  0  0  0  0  0  0  0  0  0  0  0
  1 12  1  0
  1 18  1  0
  2 16  2  0
  3 19  2  0
  4 26  1  0
  5 26  2  0
  6 31  1  0
  7 31  2  0
  8 16  1  0
  9 19  1  0
  9 29  1  0
 11  8  1  0
 11 12  1  1
 11 19  1  0
 13 14  1  0
 13 15  1  0
 14 16  1  0
 15 10  1  1
 15 26  1  0
 17 18  1  0
 17 20  2  0
 17 22  1  0
 20 21  1  0
 20 23  1  0
 21 24  2  0
 21 27  1  0
 22 25  2  0
 23 28  2  0
 24 25  1  0
 27 30  2  0
 28 30  1  0
 29 31  1  0
M  END
>  <DRUGBANK_ID>  (1) 
DB03885

>  <SECONDARY_ACCESSION_NUMBERS>  (1) 
EXPT01588

>  <COMMON_NAME>  (1) 
L-gamma-glutamyl-S-(naphthalen-1-ylmethyl)-L-cysteinylglycine

>  <SYNONYMS>  (1) 
1-menaphthyl glutathione conjugate; L-gammaGlu-S-(1-Naphthylmethyl)-L-Cys-Gly-OH

$$$$
