TAQ
     RDKit          2D

 13 14  0  0  0  0  0  0  0  0999 V2000
   -1.4143   -0.1951    0.0000 C   0  0  0  0  0  0  0  0  0  0  0  0
   -2.1288   -0.6076    0.0000 N   0  0  0  0  0  0  0  0  0  0  0  0
   -1.4143    0.6299    0.0000 C   0  0  0  0  0  0  0  0  0  0  0  0
   -0.6999    1.0424    0.0000 C   0  0  0  0  0  0  0  0  0  0  0  0
    0.0146    0.6299    0.0000 C   0  0  0  0  0  0  0  0  0  0  0  0
    0.7291    1.0424    0.0000 N   0  0  0  0  0  0  0  0  0  0  0  0
    1.4435    0.6299    0.0000 C   0  0  0  0  0  0  0  0  0  0  0  0
    2.1580    1.0424    0.0000 N   0  0  0  0  0  0  0  0  0  0  0  0
    1.4435   -0.1951    0.0000 N   0  0  0  0  0  0  0  0  0  0  0  0
    0.7291   -0.6076    0.0000 C   0  0  0  0  0  0  0  0  0  0  0  0
    0.0146   -0.1951    0.0000 C   0  0  0  0  0  0  0  0  0  0  0  0
   -0.6999   -0.6076    0.0000 C   0  0  0  0  0  0  0  0  0  0  0  0
    0.7291   -1.4326    0.0000 N   0  0  0  0  0  0  0  0  0  0  0  0
  1  2  1  0
  1  3  2  0
  1 12  1  0
  3  4  1  0
  4  5  2  0
  5  6  1  0
  5 11  1  0
  6  7  2  0
  7  8  1  0
  7  9  1  0
  9 10  2  0
 10 11  1  0
 10 13  1  0
 11 12  2  0
M  END
>  <DRUGBANK_ID>  (1) 
DB02532

>  <SECONDARY_ACCESSION_NUMBERS>  (1) 
EXPT03006

>  <COMMON_NAME>  (1) 
2,4,6-Triaminoquinazoline

>  <UNII>  (1) 
WZD2M6Q8CC

$$$$
