
     RDKit          2D

 25 28  0  0  1  0  0  0  0  0999 V2000
    1.2460   -0.9505    0.0000 N   0  0  0  0  0  0  0  0  0  0  0  0
    1.7309   -1.6180    0.0000 C   0  0  0  0  0  0  0  0  0  0  0  0
    2.5559   -1.6180    0.0000 N   0  0  0  0  0  0  0  0  0  0  0  0
    2.8109   -2.4026    0.0000 N   0  0  0  0  0  0  0  0  0  0  0  0
    2.1434   -2.8875    0.0000 C   0  0  0  0  0  0  0  0  0  0  0  0
    2.1434   -3.7125    0.0000 C   0  0  0  0  0  0  0  0  0  0  0  0
    1.4289   -4.1250    0.0000 N   0  0  0  0  0  0  0  0  0  0  0  0
    1.4289   -4.9500    0.0000 C   0  0  0  0  0  0  0  0  0  0  0  0
    1.8414   -5.6645    0.0000 C   0  0  0  0  0  0  0  0  0  0  0  0
    1.0164   -5.6645    0.0000 C   0  0  0  0  0  0  0  0  0  0  0  0
    0.3020   -6.0770    0.0000 C   0  0  0  0  0  0  0  0  0  0  0  0
    0.3020   -6.9020    0.0000 C   0  0  0  0  0  0  0  0  0  0  0  0
   -0.4125   -7.3145    0.0000 C   0  0  0  0  0  0  0  0  0  0  0  0
   -1.1270   -6.9020    0.0000 C   0  0  0  0  0  0  0  0  0  0  0  0
   -1.8414   -7.3145    0.0000 O   0  0  0  0  0  0  0  0  0  0  0  0
   -1.8414   -8.1395    0.0000 C   0  0  0  0  0  0  0  0  0  0  0  0
   -2.5559   -8.5520    0.0000 C   0  0  0  0  0  0  0  0  0  0  0  0
   -2.5559   -9.3770    0.0000 C   0  0  0  0  0  0  0  0  0  0  0  0
   -3.2704   -9.7895    0.0000 C   0  0  0  0  0  0  0  0  0  0  0  0
   -3.9849   -9.3770    0.0000 C   0  0  0  0  0  0  0  0  0  0  0  0
   -3.9849   -8.5520    0.0000 C   0  0  0  0  0  0  0  0  0  0  0  0
   -3.2704   -8.1395    0.0000 C   0  0  0  0  0  0  0  0  0  0  0  0
   -1.1270   -6.0770    0.0000 C   0  0  0  0  0  0  0  0  0  0  0  0
   -0.4125   -5.6645    0.0000 C   0  0  0  0  0  0  0  0  0  0  0  0
    1.4760   -2.4026    0.0000 O   0  0  0  0  0  0  0  0  0  0  0  0
  1  2  1  0
  2  3  2  0
  2 25  1  0
  3  4  1  0
  4  5  2  0
  5  6  1  0
  5 25  1  0
  6  7  1  0
  8  7  1  6
  8  9  1  0
  8 10  1  0
 10  9  1  0
 10 11  1  1
 11 12  2  0
 11 24  1  0
 12 13  1  0
 13 14  2  0
 14 15  1  0
 14 23  1  0
 15 16  1  0
 16 17  1  0
 17 18  2  0
 17 22  1  0
 18 19  1  0
 19 20  2  0
 20 21  1  0
 21 22  2  0
 23 24  2  0
M  END
>  <DRUGBANK_ID>  (1) 
DB16446

>  <COMMON_NAME>  (1) 
Vafidemstat

>  <CAS_NUMBER>  (1) 
1357362-02-7

>  <UNII>  (1) 
LZ82JLT4UP

>  <SYNONYMS>  (1) 
Vafidemstat

$$$$
