
     RDKit          2D

 26 29  0  0  0  0  0  0  0  0999 V2000
   -1.5418   -0.7605    0.0000 C   0  0  0  0  0  0  0  0  0  0  0  0
   -1.5418   -1.5856    0.0000 N   0  0  0  0  0  0  0  0  0  0  0  0
   -0.8292   -0.3479    0.0000 C   0  0  0  0  0  0  0  0  0  0  0  0
    2.0669   -0.4230    0.0000 C   0  0  0  0  0  0  0  0  0  0  0  0
   -2.3294   -0.5064    0.0000 N   0  0  0  0  0  0  0  0  0  0  0  0
   -0.1125   -0.7605    0.0000 C   0  0  0  0  0  0  0  0  0  0  0  0
   -2.3294   -1.8398    0.0000 N   0  0  0  0  0  0  0  0  0  0  0  0
    1.3126   -0.7605    0.0000 N   0  0  0  0  0  0  0  0  0  0  0  0
    2.2419    0.3853    0.0000 C   0  0  0  0  0  0  0  0  0  0  0  0
   -0.1125   -1.5856    0.0000 N   0  0  0  0  0  0  0  0  0  0  0  0
   -0.8292   -1.9981    0.0000 C   0  0  0  0  0  0  0  0  0  0  0  0
   -2.8128   -1.1730    0.0000 C   0  0  0  0  0  0  0  0  0  0  0  0
    2.6211   -1.0355    0.0000 N   0  0  0  0  0  0  0  0  0  0  0  0
    0.6000   -0.3479    0.0000 C   0  0  0  0  0  0  0  0  0  0  0  0
    1.6251    0.9355    0.0000 N   0  0  0  0  0  0  0  0  0  0  0  0
    2.2086   -1.7523    0.0000 C   0  0  0  0  0  0  0  0  0  0  0  0
    1.4001   -1.5815    0.0000 C   0  0  0  0  0  0  0  0  0  0  0  0
    3.0253    0.6396    0.0000 C   0  0  0  0  0  0  0  0  0  0  0  0
   -0.8292    0.4771    0.0000 C   0  0  0  0  0  0  0  0  0  0  0  0
    3.6379    0.0853    0.0000 F   0  0  0  0  0  0  0  0  0  0  0  0
   -3.6379   -1.1730    0.0000 C   0  0  0  0  0  0  0  0  0  0  0  0
    1.8001    1.7439    0.0000 C   0  0  0  0  0  0  0  0  0  0  0  0
    3.1962    1.4438    0.0000 C   0  0  0  0  0  0  0  0  0  0  0  0
   -1.5418    0.8897    0.0000 C   0  0  0  0  0  0  0  0  0  0  0  0
    2.5836    1.9981    0.0000 C   0  0  0  0  0  0  0  0  0  0  0  0
   -1.5418    1.7147    0.0000 C   0  0  0  0  0  0  0  0  0  0  0  0
  2  1  1  0
  3  1  1  0
  4  8  1  0
  5  1  2  0
  6  3  2  0
  7  2  1  0
  7 12  2  0
  8 14  1  0
  9  4  1  0
 10 11  2  0
 10  6  1  0
 11  2  1  0
 12  5  1  0
 13  4  2  0
 14  6  1  0
 15  9  2  0
 16 17  2  0
 16 13  1  0
 17  8  1  0
 18  9  1  0
 19  3  1  0
 20 18  1  0
 21 12  1  0
 22 15  1  0
 23 18  2  0
 24 19  1  0
 25 22  2  0
 25 23  1  0
 26 24  1  0
M  END
>  <DRUGBANK_ID>  (1) 
DB06579

>  <COMMON_NAME>  (1) 
Adipiplon

>  <CAS_NUMBER>  (1) 
840486-93-3

>  <UNII>  (1) 
OPL214POJ1

>  <SYNONYMS>  (1) 
Adipiplon

$$$$
