460
     RDKit          2D

 22 25  0  0  0  0  0  0  0  0999 V2000
    1.5148   -1.0243    0.0000 C   0  0  0  0  0  0  0  0  0  0  0  0
    0.7302   -1.2792    0.0000 C   0  0  0  0  0  0  0  0  0  0  0  0
    0.5587   -2.0862    0.0000 C   0  0  0  0  0  0  0  0  0  0  0  0
   -0.2260   -2.3412    0.0000 C   0  0  0  0  0  0  0  0  0  0  0  0
   -0.8390   -1.7891    0.0000 C   0  0  0  0  0  0  0  0  0  0  0  0
   -0.6675   -0.9822    0.0000 C   0  0  0  0  0  0  0  0  0  0  0  0
    0.1171   -0.7272    0.0000 N   0  0  0  0  0  0  0  0  0  0  0  0
   -1.2806   -0.4301    0.0000 C   0  0  0  0  0  0  0  0  0  0  0  0
   -2.0876   -0.6016    0.0000 N   0  0  0  0  0  0  0  0  0  0  0  0
   -2.5001    0.1128    0.0000 N   0  0  0  0  0  0  0  0  0  0  0  0
   -1.9481    0.7259    0.0000 C   0  0  0  0  0  0  0  0  0  0  0  0
   -1.1944    0.3904    0.0000 C   0  0  0  0  0  0  0  0  0  0  0  0
   -0.4799    0.8029    0.0000 C   0  0  0  0  0  0  0  0  0  0  0  0
   -0.4799    1.6279    0.0000 C   0  0  0  0  0  0  0  0  0  0  0  0
    0.2346    2.0404    0.0000 C   0  0  0  0  0  0  0  0  0  0  0  0
    0.9490    1.6279    0.0000 C   0  0  0  0  0  0  0  0  0  0  0  0
    1.6635    2.0404    0.0000 N   0  0  0  0  0  0  0  0  0  0  0  0
    2.3780    1.6279    0.0000 C   0  0  0  0  0  0  0  0  0  0  0  0
    2.3780    0.8029    0.0000 C   0  0  0  0  0  0  0  0  0  0  0  0
    1.6635    0.3904    0.0000 C   0  0  0  0  0  0  0  0  0  0  0  0
    0.9490    0.8029    0.0000 C   0  0  0  0  0  0  0  0  0  0  0  0
    0.2346    0.3904    0.0000 N   0  0  0  0  0  0  0  0  0  0  0  0
  1  2  1  0
  2  3  2  0
  2  7  1  0
  3  4  1  0
  4  5  2  0
  5  6  1  0
  6  7  2  0
  6  8  1  0
  8  9  1  0
  8 12  2  0
  9 10  1  0
 10 11  1  0
 11 12  1  0
 12 13  1  0
 13 14  2  0
 13 22  1  0
 14 15  1  0
 15 16  2  0
 16 17  1  0
 16 21  1  0
 17 18  2  0
 18 19  1  0
 19 20  2  0
 20 21  1  0
 21 22  2  0
M  END
>  <DRUGBANK_ID>  (1) 
DB04434

>  <SECONDARY_ACCESSION_NUMBERS>  (1) 
EXPT00199

>  <COMMON_NAME>  (1) 
Naphthyridine Inhibitor

$$$$
