
     RDKit          2D

 11  8  0  0  0  0  0  0  0  0999 V2000
    3.0592    2.1110    0.0000 Cl  0  0  0  0  0  0  0  0  0  0  0  0
   -3.0592   -0.8785    0.0000 O   0  0  0  0  0  0  0  0  0  0  0  0
   -2.3438   -1.2893    0.0000 C   0  0  0  0  0  0  0  0  0  0  0  0
   -2.3438   -2.1110    0.0000 O   0  0  0  0  0  0  0  0  0  0  0  0
   -1.6237   -0.8831    0.0000 C   0  0  0  0  0  0  0  0  0  0  0  0
   -1.6237   -0.0568    0.0000 C   0  0  0  0  0  0  0  0  0  0  0  0
   -0.9128    0.3540    0.0000 C   0  0  0  0  0  0  0  0  0  0  0  0
   -0.2019   -0.0568    0.0000 O   0  0  0  0  0  0  0  0  0  0  0  0
   -0.9128    1.1756    0.0000 O   0  0  0  0  0  0  0  0  0  0  0  0
   -2.3345    0.3540    0.0000 N   0  0  0  0  0  0  0  0  0  0  0  0
    1.5336   -0.5969    0.0000 Mg  0  0  0  0  0 15  0  0  0  0  0  0
  3  2  1  0
  3  4  2  0
  5  3  1  0
  6  5  1  0
  6 10  1  6
  7  6  1  0
  7  9  2  0
  8  7  1  0
M  CHG  3   2  -1   8  -1  11   2
M  END
>  <DRUGBANK_ID>  (1) 
DB16619

>  <COMMON_NAME>  (1) 
Magnesium aspartate hydrochloride

>  <CAS_NUMBER>  (1) 
28184-71-6

>  <UNII>  (1) 
5LK942W2PC

$$$$
