TTR
     RDKit          2D

 17 19  0  0  0  0  0  0  0  0999 V2000
    1.8303    0.0829    0.0000 C   0  0  0  0  0  0  0  0  0  0  0  0
    1.5754    0.8675    0.0000 C   0  0  0  0  0  0  0  0  0  0  0  0
    0.7684    1.0390    0.0000 C   0  0  0  0  0  0  0  0  0  0  0  0
    0.2164    0.4259    0.0000 C   0  0  0  0  0  0  0  0  0  0  0  0
    0.4713   -0.3587    0.0000 C   0  0  0  0  0  0  0  0  0  0  0  0
   -0.6086    0.4259    0.0000 C   0  0  0  0  0  0  0  0  0  0  0  0
   -0.1961   -0.8436    0.0000 N   0  0  0  0  0  0  0  0  0  0  0  0
   -0.1961   -1.6686    0.0000 C   0  0  0  0  0  0  0  0  0  0  0  0
   -0.9106   -2.0811    0.0000 O   0  0  0  0  0  0  0  0  0  0  0  0
    0.5184   -2.0811    0.0000 C   0  0  0  0  0  0  0  0  0  0  0  0
   -0.8635   -0.3587    0.0000 C   0  0  0  0  0  0  0  0  0  0  0  0
   -1.1606    1.0390    0.0000 C   0  0  0  0  0  0  0  0  0  0  0  0
   -1.6705   -0.5302    0.0000 C   0  0  0  0  0  0  0  0  0  0  0  0
   -1.9676    0.8675    0.0000 C   0  0  0  0  0  0  0  0  0  0  0  0
   -2.2225    0.0829    0.0000 C   0  0  0  0  0  0  0  0  0  0  0  0
    1.2783   -0.5302    0.0000 C   0  0  0  0  0  0  0  0  0  0  0  0
    1.5333   -1.3148    0.0000 O   0  0  0  0  0  0  0  0  0  0  0  0
  1  2  1  0
  1 16  1  0
  2  3  1  0
  3  4  1  0
  4  5  2  0
  4  6  1  0
  5  7  1  0
  5 16  1  0
  6 11  2  0
  6 12  1  0
  7  8  1  0
  7 11  1  0
  8  9  2  0
  8 10  1  0
 11 13  1  0
 12 14  2  0
 13 15  2  0
 14 15  1  0
 16 17  2  0
M  END
>  <DRUGBANK_ID>  (1) 
DB08655

>  <COMMON_NAME>  (1) 
9-ACETYL-2,3,4,9-TETRAHYDRO-1H-CARBAZOL-1-ONE

$$$$
