B77
     RDKit          2D

 17 18  0  0  0  0  0  0  0  0999 V2000
   -1.4107    2.2350    0.0000 C   0  0  0  0  0  0  0  0  0  0  0  0
   -1.4107    1.4100    0.0000 C   0  0  0  0  0  0  0  0  0  0  0  0
   -0.6963    0.9975    0.0000 C   0  0  0  0  0  0  0  0  0  0  0  0
   -0.6963    0.1725    0.0000 C   0  0  0  0  0  0  0  0  0  0  0  0
   -1.4107   -0.2400    0.0000 C   0  0  0  0  0  0  0  0  0  0  0  0
   -2.1252    0.1725    0.0000 C   0  0  0  0  0  0  0  0  0  0  0  0
   -2.1252    0.9975    0.0000 C   0  0  0  0  0  0  0  0  0  0  0  0
   -1.4107   -1.0650    0.0000 O   0  0  0  0  0  0  0  0  0  0  0  0
   -2.1252   -1.4775    0.0000 C   0  0  0  0  0  0  0  0  0  0  0  0
    0.0182   -0.2400    0.0000 O   0  0  0  0  0  0  0  0  0  0  0  0
    0.7327    0.1725    0.0000 C   0  0  0  0  0  0  0  0  0  0  0  0
    1.4471   -0.2400    0.0000 C   0  0  0  0  0  0  0  0  0  0  0  0
    2.1616    0.1725    0.0000 N   0  0  0  0  0  0  0  0  0  0  0  0
    2.8761   -0.2400    0.0000 C   0  0  0  0  0  0  0  0  0  0  0  0
    2.8761   -1.0650    0.0000 C   0  0  0  0  0  0  0  0  0  0  0  0
    2.1616   -1.4775    0.0000 C   0  0  0  0  0  0  0  0  0  0  0  0
    1.4471   -1.0650    0.0000 C   0  0  0  0  0  0  0  0  0  0  0  0
  1  2  1  0
  2  3  2  0
  2  7  1  0
  3  4  1  0
  4  5  2  0
  4 10  1  0
  5  6  1  0
  5  8  1  0
  6  7  2  0
  8  9  1  0
 10 11  1  0
 11 12  1  0
 12 13  2  0
 12 17  1  0
 13 14  1  0
 14 15  2  0
 15 16  1  0
 16 17  2  0
M  END
>  <DRUGBANK_ID>  (1) 
DB07427

>  <COMMON_NAME>  (1) 
2-[(2-methoxy-5-methylphenoxy)methyl]pyridine

$$$$
