
     RDKit          2D

  8  7  0  0  0  0  0  0  0  0999 V2000
    2.3649    0.4908    0.0000 O   0  0  0  0  0  0  0  0  0  0  0  0
   -0.4929    0.4908    0.0000 N   0  0  0  0  0  0  0  0  0  0  0  0
   -1.9220    0.4908    0.0000 N   0  0  0  0  0  0  0  0  0  0  0  0
   -1.2074   -0.7466    0.0000 N   0  0  0  0  0  0  0  0  0  0  0  0
    0.9359    0.4908    0.0000 C   0  0  0  0  0  0  0  0  0  0  0  0
    0.2214    0.0783    0.0000 C   0  0  0  0  0  0  0  0  0  0  0  0
    1.6504    0.0783    0.0000 C   0  0  0  0  0  0  0  0  0  0  0  0
   -1.2074    0.0783    0.0000 C   0  0  0  0  0  0  0  0  0  0  0  0
  1  7  1  0
  2  6  1  0
  2  8  2  3
  3  8  1  0
  4  8  1  0
  5  6  1  0
  5  7  1  0
M  CHG  1   2   1
M  END
>  <DRUGBANK_ID>  (1) 
DB03637

>  <SECONDARY_ACCESSION_NUMBERS>  (1) 
EXPT02563

>  <COMMON_NAME>  (1) 
Guanidine-3-propanol

$$$$
