
     RDKit          2D

 30 35  0  0  0  0  0  0  0  0999 V2000
   -0.5570   -2.0625    0.0000 N   0  0  0  0  0  0  0  0  0  0  0  0
    0.1572   -1.6500    0.0000 C   0  0  0  0  0  0  0  0  0  0  0  0
    0.1572   -0.8250    0.0000 C   0  0  0  0  0  0  0  0  0  0  0  0
   -0.5570   -0.4125    0.0000 C   0  0  0  0  0  0  0  0  0  0  0  0
   -1.2715   -0.8250    0.0000 C   0  0  0  0  0  0  0  0  0  0  0  0
   -1.9861   -0.4125    0.0000 C   0  0  0  0  0  0  0  0  0  0  0  0
   -2.7004   -0.8250    0.0000 C   0  0  0  0  0  0  0  0  0  0  0  0
   -2.7004   -1.6500    0.0000 C   0  0  0  0  0  0  0  0  0  0  0  0
   -1.9861   -2.0625    0.0000 C   0  0  0  0  0  0  0  0  0  0  0  0
   -1.2715   -1.6500    0.0000 C   0  0  0  0  0  0  0  0  0  0  0  0
    0.8718   -2.0625    0.0000 O   0  0  0  0  0  0  0  0  0  0  0  0
   -3.4150   -0.4125    0.0000 Cl  0  0  0  0  0  0  0  0  0  0  0  0
    0.8718   -0.4125    0.0000 C   0  0  0  0  0  0  0  0  0  0  0  0
    1.6255   -0.7481    0.0000 N   0  0  0  0  0  0  0  0  0  0  0  0
    2.1775   -0.1350    0.0000 C   0  0  0  0  0  0  0  0  0  0  0  0
    1.7650    0.5794    0.0000 C   0  0  0  0  0  0  0  0  0  0  0  0
    0.9580    0.4079    0.0000 N   0  0  0  0  0  0  0  0  0  0  0  0
    3.0025   -0.1350    0.0000 C   0  0  0  0  0  0  0  0  0  0  0  0
    3.4150    0.5794    0.0000 C   0  0  0  0  0  0  0  0  0  0  0  0
    3.0025    1.2940    0.0000 C   0  0  0  0  0  0  0  0  0  0  0  0
    2.1775    1.2940    0.0000 C   0  0  0  0  0  0  0  0  0  0  0  0
   -0.5570    0.4124    0.0000 N   0  0  0  0  0  0  0  0  0  0  0  0
   -2.7004    0.8249    0.0000 N   0  0  0  0  0  0  0  0  0  0  0  0
   -1.9861    0.4124    0.0000 C   0  0  0  0  0  0  0  0  0  0  0  0
   -1.2715    0.8249    0.0000 C   0  0  0  0  0  0  0  0  0  0  0  0
   -1.2715    1.6500    0.0000 C   0  0  0  0  0  0  0  0  0  0  0  0
   -1.8892    1.6874    0.0000 C   0  0  0  0  0  0  0  0  0  0  0  0
   -2.4251    1.3780    0.0000 C   0  0  0  0  0  0  0  0  0  0  0  0
   -2.7004    1.6500    0.0000 C   0  0  0  0  0  0  0  0  0  0  0  0
   -1.9861    2.0624    0.0000 C   0  0  0  0  0  0  0  0  0  0  0  0
  1  2  1  0
  1 10  1  0
  2  3  1  0
  2 11  2  0
  3  4  2  0
  3 13  1  0
  4  5  1  0
  4 22  1  0
  5  6  1  0
  5 10  2  0
  6  7  2  0
  7  8  1  0
  7 12  1  0
  8  9  2  0
  9 10  1  0
 13 14  2  0
 13 17  1  0
 14 15  1  0
 15 16  2  0
 16 17  1  0
 18 19  2  0
 18 15  1  0
 19 20  1  0
 20 21  2  0
 21 16  1  0
 23 24  1  0
 23 28  1  0
 23 29  1  0
 24 25  1  0
 25 26  1  0
 25 22  1  6
 26 27  1  0
 27 28  1  0
 29 30  1  0
 30 26  1  0
M  END
>  <DRUGBANK_ID>  (1) 
DB06852

>  <COMMON_NAME>  (1) 
CHIR-124

>  <CAS_NUMBER>  (1) 
405168-58-3

>  <UNII>  (1) 
5K64W8EU3E

$$$$
