
     RDKit          2D

 31 29  0  0  0  0  0  0  0  0999 V2000
   -5.9382    0.0000    0.0000 Ca  0  0  0  0  0 15  0  0  0  0  0  0
   -2.1496    0.6175    0.0000 O   0  0  0  0  0  0  0  0  0  0  0  0
    2.3396    0.6175    0.0000 O   0  0  0  0  0  0  0  0  0  0  0  0
   -2.1615   -1.8526    0.0000 O   0  0  0  0  0  0  0  0  0  0  0  0
    2.3396   -1.8526    0.0000 O   0  0  0  0  0  0  0  0  0  0  0  0
   -1.4489   -0.6175    0.0000 O   0  0  0  0  0  0  0  0  0  0  0  0
    3.0522   -0.6175    0.0000 O   0  0  0  0  0  0  0  0  0  0  0  0
   -2.8622    1.8526    0.0000 O   0  0  0  0  0  0  0  0  0  0  0  0
    1.6389    1.8526    0.0000 O   0  0  0  0  0  0  0  0  0  0  0  0
    4.7030    0.0000    0.0000 O   0  0  0  0  0  0  0  0  0  0  0  0
    5.9382    0.7125    0.0000 N   0  0  0  0  0  0  0  0  0  0  0  0
    5.9382   -0.7125    0.0000 N   0  0  0  0  0  0  0  0  0  0  0  0
   -2.8622   -0.6175    0.0000 C   0  0  0  0  0  0  0  0  0  0  0  0
    1.6270   -0.6175    0.0000 C   0  0  0  0  0  0  0  0  0  0  0  0
   -2.8622    0.2136    0.0000 C   0  0  0  0  0  0  0  0  0  0  0  0
    1.6270    0.2136    0.0000 C   0  0  0  0  0  0  0  0  0  0  0  0
   -2.1615   -1.0332    0.0000 C   0  0  0  0  0  0  0  0  0  0  0  0
    2.3396   -1.0332    0.0000 C   0  0  0  0  0  0  0  0  0  0  0  0
   -3.5867   -1.0332    0.0000 C   0  0  0  0  0  0  0  0  0  0  0  0
    0.9145   -1.0332    0.0000 C   0  0  0  0  0  0  0  0  0  0  0  0
   -3.5867    0.6294    0.0000 C   0  0  0  0  0  0  0  0  0  0  0  0
    0.9145    0.6294    0.0000 C   0  0  0  0  0  0  0  0  0  0  0  0
   -4.2992   -0.6175    0.0000 C   0  0  0  0  0  0  0  0  0  0  0  0
    0.2018   -0.6175    0.0000 C   0  0  0  0  0  0  0  0  0  0  0  0
   -4.2992    0.2136    0.0000 C   0  0  0  0  0  0  0  0  0  0  0  0
    0.2018    0.2136    0.0000 C   0  0  0  0  0  0  0  0  0  0  0  0
   -2.1496    1.4370    0.0000 C   0  0  0  0  0  0  0  0  0  0  0  0
    2.3514    1.4370    0.0000 C   0  0  0  0  0  0  0  0  0  0  0  0
   -1.4370    1.8526    0.0000 C   0  0  0  0  0  0  0  0  0  0  0  0
    3.0640    1.8526    0.0000 C   0  0  0  0  0  0  0  0  0  0  0  0
    5.5225    0.0000    0.0000 C   0  0  0  0  0  0  0  0  0  0  0  0
  2 15  1  0
  2 27  1  0
  3 16  1  0
  3 28  1  0
  4 17  1  0
  5 18  1  0
  6 17  2  0
  7 18  2  0
  8 27  2  0
  9 28  2  0
 10 31  2  0
 11 31  1  0
 12 31  1  0
 13 15  2  0
 13 17  1  0
 13 19  1  0
 14 16  2  0
 14 18  1  0
 14 20  1  0
 15 21  1  0
 16 22  1  0
 19 23  2  0
 20 24  2  0
 21 25  2  0
 22 26  2  0
 23 25  1  0
 24 26  1  0
 27 29  1  0
 28 30  1  0
M  CHG  3   1   2   4  -1   5  -1
M  END
>  <DRUGBANK_ID>  (1) 
DB13612

>  <COMMON_NAME>  (1) 
Carbaspirin calcium

>  <CAS_NUMBER>  (1) 
5749-67-7

>  <UNII>  (1) 
N667F17JP1

>  <SYNONYMS>  (1) 
Carbasalate calcium; Carbasalato calcico; Carbasalatum calcicum; Carbaspirin calcium

$$$$
