
     RDKit          2D

 26 28  0  0  0  0  0  0  0  0999 V2000
    1.8400   -0.9319    0.0000 C   0  0  0  0  0  0  0  0  0  0  0  0
    2.3921   -0.3187    0.0000 C   0  0  0  0  0  0  0  0  0  0  0  0
    3.1990   -0.4903    0.0000 C   0  0  0  0  0  0  0  0  0  0  0  0
    3.4540   -1.2749    0.0000 C   0  0  0  0  0  0  0  0  0  0  0  0
    2.0950   -1.7164    0.0000 O   0  0  0  0  0  0  0  0  0  0  0  0
    1.0330   -0.7603    0.0000 N   0  0  0  0  0  0  0  0  0  0  0  0
    3.7511    0.1228    0.0000 C   0  0  0  0  0  0  0  0  0  0  0  0
    1.2629    0.6917    0.0000 N   0  0  0  0  0  0  0  0  0  0  0  0
    0.7781    1.3592    0.0000 N   0  0  0  0  0  0  0  0  0  0  0  0
   -0.0065    1.1042    0.0000 C   0  0  0  0  0  0  0  0  0  0  0  0
   -0.0065    0.2792    0.0000 C   0  0  0  0  0  0  0  0  0  0  0  0
    0.7781    0.0243    0.0000 C   0  0  0  0  0  0  0  0  0  0  0  0
   -1.2761    0.6917    0.0000 N   0  0  0  0  0  0  0  0  0  0  0  0
   -0.7911    1.3592    0.0000 C   0  0  0  0  0  0  0  0  0  0  0  0
   -0.7911    0.0243    0.0000 C   0  0  0  0  0  0  0  0  0  0  0  0
   -2.1011    0.6917    0.0000 C   0  0  0  0  0  0  0  0  0  0  0  0
   -2.5136    1.4061    0.0000 O   0  0  0  0  0  0  0  0  0  0  0  0
   -3.3386   -1.4517    0.0000 N   0  0  0  0  0  0  0  0  0  0  0  0
   -3.7511   -0.7372    0.0000 C   0  0  0  0  0  0  0  0  0  0  0  0
   -3.3386   -0.0227    0.0000 C   0  0  0  0  0  0  0  0  0  0  0  0
   -2.5136   -0.0227    0.0000 C   0  0  0  0  0  0  0  0  0  0  0  0
   -2.1011   -0.7372    0.0000 C   0  0  0  0  0  0  0  0  0  0  0  0
   -2.5136   -1.4517    0.0000 C   0  0  0  0  0  0  0  0  0  0  0  0
   -3.7511   -2.1661    0.0000 C   0  0  0  0  0  0  0  0  0  0  0  0
   -1.4041    1.9112    0.0000 C   0  0  0  0  0  0  0  0  0  0  0  0
   -0.6196    2.1661    0.0000 C   0  0  0  0  0  0  0  0  0  0  0  0
  1  2  1  0
  1  5  2  0
  1  6  1  0
  2  3  1  0
  3  4  1  0
  3  7  1  0
  6 12  1  0
  8  9  1  0
  8 12  2  0
  9 10  1  0
 10 11  2  0
 10 14  1  0
 11 12  1  0
 11 15  1  0
 13 14  1  0
 13 15  1  0
 13 16  1  0
 14 25  1  0
 14 26  1  0
 16 17  2  0
 16 21  1  0
 18 19  1  0
 18 23  1  0
 18 24  1  0
 19 20  1  0
 20 21  1  0
 21 22  1  0
 22 23  1  0
M  END
>  <DRUGBANK_ID>  (1) 
DB12686

>  <COMMON_NAME>  (1) 
PHA-793887

>  <CAS_NUMBER>  (1) 
718630-59-2

>  <UNII>  (1) 
MKS45S912B

$$$$
