C5D
     RDKit          2D

 33 34  0  0  0  0  0  0  0  0999 V2000
   -0.7104   -0.2716    0.0000 C   0  0  0  0  0  0  0  0  0  0  0  0
   -0.7966   -1.0921    0.0000 C   0  0  0  0  0  0  0  0  0  0  0  0
   -1.5503   -1.4277    0.0000 C   0  0  0  0  0  0  0  0  0  0  0  0
   -2.3040   -1.7632    0.0000 C   0  0  0  0  0  0  0  0  0  0  0  0
   -3.0577   -2.0988    0.0000 C   0  0  0  0  0  0  0  0  0  0  0  0
   -2.7221   -2.8525    0.0000 C   0  0  0  0  0  0  0  0  0  0  0  0
   -3.3932   -1.3451    0.0000 C   0  0  0  0  0  0  0  0  0  0  0  0
   -3.8113   -2.4344    0.0000 O   0  0  0  0  0  0  0  0  0  0  0  0
   -2.3865   -3.6061    0.0000 F   0  0  0  0  0  0  0  0  0  0  0  0
   -1.9684   -2.5169    0.0000 F   0  0  0  0  0  0  0  0  0  0  0  0
   -3.4758   -3.1880    0.0000 F   0  0  0  0  0  0  0  0  0  0  0  0
   -3.7288   -0.5914    0.0000 F   0  0  0  0  0  0  0  0  0  0  0  0
   -2.6395   -1.0096    0.0000 F   0  0  0  0  0  0  0  0  0  0  0  0
   -4.1469   -1.6807    0.0000 F   0  0  0  0  0  0  0  0  0  0  0  0
    5.4728    2.1456    0.0000 O   0  0  0  0  0  0  0  0  0  0  0  0
    3.2905    2.1877    0.0000 C   0  0  0  0  0  0  0  0  0  0  0  0
    4.0751    2.4427    0.0000 C   0  0  0  0  0  0  0  0  0  0  0  0
    4.6882    1.8906    0.0000 C   0  0  0  0  0  0  0  0  0  0  0  0
    4.5166    1.0837    0.0000 C   0  0  0  0  0  0  0  0  0  0  0  0
    3.7320    0.8287    0.0000 C   0  0  0  0  0  0  0  0  0  0  0  0
    3.5605    0.0218    0.0000 C   0  0  0  0  0  0  0  0  0  0  0  0
    2.7759   -0.2332    0.0000 C   0  0  0  0  0  0  0  0  0  0  0  0
    2.1628    0.3189    0.0000 C   0  0  0  0  0  0  0  0  0  0  0  0
    3.1189    1.3808    0.0000 C   0  0  0  0  0  0  0  0  0  0  0  0
    0.1587    1.1619    0.0000 C   0  0  0  0  0  0  0  0  0  0  0  0
    0.7107    0.5488    0.0000 C   0  0  0  0  0  0  0  0  0  0  0  0
    1.3782    0.0639    0.0000 C   0  0  0  0  0  0  0  0  0  0  0  0
    1.1232   -0.7207    0.0000 C   0  0  0  0  0  0  0  0  0  0  0  0
    0.2982   -0.7207    0.0000 C   0  0  0  0  0  0  0  0  0  0  0  0
    0.0433    0.0639    0.0000 C   0  0  0  0  0  0  0  0  0  0  0  0
    1.2627    1.1619    0.0000 C   0  0  0  0  0  0  0  0  0  0  0  0
    2.6774    2.7398    0.0000 O   0  0  0  0  0  0  0  0  0  0  0  0
   -0.3692    0.7784    0.0000 C   0  0  0  0  0  0  0  0  0  0  0  0
  1  2  1  0
  2  3  1  0
  3  4  3  0
  4  5  1  0
  5  6  1  0
  5  7  1  0
  5  8  1  0
  6  9  1  0
  6 10  1  0
  6 11  1  0
  7 12  1  0
  7 13  1  0
  7 14  1  0
 16 17  1  0
 16 24  1  0
 16 32  1  1
 17 18  1  0
 18 15  1  6
 18 19  1  0
 19 20  1  0
 20 21  2  0
 20 24  1  0
 21 22  1  0
 22 23  2  0
 25 26  1  0
 26 27  1  0
 26 30  1  0
 26 31  1  0
 27 23  1  6
 27 28  1  0
 28 29  1  0
 29 30  1  0
 30  1  1  0
 30 33  1  1
M  END
>  <DRUGBANK_ID>  (1) 
DB07530

>  <COMMON_NAME>  (1) 
(1R,3R)-5-[(2E)-3-{(1S,3R)-2,2,3-trimethyl-3-[6,6,6-trifluoro-5-hydroxy-5-(trifluoromethyl)hex-3-yn-1-yl]cyclopentyl}prop-2-en-1-ylidene]cyclohexane-1,3-diol

$$$$
