HPQ
     RDKit          2D

 13 13  0  0  0  0  0  0  0  0999 V2000
    0.9975    1.1822    0.0000 N   0  0  0  0  0  0  0  0  0  0  0  0
    0.9975    0.3572    0.0000 C   0  0  0  0  0  0  0  0  0  0  0  0
    0.2831   -0.0553    0.0000 C   0  0  0  0  0  0  0  0  0  0  0  0
   -0.4314    0.3572    0.0000 O   0  0  0  0  0  0  0  0  0  0  0  0
    1.7120   -0.0553    0.0000 C   0  0  0  0  0  0  0  0  0  0  0  0
    2.4265    0.3572    0.0000 C   0  0  0  0  0  0  0  0  0  0  0  0
    3.1410   -0.0553    0.0000 C   0  0  0  0  0  0  0  0  0  0  0  0
    3.8554    0.3572    0.0000 C   0  0  0  0  0  0  0  0  0  0  0  0
    3.1410   -0.8803    0.0000 C   0  0  0  0  0  0  0  0  0  0  0  0
    4.5699   -0.0553    0.0000 C   0  0  0  0  0  0  0  0  0  0  0  0
    3.8554   -1.2928    0.0000 C   0  0  0  0  0  0  0  0  0  0  0  0
    4.5699   -0.8803    0.0000 C   0  0  0  0  0  0  0  0  0  0  0  0
    0.2831   -0.8803    0.0000 C   0  0  0  0  0  0  0  0  0  0  0  0
  2  1  1  1
  2  3  1  0
  2  5  1  0
  3  4  2  0
  3 13  1  0
  5  6  1  0
  6  7  1  0
  7  8  2  0
  7  9  1  0
  8 10  1  0
  9 11  2  0
 10 12  2  0
 11 12  1  0
M  END
>  <DRUGBANK_ID>  (1) 
DB07913

>  <COMMON_NAME>  (1) 
HOMOPHENYLALANINYLMETHANE

$$$$
