
     RDKit          2D

 23 23  0  0  0  0  0  0  0  0999 V2000
   -2.0096   -4.3896    0.0000 O   0  0  0  0  0  0  0  0  0  0  0  0
    1.6672   -2.7156    0.0000 O   0  0  0  0  0  0  0  0  0  0  0  0
    2.4140    4.3896    0.0000 O   0  0  0  0  0  0  0  0  0  0  0  0
    1.1086    3.8084    0.0000 O   0  0  0  0  0  0  0  0  0  0  0  0
   -0.3861   -3.8126    0.0000 N   0  0  0  0  0  0  0  0  0  0  0  0
    0.5112   -1.8757    0.0000 N   0  0  0  0  0  0  0  0  0  0  0  0
   -2.4512   -3.0306    0.0000 N   0  0  0  0  0  0  0  0  0  0  0  0
    2.6370   -1.3808    0.0000 N   0  0  0  0  0  0  0  0  0  0  0  0
    2.1153    1.5475    0.0000 N   0  0  0  0  0  0  0  0  0  0  0  0
    2.2646    2.9685    0.0000 N   0  0  0  0  0  0  0  0  0  0  0  0
    0.9593    2.3873    0.0000 N   0  0  0  0  0  0  0  0  0  0  0  0
    1.9291    3.7222    0.0000 N   0  0  0  0  0  0  0  0  0  0  0  0
    0.0263   -2.5431    0.0000 C   0  0  0  0  0  0  0  0  0  0  0  0
   -0.7986   -2.5431    0.0000 C   0  0  0  0  0  0  0  0  0  0  0  0
   -1.0535   -3.3277    0.0000 C   0  0  0  0  0  0  0  0  0  0  0  0
    0.2812   -3.3277    0.0000 C   0  0  0  0  0  0  0  0  0  0  0  0
   -1.8381   -3.5826    0.0000 C   0  0  0  0  0  0  0  0  0  0  0  0
    1.3316   -1.9620    0.0000 C   0  0  0  0  0  0  0  0  0  0  0  0
    1.8166   -1.2946    0.0000 C   0  0  0  0  0  0  0  0  0  0  0  0
    1.4810   -0.5409    0.0000 C   0  0  0  0  0  0  0  0  0  0  0  0
    1.9659    0.1264    0.0000 C   0  0  0  0  0  0  0  0  0  0  0  0
    1.6304    0.8800    0.0000 C   0  0  0  0  0  0  0  0  0  0  0  0
    1.7797    2.3011    0.0000 C   0  0  0  0  0  0  0  0  0  0  0  0
  1 17  2  0
  2 18  2  0
  3 12  1  0
  4 12  2  0
  5 15  1  0
  5 16  1  0
  6 18  1  0
  7 17  1  0
  9 22  1  0
  9 23  2  0
 10 12  1  0
 10 23  1  0
 11 23  1  0
 13  6  1  1
 13 14  1  0
 13 16  1  0
 14 15  1  0
 15 17  1  6
 18 19  1  0
 19  8  1  6
 19 20  1  0
 20 21  1  0
 21 22  1  0
M  CHG  2   3  -1  12   1
M  END
>  <DRUGBANK_ID>  (1) 
DB02077

>  <SECONDARY_ACCESSION_NUMBERS>  (1) 
EXPT01254

>  <COMMON_NAME>  (1) 
L-N(omega)-nitroarginine-(4R)-amino-L-proline amide

$$$$
