1573
     RDKit          2D

 28 33  0  0  1  0  0  0  0  0999 V2000
    4.1891   -0.9864    0.0000 O   0  0  0  0  0  0  0  0  0  0  0  0
    3.9885   -3.1159    0.0000 O   0  0  0  0  0  0  0  0  0  0  0  0
    3.9885    1.0514    0.0000 O   0  0  0  0  0  0  0  0  0  0  0  0
    7.5974   -1.8572    0.0000 N   0  0  0  0  0  0  0  0  0  0  0  0
    5.4541   -1.4447    0.0000 C   0  0  0  0  0  0  0  0  0  0  0  0
    6.1685   -1.8572    0.0000 C   0  0  0  0  0  0  0  0  0  0  0  0
    6.8830   -1.4447    0.0000 C   0  0  0  0  0  0  0  0  0  0  0  0
    4.7397   -1.8572    0.0000 C   0  0  0  0  0  0  0  0  0  0  0  0
    5.9308   -0.8397    0.0000 C   0  0  0  0  0  0  0  0  0  0  0  0
    5.4541   -0.6198    0.0000 C   0  0  0  0  0  0  0  0  0  0  0  0
    6.8830   -0.6198    0.0000 C   0  0  0  0  0  0  0  0  0  0  0  0
    7.1041   -0.8397    0.0000 C   0  0  0  0  0  0  0  0  0  0  0  0
    6.1685   -0.2072    0.0000 C   0  0  0  0  0  0  0  0  0  0  0  0
    4.7397   -2.6822    0.0000 C   0  0  0  0  0  0  0  0  0  0  0  0
    6.1685   -2.6822    0.0000 C   0  0  0  0  0  0  0  0  0  0  0  0
    4.7397   -0.2072    0.0000 C   0  0  0  0  0  0  0  0  0  0  0  0
    5.4541   -3.0947    0.0000 C   0  0  0  0  0  0  0  0  0  0  0  0
    6.1685    0.6177    0.0000 C   0  0  0  0  0  0  0  0  0  0  0  0
    8.1883   -2.4923    0.0000 C   0  0  0  0  0  0  0  0  0  0  0  0
    4.7397    0.6177    0.0000 C   0  0  0  0  0  0  0  0  0  0  0  0
    5.4541    1.0302    0.0000 C   0  0  0  0  0  0  0  0  0  0  0  0
    3.9885    1.9188    0.0000 C   0  0  0  0  0  0  0  0  0  0  0  0
    3.2373    2.3526    0.0000 C   0  0  0  0  0  0  0  0  0  0  0  0
    2.4860    1.9189    0.0000 C   0  0  0  0  0  0  0  0  0  0  0  0
    3.2373    3.2200    0.0000 C   0  0  0  0  0  0  0  0  0  0  0  0
    1.7348    2.3526    0.0000 C   0  0  0  0  0  0  0  0  0  0  0  0
    2.4860    3.6537    0.0000 C   0  0  0  0  0  0  0  0  0  0  0  0
    1.7348    3.2200    0.0000 C   0  0  0  0  0  0  0  0  0  0  0  0
  8  1  1  6
  1 16  1  0
  3 20  1  0
  3 22  1  0
  4  7  1  0
  4 12  1  0
  4 19  1  0
  5  6  1  0
  5  8  1  0
  5  9  1  1
  5 10  1  0
  6  7  1  0
  6 15  1  6
  7 11  1  1
  8 14  1  0
  9 12  1  0
 10 13  2  0
 10 16  1  0
 11 13  1  0
 13 18  1  0
 14  2  1  6
 14 17  1  0
 15 17  2  0
 16 20  2  0
 18 21  2  0
 20 21  1  0
 22 23  1  0
 23 24  2  0
 23 25  1  0
 24 26  1  0
 25 27  2  0
 26 28  2  0
 27 28  1  0
M  END
>  <DRUGBANK_ID>  (1) 
DB01573

>  <COMMON_NAME>  (1) 
Benzylmorphine

>  <CAS_NUMBER>  (1) 
14297-87-1

>  <UNII>  (1) 
83C78V3OL9

$$$$
