D4G
     RDKit          2D

 14 15  0  0  0  0  0  0  0  0999 V2000
    1.7862    0.4470    0.0000 C   0  0  0  0  0  0  0  0  0  0  0  0
    2.5006    0.0345    0.0000 C   0  0  0  0  0  0  0  0  0  0  0  0
    2.5006   -0.7905    0.0000 N   0  0  0  0  0  0  0  0  0  0  0  0
    1.7862   -1.2030    0.0000 C   0  0  0  0  0  0  0  0  0  0  0  0
    1.0717   -0.7905    0.0000 C   0  0  0  0  0  0  0  0  0  0  0  0
    1.0717    0.0345    0.0000 C   0  0  0  0  0  0  0  0  0  0  0  0
    0.3572    0.4470    0.0000 S   0  0  0  0  0  0  0  0  0  0  0  0
   -0.3572    0.0345    0.0000 S   0  0  0  0  0  0  0  0  0  0  0  0
   -1.0717    0.4470    0.0000 C   0  0  0  0  0  0  0  0  0  0  0  0
   -1.7862    0.0345    0.0000 C   0  0  0  0  0  0  0  0  0  0  0  0
   -2.5006    0.4470    0.0000 C   0  0  0  0  0  0  0  0  0  0  0  0
   -2.5006    1.2720    0.0000 N   0  0  0  0  0  0  0  0  0  0  0  0
   -1.7862    1.6845    0.0000 C   0  0  0  0  0  0  0  0  0  0  0  0
   -1.0717    1.2720    0.0000 C   0  0  0  0  0  0  0  0  0  0  0  0
  1  2  2  0
  1  6  1  0
  2  3  1  0
  3  4  2  0
  4  5  1  0
  5  6  2  0
  6  7  1  0
  7  8  1  0
  8  9  1  0
  9 10  2  0
  9 14  1  0
 10 11  1  0
 11 12  2  0
 12 13  1  0
 13 14  2  0
M  END
>  <DRUGBANK_ID>  (1) 
DB07623

>  <COMMON_NAME>  (1) 
4,4'-DIPYRIDYL DISULFIDE

>  <UNII>  (1) 
EI4LXL5JH8

$$$$
