LZQ
     RDKit          2D

 29 31  0  0  0  0  0  0  0  0999 V2000
    1.8149    0.9161    0.0000 C   0  0  0  0  0  0  0  0  0  0  0  0
    2.5293   -0.3214    0.0000 C   0  0  0  0  0  0  0  0  0  0  0  0
    3.9583   -0.3214    0.0000 C   0  0  0  0  0  0  0  0  0  0  0  0
    4.6727    0.0911    0.0000 C   0  0  0  0  0  0  0  0  0  0  0  0
   -1.0430   -1.5589    0.0000 C   0  0  0  0  0  0  0  0  0  0  0  0
   -1.0430    0.9161    0.0000 C   0  0  0  0  0  0  0  0  0  0  0  0
   -0.3286   -0.3214    0.0000 N   0  0  0  0  0  0  0  0  0  0  0  0
    5.3872   -0.3214    0.0000 O   0  0  0  0  0  0  0  0  0  0  0  0
    1.1004    1.3286    0.0000 C   0  0  0  0  0  0  0  0  0  0  0  0
   -1.0430   -2.3839    0.0000 C   0  0  0  0  0  0  0  0  0  0  0  0
   -0.3286    1.3286    0.0000 C   0  0  0  0  0  0  0  0  0  0  0  0
    2.5293   -1.1464    0.0000 O   0  0  0  0  0  0  0  0  0  0  0  0
    3.9583   -1.1464    0.0000 O   0  0  0  0  0  0  0  0  0  0  0  0
    4.6727    0.9161    0.0000 O   0  0  0  0  0  0  0  0  0  0  0  0
    0.3859    0.9161    0.0000 C   0  0  0  0  0  0  0  0  0  0  0  0
   -1.7575   -2.7964    0.0000 C   0  0  0  0  0  0  0  0  0  0  0  0
   -0.3286    2.1536    0.0000 C   0  0  0  0  0  0  0  0  0  0  0  0
    0.3859    0.0911    0.0000 C   0  0  0  0  0  0  0  0  0  0  0  0
   -2.4720   -2.3839    0.0000 C   0  0  0  0  0  0  0  0  0  0  0  0
   -1.0430    2.5661    0.0000 C   0  0  0  0  0  0  0  0  0  0  0  0
    1.1004   -0.3214    0.0000 C   0  0  0  0  0  0  0  0  0  0  0  0
   -2.4720   -1.5589    0.0000 C   0  0  0  0  0  0  0  0  0  0  0  0
   -1.7575    2.1536    0.0000 C   0  0  0  0  0  0  0  0  0  0  0  0
    1.8149    0.0911    0.0000 C   0  0  0  0  0  0  0  0  0  0  0  0
   -1.7575   -1.1464    0.0000 C   0  0  0  0  0  0  0  0  0  0  0  0
   -1.7575    1.3286    0.0000 C   0  0  0  0  0  0  0  0  0  0  0  0
    3.2438    0.0911    0.0000 C   0  0  0  0  0  0  0  0  0  0  0  0
   -0.3286   -1.1464    0.0000 C   0  0  0  0  0  0  0  0  0  0  0  0
   -1.0430    0.0911    0.0000 C   0  0  0  0  0  0  0  0  0  0  0  0
  2 27  1  0
  2 12  2  0
  3  4  1  0
  3 13  2  0
  4 14  1  0
  5 10  2  0
  6 29  1  0
  6 26  1  0
  7 18  1  0
  8  4  2  0
  9  1  2  0
 10 16  1  0
 11  6  2  0
 15  9  1  0
 17 11  1  0
 17 20  2  0
 18 15  2  0
 18 21  1  0
 19 16  2  0
 20 23  1  0
 21 24  2  0
 22 19  1  0
 23 26  2  0
 24  1  1  0
 24  2  1  0
 25  5  1  0
 25 22  2  0
 27  3  1  0
 28  5  1  0
 28  7  1  0
 29  7  1  0
M  END
>  <DRUGBANK_ID>  (1) 
DB08147

>  <COMMON_NAME>  (1) 
4-[3-(dibenzylamino)phenyl]-2,4-dioxobutanoic acid

$$$$
