
     RDKit          2D

 26 29  0  0  1  0  0  0  0  0999 V2000
   -2.9909    1.9688    0.0000 C   0  0  0  0  0  0  0  0  0  0  0  0
   -3.2459    1.1842    0.0000 C   0  0  0  0  0  0  0  0  0  0  0  0
   -2.6938    0.5711    0.0000 C   0  0  0  0  0  0  0  0  0  0  0  0
   -1.8869    0.7427    0.0000 C   0  0  0  0  0  0  0  0  0  0  0  0
   -1.3348    0.1295    0.0000 N   0  0  0  0  0  0  0  0  0  0  0  0
   -1.4211   -0.6909    0.0000 C   0  0  0  0  0  0  0  0  0  0  0  0
   -0.7536   -1.1757    0.0000 C   0  0  0  0  0  0  0  0  0  0  0  0
   -0.7536   -2.0007    0.0000 C   0  0  0  0  0  0  0  0  0  0  0  0
   -0.0391   -2.4132    0.0000 C   0  0  0  0  0  0  0  0  0  0  0  0
    0.6752   -2.0007    0.0000 C   0  0  0  0  0  0  0  0  0  0  0  0
    0.7536   -1.1757    0.0000 C   0  0  0  0  0  0  0  0  0  0  0  0
    1.4211   -0.6909    0.0000 C   0  0  0  0  0  0  0  0  0  0  0  0
    1.3348    0.1295    0.0000 N   0  0  0  0  0  0  0  0  0  0  0  0
    1.8869    0.7427    0.0000 C   0  0  0  0  0  0  0  0  0  0  0  0
    2.6938    0.5711    0.0000 C   0  0  0  0  0  0  0  0  0  0  0  0
    3.2459    1.1842    0.0000 C   0  0  0  0  0  0  0  0  0  0  0  0
    2.9909    1.9688    0.0000 C   0  0  0  0  0  0  0  0  0  0  0  0
    2.1840    2.1403    0.0000 C   0  0  0  0  0  0  0  0  0  0  0  0
    1.6319    1.5273    0.0000 C   0  0  0  0  0  0  0  0  0  0  0  0
    0.8249    1.6988    0.0000 N   0  0  0  0  0  0  0  0  0  0  0  0
    0.4124    2.4132    0.0000 C   0  0  0  0  0  0  0  0  0  0  0  0
   -0.4125    2.4132    0.0000 C   0  0  0  0  0  0  0  0  0  0  0  0
   -0.8250    1.6988    0.0000 N   0  0  0  0  0  0  0  0  0  0  0  0
   -1.6319    1.5273    0.0000 C   0  0  0  0  0  0  0  0  0  0  0  0
   -2.1840    2.1403    0.0000 C   0  0  0  0  0  0  0  0  0  0  0  0
    0.0000   -0.8402    0.0000 N   0  0  0  0  0  0  0  0  0  0  0  0
  1  2  1  0
  1 25  1  0
  2  3  1  0
  4  3  1  1
  4  5  1  0
  4 24  1  0
  5  6  1  0
  6  7  1  0
  7  8  1  0
  7 26  2  0
  8  9  2  0
  9 10  1  0
 10 11  2  0
 11 12  1  0
 11 26  1  0
 12 13  1  0
 14 13  1  0
 14 15  1  6
 14 19  1  0
 15 16  1  0
 16 17  1  0
 17 18  1  0
 19 18  1  1
 19 20  1  0
 20 21  1  0
 21 22  1  0
 22 23  1  0
 24 23  1  0
 24 25  1  6
M  END
>  <DRUGBANK_ID>  (1) 
DB18481

>  <COMMON_NAME>  (1) 
Avasopasem

>  <UNII>  (1) 
HP219O4H4V

>  <SYNONYMS>  (1) 
(4AS,13AS,17AS,21AS)-1,2,3,4,4A,5,6,12,13,13A,14,15,16,17,17A,18,19,20,21,21A-EICOSAHYDRO-11,7-NITRILO-7H-DIBENZO(B,H)(1,4,7,10)TETRAAZACYCLOHEPTADECINE

$$$$
