
     RDKit          2D

 37 40  0  0  0  0  0  0  0  0999 V2000
   -3.2115   -3.0914    0.0000 C   0  0  0  0  0  0  0  0  0  0  0  0
   -2.4970   -2.6788    0.0000 N   0  0  0  0  0  0  0  0  0  0  0  0
   -1.7826   -3.0914    0.0000 C   0  0  0  0  0  0  0  0  0  0  0  0
   -1.7826   -3.9164    0.0000 C   0  0  0  0  0  0  0  0  0  0  0  0
   -2.4970   -4.3289    0.0000 N   0  0  0  0  0  0  0  0  0  0  0  0
   -3.2115   -3.9164    0.0000 C   0  0  0  0  0  0  0  0  0  0  0  0
   -2.4970   -1.8538    0.0000 C   0  0  0  0  0  0  0  0  0  0  0  0
   -1.7825   -1.4413    0.0000 C   0  0  0  0  0  0  0  0  0  0  0  0
   -1.7823   -0.6163    0.0000 C   0  0  0  0  0  0  0  0  0  0  0  0
   -1.0696   -0.2057    0.0000 N   0  0  0  0  0  0  0  0  0  0  0  0
   -0.3549   -0.6183    0.0000 C   0  0  0  0  0  0  0  0  0  0  0  0
   -0.3533   -1.4392    0.0000 C   0  0  0  0  0  0  0  0  0  0  0  0
   -1.0650   -1.8556    0.0000 C   0  0  0  0  0  0  0  0  0  0  0  0
    0.3552   -0.2065    0.0000 N   0  0  0  0  0  0  0  0  0  0  0  0
    1.0669   -0.6156    0.0000 C   0  0  0  0  0  0  0  0  0  0  0  0
    1.0685   -1.4365    0.0000 C   0  0  0  0  0  0  0  0  0  0  0  0
    0.3584   -1.8483    0.0000 C   0  0  0  0  0  0  0  0  0  0  0  0
    0.3552    0.6184    0.0000 C   0  0  0  0  0  0  0  0  0  0  0  0
   -0.3592    1.0310    0.0000 N   0  0  0  0  0  0  0  0  0  0  0  0
   -0.3592    1.8560    0.0000 C   0  0  0  0  0  0  0  0  0  0  0  0
   -1.0736    2.2687    0.0000 N   0  0  0  0  0  0  0  0  0  0  0  0
   -1.0729    3.0912    0.0000 C   0  0  0  0  0  0  0  0  0  0  0  0
   -0.3582    3.5039    0.0000 C   0  0  0  0  0  0  0  0  0  0  0  0
    0.3535    3.0948    0.0000 C   0  0  0  0  0  0  0  0  0  0  0  0
    0.3583    2.2703    0.0000 C   0  0  0  0  0  0  0  0  0  0  0  0
   -2.4968   -0.2038    0.0000 C   0  0  0  0  0  0  0  0  0  0  0  0
   -2.4970   -5.1540    0.0000 C   0  0  0  0  0  0  0  0  0  0  0  0
   -3.9260   -2.6788    0.0000 O   0  0  0  0  0  0  0  0  0  0  0  0
    1.0697    1.0310    0.0000 O   0  0  0  0  0  0  0  0  0  0  0  0
   -2.4968    0.6211    0.0000 O   0  0  0  0  0  0  0  0  0  0  0  0
   -0.3582    4.3289    0.0000 C   0  0  0  0  0  0  0  0  0  0  0  0
   -0.3582    5.1540    0.0000 N   0  0  0  0  0  0  0  0  0  0  0  0
    1.0680    3.5073    0.0000 N   0  0  0  0  0  0  0  0  0  0  0  0
    1.7825    3.0948    0.0000 C   0  0  0  0  0  0  0  0  0  0  0  0
    2.4969    3.5073    0.0000 C   0  0  0  0  0  0  0  0  0  0  0  0
    3.2115    3.0948    0.0000 O   0  0  0  0  0  0  0  0  0  0  0  0
    3.9260    3.5073    0.0000 C   0  0  0  0  0  0  0  0  0  0  0  0
  1  2  1  0
  1  6  1  0
  1 28  2  0
  2  7  1  0
  3  2  1  0
  4  3  1  0
  5  4  1  0
  5 27  1  0
  6  5  1  0
  7  8  1  0
  8 13  1  0
  9  8  2  0
  9 26  1  0
 10  9  1  0
 11 10  2  0
 11 14  1  0
 12 11  1  0
 12 17  1  0
 13 12  2  0
 14 18  1  0
 15 14  1  0
 16 15  1  0
 17 16  1  0
 18 19  1  0
 18 29  2  0
 19 20  1  0
 20 25  1  0
 21 20  2  0
 22 21  1  0
 23 22  2  0
 23 31  1  0
 24 23  1  0
 24 33  1  0
 25 24  2  0
 26 30  2  0
 31 32  3  0
 33 34  1  0
 34 35  1  0
 35 36  1  0
 36 37  1  0
M  END
>  <DRUGBANK_ID>  (1) 
DB16845

>  <COMMON_NAME>  (1) 
Roblitinib

>  <CAS_NUMBER>  (1) 
1708971-55-4

>  <UNII>  (1) 
M64JF6WMSA

>  <SYNONYMS>  (1) 
Roblitinib

$$$$
