
     RDKit          2D

 23 16  0  0  0  0  0  0  0  0999 V2000
   -3.7861    1.8398    0.0000 O   0  0  0  0  0  0  0  0  0  0  0  0
   -3.0717    1.4273    0.0000 C   0  0  0  0  0  0  0  0  0  0  0  0
   -2.3572    1.8398    0.0000 C   0  0  0  0  0  0  0  0  0  0  0  0
   -1.6427    1.4273    0.0000 C   0  0  0  0  0  0  0  0  0  0  0  0
   -0.9282    1.8398    0.0000 C   0  0  0  0  0  0  0  0  0  0  0  0
   -0.2138    1.4273    0.0000 O   0  0  0  0  0  0  0  0  0  0  0  0
   -0.9282    2.6648    0.0000 O   0  0  0  0  0  0  0  0  0  0  0  0
   -3.0717    0.6023    0.0000 O   0  0  0  0  0  0  0  0  0  0  0  0
   -1.6427    0.6023    0.0000 N   0  0  0  0  0  0  0  0  0  0  0  0
   -3.2254   -1.4273    0.0000 O   0  0  0  0  0  0  0  0  0  0  0  0
   -2.5109   -1.8398    0.0000 C   0  0  0  0  0  0  0  0  0  0  0  0
   -1.7964   -1.4273    0.0000 C   0  0  0  0  0  0  0  0  0  0  0  0
   -1.0820   -1.8398    0.0000 C   0  0  0  0  0  0  0  0  0  0  0  0
   -0.3675   -1.4273    0.0000 C   0  0  0  0  0  0  0  0  0  0  0  0
    0.3469   -1.8398    0.0000 O   0  0  0  0  0  0  0  0  0  0  0  0
   -0.3675   -0.6023    0.0000 O   0  0  0  0  0  0  0  0  0  0  0  0
   -2.5109   -2.6648    0.0000 O   0  0  0  0  0  0  0  0  0  0  0  0
   -1.0820   -2.6648    0.0000 N   0  0  0  0  0  0  0  0  0  0  0  0
    3.7272    0.4321    0.0000 O   0  0  0  0  0  0  0  0  0  0  0  0
    3.7861   -0.3633    0.0000 O   0  0  0  0  0  0  0  0  0  0  0  0
    1.6647    0.1669    0.0000 Mg  0  0  0  0  0 15  0  0  0  0  0  0
    3.6977    1.1098    0.0000 O   0  0  0  0  0  0  0  0  0  0  0  0
    3.6093    1.7285    0.0000 O   0  0  0  0  0  0  0  0  0  0  0  0
  1  2  2  0
  2  3  1  0
  2  8  1  0
  3  4  1  0
  4  5  1  0
  4  9  1  1
  5  6  1  0
  5  7  2  0
 10 11  2  0
 11 12  1  0
 11 17  1  0
 12 13  1  0
 13 14  1  0
 13 18  1  1
 14 15  1  0
 14 16  2  0
M  CHG  3   6  -1  15  -1  21   2
M  END
>  <DRUGBANK_ID>  (1) 
DB13359

>  <COMMON_NAME>  (1) 
Magnesium aspartate

>  <CAS_NUMBER>  (1) 
7018-07-7

>  <UNII>  (1) 
R17X820ROL

>  <SYNONYMS>  (1) 
(+)-magnesium aspartate tetrahydrate; Aspartic acid, magnesium salt; Magnesium aspartate; Magnesium aspartate tetrahydrate

$$$$
