
     RDKit          2D

 28 31  0  0  1  0  0  0  0  0999 V2000
   -2.0756    0.8342    0.0000 C   0  0  0  0  0  0  0  0  0  0  0  0
   -1.2962    0.5638    0.0000 C   0  0  0  0  0  0  0  0  0  0  0  0
   -0.6723    1.1037    0.0000 C   0  0  0  0  0  0  0  0  0  0  0  0
   -1.1406   -0.2463    0.0000 O   0  0  0  0  0  0  0  0  0  0  0  0
   -0.3612   -0.5167    0.0000 C   0  0  0  0  0  0  0  0  0  0  0  0
    0.2627    0.0231    0.0000 O   0  0  0  0  0  0  0  0  0  0  0  0
   -0.2056   -1.3269    0.0000 N   0  0  0  0  0  0  0  0  0  0  0  0
    0.5739   -1.5973    0.0000 C   0  0  0  0  0  0  0  0  0  0  0  0
    1.2507   -1.1256    0.0000 C   0  0  0  0  0  0  0  0  0  0  0  0
    1.9085   -1.6236    0.0000 C   0  0  0  0  0  0  0  0  0  0  0  0
    2.7333   -1.6398    0.0000 C   0  0  0  0  0  0  0  0  0  0  0  0
    3.2973   -1.0377    0.0000 C   0  0  0  0  0  0  0  0  0  0  0  0
    4.1008   -1.2251    0.0000 C   0  0  0  0  0  0  0  0  0  0  0  0
    4.3402   -2.0146    0.0000 C   0  0  0  0  0  0  0  0  0  0  0  0
    3.7762   -2.6167    0.0000 C   0  0  0  0  0  0  0  0  0  0  0  0
    2.9727   -2.4293    0.0000 C   0  0  0  0  0  0  0  0  0  0  0  0
    2.2959   -2.9010    0.0000 N   0  0  0  0  0  0  0  0  0  0  0  0
    1.6381   -2.4030    0.0000 C   0  0  0  0  0  0  0  0  0  0  0  0
    0.8133   -2.3868    0.0000 C   0  0  0  0  0  0  0  0  0  0  0  0
    2.2796   -3.7258    0.0000 C   0  0  0  0  0  0  0  0  0  0  0  0
    2.9858   -4.1523    0.0000 C   0  0  0  0  0  0  0  0  0  0  0  0
    3.7083   -3.7540    0.0000 C   0  0  0  0  0  0  0  0  0  0  0  0
    4.4145   -4.1805    0.0000 C   0  0  0  0  0  0  0  0  0  0  0  0
    4.3982   -5.0054    0.0000 C   0  0  0  0  0  0  0  0  0  0  0  0
    3.6757   -5.4037    0.0000 C   0  0  0  0  0  0  0  0  0  0  0  0
    2.9695   -4.9772    0.0000 N   0  0  0  0  0  0  0  0  0  0  0  0
    4.6648   -0.6231    0.0000 C   0  0  0  0  0  0  0  0  0  0  0  0
    5.2288   -0.0210    0.0000 N   0  0  0  0  0  0  0  0  0  0  0  0
  1  2  1  0
  2  3  1  0
  2  4  1  0
  4  5  1  0
  5  6  2  0
  5  7  1  0
  8  7  1  1
  8  9  1  0
  8 19  1  0
  9 10  1  0
 10 11  1  0
 10 18  2  0
 11 12  2  0
 11 16  1  0
 12 13  1  0
 13 14  2  0
 13 27  1  0
 14 15  1  0
 15 16  2  0
 16 17  1  0
 17 18  1  0
 17 20  1  0
 18 19  1  0
 20 21  1  0
 21 22  2  0
 21 26  1  0
 22 23  1  0
 23 24  2  0
 24 25  1  0
 25 26  2  0
 27 28  3  0
M  END
>  <DRUGBANK_ID>  (1) 
DB12573

>  <COMMON_NAME>  (1) 
LY-2452473

>  <CAS_NUMBER>  (1) 
1029692-15-6

>  <UNII>  (1) 
XKW9MYF94Y

$$$$
