
     RDKit          2D

 31 33  0  0  0  0  0  0  0  0999 V2000
    8.0854   -8.8925    0.0000 C   0  0  0  0  0  0  0  0  0  0  0  0
    8.0854   -8.0675    0.0000 C   0  0  0  0  0  0  0  0  0  0  0  0
    8.7999   -7.6550    0.0000 C   0  0  0  0  0  0  0  0  0  0  0  0
    7.3709   -7.6550    0.0000 C   0  0  0  0  0  0  0  0  0  0  0  0
    7.3709   -6.8300    0.0000 N   0  0  0  0  0  0  0  0  0  0  0  0
    6.6565   -6.4175    0.0000 C   0  0  0  0  0  0  0  0  0  0  0  0
    6.6565   -5.5925    0.0000 C   0  0  0  0  0  0  0  0  0  0  0  0
    5.9420   -5.1800    0.0000 C   0  0  0  0  0  0  0  0  0  0  0  0
    5.9420   -4.3550    0.0000 N   0  0  0  0  0  0  0  0  0  0  0  0
    5.2275   -3.9425    0.0000 C   0  0  0  0  0  0  0  0  0  0  0  0
    5.2275   -3.1175    0.0000 C   0  0  0  0  0  0  0  0  0  0  0  0
    5.9420   -2.7050    0.0000 N   0  0  0  0  0  0  0  0  0  0  0  0
    5.9420   -1.8800    0.0000 C   0  0  0  0  0  0  0  0  0  0  0  0
    5.2275   -1.4675    0.0000 C   0  0  0  0  0  0  0  0  0  0  0  0
    5.2275   -0.6425    0.0000 C   0  0  0  0  0  0  0  0  0  0  0  0
    4.5131   -0.2300    0.0000 N   0  0  0  0  0  0  0  0  0  0  0  0
    4.5131    0.5950    0.0000 C   0  0  0  0  0  0  0  0  0  0  0  0
    3.8456    1.0799    0.0000 N   0  0  0  0  0  0  0  0  0  0  0  0
    4.1006    1.8645    0.0000 C   0  0  0  0  0  0  0  0  0  0  0  0
    3.6881    2.5790    0.0000 C   0  0  0  0  0  0  0  0  0  0  0  0
    4.1006    3.2935    0.0000 C   0  0  0  0  0  0  0  0  0  0  0  0
    4.9256    3.2935    0.0000 C   0  0  0  0  0  0  0  0  0  0  0  0
    5.3381    2.5790    0.0000 C   0  0  0  0  0  0  0  0  0  0  0  0
    4.9256    1.8645    0.0000 C   0  0  0  0  0  0  0  0  0  0  0  0
    5.1805    1.0799    0.0000 N   0  0  0  0  0  0  0  0  0  0  0  0
    6.6565   -3.1175    0.0000 C   0  0  0  0  0  0  0  0  0  0  0  0
    6.6565   -3.9425    0.0000 C   0  0  0  0  0  0  0  0  0  0  0  0
    8.0854   -6.4175    0.0000 C   0  0  0  0  0  0  0  0  0  0  0  0
    8.0854   -5.5925    0.0000 C   0  0  0  0  0  0  0  0  0  0  0  0
    7.3709   -5.1800    0.0000 C   0  0  0  0  0  0  0  0  0  0  0  0
    8.7999   -5.1800    0.0000 C   0  0  0  0  0  0  0  0  0  0  0  0
  1  2  1  0
  2  3  1  0
  2  4  1  0
  4  5  1  0
  5  6  1  0
  5 28  1  0
  6  7  1  0
  7  8  1  0
  8  9  1  0
  9 10  1  0
  9 27  1  0
 10 11  1  0
 11 12  1  0
 12 13  1  0
 12 26  1  0
 13 14  1  0
 14 15  1  0
 15 16  1  0
 16 17  1  0
 17 18  2  0
 17 25  1  0
 18 19  1  0
 19 20  2  0
 19 24  1  0
 20 21  1  0
 21 22  2  0
 22 23  1  0
 23 24  2  0
 24 25  1  0
 26 27  1  0
 28 29  1  0
 29 30  1  0
 29 31  1  0
M  END
>  <DRUGBANK_ID>  (1) 
DB16954

>  <COMMON_NAME>  (1) 
Ezeprogind

>  <CAS_NUMBER>  (1) 
615539-20-3

>  <UNII>  (1) 
TR9YQ07ELN

>  <SYNONYMS>  (1) 
1,4-piperazinedipropanamine, n'-1h-benzimidazol-2-yl-n,n-bis(2-methylpropyl)-; 1,4-piperazinedipropanamine, n4-1h-benzimidazol-2-yl-n1,n1-bis(2-methylpropyl)-; Azp-2006 free base; Azp2006 free base; N-(3-(4-(3-(diisobutylamino)propyl)piperazin-1-yl)propyl)-1h-benzo(d)imidazol-2-amine; N4-1h-benzimidazol-2-yl-n1,n1-bis(2-methylpropyl)-1,4-piperazinedipropanamine

$$$$
