1BA
     RDKit          2D

 21 22  0  0  0  0  0  0  0  0999 V2000
    0.9714    0.1685    0.0000 N   0  0  0  0  0  0  0  0  0  0  0  0
   -1.8865   -0.6565    0.0000 C   0  0  0  0  0  0  0  0  0  0  0  0
   -1.8865    0.1685    0.0000 C   0  0  0  0  0  0  0  0  0  0  0  0
   -1.1721    0.5810    0.0000 C   0  0  0  0  0  0  0  0  0  0  0  0
   -0.4576    0.1685    0.0000 C   0  0  0  0  0  0  0  0  0  0  0  0
    0.2569    0.5810    0.0000 C   0  0  0  0  0  0  0  0  0  0  0  0
    3.1148    0.5810    0.0000 C   0  0  0  0  0  0  0  0  0  0  0  0
    4.5437    1.4060    0.0000 C   0  0  0  0  0  0  0  0  0  0  0  0
    3.1148    1.4060    0.0000 C   0  0  0  0  0  0  0  0  0  0  0  0
   -1.1721   -1.0690    0.0000 C   0  0  0  0  0  0  0  0  0  0  0  0
   -2.6010   -1.8940    0.0000 C   0  0  0  0  0  0  0  0  0  0  0  0
   -2.6010   -1.0690    0.0000 C   0  0  0  0  0  0  0  0  0  0  0  0
   -3.3155   -0.6565    0.0000 C   0  0  0  0  0  0  0  0  0  0  0  0
    1.6858    0.5810    0.0000 N   0  0  0  0  0  0  0  0  0  0  0  0
    2.4003    0.1685    0.0000 C   0  0  0  0  0  0  0  0  0  0  0  0
    2.4003   -0.6565    0.0000 O   0  0  0  0  0  0  0  0  0  0  0  0
    3.8292    0.1685    0.0000 C   0  0  0  0  0  0  0  0  0  0  0  0
    4.5437    0.5810    0.0000 C   0  0  0  0  0  0  0  0  0  0  0  0
    5.2582    1.8185    0.0000 O   0  0  0  0  0  0  0  0  0  0  0  0
    3.8292    1.8185    0.0000 C   0  0  0  0  0  0  0  0  0  0  0  0
   -0.4576   -0.6565    0.0000 C   0  0  0  0  0  0  0  0  0  0  0  0
  1  6  1  0
  1 14  1  0
  2  3  2  0
  2 10  1  0
  2 12  1  0
  3  4  1  0
  4  5  2  0
  5  6  1  0
  5 21  1  0
  7  9  1  0
  7 15  1  0
  7 17  2  0
  8 18  2  0
  8 19  1  0
  8 20  1  0
  9 20  2  0
 10 21  2  0
 11 12  1  0
 12 13  1  0
 14 15  1  0
 15 16  2  0
 17 18  1  0
M  END
>  <DRUGBANK_ID>  (1) 
DB06884

>  <COMMON_NAME>  (1) 
4-HYDROXY-N'-(4-ISOPROPYLBENZYL)BENZOHYDRAZIDE

$$$$
