TQ5
     RDKit          2D

 23 25  0  0  0  0  0  0  0  0999 V2000
   -1.6764   -2.1119    0.0000 C   0  0  0  0  0  0  0  0  0  0  0  0
   -1.6764   -1.2869    0.0000 C   0  0  0  0  0  0  0  0  0  0  0  0
   -2.3909   -0.8744    0.0000 C   0  0  0  0  0  0  0  0  0  0  0  0
   -3.1054   -1.2869    0.0000 N   0  0  0  0  0  0  0  0  0  0  0  0
   -3.1054   -2.1119    0.0000 C   0  0  0  0  0  0  0  0  0  0  0  0
   -2.3909   -2.5244    0.0000 N   0  0  0  0  0  0  0  0  0  0  0  0
   -2.3909   -0.0494    0.0000 N   0  0  0  0  0  0  0  0  0  0  0  0
   -0.9619   -2.5244    0.0000 C   0  0  0  0  0  0  0  0  0  0  0  0
   -0.2475   -2.1119    0.0000 C   0  0  0  0  0  0  0  0  0  0  0  0
   -0.2475   -1.2869    0.0000 C   0  0  0  0  0  0  0  0  0  0  0  0
   -0.9619   -0.8744    0.0000 C   0  0  0  0  0  0  0  0  0  0  0  0
   -3.8198   -2.5244    0.0000 N   0  0  0  0  0  0  0  0  0  0  0  0
   -0.9619   -0.0494    0.0000 S   0  0  0  0  0  0  0  0  0  0  0  0
   -0.2475    0.3631    0.0000 C   0  0  0  0  0  0  0  0  0  0  0  0
   -0.2475    1.1881    0.0000 C   0  0  0  0  0  0  0  0  0  0  0  0
    0.4670    1.6006    0.0000 C   0  0  0  0  0  0  0  0  0  0  0  0
    1.1815    1.1881    0.0000 C   0  0  0  0  0  0  0  0  0  0  0  0
    1.1815    0.3631    0.0000 C   0  0  0  0  0  0  0  0  0  0  0  0
    0.4670   -0.0494    0.0000 C   0  0  0  0  0  0  0  0  0  0  0  0
    1.8959    1.6006    0.0000 C   0  0  0  0  0  0  0  0  0  0  0  0
    2.6104    2.0131    0.0000 C   0  0  0  0  0  0  0  0  0  0  0  0
    2.3084    0.8861    0.0000 C   0  0  0  0  0  0  0  0  0  0  0  0
    1.4834    2.3150    0.0000 C   0  0  0  0  0  0  0  0  0  0  0  0
  1  2  1  0
  1  6  2  0
  1  8  1  0
  2  3  2  0
  2 11  1  0
  3  4  1  0
  3  7  1  0
  4  5  2  0
  5  6  1  0
  5 12  1  0
  8  9  2  0
  9 10  1  0
 10 11  2  0
 11 13  1  0
 13 14  1  0
 14 15  2  0
 14 19  1  0
 15 16  1  0
 16 17  2  0
 17 18  1  0
 17 20  1  0
 18 19  2  0
 20 21  1  0
 20 22  1  0
 20 23  1  0
M  END
>  <DRUGBANK_ID>  (1) 
DB01958

>  <SECONDARY_ACCESSION_NUMBERS>  (1) 
EXPT03101

>  <COMMON_NAME>  (1) 
5-[4-Tert-Butylphenylsulfanyl]-2,4-Quinazolinediamine

$$$$
