
     RDKit          2D

 21 23  0  0  0  0  0  0  0  0999 V2000
   -0.8250    2.9676    0.0000 O   0  0  0  0  0  0  0  0  0  0  0  0
   -0.8250    2.1426    0.0000 C   0  0  0  0  0  0  0  0  0  0  0  0
   -1.5372    1.7271    0.0000 N   0  0  0  0  0  0  0  0  0  0  0  0
   -1.5372    0.9021    0.0000 C   0  0  0  0  0  0  0  0  0  0  0  0
   -0.8250    0.4926    0.0000 C   0  0  0  0  0  0  0  0  0  0  0  0
   -0.1068    0.9021    0.0000 C   0  0  0  0  0  0  0  0  0  0  0  0
   -0.1068    1.7271    0.0000 C   0  0  0  0  0  0  0  0  0  0  0  0
    0.6053    2.1426    0.0000 C   0  0  0  0  0  0  0  0  0  0  0  0
    1.3235    1.7271    0.0000 C   0  0  0  0  0  0  0  0  0  0  0  0
    1.3235    0.9021    0.0000 C   0  0  0  0  0  0  0  0  0  0  0  0
    0.6053    0.4926    0.0000 C   0  0  0  0  0  0  0  0  0  0  0  0
    0.6053   -0.3324    0.0000 S   0  0  0  0  0  0  0  0  0  0  0  0
   -0.2196   -0.3324    0.0000 O   0  0  0  0  0  0  0  0  0  0  0  0
    1.4303   -0.3324    0.0000 O   0  0  0  0  0  0  0  0  0  0  0  0
    0.6053   -1.1574    0.0000 N   0  0  0  0  0  0  0  0  0  0  0  0
   -0.1365   -1.5194    0.0000 C   0  0  0  0  0  0  0  0  0  0  0  0
   -0.3204   -2.3207    0.0000 C   0  0  0  0  0  0  0  0  0  0  0  0
    0.1958   -2.9676    0.0000 N   0  0  0  0  0  0  0  0  0  0  0  0
    1.0208   -2.9676    0.0000 C   0  0  0  0  0  0  0  0  0  0  0  0
    1.5372   -2.3207    0.0000 C   0  0  0  0  0  0  0  0  0  0  0  0
    1.3532   -1.5194    0.0000 C   0  0  0  0  0  0  0  0  0  0  0  0
  1  2  2  0
  2  3  1  0
  2  7  1  0
  3  4  1  0
  4  5  2  0
  5  6  1  0
  6  7  2  0
  6 11  1  0
  7  8  1  0
  8  9  2  0
  9 10  1  0
 10 11  2  0
 11 12  1  0
 12 13  2  0
 12 14  2  0
 12 15  1  0
 15 16  1  0
 15 21  1  0
 16 17  1  0
 17 18  1  0
 18 19  1  0
 19 20  1  0
 20 21  1  0
M  END
>  <DRUGBANK_ID>  (1) 
DB04707

>  <COMMON_NAME>  (1) 
Hydroxyfasudil

>  <CAS_NUMBER>  (1) 
105628-72-6

>  <UNII>  (1) 
EYH4AU7P63

>  <SYNONYMS>  (1) 
Hydroxy-fasudil

$$$$
