11U
     RDKit          2D

 28 30  0  0  0  0  0  0  0  0999 V2000
    0.4371   -0.7839    0.0000 N   0  0  0  0  0  0  0  0  0  0  0  0
    1.2217   -0.5289    0.0000 C   0  0  0  0  0  0  0  0  0  0  0  0
    1.3932    0.2781    0.0000 O   0  0  0  0  0  0  0  0  0  0  0  0
    1.8348   -1.0809    0.0000 C   0  0  0  0  0  0  0  0  0  0  0  0
    0.1821   -1.5685    0.0000 C   0  0  0  0  0  0  0  0  0  0  0  0
   -0.6429   -1.5685    0.0000 C   0  0  0  0  0  0  0  0  0  0  0  0
   -0.8978   -0.7839    0.0000 C   0  0  0  0  0  0  0  0  0  0  0  0
   -0.2304   -0.2989    0.0000 C   0  0  0  0  0  0  0  0  0  0  0  0
   -0.2304    0.5261    0.0000 C   0  0  0  0  0  0  0  0  0  0  0  0
   -0.9448    0.9386    0.0000 N   0  0  0  0  0  0  0  0  0  0  0  0
   -0.9448    1.7636    0.0000 C   0  0  0  0  0  0  0  0  0  0  0  0
   -1.6593    2.1761    0.0000 C   0  0  0  0  0  0  0  0  0  0  0  0
   -2.3738    1.7636    0.0000 C   0  0  0  0  0  0  0  0  0  0  0  0
   -3.0882    2.1761    0.0000 C   0  0  0  0  0  0  0  0  0  0  0  0
   -3.0882    3.0011    0.0000 C   0  0  0  0  0  0  0  0  0  0  0  0
   -3.8027    3.4136    0.0000 C   0  0  0  0  0  0  0  0  0  0  0  0
   -3.8027    4.2386    0.0000 N   0  0  0  0  0  0  0  0  0  0  0  0
   -4.5172    3.0011    0.0000 N   0  0  0  0  0  0  0  0  0  0  0  0
   -2.3738    3.4136    0.0000 C   0  0  0  0  0  0  0  0  0  0  0  0
   -1.6593    3.0011    0.0000 C   0  0  0  0  0  0  0  0  0  0  0  0
    0.4841    0.9386    0.0000 O   0  0  0  0  0  0  0  0  0  0  0  0
    2.6194   -0.8260    0.0000 N   0  0  0  0  0  0  0  0  0  0  0  0
    3.2325   -1.3780    0.0000 C   0  0  0  0  0  0  0  0  0  0  0  0
    4.0171   -1.1231    0.0000 C   0  0  0  0  0  0  0  0  0  0  0  0
    4.6302   -1.6751    0.0000 C   0  0  0  0  0  0  0  0  0  0  0  0
    4.4587   -2.4821    0.0000 C   0  0  0  0  0  0  0  0  0  0  0  0
    3.6741   -2.7370    0.0000 C   0  0  0  0  0  0  0  0  0  0  0  0
    3.0610   -2.1850    0.0000 C   0  0  0  0  0  0  0  0  0  0  0  0
  1  2  1  0
  1  5  1  0
  1  8  1  0
  2  3  2  0
  2  4  1  0
  4 22  1  0
  5  6  1  0
  6  7  1  0
  7  8  1  0
  8  9  1  1
  9 10  1  0
  9 21  2  0
 10 11  1  0
 11 12  1  0
 12 13  2  0
 12 20  1  0
 13 14  1  0
 14 15  2  0
 15 16  1  0
 15 19  1  0
 16 17  2  0
 16 18  1  0
 19 20  2  0
 22 23  1  0
 23 24  1  0
 23 28  1  0
 24 25  1  0
 25 26  1  0
 26 27  1  0
 27 28  1  0
M  END
>  <DRUGBANK_ID>  (1) 
DB06850

>  <COMMON_NAME>  (1) 
(S)-N-(4-carbamimidoylbenzyl)-1-(2-(cyclohexylamino)ethanoyl)pyrrolidine-2-carboxamide

$$$$
