825
     RDKit          2D

 30 32  0  0  0  0  0  0  0  0999 V2000
    0.2922   -1.9800    0.0000 O   0  0  0  0  0  0  0  0  0  0  0  0
   -0.4223   -1.5675    0.0000 C   0  0  0  0  0  0  0  0  0  0  0  0
   -1.1367   -1.9800    0.0000 C   0  0  0  0  0  0  0  0  0  0  0  0
   -1.8512   -1.5675    0.0000 C   0  0  0  0  0  0  0  0  0  0  0  0
   -2.5657   -1.9800    0.0000 C   0  0  0  0  0  0  0  0  0  0  0  0
   -2.5657   -2.8050    0.0000 C   0  0  0  0  0  0  0  0  0  0  0  0
   -1.8512   -3.2175    0.0000 C   0  0  0  0  0  0  0  0  0  0  0  0
   -1.1367   -2.8050    0.0000 C   0  0  0  0  0  0  0  0  0  0  0  0
   -0.4223   -0.7425    0.0000 C   0  0  0  0  0  0  0  0  0  0  0  0
   -1.1367   -0.3300    0.0000 C   0  0  0  0  0  0  0  0  0  0  0  0
   -1.1367    0.4950    0.0000 C   0  0  0  0  0  0  0  0  0  0  0  0
   -1.8512    0.9075    0.0000 C   0  0  0  0  0  0  0  0  0  0  0  0
   -1.8512   -0.7425    0.0000 C   0  0  0  0  0  0  0  0  0  0  0  0
   -2.5657   -0.3300    0.0000 C   0  0  0  0  0  0  0  0  0  0  0  0
   -2.5657    0.4950    0.0000 C   0  0  0  0  0  0  0  0  0  0  0  0
    0.2922   -0.3300    0.0000 C   0  0  0  0  0  0  0  0  0  0  0  0
    0.2922    0.4950    0.0000 C   0  0  0  0  0  0  0  0  0  0  0  0
    1.0067    0.9075    0.0000 C   0  0  0  0  0  0  0  0  0  0  0  0
    1.0067    1.7325    0.0000 C   0  0  0  0  0  0  0  0  0  0  0  0
    1.7212    2.1450    0.0000 Br  0  0  0  0  0  0  0  0  0  0  0  0
    0.2922    2.1450    0.0000 C   0  0  0  0  0  0  0  0  0  0  0  0
   -0.4223    1.7325    0.0000 C   0  0  0  0  0  0  0  0  0  0  0  0
   -0.4223    0.9075    0.0000 C   0  0  0  0  0  0  0  0  0  0  0  0
    0.2922    2.9700    0.0000 C   0  0  0  0  0  0  0  0  0  0  0  0
   -0.5328    2.9700    0.0000 F   0  0  0  0  0  0  0  0  0  0  0  0
    1.1172    2.9700    0.0000 F   0  0  0  0  0  0  0  0  0  0  0  0
    0.2922    3.7950    0.0000 P   0  0  0  0  0  0  0  0  0  0  0  0
    0.2922    4.6200    0.0000 O   0  0  0  0  0  0  0  0  0  0  0  0
   -0.5328    3.7950    0.0000 O   0  0  0  0  0  0  0  0  0  0  0  0
    1.1172    3.7950    0.0000 O   0  0  0  0  0  0  0  0  0  0  0  0
  1  2  2  0
  2  9  1  0
  3  2  1  0
  4  3  2  0
  5  4  1  0
  6  5  2  0
  6  7  1  0
  7  8  2  0
  8  3  1  0
  9 16  1  1
  9 10  1  0
 11 10  2  0
 12 11  1  0
 13 10  1  0
 14 13  2  0
 15 12  2  0
 15 14  1  0
 16 17  1  0
 17 23  1  0
 18 17  2  0
 18 19  1  0
 19 21  2  0
 20 19  1  0
 21 22  1  0
 21 24  1  0
 23 22  2  0
 24 26  1  0
 24 27  1  0
 25 24  1  0
 27 30  1  0
 27 28  1  0
 29 27  2  0
M  END
>  <DRUGBANK_ID>  (1) 
DB07263

>  <COMMON_NAME>  (1) 
[{2-bromo-4-[(2R)-3-oxo-2,3-diphenylpropyl]phenyl}(difluoro)methyl]phosphonic acid

$$$$
