
     RDKit          2D

 27 30  0  0  0  0  0  0  0  0999 V2000
   -0.9355    0.4125    0.0000 O   0  0  0  0  0  0  0  0  0  0  0  0
   -0.9355   -0.4125    0.0000 C   0  0  0  0  0  0  0  0  0  0  0  0
   -0.2211   -0.8250    0.0000 C   0  0  0  0  0  0  0  0  0  0  0  0
   -0.2211   -1.6500    0.0000 C   0  0  0  0  0  0  0  0  0  0  0  0
   -0.9355   -2.0625    0.0000 C   0  0  0  0  0  0  0  0  0  0  0  0
   -1.6500   -1.6500    0.0000 C   0  0  0  0  0  0  0  0  0  0  0  0
   -1.6500   -0.8250    0.0000 C   0  0  0  0  0  0  0  0  0  0  0  0
   -2.3645   -0.4125    0.0000 O   0  0  0  0  0  0  0  0  0  0  0  0
   -0.9355   -2.8875    0.0000 As  0  0  0  0  0  4  0  0  0  0  0  0
   -0.9355   -3.7125    0.0000 C   0  0  0  0  0  0  0  0  0  0  0  0
   -0.2211   -4.1250    0.0000 C   0  0  0  0  0  0  0  0  0  0  0  0
   -0.2211   -4.9500    0.0000 C   0  0  0  0  0  0  0  0  0  0  0  0
   -0.9355   -5.3625    0.0000 C   0  0  0  0  0  0  0  0  0  0  0  0
   -1.6500   -4.9500    0.0000 C   0  0  0  0  0  0  0  0  0  0  0  0
   -1.6500   -4.1250    0.0000 C   0  0  0  0  0  0  0  0  0  0  0  0
   -1.7605   -2.8875    0.0000 C   0  0  0  0  0  0  0  0  0  0  0  0
   -2.1730   -3.6020    0.0000 C   0  0  0  0  0  0  0  0  0  0  0  0
   -2.9980   -3.6020    0.0000 C   0  0  0  0  0  0  0  0  0  0  0  0
   -3.4105   -2.8875    0.0000 C   0  0  0  0  0  0  0  0  0  0  0  0
   -2.9980   -2.1730    0.0000 C   0  0  0  0  0  0  0  0  0  0  0  0
   -2.1730   -2.1730    0.0000 C   0  0  0  0  0  0  0  0  0  0  0  0
   -0.1105   -2.8875    0.0000 C   0  0  0  0  0  0  0  0  0  0  0  0
    0.3020   -2.1730    0.0000 C   0  0  0  0  0  0  0  0  0  0  0  0
    1.1270   -2.1730    0.0000 C   0  0  0  0  0  0  0  0  0  0  0  0
    1.5395   -2.8875    0.0000 C   0  0  0  0  0  0  0  0  0  0  0  0
    1.1270   -3.6020    0.0000 C   0  0  0  0  0  0  0  0  0  0  0  0
    0.3020   -3.6020    0.0000 C   0  0  0  0  0  0  0  0  0  0  0  0
  1  2  1  0
  2  3  2  0
  2  7  1  0
  3  4  1  0
  4  5  2  0
  5  6  1  0
  5  9  1  0
  6  7  2  0
  7  8  1  0
  9 10  1  0
  9 16  1  0
  9 22  1  0
 10 11  2  0
 10 15  1  0
 11 12  1  0
 12 13  2  0
 13 14  1  0
 14 15  2  0
 16 17  2  0
 16 21  1  0
 17 18  1  0
 18 19  2  0
 19 20  1  0
 20 21  2  0
 22 23  2  0
 22 27  1  0
 23 24  1  0
 24 25  2  0
 25 26  1  0
 26 27  2  0
M  CHG  1   9   1
M  END
>  <DRUGBANK_ID>  (1) 
DB02086

>  <SECONDARY_ACCESSION_NUMBERS>  (1) 
EXPT03130

>  <COMMON_NAME>  (1) 
(3,4-Dihydroxy-Phenyl)-Triphenyl-Arsonium

$$$$
