
     RDKit          2D

 17 18  0  0  0  0  0  0  0  0999 V2000
   -1.7862    0.8250    0.0000 C   0  0  0  0  0  0  0  0  0  0  0  0
   -2.6112    0.8250    0.0000 C   0  0  0  0  0  0  0  0  0  0  0  0
   -2.1987    1.5395    0.0000 C   0  0  0  0  0  0  0  0  0  0  0  0
   -1.0717    0.4125    0.0000 C   0  0  0  0  0  0  0  0  0  0  0  0
   -1.0717   -0.4125    0.0000 O   0  0  0  0  0  0  0  0  0  0  0  0
   -0.3572    0.8250    0.0000 O   0  0  0  0  0  0  0  0  0  0  0  0
    1.7862   -0.4125    0.0000 N   0  0  0  0  0  0  0  0  0  0  0  0
    1.0717   -0.8250    0.0000 C   0  0  0  0  0  0  0  0  0  0  0  0
    0.3572   -0.4125    0.0000 C   0  0  0  0  0  0  0  0  0  0  0  0
    0.3572    0.4125    0.0000 C   0  0  0  0  0  0  0  0  0  0  0  0
    1.0717    0.8250    0.0000 C   0  0  0  0  0  0  0  0  0  0  0  0
    1.7862    0.4125    0.0000 C   0  0  0  0  0  0  0  0  0  0  0  0
    2.1987    1.1270    0.0000 C   0  0  0  0  0  0  0  0  0  0  0  0
    2.6112    0.4125    0.0000 C   0  0  0  0  0  0  0  0  0  0  0  0
    1.4842   -1.5395    0.0000 C   0  0  0  0  0  0  0  0  0  0  0  0
    0.6592   -1.5395    0.0000 C   0  0  0  0  0  0  0  0  0  0  0  0
    2.5006   -0.8250    0.0000 O   0  0  0  0  0  0  0  0  0  0  0  0
  1  2  1  0
  1  3  1  0
  1  4  1  0
  2  3  1  0
  4  5  2  0
  4  6  1  0
  6 10  1  0
  7  8  1  0
  7 12  1  0
  7 17  1  0
  8  9  1  0
  8 15  1  0
  8 16  1  0
  9 10  1  0
 10 11  1  0
 11 12  1  0
 12 13  1  0
 12 14  1  0
M  END
>  <DRUGBANK_ID>  (1) 
DB05650

>  <COMMON_NAME>  (1) 
OT-551

>  <CAS_NUMBER>  (1) 
627085-11-4

>  <UNII>  (1) 
DZ02S3A31N

$$$$
