COQ
     RDKit          2D

 25 27  0  0  0  0  0  0  0  0999 V2000
   -3.8189   -1.3047    0.0000 C   0  0  0  0  0  0  0  0  0  0  0  0
   -3.1045   -0.0672    0.0000 C   0  0  0  0  0  0  0  0  0  0  0  0
   -2.3900   -0.4797    0.0000 C   0  0  0  0  0  0  0  0  0  0  0  0
   -1.6755   -0.0672    0.0000 C   0  0  0  0  0  0  0  0  0  0  0  0
   -0.9611   -0.4797    0.0000 C   0  0  0  0  0  0  0  0  0  0  0  0
   -0.9611   -1.3047    0.0000 C   0  0  0  0  0  0  0  0  0  0  0  0
   -2.3900   -1.3047    0.0000 C   0  0  0  0  0  0  0  0  0  0  0  0
    0.4679   -0.4797    0.0000 C   0  0  0  0  0  0  0  0  0  0  0  0
    1.1824   -0.0672    0.0000 C   0  0  0  0  0  0  0  0  0  0  0  0
    1.1824    0.7578    0.0000 C   0  0  0  0  0  0  0  0  0  0  0  0
    1.8968    1.1703    0.0000 C   0  0  0  0  0  0  0  0  0  0  0  0
    2.6113    0.7578    0.0000 C   0  0  0  0  0  0  0  0  0  0  0  0
    2.6113   -0.0672    0.0000 C   0  0  0  0  0  0  0  0  0  0  0  0
    1.8968   -0.4797    0.0000 C   0  0  0  0  0  0  0  0  0  0  0  0
    2.6113    2.4078    0.0000 C   0  0  0  0  0  0  0  0  0  0  0  0
    3.3258   -1.3047    0.0000 C   0  0  0  0  0  0  0  0  0  0  0  0
   -0.2466    0.7578    0.0000 C   0  0  0  0  0  0  0  0  0  0  0  0
   -3.1045   -1.7172    0.0000 N   0  0  0  0  0  0  0  0  0  0  0  0
   -4.5334   -1.7172    0.0000 N   0  0  0  0  0  0  0  0  0  0  0  0
   -3.8189   -0.4797    0.0000 N   0  0  0  0  0  0  0  0  0  0  0  0
   -3.1045    0.7578    0.0000 N   0  0  0  0  0  0  0  0  0  0  0  0
   -1.6755   -1.7172    0.0000 N   0  0  0  0  0  0  0  0  0  0  0  0
   -0.2466   -0.0672    0.0000 N   0  0  0  0  0  0  0  0  0  0  0  0
    1.8968    1.9953    0.0000 O   0  0  0  0  0  0  0  0  0  0  0  0
    3.3258   -0.4797    0.0000 O   0  0  0  0  0  0  0  0  0  0  0  0
  1 18  2  0
  1 19  1  0
  1 20  1  0
  2  3  1  0
  2 20  2  0
  2 21  1  0
  3  4  1  0
  3  7  2  0
  4  5  2  0
  5  6  1  0
  5 23  1  0
  6 22  2  0
  7 18  1  0
  7 22  1  0
  8  9  1  0
  8 23  1  0
  9 10  2  0
  9 14  1  0
 10 11  1  0
 11 12  2  0
 11 24  1  0
 12 13  1  0
 13 14  2  0
 13 25  1  0
 15 24  1  0
 16 25  1  0
 17 23  1  0
M  END
>  <DRUGBANK_ID>  (1) 
DB03987

>  <SECONDARY_ACCESSION_NUMBERS>  (1) 
EXPT00988

>  <COMMON_NAME>  (1) 
2,4-Diamino-6-[N-(3',5'-Dimethoxybenzyl)-N-Methylamino]Pyrido[2,3-D]Pyrimidine

$$$$
