P91
     RDKit          2D

 29 32  0  0  0  0  0  0  0  0999 V2000
    0.3139    0.5499    0.0000 C   0  0  0  0  0  0  0  0  0  0  0  0
    1.1389    0.5499    0.0000 C   0  0  0  0  0  0  0  0  0  0  0  0
    1.5514   -0.1645    0.0000 C   0  0  0  0  0  0  0  0  0  0  0  0
    1.1389   -0.8790    0.0000 C   0  0  0  0  0  0  0  0  0  0  0  0
    1.6909   -1.4921    0.0000 C   0  0  0  0  0  0  0  0  0  0  0  0
    2.3584   -0.3361    0.0000 C   0  0  0  0  0  0  0  0  0  0  0  0
    1.5514    1.2644    0.0000 C   0  0  0  0  0  0  0  0  0  0  0  0
    1.5194   -2.2991    0.0000 O   0  0  0  0  0  0  0  0  0  0  0  0
    2.9715    0.2160    0.0000 O   0  0  0  0  0  0  0  0  0  0  0  0
   -3.1352   -4.0441    0.0000 O   0  0  0  0  0  0  0  0  0  0  0  0
   -2.4208   -1.1566    0.0000 O   0  0  0  0  0  0  0  0  0  0  0  0
    1.1389    1.9789    0.0000 C   0  0  0  0  0  0  0  0  0  0  0  0
    2.4446   -1.1566    0.0000 N   0  0  0  0  0  0  0  0  0  0  0  0
    1.5514    2.6933    0.0000 C   0  0  0  0  0  0  0  0  0  0  0  0
    2.3764    2.6933    0.0000 C   0  0  0  0  0  0  0  0  0  0  0  0
    2.7889    1.9789    0.0000 C   0  0  0  0  0  0  0  0  0  0  0  0
   -1.7063   -1.5691    0.0000 C   0  0  0  0  0  0  0  0  0  0  0  0
   -1.7063   -2.3941    0.0000 N   0  0  0  0  0  0  0  0  0  0  0  0
   -2.4208   -2.8066    0.0000 C   0  0  0  0  0  0  0  0  0  0  0  0
   -2.4208   -3.6316    0.0000 C   0  0  0  0  0  0  0  0  0  0  0  0
   -0.9918   -1.1566    0.0000 C   0  0  0  0  0  0  0  0  0  0  0  0
   -0.2381   -1.4921    0.0000 C   0  0  0  0  0  0  0  0  0  0  0  0
   -0.0666   -2.2991    0.0000 Br  0  0  0  0  0  0  0  0  0  0  0  0
   -0.9056   -0.3361    0.0000 N   0  0  0  0  0  0  0  0  0  0  0  0
   -1.5187    0.2160    0.0000 C   0  0  0  0  0  0  0  0  0  0  0  0
   -0.0986   -0.1645    0.0000 C   0  0  0  0  0  0  0  0  0  0  0  0
    0.3139   -0.8790    0.0000 C   0  0  0  0  0  0  0  0  0  0  0  0
    2.3764    1.2644    0.0000 C   0  0  0  0  0  0  0  0  0  0  0  0
    0.3139    1.9789    0.0000 Cl  0  0  0  0  0  0  0  0  0  0  0  0
  1  2  2  0
  1 26  1  0
  2  3  1  0
  2  7  1  0
  3  4  2  0
  3  6  1  0
  4  5  1  0
  4 27  1  0
  5  8  2  0
  5 13  1  0
  6  9  2  0
  6 13  1  0
  7 12  2  0
  7 28  1  0
 10 20  1  0
 11 17  2  0
 12 14  1  0
 12 29  1  0
 14 15  2  0
 15 16  1  0
 16 28  2  0
 17 18  1  0
 17 21  1  0
 18 19  1  0
 19 20  1  0
 21 22  2  0
 21 24  1  0
 22 23  1  0
 22 27  1  0
 24 25  1  0
 24 26  1  0
 26 27  2  0
M  END
>  <DRUGBANK_ID>  (1) 
DB08365

>  <COMMON_NAME>  (1) 
8-bromo-4-(2-chlorophenyl)-N-(2-hydroxyethyl)-6-methyl-1,3-dioxo-1,2,3,6-tetrahydropyrrolo[3,4-e]indole-7-carboxamide

$$$$
