TR1
     RDKit          2D

 32 33  0  0  0  0  0  0  0  0999 V2000
    1.2106   -0.1219    0.0000 N   0  0  0  0  0  0  0  0  0  0  0  0
    0.4961    0.2906    0.0000 C   0  0  0  0  0  0  0  0  0  0  0  0
   -0.2184   -0.1219    0.0000 C   0  0  0  0  0  0  0  0  0  0  0  0
   -0.2184   -0.9469    0.0000 O   0  0  0  0  0  0  0  0  0  0  0  0
    4.7829   -1.3594    0.0000 C   0  0  0  0  0  0  0  0  0  0  0  0
    5.4974   -0.9469    0.0000 C   0  0  0  0  0  0  0  0  0  0  0  0
    4.7829   -2.1844    0.0000 C   0  0  0  0  0  0  0  0  0  0  0  0
    6.2119   -1.3594    0.0000 C   0  0  0  0  0  0  0  0  0  0  0  0
    5.4974   -2.5969    0.0000 C   0  0  0  0  0  0  0  0  0  0  0  0
    6.2119   -2.1844    0.0000 C   0  0  0  0  0  0  0  0  0  0  0  0
    2.6395   -0.1219    0.0000 C   0  0  0  0  0  0  0  0  0  0  0  0
    3.3540    0.2906    0.0000 C   0  0  0  0  0  0  0  0  0  0  0  0
    2.6395   -0.9469    0.0000 C   0  0  0  0  0  0  0  0  0  0  0  0
    4.0684   -0.1219    0.0000 C   0  0  0  0  0  0  0  0  0  0  0  0
    3.3540   -1.3594    0.0000 C   0  0  0  0  0  0  0  0  0  0  0  0
    4.0684   -0.9469    0.0000 C   0  0  0  0  0  0  0  0  0  0  0  0
    1.9250    0.2906    0.0000 C   0  0  0  0  0  0  0  0  0  0  0  0
    0.4961    1.1156    0.0000 C   0  0  0  0  0  0  0  0  0  0  0  0
   -0.2184    1.5281    0.0000 S   0  0  0  0  0  0  0  0  0  0  0  0
   -0.9328    0.2906    0.0000 N   0  0  0  0  0  0  0  0  0  0  0  0
   -1.6473   -0.1219    0.0000 C   0  0  0  0  0  0  0  0  0  0  0  0
   -2.3618    0.2906    0.0000 C   0  0  0  0  0  0  0  0  0  0  0  0
   -2.3618    1.1156    0.0000 O   0  0  0  0  0  0  0  0  0  0  0  0
   -3.0763   -0.1219    0.0000 N   0  0  0  0  0  0  0  0  0  0  0  0
   -3.7907    0.2906    0.0000 C   0  0  0  0  0  0  0  0  0  0  0  0
   -3.7907    1.1156    0.0000 C   0  0  0  0  0  0  0  0  0  0  0  0
   -4.5052    1.5281    0.0000 C   0  0  0  0  0  0  0  0  0  0  0  0
   -3.0763    1.5281    0.0000 C   0  0  0  0  0  0  0  0  0  0  0  0
   -4.5052   -0.1219    0.0000 C   0  0  0  0  0  0  0  0  0  0  0  0
   -4.5052   -0.9469    0.0000 O   0  0  0  0  0  0  0  0  0  0  0  0
   -5.2197    0.2906    0.0000 O   0  0  0  0  0  0  0  0  0  0  0  0
   -5.9341   -0.1219    0.0000 C   0  0  0  0  0  0  0  0  0  0  0  0
  1 17  1  0
  2  1  1  0
  2  3  1  0
  2 18  1  6
  3  4  2  0
  3 20  1  0
  5  6  2  0
  5  7  1  0
  5 16  1  0
  6  8  1  0
  7  9  2  0
  8 10  2  0
  9 10  1  0
 11 12  2  0
 11 13  1  0
 11 17  1  0
 12 14  1  0
 13 15  2  0
 14 16  2  0
 15 16  1  0
 18 19  1  0
 20 21  1  0
 21 22  1  0
 22 23  2  0
 22 24  1  0
 25 24  1  6
 25 26  1  0
 25 29  1  0
 26 27  1  0
 26 28  1  0
 29 30  2  0
 29 31  1  0
 31 32  1  0
M  END
>  <DRUGBANK_ID>  (1) 
DB08643

>  <COMMON_NAME>  (1) 
2-(2-{2-[(BIPHENYL-4-YLMETHYL)-AMINO]-3-MERCAPTO-PENTANOYLAMINO}-ACETYLAMINO)-3-METHYL-BUTYRIC ACID METHYL ESTER

$$$$
