
     RDKit          2D

 10 10  0  0  0  0  0  0  0  0999 V2000
    0.7144   -1.2375    0.0000 C   0  0  0  0  0  0  0  0  0  0  0  0
    1.4289   -0.8250    0.0000 C   0  0  0  0  0  0  0  0  0  0  0  0
    0.0000   -0.8250    0.0000 C   0  0  0  0  0  0  0  0  0  0  0  0
    1.4289    0.0000    0.0000 C   0  0  0  0  0  0  0  0  0  0  0  0
    0.0000    0.0000    0.0000 C   0  0  0  0  0  0  0  0  0  0  0  0
    0.7144    0.4125    0.0000 C   0  0  0  0  0  0  0  0  0  0  0  0
   -0.7144    0.4125    0.0000 C   0  0  0  0  0  0  0  0  0  0  0  0
    0.7144    1.2375    0.0000 O   0  0  0  0  0  0  0  0  0  0  0  0
   -1.4289    0.0000    0.0000 O   0  0  0  0  0  0  0  0  0  0  0  0
   -0.7144    1.2375    0.0000 O   0  0  0  0  0  0  0  0  0  0  0  0
  2  1  2  0
  3  1  1  0
  4  2  1  0
  5  3  2  0
  6  4  2  0
  6  5  1  0
  7  5  1  0
  8  6  1  0
  9  7  2  0
 10  7  1  0
M  END
>  <DRUGBANK_ID>  (1) 
DB00936

>  <SECONDARY_ACCESSION_NUMBERS>  (1) 
APRD01605; DB01398

>  <COMMON_NAME>  (1) 
Salicylic acid

>  <CAS_NUMBER>  (1) 
69-72-7

>  <UNII>  (1) 
O414PZ4LPZ

>  <SYNONYMS>  (1) 
2-Carboxyphenol; 2-Hydroxybenzoic acid; ácido salicílico; Acidum salicylicum; O-carboxyphenol; O-hydroxybenzoic acid; Salicylic acid

$$$$
