
     RDKit          2D

 32 34  0  0  0  0  0  0  0  0999 V2000
   -3.9296   -2.6813    0.0000 N   0  0  0  0  0  0  0  0  0  0  0  0
   -3.2151   -2.2688    0.0000 C   0  0  0  0  0  0  0  0  0  0  0  0
   -3.2151   -1.4438    0.0000 C   0  0  0  0  0  0  0  0  0  0  0  0
   -2.5006   -1.0313    0.0000 N   0  0  0  0  0  0  0  0  0  0  0  0
   -2.5006   -2.6813    0.0000 N   0  0  0  0  0  0  0  0  0  0  0  0
   -4.6440   -1.4438    0.0000 N   0  0  0  0  0  0  0  0  0  0  0  0
   -1.7862   -2.2688    0.0000 C   0  0  0  0  0  0  0  0  0  0  0  0
   -1.7862   -1.4438    0.0000 C   0  0  0  0  0  0  0  0  0  0  0  0
   -1.0716   -1.0313    0.0000 C   0  0  0  0  0  0  0  0  0  0  0  0
   -0.3572   -1.4438    0.0000 N   0  0  0  0  0  0  0  0  0  0  0  0
    0.3572   -1.0311    0.0000 C   0  0  0  0  0  0  0  0  0  0  0  0
    1.7861   -1.0311    0.0000 C   0  0  0  0  0  0  0  0  0  0  0  0
    1.0717   -1.4436    0.0000 C   0  0  0  0  0  0  0  0  0  0  0  0
    0.3572   -0.2061    0.0000 C   0  0  0  0  0  0  0  0  0  0  0  0
    1.0717    0.2063    0.0000 C   0  0  0  0  0  0  0  0  0  0  0  0
    1.7861   -0.2061    0.0000 C   0  0  0  0  0  0  0  0  0  0  0  0
    2.5006    0.2063    0.0000 C   0  0  0  0  0  0  0  0  0  0  0  0
    2.5006    1.0313    0.0000 O   0  0  0  0  0  0  0  0  0  0  0  0
    3.2150   -0.2061    0.0000 N   0  0  0  0  0  0  0  0  0  0  0  0
    3.9296    2.6813    0.0000 O   0  0  0  0  0  0  0  0  0  0  0  0
    3.9296    0.2063    0.0000 C   0  0  0  0  0  0  0  0  0  0  0  0
    5.3585    0.2063    0.0000 O   0  0  0  0  0  0  0  0  0  0  0  0
    4.6439   -0.2061    0.0000 C   0  0  0  0  0  0  0  0  0  0  0  0
    4.6439   -1.0311    0.0000 O   0  0  0  0  0  0  0  0  0  0  0  0
    3.9296    1.0313    0.0000 C   0  0  0  0  0  0  0  0  0  0  0  0
    4.6441    1.4438    0.0000 C   0  0  0  0  0  0  0  0  0  0  0  0
    4.6441    2.2688    0.0000 C   0  0  0  0  0  0  0  0  0  0  0  0
    5.3585    2.6813    0.0000 O   0  0  0  0  0  0  0  0  0  0  0  0
   -3.9296   -1.0313    0.0000 C   0  0  0  0  0  0  0  0  0  0  0  0
   -3.9296   -0.2063    0.0000 O   0  0  0  0  0  0  0  0  0  0  0  0
   -4.6440   -2.2688    0.0000 C   0  0  0  0  0  0  0  0  0  0  0  0
   -5.3585   -2.6813    0.0000 N   0  0  0  0  0  0  0  0  0  0  0  0
  1  2  1  0
  2  3  2  0
  2  5  1  0
  3  4  1  0
  3 29  1  0
  4  8  1  0
  7  5  1  0
  7  8  1  0
  8  9  1  1
  9 10  1  0
 10 11  1  0
 11 14  2  0
 12 13  2  0
 12 16  1  0
 13 11  1  0
 14 15  1  0
 15 16  2  0
 16 17  1  0
 17 19  1  0
 17 18  2  0
 21 19  1  0
 21 25  1  1
 21 23  1  0
 23 22  1  0
 23 24  2  0
 25 26  1  0
 26 27  1  0
 27 20  2  0
 27 28  1  0
 29  6  1  0
 29 30  2  0
 31  1  2  0
 31  6  1  0
 31 32  1  0
M  END
>  <DRUGBANK_ID>  (1) 
DB02031

>  <SECONDARY_ACCESSION_NUMBERS>  (1) 
EXPT03050

>  <COMMON_NAME>  (1) 
(6S)-5,6,7,8-tetrahydrofolic acid

>  <CAS_NUMBER>  (1) 
135-16-0

>  <SYNONYMS>  (1) 
(6S)-5,6,7,8-tetrahydrofolate; (6S)-5,6,7,8-tetrahydropteroylglutamate; (6S)-H4folate; (6S)-tetrahydrofolate; (6S)-Tetrahydrofolic acid; (6S)-THFA

$$$$
