
     RDKit          2D

 10 11  0  0  0  0  0  0  0  0999 V2000
   -0.6655    1.2379    0.0000 Br  0  0  0  0  0  0  0  0  0  0  0  0
    0.8298    0.2513    0.0000 N   0  0  0  0  0  0  0  0  0  0  0  0
    0.8298   -1.0766    0.0000 N   0  0  0  0  0  0  0  0  0  0  0  0
   -0.6655   -1.2379    0.0000 N   0  0  0  0  0  0  0  0  0  0  0  0
   -1.3802    0.0000    0.0000 N   0  0  0  0  0  0  0  0  0  0  0  0
    0.0489    0.0000    0.0000 C   0  0  0  0  0  0  0  0  0  0  0  0
    0.0489   -0.8252    0.0000 C   0  0  0  0  0  0  0  0  0  0  0  0
   -0.6655    0.4126    0.0000 C   0  0  0  0  0  0  0  0  0  0  0  0
    1.3116   -0.4126    0.0000 C   0  0  0  0  0  0  0  0  0  0  0  0
   -1.3802   -0.8252    0.0000 C   0  0  0  0  0  0  0  0  0  0  0  0
  1  8  1  0
  2  6  1  0
  2  9  1  0
  3  7  1  0
  3  9  2  0
  4  7  1  0
  4 10  2  0
  5  8  2  0
  5 10  1  0
  6  7  2  0
  6  8  1  0
M  END
>  <DRUGBANK_ID>  (1) 
DB02168

>  <SECONDARY_ACCESSION_NUMBERS>  (1) 
EXPT00741

>  <COMMON_NAME>  (1) 
6-bromopurine

>  <CAS_NUMBER>  (1) 
767-69-1

>  <SYNONYMS>  (1) 
6-bromo-1H-purine

$$$$
