THK
     RDKit          2D

 29 32  0  0  0  0  0  0  0  0999 V2000
    0.5209    0.6321    0.0000 N   0  0  0  0  0  0  0  0  0  0  0  0
    1.0730    1.2452    0.0000 C   0  0  0  0  0  0  0  0  0  0  0  0
    1.8799    1.0737    0.0000 C   0  0  0  0  0  0  0  0  0  0  0  0
    2.1349    0.2891    0.0000 C   0  0  0  0  0  0  0  0  0  0  0  0
    2.8633    0.6764    0.0000 O   0  0  0  0  0  0  0  0  0  0  0  0
    1.5829   -0.3240    0.0000 C   0  0  0  0  0  0  0  0  0  0  0  0
    0.7759   -0.1525    0.0000 C   0  0  0  0  0  0  0  0  0  0  0  0
   -0.2860    0.8036    0.0000 C   0  0  0  0  0  0  0  0  0  0  0  0
   -0.8381    0.1905    0.0000 C   0  0  0  0  0  0  0  0  0  0  0  0
   -1.6450    0.3621    0.0000 C   0  0  0  0  0  0  0  0  0  0  0  0
   -2.1971   -0.2510    0.0000 C   0  0  0  0  0  0  0  0  0  0  0  0
   -2.7491    0.3621    0.0000 C   0  0  0  0  0  0  0  0  0  0  0  0
   -3.5561    0.1905    0.0000 C   0  0  0  0  0  0  0  0  0  0  0  0
   -4.1081    0.8036    0.0000 C   0  0  0  0  0  0  0  0  0  0  0  0
   -3.8532    1.5883    0.0000 C   0  0  0  0  0  0  0  0  0  0  0  0
   -4.4052    2.2014    0.0000 F   0  0  0  0  0  0  0  0  0  0  0  0
   -3.0462    1.7598    0.0000 C   0  0  0  0  0  0  0  0  0  0  0  0
   -2.4942    1.1467    0.0000 C   0  0  0  0  0  0  0  0  0  0  0  0
    2.6428   -0.3611    0.0000 C   0  0  0  0  0  0  0  0  0  0  0  0
    3.4598   -0.2462    0.0000 C   0  0  0  0  0  0  0  0  0  0  0  0
    3.9677   -0.8963    0.0000 C   0  0  0  0  0  0  0  0  0  0  0  0
    3.6586   -1.6613    0.0000 C   0  0  0  0  0  0  0  0  0  0  0  0
    4.1666   -2.3114    0.0000 Cl  0  0  0  0  0  0  0  0  0  0  0  0
    2.8417   -1.7761    0.0000 C   0  0  0  0  0  0  0  0  0  0  0  0
    2.3338   -1.1260    0.0000 C   0  0  0  0  0  0  0  0  0  0  0  0
   -1.5296   -0.7359    0.0000 S   0  0  0  0  0  0  0  0  0  0  0  0
   -1.7846   -1.5206    0.0000 C   0  0  0  0  0  0  0  0  0  0  0  0
   -2.6096   -1.5206    0.0000 C   0  0  0  0  0  0  0  0  0  0  0  0
   -2.8645   -0.7359    0.0000 S   0  0  0  0  0  0  0  0  0  0  0  0
  1  2  1  0
  1  7  1  0
  1  8  1  0
  2  3  1  0
  3  4  1  0
  4  5  1  0
  4  6  1  0
  4 19  1  0
  6  7  1  0
  8  9  1  0
  9 10  1  0
 10 11  1  0
 11 12  1  0
 11 26  1  0
 11 29  1  0
 12 13  2  0
 12 18  1  0
 13 14  1  0
 14 15  2  0
 15 16  1  0
 15 17  1  0
 17 18  2  0
 19 20  2  0
 19 25  1  0
 20 21  1  0
 21 22  2  0
 22 23  1  0
 22 24  1  0
 24 25  2  0
 26 27  1  0
 27 28  1  0
 28 29  1  0
M  END
>  <DRUGBANK_ID>  (1) 
DB08622

>  <COMMON_NAME>  (1) 
4-(4-CHLORO-PHENYL)-1-{3-[2-(4-FLUORO-PHENYL)-[1,3]DITHIOLAN-2-YL]-PROPYL}-PIPERIDIN-4-OL

$$$$
