PZL
     RDKit          2D

 28 31  0  0  0  0  0  0  0  0999 V2000
   -2.7940   -4.1791    0.0000 N   0  0  0  0  0  0  0  0  0  0  0  0
   -2.5391   -3.3945    0.0000 C   0  0  0  0  0  0  0  0  0  0  0  0
   -2.2842   -2.6099    0.0000 C   0  0  0  0  0  0  0  0  0  0  0  0
   -2.8362   -1.9968    0.0000 C   0  0  0  0  0  0  0  0  0  0  0  0
   -2.5813   -1.2122    0.0000 C   0  0  0  0  0  0  0  0  0  0  0  0
   -3.1333   -0.5991    0.0000 Cl  0  0  0  0  0  0  0  0  0  0  0  0
   -1.7743   -1.0406    0.0000 C   0  0  0  0  0  0  0  0  0  0  0  0
   -1.4772   -2.4383    0.0000 C   0  0  0  0  0  0  0  0  0  0  0  0
   -1.2222   -1.6537    0.0000 C   0  0  0  0  0  0  0  0  0  0  0  0
   -0.4153   -1.4822    0.0000 O   0  0  0  0  0  0  0  0  0  0  0  0
   -0.1603   -0.6976    0.0000 C   0  0  0  0  0  0  0  0  0  0  0  0
   -0.7124   -0.0845    0.0000 C   0  0  0  0  0  0  0  0  0  0  0  0
   -1.5193   -0.2560    0.0000 Br  0  0  0  0  0  0  0  0  0  0  0  0
    0.6466   -0.5260    0.0000 C   0  0  0  0  0  0  0  0  0  0  0  0
    1.1987   -1.1391    0.0000 F   0  0  0  0  0  0  0  0  0  0  0  0
    0.9016    0.2586    0.0000 C   0  0  0  0  0  0  0  0  0  0  0  0
    0.3495    0.8717    0.0000 C   0  0  0  0  0  0  0  0  0  0  0  0
   -0.4574    0.7001    0.0000 C   0  0  0  0  0  0  0  0  0  0  0  0
    1.7085    0.4301    0.0000 C   0  0  0  0  0  0  0  0  0  0  0  0
    1.9635    1.2147    0.0000 C   0  0  0  0  0  0  0  0  0  0  0  0
    1.4786    1.8822    0.0000 N   0  0  0  0  0  0  0  0  0  0  0  0
    1.9635    2.5496    0.0000 N   0  0  0  0  0  0  0  0  0  0  0  0
    2.7481    2.2947    0.0000 C   0  0  0  0  0  0  0  0  0  0  0  0
    3.4626    2.7072    0.0000 N   0  0  0  0  0  0  0  0  0  0  0  0
    2.7481    1.4697    0.0000 C   0  0  0  0  0  0  0  0  0  0  0  0
    3.4626    1.0572    0.0000 C   0  0  0  0  0  0  0  0  0  0  0  0
    4.1770    1.4697    0.0000 C   0  0  0  0  0  0  0  0  0  0  0  0
    4.1770    2.2947    0.0000 N   0  0  0  0  0  0  0  0  0  0  0  0
  1  2  3  0
  2  3  1  0
  3  4  2  0
  3  8  1  0
  4  5  1  0
  5  6  1  0
  5  7  2  0
  7  9  1  0
  8  9  2  0
  9 10  1  0
 10 11  1  0
 11 12  2  0
 11 14  1  0
 12 13  1  0
 12 18  1  0
 14 15  1  0
 14 16  2  0
 16 17  1  0
 16 19  1  0
 17 18  2  0
 19 20  1  0
 20 21  2  0
 20 25  1  0
 21 22  1  0
 22 23  1  0
 23 24  1  0
 23 25  2  0
 24 28  2  0
 25 26  1  0
 26 27  2  0
 27 28  1  0
M  END
>  <DRUGBANK_ID>  (1) 
DB08446

>  <COMMON_NAME>  (1) 
3-[6-bromo-2-fluoro-3-(1H-pyrazolo[3,4-c]pyridazin-3-ylmethyl)phenoxy]-5-chlorobenzonitrile

$$$$
