
     RDKit          2D

 17 18  0  0  0  0  0  0  0  0999 V2000
    0.4395   -1.9252    0.0000 O   0  0  0  0  0  0  0  0  0  0  0  0
    2.3103    2.0953    0.0000 O   0  0  0  0  0  0  0  0  0  0  0  0
    0.9521    2.5392    0.0000 O   0  0  0  0  0  0  0  0  0  0  0  0
    1.2467   -2.0953    0.0000 O   0  0  0  0  0  0  0  0  0  0  0  0
    0.1832   -1.1410    0.0000 N   0  0  0  0  0  0  0  0  0  0  0  0
    1.7978    0.5270    0.0000 N   0  0  0  0  0  0  0  0  0  0  0  0
    0.1832    0.1867    0.0000 C   0  0  0  0  0  0  0  0  0  0  0  0
    0.4395    0.9709    0.0000 C   0  0  0  0  0  0  0  0  0  0  0  0
   -0.5974   -0.0646    0.0000 C   0  0  0  0  0  0  0  0  0  0  0  0
   -0.5974   -0.8896    0.0000 C   0  0  0  0  0  0  0  0  0  0  0  0
    1.2467    1.1410    0.0000 C   0  0  0  0  0  0  0  0  0  0  0  0
    0.6647   -0.4771    0.0000 C   0  0  0  0  0  0  0  0  0  0  0  0
   -1.3118    0.3478    0.0000 C   0  0  0  0  0  0  0  0  0  0  0  0
   -1.3118   -1.3021    0.0000 C   0  0  0  0  0  0  0  0  0  0  0  0
   -2.0263   -0.0646    0.0000 C   0  0  0  0  0  0  0  0  0  0  0  0
   -2.0263   -0.8896    0.0000 C   0  0  0  0  0  0  0  0  0  0  0  0
    1.5031    1.9252    0.0000 C   0  0  0  0  0  0  0  0  0  0  0  0
  1  4  1  0
  1  5  1  0
  2 17  1  0
  3 17  2  0
  5 10  1  0
  5 12  1  0
  7  8  1  0
  7  9  1  0
  7 12  2  0
  8 11  1  0
  9 10  2  0
  9 13  1  0
 10 14  1  0
 11  6  1  1
 11 17  1  0
 13 15  2  0
 14 16  2  0
 15 16  1  0
M  END
>  <DRUGBANK_ID>  (1) 
DB08638

>  <COMMON_NAME>  (1) 
1-hydroperoxy-L-tryptophan

$$$$
