
     RDKit          2D

 22 21  0  0  1  0  0  0  0  0999 V2000
   -1.6500   -1.4289    0.0000 C   0  0  0  0  0  0  0  0  0  0  0  0
    2.0625   -2.1434    0.0000 C   0  0  0  0  0  0  0  0  0  0  0  0
    1.2375   -2.1434    0.0000 C   0  0  0  0  0  0  0  0  0  0  0  0
    2.4750   -2.8579    0.0000 C   0  0  0  0  0  0  0  0  0  0  0  0
    0.8250   -1.4289    0.0000 C   0  0  0  0  0  0  0  0  0  0  0  0
    3.7125   -5.0013    0.0000 C   0  0  0  0  0  0  0  0  0  0  0  0
   -1.2375   -0.7145    0.0000 C   0  0  0  0  0  0  0  0  0  0  0  0
    3.3000   -2.8579    0.0000 C   0  0  0  0  0  0  0  0  0  0  0  0
    0.0000   -1.4289    0.0000 C   0  0  0  0  0  0  0  0  0  0  0  0
    3.3000   -4.2868    0.0000 C   0  0  0  0  0  0  0  0  0  0  0  0
    3.7125   -2.1434    0.0000 C   0  0  0  0  0  0  0  0  0  0  0  0
    3.3000   -5.7158    0.0000 N   0  0  0  0  0  0  0  0  0  0  0  0
   -0.4125   -0.7145    0.0000 N   0  0  0  0  0  0  0  0  0  0  0  0
    3.7125   -3.5724    0.0000 N   0  0  0  0  0  0  0  0  0  0  0  0
   -0.4125   -2.1434    0.0000 O   0  0  0  0  0  0  0  0  0  0  0  0
    2.4750   -4.2868    0.0000 O   0  0  0  0  0  0  0  0  0  0  0  0
    3.3000   -1.4289    0.0000 O   0  0  0  0  0  0  0  0  0  0  0  0
    4.5375   -2.1434    0.0000 O   0  0  0  0  0  0  0  0  0  0  0  0
   -2.0625    0.7145    0.0000 O   0  0  0  0  0  0  0  0  0  0  0  0
   -0.9355    0.4125    0.0000 O   0  0  0  0  0  0  0  0  0  0  0  0
   -2.3645   -0.4125    0.0000 O   0  0  0  0  0  0  0  0  0  0  0  0
   -1.6500    0.0000    0.0000 P   0  0  0  0  0  0  0  0  0  0  0  0
  3  2  1  0
  4  2  1  0
  5  3  1  0
  7  1  1  6
  8  4  1  1
  8 14  1  0
  9  5  1  0
  9 15  1  0
 10  6  1  0
 10 16  1  0
 11  8  1  0
 12  6  1  0
 13  7  1  0
 13  9  2  3
 14 10  2  3
 17 11  2  0
 18 11  1  0
 22  7  1  0
 22 19  1  0
 22 20  1  0
 22 21  2  0
M  CHG  1  15  -1
M  END
>  <DRUGBANK_ID>  (1) 
DB01868

>  <SECONDARY_ACCESSION_NUMBERS>  (1) 
EXPT02767

>  <COMMON_NAME>  (1) 
Glycyl-L-a-Aminopimelyl-E-(D-2-Aminoethyl)Phosphonate

$$$$
