
     RDKit          2D

 21 22  0  0  1  0  0  0  0  0999 V2000
    4.5080   -1.6500    0.0000 Cl  0  0  0  0  0  0  0  0  0  0  0  0
    3.0791    0.8250    0.0000 O   0  0  0  0  0  0  0  0  0  0  0  0
    4.5080    0.0000    0.0000 O   0  0  0  0  0  0  0  0  0  0  0  0
    6.6515   -3.7126    0.0000 O   0  0  0  0  0  0  0  0  0  0  0  0
    3.0791    2.4751    0.0000 N   0  0  0  0  0  0  0  0  0  0  0  0
    5.2224   -0.4125    0.0000 N   0  0  0  0  0  0  0  0  0  0  0  0
    6.6515   -2.8876    0.0000 N   0  0  0  0  0  0  0  0  0  0  0  0
    3.0791    3.3001    0.0000 C   0  0  0  0  0  0  0  0  0  0  0  0
    2.3645    2.0625    0.0000 C   0  0  0  0  0  0  0  0  0  0  0  0
    2.3645    3.7126    0.0000 C   0  0  0  0  0  0  0  0  0  0  0  0
    1.6500    2.4751    0.0000 C   0  0  0  0  0  0  0  0  0  0  0  0
    1.6500    3.3001    0.0000 C   0  0  0  0  0  0  0  0  0  0  0  0
    3.7935    2.0625    0.0000 C   0  0  0  0  0  0  0  0  0  0  0  0
    3.7935    1.2375    0.0000 C   0  0  0  0  0  0  0  0  0  0  0  0
    4.5080    0.8250    0.0000 C   0  0  0  0  0  0  0  0  0  0  0  0
    5.2224   -1.2375    0.0000 C   0  0  0  0  0  0  0  0  0  0  0  0
    5.9370   -1.6500    0.0000 C   0  0  0  0  0  0  0  0  0  0  0  0
    5.9370   -2.4751    0.0000 C   0  0  0  0  0  0  0  0  0  0  0  0
    6.6515   -1.2375    0.0000 C   0  0  0  0  0  0  0  0  0  0  0  0
    7.3659   -1.6500    0.0000 C   0  0  0  0  0  0  0  0  0  0  0  0
    7.3659   -2.4751    0.0000 C   0  0  0  0  0  0  0  0  0  0  0  0
  1 16  1  0
  3  6  1  0
  3 15  1  0
  4  7  1  0
  5  8  1  0
  5  9  1  0
  5 13  1  0
  6 16  2  3
  7 18  2  0
  7 21  1  0
  8 10  1  0
  9 11  1  0
 10 12  1  0
 11 12  1  0
 13 14  1  0
 14  2  1  6
 14 15  1  0
 16 17  1  0
 17 18  1  0
 17 19  2  0
 19 20  1  0
 20 21  2  0
M  CHG  2   4  -1   7   1
M  END
>  <DRUGBANK_ID>  (1) 
DB05025

>  <COMMON_NAME>  (1) 
Arimoclomol

>  <CAS_NUMBER>  (1) 
289893-25-0

>  <UNII>  (1) 
EUT3557RT5

>  <SYNONYMS>  (1) 
Arimoclomol

$$$$
