
     RDKit          2D

 28 30  0  0  0  0  0  0  0  0999 V2000
   -2.9058   -0.4895    0.0000 S   0  0  0  0  0  0  0  0  0  0  0  0
   -4.2784   -1.0163    0.0000 S   0  0  0  0  0  0  0  0  0  0  0  0
    2.1349    0.8250    0.0000 O   0  0  0  0  0  0  0  0  0  0  0  0
   -0.7231   -1.6500    0.0000 O   0  0  0  0  0  0  0  0  0  0  0  0
    0.7059    0.8250    0.0000 O   0  0  0  0  0  0  0  0  0  0  0  0
    1.4204   -0.4125    0.0000 N   0  0  0  0  0  0  0  0  0  0  0  0
   -1.4376   -0.4125    0.0000 N   0  0  0  0  0  0  0  0  0  0  0  0
   -2.2383   -1.6455    0.0000 N   0  0  0  0  0  0  0  0  0  0  0  0
   -3.0454   -1.8170    0.0000 N   0  0  0  0  0  0  0  0  0  0  0  0
    0.7059   -0.8250    0.0000 C   0  0  0  0  0  0  0  0  0  0  0  0
   -0.0085   -0.4125    0.0000 C   0  0  0  0  0  0  0  0  0  0  0  0
    0.7059   -1.6500    0.0000 C   0  0  0  0  0  0  0  0  0  0  0  0
    1.4204   -2.0626    0.0000 C   0  0  0  0  0  0  0  0  0  0  0  0
   -0.0085   -2.0626    0.0000 C   0  0  0  0  0  0  0  0  0  0  0  0
   -0.7231   -0.8250    0.0000 C   0  0  0  0  0  0  0  0  0  0  0  0
    1.4204    0.4125    0.0000 C   0  0  0  0  0  0  0  0  0  0  0  0
    1.4204   -2.8876    0.0000 C   0  0  0  0  0  0  0  0  0  0  0  0
   -0.0085   -2.8876    0.0000 C   0  0  0  0  0  0  0  0  0  0  0  0
    0.7059   -3.3001    0.0000 C   0  0  0  0  0  0  0  0  0  0  0  0
    2.1349    1.6500    0.0000 C   0  0  0  0  0  0  0  0  0  0  0  0
    2.8494    2.0626    0.0000 C   0  0  0  0  0  0  0  0  0  0  0  0
   -2.1521   -0.8250    0.0000 C   0  0  0  0  0  0  0  0  0  0  0  0
    2.8494    2.8876    0.0000 C   0  0  0  0  0  0  0  0  0  0  0  0
    3.5639    1.6500    0.0000 C   0  0  0  0  0  0  0  0  0  0  0  0
    3.5639    3.3001    0.0000 C   0  0  0  0  0  0  0  0  0  0  0  0
    4.2784    2.0626    0.0000 C   0  0  0  0  0  0  0  0  0  0  0  0
    4.2784    2.8876    0.0000 C   0  0  0  0  0  0  0  0  0  0  0  0
   -3.4579   -1.1025    0.0000 C   0  0  0  0  0  0  0  0  0  0  0  0
  1 22  1  0
  1 28  1  0
  2 28  2  0
  3 16  1  0
  3 20  1  0
  4 15  2  0
  5 16  2  0
  6 16  1  0
  7 15  1  0
  7 22  1  0
  8  9  1  0
  8 22  2  0
  9 28  1  0
 10  6  1  0
 10 11  1  1
 10 12  1  0
 11 15  1  0
 12 13  2  0
 12 14  1  0
 13 17  1  0
 14 18  2  0
 17 19  2  0
 18 19  1  0
 20 21  1  0
 21 23  2  0
 21 24  1  0
 23 25  1  0
 24 26  2  0
 25 27  2  0
 26 27  1  0
M  END
>  <DRUGBANK_ID>  (1) 
DB07987

>  <COMMON_NAME>  (1) 
[2-(5-Mercapto-[1,3,4]thiadiazol-2-ylcarbamoyl)-1-phenyl-ethyl]-carbamic acid benzyl ester

$$$$
