
     RDKit          2D

 14 15  0  0  0  0  0  0  0  0999 V2000
    1.1689    0.9211    0.0000 S   0  0  0  0  0  0  0  0  0  0  0  0
    0.3826    0.6684    0.0000 C   0  0  0  0  0  0  0  0  0  0  0  0
   -0.3300    1.0832    0.0000 O   0  0  0  0  0  0  0  0  0  0  0  0
   -1.0473    0.6684    0.0000 C   0  0  0  0  0  0  0  0  0  0  0  0
   -1.0473   -0.1566    0.0000 C   0  0  0  0  0  0  0  0  0  0  0  0
   -0.3300   -0.5714    0.0000 C   0  0  0  0  0  0  0  0  0  0  0  0
    0.3826   -0.1566    0.0000 C   0  0  0  0  0  0  0  0  0  0  0  0
    1.1689   -0.4140    0.0000 N   0  0  0  0  0  0  0  0  0  0  0  0
    1.6520    0.2582    0.0000 C   0  0  0  0  0  0  0  0  0  0  0  0
    2.4772    0.2582    0.0000 C   0  0  0  0  0  0  0  0  0  0  0  0
   -0.3300   -1.3964    0.0000 O   0  0  0  0  0  0  0  0  0  0  0  0
   -1.7599   -0.5714    0.0000 O   0  0  0  0  0  0  0  0  0  0  0  0
   -1.7599    1.0832    0.0000 C   0  0  0  0  0  0  0  0  0  0  0  0
   -2.4772    0.6684    0.0000 O   0  0  0  0  0  0  0  0  0  0  0  0
  1  9  1  0
  2  1  1  0
  2  7  1  0
  2  3  1  6
  4  3  1  0
  4 13  1  1
  5  4  1  0
  5 12  1  6
  6  5  1  0
  6 11  1  1
  7  6  1  0
  7  8  1  6
  8  9  2  0
  9 10  1  0
 14 13  1  0
M  END
>  <DRUGBANK_ID>  (1) 
DB03747

>  <SECONDARY_ACCESSION_NUMBERS>  (1) 
EXPT02338

>  <COMMON_NAME>  (1) 
N-Acetyl-glucosamine thiazoline

>  <CAS_NUMBER>  (1) 
179030-22-9

>  <UNII>  (1) 
ML5FHL557A

>  <SYNONYMS>  (1) 
NAG-thiazoline

$$$$
