PNF
     RDKit          2D

 27 27  0  0  0  0  0  0  0  0999 V2000
   -3.6037    0.0168    0.0000 C   0  0  0  0  0  0  0  0  0  0  0  0
   -4.3544   -0.3253    0.0000 C   0  0  0  0  0  0  0  0  0  0  0  0
   -5.0261    0.1537    0.0000 C   0  0  0  0  0  0  0  0  0  0  0  0
   -4.9471    0.9749    0.0000 C   0  0  0  0  0  0  0  0  0  0  0  0
   -4.1964    1.3171    0.0000 C   0  0  0  0  0  0  0  0  0  0  0  0
   -3.5247    0.8380    0.0000 C   0  0  0  0  0  0  0  0  0  0  0  0
   -2.1814   -0.1200    0.0000 P   0  0  0  0  0  0  0  0  0  0  0  0
   -2.9320   -0.4622    0.0000 O   0  0  0  0  0  0  0  0  0  0  0  0
   -2.5235    0.6306    0.0000 O   0  0  0  0  0  0  0  0  0  0  0  0
   -1.8392   -0.8707    0.0000 O   0  0  0  0  0  0  0  0  0  0  0  0
   -1.4307    0.2221    0.0000 C   0  0  0  0  0  0  0  0  0  0  0  0
   -0.7590   -0.2569    0.0000 C   0  0  0  0  0  0  0  0  0  0  0  0
   -0.0083    0.0853    0.0000 C   0  0  0  0  0  0  0  0  0  0  0  0
    0.6634   -0.3938    0.0000 C   0  0  0  0  0  0  0  0  0  0  0  0
    1.4141   -0.0516    0.0000 N   0  0  0  0  0  0  0  0  0  0  0  0
    0.5844   -1.2150    0.0000 O   0  0  0  0  0  0  0  0  0  0  0  0
    2.0858   -0.5307    0.0000 C   0  0  0  0  0  0  0  0  0  0  0  0
    2.8365   -0.1885    0.0000 C   0  0  0  0  0  0  0  0  0  0  0  0
    3.5081   -0.6675    0.0000 C   0  0  0  0  0  0  0  0  0  0  0  0
    4.2588   -0.3253    0.0000 C   0  0  0  0  0  0  0  0  0  0  0  0
    4.9305   -0.8044    0.0000 C   0  0  0  0  0  0  0  0  0  0  0  0
    5.6812   -0.4622    0.0000 C   0  0  0  0  0  0  0  0  0  0  0  0
    6.3529   -0.9413    0.0000 O   0  0  0  0  0  0  0  0  0  0  0  0
    5.7602    0.3590    0.0000 O   0  0  0  0  0  0  0  0  0  0  0  0
   -5.6188    1.4539    0.0000 N   0  0  0  0  0  0  0  0  0  0  0  0
   -6.3694    1.1118    0.0000 O   0  0  0  0  0  0  0  0  0  0  0  0
   -5.5397    2.2751    0.0000 O   0  0  0  0  0  0  0  0  0  0  0  0
  1  2  2  0
  1  6  1  0
  1  8  1  0
  2  3  1  0
  3  4  2  0
  4  5  1  0
  4 25  1  0
  5  6  2  0
  7  8  1  0
  7  9  1  0
  7 10  2  0
  7 11  1  0
 11 12  1  0
 12 13  1  0
 13 14  1  0
 14 15  1  0
 14 16  2  0
 15 17  1  0
 17 18  1  0
 18 19  1  0
 19 20  1  0
 20 21  1  0
 21 22  1  0
 22 23  2  0
 22 24  1  0
 25 26  2  0
 25 27  1  0
M  CHG  2  25   1  27  -1
M  END
>  <DRUGBANK_ID>  (1) 
DB08412

>  <COMMON_NAME>  (1) 
6-{4-[HYDROXY-(4-NITRO-PHENOXY)-PHOSPHORYL]-BUTYRYLAMINO}-HEXANOIC ACID

$$$$
