
     RDKit          2D

 25 26  0  0  1  0  0  0  0  0999 V2000
    1.3820   -2.0831    0.0000 C   0  0  0  0  0  0  0  0  0  0  0  0
    0.6676   -1.6706    0.0000 C   0  0  0  0  0  0  0  0  0  0  0  0
    2.0965   -1.6706    0.0000 C   0  0  0  0  0  0  0  0  0  0  0  0
    0.7575   -4.0052    0.0000 C   0  0  0  0  0  0  0  0  0  0  0  0
    0.6082   -5.4263    0.0000 C   0  0  0  0  0  0  0  0  0  0  0  0
   -0.0630   -3.9189    0.0000 C   0  0  0  0  0  0  0  0  0  0  0  0
   -0.2123   -5.3400    0.0000 C   0  0  0  0  0  0  0  0  0  0  0  0
   -0.0469   -2.0831    0.0000 C   0  0  0  0  0  0  0  0  0  0  0  0
    1.9136   -4.8451    0.0000 C   0  0  0  0  0  0  0  0  0  0  0  0
    4.2630   -3.1381    0.0000 C   0  0  0  0  0  0  0  0  0  0  0  0
    1.0931   -4.7588    0.0000 C   0  0  0  0  0  0  0  0  0  0  0  0
   -0.5479   -4.5864    0.0000 C   0  0  0  0  0  0  0  0  0  0  0  0
    2.8110   -2.0831    0.0000 C   0  0  0  0  0  0  0  0  0  0  0  0
    2.3985   -4.1776    0.0000 C   0  0  0  0  0  0  0  0  0  0  0  0
    4.8761   -3.6901    0.0000 C   0  0  0  0  0  0  0  0  0  0  0  0
    2.8110   -2.9081    0.0000 C   0  0  0  0  0  0  0  0  0  0  0  0
    3.2235   -4.1776    0.0000 C   0  0  0  0  0  0  0  0  0  0  0  0
   -0.7614   -1.6706    0.0000 N   0  0  0  0  0  0  0  0  0  0  0  0
    3.5255   -1.6706    0.0000 N   0  0  0  0  0  0  0  0  0  0  0  0
    2.1435   -3.3930    0.0000 N   0  0  0  0  0  0  0  0  0  0  0  0
    3.4784   -3.3930    0.0000 N   0  0  0  0  0  0  0  0  0  0  0  0
   -1.3684   -4.5001    0.0000 O   0  0  0  0  0  0  0  0  0  0  0  0
    5.6608   -3.4352    0.0000 O   0  0  0  0  0  0  0  0  0  0  0  0
    4.7046   -4.4971    0.0000 O   0  0  0  0  0  0  0  0  0  0  0  0
    3.7084   -4.8451    0.0000 O   0  0  0  0  0  0  0  0  0  0  0  0
  2  1  1  0
  3  1  1  0
  6  4  2  0
  7  5  1  0
  8  2  1  0
 11  4  1  0
 11  5  2  0
 11  9  1  0
 12  6  1  0
 12  7  2  0
 13  3  1  0
 13 19  1  6
 14  9  2  0
 15 10  1  0
 16 13  1  0
 17 14  1  0
 18  8  1  0
 20 14  1  0
 20 16  2  0
 21 10  1  0
 21 16  1  0
 21 17  1  0
 22 12  1  0
 23 15  2  0
 24 15  1  0
 25 17  2  0
M  END
>  <DRUGBANK_ID>  (1) 
DB04666

>  <COMMON_NAME>  (1) 
CHROMOPHORE (LYS-TYR-GLY)

$$$$
