
     RDKit          2D

 14 14  0  0  1  0  0  0  0  0999 V2000
   -0.7145    2.0625    0.0000 N   0  0  0  0  0  0  0  0  0  0  0  0
    0.0000    2.4750    0.0000 C   0  0  0  0  0  0  0  0  0  0  0  0
    0.7145    2.0625    0.0000 C   0  0  0  0  0  0  0  0  0  0  0  0
    0.7145    1.2375    0.0000 C   0  0  0  0  0  0  0  0  0  0  0  0
    1.4289    0.8250    0.0000 C   0  0  0  0  0  0  0  0  0  0  0  0
    1.4289   -0.0000    0.0000 C   0  0  0  0  0  0  0  0  0  0  0  0
    2.1434   -0.4125    0.0000 O   0  0  0  0  0  0  0  0  0  0  0  0
    0.7145   -0.4125    0.0000 C   0  0  0  0  0  0  0  0  0  0  0  0
    0.0000    0.0000    0.0000 C   0  0  0  0  0  0  0  0  0  0  0  0
    0.0000    0.8250    0.0000 C   0  0  0  0  0  0  0  0  0  0  0  0
   -0.7145    1.2375    0.0000 F   0  0  0  0  0  0  0  0  0  0  0  0
    0.0000    3.3000    0.0000 C   0  0  0  0  0  0  0  0  0  0  0  0
   -0.7145    3.7125    0.0000 O   0  0  0  0  0  0  0  0  0  0  0  0
    0.7145    3.7125    0.0000 O   0  0  0  0  0  0  0  0  0  0  0  0
  2  1  1  6
  2  3  1  0
  2 12  1  0
  3  4  1  0
  4  5  2  0
  4 10  1  0
  5  6  1  0
  6  7  1  0
  6  8  2  0
  8  9  1  0
  9 10  2  0
 10 11  1  0
 12 13  1  0
 12 14  2  0
M  ISO  1  11  18
M  END
>  <DRUGBANK_ID>  (1) 
DB17621

>  <COMMON_NAME>  (1) 
6-[18F]-Fluoro-L-m-tyrosine

>  <CAS_NUMBER>  (1) 
128592-98-3

>  <UNII>  (1) 
QKU5EC2X53

>  <SYNONYMS>  (1) 
(2s)-2-amino-3-(2-(18f)fluoranyl-5-hydroxyphenyl)propanoic acid; [18F]FMT; 2-fluoro-5-hydroxy-l-phenylalanine F-18; 6-(18f) fluoro-l-m-tyrosine; 6-[18F] Fluoro-L-M-Tyrosine; 6-[18F]-Fluoro-L-m-tyrosine; 6-[18F]Fluoro-l-m-tyrosine; 6-[18F]FMT; 6-fluoro-l-m-tyrosine F-18; L-phenylalanine, 2-fluoro-5-hydroxy-F-18

$$$$
