
     RDKit          2D

 38 42  0  0  0  0  0  0  0  0999 V2000
    0.0900    1.6169    0.0000 P   0  0  0  0  0  0  0  0  0  0  0  0
   -2.0011    0.1612    0.0000 O   0  0  0  0  0  0  0  0  0  0  0  0
    2.5019    0.8689    0.0000 O   0  0  0  0  0  0  0  0  0  0  0  0
    0.7583    2.1007    0.0000 O   0  0  0  0  0  0  0  0  0  0  0  0
   -0.5783    1.1332    0.0000 O   0  0  0  0  0  0  0  0  0  0  0  0
   -3.0375    2.0276    0.0000 O   0  0  0  0  0  0  0  0  0  0  0  0
    1.3820   -0.4406    0.0000 O   0  0  0  0  0  0  0  0  0  0  0  0
    0.5738    0.9487    0.0000 O   0  0  0  0  0  0  0  0  0  0  0  0
   -0.3937    2.2853    0.0000 O   0  0  0  0  0  0  0  0  0  0  0  0
    3.3514    3.1904    0.0000 O   0  0  0  0  0  0  0  0  0  0  0  0
   -4.5376   -3.1904    0.0000 O   0  0  0  0  0  0  0  0  0  0  0  0
   -3.0425   -0.8765    0.0000 N   0  0  0  0  0  0  0  0  0  0  0  0
    3.6460    1.7922    0.0000 N   0  0  0  0  0  0  0  0  0  0  0  0
   -4.5376   -0.7154    0.0000 N   0  0  0  0  0  0  0  0  0  0  0  0
   -3.0425   -2.2043    0.0000 N   0  0  0  0  0  0  0  0  0  0  0  0
    4.7096    2.7464    0.0000 N   0  0  0  0  0  0  0  0  0  0  0  0
   -5.2521   -1.9529    0.0000 N   0  0  0  0  0  0  0  0  0  0  0  0
   -5.9666   -0.7154    0.0000 N   0  0  0  0  0  0  0  0  0  0  0  0
    6.0679    2.3026    0.0000 N   0  0  0  0  0  0  0  0  0  0  0  0
    1.5114    1.7639    0.0000 C   0  0  0  0  0  0  0  0  0  0  0  0
   -1.9997    0.9863    0.0000 C   0  0  0  0  0  0  0  0  0  0  0  0
   -2.7838    1.2426    0.0000 C   0  0  0  0  0  0  0  0  0  0  0  0
   -2.7861   -0.0923    0.0000 C   0  0  0  0  0  0  0  0  0  0  0  0
   -3.2699    0.5760    0.0000 C   0  0  0  0  0  0  0  0  0  0  0  0
    1.6815    0.9566    0.0000 C   0  0  0  0  0  0  0  0  0  0  0  0
    2.2266    2.1751    0.0000 C   0  0  0  0  0  0  0  0  0  0  0  0
    2.8387    1.6220    0.0000 C   0  0  0  0  0  0  0  0  0  0  0  0
   -1.3314    1.4700    0.0000 C   0  0  0  0  0  0  0  0  0  0  0  0
    1.1284    0.3444    0.0000 C   0  0  0  0  0  0  0  0  0  0  0  0
   -3.8231   -1.1278    0.0000 C   0  0  0  0  0  0  0  0  0  0  0  0
   -2.5610   -1.5403    0.0000 C   0  0  0  0  0  0  0  0  0  0  0  0
   -3.8231   -1.9529    0.0000 C   0  0  0  0  0  0  0  0  0  0  0  0
    4.1970    1.1781    0.0000 C   0  0  0  0  0  0  0  0  0  0  0  0
    3.9023    2.5763    0.0000 C   0  0  0  0  0  0  0  0  0  0  0  0
    5.0042    1.3482    0.0000 C   0  0  0  0  0  0  0  0  0  0  0  0
   -4.5376   -2.3654    0.0000 C   0  0  0  0  0  0  0  0  0  0  0  0
   -5.2521   -1.1278    0.0000 C   0  0  0  0  0  0  0  0  0  0  0  0
    5.2606    2.1325    0.0000 C   0  0  0  0  0  0  0  0  0  0  0  0
  1  4  1  0
  1  5  1  0
  1  8  1  0
  1  9  2  0
  2 21  1  0
  2 23  1  0
  3 25  1  0
  3 27  1  0
  4 20  1  0
  5 28  1  0
  7 29  1  0
 10 34  2  0
 11 36  2  0
 12 30  1  0
 12 31  1  0
 13 27  1  0
 13 33  1  0
 13 34  1  0
 14 30  1  0
 14 37  1  0
 15 31  2  0
 15 32  1  0
 16 34  1  0
 16 38  2  0
 17 36  1  0
 17 37  2  0
 18 37  1  0
 19 38  1  0
 20 25  1  0
 20 26  1  0
 21 22  1  0
 21 28  1  1
 22  6  1  6
 22 24  1  0
 23 12  1  1
 23 24  1  0
 25 29  1  0
 26 27  1  0
 30 32  2  0
 32 36  1  0
 33 35  2  0
 35 38  1  0
M  END
>  <DRUGBANK_ID>  (1) 
DB03326

>  <SECONDARY_ACCESSION_NUMBERS>  (1) 
EXPT00901

>  <COMMON_NAME>  (1) 
Deoxycytidylyl-3',5'-guanosine

>  <CAS_NUMBER>  (1) 
52474-59-6

$$$$
