
     RDKit          2D

 38 42  0  0  1  0  0  0  0  0999 V2000
    4.7788    2.2253    0.0000 C   0  0  0  0  0  0  0  0  0  0  0  0
    4.0428    1.8524    0.0000 C   0  0  0  0  0  0  0  0  0  0  0  0
    3.3069    1.4796    0.0000 C   0  0  0  0  0  0  0  0  0  0  0  0
    3.2618    0.6558    0.0000 C   0  0  0  0  0  0  0  0  0  0  0  0
    3.9018    0.1351    0.0000 N   0  0  0  0  0  0  0  0  0  0  0  0
    3.6044   -0.6344    0.0000 C   0  0  0  0  0  0  0  0  0  0  0  0
    2.7806   -0.5893    0.0000 C   0  0  0  0  0  0  0  0  0  0  0  0
    2.5689    0.2080    0.0000 C   0  0  0  0  0  0  0  0  0  0  0  0
    2.6140    1.0318    0.0000 C   0  0  0  0  0  0  0  0  0  0  0  0
    2.9114    1.8013    0.0000 O   0  0  0  0  0  0  0  0  0  0  0  0
    1.8444    1.3292    0.0000 N   0  0  0  0  0  0  0  0  0  0  0  0
    1.3238    0.6893    0.0000 C   0  0  0  0  0  0  0  0  0  0  0  0
    1.7715   -0.0037    0.0000 C   0  0  0  0  0  0  0  0  0  0  0  0
    1.3953   -0.7379    0.0000 C   0  0  0  0  0  0  0  0  0  0  0  0
    0.5713   -0.7792    0.0000 C   0  0  0  0  0  0  0  0  0  0  0  0
    0.1236   -0.0862    0.0000 C   0  0  0  0  0  0  0  0  0  0  0  0
    0.4998    0.6480    0.0000 C   0  0  0  0  0  0  0  0  0  0  0  0
   -0.7004   -0.1275    0.0000 Cl  0  0  0  0  0  0  0  0  0  0  0  0
    2.2599   -1.2293    0.0000 C   0  0  0  0  0  0  0  0  0  0  0  0
    1.4454   -1.0984    0.0000 C   0  0  0  0  0  0  0  0  0  0  0  0
    0.9247   -1.7383    0.0000 C   0  0  0  0  0  0  0  0  0  0  0  0
    1.2186   -2.5092    0.0000 C   0  0  0  0  0  0  0  0  0  0  0  0
    2.0332   -2.6401    0.0000 C   0  0  0  0  0  0  0  0  0  0  0  0
    2.5538   -2.0002    0.0000 C   0  0  0  0  0  0  0  0  0  0  0  0
    0.1102   -1.6074    0.0000 Cl  0  0  0  0  0  0  0  0  0  0  0  0
    0.6214   -1.1397    0.0000 F   0  0  0  0  0  0  0  0  0  0  0  0
    4.0521   -1.3273    0.0000 C   0  0  0  0  0  0  0  0  0  0  0  0
    3.6759   -2.0615    0.0000 O   0  0  0  0  0  0  0  0  0  0  0  0
    4.8761   -1.2860    0.0000 N   0  0  0  0  0  0  0  0  0  0  0  0
    5.3238   -1.9790    0.0000 C   0  0  0  0  0  0  0  0  0  0  0  0
    6.1478   -1.9377    0.0000 C   0  0  0  0  0  0  0  0  0  0  0  0
    6.5955   -2.6306    0.0000 C   0  0  0  0  0  0  0  0  0  0  0  0
    6.2193   -3.3648    0.0000 C   0  0  0  0  0  0  0  0  0  0  0  0
    5.3953   -3.4061    0.0000 C   0  0  0  0  0  0  0  0  0  0  0  0
    4.9476   -2.7132    0.0000 C   0  0  0  0  0  0  0  0  0  0  0  0
    6.6670   -4.0577    0.0000 O   0  0  0  0  0  0  0  0  0  0  0  0
    4.4157    1.1165    0.0000 C   0  0  0  0  0  0  0  0  0  0  0  0
    3.6700    2.5884    0.0000 C   0  0  0  0  0  0  0  0  0  0  0  0
  1  2  1  0
  2  3  1  0
  2 37  1  0
  2 38  1  0
  4  3  1  6
  4  5  1  0
  4  8  1  0
  5  6  1  0
  6  7  1  0
  6 27  1  1
  7  8  1  0
  7 19  1  6
  8  9  1  6
  8 13  1  0
  9 10  2  0
  9 11  1  0
 11 12  1  0
 12 13  2  0
 12 17  1  0
 13 14  1  0
 14 15  2  0
 15 16  1  0
 16 17  2  0
 16 18  1  0
 19 20  2  0
 19 24  1  0
 20 21  1  0
 20 26  1  0
 21 22  2  0
 21 25  1  0
 22 23  1  0
 23 24  2  0
 27 28  2  0
 27 29  1  0
 30 29  1  1
 30 31  1  0
 30 35  1  0
 31 32  1  0
 32 33  1  0
 33 34  1  0
 33 36  1  6
 34 35  1  0
M  END
>  <DRUGBANK_ID>  (1) 
DB12541

>  <COMMON_NAME>  (1) 
SAR-405838

>  <CAS_NUMBER>  (1) 
1303607-60-4

>  <UNII>  (1) 
8570LZ3RCA

$$$$
