
     RDKit          2D

 24 26  0  0  0  0  0  0  0  0999 V2000
   -0.3502    0.2058    0.0000 C   0  0  0  0  0  0  0  0  0  0  0  0
    0.3646   -0.2058    0.0000 N   0  0  0  0  0  0  0  0  0  0  0  0
    1.0797    0.2058    0.0000 C   0  0  0  0  0  0  0  0  0  0  0  0
    1.0797    1.0299    0.0000 C   0  0  0  0  0  0  0  0  0  0  0  0
    0.3646    1.4418    0.0000 C   0  0  0  0  0  0  0  0  0  0  0  0
   -0.3502    1.0299    0.0000 N   0  0  0  0  0  0  0  0  0  0  0  0
    1.7947    1.4418    0.0000 Cl  0  0  0  0  0  0  0  0  0  0  0  0
    1.7947   -0.2058    0.0000 N   0  0  0  0  0  0  0  0  0  0  0  0
    2.5097    0.2058    0.0000 C   0  0  0  0  0  0  0  0  0  0  0  0
    2.5963    1.0248    0.0000 N   0  0  0  0  0  0  0  0  0  0  0  0
    3.4001    1.1969    0.0000 N   0  0  0  0  0  0  0  0  0  0  0  0
    3.8168    0.4817    0.0000 C   0  0  0  0  0  0  0  0  0  0  0  0
    3.2636   -0.1297    0.0000 C   0  0  0  0  0  0  0  0  0  0  0  0
    4.6355    0.3953    0.0000 C   0  0  0  0  0  0  0  0  0  0  0  0
   -1.0606   -0.2058    0.0000 N   0  0  0  0  0  0  0  0  0  0  0  0
   -1.7756    0.2058    0.0000 C   0  0  0  0  0  0  0  0  0  0  0  0
   -1.7756    1.0299    0.0000 C   0  0  0  0  0  0  0  0  0  0  0  0
   -2.4905   -0.2058    0.0000 C   0  0  0  0  0  0  0  0  0  0  0  0
   -2.4905   -1.0299    0.0000 N   0  0  0  0  0  0  0  0  0  0  0  0
   -3.2056   -1.4418    0.0000 C   0  0  0  0  0  0  0  0  0  0  0  0
   -3.9206   -1.0299    0.0000 C   0  0  0  0  0  0  0  0  0  0  0  0
   -3.9206   -0.2058    0.0000 C   0  0  0  0  0  0  0  0  0  0  0  0
   -3.2056    0.2059    0.0000 N   0  0  0  0  0  0  0  0  0  0  0  0
   -4.6355   -1.4418    0.0000 F   0  0  0  0  0  0  0  0  0  0  0  0
  1  2  2  0
  1  6  1  0
  1 15  1  0
  2  3  1  0
  3  4  2  0
  3  8  1  0
  4  5  1  0
  4  7  1  0
  5  6  2  0
  8  9  1  0
  9 13  1  0
 10  9  2  0
 11 10  1  0
 11 12  1  0
 12 14  1  0
 13 12  2  0
 15 16  1  0
 16 17  1  6
 16 18  1  0
 18 19  2  0
 18 23  1  0
 19 20  1  0
 20 21  2  0
 21 22  1  0
 21 24  1  0
 22 23  2  0
M  END
>  <DRUGBANK_ID>  (1) 
DB12588

>  <COMMON_NAME>  (1) 
AZD-1480

>  <CAS_NUMBER>  (1) 
935666-88-9

>  <UNII>  (1) 
KL2Z2TLF01

$$$$
