Y12
     RDKit          2D

 27 28  0  0  0  0  0  0  0  0999 V2000
   -5.2729    1.2202    0.0000 C   0  0  0  0  0  0  0  0  0  0  0  0
   -4.5584    1.6327    0.0000 C   0  0  0  0  0  0  0  0  0  0  0  0
   -3.8439    1.2202    0.0000 C   0  0  0  0  0  0  0  0  0  0  0  0
   -3.8439    0.3952    0.0000 C   0  0  0  0  0  0  0  0  0  0  0  0
   -3.1294   -0.0173    0.0000 C   0  0  0  0  0  0  0  0  0  0  0  0
   -2.4150    0.3952    0.0000 C   0  0  0  0  0  0  0  0  0  0  0  0
   -1.7005   -0.0173    0.0000 N   0  0  0  0  0  0  0  0  0  0  0  0
   -0.9860    0.3952    0.0000 C   0  0  0  0  0  0  0  0  0  0  0  0
   -0.9860    1.2202    0.0000 O   0  0  0  0  0  0  0  0  0  0  0  0
   -0.2716   -0.0173    0.0000 C   0  0  0  0  0  0  0  0  0  0  0  0
    0.4429    0.3952    0.0000 C   0  0  0  0  0  0  0  0  0  0  0  0
    1.1574   -0.0173    0.0000 C   0  0  0  0  0  0  0  0  0  0  0  0
    1.8719    0.3952    0.0000 C   0  0  0  0  0  0  0  0  0  0  0  0
    2.5863   -0.0173    0.0000 C   0  0  0  0  0  0  0  0  0  0  0  0
    3.3008    0.3952    0.0000 O   0  0  0  0  0  0  0  0  0  0  0  0
    3.3008    1.2202    0.0000 C   0  0  0  0  0  0  0  0  0  0  0  0
    2.5863    1.6327    0.0000 O   0  0  0  0  0  0  0  0  0  0  0  0
    4.0153    1.6327    0.0000 C   0  0  0  0  0  0  0  0  0  0  0  0
    2.5863   -0.8423    0.0000 C   0  0  0  0  0  0  0  0  0  0  0  0
    3.3008   -1.2548    0.0000 O   0  0  0  0  0  0  0  0  0  0  0  0
    3.3008   -2.0798    0.0000 C   0  0  0  0  0  0  0  0  0  0  0  0
    4.0153   -2.4923    0.0000 O   0  0  0  0  0  0  0  0  0  0  0  0
    2.5863   -2.4923    0.0000 C   0  0  0  0  0  0  0  0  0  0  0  0
    1.8719   -1.2548    0.0000 C   0  0  0  0  0  0  0  0  0  0  0  0
    1.1574   -0.8423    0.0000 C   0  0  0  0  0  0  0  0  0  0  0  0
   -4.5584   -0.0173    0.0000 C   0  0  0  0  0  0  0  0  0  0  0  0
   -5.2729    0.3952    0.0000 C   0  0  0  0  0  0  0  0  0  0  0  0
  1  2  2  0
  1 27  1  0
  2  3  1  0
  3  4  2  0
  4  5  1  0
  4 26  1  0
  5  6  1  0
  6  7  1  0
  7  8  1  0
  8  9  2  0
  8 10  1  0
 10 11  2  0
 11 12  1  0
 12 13  2  0
 12 25  1  0
 13 14  1  0
 14 15  1  0
 14 19  2  0
 15 16  1  0
 16 17  2  0
 16 18  1  0
 19 20  1  0
 19 24  1  0
 20 21  1  0
 21 22  2  0
 21 23  1  0
 24 25  2  0
 26 27  2  0
M  END
>  <DRUGBANK_ID>  (1) 
DB08753

>  <COMMON_NAME>  (1) 
4-{(1E)-3-OXO-3-[(2-PHENYLETHYL)AMINO]PROP-1-EN-1-YL}-1,2-PHENYLENE DIACETATE

$$$$
