W03
     RDKit          2D

 24 26  0  0  0  0  0  0  0  0999 V2000
   -3.6636    0.2838    0.0000 O   0  0  0  0  0  0  0  0  0  0  0  0
   -4.2157    0.8969    0.0000 N   0  0  0  0  0  0  0  0  0  0  0  0
   -3.8032    1.6114    0.0000 C   0  0  0  0  0  0  0  0  0  0  0  0
   -4.1387    2.3650    0.0000 C   0  0  0  0  0  0  0  0  0  0  0  0
   -2.9962    1.4398    0.0000 C   0  0  0  0  0  0  0  0  0  0  0  0
   -2.9100    0.6194    0.0000 C   0  0  0  0  0  0  0  0  0  0  0  0
   -2.1955    0.2069    0.0000 C   0  0  0  0  0  0  0  0  0  0  0  0
   -1.4810    0.6194    0.0000 C   0  0  0  0  0  0  0  0  0  0  0  0
   -0.7665    0.2069    0.0000 C   0  0  0  0  0  0  0  0  0  0  0  0
   -0.0521    0.6194    0.0000 O   0  0  0  0  0  0  0  0  0  0  0  0
    0.6624    0.2069    0.0000 C   0  0  0  0  0  0  0  0  0  0  0  0
    1.3769    0.6194    0.0000 C   0  0  0  0  0  0  0  0  0  0  0  0
    1.3769    1.4444    0.0000 C   0  0  0  0  0  0  0  0  0  0  0  0
    2.0913    0.2069    0.0000 C   0  0  0  0  0  0  0  0  0  0  0  0
    2.0913   -0.6181    0.0000 C   0  0  0  0  0  0  0  0  0  0  0  0
    1.3769   -1.0306    0.0000 C   0  0  0  0  0  0  0  0  0  0  0  0
    0.6624   -0.6181    0.0000 C   0  0  0  0  0  0  0  0  0  0  0  0
   -0.0521   -1.0306    0.0000 C   0  0  0  0  0  0  0  0  0  0  0  0
    2.8058   -1.0306    0.0000 C   0  0  0  0  0  0  0  0  0  0  0  0
    3.5595   -0.6951    0.0000 C   0  0  0  0  0  0  0  0  0  0  0  0
    2.8920   -1.8511    0.0000 N   0  0  0  0  0  0  0  0  0  0  0  0
    3.6990   -2.0226    0.0000 C   0  0  0  0  0  0  0  0  0  0  0  0
    4.0346   -2.7763    0.0000 C   0  0  0  0  0  0  0  0  0  0  0  0
    4.1115   -1.3082    0.0000 O   0  0  0  0  0  0  0  0  0  0  0  0
  1  2  1  0
  1  6  1  0
  2  3  2  0
  3  4  1  0
  3  5  1  0
  5  6  2  0
  6  7  1  0
  7  8  1  0
  8  9  1  0
  9 10  1  0
 10 11  1  0
 11 12  2  0
 11 17  1  0
 12 13  1  0
 12 14  1  0
 14 15  2  0
 15 16  1  0
 15 19  1  0
 16 17  2  0
 17 18  1  0
 19 20  2  0
 19 21  1  0
 20 24  1  0
 21 22  2  0
 22 23  1  0
 22 24  1  0
M  END
>  <DRUGBANK_ID>  (1) 
DB08715

>  <COMMON_NAME>  (1) 
2,6-DIMETHYL-1-(3-[3-METHYL-5-ISOXAZOLYL]-PROPANYL)-4-[2-METHYL-4-ISOXAZOLYL]-PHENOL

$$$$
