
     RDKit          2D

 20 22  0  0  0  0  0  0  0  0999 V2000
   -3.2448    1.6256    0.0000 C   0  0  0  0  0  0  0  0  0  0  0  0
   -2.4920    1.2881    0.0000 S   0  0  0  0  0  0  0  0  0  0  0  0
   -2.4011    0.4705    0.0000 C   0  0  0  0  0  0  0  0  0  0  0  0
   -1.6483    0.1330    0.0000 C   0  0  0  0  0  0  0  0  0  0  0  0
   -0.9344    0.5484    0.0000 N   0  0  0  0  0  0  0  0  0  0  0  0
   -0.6554   -0.7625    0.0000 C   0  0  0  0  0  0  0  0  0  0  0  0
   -0.2465   -1.4764    0.0000 O   0  0  0  0  0  0  0  0  0  0  0  0
   -1.4796   -0.6717    0.0000 C   0  0  0  0  0  0  0  0  0  0  0  0
   -2.0312   -1.2881    0.0000 O   0  0  0  0  0  0  0  0  0  0  0  0
   -0.3244   -0.0032    0.0000 C   0  0  0  0  0  0  0  0  0  0  0  0
    0.4867    0.1655    0.0000 C   0  0  0  0  0  0  0  0  0  0  0  0
    0.8242    0.9182    0.0000 C   0  0  0  0  0  0  0  0  0  0  0  0
    1.6418    0.8339    0.0000 N   0  0  0  0  0  0  0  0  0  0  0  0
    1.8171    0.0227    0.0000 C   0  0  0  0  0  0  0  0  0  0  0  0
    2.5309   -0.3861    0.0000 C   0  0  0  0  0  0  0  0  0  0  0  0
    3.2448    0.0227    0.0000 N   0  0  0  0  0  0  0  0  0  0  0  0
    2.5309   -1.2103    0.0000 N   0  0  0  0  0  0  0  0  0  0  0  0
    1.8171   -1.6256    0.0000 C   0  0  0  0  0  0  0  0  0  0  0  0
    1.0967   -1.2103    0.0000 N   0  0  0  0  0  0  0  0  0  0  0  0
    1.0967   -0.3861    0.0000 C   0  0  0  0  0  0  0  0  0  0  0  0
  1  2  1  0
  2  3  1  0
  4  3  1  1
  4  5  1  0
  4  8  1  0
  5 10  1  0
  6  7  1  6
  6  8  1  0
  6 10  1  0
  8  9  1  6
 10 11  1  1
 11 12  2  0
 11 20  1  0
 12 13  1  0
 13 14  1  0
 14 15  1  0
 14 20  2  0
 15 16  1  0
 15 17  1  0
 17 18  1  0
 18 19  2  0
 19 20  1  0
M  END
>  <DRUGBANK_ID>  (1) 
DB02158

>  <SECONDARY_ACCESSION_NUMBERS>  (1) 
EXPT02247

>  <COMMON_NAME>  (1) 
(2S,3S,4R,5S)-2-(4-Amino-4,5-dihydro-1H-pyrrolo[3,2-d]pyrimidin-7-yl)-5-[(methylsulfanyl)methyl]-3,4-pyrrolidinediol

$$$$
