
     RDKit          2D

 29 31  0  0  0  0  0  0  0  0999 V2000
    0.7447    1.2640    0.0000 N   0  0  0  0  0  0  0  0  0  0  0  0
    2.1969    1.4940    0.0000 C   0  0  0  0  0  0  0  0  0  0  0  0
    2.3683    0.6870    0.0000 O   0  0  0  0  0  0  0  0  0  0  0  0
    1.4122    1.7490    0.0000 C   0  0  0  0  0  0  0  0  0  0  0  0
    0.0773    1.7490    0.0000 C   0  0  0  0  0  0  0  0  0  0  0  0
    0.3323    2.5336    0.0000 C   0  0  0  0  0  0  0  0  0  0  0  0
    1.1573    2.5336    0.0000 C   0  0  0  0  0  0  0  0  0  0  0  0
    2.8099    2.0460    0.0000 O   0  0  0  0  0  0  0  0  0  0  0  0
    0.7650    0.4385    0.0000 C   0  0  0  0  0  0  0  0  0  0  0  0
    0.0541    0.0201    0.0000 C   0  0  0  0  0  0  0  0  0  0  0  0
    1.4965    0.0323    0.0000 O   0  0  0  0  0  0  0  0  0  0  0  0
    0.0541   -0.8412    0.0000 C   0  0  0  0  0  0  0  0  0  0  0  0
   -0.6771    0.4264    0.0000 C   0  0  0  0  0  0  0  0  0  0  0  0
   -0.6568   -1.2596    0.0000 S   0  0  0  0  0  0  0  0  0  0  0  0
   -0.6364   -2.0844    0.0000 C   0  0  0  0  0  0  0  0  0  0  0  0
   -1.3677   -2.5394    0.0000 C   0  0  0  0  0  0  0  0  0  0  0  0
    0.0948   -2.4907    0.0000 O   0  0  0  0  0  0  0  0  0  0  0  0
   -2.0990   -2.1332    0.0000 C   0  0  0  0  0  0  0  0  0  0  0  0
   -2.8099   -2.5517    0.0000 C   0  0  0  0  0  0  0  0  0  0  0  0
   -2.7897   -3.3764    0.0000 C   0  0  0  0  0  0  0  0  0  0  0  0
   -2.0583   -3.7827    0.0000 C   0  0  0  0  0  0  0  0  0  0  0  0
   -1.3474   -3.3642    0.0000 C   0  0  0  0  0  0  0  0  0  0  0  0
   -0.1524    3.2012    0.0000 S   0  0  0  0  0  0  0  0  0  0  0  0
   -0.9729    3.1151    0.0000 C   0  0  0  0  0  0  0  0  0  0  0  0
   -1.4577    3.7827    0.0000 C   0  0  0  0  0  0  0  0  0  0  0  0
   -1.3086    2.3615    0.0000 C   0  0  0  0  0  0  0  0  0  0  0  0
   -2.2782    3.6966    0.0000 C   0  0  0  0  0  0  0  0  0  0  0  0
   -2.1291    2.2755    0.0000 C   0  0  0  0  0  0  0  0  0  0  0  0
   -2.6139    2.9430    0.0000 C   0  0  0  0  0  0  0  0  0  0  0  0
  1  5  1  0
  1  9  1  0
  2  3  2  0
  4  2  1  1
  4  1  1  0
  4  7  1  0
  5  6  1  0
  6  7  1  0
  6 23  1  1
  8  2  1  0
  9 10  1  0
  9 11  2  0
 10 12  1  0
 10 13  1  1
 12 14  1  0
 14 15  1  0
 15 16  1  0
 15 17  2  0
 16 18  2  0
 16 22  1  0
 18 19  1  0
 19 20  2  0
 20 21  1  0
 21 22  2  0
 23 24  1  0
 25 24  2  0
 26 24  1  0
 27 25  1  0
 28 26  2  0
 29 27  2  0
 29 28  1  0
M  END
>  <DRUGBANK_ID>  (1) 
DB13166

>  <COMMON_NAME>  (1) 
Zofenopril

>  <CAS_NUMBER>  (1) 
81872-10-8

>  <UNII>  (1) 
290ZY759PI

>  <SYNONYMS>  (1) 
Zofenil; Zof√©nopril; Zofenopril; Zofenoprilum

$$$$
