
     RDKit          2D

 25 26  0  0  0  0  0  0  0  0999 V2000
    1.8137    1.9673    0.0000 C   0  0  0  0  0  0  0  0  0  0  0  0
    1.0992   -3.3952    0.0000 C   0  0  0  0  0  0  0  0  0  0  0  0
   -2.4732    0.3173    0.0000 C   0  0  0  0  0  0  0  0  0  0  0  0
   -2.4732   -0.5077    0.0000 C   0  0  0  0  0  0  0  0  0  0  0  0
    1.8137    2.7923    0.0000 C   0  0  0  0  0  0  0  0  0  0  0  0
    1.8137   -2.9827    0.0000 C   0  0  0  0  0  0  0  0  0  0  0  0
    1.0992    1.5548    0.0000 C   0  0  0  0  0  0  0  0  0  0  0  0
    0.3847   -2.9827    0.0000 C   0  0  0  0  0  0  0  0  0  0  0  0
   -1.7587    0.7298    0.0000 C   0  0  0  0  0  0  0  0  0  0  0  0
   -1.7587   -0.9202    0.0000 C   0  0  0  0  0  0  0  0  0  0  0  0
    1.0992    3.2048    0.0000 C   0  0  0  0  0  0  0  0  0  0  0  0
    1.8137   -2.1577    0.0000 C   0  0  0  0  0  0  0  0  0  0  0  0
   -0.3298    1.5548    0.0000 C   0  0  0  0  0  0  0  0  0  0  0  0
   -0.3298   -1.7452    0.0000 C   0  0  0  0  0  0  0  0  0  0  0  0
    0.3847    1.9673    0.0000 C   0  0  0  0  0  0  0  0  0  0  0  0
    0.3847   -2.1577    0.0000 C   0  0  0  0  0  0  0  0  0  0  0  0
   -1.0442    0.3173    0.0000 C   0  0  0  0  0  0  0  0  0  0  0  0
   -1.0442   -0.5077    0.0000 C   0  0  0  0  0  0  0  0  0  0  0  0
    0.3847    2.7923    0.0000 C   0  0  0  0  0  0  0  0  0  0  0  0
    1.0992   -1.7452    0.0000 C   0  0  0  0  0  0  0  0  0  0  0  0
   -0.3298    0.7298    0.0000 N   0  0  0  0  0  0  0  0  0  0  0  0
   -0.3298   -0.9202    0.0000 N   0  0  0  0  0  0  0  0  0  0  0  0
   -0.3298    3.2048    0.0000 O   0  0  0  0  0  0  0  0  0  0  0  0
    1.0992   -0.9202    0.0000 O   0  0  0  0  0  0  0  0  0  0  0  0
    4.1708    0.0000    0.0000 Fe  0  0  0  0  0 15  0  0  0  0  0  0
  4  3  2  0
  5  1  2  0
  6  2  2  0
  7  1  1  0
  8  2  1  0
  9  3  1  0
 10  4  1  0
 11  5  1  0
 12  6  1  0
 15  7  2  0
 15 13  1  0
 16  8  2  0
 16 14  1  0
 17  9  2  0
 18 10  2  0
 18 17  1  0
 19 11  2  0
 19 15  1  0
 20 12  2  0
 20 16  1  0
 21 13  2  0
 21 17  1  0
 22 14  2  0
 22 18  1  0
 23 19  1  0
 24 20  1  0
M  CHG  3  23  -1  24  -1  25   4
M  END
>  <DRUGBANK_ID>  (1) 
DB04811

>  <COMMON_NAME>  (1) 
Salophen iron chelate

$$$$
