
     RDKit          2D

 16 16  0  0  1  0  0  0  0  0999 V2000
   -0.7145    2.0625    0.0000 N   0  0  0  0  0  0  0  0  0  0  0  0
    0.0000    2.4750    0.0000 C   0  0  0  0  0  0  0  0  0  0  0  0
    0.7145    2.0625    0.0000 C   0  0  0  0  0  0  0  0  0  0  0  0
    0.7145    1.2375    0.0000 C   0  0  0  0  0  0  0  0  0  0  0  0
    1.4289    0.8250    0.0000 C   0  0  0  0  0  0  0  0  0  0  0  0
    1.4289   -0.0000    0.0000 C   0  0  0  0  0  0  0  0  0  0  0  0
    0.7145   -0.4125    0.0000 C   0  0  0  0  0  0  0  0  0  0  0  0
    0.7145   -1.2375    0.0000 O   0  0  0  0  0  0  0  0  0  0  0  0
   -0.0000   -1.6500    0.0000 C   0  0  0  0  0  0  0  0  0  0  0  0
   -0.0000   -2.4750    0.0000 C   0  0  0  0  0  0  0  0  0  0  0  0
   -0.7145   -2.8875    0.0000 F   0  0  0  0  0  0  0  0  0  0  0  0
    0.0000    0.0000    0.0000 C   0  0  0  0  0  0  0  0  0  0  0  0
    0.0000    0.8250    0.0000 C   0  0  0  0  0  0  0  0  0  0  0  0
    0.0000    3.3000    0.0000 C   0  0  0  0  0  0  0  0  0  0  0  0
   -0.7145    3.7125    0.0000 O   0  0  0  0  0  0  0  0  0  0  0  0
    0.7145    3.7125    0.0000 O   0  0  0  0  0  0  0  0  0  0  0  0
  2  1  1  6
  2  3  1  0
  2 14  1  0
  3  4  1  0
  4  5  2  0
  4 13  1  0
  5  6  1  0
  6  7  2  0
  7  8  1  0
  7 12  1  0
  8  9  1  0
  9 10  1  0
 10 11  1  0
 12 13  2  0
 14 15  1  0
 14 16  2  0
M  ISO  1  11  18
M  END
>  <DRUGBANK_ID>  (1) 
DB15405

>  <COMMON_NAME>  (1) 
FET F-18

>  <CAS_NUMBER>  (1) 
178433-03-9

>  <UNII>  (1) 
1326R5J1IA

>  <SYNONYMS>  (1) 
18F-FET; FLUOROETHYL-L-TYROSINE (18F); O-(2-FLUOROETHYL)-L-TYROSINE F-18; O-18F-fluoroethyl-L-tyrosine

$$$$
