
     RDKit          2D

 10 10  0  0  0  0  0  0  0  0999 V2000
   -0.3434    0.6160    0.0000 C   0  0  0  0  0  0  0  0  0  0  0  0
    0.3743    0.1963    0.0000 C   0  0  0  0  0  0  0  0  0  0  0  0
   -1.0595    0.1963    0.0000 C   0  0  0  0  0  0  0  0  0  0  0  0
   -0.3434    1.4194    0.0000 C   0  0  0  0  0  0  0  0  0  0  0  0
    0.3743   -0.6287    0.0000 C   0  0  0  0  0  0  0  0  0  0  0  0
   -1.0595   -0.6287    0.0000 C   0  0  0  0  0  0  0  0  0  0  0  0
    0.3561    1.8155    0.0000 C   0  0  0  0  0  0  0  0  0  0  0  0
   -0.3434   -1.0450    0.0000 C   0  0  0  0  0  0  0  0  0  0  0  0
    1.0595    1.4194    0.0000 O   0  0  0  0  0  0  0  0  0  0  0  0
   -0.3434   -1.8155    0.0000 O   0  0  0  0  0  0  0  0  0  0  0  0
  1  2  2  0
  1  3  1  0
  1  4  1  0
  2  5  1  0
  3  6  2  0
  4  7  1  0
  5  8  2  0
  6  8  1  0
  7  9  1  0
  8 10  1  0
M  END
>  <DRUGBANK_ID>  (1) 
DB16855

>  <COMMON_NAME>  (1) 
Tyrosol

>  <CAS_NUMBER>  (1) 
501-94-0

>  <UNII>  (1) 
1AK4MU3SNX

>  <SYNONYMS>  (1) 
4-Hydroxyphenethyl alcohol; 4-Hydroxyphenylethanol; p-Tyrosol

$$$$
