
     RDKit          2D

 19 19  0  0  0  0  0  0  0  0999 V2000
   -0.3159   -0.2060    0.0000 C   0  0  0  0  0  0  0  0  0  0  0  0
   -1.0304    0.2063    0.0000 C   0  0  0  0  0  0  0  0  0  0  0  0
    0.3984    0.2065    0.0000 C   0  0  0  0  0  0  0  0  0  0  0  0
   -0.3158   -1.0310    0.0000 C   0  0  0  0  0  0  0  0  0  0  0  0
   -1.7449   -0.2062    0.0000 C   0  0  0  0  0  0  0  0  0  0  0  0
    1.1130   -0.2059    0.0000 C   0  0  0  0  0  0  0  0  0  0  0  0
    0.3984    1.0315    0.0000 O   0  0  0  0  0  0  0  0  0  0  0  0
   -1.0302   -1.4437    0.0000 C   0  0  0  0  0  0  0  0  0  0  0  0
   -1.7448   -1.0312    0.0000 C   0  0  0  0  0  0  0  0  0  0  0  0
   -2.4594    0.2062    0.0000 N   0  0  0  0  0  0  0  0  0  0  0  0
    1.8274    0.2066    0.0000 N   0  0  0  0  0  0  0  0  0  0  0  0
   -2.4592   -1.4438    0.0000 O   0  0  0  0  0  0  0  0  0  0  0  0
   -2.4595    1.0312    0.0000 C   0  0  0  0  0  0  0  0  0  0  0  0
    2.5420   -0.2057    0.0000 C   0  0  0  0  0  0  0  0  0  0  0  0
   -3.1740    1.4436    0.0000 N   0  0  0  0  0  0  0  0  0  0  0  0
   -1.7450    1.4438    0.0000 O   0  0  0  0  0  0  0  0  0  0  0  0
    3.1253    0.3776    0.0000 C   0  0  0  0  0  0  0  0  0  0  0  0
    3.1740   -0.7360    0.0000 C   0  0  0  0  0  0  0  0  0  0  0  0
    2.0688   -0.8816    0.0000 C   0  0  0  0  0  0  0  0  0  0  0  0
  1  2  2  0
  1  3  1  0
  1  4  1  0
  2  5  1  0
  3  6  1  0
  3  7  1  0
  4  8  2  0
  5  9  2  0
  5 10  1  0
  6 11  1  0
  8  9  1  0
  9 12  1  0
 10 13  1  0
 11 14  1  0
 13 15  1  0
 13 16  2  0
 14 17  1  0
 14 18  1  0
 14 19  1  0
M  END
>  <DRUGBANK_ID>  (1) 
DB13625

>  <COMMON_NAME>  (1) 
Carbuterol

>  <CAS_NUMBER>  (1) 
34866-47-2

>  <UNII>  (1) 
0N12JR32MR

>  <SYNONYMS>  (1) 
Carbuterol; Carbuterolum

$$$$
