
     RDKit          2D

 31 35  0  0  1  0  0  0  0  0999 V2000
   20.9613  -28.7386    0.0000 C   0  0  0  0  0  0  0  0  0  0  0  0
   20.9613  -29.5636    0.0000 C   0  0  0  0  0  0  0  0  0  0  0  0
   21.6626  -29.9761    0.0000 C   0  0  0  0  0  0  0  0  0  0  0  0
   22.3638  -29.5636    0.0000 C   0  0  0  0  0  0  0  0  0  0  0  0
   22.3638  -28.7386    0.0000 C   0  0  0  0  0  0  0  0  0  0  0  0
   21.6626  -28.3673    0.0000 C   0  0  0  0  0  0  0  0  0  0  0  0
   23.0651  -29.9761    0.0000 C   0  0  0  0  0  0  0  0  0  0  0  0
   23.8076  -29.5636    0.0000 C   0  0  0  0  0  0  0  0  0  0  0  0
   23.8076  -28.7386    0.0000 C   0  0  0  0  0  0  0  0  0  0  0  0
   23.0651  -28.3673    0.0000 C   0  0  0  0  0  0  0  0  0  0  0  0
   24.5088  -28.3673    0.0000 C   0  0  0  0  0  0  0  0  0  0  0  0
   24.5088  -27.5423    0.0000 C   0  0  0  0  0  0  0  0  0  0  0  0
   23.8076  -27.1298    0.0000 C   0  0  0  0  0  0  0  0  0  0  0  0
   23.0651  -27.5423    0.0000 C   0  0  0  0  0  0  0  0  0  0  0  0
   22.3638  -27.9548    0.0000 C   0  0  0  0  0  0  0  0  0  0  0  0
   22.3638  -27.1298    0.0000 O   0  0  0  0  0  0  0  0  0  0  0  0
   24.5088  -26.7173    0.0000 C   0  0  0  0  0  0  0  0  0  0  0  0
   23.0651  -29.1511    0.0000 F   0  0  0  0  0  0  0  0  0  0  0  0
   20.2601  -29.9761    0.0000 O   0  0  0  0  0  0  0  0  0  0  0  0
   25.9378  -28.3673    0.0000 C   0  0  0  0  0  0  0  0  0  0  0  0
   25.9378  -27.5423    0.0000 C   0  0  0  0  0  0  0  0  0  0  0  0
   25.2233  -27.1298    0.0000 C   0  0  0  0  0  0  0  0  0  0  0  0
   25.2233  -26.2225    0.0000 C   0  0  0  0  0  0  0  0  0  0  0  0
   24.4989  -25.8041    0.0000 C   0  0  0  0  0  0  0  0  0  0  0  0
   25.9278  -25.8156    0.0000 O   0  0  0  0  0  0  0  0  0  0  0  0
   23.7894  -26.2137    0.0000 Cl  0  0  0  0  0  0  0  0  0  0  0  0
   25.9277  -26.7230    0.0000 O   0  0  0  0  0  0  0  0  0  0  0  0
   26.7189  -27.2367    0.0000 O   0  0  0  0  0  0  0  0  0  0  0  0
   26.7527  -26.7230    0.0000 C   0  0  0  0  0  0  0  0  0  0  0  0
   26.7527  -25.8980    0.0000 C   0  0  0  0  0  0  0  0  0  0  0  0
   27.5777  -26.7230    0.0000 C   0  0  0  0  0  0  0  0  0  0  0  0
  1  2  1  0
  1  6  1  0
  2  3  1  0
  2 19  2  0
  3  4  2  0
  4  5  1  0
  4  7  1  0
  5  6  1  0
  5 10  1  0
  5 15  1  1
  7  8  1  0
  9  8  1  6
  9 10  1  0
  9 11  1  0
 10 14  1  0
 10 18  1  6
 11 12  1  0
 11 20  1  1
 12 13  1  0
 12 17  1  1
 12 22  1  0
 13 14  1  0
 14 16  1  1
 21 20  1  6
 21 22  1  0
 21 28  1  0
 22 23  1  1
 22 27  1  0
 23 24  1  0
 23 25  2  0
 24 26  1  0
 27 29  1  0
 29 28  1  0
 29 30  1  0
 29 31  1  0
M  END
>  <DRUGBANK_ID>  (1) 
DB06786

>  <COMMON_NAME>  (1) 
Halcinonide

>  <CAS_NUMBER>  (1) 
3093-35-4

>  <UNII>  (1) 
SI86V6QNEG

>  <SYNONYMS>  (1) 
(4aS,4bR,5S,6aS,6bS,9aR,10aS,10bS)-6b-(chloroacetyl)-4b-fluoro-5-hydroxy-4a,6a,8,8-tetramethyl-3,4,4a,4b,5,6,6a,6b,9a,10,10a,10b,11,12-tetradecahydro-2H-naphtho[2',1':4,5]indeno[1,2-d][1,3]dioxol-2-one; Halcinonid; Halcinonida; Halcinonide; Halcinonidum

$$$$
