
     RDKit          2D

 31 34  0  0  1  0  0  0  0  0999 V2000
    2.1587    2.5708    0.0000 O   0  0  0  0  0  0  0  0  0  0  0  0
    4.8165   -0.8250    0.0000 O   0  0  0  0  0  0  0  0  0  0  0  0
    3.3875    0.8250    0.0000 N   0  0  0  0  0  0  0  0  0  0  0  0
    5.5310    0.4125    0.0000 N   0  0  0  0  0  0  0  0  0  0  0  0
    3.3013    1.6455    0.0000 C   0  0  0  0  0  0  0  0  0  0  0  0
    2.6339    0.4895    0.0000 C   0  0  0  0  0  0  0  0  0  0  0  0
    2.4943    1.8170    0.0000 C   0  0  0  0  0  0  0  0  0  0  0  0
    2.0818    1.1026    0.0000 C   0  0  0  0  0  0  0  0  0  0  0  0
    4.1020    0.4125    0.0000 C   0  0  0  0  0  0  0  0  0  0  0  0
    4.8165    0.8250    0.0000 C   0  0  0  0  0  0  0  0  0  0  0  0
    4.8165    1.6500    0.0000 C   0  0  0  0  0  0  0  0  0  0  0  0
    5.5310   -0.4125    0.0000 C   0  0  0  0  0  0  0  0  0  0  0  0
    6.2455   -0.8250    0.0000 C   0  0  0  0  0  0  0  0  0  0  0  0
    6.2455    0.8250    0.0000 C   0  0  0  0  0  0  0  0  0  0  0  0
    4.1020    2.0625    0.0000 C   0  0  0  0  0  0  0  0  0  0  0  0
    5.5310    2.0625    0.0000 C   0  0  0  0  0  0  0  0  0  0  0  0
    6.2455   -1.6500    0.0000 C   0  0  0  0  0  0  0  0  0  0  0  0
    6.9599   -0.4125    0.0000 C   0  0  0  0  0  0  0  0  0  0  0  0
    4.1020    2.8876    0.0000 C   0  0  0  0  0  0  0  0  0  0  0  0
    5.5310    2.8876    0.0000 C   0  0  0  0  0  0  0  0  0  0  0  0
    4.8165    3.3001    0.0000 C   0  0  0  0  0  0  0  0  0  0  0  0
    6.9599   -2.0625    0.0000 C   0  0  0  0  0  0  0  0  0  0  0  0
    6.9599    0.4125    0.0000 C   0  0  0  0  0  0  0  0  0  0  0  0
    5.5310   -2.0625    0.0000 C   0  0  0  0  0  0  0  0  0  0  0  0
    7.6745   -0.8250    0.0000 C   0  0  0  0  0  0  0  0  0  0  0  0
    6.9599   -2.8876    0.0000 C   0  0  0  0  0  0  0  0  0  0  0  0
    7.6745    0.8250    0.0000 C   0  0  0  0  0  0  0  0  0  0  0  0
    5.5310   -2.8876    0.0000 C   0  0  0  0  0  0  0  0  0  0  0  0
    8.3889   -0.4125    0.0000 C   0  0  0  0  0  0  0  0  0  0  0  0
    6.2455   -3.3001    0.0000 C   0  0  0  0  0  0  0  0  0  0  0  0
    8.3889    0.4125    0.0000 C   0  0  0  0  0  0  0  0  0  0  0  0
  2 12  2  0
  3  5  1  0
  3  6  1  0
  3  9  1  0
  4 12  1  0
  4 14  1  0
  5  7  1  0
  6  8  1  0
  7  1  1  6
  7  8  1  0
 10  9  1  6
 10  4  1  0
 10 11  1  0
 11 15  2  0
 11 16  1  0
 12 13  1  0
 13 17  1  0
 13 18  1  0
 15 19  1  0
 16 20  2  0
 17 22  2  0
 17 24  1  0
 18 23  2  0
 18 25  1  0
 19 21  2  0
 20 21  1  0
 22 26  1  0
 23 27  1  0
 24 28  2  0
 25 29  2  0
 26 30  2  0
 27 31  2  0
 28 30  1  0
 29 31  1  0
M  END
>  <DRUGBANK_ID>  (1) 
DB05104

>  <COMMON_NAME>  (1) 
Asimadoline

>  <CAS_NUMBER>  (1) 
153205-46-0

>  <UNII>  (1) 
D0VK52NV5M

>  <SYNONYMS>  (1) 
Asimadoline

$$$$
