
     RDKit          2D

 28 31  0  0  1  0  0  0  0  0999 V2000
   12.1249   -7.6292    0.0000 C   0  0  0  0  0  0  0  0  0  0  0  0
   12.1249   -8.4368    0.0000 C   0  0  0  0  0  0  0  0  0  0  0  0
   10.6963   -8.4368    0.0000 C   0  0  0  0  0  0  0  0  0  0  0  0
   11.4261   -8.8327    0.0000 C   0  0  0  0  0  0  0  0  0  0  0  0
    9.9820   -8.8327    0.0000 C   0  0  0  0  0  0  0  0  0  0  0  0
   12.9091   -7.3730    0.0000 C   0  0  0  0  0  0  0  0  0  0  0  0
   11.4261   -7.2100    0.0000 C   0  0  0  0  0  0  0  0  0  0  0  0
   10.6963   -7.6292    0.0000 C   0  0  0  0  0  0  0  0  0  0  0  0
   12.9091   -8.6930    0.0000 C   0  0  0  0  0  0  0  0  0  0  0  0
   13.3750   -8.0408    0.0000 C   0  0  0  0  0  0  0  0  0  0  0  0
   11.4261   -9.6712    0.0000 C   0  0  0  0  0  0  0  0  0  0  0  0
    9.9820   -9.6712    0.0000 C   0  0  0  0  0  0  0  0  0  0  0  0
   10.6963  -10.0827    0.0000 C   0  0  0  0  0  0  0  0  0  0  0  0
   12.9091   -6.5268    0.0000 C   0  0  0  0  0  0  0  0  0  0  0  0
   12.1249   -6.7829    0.0000 C   0  0  0  0  0  0  0  0  0  0  0  0
    9.9820   -8.0252    0.0000 C   0  0  0  0  0  0  0  0  0  0  0  0
    9.2832   -8.4368    0.0000 C   0  0  0  0  0  0  0  0  0  0  0  0
   14.3454   -6.5034    0.0000 C   0  0  0  0  0  0  0  0  0  0  0  0
   13.6390   -6.0997    0.0000 C   0  0  0  0  0  0  0  0  0  0  0  0
    9.2832  -10.0827    0.0000 C   0  0  0  0  0  0  0  0  0  0  0  0
   12.1560   -5.8815    0.0000 C   0  0  0  0  0  0  0  0  0  0  0  0
   15.0520   -6.0764    0.0000 C   0  0  0  0  0  0  0  0  0  0  0  0
    8.5612   -8.8395    0.0000 C   0  0  0  0  0  0  0  0  0  0  0  0
    8.5612   -9.6644    0.0000 C   0  0  0  0  0  0  0  0  0  0  0  0
   15.7802   -6.6071    0.0000 O   0  0  0  0  0  0  0  0  0  0  0  0
   15.1752   -5.3559    0.0000 O   0  0  0  0  0  0  0  0  0  0  0  0
    7.9818   -9.9500    0.0000 O   0  0  0  0  0  0  0  0  0  0  0  0
   11.9976   -9.8804    0.0000 O   0  0  0  0  0  0  0  0  0  0  0  0
  1 15  1  1
  2  1  1  0
  4  2  1  0
  4  3  1  0
  5  3  1  0
  5 16  1  1
  6  1  1  0
  7  1  1  0
  3  8  1  1
  8  7  1  0
  2  9  1  1
  6 10  1  1
 10  9  1  0
  4 11  1  6
 11 28  1  6
 12  5  1  0
 13 11  1  0
 12 13  1  6
 14  6  1  0
 14 21  1  6
 17  5  1  0
 19 14  1  0
 19 18  1  0
 20 12  1  0
 22 18  1  0
 23 17  1  0
 24 20  1  0
 24 23  1  0
 24 27  1  6
 25 22  2  0
 26 22  1  0
M  END
>  <DRUGBANK_ID>  (1) 
DB06777

>  <COMMON_NAME>  (1) 
Chenodeoxycholic acid

>  <CAS_NUMBER>  (1) 
474-25-9

>  <UNII>  (1) 
0GEI24LG0J

>  <SYNONYMS>  (1) 
3alpha,7alpha-Dihydroxy-5beta-cholanic acid; 7Î±-hydroxylithocholic acid; Acide chenodeoxycholique; Acido chenodeoxicholico; Acidum chenodeoxycholicum; Anthropodeoxycholic acid; Anthropodesoxycholic acid; CDCA; Chenic acid; Chenocholic acid; Chenodeoxycholate; Chenodeoxycholic acid; Chenodesoxycholic acid; Chenodiol; Gallodesoxycholic acid

$$$$
