SHY
     RDKit          2D

 33 38  0  0  0  0  0  0  0  0999 V2000
   -3.3396    1.3160    0.0000 N   0  0  0  0  0  0  0  0  0  0  0  0
   -2.7265    1.8680    0.0000 C   0  0  0  0  0  0  0  0  0  0  0  0
   -2.8980    2.6750    0.0000 N   0  0  0  0  0  0  0  0  0  0  0  0
   -1.9419    1.6130    0.0000 C   0  0  0  0  0  0  0  0  0  0  0  0
   -1.3288    2.1651    0.0000 C   0  0  0  0  0  0  0  0  0  0  0  0
   -0.5442    1.9101    0.0000 C   0  0  0  0  0  0  0  0  0  0  0  0
   -0.3726    1.1032    0.0000 C   0  0  0  0  0  0  0  0  0  0  0  0
   -0.9857    0.5511    0.0000 C   0  0  0  0  0  0  0  0  0  0  0  0
   -1.7703    0.8061    0.0000 C   0  0  0  0  0  0  0  0  0  0  0  0
    0.4120    0.8482    0.0000 C   0  0  0  0  0  0  0  0  0  0  0  0
    1.0794    1.3332    0.0000 N   0  0  0  0  0  0  0  0  0  0  0  0
    1.3344    2.1178    0.0000 C   0  0  0  0  0  0  0  0  0  0  0  0
    2.1594    2.1178    0.0000 C   0  0  0  0  0  0  0  0  0  0  0  0
    2.4143    1.3332    0.0000 C   0  0  0  0  0  0  0  0  0  0  0  0
    1.7469    0.8482    0.0000 C   0  0  0  0  0  0  0  0  0  0  0  0
    1.4919    0.0636    0.0000 C   0  0  0  0  0  0  0  0  0  0  0  0
    1.7469   -0.7210    0.0000 C   0  0  0  0  0  0  0  0  0  0  0  0
    1.0794   -1.2059    0.0000 N   0  0  0  0  0  0  0  0  0  0  0  0
    0.4120   -0.7210    0.0000 C   0  0  0  0  0  0  0  0  0  0  0  0
   -0.3726   -0.9759    0.0000 O   0  0  0  0  0  0  0  0  0  0  0  0
    0.6669    0.0636    0.0000 C   0  0  0  0  0  0  0  0  0  0  0  0
    1.0794   -2.0309    0.0000 C   0  0  0  0  0  0  0  0  0  0  0  0
    0.3650   -2.4434    0.0000 C   0  0  0  0  0  0  0  0  0  0  0  0
    0.3650   -3.2684    0.0000 C   0  0  0  0  0  0  0  0  0  0  0  0
   -0.3495   -3.6809    0.0000 C   0  0  0  0  0  0  0  0  0  0  0  0
   -1.0640   -3.2684    0.0000 C   0  0  0  0  0  0  0  0  0  0  0  0
   -1.8486   -3.5234    0.0000 O   0  0  0  0  0  0  0  0  0  0  0  0
   -2.3335   -2.8559    0.0000 C   0  0  0  0  0  0  0  0  0  0  0  0
    2.6443    2.7852    0.0000 O   0  0  0  0  0  0  0  0  0  0  0  0
   -1.8486   -2.1885    0.0000 O   0  0  0  0  0  0  0  0  0  0  0  0
   -1.0640   -2.4434    0.0000 C   0  0  0  0  0  0  0  0  0  0  0  0
   -0.3495   -2.0309    0.0000 C   0  0  0  0  0  0  0  0  0  0  0  0
    2.5315   -0.9759    0.0000 O   0  0  0  0  0  0  0  0  0  0  0  0
  1  2  2  0
  2  3  1  0
  2  4  1  0
  4  5  2  0
  4  9  1  0
  5  6  1  0
  6  7  2  0
  7  8  1  0
  8  9  2  0
 10  7  1  6
 10 11  1  0
 10 21  1  0
 11 12  1  0
 11 15  1  0
 12 13  1  0
 13 14  1  0
 13 29  1  6
 15 14  1  1
 15 16  1  0
 16 17  1  6
 16 21  1  0
 17 18  1  0
 17 33  2  0
 18 19  1  0
 18 22  1  0
 19 20  2  0
 21 19  1  6
 22 23  1  0
 23 24  2  0
 23 32  1  0
 24 25  1  0
 25 26  2  0
 26 27  1  0
 26 31  1  0
 27 28  1  0
 28 30  1  0
 30 31  1  0
 31 32  2  0
M  END
>  <DRUGBANK_ID>  (1) 
DB08546

>  <COMMON_NAME>  (1) 
4-[(3AS,4R,7R,8AS,8BR)-2-(1,3-BENZODIOXOL-5-YLMETHYL)-7-HYDROXY-1,3-DIOXODECAHYDROPYRROLO[3,4-A]PYRROLIZIN-4-YL]BENZENECARBOXIMIDAMIDE

$$$$
