742
     RDKit          2D

 25 24  0  0  0  0  0  0  0  0999 V2000
   -4.9769   -0.1104    0.0000 C   0  0  0  0  0  0  0  0  0  0  0  0
   -4.2448   -0.4908    0.0000 C   0  0  0  0  0  0  0  0  0  0  0  0
   -3.5492   -0.0470    0.0000 C   0  0  0  0  0  0  0  0  0  0  0  0
   -2.8172   -0.4274    0.0000 C   0  0  0  0  0  0  0  0  0  0  0  0
   -2.1216    0.0164    0.0000 C   0  0  0  0  0  0  0  0  0  0  0  0
   -1.3895   -0.3640    0.0000 C   0  0  0  0  0  0  0  0  0  0  0  0
   -0.6940    0.0798    0.0000 C   0  0  0  0  0  0  0  0  0  0  0  0
    0.0381   -0.3006    0.0000 C   0  0  0  0  0  0  0  0  0  0  0  0
    0.7336    0.1432    0.0000 C   0  0  0  0  0  0  0  0  0  0  0  0
    1.4657   -0.2372    0.0000 C   0  0  0  0  0  0  0  0  0  0  0  0
    2.1612    0.2066    0.0000 C   0  0  0  0  0  0  0  0  0  0  0  0
    2.8934   -0.1738    0.0000 C   0  0  0  0  0  0  0  0  0  0  0  0
    3.5888    0.2700    0.0000 P   0  0  0  0  0  0  0  0  0  0  0  0
    3.1450    0.9655    0.0000 C   0  0  0  0  0  0  0  0  0  0  0  0
    4.0327   -0.4255    0.0000 C   0  0  0  0  0  0  0  0  0  0  0  0
    4.2844    0.7138    0.0000 C   0  0  0  0  0  0  0  0  0  0  0  0
    5.0165    0.3334    0.0000 C   0  0  0  0  0  0  0  0  0  0  0  0
    5.7120    0.7772    0.0000 P   0  0  0  0  0  0  0  0  0  0  0  0
    6.4075    1.2211    0.0000 O   0  0  0  0  0  0  0  0  0  0  0  0
    5.2681    1.4727    0.0000 O   0  0  0  0  0  0  0  0  0  0  0  0
    6.1558    0.0817    0.0000 O   0  0  0  0  0  0  0  0  0  0  0  0
    5.0531   -0.4908    0.0000 P   0  0  0  0  0  0  0  0  0  0  0  0
    4.2805   -0.7803    0.0000 O   0  0  0  0  0  0  0  0  0  0  0  0
    5.8774   -0.4542    0.0000 O   0  0  0  0  0  0  0  0  0  0  0  0
    5.0897   -1.3151    0.0000 O   0  0  0  0  0  0  0  0  0  0  0  0
  1  2  1  0
  2  3  1  0
  3  4  1  0
  4  5  1  0
  5  6  1  0
  6  7  1  0
  7  8  1  0
  8  9  1  0
  9 10  1  0
 10 11  1  0
 11 12  1  0
 12 13  1  0
 13 16  1  0
 13 15  1  0
 13 14  1  0
 16 17  1  0
 17 18  1  0
 17 22  1  0
 18 19  1  0
 18 21  2  0
 18 20  1  0
 22 23  2  0
 22 24  1  0
 22 25  1  0
M  CHG  1  13   1
M  END
>  <DRUGBANK_ID>  (1) 
DB07221

>  <COMMON_NAME>  (1) 
(2,2-DIPHOSPHONOETHYL)(DODECYL)DIMETHYLPHOSPHONIUM

$$$$
