IHU
     RDKit          2D

 23 24  0  0  0  0  0  0  0  0999 V2000
   -2.2887   -1.5923    0.0000 C   0  0  0  0  0  0  0  0  0  0  0  0
   -1.5742   -1.1798    0.0000 O   0  0  0  0  0  0  0  0  0  0  0  0
   -1.5742   -0.3548    0.0000 C   0  0  0  0  0  0  0  0  0  0  0  0
   -2.2887    0.0577    0.0000 C   0  0  0  0  0  0  0  0  0  0  0  0
   -2.2887    0.8827    0.0000 C   0  0  0  0  0  0  0  0  0  0  0  0
   -1.5742    1.2952    0.0000 C   0  0  0  0  0  0  0  0  0  0  0  0
   -1.5742    2.1202    0.0000 O   0  0  0  0  0  0  0  0  0  0  0  0
   -0.8598    0.8827    0.0000 C   0  0  0  0  0  0  0  0  0  0  0  0
   -0.8598    0.0577    0.0000 C   0  0  0  0  0  0  0  0  0  0  0  0
   -0.1453   -0.3548    0.0000 N   0  0  0  0  0  0  0  0  0  0  0  0
    0.5692    0.0577    0.0000 C   0  0  0  0  0  0  0  0  0  0  0  0
    0.5692    0.8827    0.0000 O   0  0  0  0  0  0  0  0  0  0  0  0
    1.2836   -0.3548    0.0000 N   0  0  0  0  0  0  0  0  0  0  0  0
    1.9981    0.0577    0.0000 C   0  0  0  0  0  0  0  0  0  0  0  0
    1.9981    0.8827    0.0000 O   0  0  0  0  0  0  0  0  0  0  0  0
    2.7126   -0.3548    0.0000 C   0  0  0  0  0  0  0  0  0  0  0  0
    3.4271    0.0577    0.0000 C   0  0  0  0  0  0  0  0  0  0  0  0
    4.1415   -0.3548    0.0000 C   0  0  0  0  0  0  0  0  0  0  0  0
    4.1415   -1.1798    0.0000 C   0  0  0  0  0  0  0  0  0  0  0  0
    4.8560   -1.5923    0.0000 F   0  0  0  0  0  0  0  0  0  0  0  0
    3.4271   -1.5923    0.0000 C   0  0  0  0  0  0  0  0  0  0  0  0
    2.7126   -1.1798    0.0000 C   0  0  0  0  0  0  0  0  0  0  0  0
    1.9981   -1.5923    0.0000 Cl  0  0  0  0  0  0  0  0  0  0  0  0
  1  2  1  0
  2  3  1  0
  3  4  2  0
  3  9  1  0
  4  5  1  0
  5  6  2  0
  6  7  1  0
  6  8  1  0
  8  9  2  0
  9 10  1  0
 10 11  1  0
 11 12  2  0
 11 13  1  0
 13 14  1  0
 14 15  2  0
 14 16  1  0
 16 17  2  0
 16 22  1  0
 17 18  1  0
 18 19  2  0
 19 20  1  0
 19 21  1  0
 21 22  2  0
 22 23  1  0
M  END
>  <DRUGBANK_ID>  (1) 
DB07968

>  <COMMON_NAME>  (1) 
N-(2-CHLORO-4-FLUOROBENZOYL)-N'-(5-HYDROXY-2-METHOXYPHENYL)UREA

$$$$
