
     RDKit          2D

 27 27  0  0  0  0  0  0  0  0999 V2000
   -2.1433   -0.8250    0.0000 S   0  0  0  0  0  0  0  0  0  0  0  0
    0.0000    1.2375    0.0000 O   0  0  0  0  0  0  0  0  0  0  0  0
   -0.7144    1.6500    0.0000 O   0  0  0  0  0  0  0  0  0  0  0  0
    3.5723    0.0000    0.0000 O   0  0  0  0  0  0  0  0  0  0  0  0
    2.8578    1.2375    0.0000 O   0  0  0  0  0  0  0  0  0  0  0  0
   -2.8579    3.7125    0.0000 O   0  0  0  0  0  0  0  0  0  0  0  0
   -3.5723    2.4750    0.0000 O   0  0  0  0  0  0  0  0  0  0  0  0
   -0.7144    0.0000    0.0000 N   0  0  0  0  0  0  0  0  0  0  0  0
   -2.1433    1.6500    0.0000 N   0  0  0  0  0  0  0  0  0  0  0  0
    2.1433   -0.8250    0.0000 N   0  0  0  0  0  0  0  0  0  0  0  0
   -1.4289    0.4125    0.0000 C   0  0  0  0  0  0  0  0  0  0  0  0
    1.4289    0.4125    0.0000 C   0  0  0  0  0  0  0  0  0  0  0  0
    0.7144    0.0000    0.0000 C   0  0  0  0  0  0  0  0  0  0  0  0
   -2.1433    0.0000    0.0000 C   0  0  0  0  0  0  0  0  0  0  0  0
    2.1433    0.0000    0.0000 C   0  0  0  0  0  0  0  0  0  0  0  0
    0.0000    0.4125    0.0000 C   0  0  0  0  0  0  0  0  0  0  0  0
   -1.4289    1.2375    0.0000 C   0  0  0  0  0  0  0  0  0  0  0  0
   -2.8579   -1.2375    0.0000 C   0  0  0  0  0  0  0  0  0  0  0  0
    2.8578    0.4125    0.0000 C   0  0  0  0  0  0  0  0  0  0  0  0
   -2.8579   -2.0625    0.0000 C   0  0  0  0  0  0  0  0  0  0  0  0
   -2.1433    2.4750    0.0000 C   0  0  0  0  0  0  0  0  0  0  0  0
   -2.1433   -2.4750    0.0000 C   0  0  0  0  0  0  0  0  0  0  0  0
   -3.5723   -2.4750    0.0000 C   0  0  0  0  0  0  0  0  0  0  0  0
   -2.1433   -3.3000    0.0000 C   0  0  0  0  0  0  0  0  0  0  0  0
   -3.5723   -3.3000    0.0000 C   0  0  0  0  0  0  0  0  0  0  0  0
   -2.8579    2.8875    0.0000 C   0  0  0  0  0  0  0  0  0  0  0  0
   -2.8579   -3.7125    0.0000 C   0  0  0  0  0  0  0  0  0  0  0  0
  1 14  1  0
  1 18  1  0
  2 16  2  0
  3 17  2  0
  4 19  1  0
  5 19  2  0
  6 26  1  0
  7 26  2  0
  8 16  1  0
  9 17  1  0
  9 21  1  0
 11  8  1  0
 11 14  1  1
 11 17  1  0
 12 13  1  0
 12 15  1  0
 13 16  1  0
 15 10  1  1
 15 19  1  0
 18 20  1  0
 20 22  2  0
 20 23  1  0
 21 26  1  0
 22 24  1  0
 23 25  2  0
 24 27  2  0
 25 27  1  0
M  END
>  <DRUGBANK_ID>  (1) 
DB03602

>  <SECONDARY_ACCESSION_NUMBERS>  (1) 
EXPT01647

>  <COMMON_NAME>  (1) 
S-benzylglutathione

>  <SYNONYMS>  (1) 
S-benzyl-glutathione

$$$$
