
     RDKit          2D

 31 33  0  0  1  0  0  0  0  0999 V2000
    0.1536    1.3672    0.0000 C   0  0  0  0  0  0  0  0  0  0  0  0
   -0.3984    0.7541    0.0000 C   0  0  0  0  0  0  0  0  0  0  0  0
   -1.2054    0.9256    0.0000 C   0  0  0  0  0  0  0  0  0  0  0  0
   -1.4604    1.7103    0.0000 C   0  0  0  0  0  0  0  0  0  0  0  0
   -2.2673    1.8818    0.0000 C   0  0  0  0  0  0  0  0  0  0  0  0
   -2.0958    2.6888    0.0000 C   0  0  0  0  0  0  0  0  0  0  0  0
   -3.0743    2.0533    0.0000 C   0  0  0  0  0  0  0  0  0  0  0  0
   -3.3292    2.8379    0.0000 C   0  0  0  0  0  0  0  0  0  0  0  0
   -3.6263    1.4402    0.0000 C   0  0  0  0  0  0  0  0  0  0  0  0
   -2.4389    1.0748    0.0000 O   0  0  0  0  0  0  0  0  0  0  0  0
   -0.1435   -0.0305    0.0000 C   0  0  0  0  0  0  0  0  0  0  0  0
   -0.6284   -0.6979    0.0000 C   0  0  0  0  0  0  0  0  0  0  0  0
   -0.1435   -1.3654    0.0000 C   0  0  0  0  0  0  0  0  0  0  0  0
    0.6411   -1.1104    0.0000 C   0  0  0  0  0  0  0  0  0  0  0  0
    0.6411   -0.2854    0.0000 C   0  0  0  0  0  0  0  0  0  0  0  0
    1.3556    0.1271    0.0000 C   0  0  0  0  0  0  0  0  0  0  0  0
    2.0701   -0.2854    0.0000 C   0  0  0  0  0  0  0  0  0  0  0  0
    2.0701   -1.1104    0.0000 C   0  0  0  0  0  0  0  0  0  0  0  0
    1.3556   -1.5229    0.0000 C   0  0  0  0  0  0  0  0  0  0  0  0
    1.3556   -2.3479    0.0000 C   0  0  0  0  0  0  0  0  0  0  0  0
    2.0701   -2.7604    0.0000 C   0  0  0  0  0  0  0  0  0  0  0  0
    2.0701   -3.5854    0.0000 C   0  0  0  0  0  0  0  0  0  0  0  0
    2.7845   -3.9979    0.0000 C   0  0  0  0  0  0  0  0  0  0  0  0
    2.7845   -4.8229    0.0000 C   0  0  0  0  0  0  0  0  0  0  0  0
    2.0701   -5.2354    0.0000 C   0  0  0  0  0  0  0  0  0  0  0  0
    1.3556   -4.8229    0.0000 C   0  0  0  0  0  0  0  0  0  0  0  0
    1.3556   -3.9979    0.0000 C   0  0  0  0  0  0  0  0  0  0  0  0
    0.6411   -3.5854    0.0000 C   0  0  0  0  0  0  0  0  0  0  0  0
    0.6411   -5.2354    0.0000 O   0  0  0  0  0  0  0  0  0  0  0  0
    3.4990   -5.2354    0.0000 O   0  0  0  0  0  0  0  0  0  0  0  0
    0.5549    0.5350    0.0000 C   0  0  0  0  0  0  0  0  0  0  0  0
  2  1  1  1
  2  3  1  0
  3  4  2  0
  5  4  1  0
  5  6  1  6
  5  7  1  0
  5 10  1  0
  7  8  1  0
  7  9  1  0
 11  2  1  0
 11 12  1  6
 11 15  1  0
 12 13  1  0
 14 13  1  6
 14 19  1  0
 15 14  1  0
 15 16  1  0
 15 31  1  6
 16 17  1  0
 17 18  1  0
 18 19  1  0
 19 20  2  0
 20 21  1  0
 21 22  2  0
 22 23  1  0
 22 27  1  0
 24 23  1  0
 24 25  1  0
 24 30  1  1
 26 25  1  0
 26 27  1  0
 26 29  1  6
 27 28  2  0
M  END
>  <DRUGBANK_ID>  (1) 
DB06117

>  <COMMON_NAME>  (1) 
1alpha,24S-Dihydroxyvitamin D2

>  <CAS_NUMBER>  (1) 
156316-85-7

>  <UNII>  (1) 
2900I92Z36

$$$$
