
     RDKit          2D

 27 29  0  0  0  0  0  0  0  0999 V2000
    2.8579   -4.1250    0.0000 C   0  0  0  0  0  0  0  0  0  0  0  0
    2.8579   -4.9500    0.0000 N   0  0  0  0  0  0  0  0  0  0  0  0
    2.1904   -5.4349    0.0000 C   0  0  0  0  0  0  0  0  0  0  0  0
    2.4454   -6.2195    0.0000 C   0  0  0  0  0  0  0  0  0  0  0  0
    3.2704   -6.2195    0.0000 C   0  0  0  0  0  0  0  0  0  0  0  0
    3.5253   -5.4349    0.0000 N   0  0  0  0  0  0  0  0  0  0  0  0
    1.9605   -6.8870    0.0000 Br  0  0  0  0  0  0  0  0  0  0  0  0
    1.4058   -5.1800    0.0000 C   0  0  0  0  0  0  0  0  0  0  0  0
    0.7927   -5.7320    0.0000 C   0  0  0  0  0  0  0  0  0  0  0  0
    0.0081   -5.4771    0.0000 C   0  0  0  0  0  0  0  0  0  0  0  0
   -0.1634   -4.6701    0.0000 C   0  0  0  0  0  0  0  0  0  0  0  0
    0.4497   -4.1181    0.0000 C   0  0  0  0  0  0  0  0  0  0  0  0
    1.2343   -4.3730    0.0000 C   0  0  0  0  0  0  0  0  0  0  0  0
    1.8474   -3.8210    0.0000 O   0  0  0  0  0  0  0  0  0  0  0  0
    1.6759   -3.0140    0.0000 C   0  0  0  0  0  0  0  0  0  0  0  0
   -0.6050   -6.0291    0.0000 N   0  0  0  0  0  0  0  0  0  0  0  0
   -1.3896   -5.7742    0.0000 C   0  0  0  0  0  0  0  0  0  0  0  0
   -1.5611   -4.9672    0.0000 O   0  0  0  0  0  0  0  0  0  0  0  0
   -2.0027   -6.3262    0.0000 N   0  0  0  0  0  0  0  0  0  0  0  0
   -2.7873   -6.0713    0.0000 C   0  0  0  0  0  0  0  0  0  0  0  0
   -3.4004   -6.6233    0.0000 C   0  0  0  0  0  0  0  0  0  0  0  0
   -4.1850   -6.3684    0.0000 C   0  0  0  0  0  0  0  0  0  0  0  0
   -4.3566   -5.5614    0.0000 C   0  0  0  0  0  0  0  0  0  0  0  0
   -3.7435   -5.0094    0.0000 C   0  0  0  0  0  0  0  0  0  0  0  0
   -2.9589   -5.2643    0.0000 C   0  0  0  0  0  0  0  0  0  0  0  0
   -2.3458   -4.7123    0.0000 F   0  0  0  0  0  0  0  0  0  0  0  0
   -5.1412   -5.3064    0.0000 F   0  0  0  0  0  0  0  0  0  0  0  0
  1  2  1  0
  2  3  1  0
  2  6  1  0
  3  4  2  0
  3  8  1  0
  4  5  1  0
  4  7  1  0
  5  6  2  0
  8  9  2  0
  8 13  1  0
  9 10  1  0
 10 11  2  0
 10 16  1  0
 11 12  1  0
 12 13  2  0
 13 14  1  0
 14 15  1  0
 16 17  1  0
 17 18  2  0
 17 19  1  0
 19 20  1  0
 20 21  2  0
 20 25  1  0
 21 22  1  0
 22 23  2  0
 23 24  1  0
 23 27  1  0
 24 25  2  0
 25 26  1  0
M  END
>  <DRUGBANK_ID>  (1) 
DB12555

>  <SECONDARY_ACCESSION_NUMBERS>  (1) 
DB05026

>  <COMMON_NAME>  (1) 
Nelotanserin

>  <CAS_NUMBER>  (1) 
839713-36-9

>  <UNII>  (1) 
4ZA73QEW2P

>  <SYNONYMS>  (1) 
Nelotanserin

$$$$
