INV
     RDKit          2D

 21 22  0  0  0  0  0  0  0  0999 V2000
    0.6722   -0.6036    0.0000 C   0  0  0  0  0  0  0  0  0  0  0  0
    1.3867   -1.0161    0.0000 C   0  0  0  0  0  0  0  0  0  0  0  0
    1.3867   -1.8411    0.0000 C   0  0  0  0  0  0  0  0  0  0  0  0
    0.6722   -2.2536    0.0000 C   0  0  0  0  0  0  0  0  0  0  0  0
   -0.0422   -1.8411    0.0000 C   0  0  0  0  0  0  0  0  0  0  0  0
   -0.0422   -1.0161    0.0000 C   0  0  0  0  0  0  0  0  0  0  0  0
   -0.7567   -0.6036    0.0000 C   0  0  0  0  0  0  0  0  0  0  0  0
   -1.4712   -1.0161    0.0000 O   0  0  0  0  0  0  0  0  0  0  0  0
   -0.7567    0.2214    0.0000 N   0  0  0  0  0  0  0  0  0  0  0  0
   -1.4712    0.6339    0.0000 C   0  0  0  0  0  0  0  0  0  0  0  0
    2.1012   -2.2536    0.0000 S   0  0  0  0  0  0  0  0  0  0  0  0
    2.8157   -2.6661    0.0000 N   0  0  0  0  0  0  0  0  0  0  0  0
    2.5137   -1.5391    0.0000 O   0  0  0  0  0  0  0  0  0  0  0  0
    1.6887   -2.9680    0.0000 O   0  0  0  0  0  0  0  0  0  0  0  0
   -1.4712    1.4589    0.0000 C   0  0  0  0  0  0  0  0  0  0  0  0
   -2.1856    1.8714    0.0000 C   0  0  0  0  0  0  0  0  0  0  0  0
   -2.1856    2.6964    0.0000 C   0  0  0  0  0  0  0  0  0  0  0  0
   -1.4712    3.1089    0.0000 C   0  0  0  0  0  0  0  0  0  0  0  0
   -0.7567    2.6964    0.0000 C   0  0  0  0  0  0  0  0  0  0  0  0
   -0.7567    1.8714    0.0000 C   0  0  0  0  0  0  0  0  0  0  0  0
   -1.4712    3.9339    0.0000 F   0  0  0  0  0  0  0  0  0  0  0  0
  1  2  2  0
  1  6  1  0
  2  3  1  0
  3  4  2  0
  3 11  1  0
  4  5  1  0
  5  6  2  0
  6  7  1  0
  7  8  2  0
  7  9  1  0
  9 10  1  0
 10 15  1  0
 11 12  1  0
 11 13  2  0
 11 14  2  0
 15 16  2  0
 15 20  1  0
 16 17  1  0
 17 18  2  0
 18 19  1  0
 18 21  1  0
 19 20  2  0
M  END
>  <DRUGBANK_ID>  (1) 
DB02429

>  <SECONDARY_ACCESSION_NUMBERS>  (1) 
EXPT01895

>  <COMMON_NAME>  (1) 
4-(Aminosulfonyl)-N-[(4-Fluorophenyl)Methyl]-Benzamide

$$$$
