
     RDKit          2D

 39 42  0  0  1  0  0  0  0  0999 V2000
   17.1582    4.2327    0.0000 O   0  0  0  0  0  0  0  0  0  0  0  0
   11.6718    0.6788    0.0000 O   0  0  0  0  0  0  0  0  0  0  0  0
   10.9622    1.9191    0.0000 O   0  0  0  0  0  0  0  0  0  0  0  0
   16.1212    2.3721    0.0000 C   0  0  0  0  0  0  0  0  0  0  0  0
   16.1212    3.1971    0.0000 C   0  0  0  0  0  0  0  0  0  0  0  0
   15.4068    1.9596    0.0000 C   0  0  0  0  0  0  0  0  0  0  0  0
   14.6922    2.3721    0.0000 C   0  0  0  0  0  0  0  0  0  0  0  0
   15.4068    3.6096    0.0000 C   0  0  0  0  0  0  0  0  0  0  0  0
   16.9019    2.1206    0.0000 C   0  0  0  0  0  0  0  0  0  0  0  0
   14.6922    3.1971    0.0000 C   0  0  0  0  0  0  0  0  0  0  0  0
   15.4200    1.1002    0.0000 C   0  0  0  0  0  0  0  0  0  0  0  0
   16.9019    3.4485    0.0000 C   0  0  0  0  0  0  0  0  0  0  0  0
   17.3833    2.7846    0.0000 C   0  0  0  0  0  0  0  0  0  0  0  0
   16.1212    4.0221    0.0000 C   0  0  0  0  0  0  0  0  0  0  0  0
   13.9414    1.9539    0.0000 C   0  0  0  0  0  0  0  0  0  0  0  0
   14.6791    0.6649    0.0000 C   0  0  0  0  0  0  0  0  0  0  0  0
   13.9348    1.0945    0.0000 C   0  0  0  0  0  0  0  0  0  0  0  0
   13.1768    2.4193    0.0000 C   0  0  0  0  0  0  0  0  0  0  0  0
   13.1631    0.6410    0.0000 C   0  0  0  0  0  0  0  0  0  0  0  0
   12.3948    1.9837    0.0000 C   0  0  0  0  0  0  0  0  0  0  0  0
   12.3879    1.0886    0.0000 C   0  0  0  0  0  0  0  0  0  0  0  0
   10.9589    1.0941    0.0000 C   0  0  0  0  0  0  0  0  0  0  0  0
   10.2429    0.6844    0.0000 C   0  0  0  0  0  0  0  0  0  0  0  0
    9.5300    1.0996    0.0000 C   0  0  0  0  0  0  0  0  0  0  0  0
    8.8139    0.6899    0.0000 C   0  0  0  0  0  0  0  0  0  0  0  0
    8.1010    1.1051    0.0000 C   0  0  0  0  0  0  0  0  0  0  0  0
    7.3850    0.6953    0.0000 C   0  0  0  0  0  0  0  0  0  0  0  0
    6.6721    1.1106    0.0000 C   0  0  0  0  0  0  0  0  0  0  0  0
    5.9560    0.7009    0.0000 C   0  0  0  0  0  0  0  0  0  0  0  0
    3.8046   -1.3534    0.0000 C   0  0  0  0  0  0  0  0  0  0  0  0
    3.0885   -1.7631    0.0000 C   0  0  0  0  0  0  0  0  0  0  0  0
    3.8078   -0.5284    0.0000 C   0  0  0  0  0  0  0  0  0  0  0  0
    3.0853   -2.5882    0.0000 C   0  0  0  0  0  0  0  0  0  0  0  0
    4.5238   -0.1186    0.0000 C   0  0  0  0  0  0  0  0  0  0  0  0
    5.2431    1.1162    0.0000 C   0  0  0  0  0  0  0  0  0  0  0  0
    2.3693   -2.9979    0.0000 C   0  0  0  0  0  0  0  0  0  0  0  0
    4.5270    0.7064    0.0000 C   0  0  0  0  0  0  0  0  0  0  0  0
    2.3661   -3.8229    0.0000 C   0  0  0  0  0  0  0  0  0  0  0  0
    1.6500   -4.2327    0.0000 C   0  0  0  0  0  0  0  0  0  0  0  0
  1 12  2  0
  2 21  1  0
  2 22  1  0
  3 22  2  0
  4  5  1  0
  4  6  1  0
  4  9  1  1
  5  8  1  0
  5 12  1  0
  5 14  1  1
  6  7  1  0
  6 11  1  6
  7 10  1  1
  7 15  1  0
  8 10  1  0
  9 13  1  0
 11 16  1  0
 12 13  1  0
 15 17  2  0
 15 18  1  0
 16 17  1  0
 17 19  1  0
 18 20  2  0
 19 21  2  0
 20 21  1  0
 22 23  1  0
 23 24  1  0
 24 25  1  0
 25 26  1  0
 26 27  1  0
 27 28  1  0
 28 29  1  0
 29 35  1  0
 30 31  1  0
 30 32  1  0
 31 33  1  0
 32 34  1  0
 33 36  1  0
 34 37  1  0
 35 37  2  0
 36 38  1  0
 38 39  1  0
M  END
>  <DRUGBANK_ID>  (1) 
DB04870

>  <COMMON_NAME>  (1) 
Oleoyl-estrone

>  <CAS_NUMBER>  (1) 
180003-17-2

>  <UNII>  (1) 
64R56KMG1Z

>  <SYNONYMS>  (1) 
Estrone 3-oleate; Estrone monooleate; Estrone oleic acid ester; OE; Oleoyl estrone; Oleoylestrone

$$$$
