
     RDKit          2D

 31 35  0  0  0  0  0  0  0  0999 V2000
    6.7063    5.8305    0.0000 C   0  0  0  0  0  0  0  0  0  0  0  0
    6.1919    5.1855    0.0000 C   0  0  0  0  0  0  0  0  0  0  0  0
    6.4933    4.4175    0.0000 C   0  0  0  0  0  0  0  0  0  0  0  0
    5.9790    3.7725    0.0000 C   0  0  0  0  0  0  0  0  0  0  0  0
    6.2804    3.0045    0.0000 C   0  0  0  0  0  0  0  0  0  0  0  0
    7.0961    2.8815    0.0000 N   0  0  0  0  0  0  0  0  0  0  0  0
    7.6105    3.5266    0.0000 C   0  0  0  0  0  0  0  0  0  0  0  0
    8.4263    3.4036    0.0000 C   0  0  0  0  0  0  0  0  0  0  0  0
    8.3034    2.5878    0.0000 N   0  0  0  0  0  0  0  0  0  0  0  0
    8.5493    4.2194    0.0000 C   0  0  0  0  0  0  0  0  0  0  0  0
    9.3651    4.0964    0.0000 O   0  0  0  0  0  0  0  0  0  0  0  0
    9.2421    3.2806    0.0000 C   0  0  0  0  0  0  0  0  0  0  0  0
    5.7660    2.3595    0.0000 N   0  0  0  0  0  0  0  0  0  0  0  0
    4.9502    2.4825    0.0000 C   0  0  0  0  0  0  0  0  0  0  0  0
    4.6488    3.2504    0.0000 N   0  0  0  0  0  0  0  0  0  0  0  0
    5.1632    3.8954    0.0000 C   0  0  0  0  0  0  0  0  0  0  0  0
    4.8618    4.6634    0.0000 C   0  0  0  0  0  0  0  0  0  0  0  0
    5.3761    5.3084    0.0000 C   0  0  0  0  0  0  0  0  0  0  0  0
    4.4358    1.8374    0.0000 N   0  0  0  0  0  0  0  0  0  0  0  0
    4.7938    1.0941    0.0000 C   0  0  0  0  0  0  0  0  0  0  0  0
    4.4358    0.3508    0.0000 C   0  0  0  0  0  0  0  0  0  0  0  0
    3.6315    0.1673    0.0000 S   0  0  0  0  0  0  0  0  0  0  0  0
    3.9895   -0.5760    0.0000 O   0  0  0  0  0  0  0  0  0  0  0  0
    2.9865   -0.3471    0.0000 O   0  0  0  0  0  0  0  0  0  0  0  0
    2.9865    0.6816    0.0000 C   0  0  0  0  0  0  0  0  0  0  0  0
    2.2720    0.2691    0.0000 C   0  0  0  0  0  0  0  0  0  0  0  0
    1.5575    0.6816    0.0000 C   0  0  0  0  0  0  0  0  0  0  0  0
    1.5575    1.5066    0.0000 C   0  0  0  0  0  0  0  0  0  0  0  0
    2.2720    1.9191    0.0000 C   0  0  0  0  0  0  0  0  0  0  0  0
    2.9865    1.5066    0.0000 C   0  0  0  0  0  0  0  0  0  0  0  0
    3.6315    2.0210    0.0000 C   0  0  0  0  0  0  0  0  0  0  0  0
  1  2  1  0
  2  3  2  0
  2 18  1  0
  3  4  1  0
  4  5  2  0
  4 16  1  0
  5  6  1  0
  5 13  1  0
  6  7  1  0
  7  8  1  0
  8  9  1  0
  8 10  1  0
  8 12  1  0
 10 11  1  0
 11 12  1  0
 13 14  2  0
 14 15  1  0
 14 19  1  0
 15 16  2  0
 16 17  1  0
 17 18  2  0
 19 20  1  0
 19 31  1  0
 20 21  1  0
 21 22  1  0
 22 23  2  0
 22 24  2  0
 22 25  1  0
 25 26  1  0
 25 30  2  0
 26 27  2  0
 27 28  1  0
 28 29  2  0
 29 30  1  0
 30 31  1  0
M  END
>  <DRUGBANK_ID>  (1) 
DB15145

>  <COMMON_NAME>  (1) 
Ziresovir

>  <CAS_NUMBER>  (1) 
1422500-60-4

>  <UNII>  (1) 
XCF42D7AG4

>  <SYNONYMS>  (1) 
Ziresovir

$$$$
