
     RDKit          2D

 24 29  0  0  1  0  0  0  0  0999 V2000
   -3.3227   -0.4302    0.0000 C   0  0  0  0  0  0  0  0  0  0  0  0
   -3.3227   -1.2552    0.0000 C   0  0  0  0  0  0  0  0  0  0  0  0
   -2.6083   -1.6677    0.0000 C   0  0  0  0  0  0  0  0  0  0  0  0
   -1.8938   -1.2552    0.0000 C   0  0  0  0  0  0  0  0  0  0  0  0
   -1.8938   -0.4302    0.0000 C   0  0  0  0  0  0  0  0  0  0  0  0
   -2.6083   -0.0177    0.0000 C   0  0  0  0  0  0  0  0  0  0  0  0
   -1.1091   -1.5101    0.0000 N   0  0  0  0  0  0  0  0  0  0  0  0
   -0.6242   -0.8427    0.0000 C   0  0  0  0  0  0  0  0  0  0  0  0
   -1.1091   -0.1753    0.0000 C   0  0  0  0  0  0  0  0  0  0  0  0
    0.1962   -0.7565    0.0000 C   0  0  0  0  0  0  0  0  0  0  0  0
    0.5317   -0.0028    0.0000 N   0  0  0  0  0  0  0  0  0  0  0  0
    0.0468    0.6645    0.0000 C   0  0  0  0  0  0  0  0  0  0  0  0
   -0.7736    0.5783    0.0000 C   0  0  0  0  0  0  0  0  0  0  0  0
    0.9498   -1.0920    0.0000 C   0  0  0  0  0  0  0  0  0  0  0  0
    1.2854   -0.3383    0.0000 C   0  0  0  0  0  0  0  0  0  0  0  0
    2.0747   -0.2034    0.0000 C   0  0  0  0  0  0  0  0  0  0  0  0
    1.3210    0.1320    0.0000 C   0  0  0  0  0  0  0  0  0  0  0  0
    2.8997   -0.2034    0.0000 C   0  0  0  0  0  0  0  0  0  0  0  0
    0.5151    1.7688    0.0000 C   0  0  0  0  0  0  0  0  0  0  0  0
    2.0592    0.5485    0.0000 O   0  0  0  0  0  0  0  0  0  0  0  0
   -1.0679    1.7634    0.0000 C   0  0  0  0  0  0  0  0  0  0  0  0
   -1.1091   -2.3351    0.0000 C   0  0  0  0  0  0  0  0  0  0  0  0
   -1.6827    2.3351    0.0000 O   0  0  0  0  0  0  0  0  0  0  0  0
    3.3227   -0.9359    0.0000 C   0  0  0  0  0  0  0  0  0  0  0  0
  1  2  2  0
  1  6  1  0
  2  3  1  0
  3  4  2  0
  4  5  1  0
  4  7  1  0
  5  6  2  0
  8  7  1  6
  7 22  1  0
  8  9  1  0
  8 10  1  0
  9  5  1  6
  9 13  1  0
  9 21  1  0
 10 11  1  0
 10 14  1  1
 11 12  1  0
 11 17  1  0
 12 13  1  1
 12 19  1  0
 15 14  1  6
 15 16  1  0
 15 19  1  0
 16 17  1  0
 16 18  1  1
 17 20  1  6
 18 24  1  0
 21 19  1  0
 21 23  1  6
M  END
>  <DRUGBANK_ID>  (1) 
DB01426

>  <COMMON_NAME>  (1) 
Ajmaline

>  <CAS_NUMBER>  (1) 
4360-12-7

>  <UNII>  (1) 
1PON08459R

>  <SYNONYMS>  (1) 
(+)-Ajmaline; (5aR,6S,8S,10S,11S,11aS,12aR,13R)-5-methyl-5a,6,8,9,10,11,11a,12-octahydro-5H-6,10:11,12a-dimethanoindolo[3,2-b]quinolizine-8,13-diol; Ajmalin; Ajmaline

$$$$
