SDN
     RDKit          2D

 21 23  0  0  0  0  0  0  0  0999 V2000
    2.0309   -1.6668    0.0000 O   0  0  0  0  0  0  0  0  0  0  0  0
    2.0309   -0.8418    0.0000 C   0  0  0  0  0  0  0  0  0  0  0  0
    1.3164   -0.4293    0.0000 C   0  0  0  0  0  0  0  0  0  0  0  0
    0.6020   -0.8418    0.0000 C   0  0  0  0  0  0  0  0  0  0  0  0
    0.6020   -1.6668    0.0000 O   0  0  0  0  0  0  0  0  0  0  0  0
   -0.1125   -0.4293    0.0000 C   0  0  0  0  0  0  0  0  0  0  0  0
   -0.8270   -0.8418    0.0000 C   0  0  0  0  0  0  0  0  0  0  0  0
   -1.5414   -0.4293    0.0000 O   0  0  0  0  0  0  0  0  0  0  0  0
   -0.8270   -1.6668    0.0000 C   0  0  0  0  0  0  0  0  0  0  0  0
    2.7454   -0.4293    0.0000 C   0  0  0  0  0  0  0  0  0  0  0  0
    2.7454    0.3957    0.0000 C   0  0  0  0  0  0  0  0  0  0  0  0
    2.0309    0.8082    0.0000 C   0  0  0  0  0  0  0  0  0  0  0  0
    1.3164    0.3957    0.0000 C   0  0  0  0  0  0  0  0  0  0  0  0
    0.6020    0.8082    0.0000 C   0  0  0  0  0  0  0  0  0  0  0  0
   -0.1125    0.3957    0.0000 C   0  0  0  0  0  0  0  0  0  0  0  0
   -0.8270    0.8082    0.0000 C   0  0  0  0  0  0  0  0  0  0  0  0
   -1.5414    0.3957    0.0000 C   0  0  0  0  0  0  0  0  0  0  0  0
   -2.2559    0.8082    0.0000 C   0  0  0  0  0  0  0  0  0  0  0  0
   -2.2559    1.6332    0.0000 C   0  0  0  0  0  0  0  0  0  0  0  0
   -2.9704    2.0457    0.0000 O   0  0  0  0  0  0  0  0  0  0  0  0
   -1.5414    2.0457    0.0000 O   0  0  0  0  0  0  0  0  0  0  0  0
  2  1  1  0
  2  3  2  0
  3  4  1  0
  4  5  2  0
  4  6  1  0
  6  7  2  0
  7  9  1  0
  7  8  1  0
 10  2  1  0
 11 10  2  0
 11 12  1  0
 12 13  2  0
 13  3  1  0
 13 14  1  0
 14 15  2  0
 15  6  1  0
 15 16  1  0
 16 17  1  0
 17  8  1  0
 17 18  1  6
 18 19  1  0
 19 20  2  0
 19 21  1  0
M  END
>  <DRUGBANK_ID>  (1) 
DB08541

>  <COMMON_NAME>  (1) 
[(3S)-9-hydroxy-1-methyl-10-oxo-4,10-dihydro-3H-benzo[g]isochromen-3-yl]acetic acid

$$$$
