
     RDKit          2D

 21 23  0  0  0  0  0  0  0  0999 V2000
   -2.9772    3.1886    0.0000 C   0  0  0  0  0  0  0  0  0  0  0  0
   -0.8338    3.6011    0.0000 C   0  0  0  0  0  0  0  0  0  0  0  0
   -2.2627    2.7761    0.0000 C   0  0  0  0  0  0  0  0  0  0  0  0
    3.3953    2.0325    0.0000 C   0  0  0  0  0  0  0  0  0  0  0  0
   -0.4384    4.6463    0.0000 C   0  0  0  0  0  0  0  0  0  0  0  0
    3.6967    2.8005    0.0000 C   0  0  0  0  0  0  0  0  0  0  0  0
    0.1664    5.2074    0.0000 C   0  0  0  0  0  0  0  0  0  0  0  0
    2.5795    1.9095    0.0000 C   0  0  0  0  0  0  0  0  0  0  0  0
   -0.2548    3.8420    0.0000 C   0  0  0  0  0  0  0  0  0  0  0  0
    3.1823    3.4455    0.0000 C   0  0  0  0  0  0  0  0  0  0  0  0
    0.9547    4.9643    0.0000 C   0  0  0  0  0  0  0  0  0  0  0  0
   -1.5483    2.3636    0.0000 C   0  0  0  0  0  0  0  0  0  0  0  0
    1.2768    2.3114    0.0000 C   0  0  0  0  0  0  0  0  0  0  0  0
   -0.1193    2.3636    0.0000 C   0  0  0  0  0  0  0  0  0  0  0  0
    2.0652    2.5545    0.0000 C   0  0  0  0  0  0  0  0  0  0  0  0
    0.5952    2.7761    0.0000 C   0  0  0  0  0  0  0  0  0  0  0  0
    0.5335    3.5988    0.0000 C   0  0  0  0  0  0  0  0  0  0  0  0
    2.3666    3.3225    0.0000 C   0  0  0  0  0  0  0  0  0  0  0  0
    1.1383    4.1599    0.0000 C   0  0  0  0  0  0  0  0  0  0  0  0
   -0.8338    2.7761    0.0000 N   0  0  0  0  0  0  0  0  0  0  0  0
    1.9541    4.0370    0.0000 O   0  0  0  0  0  0  0  0  0  0  0  0
  3  1  3  0
  6  4  2  0
  7  5  2  0
  8  4  1  0
  9  5  1  0
 10  6  1  0
 11  7  1  0
 12  3  1  0
 15  8  2  0
 15 13  1  0
 16 13  2  0
 16 14  1  0
 17  9  2  0
 17 16  1  0
 18 10  2  0
 18 15  1  0
 19 11  2  0
 19 17  1  0
 20  2  1  0
 20 12  1  0
 20 14  1  0
 21 18  1  0
 21 19  1  0
M  END
>  <DRUGBANK_ID>  (1) 
DB12879

>  <COMMON_NAME>  (1) 
Omigapil

>  <CAS_NUMBER>  (1) 
181296-84-4

>  <UNII>  (1) 
5V14HD0N4Q

>  <SYNONYMS>  (1) 
Omigapil

$$$$
