
     RDKit          2D

 24 25  0  0  1  0  0  0  0  0999 V2000
    2.1434   -5.3625    0.0000 C   0  0  0  0  0  0  0  0  0  0  0  0
    2.8579   -4.9500    0.0000 O   0  0  0  0  0  0  0  0  0  0  0  0
    3.5724   -5.3625    0.0000 C   0  0  0  0  0  0  0  0  0  0  0  0
    4.2868   -4.9500    0.0000 C   0  0  0  0  0  0  0  0  0  0  0  0
    5.0013   -5.3625    0.0000 O   0  0  0  0  0  0  0  0  0  0  0  0
    5.7158   -4.9500    0.0000 C   0  0  0  0  0  0  0  0  0  0  0  0
    6.4302   -5.3625    0.0000 C   0  0  0  0  0  0  0  0  0  0  0  0
    7.1447   -4.9500    0.0000 O   0  0  0  0  0  0  0  0  0  0  0  0
    7.8592   -5.3625    0.0000 C   0  0  0  0  0  0  0  0  0  0  0  0
    8.5737   -4.9500    0.0000 C   0  0  0  0  0  0  0  0  0  0  0  0
    9.2881   -5.3625    0.0000 C   0  0  0  0  0  0  0  0  0  0  0  0
   10.0026   -4.9500    0.0000 O   0  0  0  0  0  0  0  0  0  0  0  0
    9.2881   -6.1875    0.0000 C   0  0  0  0  0  0  0  0  0  0  0  0
    8.5737   -6.6000    0.0000 C   0  0  0  0  0  0  0  0  0  0  0  0
    7.8592   -6.1875    0.0000 C   0  0  0  0  0  0  0  0  0  0  0  0
   10.0026   -6.6000    0.0000 C   0  0  0  0  0  0  0  0  0  0  0  0
   10.7563   -6.2644    0.0000 N   0  0  0  0  0  0  0  0  0  0  0  0
   11.3083   -6.8775    0.0000 C   0  0  0  0  0  0  0  0  0  0  0  0
   11.8603   -6.2644    0.0000 C   0  0  0  0  0  0  0  0  0  0  0  0
   10.8958   -7.5920    0.0000 C   0  0  0  0  0  0  0  0  0  0  0  0
   10.0888   -7.4205    0.0000 S   0  0  0  0  0  0  0  0  0  0  0  0
   11.9757   -7.3625    0.0000 C   0  0  0  0  0  0  0  0  0  0  0  0
   12.7294   -7.0269    0.0000 O   0  0  0  0  0  0  0  0  0  0  0  0
   11.8895   -8.1829    0.0000 O   0  0  0  0  0  0  0  0  0  0  0  0
  1  2  1  0
  2  3  1  0
  3  4  1  0
  4  5  1  0
  5  6  1  0
  6  7  1  0
  7  8  1  0
  8  9  1  0
  9 10  2  0
  9 15  1  0
 10 11  1  0
 11 12  1  0
 11 13  2  0
 13 14  1  0
 13 16  1  0
 14 15  2  0
 16 17  2  0
 16 21  1  0
 18 17  1  0
 18 19  1  6
 18 20  1  0
 18 22  1  0
 20 21  1  0
 22 23  1  0
 22 24  2  0
M  END
>  <DRUGBANK_ID>  (1) 
DB16069

>  <COMMON_NAME>  (1) 
SP-420

>  <CAS_NUMBER>  (1) 
911714-45-9

>  <UNII>  (1) 
WBX54NZ436

$$$$
