
     RDKit          2D

  4  0  0  0  0  0  0  0  0  0999 V2000
    0.0000    0.1264    0.0000 Zn  0  0  0  0  0 15  0  0  0  0  0  0
    1.1523    0.7916    0.0000 O   0  0  0  0  0  0  0  0  0  0  0  0
   -1.1523    0.7916    0.0000 O   0  0  0  0  0  0  0  0  0  0  0  0
    0.0000   -1.2041    0.0000 O   0  0  0  0  0  0  0  0  0  0  0  0
M  END
>  <DRUGBANK_ID>  (1) 
DB02165

>  <SECONDARY_ACCESSION_NUMBERS>  (1) 
EXPT03289

>  <COMMON_NAME>  (1) 
Zinc trihydroxide

$$$$
