
     RDKit          2D

 29 30  0  0  0  0  0  0  0  0999 V2000
   -4.0207    2.7229    0.0000 C   0  0  0  0  0  0  0  0  0  0  0  0
   -3.8492    1.9159    0.0000 C   0  0  0  0  0  0  0  0  0  0  0  0
   -3.0646    1.6610    0.0000 C   0  0  0  0  0  0  0  0  0  0  0  0
   -2.8930    0.8540    0.0000 C   0  0  0  0  0  0  0  0  0  0  0  0
   -3.5061    0.3020    0.0000 C   0  0  0  0  0  0  0  0  0  0  0  0
   -3.3346   -0.5049    0.0000 C   0  0  0  0  0  0  0  0  0  0  0  0
   -2.5500   -0.7599    0.0000 C   0  0  0  0  0  0  0  0  0  0  0  0
   -2.3785   -1.5668    0.0000 C   0  0  0  0  0  0  0  0  0  0  0  0
   -1.6248   -1.9024    0.0000 C   0  0  0  0  0  0  0  0  0  0  0  0
   -1.7110   -2.7229    0.0000 C   0  0  0  0  0  0  0  0  0  0  0  0
   -2.5180   -2.8944    0.0000 C   0  0  0  0  0  0  0  0  0  0  0  0
   -2.9305   -2.1799    0.0000 C   0  0  0  0  0  0  0  0  0  0  0  0
   -3.7510   -2.0937    0.0000 O   0  0  0  0  0  0  0  0  0  0  0  0
   -1.0979   -3.2749    0.0000 O   0  0  0  0  0  0  0  0  0  0  0  0
   -0.9103   -1.4899    0.0000 S   0  0  0  0  0  0  0  0  0  0  0  0
   -0.1959   -1.9024    0.0000 C   0  0  0  0  0  0  0  0  0  0  0  0
    0.5185   -1.4899    0.0000 C   0  0  0  0  0  0  0  0  0  0  0  0
    1.2330   -1.9024    0.0000 C   0  0  0  0  0  0  0  0  0  0  0  0
    1.9475   -1.4899    0.0000 O   0  0  0  0  0  0  0  0  0  0  0  0
    2.6619   -1.9024    0.0000 C   0  0  0  0  0  0  0  0  0  0  0  0
    3.3764   -1.4899    0.0000 C   0  0  0  0  0  0  0  0  0  0  0  0
    4.0909   -1.9024    0.0000 C   0  0  0  0  0  0  0  0  0  0  0  0
    4.0909   -2.7274    0.0000 C   0  0  0  0  0  0  0  0  0  0  0  0
    3.3764   -3.1399    0.0000 C   0  0  0  0  0  0  0  0  0  0  0  0
    2.6619   -2.7274    0.0000 C   0  0  0  0  0  0  0  0  0  0  0  0
    4.8053   -1.4899    0.0000 Cl  0  0  0  0  0  0  0  0  0  0  0  0
    0.5185   -0.6649    0.0000 O   0  0  0  0  0  0  0  0  0  0  0  0
   -4.8053    2.9778    0.0000 O   0  0  0  0  0  0  0  0  0  0  0  0
   -3.4076    3.2749    0.0000 O   0  0  0  0  0  0  0  0  0  0  0  0
  1  2  1  0
  1 28  2  0
  1 29  1  0
  2  3  1  0
  3  4  1  0
  4  5  1  0
  5  6  2  0
  6  7  1  0
  8  7  1  1
  8  9  1  0
  8 12  1  0
  9 10  1  0
  9 15  1  6
 10 11  1  0
 10 14  1  1
 12 11  1  0
 12 13  1  1
 15 16  1  0
 17 16  1  0
 17 18  1  0
 17 27  1  6
 18 19  1  0
 19 20  1  0
 20 21  2  0
 20 25  1  0
 21 22  1  0
 22 23  2  0
 22 26  1  0
 23 24  1  0
 24 25  2  0
M  END
>  <DRUGBANK_ID>  (1) 
DB11425

>  <COMMON_NAME>  (1) 
Luprostiol

>  <CAS_NUMBER>  (1) 
67110-79-6

>  <UNII>  (1) 
HWR60H5GZB

>  <SYNONYMS>  (1) 
Luprostiol; Luprostiolum

$$$$
