
     RDKit          2D

 31 35  0  0  0  0  0  0  0  0999 V2000
    1.9423   -6.7171    0.0000 C   0  0  0  0  0  0  0  0  0  0  0  0
    1.7708   -5.9101    0.0000 C   0  0  0  0  0  0  0  0  0  0  0  0
    0.9861   -5.6552    0.0000 N   0  0  0  0  0  0  0  0  0  0  0  0
    0.8146   -4.8482    0.0000 C   0  0  0  0  0  0  0  0  0  0  0  0
    0.0300   -4.5933    0.0000 C   0  0  0  0  0  0  0  0  0  0  0  0
   -0.5831   -5.1453    0.0000 C   0  0  0  0  0  0  0  0  0  0  0  0
   -1.3677   -4.8904    0.0000 N   0  0  0  0  0  0  0  0  0  0  0  0
   -1.5393   -4.0834    0.0000 C   0  0  0  0  0  0  0  0  0  0  0  0
   -0.9262   -3.5314    0.0000 C   0  0  0  0  0  0  0  0  0  0  0  0
   -0.1415   -3.7863    0.0000 C   0  0  0  0  0  0  0  0  0  0  0  0
    0.4716   -3.2343    0.0000 C   0  0  0  0  0  0  0  0  0  0  0  0
   -1.0977   -2.7244    0.0000 C   0  0  0  0  0  0  0  0  0  0  0  0
   -1.8823   -2.4694    0.0000 C   0  0  0  0  0  0  0  0  0  0  0  0
   -2.0538   -1.6625    0.0000 C   0  0  0  0  0  0  0  0  0  0  0  0
   -1.4407   -1.1104    0.0000 C   0  0  0  0  0  0  0  0  0  0  0  0
   -0.6561   -1.3654    0.0000 C   0  0  0  0  0  0  0  0  0  0  0  0
   -0.4846   -2.1724    0.0000 C   0  0  0  0  0  0  0  0  0  0  0  0
   -0.1712   -0.6979    0.0000 C   0  0  0  0  0  0  0  0  0  0  0  0
   -0.6561   -0.0305    0.0000 N   0  0  0  0  0  0  0  0  0  0  0  0
   -1.4407   -0.2854    0.0000 N   0  0  0  0  0  0  0  0  0  0  0  0
    0.6538   -0.6979    0.0000 C   0  0  0  0  0  0  0  0  0  0  0  0
    1.1387   -0.0305    0.0000 N   0  0  0  0  0  0  0  0  0  0  0  0
    1.9233   -0.2854    0.0000 C   0  0  0  0  0  0  0  0  0  0  0  0
    2.6378    0.1271    0.0000 C   0  0  0  0  0  0  0  0  0  0  0  0
    3.3523   -0.2854    0.0000 C   0  0  0  0  0  0  0  0  0  0  0  0
    3.3523   -1.1104    0.0000 C   0  0  0  0  0  0  0  0  0  0  0  0
    2.6378   -1.5229    0.0000 C   0  0  0  0  0  0  0  0  0  0  0  0
    1.9233   -1.1104    0.0000 C   0  0  0  0  0  0  0  0  0  0  0  0
    1.1387   -1.3654    0.0000 N   0  0  0  0  0  0  0  0  0  0  0  0
    2.6378   -2.3479    0.0000 F   0  0  0  0  0  0  0  0  0  0  0  0
    4.0668    0.1271    0.0000 F   0  0  0  0  0  0  0  0  0  0  0  0
  1  2  1  0
  2  3  1  0
  3  4  1  0
  4  5  1  0
  5  6  2  0
  5 10  1  0
  6  7  1  0
  7  8  2  0
  8  9  1  0
  9 10  2  0
  9 12  1  0
 10 11  1  0
 12 13  2  0
 12 17  1  0
 13 14  1  0
 14 15  2  0
 15 16  1  0
 15 20  1  0
 16 17  2  0
 16 18  1  0
 18 19  2  0
 18 21  1  0
 19 20  1  0
 21 22  1  0
 21 29  2  0
 22 23  1  0
 23 24  2  0
 23 28  1  0
 24 25  1  0
 25 26  2  0
 25 31  1  0
 26 27  1  0
 27 28  2  0
 27 30  1  0
 28 29  1  0
M  END
>  <DRUGBANK_ID>  (1) 
DB13035

>  <COMMON_NAME>  (1) 
AG-24322

>  <CAS_NUMBER>  (1) 
837364-57-5

>  <UNII>  (1) 
926F8X7TNO

$$$$
