
     RDKit          2D

 25 26  0  0  1  0  0  0  0  0999 V2000
    2.8579   -0.0000    0.0000 N   0  0  0  0  0  0  0  0  0  0  0  0
    2.8579   -0.8250    0.0000 C   0  0  0  0  0  0  0  0  0  0  0  0
    2.1434   -1.2375    0.0000 C   0  0  0  0  0  0  0  0  0  0  0  0
    1.4289   -0.8250    0.0000 C   0  0  0  0  0  0  0  0  0  0  0  0
    1.4289   -0.0000    0.0000 O   0  0  0  0  0  0  0  0  0  0  0  0
    0.7145   -1.2375    0.0000 N   0  0  0  0  0  0  0  0  0  0  0  0
    0.0000   -0.8250    0.0000 C   0  0  0  0  0  0  0  0  0  0  0  0
   -0.7145   -1.2375    0.0000 N   0  0  0  0  0  0  0  0  0  0  0  0
   -1.4289   -0.8250    0.0000 C   0  0  0  0  0  0  0  0  0  0  0  0
   -2.1434   -1.2375    0.0000 O   0  0  0  0  0  0  0  0  0  0  0  0
   -1.4289   -0.0000    0.0000 N   0  0  0  0  0  0  0  0  0  0  0  0
   -0.7145    0.4125    0.0000 C   0  0  0  0  0  0  0  0  0  0  0  0
    0.0000   -0.0000    0.0000 C   0  0  0  0  0  0  0  0  0  0  0  0
   -2.1434    0.4125    0.0000 C   0  0  0  0  0  0  0  0  0  0  0  0
   -2.8971    0.0769    0.0000 O   0  0  0  0  0  0  0  0  0  0  0  0
   -3.4491    0.6900    0.0000 C   0  0  0  0  0  0  0  0  0  0  0  0
   -4.2696    0.6038    0.0000 C   0  0  0  0  0  0  0  0  0  0  0  0
   -4.7545    1.2712    0.0000 O   0  0  0  0  0  0  0  0  0  0  0  0
   -3.0366    1.4045    0.0000 C   0  0  0  0  0  0  0  0  0  0  0  0
   -3.3722    2.1582    0.0000 O   0  0  0  0  0  0  0  0  0  0  0  0
   -2.2296    1.2330    0.0000 C   0  0  0  0  0  0  0  0  0  0  0  0
   -1.6166    1.7850    0.0000 O   0  0  0  0  0  0  0  0  0  0  0  0
    3.5724   -1.2375    0.0000 C   0  0  0  0  0  0  0  0  0  0  0  0
    4.2868   -0.8250    0.0000 O   0  0  0  0  0  0  0  0  0  0  0  0
    3.5724   -2.0625    0.0000 O   0  0  0  0  0  0  0  0  0  0  0  0
  2  1  1  6
  2  3  1  0
  2 23  1  0
  3  4  1  0
  4  5  2  0
  4  6  1  0
  6  7  1  0
  7  8  2  0
  7 13  1  0
  8  9  1  0
  9 10  2  0
  9 11  1  0
 11 12  1  0
 12 13  2  0
 14 11  1  6
 14 15  1  0
 16 15  1  0
 16 17  1  6
 17 18  1  0
 19 16  1  0
 19 20  1  1
 19 21  1  0
 21 14  1  0
 21 22  1  6
 23 24  1  0
 23 25  2  0
M  END
>  <DRUGBANK_ID>  (1) 
DB17226

>  <COMMON_NAME>  (1) 
Aspacytarabine

>  <CAS_NUMBER>  (1) 
2098942-53-9

>  <UNII>  (1) 
JL7V54Z2BR

>  <SYNONYMS>  (1) 
Astarabine; L-asparagine, n-(1-.beta.-d-arabinofuranosyl-1,2-dihydro-2-oxo-4-pyrimidinyl)-; N4-(1-.beta.-d-arabinofuranosyl-2-oxo-1,2-dihydropyrimidin-4-yl)-l-asparagine

$$$$
