
     RDKit          2D

 19 20  0  0  0  0  0  0  0  0999 V2000
   -2.4919    4.2231    0.0000 N   0  0  0  0  0  0  0  0  0  0  0  0
   -1.7072    3.9682    0.0000 C   0  0  0  0  0  0  0  0  0  0  0  0
   -1.0942    4.5202    0.0000 N   0  0  0  0  0  0  0  0  0  0  0  0
   -0.3095    4.2652    0.0000 C   0  0  0  0  0  0  0  0  0  0  0  0
   -0.1380    3.4583    0.0000 C   0  0  0  0  0  0  0  0  0  0  0  0
    0.6825    3.3720    0.0000 N   0  0  0  0  0  0  0  0  0  0  0  0
    1.0950    2.6576    0.0000 C   0  0  0  0  0  0  0  0  0  0  0  0
    1.9200    2.6576    0.0000 C   0  0  0  0  0  0  0  0  0  0  0  0
    2.3325    1.9431    0.0000 N   0  0  0  0  0  0  0  0  0  0  0  0
    3.1575    1.9431    0.0000 C   0  0  0  0  0  0  0  0  0  0  0  0
    3.5700    1.2286    0.0000 C   0  0  0  0  0  0  0  0  0  0  0  0
    4.3950    1.2286    0.0000 O   0  0  0  0  0  0  0  0  0  0  0  0
    3.5700    2.6576    0.0000 C   0  0  0  0  0  0  0  0  0  0  0  0
    4.3950    2.6576    0.0000 O   0  0  0  0  0  0  0  0  0  0  0  0
    1.0180    4.1257    0.0000 C   0  0  0  0  0  0  0  0  0  0  0  0
    0.4049    4.6777    0.0000 N   0  0  0  0  0  0  0  0  0  0  0  0
   -0.7511    2.9062    0.0000 C   0  0  0  0  0  0  0  0  0  0  0  0
   -0.5796    2.0993    0.0000 O   0  0  0  0  0  0  0  0  0  0  0  0
   -1.5357    3.1612    0.0000 N   0  0  0  0  0  0  0  0  0  0  0  0
  1  2  1  0
  2  3  2  0
  2 19  1  0
  3  4  1  0
  4  5  2  0
  4 16  1  0
  5  6  1  0
  5 17  1  0
  6  7  1  0
  6 15  1  0
  7  8  1  0
  8  9  1  0
  9 10  1  0
 10 11  1  0
 10 13  1  0
 11 12  1  0
 13 14  1  0
 15 16  2  0
 17 18  2  0
 17 19  1  0
M  END
>  <DRUGBANK_ID>  (1) 
DB02391

>  <SECONDARY_ACCESSION_NUMBERS>  (1) 
EXPT01667

>  <COMMON_NAME>  (1) 
2-Amino-7-[2-(2-Hydroxy-1-Hydroxymethyl-Ethylamino)-Ethyl]-1,7-Dihydro-Purin-6-One

$$$$
