
     RDKit          2D

 42 48  0  0  0  0  0  0  0  0999 V2000
    1.4884   -2.0517    0.0000 C   0  0  0  0  0  0  0  0  0  0  0  0
    1.4853   -2.8767    0.0000 C   0  0  0  0  0  0  0  0  0  0  0  0
    2.2028   -3.2910    0.0000 C   0  0  0  0  0  0  0  0  0  0  0  0
    2.9156   -2.8801    0.0000 C   0  0  0  0  0  0  0  0  0  0  0  0
    3.7455   -3.0415    0.0000 N   0  0  0  0  0  0  0  0  0  0  0  0
    4.1817   -2.2824    0.0000 C   0  0  0  0  0  0  0  0  0  0  0  0
    3.6257   -1.6527    0.0000 C   0  0  0  0  0  0  0  0  0  0  0  0
    2.2030   -1.6426    0.0000 C   0  0  0  0  0  0  0  0  0  0  0  0
    2.9156   -2.0587    0.0000 C   0  0  0  0  0  0  0  0  0  0  0  0
    3.6345   -0.8271    0.0000 C   0  0  0  0  0  0  0  0  0  0  0  0
    2.2030   -0.8195    0.0000 C   0  0  0  0  0  0  0  0  0  0  0  0
    2.9177   -0.4083    0.0000 C   0  0  0  0  0  0  0  0  0  0  0  0
    2.9187    0.4118    0.0000 N   0  0  0  0  0  0  0  0  0  0  0  0
    2.2067    0.8267    0.0000 C   0  0  0  0  0  0  0  0  0  0  0  0
    1.4922    0.4154    0.0000 C   0  0  0  0  0  0  0  0  0  0  0  0
    1.4894   -0.4107    0.0000 C   0  0  0  0  0  0  0  0  0  0  0  0
    0.7767    0.8307    0.0000 C   0  0  0  0  0  0  0  0  0  0  0  0
    0.0594    0.4190    0.0000 N   0  0  0  0  0  0  0  0  0  0  0  0
    3.6362    0.8235    0.0000 C   0  0  0  0  0  0  0  0  0  0  0  0
    0.7788    1.6579    0.0000 O   0  0  0  0  0  0  0  0  0  0  0  0
   -0.7616    0.4221    0.0000 C   0  0  0  0  0  0  0  0  0  0  0  0
   -1.2572    1.0885    0.0000 C   0  0  0  0  0  0  0  0  0  0  0  0
   -1.2446   -0.2497    0.0000 O   0  0  0  0  0  0  0  0  0  0  0  0
   -2.0336   -0.0016    0.0000 C   0  0  0  0  0  0  0  0  0  0  0  0
   -2.0372    0.8212    0.0000 N   0  0  0  0  0  0  0  0  0  0  0  0
   -2.7473    1.2271    0.0000 C   0  0  0  0  0  0  0  0  0  0  0  0
   -3.4589    0.8150    0.0000 C   0  0  0  0  0  0  0  0  0  0  0  0
   -2.7403   -0.4183    0.0000 C   0  0  0  0  0  0  0  0  0  0  0  0
   -3.4569   -0.0094    0.0000 N   0  0  0  0  0  0  0  0  0  0  0  0
   -4.0671   -0.5645    0.0000 C   0  0  0  0  0  0  0  0  0  0  0  0
   -3.7277   -1.3163    0.0000 C   0  0  0  0  0  0  0  0  0  0  0  0
   -2.9079   -1.2259    0.0000 C   0  0  0  0  0  0  0  0  0  0  0  0
   -2.0288   -0.8325    0.0000 O   0  0  0  0  0  0  0  0  0  0  0  0
   -1.0121    1.8786    0.0000 O   0  0  0  0  0  0  0  0  0  0  0  0
   -4.1759    1.2273    0.0000 O   0  0  0  0  0  0  0  0  0  0  0  0
   -2.7496    2.0544    0.0000 C   0  0  0  0  0  0  0  0  0  0  0  0
   -3.4672    2.4659    0.0000 C   0  0  0  0  0  0  0  0  0  0  0  0
   -0.3442   -0.2934    0.0000 C   0  0  0  0  0  0  0  0  0  0  0  0
   -0.7535   -1.0098    0.0000 C   0  0  0  0  0  0  0  0  0  0  0  0
    0.4806   -0.2898    0.0000 C   0  0  0  0  0  0  0  0  0  0  0  0
   -3.4672    3.2910    0.0000 C   0  0  0  0  0  0  0  0  0  0  0  0
   -4.1817    2.0534    0.0000 C   0  0  0  0  0  0  0  0  0  0  0  0
  1  2  2  0
  2  3  1  0
  3  4  2  0
  4  5  1  0
  5  6  1  0
  6  7  2  0
  7 10  1  0
  7  9  1  0
  8  1  1  0
  8  9  2  0
  8 11  1  0
  9  4  1  0
 12 10  1  6
 11 12  1  0
 11 16  1  1
 12 13  1  0
 13 14  1  0
 13 19  1  0
 14 15  1  0
 15 16  1  0
 15 17  1  1
 17 18  1  0
 17 20  2  0
 21 18  1  6
 21 22  1  0
 21 38  1  0
 22 25  1  0
 22 34  2  0
 23 21  1  0
 24 23  1  0
 24 25  1  0
 24 28  1  0
 24 33  1  6
 25 26  1  0
 26 27  1  0
 26 36  1  6
 27 29  1  0
 27 35  2  0
 28 29  1  0
 29 30  1  0
 30 31  1  0
 31 32  1  0
 28 32  1  6
 36 37  1  0
 37 41  1  0
 38 39  1  0
 38 40  1  0
 42 37  1  0
M  END
>  <DRUGBANK_ID>  (1) 
DB11274

>  <COMMON_NAME>  (1) 
Dihydro-alpha-ergocryptine

>  <CAS_NUMBER>  (1) 
25447-66-9

>  <UNII>  (1) 
202229IR8Y

>  <SYNONYMS>  (1) 
9,10-dihydro-α-ergocryptine; alpha-Dihydroergocriptine; dihydro-α-ergocryptine; α-dihydroergocryptine

$$$$
