2C7
     RDKit          2D

 24 26  0  0  0  0  0  0  0  0999 V2000
   -1.6469   -1.1445    0.0000 C   0  0  0  0  0  0  0  0  0  0  0  0
   -1.8901   -1.9328    0.0000 C   0  0  0  0  0  0  0  0  0  0  0  0
   -2.6580   -2.2342    0.0000 C   0  0  0  0  0  0  0  0  0  0  0  0
   -3.3725   -1.8217    0.0000 C   0  0  0  0  0  0  0  0  0  0  0  0
   -3.4955   -1.0060    0.0000 C   0  0  0  0  0  0  0  0  0  0  0  0
   -2.9343   -0.4012    0.0000 C   0  0  0  0  0  0  0  0  0  0  0  0
   -2.1116   -0.4628    0.0000 C   0  0  0  0  0  0  0  0  0  0  0  0
   -1.6991    0.2516    0.0000 C   0  0  0  0  0  0  0  0  0  0  0  0
   -0.8741    0.2516    0.0000 C   0  0  0  0  0  0  0  0  0  0  0  0
   -0.3892   -0.4158    0.0000 C   0  0  0  0  0  0  0  0  0  0  0  0
   -0.3892    0.9191    0.0000 S   0  0  0  0  0  0  0  0  0  0  0  0
   -1.1037    1.3316    0.0000 O   0  0  0  0  0  0  0  0  0  0  0  0
   -0.0536    1.6727    0.0000 O   0  0  0  0  0  0  0  0  0  0  0  0
    0.3954    0.6641    0.0000 C   0  0  0  0  0  0  0  0  0  0  0  0
    1.1099    1.0766    0.0000 C   0  0  0  0  0  0  0  0  0  0  0  0
    0.3954   -0.1609    0.0000 C   0  0  0  0  0  0  0  0  0  0  0  0
    1.1099   -0.5734    0.0000 C   0  0  0  0  0  0  0  0  0  0  0  0
    1.8244   -0.1609    0.0000 C   0  0  0  0  0  0  0  0  0  0  0  0
    1.8244    0.6641    0.0000 C   0  0  0  0  0  0  0  0  0  0  0  0
    2.5388    1.0766    0.0000 O   0  0  0  0  0  0  0  0  0  0  0  0
    2.5388    1.9016    0.0000 S   0  0  0  0  0  0  0  0  0  0  0  0
    2.5388    2.7266    0.0000 O   0  0  0  0  0  0  0  0  0  0  0  0
    3.3638    1.9016    0.0000 O   0  0  0  0  0  0  0  0  0  0  0  0
    1.7138    1.9016    0.0000 N   0  0  0  0  0  0  0  0  0  0  0  0
  1  2  1  0
  1  7  1  0
  2  3  1  0
  3  4  1  0
  4  5  1  0
  5  6  1  0
  6  7  1  0
  7  8  1  0
  8  9  1  0
  9 10  2  0
  9 11  1  0
 10 16  1  0
 11 12  2  0
 11 13  2  0
 11 14  1  0
 14 15  2  0
 14 16  1  0
 15 19  1  0
 16 17  2  0
 17 18  1  0
 18 19  2  0
 19 20  1  0
 20 21  1  0
 21 22  2  0
 21 23  2  0
 21 24  1  0
M  END
>  <DRUGBANK_ID>  (1) 
DB06954

>  <COMMON_NAME>  (1) 
2-(cycloheptylmethyl)-1,1-dioxido-1-benzothiophen-6-yl sulfamate

$$$$
