
     RDKit          2D

 12 13  0  0  0  0  0  0  0  0999 V2000
    1.0770   -0.0028    0.0000 O   0  0  0  0  0  0  0  0  0  0  0  0
    0.3552    0.4153    0.0000 C   0  0  0  0  0  0  0  0  0  0  0  0
    1.0770   -0.8278    0.0000 C   0  0  0  0  0  0  0  0  0  0  0  0
   -0.3552   -0.0028    0.0000 C   0  0  0  0  0  0  0  0  0  0  0  0
    0.3552   -1.2403    0.0000 N   0  0  0  0  0  0  0  0  0  0  0  0
   -0.3552   -0.8278    0.0000 C   0  0  0  0  0  0  0  0  0  0  0  0
    0.3552    1.2403    0.0000 O   0  0  0  0  0  0  0  0  0  0  0  0
    1.7818   -1.2403    0.0000 O   0  0  0  0  0  0  0  0  0  0  0  0
   -1.0712    0.4096    0.0000 C   0  0  0  0  0  0  0  0  0  0  0  0
   -1.0712   -1.2403    0.0000 C   0  0  0  0  0  0  0  0  0  0  0  0
   -1.7818   -0.0028    0.0000 C   0  0  0  0  0  0  0  0  0  0  0  0
   -1.7818   -0.8278    0.0000 C   0  0  0  0  0  0  0  0  0  0  0  0
  2  1  1  0
  3  1  1  0
  4  2  1  0
  4  6  2  0
  5  3  1  0
  6  5  1  0
  7  2  2  0
  8  3  2  0
  9  4  1  0
 10  6  1  0
 11  9  2  0
 11 12  1  0
 12 10  2  0
M  END
>  <DRUGBANK_ID>  (1) 
DB11593

>  <COMMON_NAME>  (1) 
Isatoic anhydride

>  <CAS_NUMBER>  (1) 
118-48-9

>  <UNII>  (1) 
R8TFA74Y4U

>  <SYNONYMS>  (1) 
1,2-dihydro-3,1-benzoxazine-2,4-dione; 1h-benz(d)(1,3)oxazine-2,4-dione; 2,4-dioxo-1,2-dihydro-4h-3,1-benzoxazine; 2h-3,1-benzoxazine-2,4(1h)-dione; 3,1-benzoxazine-2,4(1h)-dione; Isatoic acid anhydride; N-carboxyanthranilic anhydride

$$$$
