
     RDKit          2D

 21 22  0  0  0  0  0  0  0  0999 V2000
    4.3304    1.6320    0.0000 C   0  0  0  0  0  0  0  0  0  0  0  0
    5.0449    0.3945    0.0000 C   0  0  0  0  0  0  0  0  0  0  0  0
    9.9475    2.9231    0.0000 C   0  0  0  0  0  0  0  0  0  0  0  0
    9.2556    3.3724    0.0000 C   0  0  0  0  0  0  0  0  0  0  0  0
   10.5333   -0.6432    0.0000 C   0  0  0  0  0  0  0  0  0  0  0  0
   10.6195    0.1773    0.0000 C   0  0  0  0  0  0  0  0  0  0  0  0
    9.7796   -0.9788    0.0000 C   0  0  0  0  0  0  0  0  0  0  0  0
   10.0276    2.1020    0.0000 C   0  0  0  0  0  0  0  0  0  0  0  0
    8.4729    3.1116    0.0000 C   0  0  0  0  0  0  0  0  0  0  0  0
    6.4738    1.2195    0.0000 C   0  0  0  0  0  0  0  0  0  0  0  0
    9.9521    0.6622    0.0000 C   0  0  0  0  0  0  0  0  0  0  0  0
    9.1122   -0.4939    0.0000 C   0  0  0  0  0  0  0  0  0  0  0  0
    9.4355    1.5274    0.0000 C   0  0  0  0  0  0  0  0  0  0  0  0
    8.1888    2.3371    0.0000 C   0  0  0  0  0  0  0  0  0  0  0  0
    5.7593    1.6320    0.0000 C   0  0  0  0  0  0  0  0  0  0  0  0
    7.1883    1.6320    0.0000 C   0  0  0  0  0  0  0  0  0  0  0  0
    8.5310    0.8115    0.0000 C   0  0  0  0  0  0  0  0  0  0  0  0
    9.1984    0.3266    0.0000 C   0  0  0  0  0  0  0  0  0  0  0  0
    8.6172    1.6320    0.0000 C   0  0  0  0  0  0  0  0  0  0  0  0
    5.0449    1.2195    0.0000 N   0  0  0  0  0  0  0  0  0  0  0  0
    7.9027    1.2195    0.0000 O   0  0  0  0  0  0  0  0  0  0  0  0
  4  3  1  0
  6  5  2  0
  7  5  1  0
  8  3  1  0
  9  4  1  0
 11  6  1  0
 12  7  2  0
 13  8  1  0
 14  9  1  0
 15 10  1  0
 16 10  1  0
 18 11  2  0
 18 12  1  0
 18 17  1  0
 19 13  1  0
 19 14  1  0
 19 17  1  0
 20  1  1  0
 20  2  1  0
 20 15  1  0
 21 16  1  0
 21 19  1  0
M  END
>  <DRUGBANK_ID>  (1) 
DB13488

>  <COMMON_NAME>  (1) 
Bencyclane

>  <CAS_NUMBER>  (1) 
2179-37-5

>  <UNII>  (1) 
6I97Z6S135

>  <SYNONYMS>  (1) 
3-((1-Benzylcycloheptyl)oxy)-N,N-dimethylpropylamin; Benciclano; Bencyclane; Bencyclanum

$$$$
