
     RDKit          2D

 19 18  0  0  0  0  0  0  0  0999 V2000
    1.2375    0.7145    0.0000 C   0  0  0  0  0  0  0  0  0  0  0  0
    0.5230    1.1270    0.0000 C   0  0  0  0  0  0  0  0  0  0  0  0
    1.9520    1.1270    0.0000 C   0  0  0  0  0  0  0  0  0  0  0  0
   -2.3349    1.1270    0.0000 C   0  0  0  0  0  0  0  0  0  0  0  0
   -4.4783   -0.1105    0.0000 C   0  0  0  0  0  0  0  0  0  0  0  0
   -0.1914    0.7145    0.0000 C   0  0  0  0  0  0  0  0  0  0  0  0
   -1.6204    0.7145    0.0000 C   0  0  0  0  0  0  0  0  0  0  0  0
   -3.0493    0.7145    0.0000 C   0  0  0  0  0  0  0  0  0  0  0  0
   -4.4783    0.7145    0.0000 C   0  0  0  0  0  0  0  0  0  0  0  0
    2.6664    0.7145    0.0000 C   0  0  0  0  0  0  0  0  0  0  0  0
   -5.1927   -0.5230    0.0000 C   0  0  0  0  0  0  0  0  0  0  0  0
   -0.9059    1.9520    0.0000 C   0  0  0  0  0  0  0  0  0  0  0  0
   -3.7638    1.9520    0.0000 C   0  0  0  0  0  0  0  0  0  0  0  0
   -0.9059    1.1270    0.0000 C   0  0  0  0  0  0  0  0  0  0  0  0
   -3.7638    1.1270    0.0000 C   0  0  0  0  0  0  0  0  0  0  0  0
    3.3809    1.1270    0.0000 O   0  0  0  0  0  0  0  0  0  0  0  0
   -5.1927   -1.3480    0.0000 O   0  0  0  0  0  0  0  0  0  0  0  0
   -1.6204    2.3645    0.0000 O   0  0  0  0  0  0  0  0  0  0  0  0
   -4.4783    2.3645    0.0000 O   0  0  0  0  0  0  0  0  0  0  0  0
  2  1  1  0
  3  1  1  0
  6  2  1  0
  7  4  1  0
  8  4  1  0
  9  5  1  0
 10  3  1  0
 11  5  1  0
 14  6  2  3
 14  7  1  0
 14 12  1  0
 15  8  2  3
 15  9  1  0
 15 13  1  0
 16 10  2  0
 17 11  2  0
 18 12  2  0
 19 13  2  0
M  END
>  <DRUGBANK_ID>  (1) 
DB06912

>  <COMMON_NAME>  (1) 
UNDECA-3,7-DIENE-1,3,7,11-TETRACARBALDEHYDE

$$$$
