
     RDKit          2D

 10 10  0  0  1  0  0  0  0  0999 V2000
    0.2415   -0.9757    0.0000 C   0  0  0  0  0  0  0  0  0  0  0  0
    1.2352    0.6294    0.0000 C   0  0  0  0  0  0  0  0  0  0  0  0
    0.5678    1.1143    0.0000 C   0  0  0  0  0  0  0  0  0  0  0  0
    0.1553   -0.1553    0.0000 C   0  0  0  0  0  0  0  0  0  0  0  0
   -0.0997    0.6294    0.0000 C   0  0  0  0  0  0  0  0  0  0  0  0
    0.5678    1.9393    0.0000 O   0  0  0  0  0  0  0  0  0  0  0  0
   -0.6517   -0.3268    0.0000 O   0  0  0  0  0  0  0  0  0  0  0  0
   -0.6581    1.2366    0.0000 O   0  0  0  0  0  0  0  0  0  0  0  0
   -0.9084    0.4663    0.0000 O   0  0  0  0  0  0  0  0  0  0  0  0
    0.9803   -0.1553    0.0000 O   0  0  0  0  0  0  0  0  0  0  0  0
  3  2  1  0
  3  6  1  1
  4  1  1  6
  4  7  1  0
  5  3  1  0
  5  4  1  0
  8  5  1  0
  9  5  1  0
 10  2  1  0
 10  4  1  0
M  END
>  <DRUGBANK_ID>  (1) 
DB04346

>  <SECONDARY_ACCESSION_NUMBERS>  (1) 
EXPT02502

>  <COMMON_NAME>  (1) 
(2r,4s)-2-Methyl-2,3,3,4-Tetrahydroxytetrahydrofuran

$$$$
