
     RDKit          2D

 28 29  0  0  0  0  0  0  0  0999 V2000
    2.1406    1.4404    0.0000 C   0  0  0  0  0  0  0  0  0  0  0  0
    2.1406    2.2707    0.0000 C   0  0  0  0  0  0  0  0  0  0  0  0
    1.4304    2.6807    0.0000 O   0  0  0  0  0  0  0  0  0  0  0  0
    2.8608    2.6807    0.0000 O   0  0  0  0  0  0  0  0  0  0  0  0
    2.8608    1.0302    0.0000 C   0  0  0  0  0  0  0  0  0  0  0  0
    3.5710    1.4404    0.0000 C   0  0  0  0  0  0  0  0  0  0  0  0
    4.2913    1.0302    0.0000 C   0  0  0  0  0  0  0  0  0  0  0  0
    5.0014    1.4404    0.0000 O   0  0  0  0  0  0  0  0  0  0  0  0
    4.2913    0.2100    0.0000 O   0  0  0  0  0  0  0  0  0  0  0  0
    1.4304    1.0302    0.0000 N   0  0  0  0  0  0  0  0  0  0  0  0
    0.7101    1.4404    0.0000 S   0  0  0  0  0  0  0  0  0  0  0  0
    0.1299    2.0306    0.0000 O   0  0  0  0  0  0  0  0  0  0  0  0
    1.3004    2.0306    0.0000 O   0  0  0  0  0  0  0  0  0  0  0  0
    0.0000    1.0302    0.0000 C   0  0  0  0  0  0  0  0  0  0  0  0
   -1.4304    1.0302    0.0000 C   0  0  0  0  0  0  0  0  0  0  0  0
   -2.1405    1.4404    0.0000 C   0  0  0  0  0  0  0  0  0  0  0  0
   -2.8608    1.0302    0.0000 C   0  0  0  0  0  0  0  0  0  0  0  0
   -2.8608    0.2100    0.0000 C   0  0  0  0  0  0  0  0  0  0  0  0
   -2.1405   -0.2100    0.0000 C   0  0  0  0  0  0  0  0  0  0  0  0
   -1.4304    0.2100    0.0000 C   0  0  0  0  0  0  0  0  0  0  0  0
   -0.7101   -0.2100    0.0000 C   0  0  0  0  0  0  0  0  0  0  0  0
    0.0000    0.2100    0.0000 C   0  0  0  0  0  0  0  0  0  0  0  0
   -0.7101    1.4404    0.0000 C   0  0  0  0  0  0  0  0  0  0  0  0
   -3.5710   -1.0302    0.0000 C   0  0  0  0  0  0  0  0  0  0  0  0
   -3.5710   -0.2100    0.0000 O   0  0  0  0  0  0  0  0  0  0  0  0
   -4.2913   -1.4403    0.0000 C   0  0  0  0  0  0  0  0  0  0  0  0
   -4.2913   -2.2706    0.0000 C   0  0  0  0  0  0  0  0  0  0  0  0
   -5.0014   -2.6807    0.0000 C   0  0  0  0  0  0  0  0  0  0  0  0
  1 10  1  0
  1  5  1  1
  1  2  1  0
  2  3  2  0
  2  4  1  0
  5  6  1  0
  6  7  1  0
  7  8  2  0
  7  9  1  0
 10 11  1  0
 11 14  1  0
 11 12  2  0
 11 13  2  0
 14 22  2  0
 14 23  1  0
 15 16  1  0
 15 20  1  0
 15 23  2  0
 16 17  2  0
 17 18  1  0
 18 19  2  0
 18 25  1  0
 19 20  1  0
 20 21  2  0
 21 22  1  0
 24 25  1  0
 24 26  1  0
 26 27  1  0
 27 28  1  0
M  END
>  <DRUGBANK_ID>  (1) 
DB08106

>  <COMMON_NAME>  (1) 
N-[(6-butoxynaphthalen-2-yl)sulfonyl]-D-glutamic acid

$$$$
