
     RDKit          2D

 18 20  0  0  0  0  0  0  0  0999 V2000
   -0.3572   -0.9965    0.0000 C   0  0  0  0  0  0  0  0  0  0  0  0
   -0.3572   -1.8215    0.0000 C   0  0  0  0  0  0  0  0  0  0  0  0
   -1.0717   -0.5840    0.0000 C   0  0  0  0  0  0  0  0  0  0  0  0
   -1.0717   -2.2340    0.0000 C   0  0  0  0  0  0  0  0  0  0  0  0
   -1.7862   -0.9965    0.0000 C   0  0  0  0  0  0  0  0  0  0  0  0
   -1.7862   -1.8215    0.0000 C   0  0  0  0  0  0  0  0  0  0  0  0
    1.0717   -0.9965    0.0000 C   0  0  0  0  0  0  0  0  0  0  0  0
    1.0717   -1.8215    0.0000 C   0  0  0  0  0  0  0  0  0  0  0  0
    0.3572   -0.5840    0.0000 C   0  0  0  0  0  0  0  0  0  0  0  0
    0.3572   -2.2340    0.0000 N   0  0  0  0  0  0  0  0  0  0  0  0
    1.6849   -0.4443    0.0000 N   0  0  0  0  0  0  0  0  0  0  0  0
    1.3493    0.3092    0.0000 C   0  0  0  0  0  0  0  0  0  0  0  0
    0.5288    0.2230    0.0000 N   0  0  0  0  0  0  0  0  0  0  0  0
   -0.0232    0.8362    0.0000 C   0  0  0  0  0  0  0  0  0  0  0  0
    0.2317    1.6208    0.0000 C   0  0  0  0  0  0  0  0  0  0  0  0
    1.0387    1.7923    0.0000 C   0  0  0  0  0  0  0  0  0  0  0  0
   -0.3202    2.2340    0.0000 C   0  0  0  0  0  0  0  0  0  0  0  0
    1.7862   -2.2340    0.0000 N   0  0  0  0  0  0  0  0  0  0  0  0
  1  9  1  0
  2 10  1  0
  2  1  1  0
  3  1  2  0
  4  2  2  0
  5  3  1  0
  6  4  1  0
  6  5  2  0
  8  7  1  0
  8 18  1  0
  9  7  2  0
 10  8  2  0
 11  7  1  0
 12 11  2  0
 13  9  1  0
 13 12  1  0
 13 14  1  0
 14 15  1  0
 15 16  1  0
 15 17  1  0
M  END
>  <DRUGBANK_ID>  (1) 
DB00724

>  <SECONDARY_ACCESSION_NUMBERS>  (1) 
APRD01030

>  <COMMON_NAME>  (1) 
Imiquimod

>  <CAS_NUMBER>  (1) 
99011-02-6

>  <UNII>  (1) 
P1QW714R7M

>  <SYNONYMS>  (1) 
1-isobutyl-1H-imidazo[4,5-c]quinolin-4-amine; 4-Amino-1-isobutyl-1H-imidazo(4,5-c)quinoline; Imiquimod; Imiquimodum

$$$$
