
     RDKit          2D

 31 35  0  0  0  0  0  0  0  0999 V2000
    0.3618   -1.8711    0.0000 C   0  0  0  0  0  0  0  0  0  0  0  0
    1.0762   -1.4586    0.0000 C   0  0  0  0  0  0  0  0  0  0  0  0
    1.7908   -1.8711    0.0000 C   0  0  0  0  0  0  0  0  0  0  0  0
    1.7908   -2.6961    0.0000 O   0  0  0  0  0  0  0  0  0  0  0  0
    2.5052   -3.1086    0.0000 C   0  0  0  0  0  0  0  0  0  0  0  0
    2.5052   -1.4586    0.0000 C   0  0  0  0  0  0  0  0  0  0  0  0
    3.2197   -1.8711    0.0000 O   0  0  0  0  0  0  0  0  0  0  0  0
    2.5052   -0.6336    0.0000 C   0  0  0  0  0  0  0  0  0  0  0  0
    1.7908   -0.2211    0.0000 C   0  0  0  0  0  0  0  0  0  0  0  0
    1.7908    0.6038    0.0000 C   0  0  0  0  0  0  0  0  0  0  0  0
    1.0762    1.0163    0.0000 N   0  0  0  0  0  0  0  0  0  0  0  0
    1.0762    1.8413    0.0000 C   0  0  0  0  0  0  0  0  0  0  0  0
    0.3618    2.2538    0.0000 C   0  0  0  0  0  0  0  0  0  0  0  0
   -0.3526    1.8413    0.0000 C   0  0  0  0  0  0  0  0  0  0  0  0
   -1.1372    2.0963    0.0000 C   0  0  0  0  0  0  0  0  0  0  0  0
   -1.4728    2.8499    0.0000 C   0  0  0  0  0  0  0  0  0  0  0  0
   -2.2933    2.9362    0.0000 C   0  0  0  0  0  0  0  0  0  0  0  0
   -2.7782    2.2687    0.0000 C   0  0  0  0  0  0  0  0  0  0  0  0
   -3.5987    2.3550    0.0000 O   0  0  0  0  0  0  0  0  0  0  0  0
   -3.9342    3.1086    0.0000 C   0  0  0  0  0  0  0  0  0  0  0  0
   -2.4427    1.5151    0.0000 C   0  0  0  0  0  0  0  0  0  0  0  0
   -1.6222    1.4288    0.0000 C   0  0  0  0  0  0  0  0  0  0  0  0
   -1.1372    0.7614    0.0000 N   0  0  0  0  0  0  0  0  0  0  0  0
   -0.3526    1.0163    0.0000 C   0  0  0  0  0  0  0  0  0  0  0  0
    0.3618    0.6038    0.0000 C   0  0  0  0  0  0  0  0  0  0  0  0
    0.3618   -0.2211    0.0000 C   0  0  0  0  0  0  0  0  0  0  0  0
    1.0762   -0.6336    0.0000 C   0  0  0  0  0  0  0  0  0  0  0  0
    0.3618   -2.6961    0.0000 O   0  0  0  0  0  0  0  0  0  0  0  0
   -0.3526   -1.4586    0.0000 O   0  0  0  0  0  0  0  0  0  0  0  0
   -1.0671   -1.8711    0.0000 C   0  0  0  0  0  0  0  0  0  0  0  0
    3.9342   -1.4586    0.0000 C   0  0  0  0  0  0  0  0  0  0  0  0
  1 28  2  0
  1 29  1  0
  2  1  1  1
  2  3  1  0
  2 27  1  0
  3  4  1  6
  3  6  1  0
  4  5  1  0
  6  7  1  6
  6  8  1  0
  7 31  1  0
  9  8  1  1
  9 10  1  0
 10 11  1  0
 11 12  1  0
 12 13  1  0
 14 13  1  0
 14 15  1  0
 15 16  2  0
 15 22  1  0
 16 17  1  0
 17 18  2  0
 18 19  1  0
 19 20  1  0
 21 18  1  0
 22 21  2  0
 23 22  1  0
 24 23  1  0
 24 14  2  0
 25 24  1  0
 25 11  1  0
 25 26  1  6
 27 26  1  1
 27  9  1  0
 29 30  1  0
M  END
>  <DRUGBANK_ID>  (1) 
DB11530

>  <COMMON_NAME>  (1) 
Metoserpate

>  <CAS_NUMBER>  (1) 
1178-28-5

>  <UNII>  (1) 
X3G4L02XQU

>  <SYNONYMS>  (1) 
Methyl O-methyl-18-epireserpate; Metoserpate; Metoserpato; Metoserpatum

$$$$
