
     RDKit          2D

 16 16  0  0  0  0  0  0  0  0999 V2000
    0.9753   -3.1744    0.0000 C   0  0  0  0  0  0  0  0  0  0  0  0
    0.5628   -2.4599    0.0000 C   0  0  0  0  0  0  0  0  0  0  0  0
    0.9753   -1.7455    0.0000 C   0  0  0  0  0  0  0  0  0  0  0  0
    0.5628   -1.0310    0.0000 C   0  0  0  0  0  0  0  0  0  0  0  0
    0.9753   -0.3165    0.0000 O   0  0  0  0  0  0  0  0  0  0  0  0
    0.5628    0.3979    0.0000 C   0  0  0  0  0  0  0  0  0  0  0  0
   -0.2341    0.6115    0.0000 C   0  0  0  0  0  0  0  0  0  0  0  0
   -0.9486    0.1990    0.0000 O   0  0  0  0  0  0  0  0  0  0  0  0
   -0.0206    1.4084    0.0000 C   0  0  0  0  0  0  0  0  0  0  0  0
   -0.4331    2.1228    0.0000 O   0  0  0  0  0  0  0  0  0  0  0  0
    0.7763    1.1948    0.0000 C   0  0  0  0  0  0  0  0  0  0  0  0
    1.4908    1.6073    0.0000 O   0  0  0  0  0  0  0  0  0  0  0  0
    2.2053    1.1948    0.0000 C   0  0  0  0  0  0  0  0  0  0  0  0
    2.9197    1.6073    0.0000 C   0  0  0  0  0  0  0  0  0  0  0  0
    3.6342    1.1948    0.0000 C   0  0  0  0  0  0  0  0  0  0  0  0
    4.3487    1.6073    0.0000 C   0  0  0  0  0  0  0  0  0  0  0  0
  1  2  1  0
  2  3  1  0
  3  4  1  0
  4  5  1  0
  5  6  1  0
  6  7  1  0
  6 11  2  0
  7  8  2  0
  7  9  1  0
  9 10  2  0
  9 11  1  0
 11 12  1  0
 12 13  1  0
 13 14  1  0
 14 15  1  0
 15 16  1  0
M  END
>  <DRUGBANK_ID>  (1) 
DB12223

>  <COMMON_NAME>  (1) 
Squaric acid dibutyl ester

>  <CAS_NUMBER>  (1) 
2892-62-8

>  <UNII>  (1) 
4RTO57VG65

>  <SYNONYMS>  (1) 
Squaric acid dibutyl ester; Squaric acid dibutylester

$$$$
