
     RDKit          2D

 33 36  0  0  1  0  0  0  0  0999 V2000
    6.2620    0.3722    0.0000 C   0  0  0  0  0  0  0  0  0  0  0  0
    5.4415    0.2859    0.0000 C   0  0  0  0  0  0  0  0  0  0  0  0
    5.0290   -0.4285    0.0000 N   0  0  0  0  0  0  0  0  0  0  0  0
    4.2221   -0.2570    0.0000 N   0  0  0  0  0  0  0  0  0  0  0  0
    4.1358    0.5635    0.0000 C   0  0  0  0  0  0  0  0  0  0  0  0
    4.8895    0.8990    0.0000 S   0  0  0  0  0  0  0  0  0  0  0  0
    3.4214    0.9760    0.0000 S   0  0  0  0  0  0  0  0  0  0  0  0
    2.7069    0.5635    0.0000 C   0  0  0  0  0  0  0  0  0  0  0  0
    1.9924    0.9760    0.0000 C   0  0  0  0  0  0  0  0  0  0  0  0
    1.2780    0.5635    0.0000 C   0  0  0  0  0  0  0  0  0  0  0  0
    0.5635    0.9760    0.0000 N   0  0  0  0  0  0  0  0  0  0  0  0
    0.5635    1.8010    0.0000 C   0  0  0  0  0  0  0  0  0  0  0  0
   -0.2615    1.8010    0.0000 C   0  0  0  0  0  0  0  0  0  0  0  0
   -0.2615    0.9760    0.0000 C   0  0  0  0  0  0  0  0  0  0  0  0
   -0.8449    0.3926    0.0000 O   0  0  0  0  0  0  0  0  0  0  0  0
   -0.8449    2.3843    0.0000 N   0  0  0  0  0  0  0  0  0  0  0  0
   -0.6314    3.1812    0.0000 C   0  0  0  0  0  0  0  0  0  0  0  0
    0.1655    3.3948    0.0000 O   0  0  0  0  0  0  0  0  0  0  0  0
   -1.2147    3.7646    0.0000 C   0  0  0  0  0  0  0  0  0  0  0  0
   -2.0116    3.5511    0.0000 N   0  0  0  0  0  0  0  0  0  0  0  0
   -2.2251    2.7542    0.0000 C   0  0  0  0  0  0  0  0  0  0  0  0
   -3.0220    2.5407    0.0000 C   0  0  0  0  0  0  0  0  0  0  0  0
   -3.6054    3.1240    0.0000 C   0  0  0  0  0  0  0  0  0  0  0  0
   -4.4023    2.9105    0.0000 O   0  0  0  0  0  0  0  0  0  0  0  0
   -3.3919    3.9209    0.0000 C   0  0  0  0  0  0  0  0  0  0  0  0
   -2.5950    4.1344    0.0000 C   0  0  0  0  0  0  0  0  0  0  0  0
   -3.9752    4.5043    0.0000 Cl  0  0  0  0  0  0  0  0  0  0  0  0
   -3.2355    1.7438    0.0000 Cl  0  0  0  0  0  0  0  0  0  0  0  0
    1.2780    2.2135    0.0000 S   0  0  0  0  0  0  0  0  0  0  0  0
    1.9924    1.8010    0.0000 C   0  0  0  0  0  0  0  0  0  0  0  0
    1.2780   -0.2615    0.0000 C   0  0  0  0  0  0  0  0  0  0  0  0
    0.5635   -0.6740    0.0000 O   0  0  0  0  0  0  0  0  0  0  0  0
    1.9924   -0.6740    0.0000 O   0  0  0  0  0  0  0  0  0  0  0  0
  1  2  1  0
  2  3  2  0
  2  6  1  0
  3  4  1  0
  4  5  2  0
  5  6  1  0
  5  7  1  0
  7  8  1  0
  8  9  1  0
  9 10  2  0
  9 30  1  0
 10 11  1  0
 10 31  1  0
 11 14  1  0
 12 11  1  0
 12 13  1  0
 12 29  1  1
 13 14  1  0
 13 16  1  1
 14 15  2  0
 16 17  1  0
 17 18  2  0
 17 19  1  0
 19 20  1  0
 20 21  1  0
 20 26  1  0
 21 22  2  0
 22 23  1  0
 22 28  1  0
 23 24  2  0
 23 25  1  0
 25 26  2  0
 25 27  1  0
 29 30  1  0
 31 32  2  0
 31 33  1  0
M  END
>  <DRUGBANK_ID>  (1) 
DB13778

>  <COMMON_NAME>  (1) 
Cefazedone

>  <CAS_NUMBER>  (1) 
56187-47-4

>  <UNII>  (1) 
7Y86X0D799

>  <SYNONYMS>  (1) 
cefazedona; Cefazedone

$$$$
