
     RDKit          2D

 11 10  0  0  0  0  0  0  0  0999 V2000
   51.9245   51.3612    0.0000 C   0  0  0  0  0  0  0  0  0  0  0  0
   51.2096   51.7729    0.0000 C   0  0  0  0  0  0  0  0  0  0  0  0
   50.4947   51.3612    0.0000 C   0  0  0  0  0  0  0  0  0  0  0  0
   49.7795   51.7729    0.0000 C   0  0  0  0  0  0  0  0  0  0  0  0
   49.0646   51.3612    0.0000 O   0  0  0  0  0  0  0  0  0  0  0  0
   51.2096   52.5986    0.0000 O   0  0  0  0  0  0  0  0  0  0  0  0
   52.6394   51.7729    0.0000 C   0  0  0  0  0  0  0  0  0  0  0  0
   53.3546   51.3612    0.0000 C   0  0  0  0  0  0  0  0  0  0  0  0
   54.0695   51.7729    0.0000 O   0  0  0  0  0  0  0  0  0  0  0  0
   52.6394   52.5986    0.0000 O   0  0  0  0  0  0  0  0  0  0  0  0
   51.9245   50.5355    0.0000 O   0  0  0  0  0  0  0  0  0  0  0  0
  1  2  1  0
  1  7  1  0
  1 11  1  1
  2  3  1  0
  2  6  1  1
  3  4  1  0
  4  5  2  0
  7  8  1  0
  7 10  1  6
  8  9  1  0
M  END
>  <DRUGBANK_ID>  (1) 
DB08831

>  <COMMON_NAME>  (1) 
2-deoxyglucose

>  <CAS_NUMBER>  (1) 
154-17-6

>  <UNII>  (1) 
9G2MP84A8W

>  <SYNONYMS>  (1) 
2-Deoxy-D-arabino-hexose; 2-deoxy-D-glucose; 2-DG; D-arabino-2-desoxyhexose

$$$$
