
     RDKit          2D

 33 36  0  0  1  0  0  0  0  0999 V2000
   -1.0164    2.0945    0.0000 C   0  0  0  0  0  0  0  0  0  0  0  0
   -0.7615    1.3099    0.0000 O   0  0  0  0  0  0  0  0  0  0  0  0
   -1.4289    0.8250    0.0000 C   0  0  0  0  0  0  0  0  0  0  0  0
   -1.4289    0.0000    0.0000 O   0  0  0  0  0  0  0  0  0  0  0  0
   -0.7145   -0.4125    0.0000 C   0  0  0  0  0  0  0  0  0  0  0  0
   -0.7145   -1.2375    0.0000 C   0  0  0  0  0  0  0  0  0  0  0  0
    0.0000   -1.6500    0.0000 O   0  0  0  0  0  0  0  0  0  0  0  0
    0.7145   -1.2375    0.0000 C   0  0  0  0  0  0  0  0  0  0  0  0
    0.7145   -0.4125    0.0000 C   0  0  0  0  0  0  0  0  0  0  0  0
    0.0000   -0.0000    0.0000 C   0  0  0  0  0  0  0  0  0  0  0  0
    0.0000    0.8250    0.0000 O   0  0  0  0  0  0  0  0  0  0  0  0
    1.4289   -0.0000    0.0000 C   0  0  0  0  0  0  0  0  0  0  0  0
    1.4289    0.8250    0.0000 O   0  0  0  0  0  0  0  0  0  0  0  0
    2.1434   -0.4125    0.0000 C   0  0  0  0  0  0  0  0  0  0  0  0
    2.1434   -1.2375    0.0000 C   0  0  0  0  0  0  0  0  0  0  0  0
    2.8579   -1.6500    0.0000 O   0  0  0  0  0  0  0  0  0  0  0  0
    1.4289   -1.6500    0.0000 C   0  0  0  0  0  0  0  0  0  0  0  0
   -1.4289   -1.6500    0.0000 C   0  0  0  0  0  0  0  0  0  0  0  0
   -1.4289   -2.4750    0.0000 C   0  0  0  0  0  0  0  0  0  0  0  0
   -2.1434   -2.8875    0.0000 C   0  0  0  0  0  0  0  0  0  0  0  0
   -2.8579   -2.4750    0.0000 C   0  0  0  0  0  0  0  0  0  0  0  0
   -3.5724   -2.8875    0.0000 O   0  0  0  0  0  0  0  0  0  0  0  0
   -2.8579   -1.6500    0.0000 C   0  0  0  0  0  0  0  0  0  0  0  0
   -3.5724   -1.2375    0.0000 O   0  0  0  0  0  0  0  0  0  0  0  0
   -2.1434   -1.2375    0.0000 C   0  0  0  0  0  0  0  0  0  0  0  0
   -2.0964    1.3099    0.0000 C   0  0  0  0  0  0  0  0  0  0  0  0
   -2.8810    1.0550    0.0000 O   0  0  0  0  0  0  0  0  0  0  0  0
   -1.8414    2.0945    0.0000 C   0  0  0  0  0  0  0  0  0  0  0  0
   -2.3264    2.7620    0.0000 O   0  0  0  0  0  0  0  0  0  0  0  0
   -0.5315    2.7620    0.0000 C   0  0  0  0  0  0  0  0  0  0  0  0
   -0.8671    3.5157    0.0000 O   0  0  0  0  0  0  0  0  0  0  0  0
    0.2890    2.6757    0.0000 C   0  0  0  0  0  0  0  0  0  0  0  0
    0.7739    3.3432    0.0000 O   0  0  0  0  0  0  0  0  0  0  0  0
  1  2  1  1
  1 28  1  0
  1 30  1  0
  3  2  1  0
  3  4  1  1
  4  5  1  0
  5  6  2  0
  5 10  1  0
  6  7  1  0
  6 18  1  0
  7  8  1  0
  8  9  2  0
  8 17  1  0
  9 10  1  0
  9 12  1  0
 10 11  2  0
 12 13  1  0
 12 14  2  0
 14 15  1  0
 15 16  1  0
 15 17  2  0
 18 19  2  0
 18 25  1  0
 19 20  1  0
 20 21  2  0
 21 22  1  0
 21 23  1  0
 23 24  1  0
 23 25  2  0
 26  3  1  0
 26 27  1  6
 28 26  1  0
 28 29  1  1
 30 31  1  6
 30 32  1  0
 32 33  1  0
M  END
>  <DRUGBANK_ID>  (1) 
DB16403

>  <COMMON_NAME>  (1) 
Isoquercitrin

>  <CAS_NUMBER>  (1) 
21637-25-2

>  <UNII>  (1) 
0YX10VRV6J

>  <SYNONYMS>  (1) 
Isoquercetin enzymatically modified; Isoquercitroside; Isotrifoliin; Isotrifolin; Quercetin 3-(beta-D-glucofuranoside)

$$$$
