
     RDKit          2D

 21  0  0  0  0  0  0  0  0  0999 V2000
    4.8290   -6.4384    0.0000 Si  0  0  0  0  0  8  0  0  0  0  0  0
    2.5240   -6.4384    0.0000 Si  0  0  0  0  0  8  0  0  0  0  0  0
    0.2190   -6.4384    0.0000 Si  0  0  0  0  0  8  0  0  0  0  0  0
   -2.0860   -6.4384    0.0000 Si  0  0  0  0  0  8  0  0  0  0  0  0
   -4.3911   -6.4384    0.0000 Al  0  0  0  0  0 15  0  0  0  0  0  0
   -6.6961   -6.4384    0.0000 Mg  0  0  0  0  0 15  0  0  0  0  0  0
    0.0000   -2.6243    0.0000 O   0  0  0  0  0  0  0  0  0  0  0  0
    0.0000    0.7027    0.0000 O   0  0  0  0  0  0  0  0  0  0  0  0
    0.0000    4.0296    0.0000 O   0  0  0  0  0  0  0  0  0  0  0  0
    0.0000    7.3566    0.0000 O   0  0  0  0  0  0  0  0  0  0  0  0
    5.9815   -5.7730    0.0000 O   0  0  0  0  0  0  0  0  0  0  0  0
    3.6765   -7.1038    0.0000 O   0  0  0  0  0  0  0  0  0  0  0  0
    3.1893   -5.2859    0.0000 O   0  0  0  0  0  0  0  0  0  0  0  0
    1.8585   -7.5909    0.0000 O   0  0  0  0  0  0  0  0  0  0  0  0
    1.3715   -5.7730    0.0000 O   0  0  0  0  0  0  0  0  0  0  0  0
   -0.9335   -7.1038    0.0000 O   0  0  0  0  0  0  0  0  0  0  0  0
   -0.4463   -5.2859    0.0000 O   0  0  0  0  0  0  0  0  0  0  0  0
    0.8844   -7.5909    0.0000 O   0  0  0  0  0  0  0  0  0  0  0  0
   -3.2384   -5.7730    0.0000 O   0  0  0  0  0  0  0  0  0  0  0  0
   -5.5436   -5.7730    0.0000 O   0  0  0  0  0  0  0  0  0  0  0  0
   -4.3911   -7.7692    0.0000 O   0  0  0  0  0  0  0  0  0  0  0  0
M  CHG  8   1   4   2   4   3   4   4   4   5   3   6   2  11  -1  12  -2
M  CHG  8  13  -2  14  -2  15  -2  16  -2  17  -2  18  -2  19  -2  20  -2
M  CHG  1  21  -2
M  END
>  <DRUGBANK_ID>  (1) 
DB01574

>  <COMMON_NAME>  (1) 
Attapulgite

>  <CAS_NUMBER>  (1) 
12174-11-7

>  <UNII>  (1) 
U6V729APAM

>  <SYNONYMS>  (1) 
Activated attapulgite; Aluminium magnesium silicate (attapulgite); Attapulgite (activated); Attapulgite, activated; Attapulgite,activated; Attapulgus clay

$$$$
