
     RDKit          2D

 40 43  0  0  1  0  0  0  0  0999 V2000
   -3.6685   -0.7421    0.0000 C   0  0  0  0  0  0  0  0  0  0  0  0
   -3.1165   -0.1290    0.0000 C   0  0  0  0  0  0  0  0  0  0  0  0
   -3.7295    0.4230    0.0000 C   0  0  0  0  0  0  0  0  0  0  0  0
   -2.5644    0.4841    0.0000 C   0  0  0  0  0  0  0  0  0  0  0  0
   -2.8194    1.2687    0.0000 O   0  0  0  0  0  0  0  0  0  0  0  0
   -1.7575    0.3126    0.0000 N   0  0  0  0  0  0  0  0  0  0  0  0
   -1.2054    0.9256    0.0000 C   0  0  0  0  0  0  0  0  0  0  0  0
   -0.3984    0.7541    0.0000 C   0  0  0  0  0  0  0  0  0  0  0  0
   -0.1435   -0.0305    0.0000 C   0  0  0  0  0  0  0  0  0  0  0  0
   -0.6284   -0.6979    0.0000 C   0  0  0  0  0  0  0  0  0  0  0  0
   -0.1435   -1.3654    0.0000 N   0  0  0  0  0  0  0  0  0  0  0  0
    0.6411   -1.1104    0.0000 C   0  0  0  0  0  0  0  0  0  0  0  0
    0.6411   -0.2854    0.0000 C   0  0  0  0  0  0  0  0  0  0  0  0
    1.3556    0.1271    0.0000 C   0  0  0  0  0  0  0  0  0  0  0  0
    2.0701   -0.2854    0.0000 C   0  0  0  0  0  0  0  0  0  0  0  0
    2.0701   -1.1104    0.0000 C   0  0  0  0  0  0  0  0  0  0  0  0
    1.3556   -1.5229    0.0000 C   0  0  0  0  0  0  0  0  0  0  0  0
   -1.4604    1.7103    0.0000 C   0  0  0  0  0  0  0  0  0  0  0  0
   -2.2673    1.8818    0.0000 O   0  0  0  0  0  0  0  0  0  0  0  0
   -0.9083    2.3234    0.0000 N   0  0  0  0  0  0  0  0  0  0  0  0
   -0.1014    2.1518    0.0000 C   0  0  0  0  0  0  0  0  0  0  0  0
    0.4507    2.7649    0.0000 C   0  0  0  0  0  0  0  0  0  0  0  0
    0.1957    3.5496    0.0000 C   0  0  0  0  0  0  0  0  0  0  0  0
   -0.6112    3.7211    0.0000 C   0  0  0  0  0  0  0  0  0  0  0  0
   -1.1633    3.1080    0.0000 C   0  0  0  0  0  0  0  0  0  0  0  0
   -0.4680    4.5335    0.0000 C   0  0  0  0  0  0  0  0  0  0  0  0
    0.3073    4.8157    0.0000 C   0  0  0  0  0  0  0  0  0  0  0  0
    0.4505    5.6282    0.0000 C   0  0  0  0  0  0  0  0  0  0  0  0
    1.2258    5.9103    0.0000 C   0  0  0  0  0  0  0  0  0  0  0  0
    1.8578    5.3800    0.0000 C   0  0  0  0  0  0  0  0  0  0  0  0
    1.7145    4.5676    0.0000 C   0  0  0  0  0  0  0  0  0  0  0  0
    0.9393    4.2854    0.0000 C   0  0  0  0  0  0  0  0  0  0  0  0
   -1.2047    4.2942    0.0000 C   0  0  0  0  0  0  0  0  0  0  0  0
   -1.9977    4.0668    0.0000 O   0  0  0  0  0  0  0  0  0  0  0  0
   -1.0051    5.0947    0.0000 N   0  0  0  0  0  0  0  0  0  0  0  0
   -0.2121    5.3221    0.0000 C   0  0  0  0  0  0  0  0  0  0  0  0
   -1.5986    5.6678    0.0000 N   0  0  0  0  0  0  0  0  0  0  0  0
   -1.3990    6.4683    0.0000 C   0  0  0  0  0  0  0  0  0  0  0  0
   -2.3916    5.4404    0.0000 C   0  0  0  0  0  0  0  0  0  0  0  0
   -2.5034   -0.6810    0.0000 N   0  0  0  0  0  0  0  0  0  0  0  0
  1  2  1  0
  2  3  1  0
  2  4  1  0
  2 40  1  0
  4  5  2  0
  4  6  1  0
  7  6  1  0
  7  8  1  1
  7 18  1  0
  8  9  1  0
  9 10  2  0
  9 13  1  0
 10 11  1  0
 11 12  1  0
 12 13  2  0
 12 17  1  0
 13 14  1  0
 14 15  2  0
 15 16  1  0
 16 17  2  0
 18 19  2  0
 18 20  1  0
 20 21  1  0
 20 25  1  0
 21 22  1  0
 22 23  1  0
 23 24  1  0
 24 25  1  0
 24 26  1  6
 24 33  1  0
 26 27  1  0
 27 28  2  0
 27 32  1  0
 28 29  1  0
 29 30  2  0
 30 31  1  0
 31 32  2  0
 33 34  2  0
 33 35  1  0
 35 36  1  0
 35 37  1  0
 37 38  1  0
 37 39  1  0
M  END
>  <DRUGBANK_ID>  (1) 
DB06645

>  <COMMON_NAME>  (1) 
Anamorelin

>  <CAS_NUMBER>  (1) 
249921-19-5

>  <UNII>  (1) 
DD5RBA1NKF

>  <SYNONYMS>  (1) 
Anamorelin

$$$$
