N20
     RDKit          2D

 25 28  0  0  0  0  0  0  0  0999 V2000
   -0.0876    1.2232    0.0000 C   0  0  0  0  0  0  0  0  0  0  0  0
    0.6269    4.9357    0.0000 O   0  0  0  0  0  0  0  0  0  0  0  0
   -2.7861    0.8107    0.0000 C   0  0  0  0  0  0  0  0  0  0  0  0
   -0.0876   -1.2518    0.0000 C   0  0  0  0  0  0  0  0  0  0  0  0
   -0.0876   -2.0768    0.0000 C   0  0  0  0  0  0  0  0  0  0  0  0
    0.6269   -2.4893    0.0000 C   0  0  0  0  0  0  0  0  0  0  0  0
    0.6269   -3.3143    0.0000 C   0  0  0  0  0  0  0  0  0  0  0  0
   -0.0876   -3.7268    0.0000 C   0  0  0  0  0  0  0  0  0  0  0  0
   -0.8021   -3.3143    0.0000 C   0  0  0  0  0  0  0  0  0  0  0  0
   -0.8021   -2.4893    0.0000 C   0  0  0  0  0  0  0  0  0  0  0  0
   -0.0876    3.6982    0.0000 C   0  0  0  0  0  0  0  0  0  0  0  0
    0.6269    4.1107    0.0000 C   0  0  0  0  0  0  0  0  0  0  0  0
    1.3413    3.6982    0.0000 C   0  0  0  0  0  0  0  0  0  0  0  0
    1.3413    2.8732    0.0000 C   0  0  0  0  0  0  0  0  0  0  0  0
   -0.0876    0.3982    0.0000 N   0  0  0  0  0  0  0  0  0  0  0  0
   -0.8021   -0.0143    0.0000 C   0  0  0  0  0  0  0  0  0  0  0  0
   -0.8021   -0.8393    0.0000 O   0  0  0  0  0  0  0  0  0  0  0  0
   -1.5165    0.3982    0.0000 C   0  0  0  0  0  0  0  0  0  0  0  0
   -2.3012    0.1432    0.0000 N   0  0  0  0  0  0  0  0  0  0  0  0
   -2.3012    1.4781    0.0000 N   0  0  0  0  0  0  0  0  0  0  0  0
   -1.5165    1.2232    0.0000 C   0  0  0  0  0  0  0  0  0  0  0  0
   -0.8021    1.6357    0.0000 N   0  0  0  0  0  0  0  0  0  0  0  0
    0.6269    1.6357    0.0000 N   0  0  0  0  0  0  0  0  0  0  0  0
    0.6269    2.4607    0.0000 C   0  0  0  0  0  0  0  0  0  0  0  0
   -0.0876    2.8732    0.0000 C   0  0  0  0  0  0  0  0  0  0  0  0
  1 15  2  0
  1 22  1  0
  1 23  1  0
  2 12  1  0
  3 19  2  0
  3 20  1  0
  4  5  1  0
  4 17  1  0
  5  6  1  0
  5 10  1  0
  6  7  1  0
  7  8  1  0
  8  9  1  0
  9 10  1  0
 11 12  2  0
 11 25  1  0
 12 13  1  0
 13 14  2  0
 14 24  1  0
 15 16  1  0
 16 17  1  0
 16 18  2  0
 18 19  1  0
 18 21  1  0
 20 21  1  0
 21 22  2  0
 23 24  1  0
 24 25  2  0
M  END
>  <DRUGBANK_ID>  (1) 
DB08233

>  <COMMON_NAME>  (1) 
6-CYCLOHEXYLMETHYLOXY-2-(4'-HYDROXYANILINO)PURINE

$$$$
