
     RDKit          2D

 25 27  0  0  0  0  0  0  0  0999 V2000
   -2.1442    0.6137    0.0000 C   0  0  0  0  0  0  0  0  0  0  0  0
   -2.1454   -0.2135    0.0000 C   0  0  0  0  0  0  0  0  0  0  0  0
   -1.4306   -0.6263    0.0000 C   0  0  0  0  0  0  0  0  0  0  0  0
   -0.7141   -0.2131    0.0000 C   0  0  0  0  0  0  0  0  0  0  0  0
   -0.7170    0.6174    0.0000 C   0  0  0  0  0  0  0  0  0  0  0  0
   -1.4324    1.0266    0.0000 C   0  0  0  0  0  0  0  0  0  0  0  0
   -1.4348    1.8515    0.0000 O   0  0  0  0  0  0  0  0  0  0  0  0
   -2.8602   -0.6254    0.0000 O   0  0  0  0  0  0  0  0  0  0  0  0
   -1.4308   -1.4513    0.0000 Cl  0  0  0  0  0  0  0  0  0  0  0  0
   -0.0040    1.0327    0.0000 C   0  0  0  0  0  0  0  0  0  0  0  0
    0.7119    0.6228    0.0000 O   0  0  0  0  0  0  0  0  0  0  0  0
   -0.0071    1.8577    0.0000 O   0  0  0  0  0  0  0  0  0  0  0  0
    1.4249    1.0380    0.0000 C   0  0  0  0  0  0  0  0  0  0  0  0
    2.1409    0.6281    0.0000 C   0  0  0  0  0  0  0  0  0  0  0  0
    1.4217    1.8630    0.0000 C   0  0  0  0  0  0  0  0  0  0  0  0
    2.1440   -0.1967    0.0000 C   0  0  0  0  0  0  0  0  0  0  0  0
    2.8600   -0.6066    0.0000 C   0  0  0  0  0  0  0  0  0  0  0  0
    0.0009   -0.6243    0.0000 C   0  0  0  0  0  0  0  0  0  0  0  0
    0.0022   -1.4493    0.0000 C   0  0  0  0  0  0  0  0  0  0  0  0
    0.7174   -1.8608    0.0000 C   0  0  0  0  0  0  0  0  0  0  0  0
   -0.7115   -1.8630    0.0000 O   0  0  0  0  0  0  0  0  0  0  0  0
    1.4312   -1.4471    0.0000 C   0  0  0  0  0  0  0  0  0  0  0  0
    2.1463   -1.8586    0.0000 C   0  0  0  0  0  0  0  0  0  0  0  0
    2.8602   -1.4448    0.0000 C   0  0  0  0  0  0  0  0  0  0  0  0
    2.8529    0.2220    0.0000 O   0  0  0  0  0  0  0  0  0  0  0  0
  1  2  2  0
  2  8  1  0
  2  3  1  0
  3  4  2  0
  3  9  1  0
  4 18  1  0
  4  5  1  0
  5 10  1  0
  5  6  2  0
  6  7  1  0
  6  1  1  0
 10 11  1  0
 10 12  2  0
 11 13  1  0
 13 14  1  0
 13 15  1  6
 16 14  1  1
 16 25  1  0
 17 16  1  0
 17 24  1  6
 17 25  1  0
 18 19  1  0
 19 20  1  0
 19 21  2  0
 20 22  2  0
 22 23  1  0
 23 24  2  0
M  END
>  <DRUGBANK_ID>  (1) 
DB03758

>  <SECONDARY_ACCESSION_NUMBERS>  (1) 
EXPT02763

>  <COMMON_NAME>  (1) 
Radicicol

>  <CAS_NUMBER>  (1) 
12772-57-5

>  <UNII>  (1) 
I60EH8GECX

>  <SYNONYMS>  (1) 
Monorden

$$$$
