3G4
     RDKit          2D

 26 27  0  0  0  0  0  0  0  0999 V2000
   -4.3986    2.1336    0.0000 Cl  0  0  0  0  0  0  0  0  0  0  0  0
   -3.6841    2.5461    0.0000 C   0  0  0  0  0  0  0  0  0  0  0  0
   -3.6841    3.3711    0.0000 C   0  0  0  0  0  0  0  0  0  0  0  0
   -2.9696    3.7836    0.0000 C   0  0  0  0  0  0  0  0  0  0  0  0
   -2.2552    3.3711    0.0000 C   0  0  0  0  0  0  0  0  0  0  0  0
   -2.9696    2.1336    0.0000 C   0  0  0  0  0  0  0  0  0  0  0  0
   -2.9696    1.3086    0.0000 C   0  0  0  0  0  0  0  0  0  0  0  0
   -2.2552    2.5461    0.0000 C   0  0  0  0  0  0  0  0  0  0  0  0
   -1.5407    2.1336    0.0000 S   0  0  0  0  0  0  0  0  0  0  0  0
   -1.9532    1.4191    0.0000 O   0  0  0  0  0  0  0  0  0  0  0  0
   -1.1282    2.8481    0.0000 O   0  0  0  0  0  0  0  0  0  0  0  0
   -0.8262    1.7211    0.0000 N   0  0  0  0  0  0  0  0  0  0  0  0
   -0.8262    0.8961    0.0000 C   0  0  0  0  0  0  0  0  0  0  0  0
   -0.1117    0.4836    0.0000 N   0  0  0  0  0  0  0  0  0  0  0  0
   -1.5407    0.4836    0.0000 C   0  0  0  0  0  0  0  0  0  0  0  0
   -1.5407   -0.3414    0.0000 C   0  0  0  0  0  0  0  0  0  0  0  0
   -0.8262   -0.7539    0.0000 C   0  0  0  0  0  0  0  0  0  0  0  0
   -0.1117   -0.3414    0.0000 C   0  0  0  0  0  0  0  0  0  0  0  0
    0.6027   -0.7539    0.0000 C   0  0  0  0  0  0  0  0  0  0  0  0
    0.6027   -1.5789    0.0000 C   0  0  0  0  0  0  0  0  0  0  0  0
   -0.1117   -1.9914    0.0000 O   0  0  0  0  0  0  0  0  0  0  0  0
    1.3172   -1.9914    0.0000 N   0  0  0  0  0  0  0  0  0  0  0  0
    1.3172   -2.8164    0.0000 C   0  0  0  0  0  0  0  0  0  0  0  0
    2.0317   -3.2289    0.0000 C   0  0  0  0  0  0  0  0  0  0  0  0
    2.0317   -1.5789    0.0000 C   0  0  0  0  0  0  0  0  0  0  0  0
    2.7461   -1.9914    0.0000 C   0  0  0  0  0  0  0  0  0  0  0  0
  1  2  1  0
  2  3  2  0
  2  6  1  0
  3  4  1  0
  4  5  2  0
  5  8  1  0
  6  7  1  0
  6  8  2  0
  8  9  1  0
  9 10  2  0
  9 11  2  0
  9 12  1  0
 12 13  1  0
 13 14  2  0
 13 15  1  0
 14 18  1  0
 15 16  2  0
 16 17  1  0
 17 18  2  0
 18 19  1  0
 19 20  1  0
 20 21  2  0
 20 22  1  0
 22 23  1  0
 22 25  1  0
 23 24  1  0
 25 26  1  0
M  END
>  <DRUGBANK_ID>  (1) 
DB07056

>  <COMMON_NAME>  (1) 
2-(6-{[(3-chloro-2-methylphenyl)sulfonyl]amino}pyridin-2-yl)-N,N-diethylacetamide

$$$$
