D8W
     RDKit          2D

 19 20  0  0  0  0  0  0  0  0999 V2000
   -1.7584    0.3870    0.0000 C   0  0  0  0  0  0  0  0  0  0  0  0
   -2.4729    0.7995    0.0000 C   0  0  0  0  0  0  0  0  0  0  0  0
   -2.4729    1.6245    0.0000 C   0  0  0  0  0  0  0  0  0  0  0  0
   -1.7584    2.0370    0.0000 C   0  0  0  0  0  0  0  0  0  0  0  0
   -1.0439    1.6245    0.0000 C   0  0  0  0  0  0  0  0  0  0  0  0
   -1.0439    0.7995    0.0000 C   0  0  0  0  0  0  0  0  0  0  0  0
   -0.3295    0.3870    0.0000 S   0  0  0  0  0  0  0  0  0  0  0  0
   -0.7420   -0.3274    0.0000 O   0  0  0  0  0  0  0  0  0  0  0  0
    0.0830    1.1015    0.0000 O   0  0  0  0  0  0  0  0  0  0  0  0
    0.3850   -0.0255    0.0000 N   0  0  0  0  0  0  0  0  0  0  0  0
    0.3850   -0.8505    0.0000 C   0  0  0  0  0  0  0  0  0  0  0  0
    1.0524   -1.3354    0.0000 S   0  0  0  0  0  0  0  0  0  0  0  0
   -0.2824   -1.3354    0.0000 N   0  0  0  0  0  0  0  0  0  0  0  0
   -0.0275   -2.1200    0.0000 N   0  0  0  0  0  0  0  0  0  0  0  0
    0.7975   -2.1200    0.0000 C   0  0  0  0  0  0  0  0  0  0  0  0
    1.2824   -2.7874    0.0000 S   0  0  0  0  0  0  0  0  0  0  0  0
    1.7673   -3.4549    0.0000 O   0  0  0  0  0  0  0  0  0  0  0  0
    0.6150   -3.2724    0.0000 O   0  0  0  0  0  0  0  0  0  0  0  0
    1.9499   -2.3025    0.0000 N   0  0  0  0  0  0  0  0  0  0  0  0
  1  2  2  0
  1  6  1  0
  2  3  1  0
  3  4  2  0
  4  5  1  0
  5  6  2  0
  6  7  1  0
  7  8  2  0
  7  9  2  0
  7 10  1  0
 10 11  1  0
 11 12  1  0
 11 13  2  0
 12 15  1  0
 13 14  1  0
 14 15  2  0
 15 16  1  0
 16 17  2  0
 16 18  2  0
 16 19  1  0
M  END
>  <DRUGBANK_ID>  (1) 
DB07050

>  <COMMON_NAME>  (1) 
5-[(phenylsulfonyl)amino]-1,3,4-thiadiazole-2-sulfonamide

>  <UNII>  (1) 
FC5AAH89R5

$$$$
