TFL
     RDKit          2D

 20 22  0  0  0  0  0  0  0  0999 V2000
   -3.7271    0.2774    0.0000 C   0  0  0  0  0  0  0  0  0  0  0  0
   -3.3146    0.9919    0.0000 C   0  0  0  0  0  0  0  0  0  0  0  0
   -2.4896    0.9919    0.0000 C   0  0  0  0  0  0  0  0  0  0  0  0
   -2.0771    0.2774    0.0000 C   0  0  0  0  0  0  0  0  0  0  0  0
   -2.4896   -0.4371    0.0000 C   0  0  0  0  0  0  0  0  0  0  0  0
   -3.3146   -0.4371    0.0000 C   0  0  0  0  0  0  0  0  0  0  0  0
   -1.2521    0.2774    0.0000 C   0  0  0  0  0  0  0  0  0  0  0  0
   -0.7672   -0.3900    0.0000 N   0  0  0  0  0  0  0  0  0  0  0  0
    0.0175   -0.1351    0.0000 C   0  0  0  0  0  0  0  0  0  0  0  0
   -0.7672    0.9448    0.0000 S   0  0  0  0  0  0  0  0  0  0  0  0
    0.0175    0.6899    0.0000 C   0  0  0  0  0  0  0  0  0  0  0  0
    0.7319    1.1024    0.0000 C   0  0  0  0  0  0  0  0  0  0  0  0
    1.4464    0.6899    0.0000 C   0  0  0  0  0  0  0  0  0  0  0  0
    1.4464   -0.1351    0.0000 C   0  0  0  0  0  0  0  0  0  0  0  0
    0.7319   -0.5476    0.0000 C   0  0  0  0  0  0  0  0  0  0  0  0
    2.1609    1.1024    0.0000 O   0  0  0  0  0  0  0  0  0  0  0  0
   -4.5521    0.2774    0.0000 N   0  0  0  0  0  0  0  0  0  0  0  0
   -4.9646   -0.4371    0.0000 C   0  0  0  0  0  0  0  0  0  0  0  0
   -4.9646    0.9919    0.0000 C   0  0  0  0  0  0  0  0  0  0  0  0
   -1.0221   -1.1747    0.0000 C   0  0  0  0  0  0  0  0  0  0  0  0
  1  2  2  0
  1  6  1  0
  1 17  1  0
  2  3  1  0
  3  4  2  0
  4  5  1  0
  4  7  1  0
  5  6  2  0
  7  8  2  0
  7 10  1  0
  8  9  1  0
  8 20  1  0
  9 11  2  0
  9 15  1  0
 10 11  1  0
 11 12  1  0
 12 13  2  0
 13 14  1  0
 13 16  1  0
 14 15  2  0
 17 18  1  0
 17 19  1  0
M  CHG  1   8   1
M  END
>  <DRUGBANK_ID>  (1) 
DB08615

>  <COMMON_NAME>  (1) 
2-[4-(DIMETHYLAMINO)PHENYL]-6-HYDROXY-3-METHYL-1,3-BENZOTHIAZOL-3-IUM

$$$$
