
     RDKit          2D

 35 38  0  0  1  0  0  0  0  0999 V2000
   -1.2197  -10.0208    0.0000 C   0  0  0  0  0  0  0  0  0  0  0  0
   -1.2197   -9.1958    0.0000 O   0  0  0  0  0  0  0  0  0  0  0  0
   -1.9341   -8.7833    0.0000 C   0  0  0  0  0  0  0  0  0  0  0  0
   -1.9341   -7.9583    0.0000 C   0  0  0  0  0  0  0  0  0  0  0  0
   -1.2197   -7.5458    0.0000 C   0  0  0  0  0  0  0  0  0  0  0  0
   -2.6486   -7.5458    0.0000 O   0  0  0  0  0  0  0  0  0  0  0  0
   -2.6486   -6.7208    0.0000 C   0  0  0  0  0  0  0  0  0  0  0  0
   -3.3631   -6.3083    0.0000 C   0  0  0  0  0  0  0  0  0  0  0  0
   -3.3631   -5.4833    0.0000 C   0  0  0  0  0  0  0  0  0  0  0  0
   -2.6486   -5.0708    0.0000 C   0  0  0  0  0  0  0  0  0  0  0  0
   -1.9341   -5.4833    0.0000 C   0  0  0  0  0  0  0  0  0  0  0  0
   -1.2197   -5.0708    0.0000 O   0  0  0  0  0  0  0  0  0  0  0  0
   -0.5052   -5.4833    0.0000 C   0  0  0  0  0  0  0  0  0  0  0  0
    0.2093   -5.0708    0.0000 N   0  0  0  0  0  0  0  0  0  0  0  0
    0.9237   -5.4833    0.0000 C   0  0  0  0  0  0  0  0  0  0  0  0
    0.9237   -6.3083    0.0000 C   0  0  0  0  0  0  0  0  0  0  0  0
    0.2093   -6.7208    0.0000 N   0  0  0  0  0  0  0  0  0  0  0  0
   -0.5052   -6.3083    0.0000 C   0  0  0  0  0  0  0  0  0  0  0  0
    1.6382   -6.7208    0.0000 C   0  0  0  0  0  0  0  0  0  0  0  0
    2.3527   -6.3083    0.0000 O   0  0  0  0  0  0  0  0  0  0  0  0
    1.6382   -7.5458    0.0000 N   0  0  0  0  0  0  0  0  0  0  0  0
    2.2216   -8.1292    0.0000 C   0  0  0  0  0  0  0  0  0  0  0  0
    1.6382   -8.7125    0.0000 C   0  0  0  0  0  0  0  0  0  0  0  0
    1.0548   -8.1292    0.0000 C   0  0  0  0  0  0  0  0  0  0  0  0
   -1.9341   -6.3083    0.0000 C   0  0  0  0  0  0  0  0  0  0  0  0
   -4.0776   -5.0708    0.0000 C   0  0  0  0  0  0  0  0  0  0  0  0
   -4.0776   -4.2458    0.0000 O   0  0  0  0  0  0  0  0  0  0  0  0
   -4.7920   -5.4833    0.0000 N   0  0  0  0  0  0  0  0  0  0  0  0
   -5.5065   -5.0708    0.0000 C   0  0  0  0  0  0  0  0  0  0  0  0
   -6.2210   -5.4833    0.0000 N   0  0  0  0  0  0  0  0  0  0  0  0
   -6.9354   -5.0708    0.0000 C   0  0  0  0  0  0  0  0  0  0  0  0
   -6.9354   -4.2458    0.0000 C   0  0  0  0  0  0  0  0  0  0  0  0
   -7.6499   -3.8333    0.0000 C   0  0  0  0  0  0  0  0  0  0  0  0
   -6.2210   -3.8333    0.0000 N   0  0  0  0  0  0  0  0  0  0  0  0
   -5.5065   -4.2458    0.0000 C   0  0  0  0  0  0  0  0  0  0  0  0
  1  2  1  0
  2  3  1  0
  4  3  1  0
  4  5  1  1
  4  6  1  0
  6  7  1  0
  7  8  2  0
  7 25  1  0
  8  9  1  0
  9 10  2  0
  9 26  1  0
 10 11  1  0
 11 12  1  0
 11 25  2  0
 12 13  1  0
 13 14  2  0
 13 18  1  0
 14 15  1  0
 15 16  2  0
 16 17  1  0
 16 19  1  0
 17 18  2  0
 19 20  2  0
 19 21  1  0
 21 22  1  0
 21 24  1  0
 22 23  1  0
 23 24  1  0
 26 27  2  0
 26 28  1  0
 28 29  1  0
 29 30  2  0
 29 35  1  0
 30 31  1  0
 31 32  2  0
 32 33  1  0
 32 34  1  0
 34 35  2  0
M  END
>  <DRUGBANK_ID>  (1) 
DB14810

>  <COMMON_NAME>  (1) 
AZD-1656

>  <CAS_NUMBER>  (1) 
919783-22-5

>  <UNII>  (1) 
660M185X4D

$$$$
