
     RDKit          2D

 22 24  0  0  0  0  0  0  0  0999 V2000
    0.6410   -0.2132    0.0000 C   0  0  0  0  0  0  0  0  0  0  0  0
    0.1430    0.4357    0.0000 N   0  0  0  0  0  0  0  0  0  0  0  0
    0.6277    1.1031    0.0000 C   0  0  0  0  0  0  0  0  0  0  0  0
    0.3735    1.8925    0.0000 O   0  0  0  0  0  0  0  0  0  0  0  0
    1.4197    0.8516    0.0000 C   0  0  0  0  0  0  0  0  0  0  0  0
    1.4197    0.0517    0.0000 C   0  0  0  0  0  0  0  0  0  0  0  0
    2.1456   -0.3800    0.0000 C   0  0  0  0  0  0  0  0  0  0  0  0
    2.8581    0.0517    0.0000 C   0  0  0  0  0  0  0  0  0  0  0  0
    2.8581    0.8727    0.0000 C   0  0  0  0  0  0  0  0  0  0  0  0
    2.1456    1.2701    0.0000 C   0  0  0  0  0  0  0  0  0  0  0  0
   -0.0661   -0.6291    0.0000 C   0  0  0  0  0  0  0  0  0  0  0  0
   -0.7946   -0.2238    0.0000 C   0  0  0  0  0  0  0  0  0  0  0  0
   -1.5045   -0.6423    0.0000 C   0  0  0  0  0  0  0  0  0  0  0  0
   -2.2302   -0.2423    0.0000 S   0  0  0  0  0  0  0  0  0  0  0  0
   -1.7853    0.3377    0.0000 O   0  0  0  0  0  0  0  0  0  0  0  0
   -2.8581    0.1788    0.0000 O   0  0  0  0  0  0  0  0  0  0  0  0
   -2.7176   -0.8329    0.0000 N   0  0  0  0  0  0  0  0  0  0  0  0
   -1.5045   -1.4766    0.0000 C   0  0  0  0  0  0  0  0  0  0  0  0
   -0.7814   -1.8846    0.0000 C   0  0  0  0  0  0  0  0  0  0  0  0
   -0.0661   -1.4766    0.0000 C   0  0  0  0  0  0  0  0  0  0  0  0
   -2.2170   -1.8925    0.0000 Cl  0  0  0  0  0  0  0  0  0  0  0  0
    1.1284   -0.8516    0.0000 O   0  0  0  0  0  0  0  0  0  0  0  0
  1 22  1  6
  2  1  1  0
  3  2  1  0
  3  5  1  0
  4  3  2  0
  5  6  2  0
  6  1  1  0
  7  6  1  0
  8  7  2  0
  9  8  1  0
 10  9  2  0
 10  5  1  0
 11  1  1  0
 12 11  2  0
 13 12  1  0
 13 18  2  0
 14 13  1  0
 15 14  2  0
 16 14  2  0
 17 14  1  0
 18 19  1  0
 19 20  2  0
 20 11  1  0
 21 18  1  0
M  END
>  <DRUGBANK_ID>  (1) 
DB08046

>  <COMMON_NAME>  (1) 
2-chloro-5-[(1S)-1-hydroxy-3-oxo-2H-isoindol-1-yl]benzenesulfonamide

>  <CAS_NUMBER>  (1) 
1441368-51-9

>  <UNII>  (1) 
0953RA202M

$$$$
