
     RDKit          2D

 31 33  0  0  1  0  0  0  0  0999 V2000
    1.5470    6.0974    0.0000 C   0  0  0  0  0  0  0  0  0  0  0  0
   -0.5450    1.6112    0.0000 C   0  0  0  0  0  0  0  0  0  0  0  0
   -0.1963    2.3589    0.0000 C   0  0  0  0  0  0  0  0  0  0  0  0
    3.0304    2.6078    0.0000 C   0  0  0  0  0  0  0  0  0  0  0  0
    2.2054    2.6078    0.0000 C   0  0  0  0  0  0  0  0  0  0  0  0
    0.7501    1.0073    0.0000 C   0  0  0  0  0  0  0  0  0  0  0  0
   -0.4454    5.2059    0.0000 C   0  0  0  0  0  0  0  0  0  0  0  0
    3.0911    3.9981    0.0000 C   0  0  0  0  0  0  0  0  0  0  0  0
    4.2616    3.1785    0.0000 C   0  0  0  0  0  0  0  0  0  0  0  0
   -0.0718    0.9354    0.0000 C   0  0  0  0  0  0  0  0  0  0  0  0
    3.9130    3.9262    0.0000 C   0  0  0  0  0  0  0  0  0  0  0  0
    1.0987    1.7550    0.0000 C   0  0  0  0  0  0  0  0  0  0  0  0
   -0.7941    4.4582    0.0000 C   0  0  0  0  0  0  0  0  0  0  0  0
    0.6255    2.4308    0.0000 C   0  0  0  0  0  0  0  0  0  0  0  0
    0.3765    5.2778    0.0000 C   0  0  0  0  0  0  0  0  0  0  0  0
   -0.3209    3.7824    0.0000 C   0  0  0  0  0  0  0  0  0  0  0  0
    0.8497    4.6020    0.0000 C   0  0  0  0  0  0  0  0  0  0  0  0
    0.5010    3.8543    0.0000 C   0  0  0  0  0  0  0  0  0  0  0  0
    2.6179    3.3223    0.0000 C   0  0  0  0  0  0  0  0  0  0  0  0
    1.9206    1.8269    0.0000 F   0  0  0  0  0  0  0  0  0  0  0  0
   -1.6159    4.3863    0.0000 F   0  0  0  0  0  0  0  0  0  0  0  0
   -0.6695    3.0347    0.0000 F   0  0  0  0  0  0  0  0  0  0  0  0
   -0.4204    0.1877    0.0000 I   0  0  0  0  0  0  0  0  0  0  0  0
    0.9742    3.1785    0.0000 N   0  0  0  0  0  0  0  0  0  0  0  0
    1.6715    4.6739    0.0000 N   0  0  0  0  0  0  0  0  0  0  0  0
    5.0835    3.1066    0.0000 O   0  0  0  0  0  0  0  0  0  0  0  0
    4.3862    4.6020    0.0000 O   0  0  0  0  0  0  0  0  0  0  0  0
    1.4689    3.5249    0.0000 O   0  0  0  0  0  0  0  0  0  0  0  0
    2.8205    4.4713    0.0000 O   0  0  0  0  0  0  0  0  0  0  0  0
    0.7251    6.0255    0.0000 O   0  0  0  0  0  0  0  0  0  0  0  0
    2.1447    3.9981    0.0000 S   0  0  0  0  0  0  0  0  0  0  0  0
  3  2  2  0
  5  4  1  0
 10  2  1  0
 10  6  2  0
 11  8  1  0
 11  9  1  0
 11 27  1  6
 12  6  1  0
 13  7  2  0
 14  3  1  0
 14 12  2  0
 15  7  1  0
 16 13  1  0
 17 15  2  0
 18 16  2  0
 18 17  1  0
 19  4  1  0
 19  5  1  0
 19  8  1  0
 20 12  1  0
 21 13  1  0
 22 16  1  0
 23 10  1  0
 24 14  1  0
 24 18  1  0
 25 17  1  0
 26  9  1  0
 30  1  1  0
 30 15  1  0
 31 19  1  0
 31 25  1  0
 31 28  2  0
 31 29  2  0
M  END
>  <DRUGBANK_ID>  (1) 
DB06309

>  <COMMON_NAME>  (1) 
Refametinib

>  <CAS_NUMBER>  (1) 
923032-37-5

>  <UNII>  (1) 
JPX07AFM0N

>  <SYNONYMS>  (1) 
Refametinib

$$$$
