
     RDKit          2D

 19 21  0  0  0  0  0  0  0  0999 V2000
   -1.7861    0.8250    0.0000 C   0  0  0  0  0  0  0  0  0  0  0  0
   -1.7861    1.6500    0.0000 C   0  0  0  0  0  0  0  0  0  0  0  0
   -1.0717    0.4125    0.0000 C   0  0  0  0  0  0  0  0  0  0  0  0
   -1.0717    2.0625    0.0000 C   0  0  0  0  0  0  0  0  0  0  0  0
   -0.3572   -0.8250    0.0000 C   0  0  0  0  0  0  0  0  0  0  0  0
    1.0717    0.8250    0.0000 C   0  0  0  0  0  0  0  0  0  0  0  0
   -0.3572   -1.6500    0.0000 C   0  0  0  0  0  0  0  0  0  0  0  0
    1.0717    1.6500    0.0000 C   0  0  0  0  0  0  0  0  0  0  0  0
    1.0717   -0.8250    0.0000 C   0  0  0  0  0  0  0  0  0  0  0  0
    0.3572   -0.4125    0.0000 C   0  0  0  0  0  0  0  0  0  0  0  0
    0.3572    0.4125    0.0000 C   0  0  0  0  0  0  0  0  0  0  0  0
   -0.3572    0.8250    0.0000 C   0  0  0  0  0  0  0  0  0  0  0  0
   -0.3572    1.6500    0.0000 C   0  0  0  0  0  0  0  0  0  0  0  0
    0.3572   -2.0625    0.0000 C   0  0  0  0  0  0  0  0  0  0  0  0
    1.0717   -1.6500    0.0000 C   0  0  0  0  0  0  0  0  0  0  0  0
    0.3572    2.0625    0.0000 C   0  0  0  0  0  0  0  0  0  0  0  0
    0.3572   -2.8875    0.0000 Cl  0  0  0  0  0  0  0  0  0  0  0  0
    1.7861   -2.0625    0.0000 Cl  0  0  0  0  0  0  0  0  0  0  0  0
    0.3572    2.8875    0.0000 N   0  0  0  0  0  0  0  0  0  0  0  0
  2  1  2  0
  3  1  1  0
  4  2  1  0
  7  5  2  0
  8  6  1  0
 10  5  1  0
 10  9  2  0
 11  6  1  0
 11 10  1  1
 11 12  1  0
 12  3  2  0
 13  4  2  0
 13 12  1  0
 14  7  1  0
 15  9  1  0
 15 14  2  0
 16  8  1  0
 16 13  1  0
 16 19  1  1
 17 14  1  0
 18 15  1  0
M  END
>  <DRUGBANK_ID>  (1) 
DB14071

>  <COMMON_NAME>  (1) 
Desmethylsertraline

>  <CAS_NUMBER>  (1) 
87857-41-8

>  <UNII>  (1) 
CJJ71O9BE8

>  <SYNONYMS>  (1) 
Demethylsertraline; N-Demethylsertraline; N-Desmethylsertraline; Norsertraline

$$$$
