
     RDKit          2D

 11 11  0  0  0  0  0  0  0  0999 V2000
    0.0000    0.4037    0.0000 C   0  0  0  0  0  0  0  0  0  0  0  0
   -0.7127    0.8109    0.0000 C   0  0  0  0  0  0  0  0  0  0  0  0
    0.0000   -0.4248    0.0000 C   0  0  0  0  0  0  0  0  0  0  0  0
    0.7127    0.8302    0.0000 N   0  0  0  0  0  0  0  0  0  0  0  0
   -1.4254    0.3896    0.0000 C   0  0  0  0  0  0  0  0  0  0  0  0
   -0.7127    1.6343    0.0000 O   0  0  0  0  0  0  0  0  0  0  0  0
   -0.7127   -0.8320    0.0000 C   0  0  0  0  0  0  0  0  0  0  0  0
    0.7127    1.6572    0.0000 O   0  0  0  0  0  0  0  0  0  0  0  0
    1.4254    0.4230    0.0000 O   0  0  0  0  0  0  0  0  0  0  0  0
   -1.4167   -0.4353    0.0000 C   0  0  0  0  0  0  0  0  0  0  0  0
   -0.7127   -1.6572    0.0000 C   0  0  0  0  0  0  0  0  0  0  0  0
  1  2  2  0
  1  3  1  0
  1  4  1  0
  2  5  1  0
  2  6  1  0
  3  7  2  0
  4  8  2  0
  4  9  1  0
  5 10  2  0
  7 11  1  0
  7 10  1  0
M  CHG  2   4   1   9  -1
M  END
>  <DRUGBANK_ID>  (1) 
DB04110

>  <SECONDARY_ACCESSION_NUMBERS>  (1) 
EXPT02314

>  <COMMON_NAME>  (1) 
2-Nitro-4-cresol

>  <CAS_NUMBER>  (1) 
119-33-5

>  <UNII>  (1) 
P92KPK2NL3

>  <SYNONYMS>  (1) 
2-Nitro-4-methylphenol; 2-Nitro-P-cresol; o-Nitro-p-cresol

$$$$
