
     RDKit          2D

 27 30  0  0  0  0  0  0  0  0999 V2000
    0.1138   -0.9052    0.0000 N   0  0  0  0  0  0  0  0  0  0  0  0
    0.1138   -1.7309    0.0000 C   0  0  0  0  0  0  0  0  0  0  0  0
    0.8258   -2.1375    0.0000 N   0  0  0  0  0  0  0  0  0  0  0  0
    1.5345   -1.7309    0.0000 C   0  0  0  0  0  0  0  0  0  0  0  0
    2.2433   -2.1423    0.0000 N   0  0  0  0  0  0  0  0  0  0  0  0
    2.9601   -1.7368    0.0000 N   0  0  0  0  0  0  0  0  0  0  0  0
    2.9636   -0.9112    0.0000 C   0  0  0  0  0  0  0  0  0  0  0  0
    0.8258   -0.4860    0.0000 C   0  0  0  0  0  0  0  0  0  0  0  0
    1.5372   -0.8993    0.0000 C   0  0  0  0  0  0  0  0  0  0  0  0
    2.2479   -0.4933    0.0000 C   0  0  0  0  0  0  0  0  0  0  0  0
    1.8156    0.4042    0.0000 C   0  0  0  0  0  0  0  0  0  0  0  0
    0.9980    0.3179    0.0000 N   0  0  0  0  0  0  0  0  0  0  0  0
    3.6838   -0.4985    0.0000 N   0  0  0  0  0  0  0  0  0  0  0  0
    2.2385   -2.9681    0.0000 C   0  0  0  0  0  0  0  0  0  0  0  0
    0.4429    0.9307    0.0000 C   0  0  0  0  0  0  0  0  0  0  0  0
    0.6153    1.7358    0.0000 C   0  0  0  0  0  0  0  0  0  0  0  0
   -0.0992    2.1470    0.0000 C   0  0  0  0  0  0  0  0  0  0  0  0
   -0.7120    1.5959    0.0000 C   0  0  0  0  0  0  0  0  0  0  0  0
   -0.3787    0.8419    0.0000 O   0  0  0  0  0  0  0  0  0  0  0  0
   -1.5195    1.7686    0.0000 C   0  0  0  0  0  0  0  0  0  0  0  0
   -2.0749    1.1563    0.0000 O   0  0  0  0  0  0  0  0  0  0  0  0
    1.3693    2.0733    0.0000 O   0  0  0  0  0  0  0  0  0  0  0  0
   -0.1856    2.9681    0.0000 O   0  0  0  0  0  0  0  0  0  0  0  0
   -2.8825    1.3249    0.0000 P   0  0  0  0  0  0  0  0  0  0  0  0
   -3.6838    1.5468    0.0000 O   0  0  0  0  0  0  0  0  0  0  0  0
   -3.0752    0.5228    0.0000 O   0  0  0  0  0  0  0  0  0  0  0  0
   -2.6802    2.1256    0.0000 O   0  0  0  0  0  0  0  0  0  0  0  0
  1  2  2  0
  1  8  1  0
  2  3  1  0
  3  4  2  0
  4  5  1  0
  5 14  1  0
  5  6  1  0
  6  7  2  0
  7 13  1  0
  7 10  1  0
  8  9  2  0
  9  4  1  0
  9 10  1  0
 10 11  2  0
 11 12  1  0
 12  8  1  0
 15 12  1  6
 15 16  1  0
 16 17  1  0
 16 22  1  1
 17 18  1  0
 17 23  1  1
 18 19  1  0
 18 20  1  6
 19 15  1  0
 20 21  1  0
 21 24  1  0
 24 25  1  0
 24 26  2  0
 24 27  1  0
M  END
>  <DRUGBANK_ID>  (1) 
DB14636

>  <SECONDARY_ACCESSION_NUMBERS>  (1) 
DBSALT002190

>  <COMMON_NAME>  (1) 
Triciribine phosphate

>  <CAS_NUMBER>  (1) 
61966-08-3

>  <UNII>  (1) 
5L5GE3DV88

>  <SYNONYMS>  (1) 
3-AMINO-1,5-DIHYDRO-5-METHYL-1-.BETA.-D-RIBOFURANOSYL-1,4,5,6,8-PENTAAZAACENAPHTHYLENE 5'-(DIHYDROGEN PHOSPHATE); Pentaazaacenaphthylene-5' phosphate ester; TCN-P; Triciribine phosphate

$$$$
