2NI
     RDKit          2D

 23 24  0  0  0  0  0  0  0  0999 V2000
   -1.4329    0.5298    0.0000 C   0  0  0  0  0  0  0  0  0  0  0  0
   -0.7184    0.9423    0.0000 C   0  0  0  0  0  0  0  0  0  0  0  0
   -0.0039    0.5298    0.0000 C   0  0  0  0  0  0  0  0  0  0  0  0
   -0.0039   -0.2952    0.0000 C   0  0  0  0  0  0  0  0  0  0  0  0
   -0.7184   -0.7077    0.0000 C   0  0  0  0  0  0  0  0  0  0  0  0
   -1.4329   -0.2952    0.0000 C   0  0  0  0  0  0  0  0  0  0  0  0
   -2.1473   -0.7077    0.0000 C   0  0  0  0  0  0  0  0  0  0  0  0
   -2.1473   -1.5327    0.0000 C   0  0  0  0  0  0  0  0  0  0  0  0
   -2.8618   -1.9452    0.0000 C   0  0  0  0  0  0  0  0  0  0  0  0
   -3.5763   -1.5327    0.0000 C   0  0  0  0  0  0  0  0  0  0  0  0
   -3.5763   -0.7077    0.0000 C   0  0  0  0  0  0  0  0  0  0  0  0
   -2.8618   -0.2952    0.0000 C   0  0  0  0  0  0  0  0  0  0  0  0
   -4.2907   -1.9452    0.0000 C   0  0  0  0  0  0  0  0  0  0  0  0
   -5.0052   -2.3577    0.0000 N   0  0  0  0  0  0  0  0  0  0  0  0
    0.7106    0.9423    0.0000 O   0  0  0  0  0  0  0  0  0  0  0  0
    1.4250    0.5298    0.0000 C   0  0  0  0  0  0  0  0  0  0  0  0
    2.1395    0.9423    0.0000 C   0  0  0  0  0  0  0  0  0  0  0  0
    2.8540    0.5298    0.0000 N   0  0  0  0  0  0  0  0  0  0  0  0
    2.8540   -0.2952    0.0000 C   0  0  0  0  0  0  0  0  0  0  0  0
    3.5684    0.9423    0.0000 C   0  0  0  0  0  0  0  0  0  0  0  0
    3.5684    1.7673    0.0000 O   0  0  0  0  0  0  0  0  0  0  0  0
    4.2829    0.5298    0.0000 N   0  0  0  0  0  0  0  0  0  0  0  0
    4.9974    0.9423    0.0000 O   0  0  0  0  0  0  0  0  0  0  0  0
  1  2  2  0
  1  6  1  0
  2  3  1  0
  3  4  2  0
  3 15  1  0
  4  5  1  0
  5  6  2  0
  6  7  1  0
  7  8  2  0
  7 12  1  0
  8  9  1  0
  9 10  2  0
 10 11  1  0
 10 13  1  0
 11 12  2  0
 13 14  3  0
 15 16  1  0
 16 17  1  0
 17 18  1  0
 18 19  1  0
 18 20  1  0
 20 21  2  0
 20 22  1  0
 22 23  1  0
M  END
>  <DRUGBANK_ID>  (1) 
DB06971

>  <COMMON_NAME>  (1) 
N-{2-[(4'-CYANO-1,1'-BIPHENYL-4-YL)OXY]ETHYL}-N'-HYDROXY-N-METHYLUREA

$$$$
