
     RDKit          2D

 38 38  0  0  1  0  0  0  0  0999 V2000
   -6.7834   -2.4770    0.0000 O   0  0  0  0  0  0  0  0  0  0  0  0
   -7.4977   -2.0641    0.0000 C   0  0  0  0  0  0  0  0  0  0  0  0
   -7.4977   -1.2431    0.0000 C   0  0  0  0  0  0  0  0  0  0  0  0
   -6.7881   -0.8257    0.0000 O   0  0  0  0  0  0  0  0  0  0  0  0
   -6.0738   -1.2431    0.0000 C   0  0  0  0  0  0  0  0  0  0  0  0
   -5.3548   -0.8350    0.0000 P   0  0  0  0  0  0  0  0  0  0  0  0
   -4.6452   -1.2477    0.0000 O   0  0  0  0  0  0  0  0  0  0  0  0
   -3.9262   -0.8350    0.0000 C   0  0  0  0  0  0  0  0  0  0  0  0
   -3.2167   -1.2525    0.0000 C   0  0  0  0  0  0  0  0  0  0  0  0
   -2.4977   -0.8397    0.0000 C   0  0  0  0  0  0  0  0  0  0  0  0
   -1.7881   -1.2525    0.0000 O   0  0  0  0  0  0  0  0  0  0  0  0
   -1.0691   -0.8397    0.0000 C   0  0  0  0  0  0  0  0  0  0  0  0
   -0.3549   -1.2525    0.0000 C   0  0  0  0  0  0  0  0  0  0  0  0
    0.3594   -0.8397    0.0000 C   0  0  0  0  0  0  0  0  0  0  0  0
    1.0736   -1.2525    0.0000 C   0  0  0  0  0  0  0  0  0  0  0  0
    1.7879   -0.8397    0.0000 C   0  0  0  0  0  0  0  0  0  0  0  0
    2.5021   -1.2525    0.0000 C   0  0  0  0  0  0  0  0  0  0  0  0
    3.2165   -0.8397    0.0000 C   0  0  0  0  0  0  0  0  0  0  0  0
    3.9307   -1.2525    0.0000 C   0  0  0  0  0  0  0  0  0  0  0  0
    4.6451   -0.8397    0.0000 C   0  0  0  0  0  0  0  0  0  0  0  0
    5.3593   -1.2525    0.0000 C   0  0  0  0  0  0  0  0  0  0  0  0
    6.0736   -0.8397    0.0000 C   0  0  0  0  0  0  0  0  0  0  0  0
    6.7878   -1.2525    0.0000 C   0  0  0  0  0  0  0  0  0  0  0  0
    7.5022   -0.8395    0.0000 C   0  0  0  0  0  0  0  0  0  0  0  0
    8.2164   -1.2571    0.0000 C   0  0  0  0  0  0  0  0  0  0  0  0
    8.9307   -0.8490    0.0000 C   0  0  0  0  0  0  0  0  0  0  0  0
    9.6450   -1.2617    0.0000 C   0  0  0  0  0  0  0  0  0  0  0  0
   -4.9467   -0.1161    0.0000 O   0  0  0  0  0  0  0  0  0  0  0  0
   -5.7723   -0.1161    0.0000 O   0  0  0  0  0  0  0  0  0  0  0  0
   -8.2124   -0.8304    0.0000 C   0  0  0  0  0  0  0  0  0  0  0  0
   -8.2124   -0.0032    0.0000 N   0  0  0  0  0  0  0  0  0  0  0  0
   -8.9293    0.4101    0.0000 C   0  0  0  0  0  0  0  0  0  0  0  0
   -8.9293    1.2382    0.0000 N   0  0  0  0  0  0  0  0  0  0  0  0
   -8.2144    1.6514    0.0000 C   0  0  0  0  0  0  0  0  0  0  0  0
   -7.4936    1.2424    0.0000 C   0  0  0  0  0  0  0  0  0  0  0  0
   -7.4936    0.4105    0.0000 C   0  0  0  0  0  0  0  0  0  0  0  0
   -8.2144    2.4769    0.0000 N   0  0  0  0  0  0  0  0  0  0  0  0
   -9.6450   -0.0029    0.0000 O   0  0  0  0  0  0  0  0  0  0  0  0
  2  1  1  0
  3  2  1  6
  3  4  1  0
  4  5  1  0
  5  6  1  0
  6  7  1  0
  6 28  2  0
  6 29  1  0
  7  8  1  0
  8  9  1  0
  9 10  1  0
 10 11  1  0
 11 12  1  0
 12 13  1  0
 13 14  1  0
 14 15  1  0
 15 16  1  0
 16 17  1  0
 17 18  1  0
 18 19  1  0
 19 20  1  0
 20 21  1  0
 21 22  1  0
 22 23  1  0
 23 24  1  0
 24 25  1  0
 25 26  1  0
 26 27  1  0
 30  3  1  0
 31 30  1  0
 31 36  1  0
 32 31  1  0
 32 38  2  0
 33 32  1  0
 34 33  2  0
 34 37  1  0
 35 34  1  0
 36 35  2  0
M  END
>  <DRUGBANK_ID>  (1) 
DB12151

>  <SECONDARY_ACCESSION_NUMBERS>  (1) 
DB05176

>  <COMMON_NAME>  (1) 
Brincidofovir

>  <CAS_NUMBER>  (1) 
444805-28-1

>  <UNII>  (1) 
6794O900AX

>  <SYNONYMS>  (1) 
Brincidofovir; Cidofovir hexadecyloxypropyl ester

$$$$
