
     RDKit          2D

 19 19  0  0  1  0  0  0  0  0999 V2000
    1.4318    0.6764    0.0000 C   0  0  0  0  0  0  0  0  0  0  0  0
    1.4318   -0.1486    0.0000 C   0  0  0  0  0  0  0  0  0  0  0  0
    0.7172    1.0889    0.0000 O   0  0  0  0  0  0  0  0  0  0  0  0
    0.7172   -0.5611    0.0000 C   0  0  0  0  0  0  0  0  0  0  0  0
    0.0027    0.6764    0.0000 C   0  0  0  0  0  0  0  0  0  0  0  0
    0.0027   -0.1486    0.0000 C   0  0  0  0  0  0  0  0  0  0  0  0
    2.1463    1.0889    0.0000 O   0  0  0  0  0  0  0  0  0  0  0  0
    2.1463   -0.5611    0.0000 N   0  0  0  0  0  0  0  0  0  0  0  0
    0.7172   -1.3862    0.0000 O   0  0  0  0  0  0  0  0  0  0  0  0
   -0.7118   -0.5611    0.0000 O   0  0  0  0  0  0  0  0  0  0  0  0
   -0.7118    1.0889    0.0000 C   0  0  0  0  0  0  0  0  0  0  0  0
   -1.4263    0.6764    0.0000 O   0  0  0  0  0  0  0  0  0  0  0  0
    2.1463   -1.3862    0.0000 C   0  0  0  0  0  0  0  0  0  0  0  0
    2.8607   -1.7988    0.0000 O   0  0  0  0  0  0  0  0  0  0  0  0
    1.4317   -1.7987    0.0000 C   0  0  0  0  0  0  0  0  0  0  0  0
   -2.1450    1.0840    0.0000 S   0  0  0  0  0  0  0  0  0  0  0  0
   -2.8607    0.6764    0.0000 O   0  0  0  0  0  0  0  0  0  0  0  0
   -2.5582    1.7981    0.0000 O   0  0  0  0  0  0  0  0  0  0  0  0
   -1.7331    1.7988    0.0000 O   0  0  0  0  0  0  0  0  0  0  0  0
  1  2  1  0
  1  3  1  0
  1  7  1  1
  2  4  1  0
  2  8  1  6
  3  5  1  0
  4  6  1  0
  4  9  1  1
  5  6  1  0
  5 11  1  1
  6 10  1  1
  8 13  1  0
 12 11  1  0
 12 16  1  0
 14 13  2  0
 15 13  1  0
 16 17  1  0
 18 16  2  0
 19 16  2  0
M  END
>  <DRUGBANK_ID>  (1) 
DB02186

>  <SECONDARY_ACCESSION_NUMBERS>  (1) 
EXPT02335

>  <COMMON_NAME>  (1) 
N-acetyl-beta-D-galactosamine 6-sulfate

>  <CAS_NUMBER>  (1) 
157296-99-6

>  <SYNONYMS>  (1) 
2-(acetylamino)-2-deoxy-6-O-sulfo-β-D-galactopyranose; N-Acetyl-D-galactosamine 6-sulfate; N-acetyl-β-D-galactosamine 6-sulfate; β-D-GalpNAc6S

$$$$
