
     RDKit          2D

 29 33  0  0  0  0  0  0  0  0999 V2000
    3.6069    3.7993    0.0000 C   0  0  0  0  0  0  0  0  0  0  0  0
    3.5747    2.9750    0.0000 N   0  0  0  0  0  0  0  0  0  0  0  0
    4.3035    2.5883    0.0000 C   0  0  0  0  0  0  0  0  0  0  0  0
    4.4555    1.7774    0.0000 C   0  0  0  0  0  0  0  0  0  0  0  0
    5.2160    1.4576    0.0000 N   0  0  0  0  0  0  0  0  0  0  0  0
    5.1469    0.6355    0.0000 N   0  0  0  0  0  0  0  0  0  0  0  0
    4.3436    0.4472    0.0000 C   0  0  0  0  0  0  0  0  0  0  0  0
    4.0238   -0.3133    0.0000 C   0  0  0  0  0  0  0  0  0  0  0  0
    4.5225   -0.9705    0.0000 C   0  0  0  0  0  0  0  0  0  0  0  0
    4.2027   -1.7310    0.0000 C   0  0  0  0  0  0  0  0  0  0  0  0
    3.3842   -1.8342    0.0000 C   0  0  0  0  0  0  0  0  0  0  0  0
    2.8855   -1.1770    0.0000 C   0  0  0  0  0  0  0  0  0  0  0  0
    3.2053   -0.4165    0.0000 C   0  0  0  0  0  0  0  0  0  0  0  0
    3.0644   -2.5947    0.0000 O   0  0  0  0  0  0  0  0  0  0  0  0
    2.2459   -2.6980    0.0000 C   0  0  0  0  0  0  0  0  0  0  0  0
    1.9261   -3.4585    0.0000 N   0  0  0  0  0  0  0  0  0  0  0  0
    1.1076   -3.5618    0.0000 C   0  0  0  0  0  0  0  0  0  0  0  0
    0.6089   -2.9046    0.0000 C   0  0  0  0  0  0  0  0  0  0  0  0
    0.9287   -2.1441    0.0000 C   0  0  0  0  0  0  0  0  0  0  0  0
    1.7472   -2.0408    0.0000 C   0  0  0  0  0  0  0  0  0  0  0  0
    3.9164    1.1530    0.0000 N   0  0  0  0  0  0  0  0  0  0  0  0
    3.0920    1.1852    0.0000 C   0  0  0  0  0  0  0  0  0  0  0  0
    2.7608    0.4296    0.0000 C   0  0  0  0  0  0  0  0  0  0  0  0
    1.9409    0.3385    0.0000 C   0  0  0  0  0  0  0  0  0  0  0  0
    1.4521    1.0031    0.0000 C   0  0  0  0  0  0  0  0  0  0  0  0
    0.6321    0.9121    0.0000 Cl  0  0  0  0  0  0  0  0  0  0  0  0
    1.7832    1.7587    0.0000 C   0  0  0  0  0  0  0  0  0  0  0  0
    2.6032    1.8498    0.0000 C   0  0  0  0  0  0  0  0  0  0  0  0
    2.8180    2.6463    0.0000 C   0  0  0  0  0  0  0  0  0  0  0  0
  1  2  1  0
  2  3  1  0
  2 29  1  0
  3  4  1  0
  4  5  2  0
  4 21  1  0
  5  6  1  0
  6  7  2  0
  7 21  1  0
  8  7  1  1
  8  9  1  0
  8 13  1  0
  9 10  1  0
 11 10  1  0
 11 12  1  0
 11 14  1  6
 12 13  1  0
 14 15  1  0
 15 16  2  0
 15 20  1  0
 16 17  1  0
 17 18  2  0
 18 19  1  0
 19 20  2  0
 21 22  1  0
 22 23  2  0
 22 28  1  0
 23 24  1  0
 24 25  2  0
 25 26  1  0
 25 27  1  0
 27 28  2  0
 28 29  1  0
M  END
>  <DRUGBANK_ID>  (1) 
DB14823

>  <COMMON_NAME>  (1) 
Balovaptan

>  <CAS_NUMBER>  (1) 
1228088-30-9

>  <UNII>  (1) 
RAX5D5AGV6

>  <SYNONYMS>  (1) 
Balovaptan

$$$$
