
     RDKit          2D

  1  0  0  0  0  0  0  0  0  0999 V2000
    0.0000    0.0000    0.0000 Gd  0  0  0  0  0 15  0  0  0  0  0  0
M  CHG  1   1   3
M  END
>  <DRUGBANK_ID>  (1) 
DB14578

>  <COMMON_NAME>  (1) 
Gadolinium cation (3+)

>  <CAS_NUMBER>  (1) 
22541-19-1

>  <UNII>  (1) 
AZV954TZ9N

>  <SYNONYMS>  (1) 
Gadolinium(3+); gadolinium(3+) ion; gadolinium(III) cation

$$$$
