IOA
     RDKit          2D

 22 23  0  0  0  0  0  0  0  0999 V2000
    0.7207   -0.5897    0.0000 C   0  0  0  0  0  0  0  0  0  0  0  0
    1.4352   -1.0022    0.0000 C   0  0  0  0  0  0  0  0  0  0  0  0
    1.4352   -1.8272    0.0000 C   0  0  0  0  0  0  0  0  0  0  0  0
    0.7207   -2.2397    0.0000 C   0  0  0  0  0  0  0  0  0  0  0  0
    0.0063   -1.8272    0.0000 C   0  0  0  0  0  0  0  0  0  0  0  0
    0.0063   -1.0022    0.0000 C   0  0  0  0  0  0  0  0  0  0  0  0
   -0.7082   -0.5897    0.0000 C   0  0  0  0  0  0  0  0  0  0  0  0
   -1.4227   -1.0022    0.0000 O   0  0  0  0  0  0  0  0  0  0  0  0
   -0.7082    0.2353    0.0000 N   0  0  0  0  0  0  0  0  0  0  0  0
   -1.4227    0.6478    0.0000 C   0  0  0  0  0  0  0  0  0  0  0  0
    2.1497   -2.2397    0.0000 S   0  0  0  0  0  0  0  0  0  0  0  0
    2.8641   -2.6522    0.0000 N   0  0  0  0  0  0  0  0  0  0  0  0
    2.5622   -1.5253    0.0000 O   0  0  0  0  0  0  0  0  0  0  0  0
    1.7372   -2.9542    0.0000 O   0  0  0  0  0  0  0  0  0  0  0  0
   -1.4227    1.4728    0.0000 C   0  0  0  0  0  0  0  0  0  0  0  0
   -2.1372    1.8853    0.0000 C   0  0  0  0  0  0  0  0  0  0  0  0
   -2.1372    2.7103    0.0000 C   0  0  0  0  0  0  0  0  0  0  0  0
   -1.4227    3.1228    0.0000 C   0  0  0  0  0  0  0  0  0  0  0  0
   -0.7082    2.7103    0.0000 C   0  0  0  0  0  0  0  0  0  0  0  0
   -0.7082    1.8853    0.0000 C   0  0  0  0  0  0  0  0  0  0  0  0
    0.0063    1.4728    0.0000 F   0  0  0  0  0  0  0  0  0  0  0  0
   -2.8516    3.1228    0.0000 F   0  0  0  0  0  0  0  0  0  0  0  0
  1  2  2  0
  1  6  1  0
  2  3  1  0
  3  4  2  0
  3 11  1  0
  4  5  1  0
  5  6  2  0
  6  7  1  0
  7  8  2  0
  7  9  1  0
  9 10  1  0
 10 15  1  0
 11 12  1  0
 11 13  2  0
 11 14  2  0
 15 16  2  0
 15 20  1  0
 16 17  1  0
 17 18  2  0
 17 22  1  0
 18 19  1  0
 19 20  2  0
 20 21  1  0
M  END
>  <DRUGBANK_ID>  (1) 
DB03039

>  <SECONDARY_ACCESSION_NUMBERS>  (1) 
EXPT01900

>  <COMMON_NAME>  (1) 
4-(Aminosulfonyl)-N-[(2,5-Difluorophenyl)Methyl]-Benzamide

$$$$
