CKI
     RDKit          2D

 18 19  0  0  0  0  0  0  0  0999 V2000
   -1.0311   -0.7025    0.0000 C   0  0  0  0  0  0  0  0  0  0  0  0
   -1.7456   -1.1150    0.0000 N   0  0  0  0  0  0  0  0  0  0  0  0
   -2.4600   -0.7025    0.0000 C   0  0  0  0  0  0  0  0  0  0  0  0
   -2.4600    0.1225    0.0000 C   0  0  0  0  0  0  0  0  0  0  0  0
   -1.7456    1.3600    0.0000 C   0  0  0  0  0  0  0  0  0  0  0  0
   -2.4600    1.7725    0.0000 Cl  0  0  0  0  0  0  0  0  0  0  0  0
   -1.0311    1.7725    0.0000 C   0  0  0  0  0  0  0  0  0  0  0  0
   -0.3166    1.3600    0.0000 C   0  0  0  0  0  0  0  0  0  0  0  0
   -0.3166    0.5350    0.0000 C   0  0  0  0  0  0  0  0  0  0  0  0
   -1.0311    0.1225    0.0000 C   0  0  0  0  0  0  0  0  0  0  0  0
   -1.7456    0.5350    0.0000 C   0  0  0  0  0  0  0  0  0  0  0  0
    0.3978    0.1225    0.0000 S   0  0  0  0  0  0  0  0  0  0  0  0
   -0.0147   -0.5920    0.0000 O   0  0  0  0  0  0  0  0  0  0  0  0
    0.8103    0.8370    0.0000 O   0  0  0  0  0  0  0  0  0  0  0  0
    1.1123   -0.2900    0.0000 N   0  0  0  0  0  0  0  0  0  0  0  0
    1.8268    0.1225    0.0000 C   0  0  0  0  0  0  0  0  0  0  0  0
    2.5413   -0.2900    0.0000 C   0  0  0  0  0  0  0  0  0  0  0  0
    3.2557    0.1225    0.0000 N   0  0  0  0  0  0  0  0  0  0  0  0
  1  2  2  0
  1 10  1  0
  2  3  1  0
  3  4  2  0
  4 11  1  0
  5  6  1  0
  5  7  1  0
  5 11  2  0
  7  8  2  0
  8  9  1  0
  9 10  2  0
  9 12  1  0
 10 11  1  0
 12 13  2  0
 12 14  2  0
 12 15  1  0
 15 16  1  0
 16 17  1  0
 17 18  1  0
M  END
>  <DRUGBANK_ID>  (1) 
DB03693

>  <SECONDARY_ACCESSION_NUMBERS>  (1) 
EXPT00931

>  <COMMON_NAME>  (1) 
N-(2-Aminoethyl)-5-Chloroisoquinoline-8-Sulfonamide

>  <UNII>  (1) 
3IE84W82O5

$$$$
