GVJ
     RDKit          2D

 23 26  0  0  0  0  0  0  0  0999 V2000
    0.4446    6.4265    0.0000 N   0  0  0  0  0  0  0  0  0  0  0  0
   -0.2699    6.0140    0.0000 C   0  0  0  0  0  0  0  0  0  0  0  0
   -0.9843    6.4265    0.0000 C   0  0  0  0  0  0  0  0  0  0  0  0
   -1.6988    6.0140    0.0000 C   0  0  0  0  0  0  0  0  0  0  0  0
   -2.4133    6.4265    0.0000 C   0  0  0  0  0  0  0  0  0  0  0  0
   -2.4133    7.2515    0.0000 C   0  0  0  0  0  0  0  0  0  0  0  0
   -1.6988    7.6640    0.0000 C   0  0  0  0  0  0  0  0  0  0  0  0
   -0.9843    7.2515    0.0000 C   0  0  0  0  0  0  0  0  0  0  0  0
   -0.2699    5.1890    0.0000 C   0  0  0  0  0  0  0  0  0  0  0  0
    0.4446    4.7765    0.0000 C   0  0  0  0  0  0  0  0  0  0  0  0
    0.4446    3.9515    0.0000 C   0  0  0  0  0  0  0  0  0  0  0  0
   -0.2699    3.5390    0.0000 C   0  0  0  0  0  0  0  0  0  0  0  0
   -0.9843    3.9515    0.0000 C   0  0  0  0  0  0  0  0  0  0  0  0
   -0.9843    4.7765    0.0000 C   0  0  0  0  0  0  0  0  0  0  0  0
   -0.2699    2.7140    0.0000 C   0  0  0  0  0  0  0  0  0  0  0  0
    0.4446    2.3015    0.0000 N   0  0  0  0  0  0  0  0  0  0  0  0
    0.4446    1.4765    0.0000 C   0  0  0  0  0  0  0  0  0  0  0  0
   -0.2699    1.0640    0.0000 N   0  0  0  0  0  0  0  0  0  0  0  0
   -0.9843    1.4765    0.0000 C   0  0  0  0  0  0  0  0  0  0  0  0
   -1.7689    1.2215    0.0000 N   0  0  0  0  0  0  0  0  0  0  0  0
   -2.2539    1.8890    0.0000 C   0  0  0  0  0  0  0  0  0  0  0  0
   -1.7689    2.5564    0.0000 N   0  0  0  0  0  0  0  0  0  0  0  0
   -0.9843    2.3015    0.0000 C   0  0  0  0  0  0  0  0  0  0  0  0
  2  1  1  6
  2  3  1  0
  2  9  1  0
  3  4  2  0
  3  8  1  0
  4  5  1  0
  5  6  2  0
  6  7  1  0
  7  8  2  0
  9 10  2  0
  9 14  1  0
 10 11  1  0
 11 12  2  0
 12 13  1  0
 12 15  1  0
 13 14  2  0
 15 16  2  0
 15 23  1  0
 16 17  1  0
 17 18  2  0
 18 19  1  0
 19 20  1  0
 19 23  2  0
 20 21  1  0
 21 22  2  0
 22 23  1  0
M  END
>  <DRUGBANK_ID>  (1) 
DB07855

>  <COMMON_NAME>  (1) 
(S)-1-PHENYL-1-[4-(9H-PURIN-6-YL)PHENYL]METHANAMINE

$$$$
