
     RDKit          2D

  3  2  0  0  0  0  0  0  0  0999 V2000
   -0.7149   -0.2069    0.0000 I   0  0  0  0  0  0  0  0  0  0  0  0
    0.0000    0.2069    0.0000 Zn  0  0  0  0  0  2  0  0  0  0  0  0
    0.7149   -0.2028    0.0000 I   0  0  0  0  0  0  0  0  0  0  0  0
  1  2  1  0
  2  3  1  0
M  END
>  <DRUGBANK_ID>  (1) 
DB15961

>  <COMMON_NAME>  (1) 
Zinc iodide

>  <CAS_NUMBER>  (1) 
10139-47-6

>  <UNII>  (1) 
762R7A0O0B

>  <SYNONYMS>  (1) 
Diiodozinc; Zinc diiodide

$$$$
