
     RDKit          2D

 11 10  0  0  0  0  0  0  0  0999 V2000
    1.8627    1.9226    0.0000 C   0  0  0  0  0  0  0  0  0  0  0  0
    1.0377    1.9226    0.0000 C   0  0  0  0  0  0  0  0  0  0  0  0
    0.6252    1.2081    0.0000 C   0  0  0  0  0  0  0  0  0  0  0  0
   -0.1997    1.2081    0.0000 C   0  0  0  0  0  0  0  0  0  0  0  0
   -0.6122    0.4936    0.0000 C   0  0  0  0  0  0  0  0  0  0  0  0
   -1.4372    0.4936    0.0000 C   0  0  0  0  0  0  0  0  0  0  0  0
   -1.8497   -0.2207    0.0000 C   0  0  0  0  0  0  0  0  0  0  0  0
   -2.6747   -0.2207    0.0000 C   0  0  0  0  0  0  0  0  0  0  0  0
   -3.0872   -0.9352    0.0000 C   0  0  0  0  0  0  0  0  0  0  0  0
   -2.6747   -1.6497    0.0000 C   0  0  0  0  0  0  0  0  0  0  0  0
    0.6252    2.6371    0.0000 O   0  0  0  0  0  0  0  0  0  0  0  0
  1  2  1  0
  2  3  1  0
  2 11  2  0
  3  4  1  0
  4  5  1  0
  5  6  2  0
  6  7  1  0
  7  8  2  0
  8  9  1  0
  9 10  2  0
M  END
>  <DRUGBANK_ID>  (1) 
DB15619

>  <COMMON_NAME>  (1) 
(5Z,7E,9)-decatrien-2-one

$$$$
