DID
     RDKit          2D

 26 27  0  0  0  0  0  0  0  0999 V2000
   -4.6558    1.0312    0.0000 C   0  0  0  0  0  0  0  0  0  0  0  0
   -3.9413    1.4437    0.0000 C   0  0  0  0  0  0  0  0  0  0  0  0
   -3.2268    1.0312    0.0000 C   0  0  0  0  0  0  0  0  0  0  0  0
   -3.2268    0.2062    0.0000 C   0  0  0  0  0  0  0  0  0  0  0  0
   -3.9413   -0.2063    0.0000 C   0  0  0  0  0  0  0  0  0  0  0  0
   -4.6558    0.2062    0.0000 C   0  0  0  0  0  0  0  0  0  0  0  0
   -5.3702    1.4437    0.0000 C   0  0  0  0  0  0  0  0  0  0  0  0
   -6.0847    1.0312    0.0000 N   0  0  0  0  0  0  0  0  0  0  0  0
   -5.3702    2.2687    0.0000 N   0  0  0  0  0  0  0  0  0  0  0  0
   -2.5124   -0.2063    0.0000 O   0  0  0  0  0  0  0  0  0  0  0  0
   -1.7979    0.2062    0.0000 C   0  0  0  0  0  0  0  0  0  0  0  0
   -1.0834   -0.2063    0.0000 C   0  0  0  0  0  0  0  0  0  0  0  0
   -0.3689    0.2062    0.0000 C   0  0  0  0  0  0  0  0  0  0  0  0
    0.3455   -0.2063    0.0000 C   0  0  0  0  0  0  0  0  0  0  0  0
    1.0600    0.2062    0.0000 C   0  0  0  0  0  0  0  0  0  0  0  0
    1.7745   -0.2063    0.0000 C   0  0  0  0  0  0  0  0  0  0  0  0
    2.4889    0.2062    0.0000 O   0  0  0  0  0  0  0  0  0  0  0  0
    3.2034   -0.2063    0.0000 C   0  0  0  0  0  0  0  0  0  0  0  0
    3.9179    0.2062    0.0000 C   0  0  0  0  0  0  0  0  0  0  0  0
    4.6324   -0.2063    0.0000 C   0  0  0  0  0  0  0  0  0  0  0  0
    4.6324   -1.0313    0.0000 C   0  0  0  0  0  0  0  0  0  0  0  0
    3.9179   -1.4438    0.0000 C   0  0  0  0  0  0  0  0  0  0  0  0
    3.2034   -1.0313    0.0000 C   0  0  0  0  0  0  0  0  0  0  0  0
    5.3468   -1.4438    0.0000 C   0  0  0  0  0  0  0  0  0  0  0  0
    6.0613   -1.0313    0.0000 N   0  0  0  0  0  0  0  0  0  0  0  0
    5.3468   -2.2688    0.0000 N   0  0  0  0  0  0  0  0  0  0  0  0
  1  2  2  0
  1  6  1  0
  1  7  1  0
  2  3  1  0
  3  4  2  0
  4  5  1  0
  4 10  1  0
  5  6  2  0
  7  8  1  0
  7  9  2  0
 10 11  1  0
 11 12  1  0
 12 13  1  0
 13 14  1  0
 14 15  1  0
 15 16  1  0
 16 17  1  0
 17 18  1  0
 18 19  2  0
 18 23  1  0
 19 20  1  0
 20 21  2  0
 21 22  1  0
 21 24  1  0
 22 23  2  0
 24 25  1  0
 24 26  2  0
M  END
>  <DRUGBANK_ID>  (1) 
DB03808

>  <SECONDARY_ACCESSION_NUMBERS>  (1) 
EXPT01203

>  <COMMON_NAME>  (1) 
Hexamidine

>  <CAS_NUMBER>  (1) 
3811-75-4

>  <UNII>  (1) 
3483C2H13H

>  <SYNONYMS>  (1) 
hexamidina; Hexamidine

$$$$
