
     RDKit          2D

 12 11  0  0  0  0  0  0  0  0999 V2000
   -0.7143    0.0000    0.0000 C   0  0  0  0  0  0  0  0  0  0  0  0
   -0.7143   -0.8249    0.0000 C   0  0  0  0  0  0  0  0  0  0  0  0
   -1.4288    0.4125    0.0000 C   0  0  0  0  0  0  0  0  0  0  0  0
   -1.4288   -1.2374    0.0000 C   0  0  0  0  0  0  0  0  0  0  0  0
   -2.1433    0.0000    0.0000 C   0  0  0  0  0  0  0  0  0  0  0  0
   -2.1433   -0.8249    0.0000 C   0  0  0  0  0  0  0  0  0  0  0  0
    0.0001    0.4125    0.0000 C   0  0  0  0  0  0  0  0  0  0  0  0
    0.7145    0.0000    0.0000 C   0  0  0  0  0  0  0  0  0  0  0  0
    0.0000   -1.2374    0.0000 C   0  0  0  0  0  0  0  0  0  0  0  0
    0.7145   -0.8249    0.0000 C   0  0  0  0  0  0  0  0  0  0  0  0
    1.4289    0.4124    0.0000 C   0  0  0  0  0  0  0  0  0  0  0  0
    1.4291    1.2374    0.0000 O   0  0  0  0  0  0  0  0  0  0  0  0
  3  1  1  0
  4  2  1  0
  5  3  1  0
  6  4  1  0
  6  5  1  0
  7  1  1  0
  8  7  1  0
  8 11  1  0
  9  2  1  0
 10  9  1  0
 11 12  2  0
M  END
>  <DRUGBANK_ID>  (1) 
DB04093

>  <SECONDARY_ACCESSION_NUMBERS>  (1) 
EXPT03190

>  <COMMON_NAME>  (1) 
Undecanal

>  <CAS_NUMBER>  (1) 
112-44-7

>  <UNII>  (1) 
B6P0A9PSHN

>  <SYNONYMS>  (1) 
n-Undecanal; Undecanal; Undecanaldehyde; Undecyl aldehyde; Undecylaldehyde; Undecylic aldehyde

$$$$
