
     RDKit          2D

  9  8  0  0  0  0  0  0  0  0999 V2000
    0.3576    0.2009    0.0000 C   0  0  0  0  0  0  0  0  0  0  0  0
   -0.3637   -0.1996    0.0000 C   0  0  0  0  0  0  0  0  0  0  0  0
    1.0751   -0.1996    0.0000 C   0  0  0  0  0  0  0  0  0  0  0  0
    0.3576    1.0497    0.0000 O   0  0  0  0  0  0  0  0  0  0  0  0
   -1.0837    0.2009    0.0000 C   0  0  0  0  0  0  0  0  0  0  0  0
   -0.3637   -1.0497    0.0000 C   0  0  0  0  0  0  0  0  0  0  0  0
    1.0751   -1.0497    0.0000 O   0  0  0  0  0  0  0  0  0  0  0  0
    1.7976    0.2009    0.0000 O   0  0  0  0  0  0  0  0  0  0  0  0
   -1.7976   -0.2299    0.0000 C   0  0  0  0  0  0  0  0  0  0  0  0
  1  2  1  0
  1  3  1  0
  1  4  2  0
  2  5  1  0
  2  6  1  0
  3  7  1  0
  3  8  2  0
  5  9  1  0
M  END
>  <DRUGBANK_ID>  (1) 
DB15831

>  <COMMON_NAME>  (1) 
alpha-Keto-beta-methylvaleric acid

>  <CAS_NUMBER>  (1) 
1460-34-0

>  <UNII>  (1) 
787T50HCIV

$$$$
