
     RDKit          2D

 18 19  0  0  0  0  0  0  0  0999 V2000
    1.6904    0.6187    0.0000 N   0  0  0  0  0  0  0  0  0  0  0  0
    0.9759    1.0312    0.0000 C   0  0  0  0  0  0  0  0  0  0  0  0
    0.9759    1.8562    0.0000 O   0  0  0  0  0  0  0  0  0  0  0  0
    0.2615    0.6187    0.0000 C   0  0  0  0  0  0  0  0  0  0  0  0
   -0.4529    1.0312    0.0000 C   0  0  0  0  0  0  0  0  0  0  0  0
    0.2615   -0.2062    0.0000 C   0  0  0  0  0  0  0  0  0  0  0  0
   -1.1674    0.6187    0.0000 C   0  0  0  0  0  0  0  0  0  0  0  0
   -0.4529   -0.6187    0.0000 C   0  0  0  0  0  0  0  0  0  0  0  0
   -1.1674   -0.2062    0.0000 C   0  0  0  0  0  0  0  0  0  0  0  0
    1.6904   -0.2062    0.0000 C   0  0  0  0  0  0  0  0  0  0  0  0
    2.4049   -0.6187    0.0000 C   0  0  0  0  0  0  0  0  0  0  0  0
    0.9759   -0.6187    0.0000 C   0  0  0  0  0  0  0  0  0  0  0  0
    2.4049   -1.4437    0.0000 C   0  0  0  0  0  0  0  0  0  0  0  0
    0.9759   -1.4437    0.0000 C   0  0  0  0  0  0  0  0  0  0  0  0
    1.6904   -1.8562    0.0000 N   0  0  0  0  0  0  0  0  0  0  0  0
   -1.9924   -0.2062    0.0000 C   0  0  0  0  0  0  0  0  0  0  0  0
   -2.4049   -0.9207    0.0000 N   0  0  0  0  0  0  0  0  0  0  0  0
   -2.4049    0.5082    0.0000 C   0  0  0  0  0  0  0  0  0  0  0  0
  1  2  1  0
  1 10  1  0
  2  3  2  0
  4  2  1  1
  5  4  1  0
  6  4  1  0
  7  5  1  0
  8  6  1  0
  9  7  1  6
  9  8  1  0
  9 16  1  0
 11 10  2  0
 12 10  1  0
 13 11  1  0
 14 12  2  0
 15 13  2  0
 15 14  1  0
 16 17  1  0
 16 18  1  6
M  END
>  <DRUGBANK_ID>  (1) 
DB08756

>  <COMMON_NAME>  (1) 
Y-27632

>  <CAS_NUMBER>  (1) 
146986-50-7

>  <UNII>  (1) 
0X370ROP6H

>  <SYNONYMS>  (1) 
(R)-(+)-trans-N-(4-pyridyl)-4-(1-aminoethyl)-cyclohexanecarboxamide; 4-[(1R)-1-aminoethyl]-N-(pyridin-4-yl)cyclohexane-1-carboxamide

$$$$
