PS4
     RDKit          2D

 32 34  0  0  0  0  0  0  0  0999 V2000
   -4.8612    0.2613    0.0000 C   0  0  0  0  0  0  0  0  0  0  0  0
    4.0010    0.0821    0.0000 C   0  0  0  0  0  0  0  0  0  0  0  0
    4.0010    0.9071    0.0000 C   0  0  0  0  0  0  0  0  0  0  0  0
    5.4299    0.0821    0.0000 C   0  0  0  0  0  0  0  0  0  0  0  0
    5.4299    0.9071    0.0000 C   0  0  0  0  0  0  0  0  0  0  0  0
    1.8576    1.3196    0.0000 C   0  0  0  0  0  0  0  0  0  0  0  0
    1.1431    0.9071    0.0000 C   0  0  0  0  0  0  0  0  0  0  0  0
   -0.3250    0.9840    0.0000 C   0  0  0  0  0  0  0  0  0  0  0  0
   -0.4966    0.1770    0.0000 C   0  0  0  0  0  0  0  0  0  0  0  0
   -0.4646    2.3116    0.0000 C   0  0  0  0  0  0  0  0  0  0  0  0
   -0.8771    1.5971    0.0000 C   0  0  0  0  0  0  0  0  0  0  0  0
   -3.1935   -2.2017    0.0000 C   0  0  0  0  0  0  0  0  0  0  0  0
   -2.8504   -0.5878    0.0000 C   0  0  0  0  0  0  0  0  0  0  0  0
   -3.6350   -0.8427    0.0000 C   0  0  0  0  0  0  0  0  0  0  0  0
   -0.8396   -1.4369    0.0000 O   0  0  0  0  0  0  0  0  0  0  0  0
   -1.4527   -0.8849    0.0000 C   0  0  0  0  0  0  0  0  0  0  0  0
   -2.2373   -1.1398    0.0000 C   0  0  0  0  0  0  0  0  0  0  0  0
   -3.8066   -1.6497    0.0000 C   0  0  0  0  0  0  0  0  0  0  0  0
   -2.4089   -1.9468    0.0000 C   0  0  0  0  0  0  0  0  0  0  0  0
   -4.2481   -0.2907    0.0000 S   0  0  0  0  0  0  0  0  0  0  0  0
   -4.8002   -0.9038    0.0000 O   0  0  0  0  0  0  0  0  0  0  0  0
   -3.6961    0.3224    0.0000 O   0  0  0  0  0  0  0  0  0  0  0  0
   -1.2812   -0.0779    0.0000 N   0  0  0  0  0  0  0  0  0  0  0  0
    0.3424    2.1400    0.0000 C   0  0  0  0  0  0  0  0  0  0  0  0
    0.4286    1.3196    0.0000 N   0  0  0  0  0  0  0  0  0  0  0  0
    1.1431    0.0821    0.0000 O   0  0  0  0  0  0  0  0  0  0  0  0
    2.5721    0.9071    0.0000 C   0  0  0  0  0  0  0  0  0  0  0  0
    2.5721    0.0821    0.0000 N   0  0  0  0  0  0  0  0  0  0  0  0
    3.2865    1.3196    0.0000 C   0  0  0  0  0  0  0  0  0  0  0  0
    4.7155    1.3196    0.0000 C   0  0  0  0  0  0  0  0  0  0  0  0
    4.7155   -0.3304    0.0000 C   0  0  0  0  0  0  0  0  0  0  0  0
    4.7155   -1.1554    0.0000 Cl  0  0  0  0  0  0  0  0  0  0  0  0
  1 20  1  0
  2  3  2  0
  2 31  1  0
  3 29  1  0
  3 30  1  0
  4  5  1  0
  4 31  2  0
  5 30  2  0
  6  7  1  0
  6 27  1  0
  7 25  1  0
  7 26  2  0
  8  9  1  6
  8 11  1  0
  8 25  1  0
  9 23  1  0
 10 11  1  0
 10 24  1  0
 12 18  2  0
 12 19  1  0
 13 14  2  0
 13 17  1  0
 14 18  1  0
 14 20  1  0
 15 16  2  0
 16 17  1  0
 16 23  1  0
 17 19  2  0
 20 21  2  0
 20 22  2  0
 24 25  1  0
 27 28  1  1
 27 29  1  0
 31 32  1  0
M  END
>  <DRUGBANK_ID>  (1) 
DB08429

>  <COMMON_NAME>  (1) 
N-({(2S)-1-[(3R)-3-amino-4-(3-chlorophenyl)butanoyl]pyrrolidin-2-yl}methyl)-3-(methylsulfonyl)benzamide

$$$$
