
     RDKit          2D

 36 40  0  0  1  0  0  0  0  0999 V2000
    3.2004   -6.3273    0.0000 C   0  0  0  0  0  0  0  0  0  0  0  0
    2.7879   -5.6129    0.0000 O   0  0  0  0  0  0  0  0  0  0  0  0
    1.9629   -5.6129    0.0000 C   0  0  0  0  0  0  0  0  0  0  0  0
    1.4780   -6.2803    0.0000 N   0  0  0  0  0  0  0  0  0  0  0  0
    0.6933   -6.0254    0.0000 N   0  0  0  0  0  0  0  0  0  0  0  0
    0.0259   -6.5103    0.0000 C   0  0  0  0  0  0  0  0  0  0  0  0
    0.6933   -5.2004    0.0000 C   0  0  0  0  0  0  0  0  0  0  0  0
    1.4780   -4.9454    0.0000 C   0  0  0  0  0  0  0  0  0  0  0  0
    1.7329   -4.1608    0.0000 N   0  0  0  0  0  0  0  0  0  0  0  0
    1.1809   -3.5477    0.0000 C   0  0  0  0  0  0  0  0  0  0  0  0
    0.3739   -3.7192    0.0000 N   0  0  0  0  0  0  0  0  0  0  0  0
   -0.1781   -3.1062    0.0000 C   0  0  0  0  0  0  0  0  0  0  0  0
    0.0768   -2.3215    0.0000 C   0  0  0  0  0  0  0  0  0  0  0  0
    0.8838   -2.1500    0.0000 C   0  0  0  0  0  0  0  0  0  0  0  0
    1.4358   -2.7631    0.0000 N   0  0  0  0  0  0  0  0  0  0  0  0
    1.1387   -1.3654    0.0000 C   0  0  0  0  0  0  0  0  0  0  0  0
    0.6538   -0.6979    0.0000 C   0  0  0  0  0  0  0  0  0  0  0  0
    1.1387   -0.0305    0.0000 N   0  0  0  0  0  0  0  0  0  0  0  0
    1.9233   -0.2854    0.0000 C   0  0  0  0  0  0  0  0  0  0  0  0
    2.6378    0.1271    0.0000 C   0  0  0  0  0  0  0  0  0  0  0  0
    2.6378    0.9521    0.0000 N   0  0  0  0  0  0  0  0  0  0  0  0
    3.3523    1.3646    0.0000 C   0  0  0  0  0  0  0  0  0  0  0  0
    4.0668    0.9521    0.0000 O   0  0  0  0  0  0  0  0  0  0  0  0
    3.3523    2.1896    0.0000 C   0  0  0  0  0  0  0  0  0  0  0  0
    2.6378    2.6021    0.0000 C   0  0  0  0  0  0  0  0  0  0  0  0
    4.0668    2.6021    0.0000 N   0  0  0  0  0  0  0  0  0  0  0  0
    4.0668    3.4271    0.0000 C   0  0  0  0  0  0  0  0  0  0  0  0
    4.7812    3.8396    0.0000 C   0  0  0  0  0  0  0  0  0  0  0  0
    5.4957    3.4271    0.0000 N   0  0  0  0  0  0  0  0  0  0  0  0
    6.2102    3.8396    0.0000 C   0  0  0  0  0  0  0  0  0  0  0  0
    5.4957    2.6021    0.0000 C   0  0  0  0  0  0  0  0  0  0  0  0
    4.7812    2.1896    0.0000 C   0  0  0  0  0  0  0  0  0  0  0  0
    3.3523   -0.2854    0.0000 C   0  0  0  0  0  0  0  0  0  0  0  0
    3.3523   -1.1104    0.0000 C   0  0  0  0  0  0  0  0  0  0  0  0
    2.6378   -1.5229    0.0000 C   0  0  0  0  0  0  0  0  0  0  0  0
    1.9233   -1.1104    0.0000 C   0  0  0  0  0  0  0  0  0  0  0  0
  1  2  1  0
  2  3  1  0
  3  4  2  0
  3  8  1  0
  4  5  1  0
  5  6  1  0
  5  7  1  0
  7  8  2  0
  8  9  1  0
  9 10  1  0
 10 11  2  0
 10 15  1  0
 11 12  1  0
 12 13  2  0
 13 14  1  0
 14 15  2  0
 14 16  1  0
 16 17  2  0
 16 36  1  0
 17 18  1  0
 18 19  1  0
 19 20  1  0
 19 36  2  0
 20 21  1  0
 20 33  2  0
 21 22  1  0
 22 23  2  0
 24 22  1  0
 24 25  1  1
 24 26  1  0
 26 27  1  0
 26 32  1  0
 27 28  1  0
 28 29  1  0
 29 30  1  0
 29 31  1  0
 31 32  1  0
 33 34  1  0
 34 35  2  0
 35 36  1  0
M  END
>  <DRUGBANK_ID>  (1) 
DB18057

>  <COMMON_NAME>  (1) 
Golidocitinib

>  <CAS_NUMBER>  (1) 
2091134-68-6

>  <UNII>  (1) 
3BY9Z3M34G

>  <SYNONYMS>  (1) 
(.alpha.r)-n-(3-(2-((3-methoxy-1-methyl-1h-pyrazol-4-yl)amino)-4-pyrimidinyl)-1h-indol-7-yl)-.alpha.,4-dimethyl-1-piperazineacetamide; 1-piperazineacetamide, n-(3-(2-((3-methoxy-1-methyl-1h-pyrazol-4-yl)amino)-4-pyrimidinyl)-1h-indol-7-yl)-.alpha.,4-dimethyl-, (.alpha.r)-

$$$$
