CKE
     RDKit          2D

 31 35  0  0  0  0  0  0  0  0999 V2000
    0.7290   -0.4671    0.0000 C   0  0  0  0  0  0  0  0  0  0  0  0
   -0.0960   -0.4671    0.0000 C   0  0  0  0  0  0  0  0  0  0  0  0
   -0.5085    0.2474    0.0000 C   0  0  0  0  0  0  0  0  0  0  0  0
   -0.0960    0.9619    0.0000 C   0  0  0  0  0  0  0  0  0  0  0  0
   -0.5085    1.6764    0.0000 C   0  0  0  0  0  0  0  0  0  0  0  0
   -1.3335    1.6764    0.0000 C   0  0  0  0  0  0  0  0  0  0  0  0
   -1.3335    3.1053    0.0000 C   0  0  0  0  0  0  0  0  0  0  0  0
   -1.7460    3.8198    0.0000 C   0  0  0  0  0  0  0  0  0  0  0  0
   -2.5710    2.3908    0.0000 C   0  0  0  0  0  0  0  0  0  0  0  0
    1.5110   -2.5322    0.0000 C   0  0  0  0  0  0  0  0  0  0  0  0
    0.4491   -3.4884    0.0000 C   0  0  0  0  0  0  0  0  0  0  0  0
   -2.9835    4.5342    0.0000 C   0  0  0  0  0  0  0  0  0  0  0  0
    3.4275   -0.0546    0.0000 N   0  0  0  0  0  0  0  0  0  0  0  0
    2.7130    0.3579    0.0000 C   0  0  0  0  0  0  0  0  0  0  0  0
    1.9985   -0.0546    0.0000 C   0  0  0  0  0  0  0  0  0  0  0  0
    1.9985   -0.8796    0.0000 C   0  0  0  0  0  0  0  0  0  0  0  0
    2.7130   -1.2921    0.0000 N   0  0  0  0  0  0  0  0  0  0  0  0
    3.4275   -0.8796    0.0000 C   0  0  0  0  0  0  0  0  0  0  0  0
    1.2139    0.2004    0.0000 C   0  0  0  0  0  0  0  0  0  0  0  0
    1.2139   -1.1345    0.0000 N   0  0  0  0  0  0  0  0  0  0  0  0
    4.8564   -0.8796    0.0000 N   0  0  0  0  0  0  0  0  0  0  0  0
   -1.7460    0.9619    0.0000 C   0  0  0  0  0  0  0  0  0  0  0  0
   -1.3335    0.2474    0.0000 C   0  0  0  0  0  0  0  0  0  0  0  0
   -1.7460    2.3908    0.0000 N   0  0  0  0  0  0  0  0  0  0  0  0
   -2.5710    3.8198    0.0000 N   0  0  0  0  0  0  0  0  0  0  0  0
   -2.9835    3.1053    0.0000 C   0  0  0  0  0  0  0  0  0  0  0  0
    0.9590   -1.9191    0.0000 C   0  0  0  0  0  0  0  0  0  0  0  0
    0.1520   -2.0906    0.0000 C   0  0  0  0  0  0  0  0  0  0  0  0
   -0.1030   -2.8753    0.0000 C   0  0  0  0  0  0  0  0  0  0  0  0
    1.2561   -3.3168    0.0000 C   0  0  0  0  0  0  0  0  0  0  0  0
    4.1419   -1.2921    0.0000 C   0  0  0  0  0  0  0  0  0  0  0  0
  1 19  2  0
  2  3  1  0
  2  1  1  0
  3 23  2  0
  4  5  2  0
  4  3  1  0
  5  6  1  0
  6 24  1  0
  6 22  2  0
  8  7  1  0
  9 24  1  0
 11 30  1  0
 12 25  1  0
 14 13  2  0
 15 14  1  0
 16 17  1  0
 16 15  2  0
 17 18  2  0
 18 31  1  0
 18 13  1  0
 19 15  1  0
 20  1  1  0
 20 16  1  0
 23 22  1  0
 24  7  1  0
 25  8  1  0
 26  9  1  0
 26 25  1  0
 27 10  1  0
 27 20  1  0
 28 27  1  0
 29 11  1  0
 29 28  1  0
 30 10  1  0
 31 21  1  0
M  END
>  <DRUGBANK_ID>  (1) 
DB07563

>  <COMMON_NAME>  (1) 
1-{7-cyclohexyl-6-[4-(4-methylpiperazin-1-yl)benzyl]-7H-pyrrolo[2,3-d]pyrimidin-2-yl}methanamine

$$$$
