
     RDKit          2D

 10 11  0  0  0  0  0  0  0  0999 V2000
   -0.4561    0.6549    0.0000 C   0  0  0  0  0  0  0  0  0  0  0  0
    0.2561    0.2384    0.0000 C   0  0  0  0  0  0  0  0  0  0  0  0
   -0.8309    1.3859    0.0000 C   0  0  0  0  0  0  0  0  0  0  0  0
   -1.1849    0.2384    0.0000 C   0  0  0  0  0  0  0  0  0  0  0  0
    0.2561   -0.5862    0.0000 C   0  0  0  0  0  0  0  0  0  0  0  0
    1.1849    0.2384    0.0000 C   0  0  0  0  0  0  0  0  0  0  0  0
    0.7247    1.0485    0.0000 C   0  0  0  0  0  0  0  0  0  0  0  0
   -0.4602   -0.1926    0.0000 C   0  0  0  0  0  0  0  0  0  0  0  0
   -1.1849   -0.5862    0.0000 C   0  0  0  0  0  0  0  0  0  0  0  0
    0.7372   -1.3859    0.0000 C   0  0  0  0  0  0  0  0  0  0  0  0
  1  2  1  0
  1  3  1  0
  1  4  1  0
  2  5  1  0
  2  6  1  0
  2  7  1  0
  3  8  1  0
  4  9  1  0
  5 10  2  0
  5  8  1  0
  8  9  1  0
M  END
>  <DRUGBANK_ID>  (1) 
DB15917

>  <COMMON_NAME>  (1) 
Camphene

>  <CAS_NUMBER>  (1) 
79-92-5

>  <UNII>  (1) 
G3VG94Z26E

>  <SYNONYMS>  (1) 
DL-Camphene

$$$$
