1560
     RDKit          2D

 11 11  0  0  1  0  0  0  0  0999 V2000
    1.6500    0.9034    0.0000 O   0  0  0  0  0  0  0  0  0  0  0  0
    3.0790    1.7284    0.0000 N   0  0  0  0  0  0  0  0  0  0  0  0
    3.0790    0.9034    0.0000 C   0  0  0  0  0  0  0  0  0  0  0  0
    2.3644    0.4909    0.0000 C   0  0  0  0  0  0  0  0  0  0  0  0
    2.3644   -0.3341    0.0000 C   0  0  0  0  0  0  0  0  0  0  0  0
    3.7934    0.4909    0.0000 C   0  0  0  0  0  0  0  0  0  0  0  0
    3.0790   -0.7466    0.0000 C   0  0  0  0  0  0  0  0  0  0  0  0
    1.6500   -0.7466    0.0000 C   0  0  0  0  0  0  0  0  0  0  0  0
    3.0790   -1.5716    0.0000 C   0  0  0  0  0  0  0  0  0  0  0  0
    1.6500   -1.5716    0.0000 C   0  0  0  0  0  0  0  0  0  0  0  0
    2.3644   -1.9841    0.0000 C   0  0  0  0  0  0  0  0  0  0  0  0
  1  4  2  0
  3  2  1  0
  3  4  1  0
  3  6  1  1
  4  5  1  0
  5  7  2  0
  5  8  1  0
  7  9  1  0
  8 10  2  0
  9 11  2  0
 10 11  1  0
M  END
>  <DRUGBANK_ID>  (1) 
DB01560

>  <COMMON_NAME>  (1) 
Cathinone

>  <CAS_NUMBER>  (1) 
71031-15-7

>  <UNII>  (1) 
540EI4406J

>  <SYNONYMS>  (1) 
alpha-Aminopropiophenone; Cathinone; Cathinonum; Catinona; D-Cathinone; Norephedrone

$$$$
