
     RDKit          2D

 10 10  0  0  0  0  0  0  0  0999 V2000
    0.7111    0.4184    0.0000 C   0  0  0  0  0  0  0  0  0  0  0  0
    0.0000    0.8325    0.0000 C   0  0  0  0  0  0  0  0  0  0  0  0
    0.7111   -0.4184    0.0000 C   0  0  0  0  0  0  0  0  0  0  0  0
   -0.7111    0.4184    0.0000 C   0  0  0  0  0  0  0  0  0  0  0  0
   -0.7111   -0.4184    0.0000 C   0  0  0  0  0  0  0  0  0  0  0  0
    0.0000   -0.8366    0.0000 C   0  0  0  0  0  0  0  0  0  0  0  0
    1.4180    0.8325    0.0000 Cl  0  0  0  0  0  0  0  0  0  0  0  0
    0.0000    1.6691    0.0000 O   0  0  0  0  0  0  0  0  0  0  0  0
   -1.4180   -0.8366    0.0000 C   0  0  0  0  0  0  0  0  0  0  0  0
    0.0000   -1.6691    0.0000 C   0  0  0  0  0  0  0  0  0  0  0  0
  2  1  2  0
  3  1  1  0
  4  2  1  0
  4  5  2  0
  5  6  1  0
  6  3  2  0
  7  1  1  0
  8  2  1  0
  9  5  1  0
 10  6  1  0
M  END
>  <DRUGBANK_ID>  (1) 
DB15658

>  <COMMON_NAME>  (1) 
2-chloro-4,5-dimethylphenol

>  <CAS_NUMBER>  (1) 
1124-04-5

>  <UNII>  (1) 
601F79M480

>  <SYNONYMS>  (1) 
2-Chloro-4,5-dimethylphenol; 2-Chloro-4,5-xylenol; 3,4-Dimethyl-6-chlorophenol; 6-Chloro-3,4-xylenol; Banol phenol

$$$$
