
     RDKit          2D

 23 24  0  0  0  0  0  0  0  0999 V2000
    2.9747   -2.0410    0.0000 N   0  0  0  0  0  0  0  0  0  0  0  0
    2.9747   -3.3438    0.0000 S   0  0  0  0  0  0  0  0  0  0  0  0
    3.4958   -2.6924    0.0000 C   0  0  0  0  0  0  0  0  0  0  0  0
    2.1930   -2.2581    0.0000 C   0  0  0  0  0  0  0  0  0  0  0  0
    2.1930   -3.1267    0.0000 C   0  0  0  0  0  0  0  0  0  0  0  0
    1.4981   -3.5175    0.0000 C   0  0  0  0  0  0  0  0  0  0  0  0
    0.8033   -3.1267    0.0000 C   0  0  0  0  0  0  0  0  0  0  0  0
    0.8033   -2.2581    0.0000 C   0  0  0  0  0  0  0  0  0  0  0  0
    1.4981   -1.8673    0.0000 C   0  0  0  0  0  0  0  0  0  0  0  0
    1.4547   -1.0422    0.0000 O   0  0  0  0  0  0  0  0  0  0  0  0
    1.4547   -4.3426    0.0000 O   0  0  0  0  0  0  0  0  0  0  0  0
    0.0651   -3.5175    0.0000 O   0  0  0  0  0  0  0  0  0  0  0  0
    0.0651   -1.8673    0.0000 C   0  0  0  0  0  0  0  0  0  0  0  0
    0.0651   -1.0422    0.0000 C   0  0  0  0  0  0  0  0  0  0  0  0
   -0.6296   -0.6079    0.0000 C   0  0  0  0  0  0  0  0  0  0  0  0
   -0.6296    0.2171    0.0000 C   0  0  0  0  0  0  0  0  0  0  0  0
   -1.3679    0.6513    0.0000 C   0  0  0  0  0  0  0  0  0  0  0  0
   -1.3679    1.4764    0.0000 C   0  0  0  0  0  0  0  0  0  0  0  0
   -2.0627    1.8673    0.0000 C   0  0  0  0  0  0  0  0  0  0  0  0
   -2.0627    2.6924    0.0000 C   0  0  0  0  0  0  0  0  0  0  0  0
   -2.7575    3.1267    0.0000 C   0  0  0  0  0  0  0  0  0  0  0  0
   -2.7575    3.9517    0.0000 C   0  0  0  0  0  0  0  0  0  0  0  0
   -3.4958    4.3426    0.0000 C   0  0  0  0  0  0  0  0  0  0  0  0
  1  3  2  0
  1  4  1  0
  2  3  1  0
  2  5  1  0
  4  5  2  0
  4  9  1  0
  5  6  1  0
  6  7  1  0
  6 11  2  0
  7  8  2  0
  7 12  1  0
  8  9  1  0
  8 13  1  0
  9 10  2  0
 13 14  1  0
 14 15  1  0
 15 16  1  0
 16 17  1  0
 17 18  1  0
 18 19  1  0
 19 20  1  0
 20 21  1  0
 21 22  1  0
 22 23  1  0
M  END
>  <DRUGBANK_ID>  (1) 
DB04799

>  <COMMON_NAME>  (1) 
6-Hydroxy-5-undecyl-4,7-benzothiazoledione

>  <CAS_NUMBER>  (1) 
43152-58-5

>  <SYNONYMS>  (1) 
5-n-undecyl-6-hydroxy-4,7-dioxobenzothiazole; 6-hydroxy-5-undecyl-1,3-benzothiazole-4,7-dione; 6-Hydroxy-5-undecyl-4,7-benzothiazoledione; UHDBT

$$$$
