
     RDKit          2D

 25 26  0  0  0  0  0  0  0  0999 V2000
   -2.3858   -1.0235    0.0000 C   0  0  0  0  0  0  0  0  0  0  0  0
   -1.0804   -0.4423    0.0000 C   0  0  0  0  0  0  0  0  0  0  0  0
   -2.0502   -1.7772    0.0000 C   0  0  0  0  0  0  0  0  0  0  0  0
   -0.7448   -1.1960    0.0000 C   0  0  0  0  0  0  0  0  0  0  0  0
   -2.0535    3.5721    0.0000 C   0  0  0  0  0  0  0  0  0  0  0  0
   -2.7679    3.1596    0.0000 C   0  0  0  0  0  0  0  0  0  0  0  0
   -2.2364    0.3976    0.0000 C   0  0  0  0  0  0  0  0  0  0  0  0
    0.1131    2.1046    0.0000 C   0  0  0  0  0  0  0  0  0  0  0  0
   -1.9009   -0.3561    0.0000 C   0  0  0  0  0  0  0  0  0  0  0  0
   -1.2297   -1.8634    0.0000 C   0  0  0  0  0  0  0  0  0  0  0  0
   -1.3390    3.1596    0.0000 C   0  0  0  0  0  0  0  0  0  0  0  0
   -1.7515    1.0650    0.0000 C   0  0  0  0  0  0  0  0  0  0  0  0
   -3.4824    3.5721    0.0000 C   0  0  0  0  0  0  0  0  0  0  0  0
    0.7262    1.5526    0.0000 C   0  0  0  0  0  0  0  0  0  0  0  0
   -1.3390    2.3346    0.0000 C   0  0  0  0  0  0  0  0  0  0  0  0
   -0.9265    1.0650    0.0000 C   0  0  0  0  0  0  0  0  0  0  0  0
   -0.6245    3.5721    0.0000 N   0  0  0  0  0  0  0  0  0  0  0  0
   -2.0064    1.8496    0.0000 N   0  0  0  0  0  0  0  0  0  0  0  0
   -0.6716    1.8496    0.0000 N   0  0  0  0  0  0  0  0  0  0  0  0
   -0.8942   -2.6171    0.0000 O   0  0  0  0  0  0  0  0  0  0  0  0
   -4.1969    3.1596    0.0000 O   0  0  0  0  0  0  0  0  0  0  0  0
   -3.4824    4.3971    0.0000 O   0  0  0  0  0  0  0  0  0  0  0  0
    1.5108    1.8075    0.0000 O   0  0  0  0  0  0  0  0  0  0  0  0
    0.5546    0.7456    0.0000 O   0  0  0  0  0  0  0  0  0  0  0  0
   -0.4416    0.3976    0.0000 O   0  0  0  0  0  0  0  0  0  0  0  0
  3  1  2  0
  4  2  1  0
  6  5  1  0
  9  1  1  0
  9  2  2  0
  9  7  1  0
 10  3  1  0
 10  4  2  0
 11  5  1  0
 12  7  2  0
 13  6  1  0
 14  8  1  0
 15 11  1  0
 16 12  1  0
 17 11  2  0
 18 12  1  0
 18 15  2  0
 19  8  1  0
 19 15  1  0
 19 16  1  0
 20 10  1  0
 21 13  2  0
 22 13  1  0
 23 14  2  0
 24 14  1  0
 25 16  2  0
M  END
>  <DRUGBANK_ID>  (1) 
DB04668

>  <COMMON_NAME>  (1) 
CHROMOPHORE (GLU-TYR-GLY)

$$$$
