
     RDKit          2D

 12 12  0  0  0  0  0  0  0  0999 V2000
   -1.0717    0.8250    0.0000 O   0  0  0  0  0  0  0  0  0  0  0  0
   -1.7862    0.4125    0.0000 C   0  0  0  0  0  0  0  0  0  0  0  0
   -0.3572    0.4125    0.0000 C   0  0  0  0  0  0  0  0  0  0  0  0
   -0.3572   -0.4124    0.0000 C   0  0  0  0  0  0  0  0  0  0  0  0
   -1.0717   -0.8250    0.0000 O   0  0  0  0  0  0  0  0  0  0  0  0
    0.3572   -0.8250    0.0000 C   0  0  0  0  0  0  0  0  0  0  0  0
    0.3572   -1.6500    0.0000 O   0  0  0  0  0  0  0  0  0  0  0  0
    1.0717   -0.4124    0.0000 C   0  0  0  0  0  0  0  0  0  0  0  0
    1.0717    0.4125    0.0000 O   0  0  0  0  0  0  0  0  0  0  0  0
    0.3572    0.8250    0.0000 C   0  0  0  0  0  0  0  0  0  0  0  0
    0.3572    1.6500    0.0000 O   0  0  0  0  0  0  0  0  0  0  0  0
    1.7862   -0.8250    0.0000 C   0  0  0  0  0  0  0  0  0  0  0  0
  1  2  1  0
  3  1  1  6
  3  4  1  0
  3 10  1  0
  4  5  1  1
  4  6  1  0
  6  7  1  1
  6  8  1  0
  8 12  1  1
  9  8  1  0
 10  9  1  0
 10 11  1  6
M  END
>  <DRUGBANK_ID>  (1) 
DB04515

>  <SECONDARY_ACCESSION_NUMBERS>  (1) 
EXPT02263

>  <COMMON_NAME>  (1) 
2-O-methyl-alpha-L-fucopyranose

>  <CAS_NUMBER>  (1) 
1887228-22-9

>  <UNII>  (1) 
ZN7HRG4F33

>  <SYNONYMS>  (1) 
6-deoxy-2-O-methyl-alpha-L-galactopyranose; 6-deoxy-2-O-methyl-Î±-L-galactopyranose

$$$$
