
     RDKit          2D

 23 25  0  0  0  0  0  0  0  0999 V2000
   -7.1447    5.7750    0.0000 C   0  0  0  0  0  0  0  0  0  0  0  0
   -4.2868    3.3000    0.0000 C   0  0  0  0  0  0  0  0  0  0  0  0
   -1.4289    2.4750    0.0000 C   0  0  0  0  0  0  0  0  0  0  0  0
   -2.1434    6.1875    0.0000 C   0  0  0  0  0  0  0  0  0  0  0  0
   -2.8579    5.7750    0.0000 C   0  0  0  0  0  0  0  0  0  0  0  0
   -1.4289    3.3000    0.0000 C   0  0  0  0  0  0  0  0  0  0  0  0
   -4.2868    5.7750    0.0000 C   0  0  0  0  0  0  0  0  0  0  0  0
   -5.0013    6.1875    0.0000 C   0  0  0  0  0  0  0  0  0  0  0  0
   -2.1434    2.0625    0.0000 C   0  0  0  0  0  0  0  0  0  0  0  0
   -1.4289    5.7750    0.0000 C   0  0  0  0  0  0  0  0  0  0  0  0
   -3.5724    4.5375    0.0000 C   0  0  0  0  0  0  0  0  0  0  0  0
   -5.7158    4.9500    0.0000 C   0  0  0  0  0  0  0  0  0  0  0  0
   -2.8579    3.3000    0.0000 C   0  0  0  0  0  0  0  0  0  0  0  0
   -4.2868    4.9500    0.0000 C   0  0  0  0  0  0  0  0  0  0  0  0
   -2.8579    4.9500    0.0000 C   0  0  0  0  0  0  0  0  0  0  0  0
   -2.1434    3.7125    0.0000 C   0  0  0  0  0  0  0  0  0  0  0  0
   -5.7158    5.7750    0.0000 C   0  0  0  0  0  0  0  0  0  0  0  0
   -5.0013    4.5375    0.0000 C   0  0  0  0  0  0  0  0  0  0  0  0
   -2.1434    4.5375    0.0000 C   0  0  0  0  0  0  0  0  0  0  0  0
   -2.8579    2.4750    0.0000 N   0  0  0  0  0  0  0  0  0  0  0  0
   -1.4289    4.9500    0.0000 N   0  0  0  0  0  0  0  0  0  0  0  0
   -6.4302    6.1875    0.0000 O   0  0  0  0  0  0  0  0  0  0  0  0
   -5.0013    3.7125    0.0000 O   0  0  0  0  0  0  0  0  0  0  0  0
  5  4  1  0
  6  3  2  0
  8  7  2  0
  9  3  1  0
 10  4  1  0
 14  7  1  0
 14 11  1  0
 15  5  1  0
 15 11  2  0
 16  6  1  0
 16 13  2  0
 17  8  1  0
 17 12  2  0
 18 12  1  0
 18 14  2  0
 19 15  1  0
 19 16  1  0
 20  9  2  0
 20 13  1  0
 21 10  1  0
 21 19  2  0
 22  1  1  0
 22 17  1  0
 23  2  1  0
 23 18  1  0
M  END
>  <DRUGBANK_ID>  (1) 
DB05708

>  <COMMON_NAME>  (1) 
GTS-21

>  <CAS_NUMBER>  (1) 
148372-04-7

>  <UNII>  (1) 
8S399XDN2K

>  <SYNONYMS>  (1) 
3-(2,4-dimethoxybenzylidene)anabaseine; Dimethoxybenzylidene anabaseine; DMXB-A; DMXB-Anabaseine

$$$$
