P63
     RDKit          2D

 29 32  0  0  0  0  0  0  0  0999 V2000
   -2.3242    0.1217    0.0000 N   0  0  0  0  0  0  0  0  0  0  0  0
   -2.8091    0.7892    0.0000 C   0  0  0  0  0  0  0  0  0  0  0  0
   -2.3242    1.4566    0.0000 C   0  0  0  0  0  0  0  0  0  0  0  0
   -1.5396    1.2017    0.0000 C   0  0  0  0  0  0  0  0  0  0  0  0
   -1.5396    0.3767    0.0000 N   0  0  0  0  0  0  0  0  0  0  0  0
   -0.8251    1.6142    0.0000 N   0  0  0  0  0  0  0  0  0  0  0  0
   -0.1106    1.2017    0.0000 C   0  0  0  0  0  0  0  0  0  0  0  0
   -0.1106    0.3767    0.0000 N   0  0  0  0  0  0  0  0  0  0  0  0
   -0.8251   -0.0358    0.0000 C   0  0  0  0  0  0  0  0  0  0  0  0
   -0.8251   -0.8608    0.0000 N   0  0  0  0  0  0  0  0  0  0  0  0
   -1.5396   -1.2733    0.0000 C   0  0  0  0  0  0  0  0  0  0  0  0
   -2.2540   -0.8608    0.0000 C   0  0  0  0  0  0  0  0  0  0  0  0
   -2.9685   -1.2733    0.0000 C   0  0  0  0  0  0  0  0  0  0  0  0
   -2.9685   -2.0983    0.0000 C   0  0  0  0  0  0  0  0  0  0  0  0
   -2.2540   -2.5108    0.0000 C   0  0  0  0  0  0  0  0  0  0  0  0
   -1.5396   -2.0983    0.0000 C   0  0  0  0  0  0  0  0  0  0  0  0
    0.6038    1.6142    0.0000 N   0  0  0  0  0  0  0  0  0  0  0  0
    1.3183    1.2017    0.0000 C   0  0  0  0  0  0  0  0  0  0  0  0
    2.0328    1.6142    0.0000 C   0  0  0  0  0  0  0  0  0  0  0  0
    2.7473    1.2017    0.0000 C   0  0  0  0  0  0  0  0  0  0  0  0
    2.7473    0.3767    0.0000 C   0  0  0  0  0  0  0  0  0  0  0  0
    2.0328   -0.0358    0.0000 C   0  0  0  0  0  0  0  0  0  0  0  0
    1.3183    0.3767    0.0000 C   0  0  0  0  0  0  0  0  0  0  0  0
   -2.5791    2.2412    0.0000 C   0  0  0  0  0  0  0  0  0  0  0  0
   -2.8341    3.0259    0.0000 N   0  0  0  0  0  0  0  0  0  0  0  0
    3.4617    1.6142    0.0000 N   0  0  0  0  0  0  0  0  0  0  0  0
    4.1762    1.2017    0.0000 C   0  0  0  0  0  0  0  0  0  0  0  0
    4.8907    1.6142    0.0000 O   0  0  0  0  0  0  0  0  0  0  0  0
    4.1762    0.3767    0.0000 C   0  0  0  0  0  0  0  0  0  0  0  0
  1  2  2  0
  1  5  1  0
  2  3  1  0
  3 24  1  0
  3  4  2  0
  4  6  1  0
  4  5  1  0
  5  9  1  0
  6  7  2  0
  7 17  1  0
  7  8  1  0
  8  9  2  0
  9 10  1  0
 10 11  1  0
 11 16  1  0
 11 12  2  0
 12 13  1  0
 13 14  2  0
 14 15  1  0
 15 16  2  0
 17 18  1  0
 18 19  2  0
 18 23  1  0
 19 20  1  0
 20 26  1  0
 20 21  2  0
 21 22  1  0
 22 23  2  0
 24 25  3  0
 26 27  1  0
 27 28  2  0
 27 29  1  0
M  END
>  <DRUGBANK_ID>  (1) 
DB08362

>  <COMMON_NAME>  (1) 
N-(3-(8-CYANO-4-(PHENYLAMINO)PYRAZOLO[1,5-A][1,3,5]TRIAZIN-2-YLAMINO)PHENYL)ACETAMIDE

$$$$
