
     RDKit          2D

 36 40  0  0  1  0  0  0  0  0999 V2000
   -4.9320   -1.1552    0.0000 C   0  0  0  0  0  0  0  0  0  0  0  0
   -4.1375   -0.9327    0.0000 C   0  0  0  0  0  0  0  0  0  0  0  0
   -3.9330   -0.1335    0.0000 C   0  0  0  0  0  0  0  0  0  0  0  0
   -4.4593    0.5018    0.0000 N   0  0  0  0  0  0  0  0  0  0  0  0
   -4.0178    1.1987    0.0000 O   0  0  0  0  0  0  0  0  0  0  0  0
   -3.2185    0.9941    0.0000 C   0  0  0  0  0  0  0  0  0  0  0  0
   -2.5833    1.5205    0.0000 C   0  0  0  0  0  0  0  0  0  0  0  0
   -1.8098    1.2335    0.0000 C   0  0  0  0  0  0  0  0  0  0  0  0
   -3.1661    0.1708    0.0000 C   0  0  0  0  0  0  0  0  0  0  0  0
   -2.4692   -0.2707    0.0000 C   0  0  0  0  0  0  0  0  0  0  0  0
   -2.5032   -1.0951    0.0000 O   0  0  0  0  0  0  0  0  0  0  0  0
   -1.7384    0.1120    0.0000 O   0  0  0  0  0  0  0  0  0  0  0  0
   -1.0415   -0.3295    0.0000 C   0  0  0  0  0  0  0  0  0  0  0  0
   -1.0008   -1.1576    0.0000 C   0  0  0  0  0  0  0  0  0  0  0  0
   -1.6332   -1.6874    0.0000 C   0  0  0  0  0  0  0  0  0  0  0  0
   -0.1929   -1.3426    0.0000 C   0  0  0  0  0  0  0  0  0  0  0  0
    0.3261   -0.6574    0.0000 C   0  0  0  0  0  0  0  0  0  0  0  0
    0.7898   -1.4107    0.0000 C   0  0  0  0  0  0  0  0  0  0  0  0
    0.2915   -2.0682    0.0000 C   0  0  0  0  0  0  0  0  0  0  0  0
    1.6097   -1.6445    0.0000 C   0  0  0  0  0  0  0  0  0  0  0  0
    2.2721   -1.1201    0.0000 C   0  0  0  0  0  0  0  0  0  0  0  0
    2.2431   -0.2956    0.0000 C   0  0  0  0  0  0  0  0  0  0  0  0
    1.5837    0.2513    0.0000 C   0  0  0  0  0  0  0  0  0  0  0  0
    1.2746    1.0377    0.0000 C   0  0  0  0  0  0  0  0  0  0  0  0
    0.4853    1.3255    0.0000 C   0  0  0  0  0  0  0  0  0  0  0  0
    0.3879    2.1447    0.0000 C   0  0  0  0  0  0  0  0  0  0  0  0
   -0.3702    2.4700    0.0000 O   0  0  0  0  0  0  0  0  0  0  0  0
   -0.2167    0.8594    0.0000 C   0  0  0  0  0  0  0  0  0  0  0  0
   -0.9315    1.2713    0.0000 O   0  0  0  0  0  0  0  0  0  0  0  0
   -0.2695   -0.0102    0.0000 C   0  0  0  0  0  0  0  0  0  0  0  0
   -0.9411    0.4689    0.0000 O   0  0  0  0  0  0  0  0  0  0  0  0
    0.9424   -0.2150    0.0000 C   0  0  0  0  0  0  0  0  0  0  0  0
    1.4256   -0.8837    0.0000 O   0  0  0  0  0  0  0  0  0  0  0  0
    2.9716   -0.6827    0.0000 C   0  0  0  0  0  0  0  0  0  0  0  0
    3.6304   -0.1861    0.0000 C   0  0  0  0  0  0  0  0  0  0  0  0
    3.6636   -1.1319    0.0000 C   0  0  0  0  0  0  0  0  0  0  0  0
  1  2  1  0
  2  3  1  0
  3  4  2  0
  3  9  1  0
  4  5  1  0
  5  6  1  0
  6  7  1  0
  6  9  2  0
  7  8  1  0
  9 10  1  0
 10 11  2  0
 10 12  1  0
 13 12  1  6
 13 14  1  0
 14 15  1  0
 14 16  2  0
 17 16  1  1
 17 18  1  0
 17 32  1  0
 18 19  1  1
 18 20  1  0
 21 20  1  6
 21 34  1  0
 22 21  1  0
 22 23  1  0
 22 34  1  6
 23 24  1  1
 23 32  1  0
 24 25  2  0
 25 26  1  0
 26 27  1  0
 28 25  1  0
 28 29  1  6
 30 28  1  0
 30 13  1  0
 30 17  1  0
 30 31  1  6
 32 33  2  0
 34 35  1  0
 34 36  1  0
M  END
>  <DRUGBANK_ID>  (1) 
DB15109

>  <COMMON_NAME>  (1) 
Ingenol disoxate

>  <CAS_NUMBER>  (1) 
1383547-60-1

>  <UNII>  (1) 
3B100VJ4ZW

>  <SYNONYMS>  (1) 
Ingenol disoxate

$$$$
