
     RDKit          2D

 36 39  0  0  1  0  0  0  0  0999 V2000
   -8.0591    2.3987    0.0000 N   0  0  0  0  0  0  0  0  0  0  0  0
   -7.3054    2.0632    0.0000 C   0  0  0  0  0  0  0  0  0  0  0  0
   -6.6380    2.5481    0.0000 C   0  0  0  0  0  0  0  0  0  0  0  0
   -6.5518    3.3686    0.0000 N   0  0  0  0  0  0  0  0  0  0  0  0
   -5.7448    3.5401    0.0000 C   0  0  0  0  0  0  0  0  0  0  0  0
   -5.3323    2.8256    0.0000 N   0  0  0  0  0  0  0  0  0  0  0  0
   -4.5118    2.7394    0.0000 C   0  0  0  0  0  0  0  0  0  0  0  0
   -3.9598    3.3525    0.0000 O   0  0  0  0  0  0  0  0  0  0  0  0
   -3.2061    3.0169    0.0000 C   0  0  0  0  0  0  0  0  0  0  0  0
   -2.4916    3.4294    0.0000 C   0  0  0  0  0  0  0  0  0  0  0  0
   -1.7772    3.0169    0.0000 O   0  0  0  0  0  0  0  0  0  0  0  0
   -1.0627    3.4294    0.0000 P   0  0  0  0  0  0  0  0  0  0  0  0
   -0.6502    2.7150    0.0000 O   0  0  0  0  0  0  0  0  0  0  0  0
   -1.4752    4.1439    0.0000 O   0  0  0  0  0  0  0  0  0  0  0  0
   -0.3482    3.8419    0.0000 O   0  0  0  0  0  0  0  0  0  0  0  0
    0.3663    3.4294    0.0000 P   0  0  0  0  0  0  0  0  0  0  0  0
   -0.0462    2.7150    0.0000 O   0  0  0  0  0  0  0  0  0  0  0  0
    0.7788    4.1439    0.0000 O   0  0  0  0  0  0  0  0  0  0  0  0
    1.0807    3.0169    0.0000 O   0  0  0  0  0  0  0  0  0  0  0  0
    1.7952    3.4294    0.0000 C   0  0  0  0  0  0  0  0  0  0  0  0
    2.5097    3.0169    0.0000 C   0  0  0  0  0  0  0  0  0  0  0  0
    3.2634    3.3525    0.0000 O   0  0  0  0  0  0  0  0  0  0  0  0
    3.8154    2.7394    0.0000 C   0  0  0  0  0  0  0  0  0  0  0  0
    4.6359    2.8256    0.0000 O   0  0  0  0  0  0  0  0  0  0  0  0
    3.4029    2.0249    0.0000 C   0  0  0  0  0  0  0  0  0  0  0  0
    3.7384    1.2712    0.0000 O   0  0  0  0  0  0  0  0  0  0  0  0
    2.5959    2.1964    0.0000 C   0  0  0  0  0  0  0  0  0  0  0  0
    1.9828    1.6444    0.0000 O   0  0  0  0  0  0  0  0  0  0  0  0
   -3.2923    2.1964    0.0000 C   0  0  0  0  0  0  0  0  0  0  0  0
   -2.6792    1.6444    0.0000 O   0  0  0  0  0  0  0  0  0  0  0  0
   -4.0993    2.0249    0.0000 C   0  0  0  0  0  0  0  0  0  0  0  0
   -4.4349    1.2712    0.0000 O   0  0  0  0  0  0  0  0  0  0  0  0
   -5.8843    2.2125    0.0000 C   0  0  0  0  0  0  0  0  0  0  0  0
   -5.7981    1.3920    0.0000 N   0  0  0  0  0  0  0  0  0  0  0  0
   -6.4655    0.9071    0.0000 C   0  0  0  0  0  0  0  0  0  0  0  0
   -7.2192    1.2427    0.0000 N   0  0  0  0  0  0  0  0  0  0  0  0
  1  2  1  0
  2  3  2  0
  2 36  1  0
  3  4  1  0
  3 33  1  0
  4  5  2  0
  5  6  1  0
  6 33  1  0
  7  6  1  6
  7  8  1  0
  7 31  1  0
  8  9  1  0
  9 10  1  6
  9 29  1  0
 10 11  1  0
 12 11  1  0
 12 13  1  0
 12 14  2  0
 12 15  1  0
 16 15  1  0
 16 17  1  0
 16 18  2  0
 16 19  1  0
 19 20  1  0
 21 20  1  1
 21 22  1  0
 21 27  1  0
 22 23  1  0
 23 24  1  6
 23 25  1  0
 25 26  1  6
 25 27  1  0
 27 28  1  6
 29 30  1  1
 29 31  1  0
 31 32  1  1
 33 34  2  0
 34 35  1  0
 35 36  2  0
M  END
>  <DRUGBANK_ID>  (1) 
DB02059

>  <SECONDARY_ACCESSION_NUMBERS>  (1) 
EXPT00544

>  <COMMON_NAME>  (1) 
Adenosine-5-Diphosphoribose

>  <SYNONYMS>  (1) 
ADPR

$$$$
