HTF
     RDKit          2D

 16 16  0  0  0  0  0  0  0  0999 V2000
   -3.2556    0.2546    0.0000 C   0  0  0  0  0  0  0  0  0  0  0  0
   -2.5411   -0.1579    0.0000 C   0  0  0  0  0  0  0  0  0  0  0  0
   -1.8266    0.2546    0.0000 C   0  0  0  0  0  0  0  0  0  0  0  0
   -1.1121   -0.1579    0.0000 C   0  0  0  0  0  0  0  0  0  0  0  0
   -0.3977    0.2546    0.0000 C   0  0  0  0  0  0  0  0  0  0  0  0
    0.3168   -0.1579    0.0000 C   0  0  0  0  0  0  0  0  0  0  0  0
    1.0313    0.2546    0.0000 C   0  0  0  0  0  0  0  0  0  0  0  0
    1.7457   -0.1579    0.0000 C   0  0  0  0  0  0  0  0  0  0  0  0
    1.7457   -0.9829    0.0000 O   0  0  0  0  0  0  0  0  0  0  0  0
    2.4602    0.2546    0.0000 N   0  0  0  0  0  0  0  0  0  0  0  0
    3.1747   -0.1579    0.0000 C   0  0  0  0  0  0  0  0  0  0  0  0
    3.9284    0.1777    0.0000 C   0  0  0  0  0  0  0  0  0  0  0  0
    4.0999    0.9846    0.0000 O   0  0  0  0  0  0  0  0  0  0  0  0
    4.4804   -0.4354    0.0000 O   0  0  0  0  0  0  0  0  0  0  0  0
    4.0679   -1.1499    0.0000 C   0  0  0  0  0  0  0  0  0  0  0  0
    3.2609   -0.9784    0.0000 C   0  0  0  0  0  0  0  0  0  0  0  0
  1  2  1  0
  2  3  1  0
  3  4  1  0
  4  5  1  0
  5  6  1  0
  6  7  1  0
  7  8  1  0
  8  9  2  0
  8 10  1  0
 11 10  1  6
 11 12  1  0
 11 16  1  0
 12 13  2  0
 12 14  1  0
 14 15  1  0
 15 16  1  0
M  END
>  <DRUGBANK_ID>  (1) 
DB07928

>  <COMMON_NAME>  (1) 
N-(2-OXOTETRAHYDROFURAN-3-YL)OCTANAMIDE

$$$$
