
     RDKit          2D

 30 32  0  0  0  0  0  0  0  0999 V2000
   -4.4126    4.2065    0.0000 C   0  0  0  0  0  0  0  0  0  0  0  0
   -4.1304    3.4313    0.0000 C   0  0  0  0  0  0  0  0  0  0  0  0
   -3.3179    3.2880    0.0000 C   0  0  0  0  0  0  0  0  0  0  0  0
   -3.0358    2.5128    0.0000 N   0  0  0  0  0  0  0  0  0  0  0  0
   -2.2233    2.3695    0.0000 C   0  0  0  0  0  0  0  0  0  0  0  0
   -1.9411    1.5942    0.0000 C   0  0  0  0  0  0  0  0  0  0  0  0
   -2.4714    0.9623    0.0000 N   0  0  0  0  0  0  0  0  0  0  0  0
   -3.2839    1.1055    0.0000 C   0  0  0  0  0  0  0  0  0  0  0  0
   -3.5661    1.8808    0.0000 C   0  0  0  0  0  0  0  0  0  0  0  0
   -2.1893    0.1870    0.0000 C   0  0  0  0  0  0  0  0  0  0  0  0
   -1.3768    0.0438    0.0000 C   0  0  0  0  0  0  0  0  0  0  0  0
   -1.0946   -0.7315    0.0000 C   0  0  0  0  0  0  0  0  0  0  0  0
   -1.6249   -1.3635    0.0000 C   0  0  0  0  0  0  0  0  0  0  0  0
   -2.4374   -1.2202    0.0000 C   0  0  0  0  0  0  0  0  0  0  0  0
   -2.7196   -0.4450    0.0000 C   0  0  0  0  0  0  0  0  0  0  0  0
   -1.3428   -2.1387    0.0000 C   0  0  0  0  0  0  0  0  0  0  0  0
   -1.8731   -2.7707    0.0000 O   0  0  0  0  0  0  0  0  0  0  0  0
   -0.5303   -2.2820    0.0000 N   0  0  0  0  0  0  0  0  0  0  0  0
   -0.2481   -3.0572    0.0000 C   0  0  0  0  0  0  0  0  0  0  0  0
    0.2822   -3.6892    0.0000 C   0  0  0  0  0  0  0  0  0  0  0  0
    0.0000   -4.4645    0.0000 C   0  0  0  0  0  0  0  0  0  0  0  0
   -0.8125   -4.6077    0.0000 C   0  0  0  0  0  0  0  0  0  0  0  0
   -1.3428   -3.9757    0.0000 C   0  0  0  0  0  0  0  0  0  0  0  0
   -1.0606   -3.2005    0.0000 C   0  0  0  0  0  0  0  0  0  0  0  0
    0.4663   -2.6447    0.0000 C   0  0  0  0  0  0  0  0  0  0  0  0
    1.1808   -3.0572    0.0000 O   0  0  0  0  0  0  0  0  0  0  0  0
    0.4663   -1.8197    0.0000 N   0  0  0  0  0  0  0  0  0  0  0  0
    1.1808   -1.4072    0.0000 C   0  0  0  0  0  0  0  0  0  0  0  0
    1.8953   -1.8197    0.0000 C   0  0  0  0  0  0  0  0  0  0  0  0
    2.6098   -2.2322    0.0000 N   0  0  0  0  0  0  0  0  0  0  0  0
  1  2  1  0
  2  3  1  0
  3  4  1  0
  4  5  1  0
  4  9  1  0
  5  6  1  0
  6  7  1  0
  7  8  1  0
  7 10  1  0
  8  9  1  0
 10 11  2  0
 10 15  1  0
 11 12  1  0
 12 13  2  0
 13 14  1  0
 13 16  1  0
 14 15  2  0
 16 17  2  0
 16 18  1  0
 18 19  1  0
 19 20  1  0
 19 24  1  0
 19 25  1  0
 20 21  1  0
 21 22  1  0
 22 23  1  0
 23 24  1  0
 25 26  2  0
 25 27  1  0
 27 28  1  0
 28 29  1  0
 29 30  3  0
M  END
>  <DRUGBANK_ID>  (1) 
DB12239

>  <COMMON_NAME>  (1) 
Balicatib

>  <CAS_NUMBER>  (1) 
354813-19-7

>  <UNII>  (1) 
E00MVC7O57

>  <SYNONYMS>  (1) 
Balicatib

$$$$
