S23
     RDKit          2D

 29 30  0  0  0  0  0  0  0  0999 V2000
   -0.2436   -0.0915    0.0000 O   0  0  0  0  0  0  0  0  0  0  0  0
   -0.9581   -0.5040    0.0000 P   0  0  0  0  0  0  0  0  0  0  0  0
   -1.6725   -0.9165    0.0000 O   0  0  0  0  0  0  0  0  0  0  0  0
   -0.5456   -1.2185    0.0000 C   0  0  0  0  0  0  0  0  0  0  0  0
    0.2794   -1.2185    0.0000 N   0  0  0  0  0  0  0  0  0  0  0  0
   -0.9581   -1.9330    0.0000 C   0  0  0  0  0  0  0  0  0  0  0  0
   -1.3706    0.2104    0.0000 C   0  0  0  0  0  0  0  0  0  0  0  0
   -0.9581    0.9249    0.0000 C   0  0  0  0  0  0  0  0  0  0  0  0
   -1.3706    1.6394    0.0000 C   0  0  0  0  0  0  0  0  0  0  0  0
   -2.1956    1.6394    0.0000 C   0  0  0  0  0  0  0  0  0  0  0  0
   -2.6081    2.3539    0.0000 C   0  0  0  0  0  0  0  0  0  0  0  0
   -3.4331    2.3539    0.0000 C   0  0  0  0  0  0  0  0  0  0  0  0
   -3.8456    1.6394    0.0000 C   0  0  0  0  0  0  0  0  0  0  0  0
   -3.4331    0.9249    0.0000 C   0  0  0  0  0  0  0  0  0  0  0  0
   -2.6081    0.9249    0.0000 C   0  0  0  0  0  0  0  0  0  0  0  0
   -0.1331    0.9249    0.0000 C   0  0  0  0  0  0  0  0  0  0  0  0
    0.2794    1.6394    0.0000 O   0  0  0  0  0  0  0  0  0  0  0  0
    0.2794    0.2104    0.0000 N   0  0  0  0  0  0  0  0  0  0  0  0
    1.1044    0.2104    0.0000 C   0  0  0  0  0  0  0  0  0  0  0  0
    1.5169    0.9249    0.0000 C   0  0  0  0  0  0  0  0  0  0  0  0
    1.1044    1.6394    0.0000 O   0  0  0  0  0  0  0  0  0  0  0  0
    2.3419    0.9249    0.0000 O   0  0  0  0  0  0  0  0  0  0  0  0
    1.5169   -0.5040    0.0000 C   0  0  0  0  0  0  0  0  0  0  0  0
    2.3419   -0.5040    0.0000 C   0  0  0  0  0  0  0  0  0  0  0  0
    2.7544   -1.2185    0.0000 C   0  0  0  0  0  0  0  0  0  0  0  0
    3.5794   -1.2185    0.0000 C   0  0  0  0  0  0  0  0  0  0  0  0
    3.9919   -0.5040    0.0000 C   0  0  0  0  0  0  0  0  0  0  0  0
    3.5794    0.2104    0.0000 C   0  0  0  0  0  0  0  0  0  0  0  0
    2.7544    0.2104    0.0000 C   0  0  0  0  0  0  0  0  0  0  0  0
  2  1  2  0
  2  3  1  0
  2  4  1  0
  2  7  1  0
  4  5  1  0
  4  6  1  1
  8  7  1  1
  8 16  1  0
  8  9  1  0
 10  9  1  0
 11 10  2  0
 12 11  1  0
 13 12  2  0
 13 14  1  0
 14 15  2  0
 15 10  1  0
 16 18  1  0
 17 16  2  0
 19 18  1  0
 19 23  1  6
 20 19  1  0
 20 22  1  0
 21 20  2  0
 23 24  1  0
 24 29  1  0
 25 24  2  0
 25 26  1  0
 26 27  2  0
 27 28  1  0
 29 28  2  0
M  END
>  <DRUGBANK_ID>  (1) 
DB08506

>  <COMMON_NAME>  (1) 
N-{(2S)-3-[(1R)-1-aminoethyl](hydroxy)phosphoryl-2-benzylpropanoyl}-L-phenylalanine

$$$$
