
     RDKit          2D

 11 11  0  0  0  0  0  0  0  0999 V2000
   -0.3545    1.6498    0.0000 C   0  0  0  0  0  0  0  0  0  0  0  0
   -0.3545    0.8248    0.0000 C   0  0  0  0  0  0  0  0  0  0  0  0
    0.3573    0.4129    0.0000 N   0  0  0  0  0  0  0  0  0  0  0  0
    0.3573   -0.4121    0.0000 C   0  0  0  0  0  0  0  0  0  0  0  0
    1.0718   -0.8247    0.0000 N   0  0  0  0  0  0  0  0  0  0  0  0
    1.0718   -1.6498    0.0000 C   0  0  0  0  0  0  0  0  0  0  0  0
    1.7864   -0.4121    0.0000 C   0  0  0  0  0  0  0  0  0  0  0  0
   -0.3527   -0.8239    0.0000 N   0  0  0  0  0  0  0  0  0  0  0  0
   -1.0689   -0.4158    0.0000 C   0  0  0  0  0  0  0  0  0  0  0  0
   -1.7864   -0.8300    0.0000 N   0  0  0  0  0  0  0  0  0  0  0  0
   -1.0689    0.4125    0.0000 N   0  0  0  0  0  0  0  0  0  0  0  0
  2  1  1  1
  2 11  1  0
  3  2  1  0
  4  3  2  0
  4  5  1  0
  5  6  1  0
  5  7  1  0
  8  4  1  0
  9  8  2  0
  9 10  1  0
 11  9  1  0
M  END
>  <DRUGBANK_ID>  (1) 
DB12509

>  <COMMON_NAME>  (1) 
Imeglimin

>  <CAS_NUMBER>  (1) 
775351-65-0

>  <UNII>  (1) 
UU226QGU97

>  <SYNONYMS>  (1) 
Imeglimin; Imeglimina; ImÃ©glimine; Imegliminum

$$$$
