
     RDKit          2D

  6  6  0  0  0  0  0  0  0  0999 V2000
    1.4289    0.8250    0.0000 C   0  0  0  0  0  0  0  0  0  0  0  0
    1.4289    0.0000    0.0000 C   0  0  0  0  0  0  0  0  0  0  0  0
    0.7145   -0.4125    0.0000 O   0  0  0  0  0  0  0  0  0  0  0  0
    0.0000    0.0000    0.0000 C   0  0  0  0  0  0  0  0  0  0  0  0
    0.0000    0.8250    0.0000 C   0  0  0  0  0  0  0  0  0  0  0  0
    0.7145    1.2375    0.0000 O   0  0  0  0  0  0  0  0  0  0  0  0
  1  2  1  0
  1  6  1  0
  2  3  1  0
  3  4  1  0
  4  5  1  0
  5  6  1  0
M  END
>  <DRUGBANK_ID>  (1) 
DB03316

>  <SECONDARY_ACCESSION_NUMBERS>  (1) 
EXPT01208

>  <COMMON_NAME>  (1) 
1,4-Dioxane

>  <CAS_NUMBER>  (1) 
123-91-1

>  <UNII>  (1) 
J8A3S10O7S

>  <SYNONYMS>  (1) 
1,4-dioxacyclohexane; 1,4-Dioxan; 1,4-Dioxane; di(ethylene oxide); Dioxan-1,4; Dioxane-1,4; glycol ethylene ether; p-Dioxane; tetrahydro-1,4-dioxin; tetrahydro-p-dioxin; tetrahydro-para-dioxin

$$$$
