
     RDKit          2D

 22 22  0  0  1  0  0  0  0  0999 V2000
    2.0198    0.8843    0.0000 C   0  0  0  0  0  0  0  0  0  0  0  0
   -1.9706   -0.6502    0.0000 C   0  0  0  0  0  0  0  0  0  0  0  0
    1.2352    0.6294    0.0000 C   0  0  0  0  0  0  0  0  0  0  0  0
    0.5678    1.1143    0.0000 C   0  0  0  0  0  0  0  0  0  0  0  0
   -0.0997    0.6294    0.0000 C   0  0  0  0  0  0  0  0  0  0  0  0
    0.1553   -0.1553    0.0000 C   0  0  0  0  0  0  0  0  0  0  0  0
    0.5678    1.9393    0.0000 O   0  0  0  0  0  0  0  0  0  0  0  0
   -0.8843    0.8843    0.0000 O   0  0  0  0  0  0  0  0  0  0  0  0
   -2.9405   -1.9851    0.0000 O   0  0  0  0  0  0  0  0  0  0  0  0
   -1.7881   -1.8026    0.0000 O   0  0  0  0  0  0  0  0  0  0  0  0
   -3.1230   -0.8327    0.0000 O   0  0  0  0  0  0  0  0  0  0  0  0
   -1.2364   -1.5569    0.0000 O   0  0  0  0  0  0  0  0  0  0  0  0
   -1.0639    0.0840    0.0000 O   0  0  0  0  0  0  0  0  0  0  0  0
    4.2022    0.8421    0.0000 O   0  0  0  0  0  0  0  0  0  0  0  0
    3.6725   -0.1974    0.0000 O   0  0  0  0  0  0  0  0  0  0  0  0
    3.1626    1.3718    0.0000 O   0  0  0  0  0  0  0  0  0  0  0  0
    2.6329    0.3323    0.0000 O   0  0  0  0  0  0  0  0  0  0  0  0
    0.9803   -0.1553    0.0000 O   0  0  0  0  0  0  0  0  0  0  0  0
   -0.3297   -0.8227    0.0000 O   0  0  0  0  0  0  0  0  0  0  0  0
   -2.4555   -1.3177    0.0000 P   0  0  0  0  0  0  0  0  0  0  0  0
   -1.1501   -0.7365    0.0000 P   0  0  0  0  0  0  0  0  0  0  0  0
    3.4175    0.5872    0.0000 P   0  0  0  0  0  0  0  0  0  0  0  0
  3  1  1  1
  4  3  1  0
  4  7  1  6
  5  4  1  0
  5  8  1  6
  6  5  1  0
  6 19  1  6
 17  1  1  0
 18  3  1  0
 18  6  1  0
 20  2  1  0
 20  9  1  0
 20 10  1  0
 20 11  2  0
 21  2  1  0
 21 12  1  0
 21 13  2  0
 21 19  1  0
 22 14  1  0
 22 15  1  0
 22 16  2  0
 22 17  1  0
M  END
>  <DRUGBANK_ID>  (1) 
DB04294

>  <SECONDARY_ACCESSION_NUMBERS>  (1) 
EXPT02637

>  <COMMON_NAME>  (1) 
5-Phosphoribosyl-1-(Beta-Methylene) Pyrophosphate

$$$$
