
     RDKit          2D

 18 20  0  0  0  0  0  0  0  0999 V2000
   -0.7145    0.2062    0.0000 C   0  0  0  0  0  0  0  0  0  0  0  0
    0.0000    0.6187    0.0000 O   0  0  0  0  0  0  0  0  0  0  0  0
   -2.1435    0.2062    0.0000 C   0  0  0  0  0  0  0  0  0  0  0  0
   -2.1435   -0.6187    0.0000 C   0  0  0  0  0  0  0  0  0  0  0  0
   -1.4290   -1.0313    0.0000 C   0  0  0  0  0  0  0  0  0  0  0  0
   -0.7145   -0.6187    0.0000 C   0  0  0  0  0  0  0  0  0  0  0  0
   -1.4290    0.6187    0.0000 C   0  0  0  0  0  0  0  0  0  0  0  0
    0.0000   -1.0313    0.0000 C   0  0  0  0  0  0  0  0  0  0  0  0
    0.7145   -0.6187    0.0000 C   0  0  0  0  0  0  0  0  0  0  0  0
    0.7145    0.2062    0.0000 C   0  0  0  0  0  0  0  0  0  0  0  0
   -2.8581    0.6187    0.0000 O   0  0  0  0  0  0  0  0  0  0  0  0
    1.4290    0.6187    0.0000 C   0  0  0  0  0  0  0  0  0  0  0  0
    1.4290    1.4438    0.0000 C   0  0  0  0  0  0  0  0  0  0  0  0
    2.1435    1.8563    0.0000 C   0  0  0  0  0  0  0  0  0  0  0  0
    2.8581    1.4438    0.0000 C   0  0  0  0  0  0  0  0  0  0  0  0
    2.8581    0.6187    0.0000 C   0  0  0  0  0  0  0  0  0  0  0  0
    2.1435    0.2062    0.0000 C   0  0  0  0  0  0  0  0  0  0  0  0
    0.0000   -1.8563    0.0000 O   0  0  0  0  0  0  0  0  0  0  0  0
  1  2  1  0
  1  7  2  0
  3 11  1  0
  3  4  2  0
  3  7  1  0
  4  5  1  0
  5  6  2  0
  6  1  1  0
  6  8  1  0
  8 18  2  0
  8  9  1  0
  9 10  1  0
 10  2  1  0
 10 12  1  6
 12 13  2  0
 12 17  1  0
 13 14  1  0
 14 15  2  0
 15 16  1  0
 16 17  2  0
M  END
>  <DRUGBANK_ID>  (1) 
DB04274

>  <SECONDARY_ACCESSION_NUMBERS>  (1) 
EXPT01141

>  <COMMON_NAME>  (1) 
(2S)-7-hydroxyflavanone

>  <CAS_NUMBER>  (1) 
2545-13-3

>  <UNII>  (1) 
MF98742K2H

>  <SYNONYMS>  (1) 
(-)-7-Hydroxyflavanone

$$$$
