
     RDKit          2D

 13 13  0  0  1  0  0  0  0  0999 V2000
   -0.3297   -0.8227    0.0000 C   0  0  0  0  0  0  0  0  0  0  0  0
    0.1553   -0.1553    0.0000 C   0  0  0  0  0  0  0  0  0  0  0  0
   -0.0997    0.6294    0.0000 C   0  0  0  0  0  0  0  0  0  0  0  0
    0.5678    1.1143    0.0000 C   0  0  0  0  0  0  0  0  0  0  0  0
    1.2352    0.6294    0.0000 C   0  0  0  0  0  0  0  0  0  0  0  0
    0.9803   -0.1553    0.0000 C   0  0  0  0  0  0  0  0  0  0  0  0
    1.4652   -0.8227    0.0000 C   0  0  0  0  0  0  0  0  0  0  0  0
    0.1628    1.8330    0.0000 C   0  0  0  0  0  0  0  0  0  0  0  0
    0.5827    2.5432    0.0000 C   0  0  0  0  0  0  0  0  0  0  0  0
    0.1777    3.2619    0.0000 O   0  0  0  0  0  0  0  0  0  0  0  0
    1.4077    2.5345    0.0000 O   0  0  0  0  0  0  0  0  0  0  0  0
    0.9728    1.8330    0.0000 C   0  0  0  0  0  0  0  0  0  0  0  0
    1.7977    1.8417    0.0000 N   0  0  0  0  0  0  0  0  0  0  0  0
  2  1  1  1
  2  3  1  0
  2  6  1  0
  3  4  1  0
  4  5  1  0
  4  8  1  0
  4 12  1  0
  5  6  1  0
  6  7  1  6
  8  9  1  0
  9 10  2  0
  9 11  1  0
 12 13  1  0
M  END
>  <DRUGBANK_ID>  (1) 
DB12032

>  <COMMON_NAME>  (1) 
Atagabalin

>  <CAS_NUMBER>  (1) 
223445-75-8

>  <UNII>  (1) 
JT7957Q2FB

>  <SYNONYMS>  (1) 
Atagabalin

$$$$
