ATX
     RDKit          2D

 14 14  0  0  0  0  0  0  0  0999 V2000
    0.6543   -2.7287    0.0000 N   0  0  0  0  0  0  0  0  0  0  0  0
    0.1694   -2.0612    0.0000 C   0  0  0  0  0  0  0  0  0  0  0  0
    0.5050   -1.3076    0.0000 C   0  0  0  0  0  0  0  0  0  0  0  0
    1.3255   -1.2213    0.0000 O   0  0  0  0  0  0  0  0  0  0  0  0
   -0.6511   -2.1475    0.0000 C   0  0  0  0  0  0  0  0  0  0  0  0
    0.0201   -0.6401    0.0000 C   0  0  0  0  0  0  0  0  0  0  0  0
   -0.8049   -0.6401    0.0000 N   0  0  0  0  0  0  0  0  0  0  0  0
   -1.0599    0.1445    0.0000 N   0  0  0  0  0  0  0  0  0  0  0  0
   -0.3924    0.6294    0.0000 C   0  0  0  0  0  0  0  0  0  0  0  0
    0.2750    0.1445    0.0000 O   0  0  0  0  0  0  0  0  0  0  0  0
   -0.3924    1.4544    0.0000 C   0  0  0  0  0  0  0  0  0  0  0  0
   -0.3924    2.2794    0.0000 C   0  0  0  0  0  0  0  0  0  0  0  0
    0.4326    1.4544    0.0000 C   0  0  0  0  0  0  0  0  0  0  0  0
   -1.2174    1.4544    0.0000 C   0  0  0  0  0  0  0  0  0  0  0  0
  2  1  1  0
  2  3  1  0
  2  5  1  1
  3  4  2  0
  3  6  1  0
  6  7  2  0
  6 10  1  0
  7  8  1  0
  8  9  2  0
  9 10  1  0
  9 11  1  0
 11 12  1  0
 11 13  1  0
 11 14  1  0
M  END
>  <DRUGBANK_ID>  (1) 
DB07391

>  <COMMON_NAME>  (1) 
(2S)-2-AMINO-1-(5-TERT-BUTYL-1,3,4-OXADIAZOL-2-YL)PROPAN-1-ONE

$$$$
