
     RDKit          2D

  9  9  0  0  0  0  0  0  0  0999 V2000
   13.9049  -11.2808    0.0000 C   0  0  0  0  0  0  0  0  0  0  0  0
   13.0800  -11.2808    0.0000 C   0  0  0  0  0  0  0  0  0  0  0  0
   14.3174  -11.9953    0.0000 C   0  0  0  0  0  0  0  0  0  0  0  0
   12.6675  -11.9953    0.0000 C   0  0  0  0  0  0  0  0  0  0  0  0
   13.9049  -12.7098    0.0000 C   0  0  0  0  0  0  0  0  0  0  0  0
   12.6675  -13.4243    0.0000 C   0  0  0  0  0  0  0  0  0  0  0  0
   11.8426  -13.4243    0.0000 C   0  0  0  0  0  0  0  0  0  0  0  0
   13.0800  -12.7098    0.0000 C   0  0  0  0  0  0  0  0  0  0  0  0
   11.4302  -14.1382    0.0000 N   0  0  0  0  0  0  0  0  0  0  0  0
  1  2  2  0
  1  3  1  0
  2  4  1  0
  3  5  2  0
  4  8  2  0
  5  8  1  0
  6  7  1  0
  6  8  1  0
  7  9  1  0
M  END
>  <DRUGBANK_ID>  (1) 
DB04325

>  <SECONDARY_ACCESSION_NUMBERS>  (1) 
EXPT02542

>  <COMMON_NAME>  (1) 
Phenethylamine

>  <CAS_NUMBER>  (1) 
64-04-0

>  <UNII>  (1) 
327C7L2BXQ

>  <SYNONYMS>  (1) 
2-phenylethylamine; benzeneethanamine; beta-Phenylethylamine; Phenylethylamine; β-aminoethylbenzene; β-phenethylamine

$$$$
