RL2
     RDKit          2D

 26 26  0  0  0  0  0  0  0  0999 V2000
   -4.2777    1.3787    0.0000 C   0  0  0  0  0  0  0  0  0  0  0  0
   -4.6055    2.1358    0.0000 O   0  0  0  0  0  0  0  0  0  0  0  0
   -4.7694    0.7163    0.0000 O   0  0  0  0  0  0  0  0  0  0  0  0
   -3.4581    1.2841    0.0000 C   0  0  0  0  0  0  0  0  0  0  0  0
   -3.1303    0.5270    0.0000 C   0  0  0  0  0  0  0  0  0  0  0  0
   -3.6220   -0.1354    0.0000 O   0  0  0  0  0  0  0  0  0  0  0  0
   -2.3107    0.4324    0.0000 C   0  0  0  0  0  0  0  0  0  0  0  0
   -1.8190    1.0948    0.0000 O   0  0  0  0  0  0  0  0  0  0  0  0
   -1.9829   -0.3247    0.0000 N   0  0  0  0  0  0  0  0  0  0  0  0
   -1.1633   -0.4193    0.0000 C   0  0  0  0  0  0  0  0  0  0  0  0
   -0.8355   -1.1764    0.0000 C   0  0  0  0  0  0  0  0  0  0  0  0
   -0.0160   -1.2710    0.0000 C   0  0  0  0  0  0  0  0  0  0  0  0
    0.3119   -2.0281    0.0000 C   0  0  0  0  0  0  0  0  0  0  0  0
    1.1314   -2.1227    0.0000 C   0  0  0  0  0  0  0  0  0  0  0  0
    1.4592   -2.8798    0.0000 C   0  0  0  0  0  0  0  0  0  0  0  0
    0.9675   -3.5422    0.0000 C   0  0  0  0  0  0  0  0  0  0  0  0
    0.1479   -3.4476    0.0000 C   0  0  0  0  0  0  0  0  0  0  0  0
   -0.1799   -2.6905    0.0000 C   0  0  0  0  0  0  0  0  0  0  0  0
   -0.6716    0.2431    0.0000 C   0  0  0  0  0  0  0  0  0  0  0  0
    0.1479    0.1485    0.0000 N   0  0  0  0  0  0  0  0  0  0  0  0
    0.6397    0.8109    0.0000 C   0  0  0  0  0  0  0  0  0  0  0  0
    1.4592    0.7163    0.0000 C   0  0  0  0  0  0  0  0  0  0  0  0
    1.9510    1.3787    0.0000 C   0  0  0  0  0  0  0  0  0  0  0  0
    1.6231    2.1358    0.0000 C   0  0  0  0  0  0  0  0  0  0  0  0
    2.7705    1.2841    0.0000 C   0  0  0  0  0  0  0  0  0  0  0  0
   -0.9994    1.0002    0.0000 O   0  0  0  0  0  0  0  0  0  0  0  0
  1  2  2  0
  1  3  1  0
  1  4  1  0
  4  5  1  0
  5  6  1  1
  5  7  1  0
  7  8  2  0
  7  9  1  0
 10  9  1  0
 10 11  1  6
 10 19  1  0
 11 12  1  0
 12 13  1  0
 13 14  2  0
 13 18  1  0
 14 15  1  0
 15 16  2  0
 16 17  1  0
 17 18  2  0
 19 20  1  0
 19 26  2  0
 20 21  1  0
 21 22  1  0
 22 23  1  0
 23 24  1  0
 23 25  1  0
M  END
>  <DRUGBANK_ID>  (1) 
DB03691

>  <SECONDARY_ACCESSION_NUMBERS>  (1) 
EXPT02790

>  <COMMON_NAME>  (1) 
WRR-112

$$$$
