
     RDKit          2D

 20 22  0  0  0  0  0  0  0  0999 V2000
   -1.3492    0.0486    0.0000 C   0  0  0  0  0  0  0  0  0  0  0  0
   -1.3492   -0.7763    0.0000 C   0  0  0  0  0  0  0  0  0  0  0  0
   -2.0637    0.4611    0.0000 C   0  0  0  0  0  0  0  0  0  0  0  0
   -2.0637   -1.1888    0.0000 C   0  0  0  0  0  0  0  0  0  0  0  0
   -2.7782    0.0486    0.0000 C   0  0  0  0  0  0  0  0  0  0  0  0
   -2.7782   -0.7763    0.0000 C   0  0  0  0  0  0  0  0  0  0  0  0
   -2.0637    1.2861    0.0000 C   0  0  0  0  0  0  0  0  0  0  0  0
   -0.6347   -1.1888    0.0000 C   0  0  0  0  0  0  0  0  0  0  0  0
   -0.6347    0.4611    0.0000 N   0  0  0  0  0  0  0  0  0  0  0  0
    0.0796    0.0486    0.0000 C   0  0  0  0  0  0  0  0  0  0  0  0
    0.7941    0.4611    0.0000 C   0  0  0  0  0  0  0  0  0  0  0  0
    1.5086    0.0486    0.0000 C   0  0  0  0  0  0  0  0  0  0  0  0
    0.0797   -0.7763    0.0000 O   0  0  0  0  0  0  0  0  0  0  0  0
    2.2933    1.1286    0.0000 C   0  0  0  0  0  0  0  0  0  0  0  0
    2.7782    0.4611    0.0000 C   0  0  0  0  0  0  0  0  0  0  0  0
    1.5087    0.8737    0.0000 C   0  0  0  0  0  0  0  0  0  0  0  0
    2.2932   -0.2062    0.0000 N   0  0  0  0  0  0  0  0  0  0  0  0
    2.2932   -1.0312    0.0000 C   0  0  0  0  0  0  0  0  0  0  0  0
    1.5086   -1.2861    0.0000 C   0  0  0  0  0  0  0  0  0  0  0  0
    1.0237   -0.6187    0.0000 C   0  0  0  0  0  0  0  0  0  0  0  0
  1  2  2  0
  1  3  1  0
  1  9  1  0
  2  4  1  0
  2  8  1  0
  3  5  2  0
  3  7  1  0
  4  6  2  0
  5  6  1  0
  9 10  1  0
 10 11  1  0
 10 13  2  0
 11 12  1  0
 12 20  1  0
 14 15  1  0
 14 16  1  0
 15 17  1  0
 16 12  1  0
 17 18  1  0
 17 12  1  0
 18 19  1  0
 19 20  1  0
M  END
>  <DRUGBANK_ID>  (1) 
DB12712

>  <COMMON_NAME>  (1) 
Pilsicainide

>  <CAS_NUMBER>  (1) 
88069-67-4

>  <UNII>  (1) 
AV0X7V6CSE

>  <SYNONYMS>  (1) 
Pilsicainida; Pilsicainide; Pilsica√Ønide; Pilsicainidum; Pilzicainide

$$$$
