
     RDKit          2D

 23 24  0  0  0  0  0  0  0  0999 V2000
   -1.7837    0.8211    0.0000 C   0  0  0  0  0  0  0  0  0  0  0  0
   -2.4988    0.4125    0.0000 C   0  0  0  0  0  0  0  0  0  0  0  0
   -2.4988   -0.4125    0.0000 C   0  0  0  0  0  0  0  0  0  0  0  0
   -1.7837   -0.8290    0.0000 C   0  0  0  0  0  0  0  0  0  0  0  0
   -1.0686   -0.4125    0.0000 C   0  0  0  0  0  0  0  0  0  0  0  0
   -1.0686    0.4125    0.0000 C   0  0  0  0  0  0  0  0  0  0  0  0
   -1.7837    1.6462    0.0000 O   0  0  0  0  0  0  0  0  0  0  0  0
   -2.4988    2.0626    0.0000 C   0  0  0  0  0  0  0  0  0  0  0  0
   -1.7837   -1.6541    0.0000 O   0  0  0  0  0  0  0  0  0  0  0  0
   -2.4988   -2.0626    0.0000 C   0  0  0  0  0  0  0  0  0  0  0  0
   -3.2137   -0.8290    0.0000 C   0  0  0  0  0  0  0  0  0  0  0  0
   -3.9288   -1.2375    0.0000 N   0  0  0  0  0  0  0  0  0  0  0  0
   -0.3535    0.8211    0.0000 C   0  0  0  0  0  0  0  0  0  0  0  0
    0.3536    0.4125    0.0000 C   0  0  0  0  0  0  0  0  0  0  0  0
    1.0687    0.8211    0.0000 N   0  0  0  0  0  0  0  0  0  0  0  0
    1.7837    0.4125    0.0000 C   0  0  0  0  0  0  0  0  0  0  0  0
    2.4988    0.8211    0.0000 C   0  0  0  0  0  0  0  0  0  0  0  0
    3.2138    0.4125    0.0000 C   0  0  0  0  0  0  0  0  0  0  0  0
    3.9288    0.8211    0.0000 C   0  0  0  0  0  0  0  0  0  0  0  0
    3.9288    1.6462    0.0000 C   0  0  0  0  0  0  0  0  0  0  0  0
    3.2138    2.0626    0.0000 C   0  0  0  0  0  0  0  0  0  0  0  0
    2.4988    1.6462    0.0000 C   0  0  0  0  0  0  0  0  0  0  0  0
    3.2138   -0.4125    0.0000 O   0  0  0  0  0  0  0  0  0  0  0  0
  1  2  2  0
  1  6  1  0
  1  7  1  0
  2  3  1  0
  3  4  2  0
  3 11  1  0
  4  5  1  0
  4  9  1  0
  5  6  2  0
  6 13  1  0
  7  8  1  0
  9 10  1  0
 11 12  3  0
 13 14  1  0
 14 15  1  0
 15 16  1  0
 16 17  1  0
 17 18  2  0
 17 22  1  0
 18 19  1  0
 18 23  1  0
 19 20  2  0
 20 21  1  0
 21 22  2  0
M  END
>  <DRUGBANK_ID>  (1) 
DB13948

>  <COMMON_NAME>  (1) 
N-(2-hydroxybenzyl)-2,5-dimethoxy-4-cyanophenylethylamine

>  <CAS_NUMBER>  (1) 
1391489-32-9

>  <UNII>  (1) 
32CN2DQE3Q

>  <SYNONYMS>  (1) 
25CN-NBOH; NBOH-2C-CN

$$$$
