BD4
     RDKit          2D

 24 27  0  0  0  0  0  0  0  0999 V2000
    3.9012   -0.5561    0.0000 O   0  0  0  0  0  0  0  0  0  0  0  0
    3.1205   -0.8229    0.0000 C   0  0  0  0  0  0  0  0  0  0  0  0
    2.8776   -1.6113    0.0000 N   0  0  0  0  0  0  0  0  0  0  0  0
    2.0527   -1.6239    0.0000 C   0  0  0  0  0  0  0  0  0  0  0  0
    1.5779   -2.2986    0.0000 O   0  0  0  0  0  0  0  0  0  0  0  0
    1.7858   -0.8432    0.0000 C   0  0  0  0  0  0  0  0  0  0  0  0
    2.4458   -0.3482    0.0000 C   0  0  0  0  0  0  0  0  0  0  0  0
    2.3471    0.4709    0.0000 C   0  0  0  0  0  0  0  0  0  0  0  0
    3.0071    0.9659    0.0000 C   0  0  0  0  0  0  0  0  0  0  0  0
    1.5884    0.7949    0.0000 C   0  0  0  0  0  0  0  0  0  0  0  0
    0.9284    0.2999    0.0000 C   0  0  0  0  0  0  0  0  0  0  0  0
    1.0271   -0.5192    0.0000 C   0  0  0  0  0  0  0  0  0  0  0  0
    0.2786   -0.8661    0.0000 C   0  0  0  0  0  0  0  0  0  0  0  0
    0.0357   -1.6546    0.0000 C   0  0  0  0  0  0  0  0  0  0  0  0
   -0.7686   -1.8383    0.0000 C   0  0  0  0  0  0  0  0  0  0  0  0
   -1.0116   -2.6267    0.0000 C   0  0  0  0  0  0  0  0  0  0  0  0
   -1.3299   -1.2337    0.0000 C   0  0  0  0  0  0  0  0  0  0  0  0
   -1.0869   -0.4453    0.0000 C   0  0  0  0  0  0  0  0  0  0  0  0
   -0.2827   -0.2615    0.0000 C   0  0  0  0  0  0  0  0  0  0  0  0
    0.1189    0.4591    0.0000 N   0  0  0  0  0  0  0  0  0  0  0  0
   -0.2280    1.2076    0.0000 C   0  0  0  0  0  0  0  0  0  0  0  0
   -1.0497    1.2814    0.0000 C   0  0  0  0  0  0  0  0  0  0  0  0
   -1.3967    2.0299    0.0000 C   0  0  0  0  0  0  0  0  0  0  0  0
   -2.2184    2.1036    0.0000 N   0  0  0  0  0  0  0  0  0  0  0  0
  1  2  2  0
  2  3  1  0
  2  7  1  0
  3  4  1  0
  4  5  2  0
  4  6  1  0
  6  7  2  0
  6 12  1  0
  7  8  1  0
  8  9  1  0
  8 10  2  0
 10 11  1  0
 11 12  2  0
 11 20  1  0
 12 13  1  0
 13 14  2  0
 13 19  1  0
 14 15  1  0
 15 16  1  0
 15 17  2  0
 17 18  1  0
 18 19  2  0
 19 20  1  0
 20 21  1  0
 21 22  1  0
 22 23  1  0
 23 24  1  0
M  END
>  <DRUGBANK_ID>  (1) 
DB07444

>  <COMMON_NAME>  (1) 
6-(3-AMINOPROPYL)-4,9-DIMETHYLPYRROLO[3,4-C]CARBAZOLE-1,3(2H,6H)-DIONE

$$$$
