
     RDKit          2D

  5  3  0  0  0  0  0  0  0  0999 V2000
   -1.1610   -0.2080    0.0000 C   0  0  0  0  0  0  0  0  0  0  0  0
   -1.7584   -0.6375    0.0000 O   0  0  0  0  0  0  0  0  0  0  0  0
   -1.1845    0.6375    0.0000 O   0  0  0  0  0  0  0  0  0  0  0  0
   -0.4429   -0.6141    0.0000 O   0  0  0  0  0  0  0  0  0  0  0  0
    1.7584   -0.5033    0.0000 N   0  0  0  0  0  0  0  0  0  0  0  0
  1  2  1  0
  1  3  2  0
  1  4  1  0
M  CHG  2   4  -1   5   1
M  END
>  <DRUGBANK_ID>  (1) 
DB15925

>  <COMMON_NAME>  (1) 
Ammonium bicarbonate

>  <CAS_NUMBER>  (1) 
1066-33-7

>  <UNII>  (1) 
45JP4345C9

>  <SYNONYMS>  (1) 
Ammonium hydrogen carbonate; Carbonic acid, monoammonium salt; Monoammonium carbonate

$$$$
