
     RDKit          2D

  1  0  0  0  0  0  0  0  0  0999 V2000
   19.5814  -17.2259    0.0000 I   0  0  0  0  0  0  0  0  0  0  0  0
M  CHG  1   1  -1
M  END
>  <DRUGBANK_ID>  (1) 
DB12754

>  <COMMON_NAME>  (1) 
Iodide

>  <CAS_NUMBER>  (1) 
20461-54-5

>  <UNII>  (1) 
09G4I6V86Q

>  <SYNONYMS>  (1) 
Iodide ion

$$$$
