
     RDKit          2D

 19 20  0  0  0  0  0  0  0  0999 V2000
    1.6268   -2.8879    0.0000 C   0  0  0  0  0  0  0  0  0  0  0  0
    1.3718   -3.6725    0.0000 C   0  0  0  0  0  0  0  0  0  0  0  0
    0.5468   -3.6725    0.0000 C   0  0  0  0  0  0  0  0  0  0  0  0
    0.2919   -2.8879    0.0000 O   0  0  0  0  0  0  0  0  0  0  0  0
    0.9593   -2.4029    0.0000 C   0  0  0  0  0  0  0  0  0  0  0  0
    0.9593   -1.5779    0.0000 C   0  0  0  0  0  0  0  0  0  0  0  0
    1.6738   -1.1654    0.0000 N   0  0  0  0  0  0  0  0  0  0  0  0
    1.6738   -0.3404    0.0000 N   0  0  0  0  0  0  0  0  0  0  0  0
    1.0064    0.1445    0.0000 C   0  0  0  0  0  0  0  0  0  0  0  0
    1.2613    0.9291    0.0000 C   0  0  0  0  0  0  0  0  0  0  0  0
    0.7764    1.5966    0.0000 O   0  0  0  0  0  0  0  0  0  0  0  0
    2.0863    0.9291    0.0000 N   0  0  0  0  0  0  0  0  0  0  0  0
    2.3412    0.1445    0.0000 C   0  0  0  0  0  0  0  0  0  0  0  0
    3.1259   -0.1104    0.0000 O   0  0  0  0  0  0  0  0  0  0  0  0
    2.5712    1.5966    0.0000 C   0  0  0  0  0  0  0  0  0  0  0  0
    2.2357    2.3502    0.0000 O   0  0  0  0  0  0  0  0  0  0  0  0
    0.0619   -4.3399    0.0000 N   0  0  0  0  0  0  0  0  0  0  0  0
    0.3975   -5.0936    0.0000 O   0  0  0  0  0  0  0  0  0  0  0  0
   -0.7586   -4.2537    0.0000 O   0  0  0  0  0  0  0  0  0  0  0  0
  1  2  1  0
  1  5  2  0
  2  3  2  0
  3  4  1  0
  3 17  1  0
  4  5  1  0
  5  6  1  0
  6  7  2  0
  7  8  1  0
  8  9  1  0
  8 13  1  0
  9 10  1  0
 10 11  2  0
 10 12  1  0
 12 13  1  0
 12 15  1  0
 13 14  2  0
 15 16  1  0
 17 18  2  0
 17 19  1  0
M  CHG  2  17   1  19  -1
M  END
>  <DRUGBANK_ID>  (1) 
DB13730

>  <COMMON_NAME>  (1) 
Nifurtoinol

>  <CAS_NUMBER>  (1) 
1088-92-2

>  <UNII>  (1) 
980688H13O

>  <SYNONYMS>  (1) 
Nifurtoinol

$$$$
