
     RDKit          2D

 17 15  0  0  0  0  0  0  0  0999 V2000
    5.3625    0.7145    0.0000 Cu  0  0  0  0  0 15  0  0  0  0  0  0
    4.5375    3.5724    0.0000 C   0  0  0  0  0  0  0  0  0  0  0  0
    4.9500    2.8579    0.0000 N   0  0  0  0  0  0  0  0  0  0  0  0
    4.5375    2.1434    0.0000 C   0  0  0  0  0  0  0  0  0  0  0  0
    4.9500    1.4289    0.0000 S   0  0  0  0  0  0  0  0  0  0  0  0
    3.7125    2.1434    0.0000 N   0  0  0  0  0  0  0  0  0  0  0  0
    3.3000    1.4289    0.0000 N   0  0  0  0  0  0  0  0  0  0  0  0
    2.4750    1.4289    0.0000 C   0  0  0  0  0  0  0  0  0  0  0  0
    2.0625    2.1434    0.0000 C   0  0  0  0  0  0  0  0  0  0  0  0
    2.0625    0.7145    0.0000 C   0  0  0  0  0  0  0  0  0  0  0  0
    2.4750    0.0000    0.0000 C   0  0  0  0  0  0  0  0  0  0  0  0
    1.2375    0.7145    0.0000 N   0  0  0  0  0  0  0  0  0  0  0  0
    0.8250    0.0000    0.0000 N   0  0  0  0  0  0  0  0  0  0  0  0
    0.0000    0.0000    0.0000 C   0  0  0  0  0  0  0  0  0  0  0  0
   -0.4125    0.7145    0.0000 S   0  0  0  0  0  0  0  0  0  0  0  0
   -0.4125   -0.7145    0.0000 N   0  0  0  0  0  0  0  0  0  0  0  0
    0.0000   -1.4289    0.0000 C   0  0  0  0  0  0  0  0  0  0  0  0
  2  3  1  0
  3  4  1  0
  4  5  1  0
  4  6  2  0
  6  7  1  0
  7  8  2  0
  8  9  1  0
  8 10  1  0
 10 11  1  0
 10 12  2  0
 12 13  1  0
 13 14  2  0
 14 15  1  0
 14 16  1  0
 16 17  1  0
M  CHG  3   1   2   5  -1  15  -1
M  END
>  <DRUGBANK_ID>  (1) 
DB16963

>  <COMMON_NAME>  (1) 
Copper(II) dithiosemicarbazone

>  <CAS_NUMBER>  (1) 
68341-09-3

>  <UNII>  (1) 
0YDK1H9L3A

>  <SYNONYMS>  (1) 
Atsm copper (ii); Copper, ((2,2'-(1,2-dimethyl-1,2-ethanediylidene)bis(n-methylhydrazinecarbothioamidato-.kappa.n2,.kappa.s))(2-))-, (sp-4-2)-; Copper(ii) diacetyl-di(n4-methyl)thiosemicarbazone; Cu-atsm; Cu(ii)atsm; Diacetyl(n(4)-methylthiosemicarbazonato) copper (ii)

$$$$
