
     RDKit          2D

 21 22  0  0  0  0  0  0  0  0999 V2000
    1.0346    2.0594    0.0000 P   0  0  0  0  0  0  0  0  0  0  0  0
    1.0491   -2.0644    0.0000 P   0  0  0  0  0  0  0  0  0  0  0  0
    0.3271    0.8190    0.0000 C   0  0  0  0  0  0  0  0  0  0  0  0
    0.3367   -0.8335    0.0000 C   0  0  0  0  0  0  0  0  0  0  0  0
   -0.3803    0.4022    0.0000 C   0  0  0  0  0  0  0  0  0  0  0  0
   -0.3803   -0.4216    0.0000 C   0  0  0  0  0  0  0  0  0  0  0  0
    0.3222    1.6427    0.0000 O   0  0  0  0  0  0  0  0  0  0  0  0
    0.3367   -1.6573    0.0000 O   0  0  0  0  0  0  0  0  0  0  0  0
    1.0443    0.4119    0.0000 C   0  0  0  0  0  0  0  0  0  0  0  0
    1.0491   -0.4167    0.0000 C   0  0  0  0  0  0  0  0  0  0  0  0
    1.7954    1.6719    0.0000 O   0  0  0  0  0  0  0  0  0  0  0  0
    1.4369    2.7768    0.0000 O   0  0  0  0  0  0  0  0  0  0  0  0
    1.8050   -1.6331    0.0000 O   0  0  0  0  0  0  0  0  0  0  0  0
    1.4950   -2.7525    0.0000 O   0  0  0  0  0  0  0  0  0  0  0  0
    0.6178    2.7768    0.0000 O   0  0  0  0  0  0  0  0  0  0  0  0
    0.6323   -2.7768    0.0000 O   0  0  0  0  0  0  0  0  0  0  0  0
   -1.0927    0.8141    0.0000 C   0  0  0  0  0  0  0  0  0  0  0  0
    1.7567    0.8286    0.0000 C   0  0  0  0  0  0  0  0  0  0  0  0
   -1.0927   -0.8383    0.0000 C   0  0  0  0  0  0  0  0  0  0  0  0
   -1.8050    0.4022    0.0000 C   0  0  0  0  0  0  0  0  0  0  0  0
   -1.8050   -0.4264    0.0000 C   0  0  0  0  0  0  0  0  0  0  0  0
  2  8  1  0
  3  7  1  0
  4  6  2  0
  5  3  2  0
  6  5  1  0
  7  1  1  0
  8  4  1  0
  9  3  1  0
 10  9  2  0
 10  4  1  0
 11  1  1  0
 12  1  1  0
 13  2  1  0
 14  2  1  0
 15  1  2  0
 16  2  2  0
 17  5  1  0
 18  9  1  0
 19  6  1  0
 20 17  2  0
 21 19  2  0
 21 20  1  0
M  END
>  <DRUGBANK_ID>  (1) 
DB14650

>  <SECONDARY_ACCESSION_NUMBERS>  (1) 
DBSALT000878

>  <COMMON_NAME>  (1) 
Menadiol diphosphate

>  <CAS_NUMBER>  (1) 
84-98-0

>  <UNII>  (1) 
GRL65FEU3T

>  <SYNONYMS>  (1) 
2-methyl-1,4-naphthalenediol diphosphate; Menadiol bis(dihydrogen phosphate); Menadiol phosphate

$$$$
