
     RDKit          2D

 14 14  0  0  1  0  0  0  0  0999 V2000
   -1.4289    2.4750    0.0000 C   0  0  0  0  0  0  0  0  0  0  0  0
   -2.1434    1.2375    0.0000 C   0  0  0  0  0  0  0  0  0  0  0  0
   -2.1434    2.8875    0.0000 C   0  0  0  0  0  0  0  0  0  0  0  0
   -2.8579    1.6500    0.0000 C   0  0  0  0  0  0  0  0  0  0  0  0
   -0.0000    1.6500    0.0000 C   0  0  0  0  0  0  0  0  0  0  0  0
   -0.7145    0.4125    0.0000 C   0  0  0  0  0  0  0  0  0  0  0  0
   -1.4289    1.6500    0.0000 C   0  0  0  0  0  0  0  0  0  0  0  0
   -0.7145    1.2375    0.0000 C   0  0  0  0  0  0  0  0  0  0  0  0
   -2.8579    2.4750    0.0000 C   0  0  0  0  0  0  0  0  0  0  0  0
    0.7145    1.2375    0.0000 C   0  0  0  0  0  0  0  0  0  0  0  0
   -3.5724    2.8875    0.0000 Cl  0  0  0  0  0  0  0  0  0  0  0  0
   -1.4289    0.0000    0.0000 N   0  0  0  0  0  0  0  0  0  0  0  0
    1.4289    1.6500    0.0000 O   0  0  0  0  0  0  0  0  0  0  0  0
    0.7145    0.4125    0.0000 O   0  0  0  0  0  0  0  0  0  0  0  0
  3  1  2  0
  4  2  1  0
  7  1  1  0
  7  2  2  0
  8  5  1  1
  8  6  1  0
  8  7  1  0
  9  3  1  0
  9  4  2  0
 10  5  1  0
 11  9  1  0
 12  6  1  0
 13 10  2  0
 14 10  1  0
M  END
>  <DRUGBANK_ID>  (1) 
DB08891

>  <COMMON_NAME>  (1) 
Arbaclofen

>  <CAS_NUMBER>  (1) 
69308-37-8

>  <UNII>  (1) 
NYU6UTW25B

>  <SYNONYMS>  (1) 
(R)-4-amino-3-(4-chlorophenyl)butanÂ­oic acid; (R)-Baclofen; Arbaclofen

$$$$
