
     RDKit          2D

 26 26  0  0  1  0  0  0  0  0999 V2000
    7.0636   -7.0578    0.0000 C   0  0  0  0  0  0  0  0  0  0  0  0
    7.0636   -6.2328    0.0000 C   0  0  0  0  0  0  0  0  0  0  0  0
    6.3491   -5.8203    0.0000 C   0  0  0  0  0  0  0  0  0  0  0  0
    5.6346   -6.2328    0.0000 O   0  0  0  0  0  0  0  0  0  0  0  0
    6.3491   -4.9953    0.0000 O   0  0  0  0  0  0  0  0  0  0  0  0
    7.7781   -5.8203    0.0000 N   0  0  0  0  0  0  0  0  0  0  0  0
    8.4925   -6.2328    0.0000 C   0  0  0  0  0  0  0  0  0  0  0  0
    8.4925   -7.0578    0.0000 O   0  0  0  0  0  0  0  0  0  0  0  0
    9.2070   -5.8203    0.0000 C   0  0  0  0  0  0  0  0  0  0  0  0
    9.2070   -4.9953    0.0000 C   0  0  0  0  0  0  0  0  0  0  0  0
    9.9215   -4.5828    0.0000 C   0  0  0  0  0  0  0  0  0  0  0  0
    9.9215   -3.7578    0.0000 C   0  0  0  0  0  0  0  0  0  0  0  0
    9.2070   -3.3453    0.0000 O   0  0  0  0  0  0  0  0  0  0  0  0
   10.6359   -3.3453    0.0000 O   0  0  0  0  0  0  0  0  0  0  0  0
    9.9215   -6.2328    0.0000 N   0  0  0  0  0  0  0  0  0  0  0  0
   10.6359   -5.8203    0.0000 C   0  0  0  0  0  0  0  0  0  0  0  0
   10.6359   -4.9953    0.0000 O   0  0  0  0  0  0  0  0  0  0  0  0
   11.3504   -6.2328    0.0000 C   0  0  0  0  0  0  0  0  0  0  0  0
   12.0649   -5.8203    0.0000 C   0  0  0  0  0  0  0  0  0  0  0  0
   12.7794   -6.2328    0.0000 C   0  0  0  0  0  0  0  0  0  0  0  0
   13.4938   -5.8203    0.0000 C   0  0  0  0  0  0  0  0  0  0  0  0
   14.2083   -6.2328    0.0000 C   0  0  0  0  0  0  0  0  0  0  0  0
   14.9620   -5.8972    0.0000 C   0  0  0  0  0  0  0  0  0  0  0  0
   15.5140   -6.5103    0.0000 C   0  0  0  0  0  0  0  0  0  0  0  0
   15.1015   -7.2248    0.0000 S   0  0  0  0  0  0  0  0  0  0  0  0
   14.2945   -7.0533    0.0000 S   0  0  0  0  0  0  0  0  0  0  0  0
  2  1  1  1
  2  3  1  0
  2  6  1  0
  3  4  2  0
  3  5  1  0
  6  7  1  0
  7  8  2  0
  7  9  1  0
  9 10  1  6
  9 15  1  0
 10 11  1  0
 11 12  1  0
 12 13  2  0
 12 14  1  0
 15 16  1  0
 16 17  2  0
 16 18  1  0
 18 19  1  0
 19 20  1  0
 20 21  1  0
 22 21  1  6
 22 23  1  0
 22 26  1  0
 23 24  1  0
 24 25  1  0
 25 26  1  0
M  END
>  <DRUGBANK_ID>  (1) 
DB12795

>  <COMMON_NAME>  (1) 
CMX-2043

>  <CAS_NUMBER>  (1) 
910627-26-8

>  <UNII>  (1) 
83V80O4XY1

$$$$
