665
     RDKit          2D

 22 24  0  0  0  0  0  0  0  0999 V2000
    1.9817   -0.2904    0.0000 C   0  0  0  0  0  0  0  0  0  0  0  0
    1.1971   -0.5453    0.0000 C   0  0  0  0  0  0  0  0  0  0  0  0
    0.5840    0.0067    0.0000 C   0  0  0  0  0  0  0  0  0  0  0  0
    0.7555    0.8137    0.0000 C   0  0  0  0  0  0  0  0  0  0  0  0
    1.5401    1.0686    0.0000 C   0  0  0  0  0  0  0  0  0  0  0  0
    2.1532    0.5166    0.0000 C   0  0  0  0  0  0  0  0  0  0  0  0
   -0.4556   -1.0329    0.0000 C   0  0  0  0  0  0  0  0  0  0  0  0
   -1.2806   -1.0329    0.0000 C   0  0  0  0  0  0  0  0  0  0  0  0
   -1.5355   -0.2482    0.0000 C   0  0  0  0  0  0  0  0  0  0  0  0
   -0.8681    0.2367    0.0000 C   0  0  0  0  0  0  0  0  0  0  0  0
   -0.2006   -0.2482    0.0000 N   0  0  0  0  0  0  0  0  0  0  0  0
   -2.3201    0.0067    0.0000 C   0  0  0  0  0  0  0  0  0  0  0  0
   -2.9332   -0.5453    0.0000 N   0  0  0  0  0  0  0  0  0  0  0  0
   -2.4917    0.8137    0.0000 O   0  0  0  0  0  0  0  0  0  0  0  0
    0.0293   -1.7003    0.0000 O   0  0  0  0  0  0  0  0  0  0  0  0
   -5.7287   -1.1395    0.0000 Br  0  0  0  0  0  0  0  0  0  0  0  0
   -4.3310   -0.8424    0.0000 C   0  0  0  0  0  0  0  0  0  0  0  0
   -5.1156   -0.5875    0.0000 C   0  0  0  0  0  0  0  0  0  0  0  0
   -5.2871    0.2195    0.0000 C   0  0  0  0  0  0  0  0  0  0  0  0
   -4.6740    0.7715    0.0000 C   0  0  0  0  0  0  0  0  0  0  0  0
   -3.8894    0.5166    0.0000 C   0  0  0  0  0  0  0  0  0  0  0  0
   -3.7179   -0.2904    0.0000 C   0  0  0  0  0  0  0  0  0  0  0  0
  1  2  1  0
  1  6  1  0
  2  3  1  0
  3  4  1  0
  3 11  1  0
  4  5  1  0
  5  6  1  0
  7  8  1  0
  7 11  1  0
  7 15  2  0
  8  9  1  0
  9 10  1  0
  9 12  1  6
 10 11  1  0
 12 13  1  0
 12 14  2  0
 13 22  1  0
 16 18  1  0
 17 18  2  0
 17 22  1  0
 18 19  1  0
 19 20  2  0
 20 21  1  0
 21 22  2  0
M  END
>  <DRUGBANK_ID>  (1) 
DB07192

>  <COMMON_NAME>  (1) 
(3S)-N-(3-BROMOPHENYL)-1-CYCLOHEXYL-5-OXOPYRROLIDINE-3-CARBOXAMIDE

$$$$
