TFC
     RDKit          2D

 16 15  0  0  0  0  0  0  0  0999 V2000
   -2.4113   -0.1936    0.0000 C   0  0  0  0  0  0  0  0  0  0  0  0
   -1.6967    0.2189    0.0000 C   0  0  0  0  0  0  0  0  0  0  0  0
   -0.9822   -0.1936    0.0000 C   0  0  0  0  0  0  0  0  0  0  0  0
   -0.2677    0.2189    0.0000 C   0  0  0  0  0  0  0  0  0  0  0  0
    0.4468   -0.1936    0.0000 C   0  0  0  0  0  0  0  0  0  0  0  0
    1.1614    0.2189    0.0000 C   0  0  0  0  0  0  0  0  0  0  0  0
    1.8759   -0.1936    0.0000 C   0  0  0  0  0  0  0  0  0  0  0  0
    2.5904    0.2189    0.0000 C   0  0  0  0  0  0  0  0  0  0  0  0
    3.3049   -0.1936    0.0000 S   0  0  0  0  0  0  0  0  0  0  0  0
    4.0195    0.2189    0.0000 C   0  0  0  0  0  0  0  0  0  0  0  0
    4.7340   -0.1936    0.0000 C   0  0  0  0  0  0  0  0  0  0  0  0
    4.7340   -1.0187    0.0000 O   0  0  0  0  0  0  0  0  0  0  0  0
    5.4485    0.2189    0.0000 C   0  0  0  0  0  0  0  0  0  0  0  0
    6.1631    0.6314    0.0000 F   0  0  0  0  0  0  0  0  0  0  0  0
    5.8610   -0.4956    0.0000 F   0  0  0  0  0  0  0  0  0  0  0  0
    5.0360    0.9335    0.0000 F   0  0  0  0  0  0  0  0  0  0  0  0
  1  2  1  0
  2  3  1  0
  3  4  1  0
  4  5  1  0
  5  6  1  0
  6  7  1  0
  7  8  1  0
  8  9  1  0
  9 10  1  0
 10 11  1  0
 11 12  2  0
 11 13  1  0
 13 14  1  0
 13 15  1  0
 13 16  1  0
M  END
>  <DRUGBANK_ID>  (1) 
DB08612

>  <COMMON_NAME>  (1) 
1,1,1-TRIFLUORO-3-(OCTYLTHIO)ACETONE

>  <UNII>  (1) 
7OYG5MD7P9

$$$$
