
     RDKit          2D

 19 21  0  0  0  0  0  0  0  0999 V2000
    0.7145    0.4125    0.0000 C   0  0  0  0  0  0  0  0  0  0  0  0
    0.7145   -0.4125    0.0000 C   0  0  0  0  0  0  0  0  0  0  0  0
   -0.7145    0.4125    0.0000 C   0  0  0  0  0  0  0  0  0  0  0  0
   -0.7145   -0.4125    0.0000 C   0  0  0  0  0  0  0  0  0  0  0  0
   -1.4289    0.8250    0.0000 C   0  0  0  0  0  0  0  0  0  0  0  0
   -1.4289   -0.8250    0.0000 C   0  0  0  0  0  0  0  0  0  0  0  0
   -2.1434   -0.4125    0.0000 C   0  0  0  0  0  0  0  0  0  0  0  0
   -2.1434    0.4125    0.0000 C   0  0  0  0  0  0  0  0  0  0  0  0
    2.1434    0.4125    0.0000 C   0  0  0  0  0  0  0  0  0  0  0  0
    0.0000   -0.8250    0.0000 N   0  0  0  0  0  0  0  0  0  0  0  0
    1.4289   -0.8250    0.0000 C   0  0  0  0  0  0  0  0  0  0  0  0
    1.4289   -1.6500    0.0000 O   0  0  0  0  0  0  0  0  0  0  0  0
    2.8579    0.8250    0.0000 O   0  0  0  0  0  0  0  0  0  0  0  0
    2.1434   -0.4125    0.0000 N   0  0  0  0  0  0  0  0  0  0  0  0
    1.4289    0.8250    0.0000 N   0  0  0  0  0  0  0  0  0  0  0  0
    0.0000    0.8250    0.0000 N   0  0  0  0  0  0  0  0  0  0  0  0
    0.0000    1.6500    0.0000 C   0  0  0  0  0  0  0  0  0  0  0  0
   -2.8579    0.8250    0.0000 C   0  0  0  0  0  0  0  0  0  0  0  0
   -2.8579   -0.8250    0.0000 C   0  0  0  0  0  0  0  0  0  0  0  0
  2  1  1  0
  2 11  1  0
  3  4  1  0
  4 10  1  0
  5  3  2  0
  5  8  1  0
  6  4  2  0
  7  6  1  0
  7 19  1  0
  8  7  2  0
  8 18  1  0
  9 13  2  0
 10  2  2  0
 11 14  1  0
 11 12  2  0
 14  9  1  0
 15  1  2  0
 15  9  1  0
 16  3  1  0
 16  1  1  0
 16 17  1  0
M  END
>  <DRUGBANK_ID>  (1) 
DB04726

>  <COMMON_NAME>  (1) 
Lumiflavin

>  <CAS_NUMBER>  (1) 
1088-56-8

>  <UNII>  (1) 
4M2669414M

>  <SYNONYMS>  (1) 
7,8,10-Trimethylbenzo(g)pteridine-2,4(3H,10H)-dione; 7,8,10-Trimethylisoalloxazine; Lumiflavin; Lumiflavine

$$$$
