
     RDKit          2D

 18 19  0  0  1  0  0  0  0  0999 V2000
    3.2987   -2.7597    0.0000 C   0  0  0  0  0  0  0  0  0  0  0  0
    1.4744    1.1646    0.0000 C   0  0  0  0  0  0  0  0  0  0  0  0
    3.0687   -1.3076    0.0000 C   0  0  0  0  0  0  0  0  0  0  0  0
    1.0130   -0.1541    0.0000 C   0  0  0  0  0  0  0  0  0  0  0  0
    3.3281    1.1646    0.0000 C   0  0  0  0  0  0  0  0  0  0  0  0
    1.6580    0.3603    0.0000 C   0  0  0  0  0  0  0  0  0  0  0  0
    2.4013   -0.8227    0.0000 C   0  0  0  0  0  0  0  0  0  0  0  0
    2.8138    1.8096    0.0000 C   0  0  0  0  0  0  0  0  0  0  0  0
    2.4013    0.0023    0.0000 C   0  0  0  0  0  0  0  0  0  0  0  0
    3.1717    2.5529    0.0000 C   0  0  0  0  0  0  0  0  0  0  0  0
    1.9888    1.8096    0.0000 N   0  0  0  0  0  0  0  0  0  0  0  0
    1.7338   -1.3076    0.0000 N   0  0  0  0  0  0  0  0  0  0  0  0
    1.9888   -2.0922    0.0000 N   0  0  0  0  0  0  0  0  0  0  0  0
    2.8138   -2.0922    0.0000 N   0  0  0  0  0  0  0  0  0  0  0  0
    1.1359   -0.9699    0.0000 O   0  0  0  0  0  0  0  0  0  0  0  0
    2.7070    3.2345    0.0000 O   0  0  0  0  0  0  0  0  0  0  0  0
    3.9944    2.6145    0.0000 O   0  0  0  0  0  0  0  0  0  0  0  0
    3.1446    0.3603    0.0000 S   0  0  0  0  0  0  0  0  0  0  0  0
  6  2  2  0
  6  4  1  0
  7  3  2  0
  8  5  2  0
  9  6  1  0
  9  7  1  6
 10  8  1  0
 11  2  1  0
 11  8  1  0
 12  7  1  0
 13 12  2  0
 14  1  1  0
 14  3  1  0
 14 13  1  0
 15  4  2  0
 16 10  2  0
 17 10  1  0
 18  5  1  0
 18  9  1  0
M  END
>  <DRUGBANK_ID>  (1) 
DB02816

>  <SECONDARY_ACCESSION_NUMBERS>  (1) 
EXPT01416

>  <COMMON_NAME>  (1) 
7-(1-Methyl-1,2,3-Triazol-4-Yl)-6-Formyl-2,7-Dihydro-[1,4]Thiazepine-3-Carboxylic Acid, Brl42715, C6-(N1-Methyl-1,2,3-Triazolylmethylene)Penem

$$$$
