123
     RDKit          2D

 21 23  0  0  0  0  0  0  0  0999 V2000
    2.1602    0.4482    0.0000 C   0  0  0  0  0  0  0  0  0  0  0  0
    2.1602   -0.3768    0.0000 C   0  0  0  0  0  0  0  0  0  0  0  0
    1.4458   -0.7893    0.0000 C   0  0  0  0  0  0  0  0  0  0  0  0
    0.7313   -0.3768    0.0000 C   0  0  0  0  0  0  0  0  0  0  0  0
    0.7313    0.4482    0.0000 C   0  0  0  0  0  0  0  0  0  0  0  0
    1.4458    0.8607    0.0000 C   0  0  0  0  0  0  0  0  0  0  0  0
    2.8747    0.8607    0.0000 C   0  0  0  0  0  0  0  0  0  0  0  0
    3.5892    0.4482    0.0000 N   0  0  0  0  0  0  0  0  0  0  0  0
    2.8747    1.6857    0.0000 N   0  0  0  0  0  0  0  0  0  0  0  0
   -0.0533   -0.6317    0.0000 N   0  0  0  0  0  0  0  0  0  0  0  0
   -0.0533    0.7032    0.0000 N   0  0  0  0  0  0  0  0  0  0  0  0
   -0.5383    0.0357    0.0000 C   0  0  0  0  0  0  0  0  0  0  0  0
   -1.3633    0.0357    0.0000 C   0  0  0  0  0  0  0  0  0  0  0  0
   -1.7758   -0.6787    0.0000 C   0  0  0  0  0  0  0  0  0  0  0  0
   -2.6008   -0.6787    0.0000 C   0  0  0  0  0  0  0  0  0  0  0  0
   -3.0133   -1.3932    0.0000 O   0  0  0  0  0  0  0  0  0  0  0  0
   -2.6008   -2.1077    0.0000 C   0  0  0  0  0  0  0  0  0  0  0  0
   -3.0133    0.0357    0.0000 C   0  0  0  0  0  0  0  0  0  0  0  0
   -2.6008    0.7502    0.0000 C   0  0  0  0  0  0  0  0  0  0  0  0
   -1.7758    0.7502    0.0000 C   0  0  0  0  0  0  0  0  0  0  0  0
   -1.3633    1.4647    0.0000 O   0  0  0  0  0  0  0  0  0  0  0  0
  1  2  2  0
  1  6  1  0
  1  7  1  0
  2  3  1  0
  3  4  2  0
  4  5  1  0
  4 10  1  0
  5  6  2  0
  5 11  1  0
  7  8  1  0
  7  9  2  0
 10 12  1  0
 11 12  2  0
 12 13  1  0
 13 14  2  0
 13 20  1  0
 14 15  1  0
 15 16  1  0
 15 18  2  0
 16 17  1  0
 18 19  1  0
 19 20  2  0
 20 21  1  0
M  CHG  1   9   1
M  END
>  <DRUGBANK_ID>  (1) 
DB01905

>  <SECONDARY_ACCESSION_NUMBERS>  (1) 
EXPT00017

>  <COMMON_NAME>  (1) 
2-(2-Hydroxy-5-Methoxy-Phenyl)-1h-Benzoimidazole-5-Carboxamidine

$$$$
