
     RDKit          2D

 24 27  0  0  0  0  0  0  0  0999 V2000
   -1.5395   -1.8414    0.0000 C   0  0  0  0  0  0  0  0  0  0  0  0
   -0.7145   -1.8414    0.0000 C   0  0  0  0  0  0  0  0  0  0  0  0
   -0.3020   -2.5559    0.0000 C   0  0  0  0  0  0  0  0  0  0  0  0
    0.5230   -2.5559    0.0000 C   0  0  0  0  0  0  0  0  0  0  0  0
    0.9355   -1.8414    0.0000 C   0  0  0  0  0  0  0  0  0  0  0  0
    0.5230   -1.1270    0.0000 C   0  0  0  0  0  0  0  0  0  0  0  0
   -0.3020   -1.1270    0.0000 C   0  0  0  0  0  0  0  0  0  0  0  0
   -0.7145   -0.4125    0.0000 C   0  0  0  0  0  0  0  0  0  0  0  0
   -1.1270    0.3020    0.0000 C   0  0  0  0  0  0  0  0  0  0  0  0
   -0.7145    1.0164    0.0000 C   0  0  0  0  0  0  0  0  0  0  0  0
   -1.1270    1.7309    0.0000 C   0  0  0  0  0  0  0  0  0  0  0  0
   -1.9520    1.7309    0.0000 C   0  0  0  0  0  0  0  0  0  0  0  0
   -2.3645    1.0164    0.0000 C   0  0  0  0  0  0  0  0  0  0  0  0
   -1.9520    0.3020    0.0000 C   0  0  0  0  0  0  0  0  0  0  0  0
   -2.3645   -0.4125    0.0000 C   0  0  0  0  0  0  0  0  0  0  0  0
   -0.0000    0.0000    0.0000 C   0  0  0  0  0  0  0  0  0  0  0  0
    0.0000    0.8250    0.0000 C   0  0  0  0  0  0  0  0  0  0  0  0
    0.7145    1.2375    0.0000 N   0  0  0  0  0  0  0  0  0  0  0  0
    1.4289    0.8250    0.0000 C   0  0  0  0  0  0  0  0  0  0  0  0
    1.4289    0.0000    0.0000 C   0  0  0  0  0  0  0  0  0  0  0  0
    0.7145   -0.4125    0.0000 C   0  0  0  0  0  0  0  0  0  0  0  0
    0.8520    0.1375    0.0000 C   0  0  0  0  0  0  0  0  0  0  0  0
    0.8520    0.6875    0.0000 C   0  0  0  0  0  0  0  0  0  0  0  0
   -1.4289   -0.8250    0.0000 O   0  0  0  0  0  0  0  0  0  0  0  0
  1  2  1  0
  2  3  2  0
  2  7  1  0
  3  4  1  0
  4  5  2  0
  5  6  1  0
  6  7  2  0
  7  8  1  0
  8  9  1  0
  8 16  1  0
  8 24  1  0
  9 10  2  0
  9 14  1  0
 10 11  1  0
 11 12  2  0
 12 13  1  0
 13 14  2  0
 14 15  1  0
 16 17  1  0
 16 21  1  0
 17 18  1  0
 18 19  1  0
 18 23  1  0
 19 20  1  0
 20 21  1  0
 21 22  1  0
 22 23  1  0
M  END
>  <DRUGBANK_ID>  (1) 
DB13566

>  <COMMON_NAME>  (1) 
Sequifenadine

>  <CAS_NUMBER>  (1) 
57734-69-7

>  <UNII>  (1) 
C7Q3TBR3FP

>  <SYNONYMS>  (1) 
Sequifenadine

$$$$
