
     RDKit          2D

 34 33  0  0  1  0  0  0  0  0999 V2000
    0.7887   -3.3739    0.0000 C   0  0  0  0  0  0  0  0  0  0  0  0
    0.5905   -4.1747    0.0000 C   0  0  0  0  0  0  0  0  0  0  0  0
    1.1850   -4.7467    0.0000 C   0  0  0  0  0  0  0  0  0  0  0  0
    0.9868   -5.5476    0.0000 C   0  0  0  0  0  0  0  0  0  0  0  0
    1.5813   -6.1196    0.0000 C   0  0  0  0  0  0  0  0  0  0  0  0
    1.3831   -6.9205    0.0000 C   0  0  0  0  0  0  0  0  0  0  0  0
    1.9776   -7.4925    0.0000 C   0  0  0  0  0  0  0  0  0  0  0  0
    2.7703   -7.2637    0.0000 C   0  0  0  0  0  0  0  0  0  0  0  0
    3.3647   -7.8357    0.0000 C   0  0  0  0  0  0  0  0  0  0  0  0
    4.1574   -7.6069    0.0000 C   0  0  0  0  0  0  0  0  0  0  0  0
    4.3555   -6.8061    0.0000 C   0  0  0  0  0  0  0  0  0  0  0  0
    5.1482   -6.5773    0.0000 C   0  0  0  0  0  0  0  0  0  0  0  0
    5.3463   -5.7764    0.0000 C   0  0  0  0  0  0  0  0  0  0  0  0
    6.1390   -5.5476    0.0000 C   0  0  0  0  0  0  0  0  0  0  0  0
    6.3371   -4.7467    0.0000 C   0  0  0  0  0  0  0  0  0  0  0  0
    5.7426   -4.1747    0.0000 C   0  0  0  0  0  0  0  0  0  0  0  0
    5.9408   -3.3739    0.0000 C   0  0  0  0  0  0  0  0  0  0  0  0
    5.3463   -2.8018    0.0000 C   0  0  0  0  0  0  0  0  0  0  0  0
    5.5445   -2.0010    0.0000 C   0  0  0  0  0  0  0  0  0  0  0  0
    4.9500   -1.4289    0.0000 C   0  0  0  0  0  0  0  0  0  0  0  0
    4.1574   -1.6578    0.0000 O   0  0  0  0  0  0  0  0  0  0  0  0
    5.1482   -0.6281    0.0000 O   0  0  0  0  0  0  0  0  0  0  0  0
    4.9500   -4.4035    0.0000 O   0  0  0  0  0  0  0  0  0  0  0  0
    7.1297   -4.5179    0.0000 S   0  0  0  0  0  0  0  0  0  0  0  0
    7.3279   -3.7171    0.0000 C   0  0  0  0  0  0  0  0  0  0  0  0
    8.1205   -3.4883    0.0000 C   0  0  0  0  0  0  0  0  0  0  0  0
    8.3187   -2.6874    0.0000 C   0  0  0  0  0  0  0  0  0  0  0  0
    7.7242   -2.1154    0.0000 O   0  0  0  0  0  0  0  0  0  0  0  0
    9.1113   -2.4586    0.0000 N   0  0  0  0  0  0  0  0  0  0  0  0
    9.3095   -1.6578    0.0000 C   0  0  0  0  0  0  0  0  0  0  0  0
   10.1021   -1.4289    0.0000 C   0  0  0  0  0  0  0  0  0  0  0  0
   10.3003   -0.6281    0.0000 O   0  0  0  0  0  0  0  0  0  0  0  0
   10.6966   -2.0010    0.0000 O   0  0  0  0  0  0  0  0  0  0  0  0
    8.7150   -4.0603    0.0000 N   0  0  0  0  0  0  0  0  0  0  0  0
  1  2  1  0
  2  3  1  0
  3  4  1  0
  4  5  1  0
  5  6  1  0
  6  7  2  0
  7  8  1  0
  8  9  1  0
  9 10  2  0
 10 11  1  0
 11 12  2  0
 12 13  1  0
 13 14  2  0
 15 14  1  6
 15 16  1  0
 15 24  1  0
 16 17  1  0
 16 23  1  1
 17 18  1  0
 18 19  1  0
 19 20  1  0
 20 21  2  0
 20 22  1  0
 24 25  1  0
 25 26  1  0
 26 27  1  0
 26 34  1  1
 27 28  2  0
 27 29  1  0
 29 30  1  0
 30 31  1  0
 31 32  2  0
 31 33  1  0
M  END
>  <DRUGBANK_ID>  (1) 
DB11858

>  <COMMON_NAME>  (1) 
Leukotriene D4

>  <CAS_NUMBER>  (1) 
73836-78-9

>  <UNII>  (1) 
5FNY4416UE

>  <SYNONYMS>  (1) 
(R-(R*,S*-(E,E,Z,Z)))-N-(S-(1-(4-Carboxy-1-hydroxybutyl)-2,4,6,9-pentadecatetraenyl)-L-cysteinyl)glycine; 5S-hydroxy-6R-(S-cysteinylglycinyl)-7E,9E,11E,14Z-eicosatetraenoic acid; LTD4; S-{(1R,2E,4E,6Z,9Z)-1-[(1S)-4-carboxy-1-hydroxybutyl]pentadeca-2,4,6,9-tetraen-1-yl}-L-cysteinylglycine

$$$$
