
     RDKit          2D

 26 29  0  0  0  0  0  0  0  0999 V2000
    0.3221   -1.5712    0.0000 C   0  0  0  0  0  0  0  0  0  0  0  0
   -0.3924   -1.9836    0.0000 C   0  0  0  0  0  0  0  0  0  0  0  0
   -1.1068   -1.5712    0.0000 C   0  0  0  0  0  0  0  0  0  0  0  0
   -1.8213   -1.9836    0.0000 C   0  0  0  0  0  0  0  0  0  0  0  0
   -2.5358   -0.7462    0.0000 C   0  0  0  0  0  0  0  0  0  0  0  0
   -1.8213   -0.3337    0.0000 C   0  0  0  0  0  0  0  0  0  0  0  0
    0.3221    0.9037    0.0000 C   0  0  0  0  0  0  0  0  0  0  0  0
    2.3062    0.0787    0.0000 C   0  0  0  0  0  0  0  0  0  0  0  0
    1.8212   -0.5886    0.0000 C   0  0  0  0  0  0  0  0  0  0  0  0
   -0.3924   -0.3337    0.0000 C   0  0  0  0  0  0  0  0  0  0  0  0
    1.0366   -0.3337    0.0000 C   0  0  0  0  0  0  0  0  0  0  0  0
    0.3221   -0.7462    0.0000 C   0  0  0  0  0  0  0  0  0  0  0  0
    1.0366    0.4912    0.0000 C   0  0  0  0  0  0  0  0  0  0  0  0
    1.8212    0.7462    0.0000 C   0  0  0  0  0  0  0  0  0  0  0  0
   -2.5358   -1.5712    0.0000 C   0  0  0  0  0  0  0  0  0  0  0  0
   -3.2502   -1.9837    0.0000 O   0  0  0  0  0  0  0  0  0  0  0  0
   -0.3924    0.4912    0.0000 C   0  0  0  0  0  0  0  0  0  0  0  0
   -1.1069    0.9037    0.0000 O   0  0  0  0  0  0  0  0  0  0  0  0
    1.8212    1.5712    0.0000 C   0  0  0  0  0  0  0  0  0  0  0  0
    1.1068    1.9837    0.0000 O   0  0  0  0  0  0  0  0  0  0  0  0
    2.5358    1.9837    0.0000 C   0  0  0  0  0  0  0  0  0  0  0  0
    3.2503    1.5712    0.0000 O   0  0  0  0  0  0  0  0  0  0  0  0
    2.5358    1.1587    0.0000 O   0  0  0  0  0  0  0  0  0  0  0  0
    1.0366    1.3162    0.0000 C   0  0  0  0  0  0  0  0  0  0  0  0
   -1.1068   -0.7462    0.0000 C   0  0  0  0  0  0  0  0  0  0  0  0
   -1.1068    0.0787    0.0000 C   0  0  0  0  0  0  0  0  0  0  0  0
  1  2  1  0
  2  3  1  0
  3  4  2  0
  3 25  1  0
  4 15  1  0
  5  6  1  0
  6 25  1  0
  7 13  1  0
  8  9  1  0
 11  9  1  1
 10 17  1  1
 12  1  1  6
 12 10  1  0
 12 11  1  0
 13 14  1  0
 13 11  1  0
 13 24  1  1
 14  8  1  0
 14 23  1  6
 14 19  1  0
 15  5  1  0
 15 16  2  0
 17  7  1  0
 17 18  1  1
 19 21  1  0
 19 20  2  0
 21 22  1  0
 25 10  1  0
 25 26  1  1
M  END
>  <DRUGBANK_ID>  (1) 
DB00741

>  <SECONDARY_ACCESSION_NUMBERS>  (1) 
APRD01019; DB07886

>  <COMMON_NAME>  (1) 
Hydrocortisone

>  <CAS_NUMBER>  (1) 
50-23-7

>  <UNII>  (1) 
WI4X0X7BPJ

>  <SYNONYMS>  (1) 
(11β)-11,17,21-trihydroxypregn-4-ene-3,20-dione; 11beta-hydrocortisone; 11beta,17alpha,21-Trihydroxy-4-pregnene-3,20-dione; 11β-hydrocortisone; 17-Hydroxycorticosterone; 4-pregnen-11β,17α,21-triol-3,20-dione; Cortisol; Hidrocortisona; Hydrocortisone; Hydrocortisonum; Kendall's compound F; Reichstein's substance M

$$$$
