
     RDKit          2D

 33 38  0  0  0  0  0  0  0  0999 V2000
    3.5399    3.7205    0.0000 C   0  0  0  0  0  0  0  0  0  0  0  0
    4.1530    3.1684    0.0000 C   0  0  0  0  0  0  0  0  0  0  0  0
    4.9600    3.3400    0.0000 N   0  0  0  0  0  0  0  0  0  0  0  0
    5.3725    2.6255    0.0000 O   0  0  0  0  0  0  0  0  0  0  0  0
    4.8204    2.0124    0.0000 C   0  0  0  0  0  0  0  0  0  0  0  0
    4.9920    1.2054    0.0000 C   0  0  0  0  0  0  0  0  0  0  0  0
    4.0668    2.3479    0.0000 C   0  0  0  0  0  0  0  0  0  0  0  0
    3.3523    1.9354    0.0000 C   0  0  0  0  0  0  0  0  0  0  0  0
    3.3523    1.1104    0.0000 C   0  0  0  0  0  0  0  0  0  0  0  0
    2.6378    0.6979    0.0000 C   0  0  0  0  0  0  0  0  0  0  0  0
    1.9233    1.1104    0.0000 C   0  0  0  0  0  0  0  0  0  0  0  0
    1.1387    0.8555    0.0000 N   0  0  0  0  0  0  0  0  0  0  0  0
    0.6538    1.5229    0.0000 C   0  0  0  0  0  0  0  0  0  0  0  0
    1.1387    2.1904    0.0000 N   0  0  0  0  0  0  0  0  0  0  0  0
    1.9233    1.9354    0.0000 C   0  0  0  0  0  0  0  0  0  0  0  0
    2.6378    2.3479    0.0000 C   0  0  0  0  0  0  0  0  0  0  0  0
   -0.1712    1.5229    0.0000 C   0  0  0  0  0  0  0  0  0  0  0  0
   -0.8857    1.1104    0.0000 C   0  0  0  0  0  0  0  0  0  0  0  0
   -0.8857    1.9354    0.0000 C   0  0  0  0  0  0  0  0  0  0  0  0
    2.6378   -0.1271    0.0000 C   0  0  0  0  0  0  0  0  0  0  0  0
    1.8128   -0.1271    0.0000 O   0  0  0  0  0  0  0  0  0  0  0  0
    2.6378   -0.9521    0.0000 C   0  0  0  0  0  0  0  0  0  0  0  0
    3.3523   -1.3646    0.0000 C   0  0  0  0  0  0  0  0  0  0  0  0
    3.3523   -2.1896    0.0000 C   0  0  0  0  0  0  0  0  0  0  0  0
    2.6378   -2.6021    0.0000 C   0  0  0  0  0  0  0  0  0  0  0  0
    1.9233   -2.1896    0.0000 C   0  0  0  0  0  0  0  0  0  0  0  0
    1.9233   -1.3646    0.0000 N   0  0  0  0  0  0  0  0  0  0  0  0
    3.4628   -0.1271    0.0000 C   0  0  0  0  0  0  0  0  0  0  0  0
    3.8753    0.5874    0.0000 N   0  0  0  0  0  0  0  0  0  0  0  0
    4.7003    0.5874    0.0000 C   0  0  0  0  0  0  0  0  0  0  0  0
    5.1128   -0.1271    0.0000 C   0  0  0  0  0  0  0  0  0  0  0  0
    4.7003   -0.8415    0.0000 C   0  0  0  0  0  0  0  0  0  0  0  0
    3.8753   -0.8415    0.0000 C   0  0  0  0  0  0  0  0  0  0  0  0
  1  2  1  0
  2  3  2  0
  2  7  1  0
  3  4  1  0
  4  5  1  0
  5  6  1  0
  5  7  2  0
  7  8  1  0
  8  9  2  0
  8 16  1  0
  9 10  1  0
 10 11  2  0
 10 20  1  0
 11 12  1  0
 11 15  1  0
 12 13  2  0
 13 14  1  0
 13 17  1  0
 14 15  1  0
 15 16  2  0
 17 18  1  0
 17 19  1  0
 18 19  1  0
 20 21  1  0
 20 22  1  0
 20 28  1  0
 22 23  2  0
 22 27  1  0
 23 24  1  0
 24 25  2  0
 25 26  1  0
 26 27  2  0
 28 29  2  0
 28 33  1  0
 29 30  1  0
 30 31  2  0
 31 32  1  0
 32 33  2  0
M  END
>  <DRUGBANK_ID>  (1) 
DB14970

>  <COMMON_NAME>  (1) 
Alobresib

>  <CAS_NUMBER>  (1) 
1637771-14-2

>  <UNII>  (1) 
3QBL0BLP3D

>  <SYNONYMS>  (1) 
Alobresib

$$$$
