
     RDKit          2D

 42 41  0  0  0  0  0  0  0  0999 V2000
    1.0718    0.8251    0.0000 C   0  0  0  0  0  0  0  0  0  0  0  0
    0.3572    1.2376    0.0000 C   0  0  0  0  0  0  0  0  0  0  0  0
   -0.3571    0.8251    0.0000 C   0  0  0  0  0  0  0  0  0  0  0  0
    2.5006    0.8251    0.0000 C   0  0  0  0  0  0  0  0  0  0  0  0
    1.7861    1.2376    0.0000 C   0  0  0  0  0  0  0  0  0  0  0  0
    3.9295    0.8251    0.0000 C   0  0  0  0  0  0  0  0  0  0  0  0
    3.2149    1.2376    0.0000 C   0  0  0  0  0  0  0  0  0  0  0  0
    4.6438    1.2376    0.0000 C   0  0  0  0  0  0  0  0  0  0  0  0
    5.3582    0.8251    0.0000 C   0  0  0  0  0  0  0  0  0  0  0  0
    6.0728    1.2376    0.0000 C   0  0  0  0  0  0  0  0  0  0  0  0
    4.6438    2.0624    0.0000 O   0  0  0  0  0  0  0  0  0  0  0  0
    5.3582    0.0000    0.0000 N   0  0  0  0  0  2  0  0  0  0  0  0
    6.7870    0.8249    0.0000 O   0  0  0  0  0  0  0  0  0  0  0  0
   -1.0716    1.2376    0.0000 C   0  0  0  0  0  0  0  0  0  0  0  0
   -1.7859    0.8250    0.0000 C   0  0  0  0  0  0  0  0  0  0  0  0
   -2.5004    1.2375    0.0000 C   0  0  0  0  0  0  0  0  0  0  0  0
   -3.2148    0.8250    0.0000 C   0  0  0  0  0  0  0  0  0  0  0  0
   -3.9293    1.2374    0.0000 C   0  0  0  0  0  0  0  0  0  0  0  0
   -4.6436    0.8249    0.0000 C   0  0  0  0  0  0  0  0  0  0  0  0
   -5.3581    1.2374    0.0000 C   0  0  0  0  0  0  0  0  0  0  0  0
   -6.0726    0.8249    0.0000 C   0  0  0  0  0  0  0  0  0  0  0  0
    5.3582   -0.8249    0.0000 C   0  0  0  0  0  0  0  0  0  0  0  0
    6.0727   -1.2374    0.0000 O   0  0  0  0  0  0  0  0  0  0  0  0
    4.6437   -1.2374    0.0000 C   0  0  0  0  0  0  0  0  0  0  0  0
    3.9294   -0.8249    0.0000 C   0  0  0  0  0  0  0  0  0  0  0  0
    3.2149   -1.2374    0.0000 C   0  0  0  0  0  0  0  0  0  0  0  0
    2.5005   -0.8249    0.0000 C   0  0  0  0  0  0  0  0  0  0  0  0
    1.7860   -1.2374    0.0000 C   0  0  0  0  0  0  0  0  0  0  0  0
    1.0717   -0.8249    0.0000 C   0  0  0  0  0  0  0  0  0  0  0  0
    0.3572   -1.2374    0.0000 C   0  0  0  0  0  0  0  0  0  0  0  0
   -0.3572   -0.8249    0.0000 C   0  0  0  0  0  0  0  0  0  0  0  0
   -1.0716   -1.2374    0.0000 C   0  0  0  0  0  0  0  0  0  0  0  0
   -1.7860   -0.8249    0.0000 C   0  0  0  0  0  0  0  0  0  0  0  0
   -2.5005   -1.2374    0.0000 C   0  0  0  0  0  0  0  0  0  0  0  0
   -3.2149   -0.8249    0.0000 C   0  0  0  0  0  0  0  0  0  0  0  0
   -3.9293   -1.2374    0.0000 C   0  0  0  0  0  0  0  0  0  0  0  0
   -4.6437   -0.8249    0.0000 C   0  0  0  0  0  0  0  0  0  0  0  0
   -5.3582   -1.2374    0.0000 C   0  0  0  0  0  0  0  0  0  0  0  0
   -6.0726   -0.8249    0.0000 C   0  0  0  0  0  0  0  0  0  0  0  0
   -6.7870   -1.2374    0.0000 C   0  0  0  0  0  0  0  0  0  0  0  0
    4.6437   -2.0624    0.0000 O   0  0  0  0  0  0  0  0  0  0  0  0
    3.9295    0.0001    0.0000 O   0  0  0  0  0  0  0  0  0  0  0  0
  1  5  1  0
  2  1  1  0
  3  2  1  0
  3 14  1  0
  4  7  1  0
  5  4  1  0
  6 42  1  6
  7  6  1  0
  8  6  1  0
  8 11  1  1
  8  9  1  0
  9 12  1  0
  9 10  1  6
 10 13  1  0
 12 22  1  0
 14 15  1  0
 15 16  1  0
 16 17  1  0
 17 18  1  0
 18 19  1  0
 19 20  1  0
 20 21  1  0
 22 23  2  0
 22 24  1  0
 24 25  1  0
 24 41  1  0
 25 26  1  0
 26 27  1  0
 27 28  1  0
 28 29  1  0
 29 30  1  0
 30 31  1  0
 31 32  1  0
 32 33  1  0
 33 34  1  0
 34 35  1  0
 35 36  1  0
 36 37  1  0
 37 38  1  0
 38 39  1  0
 39 40  1  0
M  RAD  1  12   2
M  END
>  <DRUGBANK_ID>  (1) 
DB14705

>  <COMMON_NAME>  (1) 
Ceramide AP

>  <CAS_NUMBER>  (1) 
212070-45-6

>  <UNII>  (1) 
F1X8L2B00J

>  <SYNONYMS>  (1) 
Biomide 6; Ceramide 6; Ceramide 6 II; Ceramide VI; Cytomide VI; N-(2-hydroxyoctadecanoyl)-4-hydroxysphinganine; N-(2-hydroxyoctadecanoyl)-4R-hydroxysphinganine; N-(2-hydroxyoctadecanoyl)-hydroxysphinganine; N-(2-hydroxyoctadecanoyl)phytoceramide; N-(2-hydroxyoctadecanoyl)phytosphingosine; N-2-hydroxystearoyl-phytosphingosine; PHC-C 18:0/18:0; phytosphingosine-2-hydroxy-18:0

$$$$
