
     RDKit          2D

 19 20  0  0  1  0  0  0  0  0999 V2000
   -6.2785    4.0665    0.0000 C   0  0  0  0  0  0  0  0  0  0  0  0
   -5.4716    3.8949    0.0000 O   0  0  0  0  0  0  0  0  0  0  0  0
   -5.2166    3.1103    0.0000 C   0  0  0  0  0  0  0  0  0  0  0  0
   -4.4097    2.9388    0.0000 C   0  0  0  0  0  0  0  0  0  0  0  0
   -4.1547    2.1542    0.0000 C   0  0  0  0  0  0  0  0  0  0  0  0
   -4.7067    1.5411    0.0000 C   0  0  0  0  0  0  0  0  0  0  0  0
   -4.2942    0.8266    0.0000 N   0  0  0  0  0  0  0  0  0  0  0  0
   -3.4873    0.9981    0.0000 C   0  0  0  0  0  0  0  0  0  0  0  0
   -3.4010    1.8186    0.0000 C   0  0  0  0  0  0  0  0  0  0  0  0
   -2.6866    2.2311    0.0000 C   0  0  0  0  0  0  0  0  0  0  0  0
   -2.6866    3.0561    0.0000 C   0  0  0  0  0  0  0  0  0  0  0  0
   -1.9721    1.8186    0.0000 C   0  0  0  0  0  0  0  0  0  0  0  0
   -1.2576    2.2311    0.0000 N   0  0  0  0  0  0  0  0  0  0  0  0
   -0.5432    1.8186    0.0000 C   0  0  0  0  0  0  0  0  0  0  0  0
    0.1713    2.2311    0.0000 C   0  0  0  0  0  0  0  0  0  0  0  0
   -0.5432    0.9936    0.0000 O   0  0  0  0  0  0  0  0  0  0  0  0
   -5.5137    1.7126    0.0000 C   0  0  0  0  0  0  0  0  0  0  0  0
   -5.7687    2.4972    0.0000 C   0  0  0  0  0  0  0  0  0  0  0  0
   -6.5756    2.6687    0.0000 Cl  0  0  0  0  0  0  0  0  0  0  0  0
  1  2  1  0
  2  3  1  0
  3  4  2  0
  3 18  1  0
  4  5  1  0
  5  6  2  0
  5  9  1  0
  6  7  1  0
  6 17  1  0
  7  8  1  0
  8  9  2  0
 10  9  1  0
 10 11  1  1
 10 12  1  0
 12 13  1  0
 13 14  1  0
 14 15  1  0
 14 16  2  0
 17 18  2  0
 18 19  1  0
M  END
>  <DRUGBANK_ID>  (1) 
DB16909

>  <COMMON_NAME>  (1) 
TIK-301

>  <CAS_NUMBER>  (1) 
118702-11-7

>  <UNII>  (1) 
3ZX95B1ZWK

>  <SYNONYMS>  (1) 
(R)-N-[2-(6-Chloro-5-Methoxy-1H-Indol-3-Yl)Propyl]Acetamide; Beta-methyl-6-chloromelatonin; LY-156,735; LY-156735; N-((2r)-2-(6-chloro-5-methoxy-1h-indol-3-yl)propyl)acetamide

$$$$
