
     RDKit          2D

 27 30  0  0  1  0  0  0  0  0999 V2000
    7.5549   -2.5470    0.0000 C   0  0  0  0  0  0  0  0  0  0  0  0
    7.1649   -1.8200    0.0000 O   0  0  0  0  0  0  0  0  0  0  0  0
    6.3403   -1.7943    0.0000 C   0  0  0  0  0  0  0  0  0  0  0  0
    5.9504   -1.0673    0.0000 C   0  0  0  0  0  0  0  0  0  0  0  0
    5.1258   -1.0415    0.0000 O   0  0  0  0  0  0  0  0  0  0  0  0
    4.7358   -0.3145    0.0000 C   0  0  0  0  0  0  0  0  0  0  0  0
    5.1704    0.3867    0.0000 C   0  0  0  0  0  0  0  0  0  0  0  0
    5.9950    0.3610    0.0000 O   0  0  0  0  0  0  0  0  0  0  0  0
    4.7804    1.1137    0.0000 C   0  0  0  0  0  0  0  0  0  0  0  0
    3.9558    1.1395    0.0000 N   0  0  0  0  0  0  0  0  0  0  0  0
    3.5212    0.4383    0.0000 C   0  0  0  0  0  0  0  0  0  0  0  0
    3.9112   -0.2887    0.0000 C   0  0  0  0  0  0  0  0  0  0  0  0
    3.4766   -0.9900    0.0000 C   0  0  0  0  0  0  0  0  0  0  0  0
    2.6520   -0.9642    0.0000 C   0  0  0  0  0  0  0  0  0  0  0  0
    2.2620   -0.2372    0.0000 N   0  0  0  0  0  0  0  0  0  0  0  0
    1.4608   -0.0406    0.0000 C   0  0  0  0  0  0  0  0  0  0  0  0
    0.8307   -0.5732    0.0000 C   0  0  0  0  0  0  0  0  0  0  0  0
    1.4002    0.7822    0.0000 C   0  0  0  0  0  0  0  0  0  0  0  0
    0.6989    1.2168    0.0000 C   0  0  0  0  0  0  0  0  0  0  0  0
    2.1640    1.0941    0.0000 N   0  0  0  0  0  0  0  0  0  0  0  0
    2.6966    0.4640    0.0000 C   0  0  0  0  0  0  0  0  0  0  0  0
    5.2150    1.8150    0.0000 C   0  0  0  0  0  0  0  0  0  0  0  0
    4.8250    2.5420    0.0000 C   0  0  0  0  0  0  0  0  0  0  0  0
    5.2596    3.2432    0.0000 C   0  0  0  0  0  0  0  0  0  0  0  0
    6.0842    3.2175    0.0000 C   0  0  0  0  0  0  0  0  0  0  0  0
    6.4742    2.4905    0.0000 C   0  0  0  0  0  0  0  0  0  0  0  0
    6.0396    1.7892    0.0000 C   0  0  0  0  0  0  0  0  0  0  0  0
  1  2  1  0
  2  3  1  0
  3  4  1  0
  4  5  1  0
  6  5  1  6
  6 12  1  0
  7  6  1  0
  7  8  1  1
  7  9  1  0
  9 10  1  0
  9 22  1  6
 10 11  1  0
 11 12  2  0
 11 21  1  0
 12 13  1  0
 13 14  2  0
 14 15  1  0
 15 16  1  0
 15 21  1  0
 16 17  1  0
 16 18  2  0
 18 19  1  0
 18 20  1  0
 20 21  2  0
 22 23  2  0
 22 27  1  0
 23 24  1  0
 24 25  2  0
 25 26  1  0
 26 27  2  0
M  END
>  <DRUGBANK_ID>  (1) 
DB17856

>  <COMMON_NAME>  (1) 
Soraprazan

>  <CAS_NUMBER>  (1) 
261944-46-1

>  <UNII>  (1) 
5XB3671655

>  <SYNONYMS>  (1) 
(7r,8r,9r)-7-(2-methoxyethoxy)-2,3-dimethyl-9-phenyl-7,8,9,10-tetrahydroimidazo(1,2-h)(1,7)naphtyridin-8-ol; Soraprazan

$$$$
