LZ8
     RDKit          2D

 24 26  0  0  0  0  0  0  0  0999 V2000
   16.8125    7.5662    0.0000 F   0  0  0  0  0  0  0  0  0  0  0  0
   16.8125    6.7412    0.0000 C   0  0  0  0  0  0  0  0  0  0  0  0
   17.5270    6.3287    0.0000 C   0  0  0  0  0  0  0  0  0  0  0  0
   17.5270    5.5037    0.0000 C   0  0  0  0  0  0  0  0  0  0  0  0
   16.8125    5.0912    0.0000 C   0  0  0  0  0  0  0  0  0  0  0  0
   16.8125    4.2662    0.0000 N   0  0  0  0  0  0  0  0  0  0  0  0
   16.0980    3.8537    0.0000 C   0  0  0  0  0  0  0  0  0  0  0  0
   15.3836    4.2662    0.0000 O   0  0  0  0  0  0  0  0  0  0  0  0
   16.0980    3.0287    0.0000 C   0  0  0  0  0  0  0  0  0  0  0  0
   16.7655    2.5438    0.0000 N   0  0  0  0  0  0  0  0  0  0  0  0
   16.5105    1.7592    0.0000 N   0  0  0  0  0  0  0  0  0  0  0  0
   15.6855    1.7592    0.0000 C   0  0  0  0  0  0  0  0  0  0  0  0
   15.4306    2.5438    0.0000 C   0  0  0  0  0  0  0  0  0  0  0  0
   14.6460    2.7987    0.0000 N   0  0  0  0  0  0  0  0  0  0  0  0
   14.0329    2.2467    0.0000 C   0  0  0  0  0  0  0  0  0  0  0  0
   14.2044    1.4397    0.0000 O   0  0  0  0  0  0  0  0  0  0  0  0
   13.2483    2.5017    0.0000 C   0  0  0  0  0  0  0  0  0  0  0  0
   12.6352    1.9496    0.0000 C   0  0  0  0  0  0  0  0  0  0  0  0
   11.8505    2.2046    0.0000 C   0  0  0  0  0  0  0  0  0  0  0  0
   11.6790    3.0115    0.0000 C   0  0  0  0  0  0  0  0  0  0  0  0
   12.2921    3.5636    0.0000 C   0  0  0  0  0  0  0  0  0  0  0  0
   13.0767    3.3086    0.0000 C   0  0  0  0  0  0  0  0  0  0  0  0
   16.0980    5.5037    0.0000 C   0  0  0  0  0  0  0  0  0  0  0  0
   16.0980    6.3287    0.0000 C   0  0  0  0  0  0  0  0  0  0  0  0
  1  2  1  0
  2  3  2  0
  2 24  1  0
  3  4  1  0
  4  5  2  0
  5  6  1  0
  5 23  1  0
  6  7  1  0
  7  8  2  0
  7  9  1  0
  9 10  2  0
  9 13  1  0
 10 11  1  0
 11 12  1  0
 12 13  2  0
 13 14  1  0
 14 15  1  0
 15 16  2  0
 15 17  1  0
 17 18  2  0
 17 22  1  0
 18 19  1  0
 19 20  2  0
 20 21  1  0
 21 22  2  0
 23 24  2  0
M  END
>  <DRUGBANK_ID>  (1) 
DB08137

>  <COMMON_NAME>  (1) 
(4E)-N-(4-fluorophenyl)-4-[(phenylcarbonyl)imino]-4H-pyrazole-3-carboxamide

$$$$
