
     RDKit          2D

  8  6  0  0  0  0  0  0  0  0999 V2000
   -1.7861    0.8250    0.0000 Sr  0  0  0  0  0 15  0  0  0  0  0  0
    0.3572    0.4125    0.0000 C   0  0  0  0  0  0  0  0  0  0  0  0
   -0.3572    0.0000    0.0000 C   0  0  0  0  0  0  0  0  0  0  0  0
   -0.3572   -0.8250    0.0000 O   0  0  0  0  0  0  0  0  0  0  0  0
   -1.0717    0.4125    0.0000 O   0  0  0  0  0  0  0  0  0  0  0  0
    1.0717    0.0000    0.0000 C   0  0  0  0  0  0  0  0  0  0  0  0
    1.7861    0.4125    0.0000 O   0  0  0  0  0  0  0  0  0  0  0  0
    1.0717   -0.8250    0.0000 O   0  0  0  0  0  0  0  0  0  0  0  0
  2  3  1  0
  2  6  1  0
  3  4  2  0
  3  5  1  0
  6  7  2  0
  6  8  1  0
M  CHG  3   1   2   5  -1   8  -1
M  END
>  <DRUGBANK_ID>  (1) 
DB05732

>  <COMMON_NAME>  (1) 
Strontium malonate

>  <CAS_NUMBER>  (1) 
183133-72-4

>  <UNII>  (1) 
GT5D7PW9ZR

$$$$
