I46
     RDKit          2D

 19 21  0  0  0  0  0  0  0  0999 V2000
    0.0307    0.5608    0.0000 C   0  0  0  0  0  0  0  0  0  0  0  0
    1.4597    0.5608    0.0000 C   0  0  0  0  0  0  0  0  0  0  0  0
    0.0307    1.3858    0.0000 C   0  0  0  0  0  0  0  0  0  0  0  0
    1.4597    1.3858    0.0000 C   0  0  0  0  0  0  0  0  0  0  0  0
   -0.8784   -0.0997    0.0000 C   0  0  0  0  0  0  0  0  0  0  0  0
   -1.6630    0.1552    0.0000 C   0  0  0  0  0  0  0  0  0  0  0  0
   -1.3200   -1.4587    0.0000 C   0  0  0  0  0  0  0  0  0  0  0  0
    1.4126   -1.1617    0.0000 C   0  0  0  0  0  0  0  0  0  0  0  0
    0.7452    0.1483    0.0000 C   0  0  0  0  0  0  0  0  0  0  0  0
    0.7452    1.7983    0.0000 C   0  0  0  0  0  0  0  0  0  0  0  0
   -0.7069   -0.9067    0.0000 C   0  0  0  0  0  0  0  0  0  0  0  0
   -2.1046   -1.2038    0.0000 C   0  0  0  0  0  0  0  0  0  0  0  0
    0.7452   -0.6767    0.0000 C   0  0  0  0  0  0  0  0  0  0  0  0
    0.0778   -1.1617    0.0000 C   0  0  0  0  0  0  0  0  0  0  0  0
    1.1577   -1.9463    0.0000 N   0  0  0  0  0  0  0  0  0  0  0  0
   -2.2761   -0.3968    0.0000 N   0  0  0  0  0  0  0  0  0  0  0  0
    0.3327   -1.9463    0.0000 N   0  0  0  0  0  0  0  0  0  0  0  0
    0.7452    2.6233    0.0000 F   0  0  0  0  0  0  0  0  0  0  0  0
   -2.7177   -1.7558    0.0000 F   0  0  0  0  0  0  0  0  0  0  0  0
  1  3  2  0
  2  9  2  0
  2  4  1  0
  4 10  2  0
  5 11  2  0
  6  5  1  0
  6 16  2  0
  9  1  1  0
 10  3  1  0
 10 18  1  0
 11  7  1  0
 11 14  1  0
 12  7  2  0
 12 19  1  0
 13  8  2  0
 13  9  1  0
 14 13  1  0
 15  8  1  0
 16 12  1  0
 17 14  2  0
 17 15  1  0
M  END
>  <DRUGBANK_ID>  (1) 
DB07942

>  <COMMON_NAME>  (1) 
2-fluoro-4-[4-(4-fluorophenyl)-1H-pyrazol-3-yl]pyridine

$$$$
