
     RDKit          2D

 24 24  0  0  0  0  0  0  0  0999 V2000
    0.7697    0.8250    0.0000 C   0  0  0  0  0  0  0  0  0  0  0  0
    0.0552    0.4124    0.0000 C   0  0  0  0  0  0  0  0  0  0  0  0
   -0.6591    0.8250    0.0000 O   0  0  0  0  0  0  0  0  0  0  0  0
    0.0552   -0.4125    0.0000 C   0  0  0  0  0  0  0  0  0  0  0  0
    1.4842   -0.4125    0.0000 C   0  0  0  0  0  0  0  0  0  0  0  0
    2.1986   -0.8250    0.0000 O   0  0  0  0  0  0  0  0  0  0  0  0
    0.7697   -0.8250    0.0000 C   0  0  0  0  0  0  0  0  0  0  0  0
    1.4842    0.4124    0.0000 C   0  0  0  0  0  0  0  0  0  0  0  0
    2.1986    0.8250    0.0000 O   0  0  0  0  0  0  0  0  0  0  0  0
    0.7697    1.6499    0.0000 O   0  0  0  0  0  0  0  0  0  0  0  0
   -0.6591   -0.8250    0.0000 O   0  0  0  0  0  0  0  0  0  0  0  0
    0.7697   -1.6500    0.0000 O   0  0  0  0  0  0  0  0  0  0  0  0
    0.0552    2.8874    0.0000 O   0  0  0  0  0  0  0  0  0  0  0  0
   -0.7697    2.0625    0.0000 O   0  0  0  0  0  0  0  0  0  0  0  0
    0.0552    2.0625    0.0000 P   0  0  0  0  0  0  0  0  0  0  0  0
    0.0552    1.2374    0.0000 O   0  0  0  0  0  0  0  0  0  0  0  0
   -1.3736    0.4124    0.0000 O   0  0  0  0  0  0  0  0  0  0  0  0
   -2.1986   -0.4125    0.0000 O   0  0  0  0  0  0  0  0  0  0  0  0
   -1.3736   -0.4125    0.0000 P   0  0  0  0  0  0  0  0  0  0  0  0
   -1.3736   -1.2375    0.0000 O   0  0  0  0  0  0  0  0  0  0  0  0
   -0.7697   -2.0625    0.0000 O   0  0  0  0  0  0  0  0  0  0  0  0
    0.0552   -1.2375    0.0000 O   0  0  0  0  0  0  0  0  0  0  0  0
    0.0552   -2.0625    0.0000 P   0  0  0  0  0  0  0  0  0  0  0  0
    0.0552   -2.8875    0.0000 O   0  0  0  0  0  0  0  0  0  0  0  0
  1  2  1  0
  1  8  1  0
  1 10  1  1
  2  4  1  0
  2  3  1  1
  4  7  1  0
  4 11  1  1
  5  8  1  0
  5  6  1  1
  7  5  1  0
  7 12  1  6
  8  9  1  6
 10 15  1  0
 11 19  1  0
 12 23  1  0
 15 13  2  0
 15 14  1  0
 15 16  1  0
 19 17  2  0
 19 18  1  0
 19 20  1  0
 23 21  1  0
 23 22  2  0
 23 24  1  0
M  END
>  <DRUGBANK_ID>  (1) 
DB01729

>  <SECONDARY_ACCESSION_NUMBERS>  (1) 
EXPT01812

>  <COMMON_NAME>  (1) 
1D-myo-inositol 1,3,4-trisphosphate

>  <SYNONYMS>  (1) 
(1S,3S,4S)-1,3,4-triphospho-myo-inositol; 1D-myo-inositol 1,3,4-trisphosphate; D-myo-Inositol 1,3,4-trisphosphate; Inositol 1,3,4-trisphosphate

$$$$
