
     RDKit          2D

 18 20  0  0  0  0  0  0  0  0999 V2000
    0.1308   -2.6499    0.0000 C   0  0  0  0  0  0  0  0  0  0  0  0
    0.5433   -1.9354    0.0000 C   0  0  0  0  0  0  0  0  0  0  0  0
    0.1308   -1.2210    0.0000 O   0  0  0  0  0  0  0  0  0  0  0  0
    1.3683   -1.9354    0.0000 C   0  0  0  0  0  0  0  0  0  0  0  0
    1.8532   -1.2680    0.0000 O   0  0  0  0  0  0  0  0  0  0  0  0
    2.6378   -1.5229    0.0000 C   0  0  0  0  0  0  0  0  0  0  0  0
    3.3523   -1.1104    0.0000 C   0  0  0  0  0  0  0  0  0  0  0  0
    3.3523   -0.2854    0.0000 O   0  0  0  0  0  0  0  0  0  0  0  0
    4.0668   -1.5229    0.0000 C   0  0  0  0  0  0  0  0  0  0  0  0
    4.7812   -1.1104    0.0000 C   0  0  0  0  0  0  0  0  0  0  0  0
    5.4957   -1.5229    0.0000 C   0  0  0  0  0  0  0  0  0  0  0  0
    5.4957   -2.3479    0.0000 C   0  0  0  0  0  0  0  0  0  0  0  0
    4.7812   -2.7604    0.0000 C   0  0  0  0  0  0  0  0  0  0  0  0
    4.0668   -2.3479    0.0000 C   0  0  0  0  0  0  0  0  0  0  0  0
    3.3523   -2.7604    0.0000 C   0  0  0  0  0  0  0  0  0  0  0  0
    3.3523   -3.5854    0.0000 O   0  0  0  0  0  0  0  0  0  0  0  0
    2.6378   -2.3479    0.0000 C   0  0  0  0  0  0  0  0  0  0  0  0
    1.8532   -2.6029    0.0000 C   0  0  0  0  0  0  0  0  0  0  0  0
  1  2  1  0
  2  3  2  0
  2  4  1  0
  4  5  1  0
  4 18  2  0
  5  6  1  0
  6  7  1  0
  6 17  2  0
  7  8  2  0
  7  9  1  0
  9 10  2  0
  9 14  1  0
 10 11  1  0
 11 12  2  0
 12 13  1  0
 13 14  2  0
 14 15  1  0
 15 16  2  0
 15 17  1  0
 17 18  1  0
M  END
>  <DRUGBANK_ID>  (1) 
DB12155

>  <COMMON_NAME>  (1) 
Napabucasin

>  <CAS_NUMBER>  (1) 
83280-65-3

>  <UNII>  (1) 
Z1HHM49K7O

>  <SYNONYMS>  (1) 
Napabucasin

$$$$
