
     RDKit          2D

 12 13  0  0  0  0  0  0  0  0999 V2000
    1.4289    0.8250    0.0000 C   0  0  0  0  0  0  0  0  0  0  0  0
    1.4289    0.0000    0.0000 C   0  0  0  0  0  0  0  0  0  0  0  0
    2.1434    1.2375    0.0000 C   0  0  0  0  0  0  0  0  0  0  0  0
    2.1434   -0.4125    0.0000 C   0  0  0  0  0  0  0  0  0  0  0  0
    4.2868    0.8250    0.0000 C   0  0  0  0  0  0  0  0  0  0  0  0
    2.8579    0.8250    0.0000 C   0  0  0  0  0  0  0  0  0  0  0  0
    3.5724    1.2375    0.0000 C   0  0  0  0  0  0  0  0  0  0  0  0
    2.8579    0.0000    0.0000 C   0  0  0  0  0  0  0  0  0  0  0  0
    4.2868    0.0000    0.0000 C   0  0  0  0  0  0  0  0  0  0  0  0
    3.5724    2.0625    0.0000 O   0  0  0  0  0  0  0  0  0  0  0  0
    5.0013   -0.4125    0.0000 O   0  0  0  0  0  0  0  0  0  0  0  0
    3.5724   -0.4125    0.0000 O   0  0  0  0  0  0  0  0  0  0  0  0
  2  1  2  0
  3  1  1  0
  4  2  1  0
  6  3  2  0
  7  5  2  0
  7  6  1  0
  8  4  2  0
  8  6  1  0
  9  5  1  0
 10  7  1  0
 11  9  2  0
 12  8  1  0
 12  9  1  0
M  END
>  <DRUGBANK_ID>  (1) 
DB03410

>  <SECONDARY_ACCESSION_NUMBERS>  (1) 
EXPT00215

>  <COMMON_NAME>  (1) 
4-hydroxycoumarin

>  <CAS_NUMBER>  (1) 
1076-38-6

>  <UNII>  (1) 
X954ZLL2RD

>  <SYNONYMS>  (1) 
4-coumarinol; 4-hydroxy-2-chromenone; 4-hydroxy-2H-1-benzopyran-2-one; 4-hydroxy-2H-benzo[b]pyran-2-one; 4-hydroxychromen-2-one; 4-hydroxycoumarin; Benzotetronic acid

$$$$
