NAL
     RDKit          2D

 16 17  0  0  0  0  0  0  0  0999 V2000
    0.3091    0.6067    0.0000 C   0  0  0  0  0  0  0  0  0  0  0  0
   -0.4054    0.1942    0.0000 C   0  0  0  0  0  0  0  0  0  0  0  0
   -0.4054   -0.6308    0.0000 C   0  0  0  0  0  0  0  0  0  0  0  0
    0.3091   -1.0433    0.0000 C   0  0  0  0  0  0  0  0  0  0  0  0
    1.0236   -0.6308    0.0000 C   0  0  0  0  0  0  0  0  0  0  0  0
    1.7381   -1.0433    0.0000 C   0  0  0  0  0  0  0  0  0  0  0  0
    2.4525   -0.6308    0.0000 C   0  0  0  0  0  0  0  0  0  0  0  0
    2.4525    0.1942    0.0000 C   0  0  0  0  0  0  0  0  0  0  0  0
    1.7381    0.6067    0.0000 C   0  0  0  0  0  0  0  0  0  0  0  0
    1.0236    0.1942    0.0000 C   0  0  0  0  0  0  0  0  0  0  0  0
   -1.1198    0.6067    0.0000 C   0  0  0  0  0  0  0  0  0  0  0  0
   -1.8343    0.1942    0.0000 C   0  0  0  0  0  0  0  0  0  0  0  0
   -2.5488    0.6067    0.0000 C   0  0  0  0  0  0  0  0  0  0  0  0
   -1.8343   -0.6308    0.0000 N   0  0  0  0  0  0  0  0  0  0  0  0
   -3.2632    0.1942    0.0000 O   0  0  0  0  0  0  0  0  0  0  0  0
   -2.5488    1.4317    0.0000 O   0  0  0  0  0  0  0  0  0  0  0  0
  1  2  2  0
  2 11  1  0
  3  2  1  0
  4  3  2  0
  5  4  1  0
  5 10  2  0
  6  5  1  0
  7  6  2  0
  7  8  1  0
  8  9  2  0
  9 10  1  0
 10  1  1  0
 11 12  1  0
 12 14  1  6
 12 13  1  0
 13 15  2  0
 13 16  1  0
M  END
>  <DRUGBANK_ID>  (1) 
DB01766

>  <SECONDARY_ACCESSION_NUMBERS>  (1) 
EXPT02291

>  <COMMON_NAME>  (1) 
Beta-(2-Naphthyl)-Alanine

>  <UNII>  (1) 
W425Q6KV9R

$$$$
