
     RDKit          2D

 16 16  0  0  1  0  0  0  0  0999 V2000
   13.1379   -9.7800    0.0000 O   0  0  0  0  0  0  0  0  0  0  0  0
   14.3333  -10.1472    0.0000 O   0  0  0  0  0  0  0  0  0  0  0  0
   11.9387  -10.3643    0.0000 O   0  0  0  0  0  0  0  0  0  0  0  0
   13.7606  -11.5618    0.0000 N   0  0  0  0  0  0  0  0  0  0  0  0
   10.8555  -11.9370    0.0000 N   0  0  0  0  0  0  0  0  0  0  0  0
   10.4607  -10.6618    0.0000 N   0  0  0  0  0  0  0  0  0  0  0  0
   16.5162  -10.8945    0.0000 N   0  0  0  0  0  0  0  0  0  0  0  0
   12.9315  -11.1838    0.0000 C   0  0  0  0  0  0  0  0  0  0  0  0
   12.3108  -11.7272    0.0000 C   0  0  0  0  0  0  0  0  0  0  0  0
   11.5297  -11.4613    0.0000 C   0  0  0  0  0  0  0  0  0  0  0  0
   14.3333  -10.9062    0.0000 C   0  0  0  0  0  0  0  0  0  0  0  0
   15.1144  -11.1720    0.0000 C   0  0  0  0  0  0  0  0  0  0  0  0
   12.7713  -10.3745    0.0000 C   0  0  0  0  0  0  0  0  0  0  0  0
   11.2858  -10.6733    0.0000 C   0  0  0  0  0  0  0  0  0  0  0  0
   15.7351  -10.6286    0.0000 C   0  0  0  0  0  0  0  0  0  0  0  0
   10.1949  -11.4427    0.0000 C   0  0  0  0  0  0  0  0  0  0  0  0
  1 13  1  0
  2 11  2  0
  3 13  2  0
  4 11  1  0
  5 10  1  0
  5 16  1  0
  6 14  1  0
  6 16  2  0
  7 15  1  0
  8  4  1  0
  8  9  1  1
  8 13  1  0
  9 10  1  0
 10 14  2  0
 11 12  1  0
 12 15  1  0
M  END
>  <DRUGBANK_ID>  (1) 
DB11695

>  <COMMON_NAME>  (1) 
Carnosine

>  <CAS_NUMBER>  (1) 
305-84-0

>  <UNII>  (1) 
8HO6PVN24W

>  <SYNONYMS>  (1) 
L-Carnosine

$$$$
