SP6
     RDKit          2D

 28 31  0  0  0  0  0  0  0  0999 V2000
    0.5207    0.6418    0.0000 N   0  0  0  0  0  0  0  0  0  0  0  0
    2.6641    0.2293    0.0000 C   0  0  0  0  0  0  0  0  0  0  0  0
    1.2351    0.2293    0.0000 C   0  0  0  0  0  0  0  0  0  0  0  0
   -0.2639    0.3868    0.0000 C   0  0  0  0  0  0  0  0  0  0  0  0
   -1.5739    1.0543    0.0000 C   0  0  0  0  0  0  0  0  0  0  0  0
   -0.7489    1.0543    0.0000 C   0  0  0  0  0  0  0  0  0  0  0  0
    4.8075    1.4668    0.0000 C   0  0  0  0  0  0  0  0  0  0  0  0
    4.8075    0.6418    0.0000 C   0  0  0  0  0  0  0  0  0  0  0  0
    4.0930    0.2293    0.0000 C   0  0  0  0  0  0  0  0  0  0  0  0
    3.3786    1.4668    0.0000 C   0  0  0  0  0  0  0  0  0  0  0  0
   -3.2239   -0.3747    0.0000 C   0  0  0  0  0  0  0  0  0  0  0  0
    3.3786    0.6418    0.0000 C   0  0  0  0  0  0  0  0  0  0  0  0
   -1.9864    1.7688    0.0000 O   0  0  0  0  0  0  0  0  0  0  0  0
   -1.9864    0.3398    0.0000 O   0  0  0  0  0  0  0  0  0  0  0  0
   -2.8114    0.3398    0.0000 C   0  0  0  0  0  0  0  0  0  0  0  0
   -4.0489   -0.3747    0.0000 C   0  0  0  0  0  0  0  0  0  0  0  0
   -4.4614   -1.0891    0.0000 C   0  0  0  0  0  0  0  0  0  0  0  0
   -2.8114   -1.0891    0.0000 C   0  0  0  0  0  0  0  0  0  0  0  0
   -3.2239   -1.8036    0.0000 C   0  0  0  0  0  0  0  0  0  0  0  0
   -4.0489   -1.8036    0.0000 C   0  0  0  0  0  0  0  0  0  0  0  0
    0.5207    1.4668    0.0000 C   0  0  0  0  0  0  0  0  0  0  0  0
   -0.2639    1.7217    0.0000 S   0  0  0  0  0  0  0  0  0  0  0  0
    1.2351    1.8793    0.0000 C   0  0  0  0  0  0  0  0  0  0  0  0
    1.9496    1.4668    0.0000 C   0  0  0  0  0  0  0  0  0  0  0  0
    2.6641    1.8793    0.0000 O   0  0  0  0  0  0  0  0  0  0  0  0
    1.2351   -0.5957    0.0000 O   0  0  0  0  0  0  0  0  0  0  0  0
    1.9496    0.6418    0.0000 N   0  0  0  0  0  0  0  0  0  0  0  0
    4.0930    1.8793    0.0000 C   0  0  0  0  0  0  0  0  0  0  0  0
  1 21  1  0
  1  3  1  0
  1  4  1  0
  2 27  1  0
  2 12  1  0
  3 27  1  0
  3 26  2  0
  4  6  2  0
  5  6  1  0
  5 14  1  0
  5 13  2  0
  6 22  1  0
  7  8  2  0
  7 28  1  0
  8  9  1  0
  9 12  2  0
 10 12  1  0
 10 28  2  0
 11 15  1  0
 11 18  1  0
 11 16  2  0
 14 15  1  0
 16 17  1  0
 17 20  2  0
 18 19  2  0
 19 20  1  0
 21 23  2  0
 21 22  1  0
 23 24  1  0
 24 25  2  0
 24 27  1  0
M  END
>  <DRUGBANK_ID>  (1) 
DB08561

>  <COMMON_NAME>  (1) 
BENZYL 6-BENZYL-5,7-DIOXO-6,7-DIHYDRO-5H-[1,3]THIAZOLO[3,2-C]PYRIMIDINE-2-CARBOXYLATE

$$$$
