TL6
     RDKit          2D

 13 13  0  0  0  0  0  0  0  0999 V2000
   -1.7153   -1.6900    0.0000 O   0  0  0  0  0  0  0  0  0  0  0  0
   -1.2304   -1.0226    0.0000 C   0  0  0  0  0  0  0  0  0  0  0  0
   -1.4854   -0.2380    0.0000 S   0  0  0  0  0  0  0  0  0  0  0  0
   -0.8179    0.2470    0.0000 C   0  0  0  0  0  0  0  0  0  0  0  0
   -1.3699    0.8601    0.0000 C   0  0  0  0  0  0  0  0  0  0  0  0
   -0.1505   -0.2380    0.0000 C   0  0  0  0  0  0  0  0  0  0  0  0
    0.6341    0.0170    0.0000 O   0  0  0  0  0  0  0  0  0  0  0  0
   -0.4054   -1.0226    0.0000 C   0  0  0  0  0  0  0  0  0  0  0  0
    0.0795   -1.6900    0.0000 C   0  0  0  0  0  0  0  0  0  0  0  0
   -0.2659    0.8601    0.0000 C   0  0  0  0  0  0  0  0  0  0  0  0
    0.5411    0.6885    0.0000 C   0  0  0  0  0  0  0  0  0  0  0  0
    1.0931    1.3016    0.0000 C   0  0  0  0  0  0  0  0  0  0  0  0
    0.8382    2.0862    0.0000 C   0  0  0  0  0  0  0  0  0  0  0  0
  1  2  2  0
  2  3  1  0
  2  8  1  0
  3  4  1  0
  4  5  1  1
  4  6  1  0
  4 10  1  0
  6  7  1  0
  6  8  2  0
  8  9  1  0
 10 11  2  0
 11 12  1  0
 12 13  2  0
M  END
>  <DRUGBANK_ID>  (1) 
DB08628

>  <COMMON_NAME>  (1) 
(5R)-5-[(1E)-BUTA-1,3-DIENYL]-4-HYDROXY-3,5-DIMETHYLTHIOPHEN-2(5H)-ONE

$$$$
