
     RDKit          2D

  6  5  0  0  0  0  0  0  0  0999 V2000
    0.8250    0.0000    0.0000 C   0  0  0  0  0  0  0  0  0  0  0  0
    1.2375   -0.7145    0.0000 S   0  0  0  0  0  0  0  0  0  0  0  0
    1.6500   -1.4289    0.0000 O   0  0  0  0  0  0  0  0  0  0  0  0
    1.9520   -0.3020    0.0000 O   0  0  0  0  0  0  0  0  0  0  0  0
    0.5230   -1.1270    0.0000 O   0  0  0  0  0  0  0  0  0  0  0  0
    0.0000    0.0000    0.0000 I   0  0  0  0  0  0  0  0  0  0  0  0
  1  2  1  0
  1  6  1  0
  2  3  2  0
  2  4  2  0
  2  5  1  0
M  END
>  <DRUGBANK_ID>  (1) 
DB13321

>  <COMMON_NAME>  (1) 
Methiodal

>  <CAS_NUMBER>  (1) 
143-47-5

>  <UNII>  (1) 
H20847G0I0

$$$$
