
     RDKit          2D

 20 23  0  0  0  0  0  0  0  0999 V2000
    2.0641    1.3465    0.0000 C   0  0  0  0  0  0  0  0  0  0  0  0
    2.0641    0.5230    0.0000 C   0  0  0  0  0  0  0  0  0  0  0  0
    1.3520    0.1113    0.0000 C   0  0  0  0  0  0  0  0  0  0  0  0
    0.6342    0.5230    0.0000 C   0  0  0  0  0  0  0  0  0  0  0  0
    1.3520    1.7582    0.0000 C   0  0  0  0  0  0  0  0  0  0  0  0
    0.6342    1.3465    0.0000 C   0  0  0  0  0  0  0  0  0  0  0  0
   -0.0779    1.7582    0.0000 C   0  0  0  0  0  0  0  0  0  0  0  0
   -0.7956    1.3465    0.0000 C   0  0  0  0  0  0  0  0  0  0  0  0
   -0.7956    0.5230    0.0000 C   0  0  0  0  0  0  0  0  0  0  0  0
   -1.5079    0.1113    0.0000 C   0  0  0  0  0  0  0  0  0  0  0  0
   -2.2979    0.3616    0.0000 C   0  0  0  0  0  0  0  0  0  0  0  0
   -2.7820   -0.3059    0.0000 C   0  0  0  0  0  0  0  0  0  0  0  0
   -2.2979   -0.9736    0.0000 C   0  0  0  0  0  0  0  0  0  0  0  0
   -1.5079   -0.7177    0.0000 C   0  0  0  0  0  0  0  0  0  0  0  0
   -1.6580   -1.5300    0.0000 C   0  0  0  0  0  0  0  0  0  0  0  0
   -0.7956   -1.1294    0.0000 C   0  0  0  0  0  0  0  0  0  0  0  0
   -0.0779   -0.7177    0.0000 C   0  0  0  0  0  0  0  0  0  0  0  0
   -0.0779    0.1113    0.0000 C   0  0  0  0  0  0  0  0  0  0  0  0
   -2.5538   -1.7582    0.0000 O   0  0  0  0  0  0  0  0  0  0  0  0
    2.7820    1.7582    0.0000 O   0  0  0  0  0  0  0  0  0  0  0  0
  1  2  1  0
  1  5  1  0
  1 20  2  0
  2  3  1  0
  4  3  1  6
  4  6  1  0
  4 18  1  0
  5  6  1  0
  6  7  2  0
  7  8  1  0
  9  8  1  6
  9 10  1  0
  9 18  1  0
 10 11  1  1
 10 14  1  0
 11 12  1  0
 12 13  1  0
 13 14  1  0
 13 19  2  0
 14 15  1  1
 14 16  1  0
 16 17  1  0
 18 17  1  1
M  END
>  <DRUGBANK_ID>  (1) 
DB01443

>  <COMMON_NAME>  (1) 
19-Nor-5-androstenedione

>  <CAS_NUMBER>  (1) 
19289-77-1

>  <UNII>  (1) 
585LQ9KZN8

>  <SYNONYMS>  (1) 
estr-5-ene-3,17-dione

$$$$
