
     RDKit          2D

  9  8  0  0  0  0  0  0  0  0999 V2000
    0.3081    0.3766    0.0000 P   0  0  0  0  0  0  0  0  0  0  0  0
   -0.4040    0.7840    0.0000 O   0  0  0  0  0  0  0  0  0  0  0  0
    0.3081   -0.4484    0.0000 O   0  0  0  0  0  0  0  0  0  0  0  0
    0.9620    0.8798    0.0000 O   0  0  0  0  0  0  0  0  0  0  0  0
   -0.2739   -0.2088    0.0000 S   0  0  0  0  0  0  0  0  0  0  0  0
   -1.1195    0.3732    0.0000 C   0  0  0  0  0  0  0  0  0  0  0  0
    1.0236   -0.8593    0.0000 C   0  0  0  0  0  0  0  0  0  0  0  0
   -1.8315    0.7840    0.0000 C   0  0  0  0  0  0  0  0  0  0  0  0
    1.0236   -1.6843    0.0000 C   0  0  0  0  0  0  0  0  0  0  0  0
  1  2  1  0
  1  3  1  0
  1  4  1  0
  1  5  2  0
  2  6  1  0
  3  7  1  0
  6  8  1  0
  7  9  1  0
M  END
>  <DRUGBANK_ID>  (1) 
DB07674

>  <COMMON_NAME>  (1) 
O,O-DIETHYL HYDROGEN THIOPHOSPHATE

>  <UNII>  (1) 
FND2ADQ374

$$$$
