
     RDKit          2D

  5  4  0  0  0  0  0  0  0  0999 V2000
   -0.3571    0.6187    0.0000 N   0  0  0  0  0  0  0  0  0  0  0  0
   -0.3571   -0.2062    0.0000 C   0  0  0  0  0  0  0  0  0  0  0  0
    0.3573   -0.6187    0.0000 N   0  0  0  0  0  0  0  0  0  0  0  0
   -1.0717   -0.6187    0.0000 N   0  0  0  0  0  0  0  0  0  0  0  0
    1.0718   -0.2062    0.0000 O   0  0  0  0  0  0  0  0  0  0  0  0
  2  1  2  0
  2  4  1  0
  3  2  1  0
  5  3  1  0
M  END
>  <DRUGBANK_ID>  (1) 
DB03770

>  <SECONDARY_ACCESSION_NUMBERS>  (1) 
EXPT01741

>  <COMMON_NAME>  (1) 
N-hydroxyguanidine

>  <CAS_NUMBER>  (1) 
13115-21-4

>  <UNII>  (1) 
8767F421T7

>  <SYNONYMS>  (1) 
Hydroxyguanidine

$$$$
