
     RDKit          2D

 11 12  0  0  0  0  0  0  0  0999 V2000
    0.5823   -0.8219    0.0000 C   0  0  0  0  0  0  0  0  0  0  0  0
   -0.1170   -1.2246    0.0000 C   0  0  0  0  0  0  0  0  0  0  0  0
   -0.8352   -0.8186    0.0000 C   0  0  0  0  0  0  0  0  0  0  0  0
   -0.8205   -0.0029    0.0000 C   0  0  0  0  0  0  0  0  0  0  0  0
   -1.3042    0.0084    0.0000 C   0  0  0  0  0  0  0  0  0  0  0  0
   -0.5897   -0.4040    0.0000 C   0  0  0  0  0  0  0  0  0  0  0  0
   -1.3042   -0.8166    0.0000 C   0  0  0  0  0  0  0  0  0  0  0  0
   -0.1212    0.3997    0.0000 C   0  0  0  0  0  0  0  0  0  0  0  0
   -0.1063    1.2246    0.0000 C   0  0  0  0  0  0  0  0  0  0  0  0
    0.5823   -0.0022    0.0000 C   0  0  0  0  0  0  0  0  0  0  0  0
    1.3042    0.3973    0.0000 O   0  0  0  0  0  0  0  0  0  0  0  0
  1 10  1  0
  2  1  1  0
  3  2  1  0
  4  8  1  0
  4  3  1  0
  6  8  1  0
  6  2  1  0
  6  5  1  0
  6  7  1  0
  8  9  1  0
 10  8  1  0
 10 11  1  0
M  END
>  <DRUGBANK_ID>  (1) 
DB11288

>  <COMMON_NAME>  (1) 
Borneol

>  <CAS_NUMBER>  (1) 
507-70-0

>  <UNII>  (1) 
M89NIB437X

>  <SYNONYMS>  (1) 
Borneo camphor; Bornyl alcohol; endo-1,7,7-trimethylbicyclo[2.2.1]heptan-2-ol; endo-2-bornanol; endo-2-camphanol; endo-2-hydroxycamphane; Sumatra camphor

$$$$
