
     RDKit          2D

 24 28  0  0  0  0  0  0  0  0999 V2000
   -1.4522   -0.3856    0.0000 C   0  0  0  0  0  0  0  0  0  0  0  0
   -2.1670    0.0267    0.0000 C   0  0  0  0  0  0  0  0  0  0  0  0
   -2.1670    0.8421    0.0000 C   0  0  0  0  0  0  0  0  0  0  0  0
   -1.4522    1.2544    0.0000 C   0  0  0  0  0  0  0  0  0  0  0  0
    1.3877    1.2544    0.0000 C   0  0  0  0  0  0  0  0  0  0  0  0
    2.1024    0.8421    0.0000 C   0  0  0  0  0  0  0  0  0  0  0  0
    2.1024    0.0267    0.0000 C   0  0  0  0  0  0  0  0  0  0  0  0
    1.9375   -0.7977    0.0000 C   0  0  0  0  0  0  0  0  0  0  0  0
    0.8381   -0.7977    0.0000 C   0  0  0  0  0  0  0  0  0  0  0  0
   -0.7468    0.8421    0.0000 C   0  0  0  0  0  0  0  0  0  0  0  0
    1.3877   -0.3856    0.0000 C   0  0  0  0  0  0  0  0  0  0  0  0
   -0.7468    0.0267    0.0000 C   0  0  0  0  0  0  0  0  0  0  0  0
    0.6731    0.8421    0.0000 C   0  0  0  0  0  0  0  0  0  0  0  0
   -0.0322   -0.3856    0.0000 C   0  0  0  0  0  0  0  0  0  0  0  0
    0.6731    0.0267    0.0000 C   0  0  0  0  0  0  0  0  0  0  0  0
   -2.8993   -0.3532    0.0000 O   0  0  0  0  0  0  0  0  0  0  0  0
   -1.4498   -1.0820    0.0000 C   0  0  0  0  0  0  0  0  0  0  0  0
   -0.0299   -1.2264    0.0000 C   0  0  0  0  0  0  0  0  0  0  0  0
    0.6994   -1.6448    0.0000 O   0  0  0  0  0  0  0  0  0  0  0  0
   -0.7570   -1.6489    0.0000 O   0  0  0  0  0  0  0  0  0  0  0  0
    2.4343   -1.4022    0.0000 C   0  0  0  0  0  0  0  0  0  0  0  0
   -0.7450    1.6489    0.0000 O   0  0  0  0  0  0  0  0  0  0  0  0
   -1.6739    0.3194    0.0000 C   0  0  0  0  0  0  0  0  0  0  0  0
   -1.0973    0.3675    0.0000 O   0  0  0  0  0  0  0  0  0  0  0  0
  1 12  1  0
  1 17  1  6
  1 23  1  0
  2  1  1  0
  2  3  1  0
  2 16  1  1
  3  4  1  0
 10  4  1  1
 13  5  1  6
  6  5  1  0
  7  6  1  1
  7 11  1  0
  7  8  1  0
  8  9  1  0
 10 22  1  0
 12 10  1  0
 13 10  1  0
 12 14  1  6
 14 18  1  1
 15 13  1  0
 15 14  1  0
 15 11  1  0
 15  9  1  1
 19 18  2  0
 20 18  1  0
 21  8  2  0
 23 22  1  0
 24 23  2  0
M  END
>  <DRUGBANK_ID>  (1) 
DB07815

>  <COMMON_NAME>  (1) 
Gibberellin A4

>  <CAS_NUMBER>  (1) 
468-44-0

>  <UNII>  (1) 
1360M56KLC

>  <SYNONYMS>  (1) 
2β,4a-dihydroxy-1-methyl-8-methylene-4aα,4bβ-gibbane-1α,10β-dicarboxylic acid, 1,4a-lactone; GA4; Gibberellin 4

$$$$
