
     RDKit          2D

 27 29  0  0  1  0  0  0  0  0999 V2000
    1.1269   -0.2062    0.0000 N   0  0  0  0  0  0  0  0  0  0  0  0
    1.1269    0.6187    0.0000 C   0  0  0  0  0  0  0  0  0  0  0  0
    1.8414   -0.6187    0.0000 C   0  0  0  0  0  0  0  0  0  0  0  0
    0.3019   -0.2062    0.0000 C   0  0  0  0  0  0  0  0  0  0  0  0
    0.3019    0.6187    0.0000 C   0  0  0  0  0  0  0  0  0  0  0  0
    1.8414    1.0312    0.0000 S   0  0  0  0  0  0  0  0  0  0  0  0
    2.5559   -0.2062    0.0000 C   0  0  0  0  0  0  0  0  0  0  0  0
    1.8414   -1.4437    0.0000 C   0  0  0  0  0  0  0  0  0  0  0  0
   -0.4124   -0.6187    0.0000 O   0  0  0  0  0  0  0  0  0  0  0  0
   -0.4124    1.0312    0.0000 N   0  0  0  0  0  0  0  0  0  0  0  0
    2.5559    0.6187    0.0000 C   0  0  0  0  0  0  0  0  0  0  0  0
    3.2703   -0.6187    0.0000 C   0  0  0  0  0  0  0  0  0  0  0  0
    2.5559   -1.8562    0.0000 O   0  0  0  0  0  0  0  0  0  0  0  0
    1.1269   -1.8562    0.0000 O   0  0  0  0  0  0  0  0  0  0  0  0
   -1.1269    0.6187    0.0000 C   0  0  0  0  0  0  0  0  0  0  0  0
    3.9848   -0.2062    0.0000 C   0  0  0  0  0  0  0  0  0  0  0  0
   -1.8414    1.0312    0.0000 C   0  0  0  0  0  0  0  0  0  0  0  0
   -1.1269   -0.2062    0.0000 O   0  0  0  0  0  0  0  0  0  0  0  0
   -1.8414    1.8562    0.0000 N   0  0  0  0  0  0  0  0  0  0  0  0
   -2.5559    0.6187    0.0000 C   0  0  0  0  0  0  0  0  0  0  0  0
   -3.2703    1.0312    0.0000 C   0  0  0  0  0  0  0  0  0  0  0  0
   -2.5559   -0.2062    0.0000 C   0  0  0  0  0  0  0  0  0  0  0  0
   -3.9848    0.6187    0.0000 C   0  0  0  0  0  0  0  0  0  0  0  0
   -3.2703   -0.6187    0.0000 C   0  0  0  0  0  0  0  0  0  0  0  0
   -3.9848   -0.2062    0.0000 C   0  0  0  0  0  0  0  0  0  0  0  0
   -4.6993   -0.6187    0.0000 O   0  0  0  0  0  0  0  0  0  0  0  0
    4.6993   -0.6187    0.0000 C   0  0  0  0  0  0  0  0  0  0  0  0
  2  1  1  0
  3  1  1  0
  4  1  1  0
  5  2  1  0
  5  4  1  0
  5 10  1  1
  2  6  1  1
  7  3  2  0
  8  3  1  0
  9  4  2  0
 11  6  1  0
 11  7  1  0
 12  7  1  0
 13  8  2  0
 14  8  1  0
 15 10  1  0
 16 12  2  3
 16 27  1  0
 17 15  1  0
 17 19  1  1
 18 15  2  0
 20 17  1  0
 21 20  2  0
 22 20  1  0
 23 21  1  0
 24 22  2  0
 25 23  2  0
 25 24  1  0
 26 25  1  0
M  END
>  <DRUGBANK_ID>  (1) 
DB01150

>  <SECONDARY_ACCESSION_NUMBERS>  (1) 
APRD00461

>  <COMMON_NAME>  (1) 
Cefprozil

>  <CAS_NUMBER>  (1) 
92665-29-7

>  <UNII>  (1) 
1M698F4H4E

>  <SYNONYMS>  (1) 
Cefprozil; Cefprozil anhydrous; Cefprozilo; Cefprozilum

$$$$
