
     RDKit          2D

 34 35  0  0  1  0  0  0  0  0999 V2000
   -3.9970    1.4936    0.0000 C   0  0  0  0  0  0  0  0  0  0  0  0
   -3.4450    0.8806    0.0000 C   0  0  0  0  0  0  0  0  0  0  0  0
   -2.6380    1.0521    0.0000 N   0  0  0  0  0  0  0  0  0  0  0  0
   -2.0860    0.4390    0.0000 C   0  0  0  0  0  0  0  0  0  0  0  0
   -1.2790    0.6105    0.0000 C   0  0  0  0  0  0  0  0  0  0  0  0
   -0.7270   -0.0026    0.0000 S   0  0  0  0  0  0  0  0  0  0  0  0
   -1.3401   -0.5546    0.0000 O   0  0  0  0  0  0  0  0  0  0  0  0
   -0.1139    0.5495    0.0000 O   0  0  0  0  0  0  0  0  0  0  0  0
   -0.1749   -0.6157    0.0000 N   0  0  0  0  0  0  0  0  0  0  0  0
    0.6320   -0.4441    0.0000 C   0  0  0  0  0  0  0  0  0  0  0  0
    1.1841   -1.0572    0.0000 C   0  0  0  0  0  0  0  0  0  0  0  0
    1.8515   -1.5422    0.0000 N   0  0  0  0  0  0  0  0  0  0  0  0
    1.5966   -2.3268    0.0000 N   0  0  0  0  0  0  0  0  0  0  0  0
    0.7716   -2.3268    0.0000 C   0  0  0  0  0  0  0  0  0  0  0  0
    0.5166   -1.5422    0.0000 S   0  0  0  0  0  0  0  0  0  0  0  0
    0.2866   -2.9942    0.0000 N   0  0  0  0  0  0  0  0  0  0  0  0
    0.6222   -3.7479    0.0000 C   0  0  0  0  0  0  0  0  0  0  0  0
    0.1373   -4.4153    0.0000 O   0  0  0  0  0  0  0  0  0  0  0  0
    1.4427   -3.8341    0.0000 C   0  0  0  0  0  0  0  0  0  0  0  0
    2.2632   -3.9204    0.0000 C   0  0  0  0  0  0  0  0  0  0  0  0
    1.3564   -4.6546    0.0000 C   0  0  0  0  0  0  0  0  0  0  0  0
    1.5289   -3.0137    0.0000 C   0  0  0  0  0  0  0  0  0  0  0  0
    2.6361   -1.2872    0.0000 C   0  0  0  0  0  0  0  0  0  0  0  0
    3.0486   -0.5728    0.0000 O   0  0  0  0  0  0  0  0  0  0  0  0
    3.2492   -1.8393    0.0000 C   0  0  0  0  0  0  0  0  0  0  0  0
    2.6972   -2.4524    0.0000 C   0  0  0  0  0  0  0  0  0  0  0  0
    3.8012   -1.2262    0.0000 C   0  0  0  0  0  0  0  0  0  0  0  0
    3.8623   -2.3913    0.0000 C   0  0  0  0  0  0  0  0  0  0  0  0
    1.7361   -0.4441    0.0000 C   0  0  0  0  0  0  0  0  0  0  0  0
    1.4812    0.3405    0.0000 C   0  0  0  0  0  0  0  0  0  0  0  0
    2.0332    0.9536    0.0000 C   0  0  0  0  0  0  0  0  0  0  0  0
    2.8402    0.7820    0.0000 C   0  0  0  0  0  0  0  0  0  0  0  0
    3.0951   -0.0026    0.0000 C   0  0  0  0  0  0  0  0  0  0  0  0
    2.5431   -0.6157    0.0000 C   0  0  0  0  0  0  0  0  0  0  0  0
  1  2  1  0
  2  3  1  0
  3  4  1  0
  4  5  1  0
  5  6  1  0
  6  7  2  0
  6  8  2  0
  6  9  1  0
  9 10  1  0
 11 10  1  6
 11 12  1  0
 11 15  1  0
 11 29  1  0
 12 13  1  0
 12 23  1  0
 13 14  2  0
 14 15  1  0
 14 16  1  0
 16 17  1  0
 17 18  2  0
 17 19  1  0
 19 20  1  0
 19 21  1  0
 19 22  1  0
 23 24  2  0
 23 25  1  0
 25 26  1  0
 25 27  1  0
 25 28  1  0
 29 30  2  0
 29 34  1  0
 30 31  1  0
 31 32  2  0
 32 33  1  0
 33 34  2  0
M  END
>  <DRUGBANK_ID>  (1) 
DB11861

>  <COMMON_NAME>  (1) 
Litronesib

>  <CAS_NUMBER>  (1) 
910634-41-2

>  <UNII>  (1) 
6611F8KYCV

>  <SYNONYMS>  (1) 
Litronesib

$$$$
