
     RDKit          2D

 14 15  0  0  0  0  0  0  0  0999 V2000
   -0.9799   -0.4501    0.0000 C   0  0  0  0  0  0  0  0  0  0  0  0
   -1.6465   -0.9327    0.0000 C   0  0  0  0  0  0  0  0  0  0  0  0
   -2.4025   -0.5993    0.0000 C   0  0  0  0  0  0  0  0  0  0  0  0
   -2.4871    0.2213    0.0000 C   0  0  0  0  0  0  0  0  0  0  0  0
   -1.8206    0.7088    0.0000 N   0  0  0  0  0  0  0  0  0  0  0  0
   -1.0644    0.3705    0.0000 C   0  0  0  0  0  0  0  0  0  0  0  0
   -0.3979    0.8581    0.0000 C   0  0  0  0  0  0  0  0  0  0  0  0
    0.3531    0.5197    0.0000 C   0  0  0  0  0  0  0  0  0  0  0  0
    1.0694    0.9327    0.0000 S   0  0  0  0  0  0  0  0  0  0  0  0
    0.5272   -0.2860    0.0000 C   0  0  0  0  0  0  0  0  0  0  0  0
   -0.0248   -0.8978    0.0000 O   0  0  0  0  0  0  0  0  0  0  0  0
    1.3430   -0.3705    0.0000 N   0  0  0  0  0  0  0  0  0  0  0  0
    1.6812    0.3805    0.0000 C   0  0  0  0  0  0  0  0  0  0  0  0
    2.4871    0.5546    0.0000 N   0  0  0  0  0  0  0  0  0  0  0  0
  1  2  2  0
  1  6  1  0
  2  3  1  0
  3  4  2  0
  4  5  1  0
  5  6  2  0
  6  7  1  0
  7  8  2  0
  8  9  1  0
  8 10  1  0
  9 13  1  0
 10 11  2  0
 10 12  1  0
 12 13  1  0
 13 14  2  0
M  END
>  <DRUGBANK_ID>  (1) 
DB07529

>  <COMMON_NAME>  (1) 
(5E)-2-Amino-5-(2-pyridinylmethylene)-1,3-thiazol-4(5H)-one

$$$$
