LJ3
     RDKit          2D

 15 16  0  0  0  0  0  0  0  0999 V2000
    1.8978    0.3019    0.0000 C   0  0  0  0  0  0  0  0  0  0  0  0
    2.6122   -0.1106    0.0000 C   0  0  0  0  0  0  0  0  0  0  0  0
    3.3267    0.3019    0.0000 Br  0  0  0  0  0  0  0  0  0  0  0  0
    2.6122   -0.9356    0.0000 C   0  0  0  0  0  0  0  0  0  0  0  0
    3.3267   -1.3481    0.0000 O   0  0  0  0  0  0  0  0  0  0  0  0
    1.8978   -1.3481    0.0000 C   0  0  0  0  0  0  0  0  0  0  0  0
    1.8978   -2.1731    0.0000 Br  0  0  0  0  0  0  0  0  0  0  0  0
    1.1833   -0.9356    0.0000 C   0  0  0  0  0  0  0  0  0  0  0  0
    1.1833   -0.1106    0.0000 C   0  0  0  0  0  0  0  0  0  0  0  0
    0.4688    0.3019    0.0000 C   0  0  0  0  0  0  0  0  0  0  0  0
   -0.2456   -0.1106    0.0000 C   0  0  0  0  0  0  0  0  0  0  0  0
   -0.9601    0.3019    0.0000 C   0  0  0  0  0  0  0  0  0  0  0  0
   -0.9601    1.1269    0.0000 C   0  0  0  0  0  0  0  0  0  0  0  0
   -0.2456    1.5394    0.0000 C   0  0  0  0  0  0  0  0  0  0  0  0
    0.4688    1.1269    0.0000 C   0  0  0  0  0  0  0  0  0  0  0  0
  1  2  2  0
  1  9  1  0
  2  3  1  0
  2  4  1  0
  4  5  1  0
  4  6  2  0
  6  7  1  0
  6  8  1  0
  8  9  2  0
  9 10  1  0
 10 11  2  0
 10 15  1  0
 11 12  1  0
 12 13  2  0
 13 14  1  0
 14 15  2  0
M  END
>  <DRUGBANK_ID>  (1) 
DB08102

>  <COMMON_NAME>  (1) 
3,5-dibromobiphenyl-4-ol

>  <UNII>  (1) 
X915771SGZ

$$$$
