IN7
     RDKit          2D

 26 28  0  0  0  0  0  0  0  0999 V2000
    0.3681    0.3486    0.0000 C   0  0  0  0  0  0  0  0  0  0  0  0
    0.3681    1.1736    0.0000 C   0  0  0  0  0  0  0  0  0  0  0  0
    1.0826    1.5861    0.0000 C   0  0  0  0  0  0  0  0  0  0  0  0
   -1.0608   -1.3014    0.0000 C   0  0  0  0  0  0  0  0  0  0  0  0
    1.0826   -0.0639    0.0000 C   0  0  0  0  0  0  0  0  0  0  0  0
    2.0991    2.3006    0.0000 O   0  0  0  0  0  0  0  0  0  0  0  0
    1.7971    1.1736    0.0000 C   0  0  0  0  0  0  0  0  0  0  0  0
    1.7971    0.3486    0.0000 C   0  0  0  0  0  0  0  0  0  0  0  0
    5.3694    1.5861    0.0000 O   0  0  0  0  0  0  0  0  0  0  0  0
    2.5116    1.5861    0.0000 S   0  0  0  0  0  0  0  0  0  0  0  0
   -1.7753   -0.8889    0.0000 C   0  0  0  0  0  0  0  0  0  0  0  0
   -1.7753   -0.0639    0.0000 C   0  0  0  0  0  0  0  0  0  0  0  0
   -1.0608    0.3486    0.0000 C   0  0  0  0  0  0  0  0  0  0  0  0
   -0.3463   -0.0639    0.0000 N   0  0  0  0  0  0  0  0  0  0  0  0
   -0.3463   -0.8889    0.0000 C   0  0  0  0  0  0  0  0  0  0  0  0
   -3.9187   -2.1264    0.0000 C   0  0  0  0  0  0  0  0  0  0  0  0
   -3.9187   -1.3014    0.0000 C   0  0  0  0  0  0  0  0  0  0  0  0
   -3.2042   -0.8889    0.0000 C   0  0  0  0  0  0  0  0  0  0  0  0
   -2.4897   -1.3014    0.0000 C   0  0  0  0  0  0  0  0  0  0  0  0
   -2.4897   -2.1264    0.0000 C   0  0  0  0  0  0  0  0  0  0  0  0
   -3.2042   -2.5389    0.0000 C   0  0  0  0  0  0  0  0  0  0  0  0
    2.9241    0.8716    0.0000 O   0  0  0  0  0  0  0  0  0  0  0  0
    3.2260    1.9986    0.0000 N   0  0  0  0  0  0  0  0  0  0  0  0
    3.9405    1.5861    0.0000 C   0  0  0  0  0  0  0  0  0  0  0  0
    4.6550    1.9986    0.0000 C   0  0  0  0  0  0  0  0  0  0  0  0
    4.6550    2.8236    0.0000 O   0  0  0  0  0  0  0  0  0  0  0  0
  1  2  2  0
  1  5  1  0
  1 14  1  0
  2  3  1  0
  3  7  2  0
  4 11  1  0
  4 15  1  0
  5  8  2  0
  6 10  2  0
  7  8  1  0
  7 10  1  0
  9 25  1  0
 10 22  2  0
 10 23  1  0
 11 12  1  0
 11 19  1  0
 12 13  1  0
 13 14  1  0
 14 15  1  0
 16 17  2  0
 16 21  1  0
 17 18  1  0
 18 19  2  0
 19 20  1  0
 20 21  2  0
 23 24  1  0
 24 25  1  0
 25 26  2  0
M  END
>  <DRUGBANK_ID>  (1) 
DB07986

>  <COMMON_NAME>  (1) 
[4-(4-PHENYL-PIPERIDIN-1-YL)-BENZENESULFONYLAMINO]-ACETIC ACID

$$$$
