
     RDKit          2D

 27 28  0  0  0  0  0  0  0  0999 V2000
    2.1434    1.2375    0.0000 C   0  0  0  0  0  0  0  0  0  0  0  0
    2.8579    0.8250    0.0000 O   0  0  0  0  0  0  0  0  0  0  0  0
    2.8579    0.0000    0.0000 C   0  0  0  0  0  0  0  0  0  0  0  0
    2.1434   -0.4125    0.0000 C   0  0  0  0  0  0  0  0  0  0  0  0
    2.1434   -1.2375    0.0000 C   0  0  0  0  0  0  0  0  0  0  0  0
    2.8579   -1.6500    0.0000 C   0  0  0  0  0  0  0  0  0  0  0  0
    3.5724   -1.2375    0.0000 C   0  0  0  0  0  0  0  0  0  0  0  0
    3.5724   -0.4125    0.0000 C   0  0  0  0  0  0  0  0  0  0  0  0
    4.2868    0.0000    0.0000 O   0  0  0  0  0  0  0  0  0  0  0  0
    4.2868    0.8250    0.0000 P   0  0  0  0  0  0  0  0  0  0  0  0
    5.1118    0.8250    0.0000 O   0  0  0  0  0  0  0  0  0  0  0  0
    4.2868    1.6500    0.0000 O   0  0  0  0  0  0  0  0  0  0  0  0
    3.4618    0.8250    0.0000 O   0  0  0  0  0  0  0  0  0  0  0  0
    2.8579   -2.4750    0.0000 C   0  0  0  0  0  0  0  0  0  0  0  0
    2.1434   -2.8875    0.0000 C   0  0  0  0  0  0  0  0  0  0  0  0
    1.4289   -2.4750    0.0000 C   0  0  0  0  0  0  0  0  0  0  0  0
    0.7145   -2.8875    0.0000 C   0  0  0  0  0  0  0  0  0  0  0  0
    0.0000   -2.4750    0.0000 C   0  0  0  0  0  0  0  0  0  0  0  0
    0.0000   -1.6500    0.0000 C   0  0  0  0  0  0  0  0  0  0  0  0
    0.7145   -1.2375    0.0000 C   0  0  0  0  0  0  0  0  0  0  0  0
    1.4289   -1.6500    0.0000 C   0  0  0  0  0  0  0  0  0  0  0  0
    0.7145   -0.4125    0.0000 O   0  0  0  0  0  0  0  0  0  0  0  0
    1.4289   -0.0000    0.0000 C   0  0  0  0  0  0  0  0  0  0  0  0
   -0.7145   -1.2375    0.0000 O   0  0  0  0  0  0  0  0  0  0  0  0
   -1.4289   -1.6500    0.0000 C   0  0  0  0  0  0  0  0  0  0  0  0
   -0.7145   -2.8875    0.0000 O   0  0  0  0  0  0  0  0  0  0  0  0
   -1.4289   -2.4750    0.0000 C   0  0  0  0  0  0  0  0  0  0  0  0
  1  2  1  0
  2  3  1  0
  3  4  2  0
  3  8  1  0
  4  5  1  0
  5  6  2  0
  6  7  1  0
  6 14  1  0
  7  8  2  0
  8  9  1  0
  9 10  1  0
 10 11  2  0
 10 12  1  0
 10 13  1  0
 14 15  2  0
 15 16  1  0
 16 17  2  0
 16 21  1  0
 17 18  1  0
 18 19  2  0
 18 26  1  0
 19 20  1  0
 19 24  1  0
 20 21  2  0
 20 22  1  0
 22 23  1  0
 24 25  1  0
 26 27  1  0
M  END
>  <DRUGBANK_ID>  (1) 
DB12577

>  <COMMON_NAME>  (1) 
Fosbretabulin

>  <CAS_NUMBER>  (1) 
222030-63-9

>  <UNII>  (1) 
I5590ES2QZ

>  <SYNONYMS>  (1) 
2-METHOXY-5-((Z)-2-(3,4,5-TRIMETHOXYPHENYL)VINYL)PHENYL DIHYDROGEN PHOSPHATE; Combretastatin A-4 phosphate; Combretastatin A4 phosphate; Fosbretabulin; PHENOL, 2-METHOXY-5-((1Z)-2-(3,4,5-TRIMETHOXYPHENYL)ETHENYL)-,1-(DIHYDROGEN PHOSPHATE); PHENOL, 2-METHOXY-5-((Z)-2-(3,4,5-TRIMETHOXYPHENYL)ETHENYL)-, DIHYDROGEN PHOSPHATE; Phosbretabulin

$$$$
