
     RDKit          2D

 21 23  0  0  1  0  0  0  0  0999 V2000
    4.7079   -0.4125    0.0000 C   0  0  0  0  0  0  0  0  0  0  0  0
    3.9934    0.8250    0.0000 C   0  0  0  0  0  0  0  0  0  0  0  0
    3.2789    1.2375    0.0000 C   0  0  0  0  0  0  0  0  0  0  0  0
    3.2789   -0.4125    0.0000 C   0  0  0  0  0  0  0  0  0  0  0  0
   -1.1801    1.8414    0.0000 C   0  0  0  0  0  0  0  0  0  0  0  0
    3.9934    0.0000    0.0000 C   0  0  0  0  0  0  0  0  0  0  0  0
    2.5645    0.8250    0.0000 C   0  0  0  0  0  0  0  0  0  0  0  0
    2.5645    0.0000    0.0000 C   0  0  0  0  0  0  0  0  0  0  0  0
   -0.7676    1.1270    0.0000 C   0  0  0  0  0  0  0  0  0  0  0  0
   -1.1801    0.4125    0.0000 C   0  0  0  0  0  0  0  0  0  0  0  0
   -0.7676   -0.3020    0.0000 C   0  0  0  0  0  0  0  0  0  0  0  0
    0.0574   -0.3020    0.0000 C   0  0  0  0  0  0  0  0  0  0  0  0
    0.4699    0.4125    0.0000 C   0  0  0  0  0  0  0  0  0  0  0  0
    1.2949    0.4125    0.0000 C   0  0  0  0  0  0  0  0  0  0  0  0
    1.7798    1.0799    0.0000 N   0  0  0  0  0  0  0  0  0  0  0  0
    1.7798   -0.2549    0.0000 N   0  0  0  0  0  0  0  0  0  0  0  0
   -2.0051    1.8414    0.0000 O   0  0  0  0  0  0  0  0  0  0  0  0
   -2.0051    0.4125    0.0000 O   0  0  0  0  0  0  0  0  0  0  0  0
   -1.1801   -1.0164    0.0000 O   0  0  0  0  0  0  0  0  0  0  0  0
    0.4699   -1.0164    0.0000 O   0  0  0  0  0  0  0  0  0  0  0  0
    0.0574    1.1270    0.0000 O   0  0  0  0  0  0  0  0  0  0  0  0
  3  2  2  0
  6  1  1  0
  6  2  1  0
  6  4  2  0
  7  3  1  0
  8  4  1  0
  8  7  2  0
  9  5  1  1
 10  9  1  0
 10 18  1  6
 11 10  1  0
 11 19  1  1
 12 11  1  0
 12 20  1  6
 13 12  1  0
 13 14  1  1
 15  7  1  0
 15 14  2  0
 16  8  1  0
 16 14  1  0
 17  5  1  0
 21  9  1  0
 21 13  1  0
M  END
>  <DRUGBANK_ID>  (1) 
DB03133

>  <SECONDARY_ACCESSION_NUMBERS>  (1) 
EXPT01871

>  <COMMON_NAME>  (1) 
2-(Beta-D-Glucopyranosyl)-5-Methyl-1,2,3-Benzimidazole

$$$$
