DYY
     RDKit          2D

 30 33  0  0  0  0  0  0  0  0999 V2000
    1.9214    0.4561    0.0000 C   0  0  0  0  0  0  0  0  0  0  0  0
    2.6358    0.8686    0.0000 C   0  0  0  0  0  0  0  0  0  0  0  0
    3.3503    0.4561    0.0000 O   0  0  0  0  0  0  0  0  0  0  0  0
    4.0648    0.8686    0.0000 C   0  0  0  0  0  0  0  0  0  0  0  0
    4.0648    1.6936    0.0000 C   0  0  0  0  0  0  0  0  0  0  0  0
    3.3503    2.1061    0.0000 O   0  0  0  0  0  0  0  0  0  0  0  0
    2.6358    1.6936    0.0000 C   0  0  0  0  0  0  0  0  0  0  0  0
    1.9214    2.1061    0.0000 C   0  0  0  0  0  0  0  0  0  0  0  0
    1.2069    1.6936    0.0000 C   0  0  0  0  0  0  0  0  0  0  0  0
    1.2069    0.8686    0.0000 C   0  0  0  0  0  0  0  0  0  0  0  0
    0.4924    0.4561    0.0000 S   0  0  0  0  0  0  0  0  0  0  0  0
    0.9049   -0.2584    0.0000 O   0  0  0  0  0  0  0  0  0  0  0  0
    0.0799    1.1706    0.0000 O   0  0  0  0  0  0  0  0  0  0  0  0
   -0.2220    0.0436    0.0000 N   0  0  0  0  0  0  0  0  0  0  0  0
   -0.2220   -0.7814    0.0000 C   0  0  0  0  0  0  0  0  0  0  0  0
   -0.9365   -1.1939    0.0000 C   0  0  0  0  0  0  0  0  0  0  0  0
   -0.9365    0.4561    0.0000 C   0  0  0  0  0  0  0  0  0  0  0  0
   -1.6510    0.0436    0.0000 C   0  0  0  0  0  0  0  0  0  0  0  0
   -1.6510   -0.7814    0.0000 N   0  0  0  0  0  0  0  0  0  0  0  0
   -2.3655   -1.1939    0.0000 S   0  0  0  0  0  0  0  0  0  0  0  0
   -2.7780   -0.4794    0.0000 O   0  0  0  0  0  0  0  0  0  0  0  0
   -1.9530   -1.9084    0.0000 O   0  0  0  0  0  0  0  0  0  0  0  0
   -3.0799   -1.6064    0.0000 C   0  0  0  0  0  0  0  0  0  0  0  0
   -3.7944   -1.1939    0.0000 C   0  0  0  0  0  0  0  0  0  0  0  0
   -3.7944   -0.3689    0.0000 F   0  0  0  0  0  0  0  0  0  0  0  0
   -4.5089   -1.6064    0.0000 C   0  0  0  0  0  0  0  0  0  0  0  0
   -4.5089   -2.4314    0.0000 C   0  0  0  0  0  0  0  0  0  0  0  0
   -3.7944   -2.8439    0.0000 C   0  0  0  0  0  0  0  0  0  0  0  0
   -3.0799   -2.4314    0.0000 C   0  0  0  0  0  0  0  0  0  0  0  0
   -2.3655   -2.8439    0.0000 F   0  0  0  0  0  0  0  0  0  0  0  0
  1 10  2  0
  2  1  1  0
  2  7  2  0
  3  2  1  0
  4  3  1  0
  5  4  1  0
  5  6  1  0
  6  7  1  0
  7  8  1  0
  8  9  2  0
 10  9  1  0
 10 11  1  0
 11 13  2  0
 12 11  2  0
 14 11  1  0
 14 15  1  0
 16 15  1  0
 17 14  1  0
 18 17  1  0
 18 19  1  0
 19 16  1  0
 20 19  1  0
 20 21  2  0
 20 23  1  0
 22 20  2  0
 23 29  1  0
 24 23  2  0
 24 26  1  0
 25 24  1  0
 26 27  2  0
 27 28  1  0
 29 28  2  0
 29 30  1  0
M  END
>  <DRUGBANK_ID>  (1) 
DB07692

>  <COMMON_NAME>  (1) 
1-[(2,6-difluorophenyl)sulfonyl]-4-(2,3-dihydro-1,4-benzodioxin-6-ylsulfonyl)piperazine

$$$$
