J80
     RDKit          2D

 29 31  0  0  0  0  0  0  0  0999 V2000
   -5.9350   -1.8285    0.0000 C   0  0  0  0  0  0  0  0  0  0  0  0
   -5.2205   -1.4160    0.0000 C   0  0  0  0  0  0  0  0  0  0  0  0
   -5.2205   -0.5910    0.0000 C   0  0  0  0  0  0  0  0  0  0  0  0
   -4.5061   -0.1785    0.0000 C   0  0  0  0  0  0  0  0  0  0  0  0
   -3.7916   -0.5910    0.0000 C   0  0  0  0  0  0  0  0  0  0  0  0
   -3.7916   -1.4160    0.0000 N   0  0  0  0  0  0  0  0  0  0  0  0
   -4.5061   -1.8285    0.0000 N   0  0  0  0  0  0  0  0  0  0  0  0
   -3.0771   -0.1785    0.0000 N   0  0  0  0  0  0  0  0  0  0  0  0
   -3.0771    0.6465    0.0000 C   0  0  0  0  0  0  0  0  0  0  0  0
   -2.3627    1.0590    0.0000 C   0  0  0  0  0  0  0  0  0  0  0  0
   -1.6482    0.6465    0.0000 C   0  0  0  0  0  0  0  0  0  0  0  0
   -1.6482   -0.1785    0.0000 C   0  0  0  0  0  0  0  0  0  0  0  0
   -2.3627   -0.5910    0.0000 C   0  0  0  0  0  0  0  0  0  0  0  0
   -0.9337    1.0590    0.0000 C   0  0  0  0  0  0  0  0  0  0  0  0
   -0.2192    0.6465    0.0000 C   0  0  0  0  0  0  0  0  0  0  0  0
    0.4952    1.0590    0.0000 C   0  0  0  0  0  0  0  0  0  0  0  0
    1.2097    0.6465    0.0000 C   0  0  0  0  0  0  0  0  0  0  0  0
    1.9242    1.0590    0.0000 O   0  0  0  0  0  0  0  0  0  0  0  0
    2.6386    0.6465    0.0000 C   0  0  0  0  0  0  0  0  0  0  0  0
    3.3531    1.0590    0.0000 C   0  0  0  0  0  0  0  0  0  0  0  0
    4.0676    0.6465    0.0000 C   0  0  0  0  0  0  0  0  0  0  0  0
    4.0676   -0.1785    0.0000 C   0  0  0  0  0  0  0  0  0  0  0  0
    3.3531   -0.5910    0.0000 C   0  0  0  0  0  0  0  0  0  0  0  0
    2.6386   -0.1785    0.0000 C   0  0  0  0  0  0  0  0  0  0  0  0
    4.7820   -0.5910    0.0000 C   0  0  0  0  0  0  0  0  0  0  0  0
    4.7820   -1.4160    0.0000 O   0  0  0  0  0  0  0  0  0  0  0  0
    5.4965   -0.1785    0.0000 O   0  0  0  0  0  0  0  0  0  0  0  0
    6.2110   -0.5910    0.0000 C   0  0  0  0  0  0  0  0  0  0  0  0
    6.9255   -0.1785    0.0000 C   0  0  0  0  0  0  0  0  0  0  0  0
  1  2  1  0
  2  3  2  0
  2  7  1  0
  3  4  1  0
  4  5  2  0
  5  6  1  0
  5  8  1  0
  6  7  2  0
  8  9  1  0
  8 13  1  0
  9 10  1  0
 10 11  1  0
 11 12  1  0
 11 14  1  0
 12 13  1  0
 14 15  1  0
 15 16  1  0
 16 17  1  0
 17 18  1  0
 18 19  1  0
 19 20  2  0
 19 24  1  0
 20 21  1  0
 21 22  2  0
 22 23  1  0
 22 25  1  0
 23 24  2  0
 25 26  2  0
 25 27  1  0
 27 28  1  0
 28 29  1  0
M  END
>  <DRUGBANK_ID>  (1) 
DB08014

>  <COMMON_NAME>  (1) 
(METHYLPYRIDAZINE PIPERIDINE BUTYLOXYPHENYL)ETHYLACETATE

$$$$
