
     RDKit          2D

 18 19  0  0  0  0  0  0  0  0999 V2000
   -1.6305   -2.7756    0.0000 O   0  0  0  0  0  0  0  0  0  0  0  0
   -2.3450   -1.5381    0.0000 O   0  0  0  0  0  0  0  0  0  0  0  0
   -0.2015    0.5243    0.0000 N   0  0  0  0  0  0  0  0  0  0  0  0
    0.5128    0.9368    0.0000 N   0  0  0  0  0  0  0  0  0  0  0  0
    0.9253    3.0313    0.0000 N   0  0  0  0  0  0  0  0  0  0  0  0
    0.1003    3.0313    0.0000 N   0  0  0  0  0  0  0  0  0  0  0  0
    1.9649    1.9918    0.0000 N   0  0  0  0  0  0  0  0  0  0  0  0
   -0.9392    1.9918    0.0000 N   0  0  0  0  0  0  0  0  0  0  0  0
   -0.2015   -0.3006    0.0000 C   0  0  0  0  0  0  0  0  0  0  0  0
   -0.9161   -0.7131    0.0000 C   0  0  0  0  0  0  0  0  0  0  0  0
   -0.9161   -1.5381    0.0000 C   0  0  0  0  0  0  0  0  0  0  0  0
    0.5128   -0.7131    0.0000 C   0  0  0  0  0  0  0  0  0  0  0  0
   -0.2015   -1.9506    0.0000 C   0  0  0  0  0  0  0  0  0  0  0  0
    0.5128   -1.5381    0.0000 C   0  0  0  0  0  0  0  0  0  0  0  0
    0.5128    1.7618    0.0000 C   0  0  0  0  0  0  0  0  0  0  0  0
    1.1802    2.2468    0.0000 C   0  0  0  0  0  0  0  0  0  0  0  0
   -0.1545    2.2468    0.0000 C   0  0  0  0  0  0  0  0  0  0  0  0
   -1.6305   -1.9506    0.0000 C   0  0  0  0  0  0  0  0  0  0  0  0
  1 18  1  0
  2 18  2  0
  3  4  1  0
  3  9  1  0
  4 15  2  3
  5  6  2  0
  5 16  1  0
  6 17  1  0
  7 16  2  0
  8 17  2  0
  9 10  2  0
  9 12  1  0
 10 11  1  0
 11 13  2  0
 11 18  1  0
 12 14  2  0
 13 14  1  0
 15 16  1  0
 15 17  1  0
M  END
>  <DRUGBANK_ID>  (1) 
DB08668

>  <COMMON_NAME>  (1) 
3-(5-Amino-3-imino-3H-pyrazol-4-ylazo)-benzoic acid

$$$$
