Malic acid.mol
     RDKit          2D

  9  8  0  0  0  0  0  0  0  0999 V2000
   -1.0717    0.2063    0.0000 C   0  0  0  0  0  0  0  0  0  0  0  0
   -0.3572   -0.2062    0.0000 C   0  0  0  0  0  0  0  0  0  0  0  0
   -0.3572   -1.0313    0.0000 O   0  0  0  0  0  0  0  0  0  0  0  0
    0.3572    0.2063    0.0000 C   0  0  0  0  0  0  0  0  0  0  0  0
    1.0717   -0.2062    0.0000 C   0  0  0  0  0  0  0  0  0  0  0  0
   -1.0717    1.0313    0.0000 O   0  0  0  0  0  0  0  0  0  0  0  0
   -1.7862   -0.2062    0.0000 O   0  0  0  0  0  0  0  0  0  0  0  0
    1.0717   -1.0312    0.0000 O   0  0  0  0  0  0  0  0  0  0  0  0
    1.7862    0.2063    0.0000 O   0  0  0  0  0  0  0  0  0  0  0  0
  1  2  1  0
  1  6  2  0
  1  7  1  0
  2  3  1  0
  2  4  1  0
  4  5  1  0
  5  8  2  0
  5  9  1  0
M  END
>  <DRUGBANK_ID>  (1) 
DB12751

>  <COMMON_NAME>  (1) 
Malic acid

>  <CAS_NUMBER>  (1) 
6915-15-7

>  <UNII>  (1) 
817L1N4CKP

>  <SYNONYMS>  (1) 
Malic acid

$$$$
