
     RDKit          2D

 11 10  0  0  0  0  0  0  0  0999 V2000
   -0.3572   -0.2062    0.0000 S   0  0  0  0  0  0  0  0  0  0  0  0
    1.0716   -0.2062    0.0000 C   0  0  0  0  0  0  0  0  0  0  0  0
    0.3572    0.2062    0.0000 C   0  0  0  0  0  0  0  0  0  0  0  0
    1.7861    0.2062    0.0000 S   0  0  0  0  0  0  0  0  0  0  0  0
    2.5006   -0.2062    0.0000 O   0  0  0  0  0  0  0  0  0  0  0  0
    1.7861    1.0312    0.0000 O   0  0  0  0  0  0  0  0  0  0  0  0
   -1.0717    0.2062    0.0000 C   0  0  0  0  0  0  0  0  0  0  0  0
   -1.7861   -0.2062    0.0000 C   0  0  0  0  0  0  0  0  0  0  0  0
   -1.7861   -1.0312    0.0000 O   0  0  0  0  0  0  0  0  0  0  0  0
   -2.5006    0.2062    0.0000 C   0  0  0  0  0  0  0  0  0  0  0  0
    2.5006    0.6187    0.0000 O   0  0  0  0  0  0  0  0  0  0  0  0
  1  3  1  0
  3  2  1  0
  4  2  1  0
  4 11  1  0
  5  4  2  0
  6  4  2  0
  7  1  1  0
  8  7  1  0
  8  9  2  0
  8 10  1  0
M  END
>  <DRUGBANK_ID>  (1) 
DB03163

>  <SECONDARY_ACCESSION_NUMBERS>  (1) 
EXPT01980

>  <COMMON_NAME>  (1) 
2-oxopropyl-CoM

>  <SYNONYMS>  (1) 
2-(2-Oxopropylthio)ethanesulfonate; 2-[(2-Oxopropyl)sulfanyl]ethanesulfonic acid; 2-ketopropyl-CoM

$$$$
