
     RDKit          2D

 13 13  0  0  1  0  0  0  0  0999 V2000
    0.0000    0.8251    0.0000 C   0  0  0  0  0  0  0  0  0  0  0  0
    0.7144    0.4125    0.0000 C   0  0  0  0  0  0  0  0  0  0  0  0
   -0.7145    0.4125    0.0000 C   0  0  0  0  0  0  0  0  0  0  0  0
   -1.4290   -0.8250    0.0000 C   0  0  0  0  0  0  0  0  0  0  0  0
   -2.1435   -0.4124    0.0000 C   0  0  0  0  0  0  0  0  0  0  0  0
   -2.1435    0.4125    0.0000 C   0  0  0  0  0  0  0  0  0  0  0  0
   -1.4290    0.8251    0.0000 C   0  0  0  0  0  0  0  0  0  0  0  0
   -0.7145   -0.4124    0.0000 C   0  0  0  0  0  0  0  0  0  0  0  0
    0.7144   -0.4124    0.0000 N   0  0  0  0  0  0  0  0  0  0  0  0
    1.4289    0.8251    0.0000 C   0  0  0  0  0  0  0  0  0  0  0  0
    2.1435    0.4125    0.0000 O   0  0  0  0  0  0  0  0  0  0  0  0
    1.4289    1.6500    0.0000 O   0  0  0  0  0  0  0  0  0  0  0  0
   -1.4290   -1.6500    0.0000 O   0  0  0  0  0  0  0  0  0  0  0  0
  1  2  1  0
  2 10  1  0
  2  9  1  1
  3  1  1  0
  3  7  2  0
  3  8  1  0
  4  8  2  0
  4 13  1  0
  5  4  1  0
  6  5  2  0
  7  6  1  0
 11 10  1  0
 12 10  2  0
M  END
>  <DRUGBANK_ID>  (1) 
DB03552

>  <SECONDARY_ACCESSION_NUMBERS>  (1) 
EXPT01333; EXPT02254; DB02387

>  <COMMON_NAME>  (1) 
3-Tyrosine

>  <CAS_NUMBER>  (1) 
587-33-7

>  <UNII>  (1) 
D5YF57V4QW

>  <SYNONYMS>  (1) 
3-(m-Hydroxyphenyl)alanine; 3-Hydroxy-L-phenylalanine; 3-Hydroxyphenylalanine; L-m-Tyr; L-m-Tyrosine; L-mTyr; m-L-Tyrosine; m-tyrosine; meta-tyrosine

$$$$
