LZ9
     RDKit          2D

 26 28  0  0  0  0  0  0  0  0999 V2000
   16.6675    7.5235    0.0000 F   0  0  0  0  0  0  0  0  0  0  0  0
   16.6675    6.6985    0.0000 C   0  0  0  0  0  0  0  0  0  0  0  0
   17.3820    6.2860    0.0000 C   0  0  0  0  0  0  0  0  0  0  0  0
   17.3820    5.4610    0.0000 C   0  0  0  0  0  0  0  0  0  0  0  0
   16.6675    5.0485    0.0000 C   0  0  0  0  0  0  0  0  0  0  0  0
   16.6675    4.2235    0.0000 N   0  0  0  0  0  0  0  0  0  0  0  0
   15.9531    3.8110    0.0000 C   0  0  0  0  0  0  0  0  0  0  0  0
   15.2386    4.2235    0.0000 O   0  0  0  0  0  0  0  0  0  0  0  0
   15.9531    2.9860    0.0000 C   0  0  0  0  0  0  0  0  0  0  0  0
   16.6205    2.5011    0.0000 N   0  0  0  0  0  0  0  0  0  0  0  0
   16.3656    1.7165    0.0000 N   0  0  0  0  0  0  0  0  0  0  0  0
   15.5406    1.7165    0.0000 C   0  0  0  0  0  0  0  0  0  0  0  0
   15.2856    2.5011    0.0000 C   0  0  0  0  0  0  0  0  0  0  0  0
   14.5010    2.7560    0.0000 N   0  0  0  0  0  0  0  0  0  0  0  0
   13.8879    2.2040    0.0000 C   0  0  0  0  0  0  0  0  0  0  0  0
   14.0594    1.3970    0.0000 O   0  0  0  0  0  0  0  0  0  0  0  0
   13.1033    2.4589    0.0000 C   0  0  0  0  0  0  0  0  0  0  0  0
   12.4902    1.9069    0.0000 C   0  0  0  0  0  0  0  0  0  0  0  0
   12.6617    1.0999    0.0000 F   0  0  0  0  0  0  0  0  0  0  0  0
   11.7056    2.1618    0.0000 C   0  0  0  0  0  0  0  0  0  0  0  0
   11.5340    2.9688    0.0000 C   0  0  0  0  0  0  0  0  0  0  0  0
   12.1471    3.5209    0.0000 C   0  0  0  0  0  0  0  0  0  0  0  0
   12.9318    3.2659    0.0000 C   0  0  0  0  0  0  0  0  0  0  0  0
   13.5448    3.8179    0.0000 F   0  0  0  0  0  0  0  0  0  0  0  0
   15.9531    5.4610    0.0000 C   0  0  0  0  0  0  0  0  0  0  0  0
   15.9531    6.2860    0.0000 C   0  0  0  0  0  0  0  0  0  0  0  0
  1  2  1  0
  2  3  2  0
  2 26  1  0
  3  4  1  0
  4  5  2  0
  5  6  1  0
  5 25  1  0
  6  7  1  0
  7  8  2  0
  7  9  1  0
  9 10  2  0
  9 13  1  0
 10 11  1  0
 11 12  1  0
 12 13  2  0
 13 14  1  0
 14 15  1  0
 15 16  2  0
 15 17  1  0
 17 18  2  0
 17 23  1  0
 18 19  1  0
 18 20  1  0
 20 21  2  0
 21 22  1  0
 22 23  2  0
 23 24  1  0
 25 26  2  0
M  END
>  <DRUGBANK_ID>  (1) 
DB08138

>  <COMMON_NAME>  (1) 
{[(2,6-difluorophenyl)carbonyl]amino}-N-(4-fluorophenyl)-1H-pyrazole-3-carboxamide

$$$$
