
     RDKit          2D

 17 17  0  0  0  0  0  0  0  0999 V2000
   -2.5265    0.1433    0.0000 C   0  0  0  0  0  0  0  0  0  0  0  0
    1.0786   -0.2210    0.0000 O   0  0  0  0  0  0  0  0  0  0  0  0
   -2.5507    0.9741    0.0000 O   0  0  0  0  0  0  0  0  0  0  0  0
    1.8073    0.2016    0.0000 C   0  0  0  0  0  0  0  0  0  0  0  0
   -1.7976   -0.2599    0.0000 O   0  0  0  0  0  0  0  0  0  0  0  0
    2.5215   -0.2064    0.0000 C   0  0  0  0  0  0  0  0  0  0  0  0
   -3.2357   -0.2891    0.0000 N   0  0  0  0  0  0  0  0  0  0  0  0
   -0.3547   -0.2356    0.0000 C   0  0  0  0  0  0  0  0  0  0  0  0
    0.3498    0.1870    0.0000 C   0  0  0  0  0  0  0  0  0  0  0  0
   -1.0834    0.1627    0.0000 C   0  0  0  0  0  0  0  0  0  0  0  0
    2.5215   -1.0373    0.0000 O   0  0  0  0  0  0  0  0  0  0  0  0
   -0.3352   -1.0810    0.0000 O   0  0  0  0  0  0  0  0  0  0  0  0
    1.8073    1.0324    0.0000 C   0  0  0  0  0  0  0  0  0  0  0  0
    3.2357    0.2016    0.0000 C   0  0  0  0  0  0  0  0  0  0  0  0
    1.8073   -1.4454    0.0000 C   0  0  0  0  0  0  0  0  0  0  0  0
    2.5215    1.4454    0.0000 C   0  0  0  0  0  0  0  0  0  0  0  0
    3.2357    1.0373    0.0000 C   0  0  0  0  0  0  0  0  0  0  0  0
  2  9  1  0
  3  1  2  0
  4  2  1  0
  5  1  1  0
  6  4  2  0
  7  1  1  0
  8 10  1  0
  9  8  1  0
 10  5  1  0
 11  6  1  0
 12  8  1  0
 13  4  1  0
 14  6  1  0
 15 11  1  0
 16 13  2  0
 17 16  1  0
 17 14  2  0
M  END
>  <DRUGBANK_ID>  (1) 
DB00423

>  <SECONDARY_ACCESSION_NUMBERS>  (1) 
APRD01102

>  <COMMON_NAME>  (1) 
Methocarbamol

>  <CAS_NUMBER>  (1) 
532-03-6

>  <UNII>  (1) 
125OD7737X

>  <SYNONYMS>  (1) 
(RS)-2-hydroxy-3-(2-methoxyphenoxy)propyl carbamate; Methocarbamol; MÃ©thocarbamol; Methocarbamolum; Metocarbamol; Metocarbamolo

$$$$
