
     RDKit          2D

 16 16  0  0  0  0  0  0  0  0999 V2000
   -2.4750    2.1434    0.0000 C   0  0  0  0  0  0  0  0  0  0  0  0
   -1.6500    2.1434    0.0000 C   0  0  0  0  0  0  0  0  0  0  0  0
   -1.2375    1.4289    0.0000 N   0  0  0  0  0  0  0  0  0  0  0  0
   -1.6500    0.7144    0.0000 C   0  0  0  0  0  0  0  0  0  0  0  0
   -2.4750    0.7144    0.0000 C   0  0  0  0  0  0  0  0  0  0  0  0
   -0.4125    1.4289    0.0000 C   0  0  0  0  0  0  0  0  0  0  0  0
    0.0000    2.1434    0.0000 O   0  0  0  0  0  0  0  0  0  0  0  0
    0.0000    0.7144    0.0000 C   0  0  0  0  0  0  0  0  0  0  0  0
    0.8250    0.7144    0.0000 S   0  0  0  0  0  0  0  0  0  0  0  0
    1.2375    0.0000    0.0000 C   0  0  0  0  0  0  0  0  0  0  0  0
    2.0625    0.0000    0.0000 C   0  0  0  0  0  0  0  0  0  0  0  0
    2.4750   -0.7144    0.0000 C   0  0  0  0  0  0  0  0  0  0  0  0
    2.0625   -1.4289    0.0000 C   0  0  0  0  0  0  0  0  0  0  0  0
    1.2375   -1.4289    0.0000 N   0  0  0  0  0  0  0  0  0  0  0  0
    0.8250   -0.7144    0.0000 N   0  0  0  0  0  0  0  0  0  0  0  0
    2.4750   -2.1434    0.0000 Cl  0  0  0  0  0  0  0  0  0  0  0  0
  1  2  1  0
  2  3  1  0
  3  4  1  0
  3  6  1  0
  4  5  1  0
  6  7  2  0
  6  8  1  0
  8  9  1  0
  9 10  1  0
 10 11  2  0
 10 15  1  0
 11 12  1  0
 12 13  2  0
 13 14  1  0
 13 16  1  0
 14 15  2  0
M  END
>  <DRUGBANK_ID>  (1) 
DB13992

>  <COMMON_NAME>  (1) 
Azintamide

>  <CAS_NUMBER>  (1) 
1830-32-6

>  <UNII>  (1) 
ACZ6L64B41

>  <SYNONYMS>  (1) 
Azintamid; Azintamida; Azintamide; Azintamidum; Oragallin

$$$$
