
     RDKit          2D

  1  0  0  0  0  0  0  0  0  0999 V2000
    0.0000    0.0000    0.0000 Au  0  0  0  0  0 15  0  0  0  0  0  0
M  CHG  1   1   1
M  END
>  <DRUGBANK_ID>  (1) 
DB14534

>  <COMMON_NAME>  (1) 
Gold cation (1+)

>  <CAS_NUMBER>  (1) 
20681-14-5

>  <UNII>  (1) 
3D8CUH9F21

>  <SYNONYMS>  (1) 
Au+; Au1+; Gold (Au1+); Gold ion(1+); Gold, ion (Au1+); Gold(1+); Gold(1+) ion

$$$$
