RIN
     RDKit          2D

 15 15  0  0  0  0  0  0  0  0999 V2000
    2.5575    0.3947    0.0000 N   0  0  0  0  0  0  0  0  0  0  0  0
    1.8116    0.0421    0.0000 C   0  0  0  0  0  0  0  0  0  0  0  0
    1.6585   -0.7685    0.0000 C   0  0  0  0  0  0  0  0  0  0  0  0
    0.8402   -0.8734    0.0000 C   0  0  0  0  0  0  0  0  0  0  0  0
    0.2224   -1.5317    0.0000 C   0  0  0  0  0  0  0  0  0  0  0  0
   -0.5883   -1.3785    0.0000 C   0  0  0  0  0  0  0  0  0  0  0  0
   -0.8610   -0.5999    0.0000 C   0  0  0  0  0  0  0  0  0  0  0  0
   -1.6717   -0.4468    0.0000 C   0  0  0  0  0  0  0  0  0  0  0  0
   -1.9444    0.3318    0.0000 C   0  0  0  0  0  0  0  0  0  0  0  0
   -1.4065    0.9573    0.0000 C   0  0  0  0  0  0  0  0  0  0  0  0
   -0.5958    0.8042    0.0000 C   0  0  0  0  0  0  0  0  0  0  0  0
   -0.0579    1.4297    0.0000 C   0  0  0  0  0  0  0  0  0  0  0  0
    0.7528    1.2765    0.0000 N   0  0  0  0  0  0  0  0  0  0  0  0
    1.0880    0.4383    0.0000 C   0  0  0  0  0  0  0  0  0  0  0  0
    0.4705   -0.1089    0.0000 O   0  0  0  0  0  0  0  0  0  0  0  0
  2  1  1  1
  2  3  1  0
  2 14  1  0
  3  4  1  0
  4  5  1  0
  5  6  1  0
  6  7  1  0
  7  8  1  0
  8  9  1  0
  9 10  1  0
 10 11  1  0
 11 12  1  0
 12 13  1  0
 13 14  1  0
 14 15  2  0
M  END
>  <DRUGBANK_ID>  (1) 
DB08476

>  <COMMON_NAME>  (1) 
3-AMINO-AZACYCLOTRIDECAN-2-ONE

$$$$
