
     RDKit          2D

 10  9  0  0  0  0  0  0  0  0999 V2000
   -1.4289    0.1650    0.0000 C   0  0  0  0  0  0  0  0  0  0  0  0
   -0.7145   -0.2475    0.0000 C   0  0  0  0  0  0  0  0  0  0  0  0
    0.0000    0.1650    0.0000 C   0  0  0  0  0  0  0  0  0  0  0  0
    0.7145   -0.2475    0.0000 C   0  0  0  0  0  0  0  0  0  0  0  0
    1.4289    0.1650    0.0000 C   0  0  0  0  0  0  0  0  0  0  0  0
    0.0000   -1.4850    0.0000 C   0  0  0  0  0  0  0  0  0  0  0  0
    0.0000   -2.3100    0.0000 C   0  0  0  0  0  0  0  0  0  0  0  0
    0.7145   -1.0725    0.0000 C   0  0  0  0  0  0  0  0  0  0  0  0
    2.1434   -0.2475    0.0000 O   0  0  0  0  0  0  0  0  0  0  0  0
    1.4289    0.9900    0.0000 O   0  0  0  0  0  0  0  0  0  0  0  0
  2  1  1  0
  2  3  1  0
  3  4  1  0
  4  8  1  0
  4  5  1  0
  5  9  1  0
  5 10  2  0
  6  7  1  0
  6  8  1  0
M  END
>  <DRUGBANK_ID>  (1) 
DB00313

>  <SECONDARY_ACCESSION_NUMBERS>  (1) 
APRD00256; DB00510; APRD00066

>  <COMMON_NAME>  (1) 
Valproic acid

>  <CAS_NUMBER>  (1) 
99-66-1

>  <UNII>  (1) 
614OI1Z5WI

>  <SYNONYMS>  (1) 
2-n-propyl-n-valeric acid; 2-propyl-pentanoic acid; 2-Propylpentanoic Acid; 2-Propylvaleric Acid; 4-heptanecarboxylic acid; acide valproïque; ácido valproico; acidum valproicum; di-n-propylacetic acid; Di-n-propylessigsäure; Dipropylacetic acid; DPA; n-DPA; Valproate; Valproic acid; Valproinsäure; VPA

$$$$
