
     RDKit          2D

 26 27  0  0  1  0  0  0  0  0999 V2000
   -3.5713    0.4110    0.0000 C   0  0  0  0  0  0  0  0  0  0  0  0
   -3.5725   -0.4163    0.0000 C   0  0  0  0  0  0  0  0  0  0  0  0
   -2.8576   -0.8291    0.0000 C   0  0  0  0  0  0  0  0  0  0  0  0
   -2.1412   -0.4158    0.0000 C   0  0  0  0  0  0  0  0  0  0  0  0
   -2.1441    0.4146    0.0000 C   0  0  0  0  0  0  0  0  0  0  0  0
   -2.8594    0.8238    0.0000 C   0  0  0  0  0  0  0  0  0  0  0  0
   -2.8619    1.6488    0.0000 O   0  0  0  0  0  0  0  0  0  0  0  0
   -4.2859    0.8233    0.0000 O   0  0  0  0  0  0  0  0  0  0  0  0
   -1.4261   -0.8272    0.0000 C   0  0  0  0  0  0  0  0  0  0  0  0
   -0.7123   -0.4135    0.0000 C   0  0  0  0  0  0  0  0  0  0  0  0
    0.0028   -0.8249    0.0000 C   0  0  0  0  0  0  0  0  0  0  0  0
   -0.7136    0.4114    0.0000 O   0  0  0  0  0  0  0  0  0  0  0  0
    0.0041   -1.6500    0.0000 O   0  0  0  0  0  0  0  0  0  0  0  0
    0.0002    0.8250    0.0000 C   0  0  0  0  0  0  0  0  0  0  0  0
   -0.0010    1.6500    0.0000 O   0  0  0  0  0  0  0  0  0  0  0  0
    0.7153    0.4136    0.0000 C   0  0  0  0  0  0  0  0  0  0  0  0
    0.7166   -0.4113    0.0000 O   0  0  0  0  0  0  0  0  0  0  0  0
    1.4291    0.8272    0.0000 C   0  0  0  0  0  0  0  0  0  0  0  0
    2.1442    0.4158    0.0000 C   0  0  0  0  0  0  0  0  0  0  0  0
    2.1410   -0.4067    0.0000 C   0  0  0  0  0  0  0  0  0  0  0  0
    2.8553   -0.8180    0.0000 C   0  0  0  0  0  0  0  0  0  0  0  0
    3.5701   -0.4043    0.0000 C   0  0  0  0  0  0  0  0  0  0  0  0
    3.5662    0.4249    0.0000 C   0  0  0  0  0  0  0  0  0  0  0  0
    2.8513    0.8324    0.0000 C   0  0  0  0  0  0  0  0  0  0  0  0
    4.2785    0.8410    0.0000 O   0  0  0  0  0  0  0  0  0  0  0  0
    4.2859   -0.8147    0.0000 O   0  0  0  0  0  0  0  0  0  0  0  0
  1  2  2  0
  1  8  1  0
  2  3  1  0
  3  4  2  0
  4  9  1  0
  4  5  1  0
  5  6  2  0
  6  7  1  0
  6  1  1  0
 10  9  1  1
 10 11  1  0
 10 12  1  0
 11 13  2  0
 11 17  1  0
 12 14  1  0
 14 15  2  0
 14 16  1  0
 16 18  2  0
 18 19  1  0
 19 20  2  0
 20 21  1  0
 21 22  2  0
 22 23  1  0
 22 26  1  0
 23 24  2  0
 23 25  1  0
 24 19  1  0
M  END
>  <DRUGBANK_ID>  (1) 
DB16865

>  <COMMON_NAME>  (1) 
Rosmarinic acid

>  <CAS_NUMBER>  (1) 
20283-92-5

>  <UNII>  (1) 
MQE6XG29YI

>  <SYNONYMS>  (1) 
Labiatenic acid; Labiatic acid; Rosemary acid

$$$$
