
     RDKit          2D

 20 19  0  0  1  0  0  0  0  0999 V2000
    6.3789   -2.0329    0.0000 O   0  0  0  0  0  0  0  0  0  0  0  0
    6.3789   -2.8579    0.0000 C   0  0  0  0  0  0  0  0  0  0  0  0
    5.6645   -3.2704    0.0000 C   0  0  0  0  0  0  0  0  0  0  0  0
    4.9500   -2.8579    0.0000 O   0  0  0  0  0  0  0  0  0  0  0  0
    4.2355   -3.2704    0.0000 P   0  0  0  0  0  0  0  0  0  0  0  0
    3.5211   -3.6829    0.0000 O   0  0  0  0  0  0  0  0  0  0  0  0
    4.6480   -3.9849    0.0000 O   0  0  0  0  0  0  0  0  0  0  0  0
    3.8230   -2.5559    0.0000 O   0  0  0  0  0  0  0  0  0  0  0  0
    7.0934   -3.2704    0.0000 C   0  0  0  0  0  0  0  0  0  0  0  0
    7.0934   -4.0954    0.0000 O   0  0  0  0  0  0  0  0  0  0  0  0
    7.8079   -2.8579    0.0000 C   0  0  0  0  0  0  0  0  0  0  0  0
    7.8079   -2.0329    0.0000 O   0  0  0  0  0  0  0  0  0  0  0  0
    8.5224   -3.2704    0.0000 C   0  0  0  0  0  0  0  0  0  0  0  0
    8.5224   -4.0954    0.0000 O   0  0  0  0  0  0  0  0  0  0  0  0
    9.2368   -2.8579    0.0000 C   0  0  0  0  0  0  0  0  0  0  0  0
    9.9513   -3.2704    0.0000 O   0  0  0  0  0  0  0  0  0  0  0  0
   10.6658   -2.8579    0.0000 P   0  0  0  0  0  0  0  0  0  0  0  0
   11.3802   -2.4454    0.0000 O   0  0  0  0  0  0  0  0  0  0  0  0
   11.0783   -3.5724    0.0000 O   0  0  0  0  0  0  0  0  0  0  0  0
   10.2533   -2.1434    0.0000 O   0  0  0  0  0  0  0  0  0  0  0  0
  2  1  1  1
  2  3  1  0
  2  9  1  0
  3  4  1  0
  4  5  1  0
  5  6  1  0
  5  7  1  0
  5  8  2  0
  9 10  1  1
  9 11  1  0
 11 12  1  6
 11 13  1  0
 13 14  2  0
 13 15  1  0
 15 16  1  0
 16 17  1  0
 17 18  1  0
 17 19  1  0
 17 20  2  0
M  END
>  <DRUGBANK_ID>  (1) 
DB02512

>  <SECONDARY_ACCESSION_NUMBERS>  (1) 
EXPT00120

>  <COMMON_NAME>  (1) 
1,6-Fructose Diphosphate (Linear Form)

$$$$
