
     RDKit          2D

 20 23  0  0  0  0  0  0  0  0999 V2000
   -0.1343   -0.6297    0.0000 N   0  0  0  0  0  0  0  0  0  0  0  0
   -1.4814   -1.5635    0.0000 N   0  0  0  0  0  0  0  0  0  0  0  0
    1.1753   -0.8565    0.0000 N   0  0  0  0  0  0  0  0  0  0  0  0
   -0.8480   -0.2860    0.0000 C   0  0  0  0  0  0  0  0  0  0  0  0
   -1.5368   -0.7404    0.0000 C   0  0  0  0  0  0  0  0  0  0  0  0
   -0.0600   -1.4514    0.0000 C   0  0  0  0  0  0  0  0  0  0  0  0
   -0.7381   -1.9214    0.0000 C   0  0  0  0  0  0  0  0  0  0  0  0
   -1.0242    0.4860    0.0000 C   0  0  0  0  0  0  0  0  0  0  0  0
    0.5792   -0.2860    0.0000 C   0  0  0  0  0  0  0  0  0  0  0  0
   -0.5304    1.1053    0.0000 C   0  0  0  0  0  0  0  0  0  0  0  0
    0.2616    1.1053    0.0000 C   0  0  0  0  0  0  0  0  0  0  0  0
    0.7555    0.4860    0.0000 C   0  0  0  0  0  0  0  0  0  0  0  0
   -2.1375   -2.0071    0.0000 C   0  0  0  0  0  0  0  0  0  0  0  0
   -1.8418    0.5964    0.0000 C   0  0  0  0  0  0  0  0  0  0  0  0
   -0.8199    1.8779    0.0000 C   0  0  0  0  0  0  0  0  0  0  0  0
    1.5400    0.7413    0.0000 C   0  0  0  0  0  0  0  0  0  0  0  0
   -2.1492    1.3621    0.0000 C   0  0  0  0  0  0  0  0  0  0  0  0
   -1.6348    2.0071    0.0000 C   0  0  0  0  0  0  0  0  0  0  0  0
    2.1492    0.1848    0.0000 C   0  0  0  0  0  0  0  0  0  0  0  0
    1.9656   -0.6195    0.0000 C   0  0  0  0  0  0  0  0  0  0  0  0
  1  4  1  0
  1  6  1  0
  1  9  1  0
  2  5  1  0
  2  7  1  0
  2 13  1  0
  3  9  2  0
  3 20  1  0
  4  5  1  6
  4  8  1  0
  6  7  1  0
  8 10  2  0
  8 14  1  0
  9 12  1  0
 10 11  1  0
 10 15  1  0
 11 12  1  0
 12 16  2  0
 14 17  2  0
 15 18  2  0
 16 19  1  0
 17 18  1  0
 19 20  2  0
M  END
>  <DRUGBANK_ID>  (1) 
DB06678

>  <COMMON_NAME>  (1) 
Esmirtazapine

>  <CAS_NUMBER>  (1) 
61337-87-9

>  <UNII>  (1) 
4685R51V7M

>  <SYNONYMS>  (1) 
(S)-1,2,3,4,10,14b-hexahydro-2-methylpyrazino(2,1-a)pyrido(2,3-c)(2)benzazepine; Esmirtazapine

$$$$
