TFG
     RDKit          2D

 29 32  0  0  0  0  0  0  0  0999 V2000
    8.3367   39.7476    0.0000 C   0  0  0  0  0  0  0  0  0  0  0  0
    8.0818   38.9630    0.0000 C   0  0  0  0  0  0  0  0  0  0  0  0
    7.2748   38.7914    0.0000 C   0  0  0  0  0  0  0  0  0  0  0  0
    6.7228   39.4045    0.0000 C   0  0  0  0  0  0  0  0  0  0  0  0
    6.9777   40.1892    0.0000 C   0  0  0  0  0  0  0  0  0  0  0  0
    7.7847   40.3607    0.0000 C   0  0  0  0  0  0  0  0  0  0  0  0
    8.0396   41.1453    0.0000 C   0  0  0  0  0  0  0  0  0  0  0  0
    7.5547   41.8127    0.0000 C   0  0  0  0  0  0  0  0  0  0  0  0
    8.0396   42.4802    0.0000 N   0  0  0  0  0  0  0  0  0  0  0  0
    8.8243   42.2252    0.0000 C   0  0  0  0  0  0  0  0  0  0  0  0
    9.5387   42.6377    0.0000 C   0  0  0  0  0  0  0  0  0  0  0  0
    8.8243   41.4002    0.0000 N   0  0  0  0  0  0  0  0  0  0  0  0
    9.5387   40.9877    0.0000 C   0  0  0  0  0  0  0  0  0  0  0  0
   10.2532   41.4002    0.0000 C   0  0  0  0  0  0  0  0  0  0  0  0
   10.2532   42.2252    0.0000 N   0  0  0  0  0  0  0  0  0  0  0  0
   10.9677   42.6377    0.0000 C   0  0  0  0  0  0  0  0  0  0  0  0
   10.9677   43.4627    0.0000 O   0  0  0  0  0  0  0  0  0  0  0  0
   11.6821   42.2252    0.0000 C   0  0  0  0  0  0  0  0  0  0  0  0
   12.4358   42.5608    0.0000 S   0  0  0  0  0  0  0  0  0  0  0  0
   11.7684   41.4048    0.0000 C   0  0  0  0  0  0  0  0  0  0  0  0
   12.5754   41.2332    0.0000 C   0  0  0  0  0  0  0  0  0  0  0  0
   12.9879   41.9477    0.0000 C   0  0  0  0  0  0  0  0  0  0  0  0
   13.8083   42.0339    0.0000 C   0  0  0  0  0  0  0  0  0  0  0  0
   14.6288   42.1202    0.0000 C   0  0  0  0  0  0  0  0  0  0  0  0
   15.4493   42.2064    0.0000 F   0  0  0  0  0  0  0  0  0  0  0  0
   14.7151   41.2997    0.0000 F   0  0  0  0  0  0  0  0  0  0  0  0
   14.5426   42.9407    0.0000 F   0  0  0  0  0  0  0  0  0  0  0  0
   13.8946   41.2135    0.0000 O   0  0  0  0  0  0  0  0  0  0  0  0
   13.7221   42.8544    0.0000 O   0  0  0  0  0  0  0  0  0  0  0  0
  1  2  2  0
  1  6  1  0
  2  3  1  0
  3  4  2  0
  4  5  1  0
  5  6  2  0
  6  7  1  0
  7  8  2  0
  7 12  1  0
  8  9  1  0
  9 10  2  0
 10 11  1  0
 10 12  1  0
 11 15  1  0
 12 13  1  0
 13 14  1  0
 14 15  1  0
 15 16  1  0
 16 17  2  0
 16 18  1  0
 18 19  1  0
 18 20  2  0
 19 22  1  0
 20 21  1  0
 21 22  2  0
 22 23  1  0
 23 24  1  0
 23 28  1  0
 23 29  1  0
 24 25  1  0
 24 26  1  0
 24 27  1  0
M  END
>  <DRUGBANK_ID>  (1) 
DB08613

>  <COMMON_NAME>  (1) 
2,2,2-TRIFLUORO-1-{5-[(3-PHENYL-5,6-DIHYDROIMIDAZO[1,2-A]PYRAZIN-7(8H)-YL)CARBONYL]THIOPHEN-2-YL}ETHANE-1,1-DIOL

$$$$
