
     RDKit          2D

  4  3  0  0  0  0  0  0  0  0999 V2000
    2.0625   -0.7145    0.0000 O   0  0  0  0  0  0  0  0  0  0  0  0
    1.2375   -0.7145    0.0000 C   0  0  0  0  0  0  0  0  0  0  0  0
    0.8250    0.0000    0.0000 C   0  0  0  0  0  0  0  0  0  0  0  0
    0.0000    0.0000    0.0000 S   0  0  0  0  0  0  0  0  0  0  0  0
  1  2  1  0
  2  3  1  0
  3  4  1  0
M  END
>  <DRUGBANK_ID>  (1) 
DB03345

>  <SECONDARY_ACCESSION_NUMBERS>  (1) 
EXPT02882; DB03131

>  <COMMON_NAME>  (1) 
Mercaptoethanol

>  <CAS_NUMBER>  (1) 
60-24-2

>  <UNII>  (1) 
14R9K67URN

>  <SYNONYMS>  (1) 
2-mercaptoethanol; beta-mercaptoethanol; Thiomonoglycol

$$$$
