
     RDKit          2D

 34 38  0  0  1  0  0  0  0  0999 V2000
   -3.5523   -1.8105    0.0000 C   0  0  0  0  0  0  0  0  0  0  0  0
   -3.0443   -1.1604    0.0000 C   0  0  0  0  0  0  0  0  0  0  0  0
   -2.3942   -1.6683    0.0000 C   0  0  0  0  0  0  0  0  0  0  0  0
   -3.6945   -0.6525    0.0000 O   0  0  0  0  0  0  0  0  0  0  0  0
   -2.5364   -0.5103    0.0000 C   0  0  0  0  0  0  0  0  0  0  0  0
   -2.8455    0.2547    0.0000 N   0  0  0  0  0  0  0  0  0  0  0  0
   -2.3376    0.9048    0.0000 C   0  0  0  0  0  0  0  0  0  0  0  0
   -1.5206    0.7899    0.0000 C   0  0  0  0  0  0  0  0  0  0  0  0
   -1.2115    0.0250    0.0000 N   0  0  0  0  0  0  0  0  0  0  0  0
   -1.7195   -0.6251    0.0000 C   0  0  0  0  0  0  0  0  0  0  0  0
   -1.0127    1.4401    0.0000 N   0  0  0  0  0  0  0  0  0  0  0  0
   -1.2401    2.2331    0.0000 C   0  0  0  0  0  0  0  0  0  0  0  0
   -0.5561    2.6944    0.0000 C   0  0  0  0  0  0  0  0  0  0  0  0
   -1.2557    3.1316    0.0000 C   0  0  0  0  0  0  0  0  0  0  0  0
   -1.2270    3.9561    0.0000 C   0  0  0  0  0  0  0  0  0  0  0  0
   -0.4985    4.3434    0.0000 C   0  0  0  0  0  0  0  0  0  0  0  0
    0.2011    3.9062    0.0000 C   0  0  0  0  0  0  0  0  0  0  0  0
    0.5102    4.6712    0.0000 C   0  0  0  0  0  0  0  0  0  0  0  0
    1.0081    3.7347    0.0000 C   0  0  0  0  0  0  0  0  0  0  0  0
    1.2630    2.9501    0.0000 N   0  0  0  0  0  0  0  0  0  0  0  0
    0.7781    2.2827    0.0000 C   0  0  0  0  0  0  0  0  0  0  0  0
    1.2630    1.6152    0.0000 N   0  0  0  0  0  0  0  0  0  0  0  0
    2.0477    1.8702    0.0000 C   0  0  0  0  0  0  0  0  0  0  0  0
    2.0477    2.6952    0.0000 C   0  0  0  0  0  0  0  0  0  0  0  0
    2.7621    3.1077    0.0000 C   0  0  0  0  0  0  0  0  0  0  0  0
    3.4766    2.6952    0.0000 C   0  0  0  0  0  0  0  0  0  0  0  0
    3.4766    1.8702    0.0000 C   0  0  0  0  0  0  0  0  0  0  0  0
    2.7621    1.4577    0.0000 C   0  0  0  0  0  0  0  0  0  0  0  0
    4.1911    3.1077    0.0000 C   0  0  0  0  0  0  0  0  0  0  0  0
    4.9055    3.5202    0.0000 N   0  0  0  0  0  0  0  0  0  0  0  0
    0.1723    3.0817    0.0000 C   0  0  0  0  0  0  0  0  0  0  0  0
    0.0940    2.1865    0.0000 O   0  0  0  0  0  0  0  0  0  0  0  0
   -0.1882    1.4113    0.0000 C   0  0  0  0  0  0  0  0  0  0  0  0
    0.2732    0.7273    0.0000 O   0  0  0  0  0  0  0  0  0  0  0  0
  1  2  1  0
  2  3  1  0
  2  4  1  0
  2  5  1  0
  5  6  2  0
  5 10  1  0
  6  7  1  0
  7  8  2  0
  8  9  1  0
  8 11  1  0
  9 10  2  0
 11 12  1  0
 11 33  1  0
 13 12  1  6
 13 14  1  0
 13 31  1  0
 13 32  1  0
 14 15  1  0
 15 16  1  0
 17 16  1  0
 17 18  1  1
 17 19  1  0
 17 31  1  0
 19 20  1  0
 20 21  1  0
 20 24  1  0
 21 22  2  0
 22 23  1  0
 23 24  2  0
 23 28  1  0
 24 25  1  0
 25 26  2  0
 26 27  1  0
 26 29  1  0
 27 28  2  0
 29 30  3  0
 32 33  1  0
 33 34  2  0
M  END
>  <DRUGBANK_ID>  (1) 
DB16033

>  <COMMON_NAME>  (1) 
GSK2798745

>  <CAS_NUMBER>  (1) 
1419609-94-1

>  <UNII>  (1) 
63FJ7LF55O

$$$$
