SOG
     RDKit          2D

 20 20  0  0  0  0  0  0  0  0999 V2000
    1.7331    0.1582    0.0000 C   0  0  0  0  0  0  0  0  0  0  0  0
    2.4477    0.5707    0.0000 C   0  0  0  0  0  0  0  0  0  0  0  0
    3.1621    0.1582    0.0000 C   0  0  0  0  0  0  0  0  0  0  0  0
    3.1621   -0.6668    0.0000 C   0  0  0  0  0  0  0  0  0  0  0  0
    2.4477   -1.0794    0.0000 C   0  0  0  0  0  0  0  0  0  0  0  0
    2.4477   -1.9044    0.0000 C   0  0  0  0  0  0  0  0  0  0  0  0
    0.3041    0.1582    0.0000 C   0  0  0  0  0  0  0  0  0  0  0  0
   -0.4104    0.5707    0.0000 C   0  0  0  0  0  0  0  0  0  0  0  0
   -1.1250    0.1582    0.0000 C   0  0  0  0  0  0  0  0  0  0  0  0
   -1.8395    0.5707    0.0000 C   0  0  0  0  0  0  0  0  0  0  0  0
   -2.5540    0.1582    0.0000 C   0  0  0  0  0  0  0  0  0  0  0  0
   -3.2685    0.5707    0.0000 C   0  0  0  0  0  0  0  0  0  0  0  0
   -3.9831    0.1582    0.0000 C   0  0  0  0  0  0  0  0  0  0  0  0
   -4.6975    0.5707    0.0000 C   0  0  0  0  0  0  0  0  0  0  0  0
    1.0186    0.5707    0.0000 S   0  0  0  0  0  0  0  0  0  0  0  0
    2.4477    1.3958    0.0000 O   0  0  0  0  0  0  0  0  0  0  0  0
    3.8767    0.5707    0.0000 O   0  0  0  0  0  0  0  0  0  0  0  0
    3.8767   -1.0794    0.0000 O   0  0  0  0  0  0  0  0  0  0  0  0
    1.7331   -0.6668    0.0000 O   0  0  0  0  0  0  0  0  0  0  0  0
    1.7331   -2.3170    0.0000 O   0  0  0  0  0  0  0  0  0  0  0  0
  1  2  1  0
  1 15  1  1
  1 19  1  0
  2  3  1  0
  2 16  1  6
  3  4  1  0
  3 17  1  1
  4  5  1  0
  4 18  1  6
  5  6  1  1
  5 19  1  0
  6 20  1  0
  7  8  1  0
  7 15  1  0
  8  9  1  0
  9 10  1  0
 10 11  1  0
 11 12  1  0
 12 13  1  0
 13 14  1  0
M  END
>  <DRUGBANK_ID>  (1) 
DB08558

>  <COMMON_NAME>  (1) 
2-HYDROXYMETHYL-6-OCTYLSULFANYL-TETRAHYDRO-PYRAN-3,4,5-TRIOL

$$$$
