ZAF
     RDKit          2D

 33 34  0  0  0  0  0  0  0  0999 V2000
   -2.8447   -0.5037    0.0000 C   0  0  0  0  0  0  0  0  0  0  0  0
   -2.1302   -0.9162    0.0000 O   0  0  0  0  0  0  0  0  0  0  0  0
   -3.5592   -0.9162    0.0000 O   0  0  0  0  0  0  0  0  0  0  0  0
   -3.5592    0.7338    0.0000 C   0  0  0  0  0  0  0  0  0  0  0  0
   -2.8447    0.3213    0.0000 C   0  0  0  0  0  0  0  0  0  0  0  0
   -4.2736    0.3213    0.0000 C   0  0  0  0  0  0  0  0  0  0  0  0
   -4.2736   -0.5037    0.0000 C   0  0  0  0  0  0  0  0  0  0  0  0
   -4.9881   -0.9162    0.0000 C   0  0  0  0  0  0  0  0  0  0  0  0
   -5.7026   -0.5037    0.0000 C   0  0  0  0  0  0  0  0  0  0  0  0
   -5.7026    0.3213    0.0000 C   0  0  0  0  0  0  0  0  0  0  0  0
   -4.9881    0.7338    0.0000 C   0  0  0  0  0  0  0  0  0  0  0  0
   -2.1302    0.7338    0.0000 O   0  0  0  0  0  0  0  0  0  0  0  0
   -1.4158    0.3213    0.0000 P   0  0  0  0  0  0  0  0  0  0  0  0
   -1.8283   -0.3932    0.0000 O   0  0  0  0  0  0  0  0  0  0  0  0
   -1.0033    1.0358    0.0000 O   0  0  0  0  0  0  0  0  0  0  0  0
   -0.7013   -0.0912    0.0000 C   0  0  0  0  0  0  0  0  0  0  0  0
   -0.7013   -0.9162    0.0000 C   0  0  0  0  0  0  0  0  0  0  0  0
    0.0132    0.3213    0.0000 N   0  0  0  0  0  0  0  0  0  0  0  0
    0.7276   -0.0912    0.0000 C   0  0  0  0  0  0  0  0  0  0  0  0
    0.7276   -0.9162    0.0000 O   0  0  0  0  0  0  0  0  0  0  0  0
    1.4421    0.3213    0.0000 C   0  0  0  0  0  0  0  0  0  0  0  0
    1.4421    1.1463    0.0000 C   0  0  0  0  0  0  0  0  0  0  0  0
    2.1566   -0.0912    0.0000 N   0  0  0  0  0  0  0  0  0  0  0  0
    2.8711    0.3213    0.0000 C   0  0  0  0  0  0  0  0  0  0  0  0
    2.8711    1.1463    0.0000 O   0  0  0  0  0  0  0  0  0  0  0  0
    3.5855   -0.0912    0.0000 O   0  0  0  0  0  0  0  0  0  0  0  0
    4.3000    0.3213    0.0000 C   0  0  0  0  0  0  0  0  0  0  0  0
    5.0145   -0.0912    0.0000 C   0  0  0  0  0  0  0  0  0  0  0  0
    5.7289    0.3213    0.0000 C   0  0  0  0  0  0  0  0  0  0  0  0
    6.4434   -0.0912    0.0000 C   0  0  0  0  0  0  0  0  0  0  0  0
    6.4434   -0.9162    0.0000 C   0  0  0  0  0  0  0  0  0  0  0  0
    5.7289   -1.3287    0.0000 C   0  0  0  0  0  0  0  0  0  0  0  0
    5.0145   -0.9162    0.0000 C   0  0  0  0  0  0  0  0  0  0  0  0
  1  2  2  0
  1  3  1  0
  1  5  1  0
  5  4  1  6
  4  6  1  0
  5 12  1  0
  6  7  2  0
  6 11  1  0
  7  8  1  0
  8  9  2  0
  9 10  1  0
 10 11  2  0
 13 12  1  0
 13 14  2  0
 13 15  1  0
 13 16  1  0
 16 17  1  1
 16 18  1  0
 18 19  1  0
 19 20  2  0
 19 21  1  0
 21 22  1  6
 21 23  1  0
 23 24  1  0
 24 25  2  0
 24 26  1  0
 26 27  1  0
 27 28  1  0
 28 29  2  0
 28 33  1  0
 29 30  1  0
 30 31  2  0
 31 32  1  0
 32 33  2  0
M  END
>  <DRUGBANK_ID>  (1) 
DB08762

>  <COMMON_NAME>  (1) 
O-(((1R)-((N-PHENYLMETHOXYCARBONYL-L-ALANYL)AMINO)ETHYL)HYDROXYPHOSPHONO)-L-BENZYLACETIC ACID

$$$$
