LGB
     RDKit          2D

 24 26  0  0  0  0  0  0  0  0999 V2000
   -1.4177   -0.2201    0.0000 C   0  0  0  0  0  0  0  0  0  0  0  0
   -0.6331   -0.4750    0.0000 N   0  0  0  0  0  0  0  0  0  0  0  0
   -0.6331   -1.3000    0.0000 C   0  0  0  0  0  0  0  0  0  0  0  0
   -1.4177   -1.5549    0.0000 C   0  0  0  0  0  0  0  0  0  0  0  0
   -1.9026   -0.8875    0.0000 C   0  0  0  0  0  0  0  0  0  0  0  0
    0.1516   -0.2201    0.0000 C   0  0  0  0  0  0  0  0  0  0  0  0
    0.6365   -0.8875    0.0000 O   0  0  0  0  0  0  0  0  0  0  0  0
    0.1516   -1.5549    0.0000 C   0  0  0  0  0  0  0  0  0  0  0  0
    0.4065    0.5646    0.0000 N   0  0  0  0  0  0  0  0  0  0  0  0
    1.2135    0.7361    0.0000 C   0  0  0  0  0  0  0  0  0  0  0  0
    1.4684    1.5207    0.0000 C   0  0  0  0  0  0  0  0  0  0  0  0
    2.2754    1.6922    0.0000 C   0  0  0  0  0  0  0  0  0  0  0  0
    2.8274    1.0791    0.0000 C   0  0  0  0  0  0  0  0  0  0  0  0
    2.5725    0.2945    0.0000 C   0  0  0  0  0  0  0  0  0  0  0  0
    1.7655    0.1230    0.0000 C   0  0  0  0  0  0  0  0  0  0  0  0
    0.9164    2.1338    0.0000 C   0  0  0  0  0  0  0  0  0  0  0  0
    2.5303    2.4769    0.0000 Cl  0  0  0  0  0  0  0  0  0  0  0  0
   -1.6726   -2.3396    0.0000 O   0  0  0  0  0  0  0  0  0  0  0  0
    3.6344    1.2507    0.0000 C   0  0  0  0  0  0  0  0  0  0  0  0
    4.4413    1.4222    0.0000 N   0  0  0  0  0  0  0  0  0  0  0  0
    0.4065   -2.3396    0.0000 C   0  0  0  0  0  0  0  0  0  0  0  0
    0.6614   -3.1242    0.0000 F   0  0  0  0  0  0  0  0  0  0  0  0
   -0.3781   -2.5945    0.0000 F   0  0  0  0  0  0  0  0  0  0  0  0
    1.1911   -2.0846    0.0000 F   0  0  0  0  0  0  0  0  0  0  0  0
  1  2  1  0
  3  2  1  6
  3  8  1  0
  4  3  1  0
  4 18  1  1
  5  1  1  0
  5  4  1  0
  6  2  1  0
  6  7  1  0
  7  8  1  0
  8 21  1  1
  9  6  2  0
 10  9  1  0
 10 11  2  0
 11 16  1  0
 12 11  1  0
 12 17  1  0
 13 12  2  0
 14 13  1  0
 14 15  2  0
 15 10  1  0
 19 13  1  0
 20 19  3  0
 21 22  1  0
 21 24  1  0
 21 23  1  0
M  END
>  <DRUGBANK_ID>  (1) 
DB08088

>  <COMMON_NAME>  (1) 
2-chloro-4-{[(1R,3Z,7S,7aS)-7-hydroxy-1-(trifluoromethyl)tetrahydro-1H-pyrrolo[1,2-c][1,3]oxazol-3-ylidene]amino}-3-methylbenzonitrile

$$$$
