CLI
     RDKit          2D

 19 20  0  0  0  0  0  0  0  0999 V2000
   -2.2637   -2.0084    0.0000 O   0  0  0  0  0  0  0  0  0  0  0  0
   -1.4567   -1.8369    0.0000 C   0  0  0  0  0  0  0  0  0  0  0  0
   -0.9047   -2.4500    0.0000 O   0  0  0  0  0  0  0  0  0  0  0  0
   -1.2018   -1.0523    0.0000 C   0  0  0  0  0  0  0  0  0  0  0  0
   -0.3948   -0.8807    0.0000 C   0  0  0  0  0  0  0  0  0  0  0  0
   -0.1399   -0.0961    0.0000 C   0  0  0  0  0  0  0  0  0  0  0  0
    0.6447    0.1588    0.0000 C   0  0  0  0  0  0  0  0  0  0  0  0
   -0.6248    0.5713    0.0000 C   0  0  0  0  0  0  0  0  0  0  0  0
   -1.4498    0.5713    0.0000 C   0  0  0  0  0  0  0  0  0  0  0  0
   -1.8623    1.2858    0.0000 O   0  0  0  0  0  0  0  0  0  0  0  0
   -1.8623   -0.1431    0.0000 O   0  0  0  0  0  0  0  0  0  0  0  0
   -0.1399    1.2388    0.0000 N   0  0  0  0  0  0  0  0  0  0  0  0
    0.6447    0.9838    0.0000 C   0  0  0  0  0  0  0  0  0  0  0  0
    1.3592    1.3963    0.0000 C   0  0  0  0  0  0  0  0  0  0  0  0
    2.0737    0.9838    0.0000 C   0  0  0  0  0  0  0  0  0  0  0  0
    2.7881    1.3963    0.0000 Cl  0  0  0  0  0  0  0  0  0  0  0  0
    2.0737    0.1588    0.0000 C   0  0  0  0  0  0  0  0  0  0  0  0
    1.3592   -0.2537    0.0000 C   0  0  0  0  0  0  0  0  0  0  0  0
    1.3592   -1.0787    0.0000 Cl  0  0  0  0  0  0  0  0  0  0  0  0
  1  2  1  0
  2  3  2  0
  2  4  1  0
  4  5  1  0
  5  6  1  0
  6  7  1  0
  6  8  2  0
  7 13  2  0
  7 18  1  0
  8  9  1  0
  8 12  1  0
  9 10  1  0
  9 11  2  0
 12 13  1  0
 13 14  1  0
 14 15  2  0
 15 16  1  0
 15 17  1  0
 17 18  2  0
 18 19  1  0
M  END
>  <DRUGBANK_ID>  (1) 
DB04175

>  <SECONDARY_ACCESSION_NUMBERS>  (1) 
EXPT00939

>  <COMMON_NAME>  (1) 
Mdl-29951

>  <CAS_NUMBER>  (1) 
101861-63-6

$$$$
