G30
     RDKit          2D

 17 18  0  0  0  0  0  0  0  0999 V2000
    2.1257    2.6358    0.0000 F   0  0  0  0  0  0  0  0  0  0  0  0
    1.4112    2.2233    0.0000 C   0  0  0  0  0  0  0  0  0  0  0  0
    0.6967    2.6358    0.0000 C   0  0  0  0  0  0  0  0  0  0  0  0
   -0.0177    2.2233    0.0000 C   0  0  0  0  0  0  0  0  0  0  0  0
   -0.0177    1.3983    0.0000 C   0  0  0  0  0  0  0  0  0  0  0  0
   -0.7322    0.9858    0.0000 F   0  0  0  0  0  0  0  0  0  0  0  0
    1.4112    1.3983    0.0000 C   0  0  0  0  0  0  0  0  0  0  0  0
    0.6967    0.9858    0.0000 C   0  0  0  0  0  0  0  0  0  0  0  0
    0.6967    0.1608    0.0000 N   0  0  0  0  0  0  0  0  0  0  0  0
   -0.0177   -0.2517    0.0000 C   0  0  0  0  0  0  0  0  0  0  0  0
   -0.7322    0.1608    0.0000 O   0  0  0  0  0  0  0  0  0  0  0  0
   -0.0177   -1.0767    0.0000 C   0  0  0  0  0  0  0  0  0  0  0  0
   -0.4302   -1.7912    0.0000 C   0  0  0  0  0  0  0  0  0  0  0  0
    0.3948   -1.7912    0.0000 C   0  0  0  0  0  0  0  0  0  0  0  0
   -1.1447   -2.2037    0.0000 C   0  0  0  0  0  0  0  0  0  0  0  0
   -1.1447   -3.0287    0.0000 O   0  0  0  0  0  0  0  0  0  0  0  0
   -1.8592   -1.7912    0.0000 O   0  0  0  0  0  0  0  0  0  0  0  0
  2  1  1  0
  2  7  2  0
  3  2  1  0
  4  3  2  0
  4  5  1  0
  5  8  2  0
  6  5  1  0
  8  7  1  0
  8  9  1  0
  9 10  1  0
 10 11  2  0
 12 10  1  6
 12 14  1  0
 13 12  1  0
 13 14  1  0
 13 15  1  6
 16 15  1  0
 17 15  2  0
M  END
>  <DRUGBANK_ID>  (1) 
DB07808

>  <COMMON_NAME>  (1) 
(1S,2R)-2-[(2,5-difluorophenyl)carbamoyl]cyclopropanecarboxylic acid

$$$$
