
     RDKit          2D

 18 19  0  0  0  0  0  0  0  0999 V2000
    0.1122   -0.3596    0.0000 C   0  0  0  0  0  0  0  0  0  0  0  0
    0.9368   -0.3596    0.0000 C   0  0  0  0  0  0  0  0  0  0  0  0
    0.5245    0.3550    0.0000 C   0  0  0  0  0  0  0  0  0  0  0  0
   -0.3000   -1.0743    0.0000 C   0  0  0  0  0  0  0  0  0  0  0  0
   -1.1247   -1.0696    0.0000 N   0  0  0  0  0  0  0  0  0  0  0  0
   -0.3046    0.3550    0.0000 C   0  0  0  0  0  0  0  0  0  0  0  0
    0.1076   -1.7980    0.0000 O   0  0  0  0  0  0  0  0  0  0  0  0
    1.6514   -0.7719    0.0000 C   0  0  0  0  0  0  0  0  0  0  0  0
    2.3661   -0.3596    0.0000 N   0  0  0  0  0  0  0  0  0  0  0  0
   -1.5414   -1.7842    0.0000 C   0  0  0  0  0  0  0  0  0  0  0  0
   -1.5369   -0.3550    0.0000 C   0  0  0  0  0  0  0  0  0  0  0  0
    0.1076    1.0833    0.0000 C   0  0  0  0  0  0  0  0  0  0  0  0
   -1.1293    0.3687    0.0000 C   0  0  0  0  0  0  0  0  0  0  0  0
   -2.3661   -1.7842    0.0000 C   0  0  0  0  0  0  0  0  0  0  0  0
   -2.3615   -0.3459    0.0000 C   0  0  0  0  0  0  0  0  0  0  0  0
   -1.5552    1.0696    0.0000 C   0  0  0  0  0  0  0  0  0  0  0  0
   -0.3138    1.7980    0.0000 C   0  0  0  0  0  0  0  0  0  0  0  0
   -1.1430    1.7888    0.0000 C   0  0  0  0  0  0  0  0  0  0  0  0
  1  4  1  0
  2  1  1  0
  2  8  1  0
  3  1  1  0
  3  2  1  0
  5  4  1  0
  6  1  1  0
  7  4  2  0
  9  8  1  0
 10  5  1  0
 11  5  1  0
 12  6  2  0
 13  6  1  0
 14 10  1  0
 15 11  1  0
 16 13  2  0
 17 12  1  0
 17 18  2  0
 18 16  1  0
M  END
>  <DRUGBANK_ID>  (1) 
DB04896

>  <COMMON_NAME>  (1) 
Milnacipran

>  <CAS_NUMBER>  (1) 
92623-85-3

>  <UNII>  (1) 
G56VK1HF36

>  <SYNONYMS>  (1) 
(+-)-Milnacipran; Midalcipran; Milnacipran; Milnacipranum

$$$$
