
     RDKit          2D

 33 36  0  0  0  0  0  0  0  0999 V2000
    0.6948   -0.1983    0.0000 C   0  0  0  0  0  0  0  0  0  0  0  0
    0.7048    0.6038    0.0000 C   0  0  0  0  0  0  0  0  0  0  0  0
   -0.0398   -0.6034    0.0000 C   0  0  0  0  0  0  0  0  0  0  0  0
    1.4168   -0.6403    0.0000 C   0  0  0  0  0  0  0  0  0  0  0  0
   -0.0005    1.0216    0.0000 C   0  0  0  0  0  0  0  0  0  0  0  0
    1.4548    1.0458    0.0000 C   0  0  0  0  0  0  0  0  0  0  0  0
    0.7048    1.4289    0.0000 O   0  0  0  0  0  0  0  0  0  0  0  0
   -0.7495   -0.1971    0.0000 C   0  0  0  0  0  0  0  0  0  0  0  0
   -0.0398   -1.4283    0.0000 O   0  0  0  0  0  0  0  0  0  0  0  0
    2.1632   -0.2198    0.0000 C   0  0  0  0  0  0  0  0  0  0  0  0
    1.4168   -1.4652    0.0000 N   0  0  0  0  0  0  0  0  0  0  0  0
   -0.7425    0.6279    0.0000 C   0  0  0  0  0  0  0  0  0  0  0  0
   -0.0005    1.8465    0.0000 O   0  0  0  0  0  0  0  0  0  0  0  0
    2.1697    0.5922    0.0000 C   0  0  0  0  0  0  0  0  0  0  0  0
    1.4548    1.8708    0.0000 O   0  0  0  0  0  0  0  0  0  0  0  0
   -1.4708   -0.6022    0.0000 C   0  0  0  0  0  0  0  0  0  0  0  0
    2.8790   -0.6324    0.0000 O   0  0  0  0  0  0  0  0  0  0  0  0
    2.1245   -1.8729    0.0000 C   0  0  0  0  0  0  0  0  0  0  0  0
    0.6967   -1.8783    0.0000 C   0  0  0  0  0  0  0  0  0  0  0  0
   -1.4412    1.0533    0.0000 C   0  0  0  0  0  0  0  0  0  0  0  0
    2.8856    1.0048    0.0000 C   0  0  0  0  0  0  0  0  0  0  0  0
   -2.1746   -0.1843    0.0000 C   0  0  0  0  0  0  0  0  0  0  0  0
   -2.1066   -1.1256    0.0000 C   0  0  0  0  0  0  0  0  0  0  0  0
   -2.1746    0.6407    0.0000 C   0  0  0  0  0  0  0  0  0  0  0  0
   -1.4412    1.8783    0.0000 O   0  0  0  0  0  0  0  0  0  0  0  0
    3.6053    0.5878    0.0000 N   0  0  0  0  0  0  0  0  0  0  0  0
    2.8856    1.8250    0.0000 O   0  0  0  0  0  0  0  0  0  0  0  0
   -2.8910   -0.5852    0.0000 C   0  0  0  0  0  0  0  0  0  0  0  0
   -2.8594    1.0533    0.0000 C   0  0  0  0  0  0  0  0  0  0  0  0
   -3.6053   -0.1740    0.0000 C   0  0  0  0  0  0  0  0  0  0  0  0
   -3.6053    0.6523    0.0000 C   0  0  0  0  0  0  0  0  0  0  0  0
   -2.8594    1.8782    0.0000 O   0  0  0  0  0  0  0  0  0  0  0  0
   -1.2603   -1.3979    0.0000 O   0  0  0  0  0  0  0  0  0  0  0  0
  1  2  1  0
  1  3  1  0
  1  4  1  6
  2  5  1  0
  2  6  1  0
  2  7  1  1
  3  8  1  0
  3  9  1  1
  4 10  1  0
  4 11  1  1
  5 12  2  0
  5 13  1  0
  6 14  1  0
  6 15  2  0
  8 16  1  0
  8 12  1  6
 10 17  1  0
 10 14  2  0
 11 18  1  0
 11 19  1  0
 12 20  1  0
 14 21  1  0
 16 22  1  0
 16 23  1  1
 16 33  1  0
 20 24  1  0
 20 25  2  0
 21 26  1  0
 21 27  2  0
 22 28  2  0
 22 24  1  0
 24 29  2  0
 28 30  1  0
 29 31  1  0
 29 32  1  0
 30 31  2  0
M  END
>  <DRUGBANK_ID>  (1) 
DB00595

>  <SECONDARY_ACCESSION_NUMBERS>  (1) 
APRD00019

>  <COMMON_NAME>  (1) 
Oxytetracycline

>  <CAS_NUMBER>  (1) 
79-57-2

>  <UNII>  (1) 
SLF0D9077S

>  <SYNONYMS>  (1) 
5-Hydroxytetracycline; Embryostat; Hydroxytetracyclinum; Mepatar; Ossitetraciclina; Oxitetraciclina; Oxyterracin; Oxyterracine; Oxytetracyclin; Oxyt√©tracycline; Oxytetracycline; Oxytetracycline (anhydrous); Oxytetracycline amphoteric; Oxytetracyclinum

$$$$
