JNH
     RDKit          2D

 24 26  0  0  0  0  0  0  0  0999 V2000
   -1.2510   -1.8878    0.0000 N   0  0  0  0  0  0  0  0  0  0  0  0
   -1.5059   -2.6725    0.0000 C   0  0  0  0  0  0  0  0  0  0  0  0
   -2.3309   -2.6725    0.0000 C   0  0  0  0  0  0  0  0  0  0  0  0
   -2.5858   -1.8878    0.0000 C   0  0  0  0  0  0  0  0  0  0  0  0
   -1.9184   -1.4029    0.0000 C   0  0  0  0  0  0  0  0  0  0  0  0
   -0.4663   -1.6329    0.0000 C   0  0  0  0  0  0  0  0  0  0  0  0
   -0.2948   -0.8259    0.0000 C   0  0  0  0  0  0  0  0  0  0  0  0
    0.1468   -2.1849    0.0000 O   0  0  0  0  0  0  0  0  0  0  0  0
   -0.9079   -0.2739    0.0000 N   0  0  0  0  0  0  0  0  0  0  0  0
    0.4898   -0.5710    0.0000 C   0  0  0  0  0  0  0  0  0  0  0  0
    1.0044    1.8499    0.0000 C   0  0  0  0  0  0  0  0  0  0  0  0
    1.6175    1.2979    0.0000 C   0  0  0  0  0  0  0  0  0  0  0  0
    1.4460    0.4909    0.0000 C   0  0  0  0  0  0  0  0  0  0  0  0
    0.6613    0.2360    0.0000 C   0  0  0  0  0  0  0  0  0  0  0  0
    0.0482    0.7880    0.0000 C   0  0  0  0  0  0  0  0  0  0  0  0
    0.2198    1.5950    0.0000 C   0  0  0  0  0  0  0  0  0  0  0  0
    1.5190    4.2708    0.0000 C   0  0  0  0  0  0  0  0  0  0  0  0
    2.1321    3.7188    0.0000 C   0  0  0  0  0  0  0  0  0  0  0  0
    1.9605    2.9118    0.0000 C   0  0  0  0  0  0  0  0  0  0  0  0
    1.1759    2.6569    0.0000 C   0  0  0  0  0  0  0  0  0  0  0  0
    0.5628    3.2089    0.0000 C   0  0  0  0  0  0  0  0  0  0  0  0
    0.7343    4.0159    0.0000 C   0  0  0  0  0  0  0  0  0  0  0  0
   -1.0210   -3.3399    0.0000 C   0  0  0  0  0  0  0  0  0  0  0  0
   -0.2005   -3.2537    0.0000 N   0  0  0  0  0  0  0  0  0  0  0  0
  1  2  1  0
  1  5  1  0
  1  6  1  0
  2  3  1  0
  2 23  1  6
  3  4  1  0
  4  5  1  0
  6  7  1  0
  6  8  2  0
  7  9  1  1
  7 10  1  0
 10 14  1  0
 11 12  2  0
 11 16  1  0
 11 20  1  0
 12 13  1  0
 13 14  2  0
 14 15  1  0
 15 16  2  0
 17 18  2  0
 17 22  1  0
 18 19  1  0
 19 20  2  0
 20 21  1  0
 21 22  2  0
 23 24  1  0
M  END
>  <DRUGBANK_ID>  (1) 
DB08024

>  <COMMON_NAME>  (1) 
1-[2-(S)-AMINO-3-BIPHENYL-4-YL-PROPIONYL]-PYRROLIDINE-2-(S)-CARBONITRILE

$$$$
