LIE
     RDKit          2D

 29 32  0  0  0  0  0  0  0  0999 V2000
    1.7302    0.2965    0.0000 C   0  0  0  0  0  0  0  0  0  0  0  0
    0.3012    0.2965    0.0000 C   0  0  0  0  0  0  0  0  0  0  0  0
   -0.7383   -0.7431    0.0000 C   0  0  0  0  0  0  0  0  0  0  0  0
   -0.9683    0.7090    0.0000 C   0  0  0  0  0  0  0  0  0  0  0  0
   -1.7933    0.7090    0.0000 N   0  0  0  0  0  0  0  0  0  0  0  0
    2.4447   -0.9410    0.0000 C   0  0  0  0  0  0  0  0  0  0  0  0
    3.1591   -1.3535    0.0000 C   0  0  0  0  0  0  0  0  0  0  0  0
    1.7302   -2.1785    0.0000 C   0  0  0  0  0  0  0  0  0  0  0  0
   -1.5453   -0.9146    0.0000 C   0  0  0  0  0  0  0  0  0  0  0  0
   -3.4433    0.7090    0.0000 F   0  0  0  0  0  0  0  0  0  0  0  0
   -3.0308    1.4235    0.0000 C   0  0  0  0  0  0  0  0  0  0  0  0
   -3.4433    2.1379    0.0000 C   0  0  0  0  0  0  0  0  0  0  0  0
   -3.0308    2.8524    0.0000 C   0  0  0  0  0  0  0  0  0  0  0  0
   -2.2058    2.8524    0.0000 C   0  0  0  0  0  0  0  0  0  0  0  0
   -1.7933    2.1379    0.0000 C   0  0  0  0  0  0  0  0  0  0  0  0
   -2.2058    1.4235    0.0000 C   0  0  0  0  0  0  0  0  0  0  0  0
   -0.4834    1.3764    0.0000 N   0  0  0  0  0  0  0  0  0  0  0  0
    0.3012    1.1215    0.0000 C   0  0  0  0  0  0  0  0  0  0  0  0
    1.0157    1.5340    0.0000 C   0  0  0  0  0  0  0  0  0  0  0  0
   -0.4834    0.0415    0.0000 N   0  0  0  0  0  0  0  0  0  0  0  0
   -0.1863   -1.3562    0.0000 C   0  0  0  0  0  0  0  0  0  0  0  0
    1.0157   -0.1160    0.0000 N   0  0  0  0  0  0  0  0  0  0  0  0
    1.7302    1.1215    0.0000 N   0  0  0  0  0  0  0  0  0  0  0  0
    2.4447   -0.1160    0.0000 O   0  0  0  0  0  0  0  0  0  0  0  0
    3.8736   -0.9410    0.0000 F   0  0  0  0  0  0  0  0  0  0  0  0
    3.1591   -2.1785    0.0000 C   0  0  0  0  0  0  0  0  0  0  0  0
    2.4447   -2.5910    0.0000 C   0  0  0  0  0  0  0  0  0  0  0  0
    1.7302   -1.3535    0.0000 C   0  0  0  0  0  0  0  0  0  0  0  0
    1.0157   -0.9410    0.0000 F   0  0  0  0  0  0  0  0  0  0  0  0
  1 22  2  0
  1 23  1  0
  1 24  1  0
  2 18  2  0
  2 20  1  0
  2 22  1  0
  3  9  1  0
  3 20  1  0
  3 21  1  0
  4  5  1  0
  4 17  2  0
  4 20  1  0
  5 16  1  0
  6  7  2  0
  6 24  1  0
  6 28  1  0
  7 25  1  0
  7 26  1  0
  8 27  1  0
  8 28  2  0
 10 11  1  0
 11 12  2  0
 11 16  1  0
 12 13  1  0
 13 14  2  0
 14 15  1  0
 15 16  2  0
 17 18  1  0
 18 19  1  0
 19 23  2  0
 26 27  2  0
 28 29  1  0
M  END
>  <DRUGBANK_ID>  (1) 
DB08097

>  <COMMON_NAME>  (1) 
2-(2,6-DIFLUOROPHENOXY)-N-(2-FLUOROPHENYL)-9-ISOPROPYL-9H-PURIN-8-AMINE

$$$$
