
     RDKit          2D

 29 33  0  0  0  0  0  0  0  0999 V2000
   -1.7458   -0.3561    0.0000 C   0  0  0  0  0  0  0  0  0  0  0  0
   -0.9208   -0.3561    0.0000 C   0  0  0  0  0  0  0  0  0  0  0  0
   -2.1583    0.3563    0.0000 C   0  0  0  0  0  0  0  0  0  0  0  0
   -2.1583   -1.0728    0.0000 C   0  0  0  0  0  0  0  0  0  0  0  0
   -2.9833    0.3563    0.0000 C   0  0  0  0  0  0  0  0  0  0  0  0
   -0.4374   -1.0270    0.0000 N   0  0  0  0  0  0  0  0  0  0  0  0
   -2.9833   -1.0728    0.0000 N   0  0  0  0  0  0  0  0  0  0  0  0
   -0.4374    0.3104    0.0000 N   0  0  0  0  0  0  0  0  0  0  0  0
   -3.3958   -0.3561    0.0000 C   0  0  0  0  0  0  0  0  0  0  0  0
    0.3458    0.0563    0.0000 C   0  0  0  0  0  0  0  0  0  0  0  0
    2.4916    0.4688    0.0000 N   0  0  0  0  0  0  0  0  0  0  0  0
    0.3458   -0.7686    0.0000 C   0  0  0  0  0  0  0  0  0  0  0  0
    1.0625    0.4688    0.0000 C   0  0  0  0  0  0  0  0  0  0  0  0
    1.7750    0.0563    0.0000 C   0  0  0  0  0  0  0  0  0  0  0  0
    3.9208    1.2938    0.0000 N   0  0  0  0  0  0  0  0  0  0  0  0
   -3.3958    1.0729    0.0000 C   0  0  0  0  0  0  0  0  0  0  0  0
   -1.7458   -1.7854    0.0000 O   0  0  0  0  0  0  0  0  0  0  0  0
   -1.7458    1.0729    0.0000 N   0  0  0  0  0  0  0  0  0  0  0  0
    3.2041    0.0563    0.0000 C   0  0  0  0  0  0  0  0  0  0  0  0
    2.4916    1.2938    0.0000 C   0  0  0  0  0  0  0  0  0  0  0  0
    1.0625   -1.1812    0.0000 C   0  0  0  0  0  0  0  0  0  0  0  0
    1.7750   -0.7686    0.0000 C   0  0  0  0  0  0  0  0  0  0  0  0
    3.2041    1.7063    0.0000 C   0  0  0  0  0  0  0  0  0  0  0  0
    3.9208    0.4688    0.0000 C   0  0  0  0  0  0  0  0  0  0  0  0
   -2.9833    1.7854    0.0000 F   0  0  0  0  0  0  0  0  0  0  0  0
   -4.2208   -0.3561    0.0000 C   0  0  0  0  0  0  0  0  0  0  0  0
    4.6333    1.7063    0.0000 C   0  0  0  0  0  0  0  0  0  0  0  0
   -4.6333    0.3563    0.0000 C   0  0  0  0  0  0  0  0  0  0  0  0
   -4.2208    1.0729    0.0000 C   0  0  0  0  0  0  0  0  0  0  0  0
  2  1  1  0
  3  1  2  0
  4  1  1  0
  5  3  1  0
  6  2  2  0
  7  4  1  0
  7  9  1  0
  8  2  1  0
  9  5  2  0
 10  8  1  0
 10 12  2  0
 11 14  1  0
 12  6  1  0
 13 10  1  0
 14 13  2  0
 15 23  1  0
 16  5  1  0
 17  4  2  0
 18  3  1  0
 19 11  1  0
 20 11  1  0
 21 12  1  0
 22 21  2  0
 22 14  1  0
 23 20  1  0
 24 19  1  0
 24 15  1  0
 25 16  1  0
 26  9  1  0
 27 15  1  0
 28 29  1  0
 28 26  2  0
 29 16  2  0
M  END
>  <DRUGBANK_ID>  (1) 
DB05928

>  <COMMON_NAME>  (1) 
Dovitinib

>  <CAS_NUMBER>  (1) 
405169-16-6

>  <UNII>  (1) 
I35H55G906

>  <SYNONYMS>  (1) 
Dovitinib

$$$$
