
     RDKit          2D

 30 33  0  0  1  0  0  0  0  0999 V2000
    0.4815   -0.6323    0.0000 C   0  0  0  0  0  0  0  0  0  0  0  0
   -2.0344   -0.2302    0.0000 C   0  0  0  0  0  0  0  0  0  0  0  0
   -3.6874    2.2427    0.0000 C   0  0  0  0  0  0  0  0  0  0  0  0
   -1.2510    1.8071    0.0000 C   0  0  0  0  0  0  0  0  0  0  0  0
    0.4926    1.3923    0.0000 C   0  0  0  0  0  0  0  0  0  0  0  0
    1.1755    0.9293    0.0000 C   0  0  0  0  0  0  0  0  0  0  0  0
   -2.0632    1.9523    0.0000 C   0  0  0  0  0  0  0  0  0  0  0  0
   -1.2223   -0.3754    0.0000 C   0  0  0  0  0  0  0  0  0  0  0  0
   -3.6586    0.0602    0.0000 C   0  0  0  0  0  0  0  0  0  0  0  0
   -0.4101   -0.5206    0.0000 C   0  0  0  0  0  0  0  0  0  0  0  0
   -2.8465   -0.0850    0.0000 C   0  0  0  0  0  0  0  0  0  0  0  0
    3.5933   -0.9400    0.0000 C   0  0  0  0  0  0  0  0  0  0  0  0
   -0.9707    1.0311    0.0000 C   0  0  0  0  0  0  0  0  0  0  0  0
   -0.1586    0.8859    0.0000 C   0  0  0  0  0  0  0  0  0  0  0  0
   -1.5026    0.4004    0.0000 C   0  0  0  0  0  0  0  0  0  0  0  0
    0.9461    0.1368    0.0000 C   0  0  0  0  0  0  0  0  0  0  0  0
   -2.5950    1.3216    0.0000 C   0  0  0  0  0  0  0  0  0  0  0  0
   -3.9389    0.8361    0.0000 C   0  0  0  0  0  0  0  0  0  0  0  0
    2.2697   -0.4016    0.0000 C   0  0  0  0  0  0  0  0  0  0  0  0
    0.1216    0.1100    0.0000 C   0  0  0  0  0  0  0  0  0  0  0  0
   -2.3147    0.5456    0.0000 C   0  0  0  0  0  0  0  0  0  0  0  0
    4.0997   -1.5914    0.0000 C   0  0  0  0  0  0  0  0  0  0  0  0
    4.6061   -2.2427    0.0000 F   0  0  0  0  0  0  0  0  0  0  0  0
    4.7510   -1.0850    0.0000 F   0  0  0  0  0  0  0  0  0  0  0  0
    3.4484   -2.0977    0.0000 F   0  0  0  0  0  0  0  0  0  0  0  0
    1.4525   -0.5144    0.0000 N   0  0  0  0  0  0  0  0  0  0  0  0
   -3.4071    1.4668    0.0000 N   0  0  0  0  0  0  0  0  0  0  0  0
   -4.7510    0.9813    0.0000 O   0  0  0  0  0  0  0  0  0  0  0  0
    2.5806    0.3625    0.0000 O   0  0  0  0  0  0  0  0  0  0  0  0
    2.7761   -1.0529    0.0000 O   0  0  0  0  0  0  0  0  0  0  0  0
  6  5  1  0
  7  4  1  0
 10  8  1  0
 11  9  2  0
 13  4  1  1
 13 14  1  0
 13 15  1  0
 14  5  1  6
 14 20  1  0
 15  8  1  6
 15 21  1  0
 16  6  1  0
 16 26  1  6
 17  7  1  6
 17 27  1  0
 18  9  1  0
 19 29  1  0
 20  1  1  6
 20 10  1  0
 20 16  1  0
 21  2  1  6
 21 11  1  0
 21 17  1  0
 22 12  1  0
 23 22  1  0
 24 22  1  0
 25 22  1  0
 26 19  2  3
 27  3  1  0
 27 18  1  0
 28 18  2  0
 30 12  1  0
 30 19  1  0
M  END
>  <DRUGBANK_ID>  (1) 
DB17016

>  <COMMON_NAME>  (1) 
MK-4541

>  <CAS_NUMBER>  (1) 
796885-38-6

>  <SYNONYMS>  (1) 
2,2,2-trifluoroethyl N-[(1S,3aS,3bS,5aR,9aR,9bS,11aS)-6,9a,11a-trimethyl-7-oxo-2,3,3a,3b,4,5,5a,9b,10,11-decahydro-1H-indeno[5,4-f]quinolin-1-yl]carbamate

$$$$
