TQ3
     RDKit          2D

 19 21  0  0  0  0  0  0  0  0999 V2000
   -0.7758   -1.4006    0.0000 C   0  0  0  0  0  0  0  0  0  0  0  0
   -0.7758   -0.5756    0.0000 C   0  0  0  0  0  0  0  0  0  0  0  0
   -1.4902   -0.1631    0.0000 C   0  0  0  0  0  0  0  0  0  0  0  0
   -2.2047   -0.5756    0.0000 N   0  0  0  0  0  0  0  0  0  0  0  0
   -2.2047   -1.4006    0.0000 C   0  0  0  0  0  0  0  0  0  0  0  0
   -1.4902   -1.8131    0.0000 N   0  0  0  0  0  0  0  0  0  0  0  0
   -1.4902    0.6619    0.0000 N   0  0  0  0  0  0  0  0  0  0  0  0
   -0.0613   -1.8131    0.0000 C   0  0  0  0  0  0  0  0  0  0  0  0
    0.6532   -1.4006    0.0000 C   0  0  0  0  0  0  0  0  0  0  0  0
    0.6532   -0.5756    0.0000 C   0  0  0  0  0  0  0  0  0  0  0  0
   -0.0613   -0.1631    0.0000 C   0  0  0  0  0  0  0  0  0  0  0  0
   -2.9192   -1.8131    0.0000 N   0  0  0  0  0  0  0  0  0  0  0  0
   -0.0613    0.6619    0.0000 S   0  0  0  0  0  0  0  0  0  0  0  0
    0.6532    1.0744    0.0000 C   0  0  0  0  0  0  0  0  0  0  0  0
    0.6532    1.8994    0.0000 C   0  0  0  0  0  0  0  0  0  0  0  0
    1.3676    2.3119    0.0000 C   0  0  0  0  0  0  0  0  0  0  0  0
    2.0821    1.8994    0.0000 C   0  0  0  0  0  0  0  0  0  0  0  0
    2.0821    1.0744    0.0000 C   0  0  0  0  0  0  0  0  0  0  0  0
    1.3676    0.6619    0.0000 C   0  0  0  0  0  0  0  0  0  0  0  0
  1  2  1  0
  1  6  2  0
  1  8  1  0
  2  3  2  0
  2 11  1  0
  3  4  1  0
  3  7  1  0
  4  5  2  0
  5  6  1  0
  5 12  1  0
  8  9  2  0
  9 10  1  0
 10 11  2  0
 11 13  1  0
 13 14  1  0
 14 15  2  0
 14 19  1  0
 15 16  1  0
 16 17  2  0
 17 18  1  0
 18 19  2  0
M  END
>  <DRUGBANK_ID>  (1) 
DB04163

>  <SECONDARY_ACCESSION_NUMBERS>  (1) 
EXPT03099

>  <COMMON_NAME>  (1) 
5-Phenylsulfanyl-2,4-Quinazolinediamine

$$$$
