
     RDKit          2D

 14 13  0  0  0  0  0  0  0  0999 V2000
    1.2375   -5.0013    0.0000 C   0  0  0  0  0  0  0  0  0  0  0  0
    1.6500   -4.2868    0.0000 C   0  0  0  0  0  0  0  0  0  0  0  0
    1.2375   -3.5724    0.0000 C   0  0  0  0  0  0  0  0  0  0  0  0
    1.6500   -2.8579    0.0000 C   0  0  0  0  0  0  0  0  0  0  0  0
    1.2375   -2.1434    0.0000 S   0  0  0  0  0  0  0  0  0  0  0  0
    1.9520   -1.7309    0.0000 N   0  0  0  0  0  0  0  0  0  0  0  0
    0.5230   -2.5559    0.0000 O   0  0  0  0  0  0  0  0  0  0  0  0
    0.8250   -1.4289    0.0000 C   0  0  0  0  0  0  0  0  0  0  0  0
    1.2375   -0.7145    0.0000 C   0  0  0  0  0  0  0  0  0  0  0  0
    0.8250    0.0000    0.0000 C   0  0  0  0  0  0  0  0  0  0  0  0
    1.2375    0.7145    0.0000 C   0  0  0  0  0  0  0  0  0  0  0  0
    0.8250    1.4289    0.0000 O   0  0  0  0  0  0  0  0  0  0  0  0
    2.0625    0.7145    0.0000 O   0  0  0  0  0  0  0  0  0  0  0  0
    0.0000    0.0000    0.0000 N   0  0  0  0  0  0  0  0  0  0  0  0
  1  2  1  0
  2  3  1  0
  3  4  1  0
  4  5  1  0
  5  6  2  0
  5  7  2  0
  5  8  1  0
  8  9  1  0
  9 10  1  0
 10 11  1  0
 10 14  1  0
 11 12  2  0
 11 13  1  0
M  END
>  <DRUGBANK_ID>  (1) 
DB12870

>  <COMMON_NAME>  (1) 
Buthionine sulfoximine

>  <CAS_NUMBER>  (1) 
5072-26-4

>  <UNII>  (1) 
LW4108Q0BV

>  <SYNONYMS>  (1) 
Butanoic acid, 2-amino-4-(S-butylsulfonimidoyl)-; Buthionine sulfoxamine; DL-buthionine-(S,R)-sulfoximine

$$$$
