
     RDKit          2D

 14 13  0  0  0  0  0  0  0  0999 V2000
   -3.9296    0.2062    0.0000 O   0  0  0  0  0  0  0  0  0  0  0  0
   -3.2151   -0.2062    0.0000 C   0  0  0  0  0  0  0  0  0  0  0  0
    3.2151    0.2063    0.0000 C   0  0  0  0  0  0  0  0  0  0  0  0
    2.5006   -0.2061    0.0000 C   0  0  0  0  0  0  0  0  0  0  0  0
    1.7862    0.2063    0.0000 C   0  0  0  0  0  0  0  0  0  0  0  0
    1.0717   -0.2061    0.0000 C   0  0  0  0  0  0  0  0  0  0  0  0
    0.3572    0.2063    0.0000 C   0  0  0  0  0  0  0  0  0  0  0  0
   -0.3572   -0.2062    0.0000 C   0  0  0  0  0  0  0  0  0  0  0  0
   -1.0717    0.2062    0.0000 C   0  0  0  0  0  0  0  0  0  0  0  0
   -1.7862   -0.2062    0.0000 C   0  0  0  0  0  0  0  0  0  0  0  0
   -2.5006    0.2062    0.0000 C   0  0  0  0  0  0  0  0  0  0  0  0
    3.9296   -0.2061    0.0000 O   0  0  0  0  0  0  0  0  0  0  0  0
    3.2151    1.0312    0.0000 O   0  0  0  0  0  0  0  0  0  0  0  0
   -3.2151   -1.0312    0.0000 O   0  0  0  0  0  0  0  0  0  0  0  0
  1  2  1  0
  3 13  2  0
  3  4  1  0
  3 12  1  0
  4  5  1  0
  5  6  1  0
  6  7  1  0
  7  8  1  0
  8  9  1  0
  9 10  1  0
 10 11  1  0
 11  2  1  0
 14  2  2  0
M  END
>  <DRUGBANK_ID>  (1) 
DB07645

>  <COMMON_NAME>  (1) 
Sebacic acid

>  <CAS_NUMBER>  (1) 
111-20-6

>  <UNII>  (1) 
97AN39ICTC

>  <SYNONYMS>  (1) 
1,10-decanedioic acid; 1,8-dicarboxyoctane; Decanedioic acid; Sebacins√§ure

$$$$
