
     RDKit          2D

 20 22  0  0  0  0  0  0  0  0999 V2000
   -0.5532   -0.2092    0.0000 C   0  0  0  0  0  0  0  0  0  0  0  0
    0.4757    0.5657    0.0000 C   0  0  0  0  0  0  0  0  0  0  0  0
    0.0883   -0.6835    0.0000 O   0  0  0  0  0  0  0  0  0  0  0  0
   -0.3115    0.5657    0.0000 C   0  0  0  0  0  0  0  0  0  0  0  0
    0.7176   -0.1968    0.0000 C   0  0  0  0  0  0  0  0  0  0  0  0
   -1.3437   -0.4045    0.0000 C   0  0  0  0  0  0  0  0  0  0  0  0
   -1.6227   -1.1825    0.0000 C   0  0  0  0  0  0  0  0  0  0  0  0
   -1.0554   -1.7994    0.0000 C   0  0  0  0  0  0  0  0  0  0  0  0
    1.0430    1.1763    0.0000 C   0  0  0  0  0  0  0  0  0  0  0  0
   -0.2650   -1.6475    0.0000 O   0  0  0  0  0  0  0  0  0  0  0  0
   -1.3251   -2.5713    0.0000 O   0  0  0  0  0  0  0  0  0  0  0  0
   -0.8695    1.1577    0.0000 C   0  0  0  0  0  0  0  0  0  0  0  0
   -1.9482    0.2185    0.0000 C   0  0  0  0  0  0  0  0  0  0  0  0
   -1.6785    1.0089    0.0000 C   0  0  0  0  0  0  0  0  0  0  0  0
   -2.4318   -1.3437    0.0000 C   0  0  0  0  0  0  0  0  0  0  0  0
    0.7858    1.9792    0.0000 C   0  0  0  0  0  0  0  0  0  0  0  0
    1.8738    1.0183    0.0000 C   0  0  0  0  0  0  0  0  0  0  0  0
    1.3531    2.5713    0.0000 C   0  0  0  0  0  0  0  0  0  0  0  0
    2.4318    1.6072    0.0000 C   0  0  0  0  0  0  0  0  0  0  0  0
    2.1775    2.4225    0.0000 C   0  0  0  0  0  0  0  0  0  0  0  0
  2  4  1  0
  2  5  2  0
  3  1  1  0
  4  1  2  0
  5  3  1  0
  6  1  1  0
  7  6  1  0
  8  7  1  0
  9  2  1  0
 10  8  2  0
 11  8  1  0
 12  4  1  0
 12 14  2  0
 13  6  2  0
 14 13  1  0
 15  7  1  0
 16  9  2  0
 17  9  1  0
 18 16  1  0
 18 20  2  0
 19 17  2  0
 20 19  1  0
M  END
>  <DRUGBANK_ID>  (1) 
DB06499

>  <COMMON_NAME>  (1) 
Furaprofen

>  <CAS_NUMBER>  (1) 
67700-30-5

>  <UNII>  (1) 
T9G78A1R21

>  <SYNONYMS>  (1) 
alpha-Methyl-3-phenyl-7-benzofuranacetic acid; Furaprofen; Furaprofeno; Furaprofenum

$$$$
