
     RDKit          2D

 13 12  0  0  0  0  0  0  0  0999 V2000
   -1.0716   -0.2062    0.0000 C   0  0  0  0  0  0  0  0  0  0  0  0
   -1.7861   -0.6187    0.0000 O   0  0  0  0  0  0  0  0  0  0  0  0
    1.0717    1.0312    0.0000 C   0  0  0  0  0  0  0  0  0  0  0  0
    1.0717    1.8562    0.0000 O   0  0  0  0  0  0  0  0  0  0  0  0
    0.3572   -0.2062    0.0000 N   0  0  0  0  0  0  0  0  0  0  0  0
    1.0717   -1.4437    0.0000 C   0  0  0  0  0  0  0  0  0  0  0  0
    1.7861   -1.8562    0.0000 O   0  0  0  0  0  0  0  0  0  0  0  0
   -0.3572   -0.6187    0.0000 C   0  0  0  0  0  0  0  0  0  0  0  0
    1.0717   -0.6187    0.0000 C   0  0  0  0  0  0  0  0  0  0  0  0
    1.7861    0.6187    0.0000 O   0  0  0  0  0  0  0  0  0  0  0  0
    0.3572    0.6187    0.0000 C   0  0  0  0  0  0  0  0  0  0  0  0
   -1.0716    0.6187    0.0000 O   0  0  0  0  0  0  0  0  0  0  0  0
    0.3572   -1.8562    0.0000 O   0  0  0  0  0  0  0  0  0  0  0  0
  2  1  2  0
  4  3  2  0
  5  8  1  0
  5 11  1  0
  6  9  1  0
  7  6  2  0
  8  1  1  0
  9  5  1  0
 10  3  1  0
 11  3  1  0
 12  1  1  0
 13  6  1  0
M  END
>  <DRUGBANK_ID>  (1) 
DB03040

>  <SECONDARY_ACCESSION_NUMBERS>  (1) 
EXPT02390

>  <COMMON_NAME>  (1) 
Nitrilotriacetic acid

>  <CAS_NUMBER>  (1) 
139-13-9

>  <UNII>  (1) 
KA90006V9D

>  <SYNONYMS>  (1) 
nitrilo-2,2',2''-triacetic acid; Nitrilotriacetate; Triglycine; Triglycollamic acid; α,α',α''-trimethylaminetricarboxylic acid

$$$$
