
     RDKit          2D

 18 19  0  0  0  0  0  0  0  0999 V2000
   -1.5056    0.2572    0.0000 C   0  0  0  0  0  0  0  0  0  0  0  0
    1.6689    1.9642    0.0000 C   0  0  0  0  0  0  0  0  0  0  0  0
   -0.7209    0.5122    0.0000 C   0  0  0  0  0  0  0  0  0  0  0  0
    1.2564    3.2338    0.0000 C   0  0  0  0  0  0  0  0  0  0  0  0
   -0.0535    0.0273    0.0000 C   0  0  0  0  0  0  0  0  0  0  0  0
    0.6139    0.5122    0.0000 C   0  0  0  0  0  0  0  0  0  0  0  0
    1.2564    4.0588    0.0000 C   0  0  0  0  0  0  0  0  0  0  0  0
    0.5890    2.7489    0.0000 C   0  0  0  0  0  0  0  0  0  0  0  0
    0.3590    1.2968    0.0000 C   0  0  0  0  0  0  0  0  0  0  0  0
    1.9709    4.4713    0.0000 N   0  0  0  0  0  0  0  0  0  0  0  0
    1.9239    2.7489    0.0000 N   0  0  0  0  0  0  0  0  0  0  0  0
    0.8439    1.9642    0.0000 N   0  0  0  0  0  0  0  0  0  0  0  0
   -1.6771   -0.5497    0.0000 O   0  0  0  0  0  0  0  0  0  0  0  0
   -0.0535   -0.7977    0.0000 O   0  0  0  0  0  0  0  0  0  0  0  0
    1.3986    0.2572    0.0000 O   0  0  0  0  0  0  0  0  0  0  0  0
    0.5420    4.4713    0.0000 O   0  0  0  0  0  0  0  0  0  0  0  0
   -0.1956    3.0038    0.0000 O   0  0  0  0  0  0  0  0  0  0  0  0
   -0.4660    1.2968    0.0000 O   0  0  0  0  0  0  0  0  0  0  0  0
  3  1  1  1
  5  3  1  0
  5 14  1  6
  6  5  1  0
  6 15  1  6
  7  4  1  0
  8  4  2  0
  9  6  1  0
  9 12  1  1
 10  7  1  0
 11  2  2  0
 11  4  1  0
 12  2  1  0
 12  8  1  0
 13  1  1  0
 16  7  2  0
 17  8  1  0
 18  3  1  0
 18  9  1  0
M  END
>  <DRUGBANK_ID>  (1) 
DB12617

>  <COMMON_NAME>  (1) 
Mizoribine

>  <CAS_NUMBER>  (1) 
50924-49-7

>  <UNII>  (1) 
4JR41A10VP

>  <SYNONYMS>  (1) 
BREDININ; Mizoribine

$$$$
