214
     RDKit          2D

 24 25  0  0  0  0  0  0  0  0999 V2000
    5.9363   -0.4125    0.0000 S   0  0  0  0  0  0  0  0  0  0  0  0
    5.1114   -0.4125    0.0000 O   0  0  0  0  0  0  0  0  0  0  0  0
    6.7612   -0.4125    0.0000 O   0  0  0  0  0  0  0  0  0  0  0  0
    7.3650    0.4125    0.0000 O   0  0  0  0  0  0  0  0  0  0  0  0
    6.6507    1.6498    0.0000 N   0  0  0  0  0  0  0  0  0  0  0  0
    4.5075   -1.2374    0.0000 N   0  0  0  0  0  0  0  0  0  0  0  0
    5.9363    0.4125    0.0000 N   0  0  0  0  0  0  0  0  0  0  0  0
    6.6507   -2.4748    0.0000 N   0  0  0  0  0  0  0  0  0  0  0  0
    7.3650    2.0623    0.0000 C   0  0  0  0  0  0  0  0  0  0  0  0
    5.9363   -1.2374    0.0000 C   0  0  0  0  0  0  0  0  0  0  0  0
    5.2218   -1.6498    0.0000 C   0  0  0  0  0  0  0  0  0  0  0  0
    3.7930   -1.6498    0.0000 C   0  0  0  0  0  0  0  0  0  0  0  0
    7.3650    2.8873    0.0000 C   0  0  0  0  0  0  0  0  0  0  0  0
    8.0794    1.6498    0.0000 C   0  0  0  0  0  0  0  0  0  0  0  0
    6.6507    0.8249    0.0000 C   0  0  0  0  0  0  0  0  0  0  0  0
    6.6507   -1.6498    0.0000 C   0  0  0  0  0  0  0  0  0  0  0  0
    5.2218   -2.4748    0.0000 C   0  0  0  0  0  0  0  0  0  0  0  0
    3.0787   -1.2374    0.0000 C   0  0  0  0  0  0  0  0  0  0  0  0
    2.3642   -1.6498    0.0000 C   0  0  0  0  0  0  0  0  0  0  0  0
    3.7930   -2.4748    0.0000 C   0  0  0  0  0  0  0  0  0  0  0  0
    5.9363   -2.8873    0.0000 C   0  0  0  0  0  0  0  0  0  0  0  0
    2.3642   -2.4748    0.0000 C   0  0  0  0  0  0  0  0  0  0  0  0
    3.0787   -2.8873    0.0000 C   0  0  0  0  0  0  0  0  0  0  0  0
    1.6498   -1.2374    0.0000 C   0  0  0  0  0  0  0  0  0  0  0  0
  1  2  2  0
  1  3  2  0
  1  7  1  0
  1 10  1  0
  4 15  2  0
  5  9  1  0
  5 15  1  0
  6 11  1  0
  6 12  1  0
  7 15  1  0
  8 16  2  0
  8 21  1  0
  9 13  1  0
  9 14  1  0
 10 11  2  0
 10 16  1  0
 11 17  1  0
 12 18  2  0
 12 20  1  0
 17 21  2  0
 18 19  1  0
 19 22  2  0
 19 24  1  0
 20 23  2  0
 22 23  1  0
M  END
>  <DRUGBANK_ID>  (1) 
DB00214

>  <SECONDARY_ACCESSION_NUMBERS>  (1) 
APRD00295; APRD00217

>  <COMMON_NAME>  (1) 
Torasemide

>  <CAS_NUMBER>  (1) 
56211-40-6

>  <UNII>  (1) 
W31X2H97FB

>  <SYNONYMS>  (1) 
1-Isopropyl-3-((4-m-toluidino-3-pyridyl)sulfonyl)urea; N-(((1-Methylethyl)amino)carbonyl)-4-((3-methylphenyl)amino)-3-pyridinesulfonamide; Torasemida; Torasemide; Toras√©mide; Torasemidum; Torsemide

$$$$
