INT
     RDKit          2D

 33 34  0  0  0  0  0  0  0  0999 V2000
   -2.7790    0.2153    0.0000 C   0  0  0  0  0  0  0  0  0  0  0  0
   -2.7790    1.0403    0.0000 C   0  0  0  0  0  0  0  0  0  0  0  0
   -2.0645    1.4528    0.0000 O   0  0  0  0  0  0  0  0  0  0  0  0
   -3.4934   -0.1972    0.0000 C   0  0  0  0  0  0  0  0  0  0  0  0
   -4.2079    0.2153    0.0000 C   0  0  0  0  0  0  0  0  0  0  0  0
   -4.9224   -0.1972    0.0000 C   0  0  0  0  0  0  0  0  0  0  0  0
   -5.6368    0.2153    0.0000 C   0  0  0  0  0  0  0  0  0  0  0  0
   -5.6368    1.0403    0.0000 C   0  0  0  0  0  0  0  0  0  0  0  0
   -4.9224    1.4528    0.0000 C   0  0  0  0  0  0  0  0  0  0  0  0
   -4.2079    1.0403    0.0000 C   0  0  0  0  0  0  0  0  0  0  0  0
   -2.0645   -0.1972    0.0000 N   0  0  0  0  0  0  0  0  0  0  0  0
   -0.6355   -0.1972    0.0000 C   0  0  0  0  0  0  0  0  0  0  0  0
   -1.3500    0.2153    0.0000 C   0  0  0  0  0  0  0  0  0  0  0  0
   -1.3500    1.0403    0.0000 O   0  0  0  0  0  0  0  0  0  0  0  0
   -0.6355   -1.0222    0.0000 C   0  0  0  0  0  0  0  0  0  0  0  0
    0.0789   -1.4347    0.0000 C   0  0  0  0  0  0  0  0  0  0  0  0
   -1.3500   -1.4347    0.0000 C   0  0  0  0  0  0  0  0  0  0  0  0
    0.0789    0.2153    0.0000 N   0  0  0  0  0  0  0  0  0  0  0  0
    0.7934   -0.1972    0.0000 C   0  0  0  0  0  0  0  0  0  0  0  0
    0.7934   -1.0222    0.0000 O   0  0  0  0  0  0  0  0  0  0  0  0
    1.5079    0.2153    0.0000 C   0  0  0  0  0  0  0  0  0  0  0  0
    1.5079    1.0403    0.0000 C   0  0  0  0  0  0  0  0  0  0  0  0
    2.2223   -0.1972    0.0000 N   0  0  0  0  0  0  0  0  0  0  0  0
    2.9368    0.2153    0.0000 C   0  0  0  0  0  0  0  0  0  0  0  0
    2.9368    1.0403    0.0000 O   0  0  0  0  0  0  0  0  0  0  0  0
    3.6513   -0.1972    0.0000 O   0  0  0  0  0  0  0  0  0  0  0  0
    4.3657    0.2153    0.0000 C   0  0  0  0  0  0  0  0  0  0  0  0
    5.0802   -0.1972    0.0000 C   0  0  0  0  0  0  0  0  0  0  0  0
    5.7947    0.2153    0.0000 C   0  0  0  0  0  0  0  0  0  0  0  0
    6.5092   -0.1972    0.0000 C   0  0  0  0  0  0  0  0  0  0  0  0
    6.5092   -1.0222    0.0000 C   0  0  0  0  0  0  0  0  0  0  0  0
    5.7947   -1.4347    0.0000 C   0  0  0  0  0  0  0  0  0  0  0  0
    5.0802   -1.0222    0.0000 C   0  0  0  0  0  0  0  0  0  0  0  0
  1  2  1  1
  1  4  1  0
  1 11  1  0
  2  3  1  0
  4  5  1  0
  5  6  2  0
  5 10  1  0
  6  7  1  0
  7  8  2  0
  8  9  1  0
  9 10  2  0
 11 13  1  0
 12 13  1  0
 12 15  1  0
 12 18  1  1
 13 14  2  0
 15 16  1  0
 15 17  1  0
 18 19  1  0
 19 20  2  0
 19 21  1  0
 21 22  1  6
 21 23  1  0
 23 24  1  0
 24 25  2  0
 24 26  1  0
 26 27  1  0
 27 28  1  0
 28 29  2  0
 28 33  1  0
 29 30  1  0
 30 31  2  0
 31 32  1  0
 32 33  2  0
M  END
>  <DRUGBANK_ID>  (1) 
DB01891

>  <SECONDARY_ACCESSION_NUMBERS>  (1) 
EXPT01893

>  <COMMON_NAME>  (1) 
Tl-3-093

$$$$
