F3F
     RDKit          2D

 25 27  0  0  0  0  0  0  0  0999 V2000
   -0.8859    3.0021    0.0000 C   0  0  0  0  0  0  0  0  0  0  0  0
   -0.8859    3.8271    0.0000 C   0  0  0  0  0  0  0  0  0  0  0  0
   -0.1714    4.2396    0.0000 C   0  0  0  0  0  0  0  0  0  0  0  0
    0.5431    3.8271    0.0000 C   0  0  0  0  0  0  0  0  0  0  0  0
    0.5431    3.0021    0.0000 C   0  0  0  0  0  0  0  0  0  0  0  0
   -0.1714    2.5896    0.0000 C   0  0  0  0  0  0  0  0  0  0  0  0
   -0.1714    1.7646    0.0000 C   0  0  0  0  0  0  0  0  0  0  0  0
   -0.1714    0.9396    0.0000 C   0  0  0  0  0  0  0  0  0  0  0  0
   -0.1714    0.1146    0.0000 C   0  0  0  0  0  0  0  0  0  0  0  0
    0.4961   -0.3703    0.0000 O   0  0  0  0  0  0  0  0  0  0  0  0
   -0.8388   -0.3703    0.0000 C   0  0  0  0  0  0  0  0  0  0  0  0
   -0.5839   -1.1549    0.0000 C   0  0  0  0  0  0  0  0  0  0  0  0
    0.2411   -1.1549    0.0000 C   0  0  0  0  0  0  0  0  0  0  0  0
    0.7260   -1.8224    0.0000 C   0  0  0  0  0  0  0  0  0  0  0  0
    0.3905   -2.5760    0.0000 O   0  0  0  0  0  0  0  0  0  0  0  0
    1.5465   -1.7361    0.0000 S   0  0  0  0  0  0  0  0  0  0  0  0
    2.0314   -2.4036    0.0000 C   0  0  0  0  0  0  0  0  0  0  0  0
    2.8564   -2.4036    0.0000 N   0  0  0  0  0  0  0  0  0  0  0  0
    3.1114   -3.1882    0.0000 C   0  0  0  0  0  0  0  0  0  0  0  0
    3.8960   -3.4431    0.0000 C   0  0  0  0  0  0  0  0  0  0  0  0
    4.6806   -3.6981    0.0000 F   0  0  0  0  0  0  0  0  0  0  0  0
    3.6411   -4.2278    0.0000 F   0  0  0  0  0  0  0  0  0  0  0  0
    4.1509   -2.6585    0.0000 F   0  0  0  0  0  0  0  0  0  0  0  0
    2.4439   -3.6731    0.0000 N   0  0  0  0  0  0  0  0  0  0  0  0
    1.7765   -3.1882    0.0000 N   0  0  0  0  0  0  0  0  0  0  0  0
  1  2  2  0
  1  6  1  0
  2  3  1  0
  3  4  2  0
  4  5  1  0
  5  6  2  0
  6  7  1  0
  7  8  3  0
  8  9  1  0
  9 10  1  0
  9 11  2  0
 10 13  1  0
 11 12  1  0
 12 13  2  0
 13 14  1  0
 14 15  2  0
 14 16  1  0
 16 17  1  0
 17 18  1  0
 17 25  2  0
 18 19  1  0
 19 20  1  0
 19 24  2  0
 20 21  1  0
 20 22  1  0
 20 23  1  0
 24 25  1  0
M  END
>  <DRUGBANK_ID>  (1) 
DB07743

>  <COMMON_NAME>  (1) 
S-[5-(TRIFLUOROMETHYL)-4H-1,2,4-TRIAZOL-3-YL] 5-(PHENYLETHYNYL)FURAN-2-CARBOTHIOATE

$$$$
