
     RDKit          2D

 33 32  0  0  0  0  0  0  0  0999 V2000
   -4.8168    0.5051    0.0000 C   0  0  0  0  0  0  0  0  0  0  0  0
   -4.8203   -0.3297    0.0000 C   0  0  0  0  0  0  0  0  0  0  0  0
   -5.6096    0.7577    0.0000 C   0  0  0  0  0  0  0  0  0  0  0  0
   -3.9715    1.2523    0.0000 C   0  0  0  0  0  0  0  0  0  0  0  0
   -5.5991   -0.5858    0.0000 C   0  0  0  0  0  0  0  0  0  0  0  0
   -4.1013   -0.7401    0.0000 C   0  0  0  0  0  0  0  0  0  0  0  0
   -6.0937    0.0807    0.0000 C   0  0  0  0  0  0  0  0  0  0  0  0
   -5.8796    1.5679    0.0000 O   0  0  0  0  0  0  0  0  0  0  0  0
   -3.2557    0.8313    0.0000 C   0  0  0  0  0  0  0  0  0  0  0  0
   -5.8622   -1.4032    0.0000 O   0  0  0  0  0  0  0  0  0  0  0  0
   -3.3856   -0.3297    0.0000 C   0  0  0  0  0  0  0  0  0  0  0  0
   -2.4350    0.8313    0.0000 C   0  0  0  0  0  0  0  0  0  0  0  0
   -2.6700   -0.7401    0.0000 C   0  0  0  0  0  0  0  0  0  0  0  0
   -1.7228    1.2523    0.0000 C   0  0  0  0  0  0  0  0  0  0  0  0
   -1.9544   -0.3297    0.0000 C   0  0  0  0  0  0  0  0  0  0  0  0
   -2.6700   -1.5679    0.0000 O   0  0  0  0  0  0  0  0  0  0  0  0
   -1.0143    0.8418    0.0000 C   0  0  0  0  0  0  0  0  0  0  0  0
   -1.2388   -0.7401    0.0000 C   0  0  0  0  0  0  0  0  0  0  0  0
   -0.2986    1.2557    0.0000 C   0  0  0  0  0  0  0  0  0  0  0  0
   -0.5127   -0.3297    0.0000 C   0  0  0  0  0  0  0  0  0  0  0  0
    0.4133    0.8488    0.0000 C   0  0  0  0  0  0  0  0  0  0  0  0
    0.1923   -0.7401    0.0000 C   0  0  0  0  0  0  0  0  0  0  0  0
    1.1429    1.2803    0.0000 O   0  0  0  0  0  0  0  0  0  0  0  0
    0.4204    0.0070    0.0000 O   0  0  0  0  0  0  0  0  0  0  0  0
    0.9184   -0.3297    0.0000 C   0  0  0  0  0  0  0  0  0  0  0  0
    4.7081    0.0548    0.0000 C   0  0  0  0  0  0  0  0  0  0  0  0
    4.0206    0.4511    0.0000 C   0  0  0  0  0  0  0  0  0  0  0  0
    4.7081   -0.7555    0.0000 C   0  0  0  0  0  0  0  0  0  0  0  0
    5.3956    0.4407    0.0000 C   0  0  0  0  0  0  0  0  0  0  0  0
    4.6906    1.1528    0.0000 N   0  0  0  0  0  0  0  0  0  0  0  0
    3.3330    0.0548    0.0000 O   0  0  0  0  0  0  0  0  0  0  0  0
    5.3956   -1.1519    0.0000 O   0  0  0  0  0  0  0  0  0  0  0  0
    6.0937    0.0443    0.0000 O   0  0  0  0  0  0  0  0  0  0  0  0
  1  2  1  0
  1  3  1  0
  1  4  1  6
  2  5  1  0
  2  6  1  1
  3  7  1  0
  3  8  1  6
  4  9  1  0
  5  7  1  0
  5 10  1  6
  6 11  2  0
  9 12  2  0
 11 13  1  0
 12 14  1  0
 13 15  1  0
 13 16  1  6
 14 17  1  0
 15 18  1  0
 17 19  1  0
 18 20  1  0
 19 21  1  0
 20 22  1  0
 21 23  1  0
 21 24  2  0
 22 25  1  0
 26 27  1  0
 26 28  1  0
 26 29  1  0
 26 30  1  0
 27 31  1  0
 28 32  1  0
 29 33  1  0
M  END
>  <DRUGBANK_ID>  (1) 
DB01160

>  <SECONDARY_ACCESSION_NUMBERS>  (1) 
APRD00926

>  <COMMON_NAME>  (1) 
Dinoprost tromethamine

>  <CAS_NUMBER>  (1) 
38562-01-5

>  <UNII>  (1) 
CT6BBQ5A68

>  <SYNONYMS>  (1) 
Dinoprost trometamol; Dinoprost tromethamine; PGF2-alpha THAM; PGF2A THAM; PGF2alpha THAM; Prostaglandin F2-alpha THAM; Prostaglandin F2a tromethamine; Prostaglandin F2alpha tham; Prostin F2 Alpha

$$$$
