
     RDKit          2D

 12 11  0  0  0  0  0  0  0  0999 V2000
   -0.0017    0.8252    0.0000 C   0  0  0  0  0  0  0  0  0  0  0  0
   -0.7161    0.4124    0.0000 C   0  0  0  0  0  0  0  0  0  0  0  0
   -0.7158   -0.4125    0.0000 C   0  0  0  0  0  0  0  0  0  0  0  0
    0.7128   -0.4120    0.0000 C   0  0  0  0  0  0  0  0  0  0  0  0
   -0.0013   -0.8246    0.0000 C   0  0  0  0  0  0  0  0  0  0  0  0
   -1.4308    0.8245    0.0000 C   0  0  0  0  0  0  0  0  0  0  0  0
   -2.1450    0.4119    0.0000 C   0  0  0  0  0  0  0  0  0  0  0  0
   -1.4301   -0.8252    0.0000 C   0  0  0  0  0  0  0  0  0  0  0  0
   -2.1448   -0.4131    0.0000 C   0  0  0  0  0  0  0  0  0  0  0  0
    0.7128    0.4068    0.0000 O   0  0  0  0  0  0  0  0  0  0  0  0
    1.4275   -0.8242    0.0000 O   0  0  0  0  0  0  0  0  0  0  0  0
    2.1450   -0.4161    0.0000 C   0  0  0  0  0  0  0  0  0  0  0  0
  2  1  1  0
  4 11  1  0
  5  3  1  0
  5  4  1  0
  6  2  1  0
  7  6  1  0
  8  3  1  0
  9  7  1  0
  9  8  1  0
 10  4  2  0
 11 12  1  0
M  END
>  <DRUGBANK_ID>  (1) 
DB01631

>  <SECONDARY_ACCESSION_NUMBERS>  (1) 
EXPT02376

>  <COMMON_NAME>  (1) 
Methyl nonanoate

>  <CAS_NUMBER>  (1) 
1731-84-6

>  <UNII>  (1) 
7XKD6QOH68

>  <SYNONYMS>  (1) 
Methyl ester nonanoic acid; Methyl n-nonanoate; Methyl nonylate; Methyl pelargonate; Pelargonic acid methyl ester

$$$$
