4HD
     RDKit          2D

 25 24  0  0  0  0  0  0  0  0999 V2000
   -3.9422   -1.6735    0.0000 O   0  0  0  0  0  0  0  0  0  0  0  0
   -3.2277   -2.9110    0.0000 O   0  0  0  0  0  0  0  0  0  0  0  0
   -3.2277   -2.0860    0.0000 C   0  0  0  0  0  0  0  0  0  0  0  0
   -2.5133   -1.6735    0.0000 C   0  0  0  0  0  0  0  0  0  0  0  0
   -1.7988   -2.0860    0.0000 C   0  0  0  0  0  0  0  0  0  0  0  0
   -1.0843   -1.6735    0.0000 C   0  0  0  0  0  0  0  0  0  0  0  0
   -0.3699   -2.0860    0.0000 C   0  0  0  0  0  0  0  0  0  0  0  0
    0.3446   -1.6735    0.0000 C   0  0  0  0  0  0  0  0  0  0  0  0
    1.0591   -2.0860    0.0000 C   0  0  0  0  0  0  0  0  0  0  0  0
    1.7736   -1.6735    0.0000 C   0  0  0  0  0  0  0  0  0  0  0  0
    1.7736   -0.8485    0.0000 C   0  0  0  0  0  0  0  0  0  0  0  0
    2.4880   -0.4360    0.0000 C   0  0  0  0  0  0  0  0  0  0  0  0
    2.4880    0.3890    0.0000 C   0  0  0  0  0  0  0  0  0  0  0  0
    1.7736    0.8015    0.0000 C   0  0  0  0  0  0  0  0  0  0  0  0
    1.7736    1.6265    0.0000 C   0  0  0  0  0  0  0  0  0  0  0  0
    1.0591    2.0390    0.0000 C   0  0  0  0  0  0  0  0  0  0  0  0
    0.3446    1.6265    0.0000 C   0  0  0  0  0  0  0  0  0  0  0  0
   -0.3699    2.0390    0.0000 C   0  0  0  0  0  0  0  0  0  0  0  0
   -1.0843    1.6265    0.0000 C   0  0  0  0  0  0  0  0  0  0  0  0
   -1.0843    0.8015    0.0000 C   0  0  0  0  0  0  0  0  0  0  0  0
   -1.7988    0.3890    0.0000 C   0  0  0  0  0  0  0  0  0  0  0  0
   -2.5133    0.8015    0.0000 C   0  0  0  0  0  0  0  0  0  0  0  0
   -2.5133    1.6265    0.0000 C   0  0  0  0  0  0  0  0  0  0  0  0
   -1.7988    2.0390    0.0000 C   0  0  0  0  0  0  0  0  0  0  0  0
   -1.0843   -0.8485    0.0000 O   0  0  0  0  0  0  0  0  0  0  0  0
  1  3  1  0
  2  3  2  0
  3  4  1  0
  4  5  1  0
  5  6  1  0
  6  7  1  0
  6 25  1  6
  7  8  2  0
  8  9  1  0
  9 10  2  0
 10 11  1  0
 11 12  1  0
 12 13  2  0
 13 14  1  0
 14 15  1  0
 15 16  2  0
 16 17  1  0
 17 18  1  0
 18 19  2  0
 19 20  1  0
 20 21  1  0
 21 22  2  0
 22 23  1  0
 23 24  1  0
M  END
>  <DRUGBANK_ID>  (1) 
DB07111

>  <COMMON_NAME>  (1) 
(4S,5E,7Z,10Z,13Z,16Z,19Z)-4-hydroxydocosa-5,7,10,13,16,19-hexaenoic acid

$$$$
