
     RDKit          2D

 14 14  0  0  0  0  0  0  0  0999 V2000
   -1.7860    0.4124    0.0000 C   0  0  0  0  0  0  0  0  0  0  0  0
   -2.5006    0.0000    0.0000 C   0  0  0  0  0  0  0  0  0  0  0  0
   -2.5006   -0.8250    0.0000 C   0  0  0  0  0  0  0  0  0  0  0  0
   -1.7860   -1.2375    0.0000 C   0  0  0  0  0  0  0  0  0  0  0  0
   -1.0718   -0.8250    0.0000 C   0  0  0  0  0  0  0  0  0  0  0  0
   -1.0718    0.0000    0.0000 C   0  0  0  0  0  0  0  0  0  0  0  0
   -0.3571    0.4124    0.0000 C   0  0  0  0  0  0  0  0  0  0  0  0
   -0.3571   -1.2375    0.0000 O   0  0  0  0  0  0  0  0  0  0  0  0
    0.3572    0.0000    0.0000 C   0  0  0  0  0  0  0  0  0  0  0  0
    1.0717    0.4125    0.0000 C   0  0  0  0  0  0  0  0  0  0  0  0
    1.7862    0.0000    0.0000 C   0  0  0  0  0  0  0  0  0  0  0  0
    2.5006    0.4126    0.0000 O   0  0  0  0  0  0  0  0  0  0  0  0
    1.7862   -0.8249    0.0000 O   0  0  0  0  0  0  0  0  0  0  0  0
    1.0717    1.2375    0.0000 O   0  0  0  0  0  0  0  0  0  0  0  0
  1  2  2  0
  1  6  1  0
  2  3  1  0
  3  4  2  0
  4  5  1  0
  5  8  1  0
  6  5  2  0
  7  6  1  0
  7  9  2  0
  9 10  1  0
 10 11  1  0
 10 14  2  0
 11 12  1  0
 11 13  2  0
M  END
>  <DRUGBANK_ID>  (1) 
DB08636

>  <COMMON_NAME>  (1) 
2-Hydroxybenzalpyruvate

>  <CAS_NUMBER>  (1) 
90293-62-2

>  <UNII>  (1) 
8WGN3TR2PL

>  <SYNONYMS>  (1) 
(3E)-4-(2-Hydroxyphenyl)-2-oxobut-3-enoate; (3E)-4-(2-hydroxyphenyl)-2-oxobut-3-enoic acid; 4-(2-Hydroxyphenyl)-2-oxo-3-butenoic acid; ortho-Hydroxybenzalpyruvate

$$$$
