
     RDKit          2D

 37 39  0  0  1  0  0  0  0  0999 V2000
    4.0122   -6.8577    0.0000 C   0  0  0  0  0  0  0  0  0  0  0  0
    4.7267   -7.2702    0.0000 C   0  0  0  0  0  0  0  0  0  0  0  0
    5.4411   -6.8577    0.0000 O   0  0  0  0  0  0  0  0  0  0  0  0
    6.1556   -7.2702    0.0000 C   0  0  0  0  0  0  0  0  0  0  0  0
    6.1556   -8.0952    0.0000 O   0  0  0  0  0  0  0  0  0  0  0  0
    6.8701   -6.8577    0.0000 O   0  0  0  0  0  0  0  0  0  0  0  0
    7.5846   -7.2702    0.0000 C   0  0  0  0  0  0  0  0  0  0  0  0
    8.2990   -6.8577    0.0000 C   0  0  0  0  0  0  0  0  0  0  0  0
    8.2990   -6.0327    0.0000 C   0  0  0  0  0  0  0  0  0  0  0  0
    9.0135   -5.6202    0.0000 C   0  0  0  0  0  0  0  0  0  0  0  0
    9.7280   -6.0327    0.0000 C   0  0  0  0  0  0  0  0  0  0  0  0
    9.7280   -6.8577    0.0000 C   0  0  0  0  0  0  0  0  0  0  0  0
    9.0135   -7.2702    0.0000 O   0  0  0  0  0  0  0  0  0  0  0  0
   10.4424   -7.2702    0.0000 O   0  0  0  0  0  0  0  0  0  0  0  0
   10.4424   -8.0952    0.0000 C   0  0  0  0  0  0  0  0  0  0  0  0
   11.1099   -8.5801    0.0000 C   0  0  0  0  0  0  0  0  0  0  0  0
   10.8549   -9.3647    0.0000 C   0  0  0  0  0  0  0  0  0  0  0  0
   10.0299   -9.3647    0.0000 N   0  0  0  0  0  0  0  0  0  0  0  0
    9.7750   -8.5801    0.0000 N   0  0  0  0  0  0  0  0  0  0  0  0
    9.5450  -10.0321    0.0000 C   0  0  0  0  0  0  0  0  0  0  0  0
    8.7245   -9.9459    0.0000 C   0  0  0  0  0  0  0  0  0  0  0  0
    9.8806  -10.7858    0.0000 C   0  0  0  0  0  0  0  0  0  0  0  0
   11.3399  -10.0321    0.0000 C   0  0  0  0  0  0  0  0  0  0  0  0
   11.8945   -8.3251    0.0000 C   0  0  0  0  0  0  0  0  0  0  0  0
   12.5076   -8.8772    0.0000 C   0  0  0  0  0  0  0  0  0  0  0  0
   13.2922   -8.6222    0.0000 C   0  0  0  0  0  0  0  0  0  0  0  0
   13.9053   -9.1743    0.0000 C   0  0  0  0  0  0  0  0  0  0  0  0
   13.7338   -9.9812    0.0000 C   0  0  0  0  0  0  0  0  0  0  0  0
   12.9492  -10.2362    0.0000 C   0  0  0  0  0  0  0  0  0  0  0  0
   12.3361   -9.6841    0.0000 C   0  0  0  0  0  0  0  0  0  0  0  0
   14.3469  -10.5333    0.0000 O   0  0  0  0  0  0  0  0  0  0  0  0
   14.1754  -11.3402    0.0000 C   0  0  0  0  0  0  0  0  0  0  0  0
   14.7885  -11.8923    0.0000 C   0  0  0  0  0  0  0  0  0  0  0  0
   13.3907  -11.5952    0.0000 C   0  0  0  0  0  0  0  0  0  0  0  0
   10.4424   -5.6202    0.0000 O   0  0  0  0  0  0  0  0  0  0  0  0
    9.0135   -4.7952    0.0000 O   0  0  0  0  0  0  0  0  0  0  0  0
    7.5846   -5.6202    0.0000 O   0  0  0  0  0  0  0  0  0  0  0  0
  1  2  1  0
  2  3  1  0
  3  4  1  0
  4  5  2  0
  4  6  1  0
  6  7  1  0
  8  7  1  6
  8  9  1  0
  8 13  1  0
  9 10  1  0
  9 37  1  1
 10 11  1  0
 10 36  1  6
 11 12  1  0
 11 35  1  1
 12 13  1  0
 12 14  1  6
 14 15  1  0
 15 16  1  0
 15 19  2  0
 16 17  2  0
 16 24  1  0
 17 18  1  0
 17 23  1  0
 18 19  1  0
 18 20  1  0
 20 21  1  0
 20 22  1  0
 24 25  1  0
 25 26  2  0
 25 30  1  0
 26 27  1  0
 27 28  2  0
 28 29  1  0
 28 31  1  0
 29 30  2  0
 31 32  1  0
 32 33  1  0
 32 34  1  0
M  END
>  <DRUGBANK_ID>  (1) 
DB12935

>  <COMMON_NAME>  (1) 
Remogliflozin etabonate

>  <CAS_NUMBER>  (1) 
442201-24-3

>  <UNII>  (1) 
TR0QT6QSUL

>  <SYNONYMS>  (1) 
Remogliflozin etabonate

$$$$
