
     RDKit          2D

 29 32  0  0  0  0  0  0  0  0999 V2000
    0.0000   -0.0000    0.0000 C   0  0  0  0  0  0  0  0  0  0  0  0
    0.7145   -0.4125    0.0000 C   0  0  0  0  0  0  0  0  0  0  0  0
    0.7145   -1.2375    0.0000 C   0  0  0  0  0  0  0  0  0  0  0  0
    1.3819   -1.7224    0.0000 N   0  0  0  0  0  0  0  0  0  0  0  0
    1.1270   -2.5070    0.0000 C   0  0  0  0  0  0  0  0  0  0  0  0
    0.3020   -2.5070    0.0000 C   0  0  0  0  0  0  0  0  0  0  0  0
    0.0470   -1.7224    0.0000 S   0  0  0  0  0  0  0  0  0  0  0  0
   -0.1830   -3.1745    0.0000 C   0  0  0  0  0  0  0  0  0  0  0  0
    0.1526   -3.9282    0.0000 C   0  0  0  0  0  0  0  0  0  0  0  0
   -0.3323   -4.5956    0.0000 C   0  0  0  0  0  0  0  0  0  0  0  0
    0.0032   -5.3493    0.0000 N   0  0  0  0  0  0  0  0  0  0  0  0
   -0.4817   -6.0167    0.0000 C   0  0  0  0  0  0  0  0  0  0  0  0
   -1.3022   -5.9305    0.0000 O   0  0  0  0  0  0  0  0  0  0  0  0
   -0.1461   -6.7704    0.0000 C   0  0  0  0  0  0  0  0  0  0  0  0
    0.6744   -6.8566    0.0000 C   0  0  0  0  0  0  0  0  0  0  0  0
    1.0099   -7.6103    0.0000 C   0  0  0  0  0  0  0  0  0  0  0  0
    0.5250   -8.2777    0.0000 C   0  0  0  0  0  0  0  0  0  0  0  0
   -0.2955   -8.1915    0.0000 C   0  0  0  0  0  0  0  0  0  0  0  0
   -0.6310   -7.4378    0.0000 C   0  0  0  0  0  0  0  0  0  0  0  0
   -1.1528   -4.5094    0.0000 N   0  0  0  0  0  0  0  0  0  0  0  0
   -1.4884   -3.7557    0.0000 C   0  0  0  0  0  0  0  0  0  0  0  0
   -1.0034   -3.0882    0.0000 C   0  0  0  0  0  0  0  0  0  0  0  0
    1.6119   -3.1745    0.0000 C   0  0  0  0  0  0  0  0  0  0  0  0
    2.4324   -3.0882    0.0000 C   0  0  0  0  0  0  0  0  0  0  0  0
    2.9173   -3.7557    0.0000 C   0  0  0  0  0  0  0  0  0  0  0  0
    2.5817   -4.5094    0.0000 C   0  0  0  0  0  0  0  0  0  0  0  0
    1.7613   -4.5956    0.0000 C   0  0  0  0  0  0  0  0  0  0  0  0
    1.4257   -5.3493    0.0000 C   0  0  0  0  0  0  0  0  0  0  0  0
    1.2763   -3.9282    0.0000 C   0  0  0  0  0  0  0  0  0  0  0  0
  1  2  1  0
  2  3  1  0
  3  4  2  0
  3  7  1  0
  4  5  1  0
  5  6  2  0
  5 23  1  0
  6  7  1  0
  6  8  1  0
  8  9  2  0
  8 22  1  0
  9 10  1  0
 10 11  1  0
 10 20  2  0
 11 12  1  0
 12 13  2  0
 12 14  1  0
 14 15  2  0
 14 19  1  0
 15 16  1  0
 16 17  2  0
 17 18  1  0
 18 19  2  0
 20 21  1  0
 21 22  2  0
 23 24  2  0
 23 29  1  0
 24 25  1  0
 25 26  2  0
 26 27  1  0
 27 28  1  0
 27 29  2  0
M  END
>  <DRUGBANK_ID>  (1) 
DB16108

>  <COMMON_NAME>  (1) 
TAK-715

>  <CAS_NUMBER>  (1) 
303162-79-0

>  <UNII>  (1) 
WE92U03C5Z

$$$$
