
     RDKit          2D

 28 31  0  0  0  0  0  0  0  0999 V2000
    6.3443    0.4707    0.0000 O   0  0  0  0  0  0  0  0  0  0  0  0
    2.9449   -1.8662    0.0000 N   0  0  0  0  0  0  0  0  0  0  0  0
    6.9069    3.3516    0.0000 N   0  0  0  0  0  0  0  0  0  0  0  0
    4.3047   -0.9314    0.0000 C   0  0  0  0  0  0  0  0  0  0  0  0
    3.5599   -0.5764    0.0000 C   0  0  0  0  0  0  0  0  0  0  0  0
    4.3694   -1.7539    0.0000 C   0  0  0  0  0  0  0  0  0  0  0  0
    2.8801   -1.0437    0.0000 C   0  0  0  0  0  0  0  0  0  0  0  0
    3.6896   -2.2213    0.0000 C   0  0  0  0  0  0  0  0  0  0  0  0
    4.9845   -0.4641    0.0000 C   0  0  0  0  0  0  0  0  0  0  0  0
    4.9197    0.3584    0.0000 C   0  0  0  0  0  0  0  0  0  0  0  0
    2.2651   -2.3336    0.0000 C   0  0  0  0  0  0  0  0  0  0  0  0
    5.5995    0.8258    0.0000 C   0  0  0  0  0  0  0  0  0  0  0  0
    2.3299   -3.1560    0.0000 C   0  0  0  0  0  0  0  0  0  0  0  0
    5.5347    1.6482    0.0000 C   0  0  0  0  0  0  0  0  0  0  0  0
    5.4203    3.3516    0.0000 C   0  0  0  0  0  0  0  0  0  0  0  0
    5.2367    4.1559    0.0000 C   0  0  0  0  0  0  0  0  0  0  0  0
    6.1636    2.9936    0.0000 C   0  0  0  0  0  0  0  0  0  0  0  0
    5.7511    4.8009    0.0000 C   0  0  0  0  0  0  0  0  0  0  0  0
    6.5761    4.8009    0.0000 C   0  0  0  0  0  0  0  0  0  0  0  0
    6.2410    2.1378    0.0000 C   0  0  0  0  0  0  0  0  0  0  0  0
    7.0905    4.1559    0.0000 C   0  0  0  0  0  0  0  0  0  0  0  0
    4.7605    2.0211    0.0000 C   0  0  0  0  0  0  0  0  0  0  0  0
    3.0746   -3.5111    0.0000 C   0  0  0  0  0  0  0  0  0  0  0  0
    1.6500   -3.6234    0.0000 C   0  0  0  0  0  0  0  0  0  0  0  0
    4.7028    2.8785    0.0000 C   0  0  0  0  0  0  0  0  0  0  0  0
    3.1394   -4.3336    0.0000 C   0  0  0  0  0  0  0  0  0  0  0  0
    1.7149   -4.4458    0.0000 C   0  0  0  0  0  0  0  0  0  0  0  0
    2.4595   -4.8009    0.0000 C   0  0  0  0  0  0  0  0  0  0  0  0
  1 12  2  0
  2  7  1  0
  2  8  1  0
  2 11  1  0
  3 17  1  0
  3 21  1  0
  4  5  1  0
  4  6  1  0
  4  9  1  0
  5  7  1  0
  6  8  1  0
  9 10  1  0
 10 12  1  0
 11 13  1  0
 12 14  1  0
 13 23  2  0
 13 24  1  0
 14 20  2  0
 14 22  1  0
 15 16  1  0
 15 17  2  0
 15 25  1  0
 16 18  1  0
 17 20  1  0
 18 19  1  0
 19 21  1  0
 22 25  2  0
 23 26  1  0
 24 27  2  0
 26 28  2  0
 27 28  1  0
M  END
>  <DRUGBANK_ID>  (1) 
DB04859

>  <COMMON_NAME>  (1) 
Zanapezil

>  <CAS_NUMBER>  (1) 
142852-50-4

>  <UNII>  (1) 
0A0800O89N

>  <SYNONYMS>  (1) 
Zanapezil; Zanepezil

$$$$
