ETP
     RDKit          2D

 27 29  0  0  0  0  0  0  0  0999 V2000
    3.0953    1.8776    0.0000 B   0  0  0  0  0  0  0  0  0  0  0  0
    3.8098    2.2901    0.0000 O   0  0  0  0  0  0  0  0  0  0  0  0
    3.0953    1.0526    0.0000 O   0  0  0  0  0  0  0  0  0  0  0  0
    2.3809    2.2901    0.0000 C   0  0  0  0  0  0  0  0  0  0  0  0
    1.6664    1.8776    0.0000 C   0  0  0  0  0  0  0  0  0  0  0  0
    0.9519    2.2901    0.0000 C   0  0  0  0  0  0  0  0  0  0  0  0
    0.2374    1.8776    0.0000 N   0  0  0  0  0  0  0  0  0  0  0  0
    0.9519    3.1151    0.0000 C   0  0  0  0  0  0  0  0  0  0  0  0
    1.6664    3.5276    0.0000 C   0  0  0  0  0  0  0  0  0  0  0  0
    2.3809    3.1151    0.0000 C   0  0  0  0  0  0  0  0  0  0  0  0
    0.2374    1.0526    0.0000 S   0  0  0  0  0  0  0  0  0  0  0  0
   -0.5876    1.0526    0.0000 O   0  0  0  0  0  0  0  0  0  0  0  0
    1.0624    1.0526    0.0000 O   0  0  0  0  0  0  0  0  0  0  0  0
    0.9049   -0.2573    0.0000 S   0  0  0  0  0  0  0  0  0  0  0  0
    0.6499   -1.0420    0.0000 C   0  0  0  0  0  0  0  0  0  0  0  0
   -0.1751   -1.0420    0.0000 C   0  0  0  0  0  0  0  0  0  0  0  0
   -0.4300   -0.2573    0.0000 C   0  0  0  0  0  0  0  0  0  0  0  0
    0.2374    0.2276    0.0000 C   0  0  0  0  0  0  0  0  0  0  0  0
   -0.6600   -1.7094    0.0000 S   0  0  0  0  0  0  0  0  0  0  0  0
   -1.3274   -1.2245    0.0000 O   0  0  0  0  0  0  0  0  0  0  0  0
    0.0075   -2.1943    0.0000 O   0  0  0  0  0  0  0  0  0  0  0  0
   -1.1449   -2.3768    0.0000 C   0  0  0  0  0  0  0  0  0  0  0  0
   -0.8093   -3.1305    0.0000 C   0  0  0  0  0  0  0  0  0  0  0  0
   -1.2943   -3.7979    0.0000 C   0  0  0  0  0  0  0  0  0  0  0  0
   -2.1147   -3.7117    0.0000 C   0  0  0  0  0  0  0  0  0  0  0  0
   -2.4503   -2.9580    0.0000 C   0  0  0  0  0  0  0  0  0  0  0  0
   -1.9654   -2.2906    0.0000 C   0  0  0  0  0  0  0  0  0  0  0  0
  1  2  1  0
  1  3  1  0
  1  4  1  0
  4  5  2  0
  4 10  1  0
  5  6  1  0
  6  7  1  0
  6  8  2  0
  7 11  1  0
  8  9  1  0
  9 10  2  0
 11 12  2  0
 11 13  2  0
 11 18  1  0
 14 15  1  0
 14 18  1  0
 15 16  2  0
 16 17  1  0
 16 19  1  0
 17 18  2  0
 19 20  2  0
 19 21  2  0
 19 22  1  0
 22 23  2  0
 22 27  1  0
 23 24  1  0
 24 25  2  0
 25 26  1  0
 26 27  2  0
M  END
>  <DRUGBANK_ID>  (1) 
DB02858

>  <SECONDARY_ACCESSION_NUMBERS>  (1) 
EXPT01371

>  <COMMON_NAME>  (1) 
3-(4-Benzenesulfonyl-Thiophene-2-Sulfonylamino)-Phenylboronic Acid

$$$$
