8NH
     RDKit          2D

 21 23  0  0  0  0  0  0  0  0999 V2000
   -0.6015   -0.0534    0.0000 Cl  0  0  0  0  0  0  0  0  0  0  0  0
   -0.1890    0.6611    0.0000 C   0  0  0  0  0  0  0  0  0  0  0  0
    0.6360    0.6611    0.0000 C   0  0  0  0  0  0  0  0  0  0  0  0
    1.0485    1.3756    0.0000 C   0  0  0  0  0  0  0  0  0  0  0  0
    0.6360    2.0900    0.0000 C   0  0  0  0  0  0  0  0  0  0  0  0
   -0.1890    2.0900    0.0000 C   0  0  0  0  0  0  0  0  0  0  0  0
   -0.6015    1.3756    0.0000 C   0  0  0  0  0  0  0  0  0  0  0  0
   -1.4265    1.3756    0.0000 C   0  0  0  0  0  0  0  0  0  0  0  0
   -2.2515    1.3756    0.0000 N   0  0  0  0  0  0  0  0  0  0  0  0
    1.8735    1.3756    0.0000 N   0  0  0  0  0  0  0  0  0  0  0  0
    2.3584    2.0430    0.0000 C   0  0  0  0  0  0  0  0  0  0  0  0
    3.1431    1.7881    0.0000 N   0  0  0  0  0  0  0  0  0  0  0  0
    3.1431    0.9631    0.0000 C   0  0  0  0  0  0  0  0  0  0  0  0
    3.9277    0.7081    0.0000 C   0  0  0  0  0  0  0  0  0  0  0  0
    4.4126    1.3756    0.0000 C   0  0  0  0  0  0  0  0  0  0  0  0
    3.9277    2.0430    0.0000 C   0  0  0  0  0  0  0  0  0  0  0  0
    4.1826   -0.0765    0.0000 O   0  0  0  0  0  0  0  0  0  0  0  0
    2.3584    0.7081    0.0000 C   0  0  0  0  0  0  0  0  0  0  0  0
    2.1035   -0.0765    0.0000 O   0  0  0  0  0  0  0  0  0  0  0  0
    2.1035    2.8276    0.0000 O   0  0  0  0  0  0  0  0  0  0  0  0
    1.0485   -0.0534    0.0000 C   0  0  0  0  0  0  0  0  0  0  0  0
  1  2  1  0
  2  7  2  0
  2  3  1  0
  3  4  2  0
  3 21  1  0
  4  5  1  0
  4 10  1  0
  5  6  2  0
  6  7  1  0
  7  8  1  0
  8  9  3  0
 10 11  1  0
 10 18  1  0
 11 20  2  0
 11 12  1  0
 12 16  1  0
 12 13  1  0
 13 14  1  0
 13 18  1  1
 14 15  1  0
 14 17  1  1
 15 16  1  0
 18 19  2  0
M  END
>  <DRUGBANK_ID>  (1) 
DB07286

>  <COMMON_NAME>  (1) 
BMS-564929

>  <CAS_NUMBER>  (1) 
627530-84-1

>  <UNII>  (1) 
9BLW27W4X7

$$$$
