
     RDKit          2D

 17 18  0  0  0  0  0  0  0  0999 V2000
    1.7861   -0.2062    0.0000 C   0  0  0  0  0  0  0  0  0  0  0  0
    1.0716    0.2062    0.0000 C   0  0  0  0  0  0  0  0  0  0  0  0
    1.0716    1.0312    0.0000 C   0  0  0  0  0  0  0  0  0  0  0  0
    1.7861    1.4437    0.0000 N   0  0  0  0  0  0  0  0  0  0  0  0
    2.5006    1.0312    0.0000 C   0  0  0  0  0  0  0  0  0  0  0  0
    2.5006    0.2062    0.0000 C   0  0  0  0  0  0  0  0  0  0  0  0
   -1.0717   -0.2062    0.0000 C   0  0  0  0  0  0  0  0  0  0  0  0
   -0.3572    0.2062    0.0000 C   0  0  0  0  0  0  0  0  0  0  0  0
   -1.7862    0.2062    0.0000 C   0  0  0  0  0  0  0  0  0  0  0  0
   -1.0717   -1.0312    0.0000 C   0  0  0  0  0  0  0  0  0  0  0  0
   -0.3572    1.0312    0.0000 O   0  0  0  0  0  0  0  0  0  0  0  0
   -2.5006   -0.2062    0.0000 C   0  0  0  0  0  0  0  0  0  0  0  0
   -1.7862   -1.4437    0.0000 N   0  0  0  0  0  0  0  0  0  0  0  0
   -2.5006   -1.0312    0.0000 C   0  0  0  0  0  0  0  0  0  0  0  0
    0.3572   -0.2062    0.0000 C   0  0  0  0  0  0  0  0  0  0  0  0
    0.7697   -0.9206    0.0000 C   0  0  0  0  0  0  0  0  0  0  0  0
   -0.0552   -0.9206    0.0000 C   0  0  0  0  0  0  0  0  0  0  0  0
  1  6  2  0
  2  1  1  0
  2  3  2  0
  3  4  1  0
  4  5  2  0
  6  5  1  0
  7  8  1  0
  7  9  2  0
  7 10  1  0
  8 15  1  0
  8 11  2  0
  9 12  1  0
 10 13  2  0
 12 14  2  0
 13 14  1  0
 15  2  1  0
 15 16  1  0
 15 17  1  0
M  END
>  <DRUGBANK_ID>  (1) 
DB01011

>  <SECONDARY_ACCESSION_NUMBERS>  (1) 
APRD01111; EXPT02271

>  <COMMON_NAME>  (1) 
Metyrapone

>  <CAS_NUMBER>  (1) 
54-36-4

>  <UNII>  (1) 
ZS9KD92H6V

>  <SYNONYMS>  (1) 
Metirapona; MÃ©tyrapone; Metyrapone; Metyraponum

$$$$
