
     RDKit          2D

 14 13  0  0  0  0  0  0  0  0999 V2000
    0.3566   -0.2035    0.0000 C   0  0  0  0  0  0  0  0  0  0  0  0
   -0.3579    0.2089    0.0000 C   0  0  0  0  0  0  0  0  0  0  0  0
   -1.0723   -0.2035    0.0000 C   0  0  0  0  0  0  0  0  0  0  0  0
    1.0711    0.2089    0.0000 C   0  0  0  0  0  0  0  0  0  0  0  0
   -1.7869    0.2088    0.0000 O   0  0  0  0  0  0  0  0  0  0  0  0
    1.7857   -0.2035    0.0000 O   0  0  0  0  0  0  0  0  0  0  0  0
    2.5049    0.2089    0.0000 S   0  0  0  0  0  0  0  0  0  0  0  0
   -2.5050   -0.2086    0.0000 S   0  0  0  0  0  0  0  0  0  0  0  0
   -3.2207    0.1989    0.0000 C   0  0  0  0  0  0  0  0  0  0  0  0
    3.2207   -0.2086    0.0000 C   0  0  0  0  0  0  0  0  0  0  0  0
    2.0950    0.9249    0.0000 O   0  0  0  0  0  0  0  0  0  0  0  0
    2.9201    0.9218    0.0000 O   0  0  0  0  0  0  0  0  0  0  0  0
   -2.0892   -0.9212    0.0000 O   0  0  0  0  0  0  0  0  0  0  0  0
   -2.9143   -0.9249    0.0000 O   0  0  0  0  0  0  0  0  0  0  0  0
  2  1  1  0
  3  2  1  0
  3  5  1  0
  4  1  1  0
  4  6  1  0
  5  8  1  0
  6  7  1  0
  7 10  1  0
  8  9  1  0
 11  7  2  0
 12  7  2  0
 13  8  2  0
 14  8  2  0
M  END
>  <DRUGBANK_ID>  (1) 
DB01008

>  <SECONDARY_ACCESSION_NUMBERS>  (1) 
APRD00664

>  <COMMON_NAME>  (1) 
Busulfan

>  <CAS_NUMBER>  (1) 
55-98-1

>  <UNII>  (1) 
G1LN9045DK

>  <SYNONYMS>  (1) 
1,4-Bis(methanesulfonoxy)butane; 1,4-Butanediol dimethanesulfonate; 1,4-Dimesyloxybutane; 1,4-Dimethanesulfonoxybutane; Busulfan; Busulfano; Busulfanum; Busulphan; Tetramethylene bis(methanesulfonate)

$$$$
