
     RDKit          2D

 11 11  0  0  0  0  0  0  0  0999 V2000
    0.7146    0.0000    0.0000 C   0  0  0  0  0  0  0  0  0  0  0  0
    0.0000    0.4125    0.0000 Hg  0  0  0  0  0  2  0  0  0  0  0  0
    1.4290    0.4125    0.0000 C   0  0  0  0  0  0  0  0  0  0  0  0
    0.7146   -0.8250    0.0000 C   0  0  0  0  0  0  0  0  0  0  0  0
   -0.7145    0.0000    0.0000 O   0  0  0  0  0  0  0  0  0  0  0  0
    2.1435    0.0000    0.0000 C   0  0  0  0  0  0  0  0  0  0  0  0
    1.4290   -1.2375    0.0000 C   0  0  0  0  0  0  0  0  0  0  0  0
   -1.4290    0.4125    0.0000 C   0  0  0  0  0  0  0  0  0  0  0  0
    2.1435   -0.8250    0.0000 C   0  0  0  0  0  0  0  0  0  0  0  0
   -2.1435    0.0000    0.0000 C   0  0  0  0  0  0  0  0  0  0  0  0
   -1.4290    1.2375    0.0000 O   0  0  0  0  0  0  0  0  0  0  0  0
  1  2  1  0
  1  3  2  0
  1  4  1  0
  2  5  1  0
  3  6  1  0
  4  7  2  0
  5  8  1  0
  6  9  2  0
  7  9  1  0
  8 10  1  0
  8 11  2  0
M  END
>  <DRUGBANK_ID>  (1) 
DB17044

>  <COMMON_NAME>  (1) 
Phenylmercuric acetate

>  <CAS_NUMBER>  (1) 
62-38-4

>  <UNII>  (1) 
OSX88361UX

>  <SYNONYMS>  (1) 
(acetato)phenylmercury; Mercury, (acetato-o)phenyl-; Phenyl mercuric acetate; Phenylmercury acetate

$$$$
