
     RDKit          2D

 19 18  0  0  0  0  0  0  0  0999 V2000
    4.2772    0.6370    0.0000 C   0  0  0  0  0  0  0  0  0  0  0  0
    3.5557    1.0371    0.0000 C   0  0  0  0  0  0  0  0  0  0  0  0
    2.8498    0.6124    0.0000 C   0  0  0  0  0  0  0  0  0  0  0  0
    4.9831    1.0617    0.0000 O   0  0  0  0  0  0  0  0  0  0  0  0
    3.5400    1.8621    0.0000 O   0  0  0  0  0  0  0  0  0  0  0  0
    2.8654   -0.2125    0.0000 O   0  0  0  0  0  0  0  0  0  0  0  0
    2.1531   -0.6262    0.0000 C   0  0  0  0  0  0  0  0  0  0  0  0
    2.1531   -1.4501    0.0000 C   0  0  0  0  0  0  0  0  0  0  0  0
    1.4382   -1.8621    0.0000 C   0  0  0  0  0  0  0  0  0  0  0  0
    0.7234   -1.4501    0.0000 C   0  0  0  0  0  0  0  0  0  0  0  0
    0.0126   -1.8621    0.0000 C   0  0  0  0  0  0  0  0  0  0  0  0
   -0.7022   -1.4501    0.0000 C   0  0  0  0  0  0  0  0  0  0  0  0
   -1.4171   -1.8621    0.0000 C   0  0  0  0  0  0  0  0  0  0  0  0
   -2.1278   -1.4501    0.0000 C   0  0  0  0  0  0  0  0  0  0  0  0
   -2.8427   -1.8621    0.0000 C   0  0  0  0  0  0  0  0  0  0  0  0
   -3.5576   -1.4501    0.0000 C   0  0  0  0  0  0  0  0  0  0  0  0
   -4.2683   -1.8621    0.0000 C   0  0  0  0  0  0  0  0  0  0  0  0
   -4.9831   -1.4501    0.0000 C   0  0  0  0  0  0  0  0  0  0  0  0
    1.4382   -0.2143    0.0000 O   0  0  0  0  0  0  0  0  0  0  0  0
  1  2  1  0
  1  4  1  0
  2  3  1  0
  2  5  1  0
  3  6  1  0
  7  8  1  0
  7 19  2  0
  7  6  1  0
  8  9  1  0
  9 10  1  0
 10 11  1  0
 11 12  1  0
 12 13  1  0
 13 14  1  0
 14 15  1  0
 15 16  1  0
 16 17  1  0
 17 18  1  0
M  END
>  <DRUGBANK_ID>  (1) 
DB16635

>  <COMMON_NAME>  (1) 
Glyceryl laurate

>  <CAS_NUMBER>  (1) 
27215-38-9

>  <UNII>  (1) 
WR963Y5QYW

>  <SYNONYMS>  (1) 
Glycerin monolaurate; Glycerol monolaurate; Glyceryl monolaurate; Lauric acid monoglyceride; Monododecanoyl glycerol; Monoglycerol laurate; Monolaurin; Monolauroylglycerin

$$$$
