893
     RDKit          2D

 25 26  0  0  0  0  0  0  0  0999 V2000
   -1.8308    2.8947    0.0000 C   0  0  0  0  0  0  0  0  0  0  0  0
   -1.1163    2.4822    0.0000 C   0  0  0  0  0  0  0  0  0  0  0  0
   -1.1163    1.6572    0.0000 C   0  0  0  0  0  0  0  0  0  0  0  0
   -1.8308    1.2447    0.0000 C   0  0  0  0  0  0  0  0  0  0  0  0
   -2.5453    1.6572    0.0000 C   0  0  0  0  0  0  0  0  0  0  0  0
   -2.5453    2.4822    0.0000 C   0  0  0  0  0  0  0  0  0  0  0  0
   -0.4018    1.2447    0.0000 C   0  0  0  0  0  0  0  0  0  0  0  0
   -0.4018    0.4197    0.0000 N   0  0  0  0  0  0  0  0  0  0  0  0
    0.3126    0.0072    0.0000 C   0  0  0  0  0  0  0  0  0  0  0  0
    0.3126   -0.8178    0.0000 C   0  0  0  0  0  0  0  0  0  0  0  0
    1.0271   -1.2303    0.0000 N   0  0  0  0  0  0  0  0  0  0  0  0
    1.0271   -2.0553    0.0000 C   0  0  0  0  0  0  0  0  0  0  0  0
    0.3126   -2.4678    0.0000 C   0  0  0  0  0  0  0  0  0  0  0  0
   -0.4018   -2.0553    0.0000 C   0  0  0  0  0  0  0  0  0  0  0  0
   -0.4018   -1.2303    0.0000 C   0  0  0  0  0  0  0  0  0  0  0  0
   -3.2597    1.2447    0.0000 O   0  0  0  0  0  0  0  0  0  0  0  0
   -3.9742    1.6572    0.0000 C   0  0  0  0  0  0  0  0  0  0  0  0
   -0.4018    2.8947    0.0000 O   0  0  0  0  0  0  0  0  0  0  0  0
    0.3126    2.4822    0.0000 C   0  0  0  0  0  0  0  0  0  0  0  0
    0.3126   -3.2928    0.0000 C   0  0  0  0  0  0  0  0  0  0  0  0
    0.3126   -4.1178    0.0000 N   0  0  0  0  0  0  0  0  0  0  0  0
    1.7416   -2.4678    0.0000 O   0  0  0  0  0  0  0  0  0  0  0  0
    2.4560   -2.0553    0.0000 C   0  0  0  0  0  0  0  0  0  0  0  0
    3.1705   -2.4678    0.0000 C   0  0  0  0  0  0  0  0  0  0  0  0
    1.0271    0.4197    0.0000 O   0  0  0  0  0  0  0  0  0  0  0  0
  1  2  2  0
  1  6  1  0
  2  3  1  0
  2 18  1  0
  3  4  2  0
  3  7  1  0
  4  5  1  0
  5  6  2  0
  5 16  1  0
  7  8  1  0
  8  9  1  0
  9 10  1  0
  9 25  2  0
 10 11  2  0
 10 15  1  0
 11 12  1  0
 12 13  2  0
 12 22  1  0
 13 14  1  0
 13 20  1  0
 14 15  2  0
 16 17  1  0
 18 19  1  0
 20 21  3  0
 22 23  1  0
 23 24  1  0
M  END
>  <DRUGBANK_ID>  (1) 
DB07276

>  <COMMON_NAME>  (1) 
5-CYANO-N-(2,5-DIMETHOXYBENZYL)-6-ETHOXYPYRIDINE-2-CARBOXAMIDE

$$$$
