1548992
     RDKit          2D

 15 15  0  0  0  0  0  0  0  0999 V2000
    2.8795   -0.5306    0.0000 S   0  0  0  0  0  0  0  0  0  0  0  0
    2.3577    2.3980    0.0000 S   0  0  0  0  0  0  0  0  0  0  0  0
    2.3176   -3.2215    0.0000 N   0  0  0  0  0  0  0  0  0  0  0  0
    3.5138    1.5580    0.0000 N   0  0  0  0  0  0  0  0  0  0  0  0
    1.9050   -1.9518    0.0000 N   0  0  0  0  0  0  0  0  0  0  0  0
    3.6631    2.9792    0.0000 N   0  0  0  0  0  0  0  0  0  0  0  0
    2.7301   -1.9518    0.0000 C   0  0  0  0  0  0  0  0  0  0  0  0
    3.2150   -1.2843    0.0000 C   0  0  0  0  0  0  0  0  0  0  0  0
    3.3644    0.1369    0.0000 C   0  0  0  0  0  0  0  0  0  0  0  0
    2.9850   -2.7365    0.0000 C   0  0  0  0  0  0  0  0  0  0  0  0
    3.0288    0.8906    0.0000 C   0  0  0  0  0  0  0  0  0  0  0  0
    3.7697   -2.9915    0.0000 C   0  0  0  0  0  0  0  0  0  0  0  0
    1.6501   -2.7365    0.0000 C   0  0  0  0  0  0  0  0  0  0  0  0
    3.1782    2.3118    0.0000 C   0  0  0  0  0  0  0  0  0  0  0  0
    3.3276    3.7329    0.0000 C   0  0  0  0  0  0  0  0  0  0  0  0
  1  8  1  0
  1  9  1  0
  2 14  2  0
  3 10  1  0
  3 13  1  0
  4 11  1  0
  4 14  1  0
  5  7  1  0
  5 13  2  0
  6 14  1  0
  6 15  1  0
  7  8  1  0
  7 10  2  0
  9 11  1  0
 10 12  1  0
M  END
>  <DRUGBANK_ID>  (1) 
DB08805

>  <COMMON_NAME>  (1) 
Metiamide

>  <CAS_NUMBER>  (1) 
34839-70-8

>  <UNII>  (1) 
3K7670861M

>  <SYNONYMS>  (1) 
Methiamide; Metiamida; Metiamide; Metiamidum

$$$$
