
     RDKit          2D

 25 27  0  0  0  0  0  0  0  0999 V2000
    5.1717   -3.1589    0.0000 Cl  0  0  0  0  0  0  0  0  0  0  0  0
    6.0692    2.0781    0.0000 S   0  0  0  0  0  0  0  0  0  0  0  0
    3.4893    0.4170    0.0000 F   0  0  0  0  0  0  0  0  0  0  0  0
    2.2631   -0.6871    0.0000 O   0  0  0  0  0  0  0  0  0  0  0  0
    5.2441    2.0781    0.0000 O   0  0  0  0  0  0  0  0  0  0  0  0
    6.8942    2.0781    0.0000 O   0  0  0  0  0  0  0  0  0  0  0  0
    6.0692   -1.2219    0.0000 N   0  0  0  0  0  0  0  0  0  0  0  0
    6.4817   -2.4915    0.0000 N   0  0  0  0  0  0  0  0  0  0  0  0
    6.0692    2.9032    0.0000 N   0  0  0  0  0  0  0  0  0  0  0  0
    5.4017   -1.7069    0.0000 C   0  0  0  0  0  0  0  0  0  0  0  0
    6.0692   -0.3969    0.0000 C   0  0  0  0  0  0  0  0  0  0  0  0
    4.6170   -1.4519    0.0000 C   0  0  0  0  0  0  0  0  0  0  0  0
    6.0692    1.2531    0.0000 C   0  0  0  0  0  0  0  0  0  0  0  0
    5.3547    0.0156    0.0000 C   0  0  0  0  0  0  0  0  0  0  0  0
    6.7836    0.0156    0.0000 C   0  0  0  0  0  0  0  0  0  0  0  0
    6.7366   -1.7069    0.0000 C   0  0  0  0  0  0  0  0  0  0  0  0
    5.6567   -2.4915    0.0000 C   0  0  0  0  0  0  0  0  0  0  0  0
    5.3547    0.8406    0.0000 C   0  0  0  0  0  0  0  0  0  0  0  0
    6.7836    0.8406    0.0000 C   0  0  0  0  0  0  0  0  0  0  0  0
    4.4455   -0.6449    0.0000 C   0  0  0  0  0  0  0  0  0  0  0  0
    4.0040   -2.0040    0.0000 C   0  0  0  0  0  0  0  0  0  0  0  0
    3.6609   -0.3900    0.0000 C   0  0  0  0  0  0  0  0  0  0  0  0
    3.2193   -1.7490    0.0000 C   0  0  0  0  0  0  0  0  0  0  0  0
    3.0478   -0.9420    0.0000 C   0  0  0  0  0  0  0  0  0  0  0  0
    1.6500   -1.2391    0.0000 C   0  0  0  0  0  0  0  0  0  0  0  0
  1 17  1  0
  2  5  2  0
  2  6  2  0
  2  9  1  0
  2 13  1  0
  3 22  1  0
  4 24  1  0
  4 25  1  0
  7 10  1  0
  7 11  1  0
  7 16  1  0
  8 16  2  0
  8 17  1  0
 10 12  1  0
 10 17  2  0
 11 14  2  0
 11 15  1  0
 12 20  2  0
 12 21  1  0
 13 18  2  0
 13 19  1  0
 14 18  1  0
 15 19  2  0
 20 22  1  0
 21 23  2  0
 22 24  2  0
 23 24  1  0
M  END
>  <DRUGBANK_ID>  (1) 
DB05095

>  <COMMON_NAME>  (1) 
Cimicoxib

>  <CAS_NUMBER>  (1) 
265114-23-6

>  <UNII>  (1) 
W7FHJ107MC

>  <SYNONYMS>  (1) 
Cimicoxib

$$$$
