
     RDKit          2D

 25 27  0  0  0  0  0  0  0  0999 V2000
    0.7366    0.4138    0.0000 C   0  0  0  0  0  0  0  0  0  0  0  0
    0.7366   -0.4111    0.0000 C   0  0  0  0  0  0  0  0  0  0  0  0
    1.5617    0.4138    0.0000 C   0  0  0  0  0  0  0  0  0  0  0  0
    1.5617   -0.4111    0.0000 N   0  0  0  0  0  0  0  0  0  0  0  0
    2.3463   -0.6660    0.0000 C   0  0  0  0  0  0  0  0  0  0  0  0
    2.8312    0.0013    0.0000 C   0  0  0  0  0  0  0  0  0  0  0  0
    2.3463    0.6687    0.0000 S   0  0  0  0  0  0  0  0  0  0  0  0
    3.5501   -0.4036    0.0000 C   0  0  0  0  0  0  0  0  0  0  0  0
    3.5501    0.4063    0.0000 C   0  0  0  0  0  0  0  0  0  0  0  0
    2.6014   -1.4507    0.0000 C   0  0  0  0  0  0  0  0  0  0  0  0
    3.4083   -1.6222    0.0000 O   0  0  0  0  0  0  0  0  0  0  0  0
    2.0491   -2.0638    0.0000 O   0  0  0  0  0  0  0  0  0  0  0  0
    0.0222    0.8263    0.0000 N   0  0  0  0  0  0  0  0  0  0  0  0
    0.1533   -0.9945    0.0000 O   0  0  0  0  0  0  0  0  0  0  0  0
   -0.6922    0.4138    0.0000 C   0  0  0  0  0  0  0  0  0  0  0  0
   -0.6922   -0.4111    0.0000 O   0  0  0  0  0  0  0  0  0  0  0  0
   -1.4067    0.8263    0.0000 C   0  0  0  0  0  0  0  0  0  0  0  0
   -2.1212    0.4138    0.0000 C   0  0  0  0  0  0  0  0  0  0  0  0
   -2.8356    0.8263    0.0000 C   0  0  0  0  0  0  0  0  0  0  0  0
   -3.5501    0.4138    0.0000 C   0  0  0  0  0  0  0  0  0  0  0  0
   -3.5501   -0.4111    0.0000 C   0  0  0  0  0  0  0  0  0  0  0  0
   -2.8356   -0.8236    0.0000 C   0  0  0  0  0  0  0  0  0  0  0  0
   -2.1212   -0.4111    0.0000 C   0  0  0  0  0  0  0  0  0  0  0  0
   -1.4067    1.6513    0.0000 N   0  0  0  0  0  0  0  0  0  0  0  0
   -2.1212    2.0638    0.0000 C   0  0  0  0  0  0  0  0  0  0  0  0
  1 13  1  1
  1  2  1  0
  2 14  2  0
  2  4  1  0
  3  1  1  0
  3  4  1  0
  3  7  1  1
  4  5  1  0
  5  6  1  0
  5 10  1  6
  6  7  1  0
  6  8  1  0
  6  9  1  0
 10 11  1  0
 10 12  2  0
 13 15  1  0
 15 16  2  0
 15 17  1  0
 17 18  1  0
 17 24  1  1
 19 18  2  0
 19 20  1  0
 20 21  2  0
 21 22  1  0
 22 23  2  0
 23 18  1  0
 24 25  2  0
M  END
>  <DRUGBANK_ID>  (1) 
DB13836

>  <COMMON_NAME>  (1) 
Metampicillin

>  <CAS_NUMBER>  (1) 
6489-97-0

>  <UNII>  (1) 
G0H6U7VSTK

>  <SYNONYMS>  (1) 
Metampicilina; Metampicillin; Metampicilline; Metampicillinum

$$$$
