
     RDKit          2D

 24 27  0  0  0  0  0  0  0  0999 V2000
    4.5967    5.2187    0.0000 C   0  0  0  0  0  0  0  0  0  0  0  0
    4.8517    4.4341    0.0000 C   0  0  0  0  0  0  0  0  0  0  0  0
    4.2996    3.8210    0.0000 N   0  0  0  0  0  0  0  0  0  0  0  0
    4.5546    3.0364    0.0000 C   0  0  0  0  0  0  0  0  0  0  0  0
    4.0025    2.4233    0.0000 C   0  0  0  0  0  0  0  0  0  0  0  0
    3.1956    2.5948    0.0000 C   0  0  0  0  0  0  0  0  0  0  0  0
    2.9406    3.3795    0.0000 C   0  0  0  0  0  0  0  0  0  0  0  0
    3.4927    3.9926    0.0000 C   0  0  0  0  0  0  0  0  0  0  0  0
    2.6435    1.9817    0.0000 O   0  0  0  0  0  0  0  0  0  0  0  0
    2.8985    1.1971    0.0000 C   0  0  0  0  0  0  0  0  0  0  0  0
    3.7054    1.0256    0.0000 C   0  0  0  0  0  0  0  0  0  0  0  0
    3.9604    0.2410    0.0000 N   0  0  0  0  0  0  0  0  0  0  0  0
    3.4084   -0.3721    0.0000 C   0  0  0  0  0  0  0  0  0  0  0  0
    2.6014   -0.2006    0.0000 C   0  0  0  0  0  0  0  0  0  0  0  0
    2.3464    0.5840    0.0000 C   0  0  0  0  0  0  0  0  0  0  0  0
    1.5214    0.5840    0.0000 C   0  0  0  0  0  0  0  0  0  0  0  0
    1.2665   -0.2006    0.0000 C   0  0  0  0  0  0  0  0  0  0  0  0
    1.9339   -0.6855    0.0000 N   0  0  0  0  0  0  0  0  0  0  0  0
    0.4595   -0.3721    0.0000 N   0  0  0  0  0  0  0  0  0  0  0  0
   -0.0925    0.2410    0.0000 C   0  0  0  0  0  0  0  0  0  0  0  0
    0.1624    1.0256    0.0000 C   0  0  0  0  0  0  0  0  0  0  0  0
    0.9694    1.1971    0.0000 C   0  0  0  0  0  0  0  0  0  0  0  0
    4.2575    1.6387    0.0000 C   0  0  0  0  0  0  0  0  0  0  0  0
    4.8095    2.2518    0.0000 N   0  0  0  0  0  0  0  0  0  0  0  0
  1  2  1  0
  2  3  1  0
  3  4  1  0
  3  8  1  0
  4  5  1  0
  5  6  1  0
  6  7  1  0
  6  9  1  0
  7  8  1  0
  9 10  1  0
 10 11  2  0
 10 15  1  0
 11 12  1  0
 11 23  1  0
 12 13  2  0
 13 14  1  0
 14 15  2  0
 14 18  1  0
 15 16  1  0
 16 17  2  0
 16 22  1  0
 17 18  1  0
 17 19  1  0
 19 20  2  0
 20 21  1  0
 21 22  2  0
 23 24  3  0
M  END
>  <DRUGBANK_ID>  (1) 
DB14791

>  <COMMON_NAME>  (1) 
GDC-0425

>  <CAS_NUMBER>  (1) 
1627539-18-7

>  <UNII>  (1) 
4N173XZ7SX

$$$$
