
     RDKit          2D

 32 34  0  0  0  0  0  0  0  0999 V2000
   -3.4914   -4.1763    0.0000 C   0  0  0  0  0  0  0  0  0  0  0  0
   -3.9039   -3.4618    0.0000 O   0  0  0  0  0  0  0  0  0  0  0  0
   -3.4914   -2.7474    0.0000 C   0  0  0  0  0  0  0  0  0  0  0  0
   -3.9039   -2.0329    0.0000 C   0  0  0  0  0  0  0  0  0  0  0  0
   -4.7289   -2.0329    0.0000 O   0  0  0  0  0  0  0  0  0  0  0  0
   -5.1414   -1.3184    0.0000 C   0  0  0  0  0  0  0  0  0  0  0  0
   -3.4914   -1.3184    0.0000 C   0  0  0  0  0  0  0  0  0  0  0  0
   -2.6664   -1.3184    0.0000 C   0  0  0  0  0  0  0  0  0  0  0  0
   -2.2539   -0.6039    0.0000 C   0  0  0  0  0  0  0  0  0  0  0  0
   -1.4289   -0.6039    0.0000 N   0  0  0  0  0  0  0  0  0  0  0  0
   -1.0164    0.1105    0.0000 C   0  0  0  0  0  0  0  0  0  0  0  0
   -1.4289    0.8250    0.0000 C   0  0  0  0  0  0  0  0  0  0  0  0
   -1.0164    1.5395    0.0000 C   0  0  0  0  0  0  0  0  0  0  0  0
   -0.1914    1.5395    0.0000 C   0  0  0  0  0  0  0  0  0  0  0  0
    0.2211    0.8250    0.0000 N   0  0  0  0  0  0  0  0  0  0  0  0
    1.0461    0.8250    0.0000 C   0  0  0  0  0  0  0  0  0  0  0  0
    1.4586    1.5395    0.0000 O   0  0  0  0  0  0  0  0  0  0  0  0
    1.4586    0.1105    0.0000 C   0  0  0  0  0  0  0  0  0  0  0  0
    2.2836    0.1105    0.0000 C   0  0  0  0  0  0  0  0  0  0  0  0
    2.6961    0.8250    0.0000 O   0  0  0  0  0  0  0  0  0  0  0  0
    2.2836    1.5395    0.0000 C   0  0  0  0  0  0  0  0  0  0  0  0
    2.6961    2.2539    0.0000 C   0  0  0  0  0  0  0  0  0  0  0  0
    3.5211    2.2539    0.0000 F   0  0  0  0  0  0  0  0  0  0  0  0
    2.6961   -0.6039    0.0000 C   0  0  0  0  0  0  0  0  0  0  0  0
    2.2836   -1.3184    0.0000 C   0  0  0  0  0  0  0  0  0  0  0  0
    1.4586   -1.3184    0.0000 C   0  0  0  0  0  0  0  0  0  0  0  0
    1.0461   -2.0329    0.0000 C   0  0  0  0  0  0  0  0  0  0  0  0
    1.0461   -0.6039    0.0000 C   0  0  0  0  0  0  0  0  0  0  0  0
   -1.0164   -1.3184    0.0000 C   0  0  0  0  0  0  0  0  0  0  0  0
   -1.4289   -2.0329    0.0000 C   0  0  0  0  0  0  0  0  0  0  0  0
   -2.2539   -2.0329    0.0000 C   0  0  0  0  0  0  0  0  0  0  0  0
   -2.6664   -2.7474    0.0000 C   0  0  0  0  0  0  0  0  0  0  0  0
  1  2  1  0
  2  3  1  0
  3  4  2  0
  3 32  1  0
  4  5  1  0
  4  7  1  0
  5  6  1  0
  7  8  2  0
  8  9  1  0
  8 31  1  0
  9 10  1  0
 10 11  1  0
 10 29  1  0
 11 12  1  0
 12 13  1  0
 13 14  1  0
 14 15  1  0
 15 16  1  0
 16 17  2  0
 16 18  1  0
 18 19  2  0
 18 28  1  0
 19 20  1  0
 19 24  1  0
 20 21  1  0
 21 22  1  0
 22 23  1  0
 24 25  2  0
 25 26  1  0
 26 27  1  0
 26 28  2  0
 29 30  1  0
 30 31  1  0
 31 32  2  0
M  ISO  1  23  18
M  END
>  <DRUGBANK_ID>  (1) 
DB14900

>  <COMMON_NAME>  (1) 
ISO-1 F-18

>  <CAS_NUMBER>  (1) 
945992-47-2

>  <UNII>  (1) 
3G67X40A29

>  <SYNONYMS>  (1) 
[18F]ISO-1; F-18-ISO

$$$$
