
     RDKit          2D

 30 31  0  0  0  0  0  0  0  0999 V2000
    2.6539   -3.1233    0.0000 P   0  0  0  0  0  0  0  0  0  0  0  0
    1.0776    1.4079    0.0000 O   0  0  0  0  0  0  0  0  0  0  0  0
    0.2319    3.4202    0.0000 O   0  0  0  0  0  0  0  0  0  0  0  0
    0.7695    0.4036    0.0000 O   0  0  0  0  0  0  0  0  0  0  0  0
    2.1412    2.3622    0.0000 O   0  0  0  0  0  0  0  0  0  0  0  0
   -2.0320   -1.2464    0.0000 O   0  0  0  0  0  0  0  0  0  0  0  0
    2.6539    3.9306    0.0000 O   0  0  0  0  0  0  0  0  0  0  0  0
    1.8465   -2.9531    0.0000 O   0  0  0  0  0  0  0  0  0  0  0  0
   -3.4611    1.2287    0.0000 O   0  0  0  0  0  0  0  0  0  0  0  0
    2.4837   -3.9306    0.0000 O   0  0  0  0  0  0  0  0  0  0  0  0
    3.4611   -3.2934    0.0000 O   0  0  0  0  0  0  0  0  0  0  0  0
    2.8240   -2.3159    0.0000 O   0  0  0  0  0  0  0  0  0  0  0  0
   -0.5369    1.0676    0.0000 N   0  0  0  0  0  0  0  0  0  0  0  0
   -0.5369   -0.2602    0.0000 N   0  0  0  0  0  0  0  0  0  0  0  0
   -2.0320    1.2287    0.0000 N   0  0  0  0  0  0  0  0  0  0  0  0
   -2.7467   -0.0088    0.0000 N   0  0  0  0  0  0  0  0  0  0  0  0
   -0.2806    1.8517    0.0000 C   0  0  0  0  0  0  0  0  0  0  0  0
    0.5266    2.0219    0.0000 C   0  0  0  0  0  0  0  0  0  0  0  0
   -1.3176    0.8162    0.0000 C   0  0  0  0  0  0  0  0  0  0  0  0
   -1.3176   -0.0088    0.0000 C   0  0  0  0  0  0  0  0  0  0  0  0
    0.7828    2.8062    0.0000 C   0  0  0  0  0  0  0  0  0  0  0  0
   -0.0554    0.4036    0.0000 C   0  0  0  0  0  0  0  0  0  0  0  0
   -0.2806   -1.0445    0.0000 C   0  0  0  0  0  0  0  0  0  0  0  0
    1.5902    2.9763    0.0000 C   0  0  0  0  0  0  0  0  0  0  0  0
    0.5266   -1.2146    0.0000 C   0  0  0  0  0  0  0  0  0  0  0  0
   -2.0320   -0.4213    0.0000 C   0  0  0  0  0  0  0  0  0  0  0  0
    0.7828   -1.9988    0.0000 C   0  0  0  0  0  0  0  0  0  0  0  0
    1.8465    3.7605    0.0000 C   0  0  0  0  0  0  0  0  0  0  0  0
   -2.7467    0.8162    0.0000 C   0  0  0  0  0  0  0  0  0  0  0  0
    1.5902   -2.1689    0.0000 C   0  0  0  0  0  0  0  0  0  0  0  0
  1  8  1  0
  1 10  1  0
  1 11  1  0
  1 12  2  0
  4 22  2  0
  6 26  2  0
  7 28  1  0
  8 30  1  0
  9 29  2  0
 13 17  1  0
 13 19  1  0
 13 22  1  0
 14 20  1  0
 14 22  1  0
 14 23  1  0
 15 19  1  0
 15 29  1  0
 16 26  1  0
 16 29  1  0
 17 18  1  0
 18  2  1  6
 18 21  1  0
 19 20  2  0
 20 26  1  0
 21  3  1  6
 21 24  1  0
 23 25  1  0
 24  5  1  1
 24 28  1  0
 25 27  1  0
 27 30  1  0
M  END
>  <DRUGBANK_ID>  (1) 
DB02135

>  <SECONDARY_ACCESSION_NUMBERS>  (1) 
EXPT03118

>  <COMMON_NAME>  (1) 
1-deoxy-1-{2,6,8-trioxo-7-[4-(phosphonooxy)butyl]-1,2,3,6,7,8-hexahydro-9H-purin-9-yl}-D-arabinitol

>  <SYNONYMS>  (1) 
4-[2,6,8-trioxo-9-[(2R,3S,4R)-2,3,4,5-tetrahydroxypentyl]-3H-purin-7-yl]butyl dihydrogen phosphate

$$$$
