
     RDKit          2D

 31 34  0  0  0  0  0  0  0  0999 V2000
    4.6448   -1.6506    0.0000 C   0  0  0  0  0  0  0  0  0  0  0  0
    3.4656    1.1759    0.0000 C   0  0  0  0  0  0  0  0  0  0  0  0
    2.0367    1.1759    0.0000 C   0  0  0  0  0  0  0  0  0  0  0  0
    5.1594    0.7703    0.0000 C   0  0  0  0  0  0  0  0  0  0  0  0
    3.4656    2.0009    0.0000 C   0  0  0  0  0  0  0  0  0  0  0  0
    2.0367    2.0009    0.0000 C   0  0  0  0  0  0  0  0  0  0  0  0
    2.3387   -1.3312    0.0000 C   0  0  0  0  0  0  0  0  0  0  0  0
    3.6486   -1.9986    0.0000 C   0  0  0  0  0  0  0  0  0  0  0  0
    4.3748    0.5154    0.0000 C   0  0  0  0  0  0  0  0  0  0  0  0
    2.0837   -0.5465    0.0000 C   0  0  0  0  0  0  0  0  0  0  0  0
    3.3130   -2.7523    0.0000 C   0  0  0  0  0  0  0  0  0  0  0  0
    2.3387    4.5079    0.0000 C   0  0  0  0  0  0  0  0  0  0  0  0
    2.0837    3.7233    0.0000 C   0  0  0  0  0  0  0  0  0  0  0  0
    5.6010   -0.5887    0.0000 C   0  0  0  0  0  0  0  0  0  0  0  0
    3.4186    3.7233    0.0000 C   0  0  0  0  0  0  0  0  0  0  0  0
    4.8163   -0.8436    0.0000 C   0  0  0  0  0  0  0  0  0  0  0  0
    2.7512    0.7634    0.0000 C   0  0  0  0  0  0  0  0  0  0  0  0
    5.7725    0.2183    0.0000 C   0  0  0  0  0  0  0  0  0  0  0  0
    2.7512    2.4134    0.0000 C   0  0  0  0  0  0  0  0  0  0  0  0
    3.1637   -1.3312    0.0000 C   0  0  0  0  0  0  0  0  0  0  0  0
    4.2032   -0.2916    0.0000 C   0  0  0  0  0  0  0  0  0  0  0  0
    2.7512   -0.0616    0.0000 C   0  0  0  0  0  0  0  0  0  0  0  0
    2.4926   -2.8385    0.0000 C   0  0  0  0  0  0  0  0  0  0  0  0
    6.5571    0.4732    0.0000 C   0  0  0  0  0  0  0  0  0  0  0  0
    7.1702   -0.0788    0.0000 N   0  0  0  0  0  0  0  0  0  0  0  0
    3.1637    4.5079    0.0000 N   0  0  0  0  0  0  0  0  0  0  0  0
    2.7512    3.2384    0.0000 N   0  0  0  0  0  0  0  0  0  0  0  0
    3.4186   -0.5465    0.0000 N   0  0  0  0  0  0  0  0  0  0  0  0
    2.0076   -2.1711    0.0000 O   0  0  0  0  0  0  0  0  0  0  0  0
    2.1570   -3.5922    0.0000 O   0  0  0  0  0  0  0  0  0  0  0  0
    6.7286    1.2802    0.0000 O   0  0  0  0  0  0  0  0  0  0  0  0
  5  2  2  0
  6  3  1  0
  9  4  2  0
 10  7  1  0
 11  8  1  0
 13 12  2  0
 16  1  1  0
 16 14  1  0
 17  2  1  0
 17  3  2  0
 18  4  1  0
 18 14  2  0
 19  5  1  0
 19  6  2  0
 20  7  2  0
 20  8  1  0
 21  9  1  0
 21 16  2  0
 22 10  2  0
 22 17  1  0
 23 11  1  0
 24 18  1  0
 25 24  1  0
 26 12  1  0
 26 15  2  0
 27 13  1  0
 27 15  1  0
 27 19  1  0
 28 20  1  0
 28 21  1  0
 28 22  1  0
 29 23  2  0
 30 23  1  0
 31 24  2  0
M  END
>  <DRUGBANK_ID>  (1) 
DB12206

>  <COMMON_NAME>  (1) 
N-6022

>  <CAS_NUMBER>  (1) 
1208315-24-5

>  <UNII>  (1) 
80LIU5P95D

$$$$
