
     RDKit          2D

 30 34  0  0  1  0  0  0  0  0999 V2000
    4.7812    1.9354    0.0000 C   0  0  0  0  0  0  0  0  0  0  0  0
    4.0668    2.3479    0.0000 C   0  0  0  0  0  0  0  0  0  0  0  0
    4.0668    3.1729    0.0000 N   0  0  0  0  0  0  0  0  0  0  0  0
    4.7812    3.5854    0.0000 C   0  0  0  0  0  0  0  0  0  0  0  0
    4.7812    4.4104    0.0000 C   0  0  0  0  0  0  0  0  0  0  0  0
    4.1681    4.9625    0.0000 N   0  0  0  0  0  0  0  0  0  0  0  0
    4.5037    5.7162    0.0000 C   0  0  0  0  0  0  0  0  0  0  0  0
    5.3242    5.6299    0.0000 N   0  0  0  0  0  0  0  0  0  0  0  0
    5.4957    4.8229    0.0000 C   0  0  0  0  0  0  0  0  0  0  0  0
    6.2102    4.4104    0.0000 N   0  0  0  0  0  0  0  0  0  0  0  0
    6.2102    3.5854    0.0000 C   0  0  0  0  0  0  0  0  0  0  0  0
    5.4957    3.1729    0.0000 N   0  0  0  0  0  0  0  0  0  0  0  0
    3.3523    1.9354    0.0000 C   0  0  0  0  0  0  0  0  0  0  0  0
    3.3523    1.1104    0.0000 C   0  0  0  0  0  0  0  0  0  0  0  0
    2.6378    0.6979    0.0000 C   0  0  0  0  0  0  0  0  0  0  0  0
    2.6378   -0.1271    0.0000 O   0  0  0  0  0  0  0  0  0  0  0  0
    1.9233    1.1104    0.0000 N   0  0  0  0  0  0  0  0  0  0  0  0
    1.1387    0.8555    0.0000 C   0  0  0  0  0  0  0  0  0  0  0  0
    0.8838    0.0709    0.0000 C   0  0  0  0  0  0  0  0  0  0  0  0
    0.6538    1.5229    0.0000 C   0  0  0  0  0  0  0  0  0  0  0  0
    1.1387    2.1904    0.0000 S   0  0  0  0  0  0  0  0  0  0  0  0
    1.9233    1.9354    0.0000 C   0  0  0  0  0  0  0  0  0  0  0  0
    2.6378    2.3479    0.0000 N   0  0  0  0  0  0  0  0  0  0  0  0
    4.0668    0.6979    0.0000 C   0  0  0  0  0  0  0  0  0  0  0  0
    4.7812    1.1104    0.0000 C   0  0  0  0  0  0  0  0  0  0  0  0
    5.4957    0.6979    0.0000 C   0  0  0  0  0  0  0  0  0  0  0  0
    5.4957   -0.1271    0.0000 C   0  0  0  0  0  0  0  0  0  0  0  0
    4.7812   -0.5396    0.0000 C   0  0  0  0  0  0  0  0  0  0  0  0
    4.7812   -1.3646    0.0000 F   0  0  0  0  0  0  0  0  0  0  0  0
    4.0668   -0.1271    0.0000 C   0  0  0  0  0  0  0  0  0  0  0  0
  2  1  1  1
  2  3  1  0
  2 13  1  0
  3  4  1  0
  4  5  2  0
  4 12  1  0
  5  6  1  0
  5  9  1  0
  6  7  2  0
  7  8  1  0
  8  9  1  0
  9 10  2  0
 10 11  1  0
 11 12  2  0
 13 14  2  0
 13 23  1  0
 14 15  1  0
 14 24  1  0
 15 16  2  0
 15 17  1  0
 17 18  1  0
 17 22  1  0
 18 19  1  0
 18 20  2  0
 20 21  1  0
 21 22  1  0
 22 23  2  0
 24 25  2  0
 24 30  1  0
 25 26  1  0
 26 27  2  0
 27 28  1  0
 28 29  1  0
 28 30  2  0
M  END
>  <DRUGBANK_ID>  (1) 
DB16137

>  <COMMON_NAME>  (1) 
Dezapelisib

>  <CAS_NUMBER>  (1) 
1262440-25-4

>  <UNII>  (1) 
2K59L7G59M

>  <SYNONYMS>  (1) 
6-(3-fluorophenyl)-3-methyl-7-[(1S)-1-(7H-purin-6-ylamino)ethyl]-[1,3]thiazolo[3,2-a]pyrimidin-5-one; Dezapelisib

$$$$
