
     RDKit          2D

 14 13  0  0  1  0  0  0  0  0999 V2000
   21.5646  -18.0621    0.0000 O   0  0  0  0  0  0  0  0  0  0  0  0
   20.8502  -20.1247    0.0000 O   0  0  0  0  0  0  0  0  0  0  0  0
   22.2792  -20.1247    0.0000 O   0  0  0  0  0  0  0  0  0  0  0  0
   20.1357  -18.0621    0.0000 O   0  0  0  0  0  0  0  0  0  0  0  0
   23.7081  -19.2997    0.0000 O   0  0  0  0  0  0  0  0  0  0  0  0
   18.7067  -18.8871    0.0000 O   0  0  0  0  0  0  0  0  0  0  0  0
   22.9936  -18.0621    0.0000 O   0  0  0  0  0  0  0  0  0  0  0  0
   19.4212  -20.1247    0.0000 O   0  0  0  0  0  0  0  0  0  0  0  0
   21.5646  -18.8871    0.0000 C   0  0  0  0  0  0  0  0  0  0  0  0
   20.8502  -19.2997    0.0000 C   0  0  0  0  0  0  0  0  0  0  0  0
   22.2792  -19.2997    0.0000 C   0  0  0  0  0  0  0  0  0  0  0  0
   20.1357  -18.8871    0.0000 C   0  0  0  0  0  0  0  0  0  0  0  0
   22.9936  -18.8871    0.0000 C   0  0  0  0  0  0  0  0  0  0  0  0
   19.4212  -19.2997    0.0000 C   0  0  0  0  0  0  0  0  0  0  0  0
  5 13  1  0
  6 14  1  0
  7 13  2  0
  8 14  2  0
  9  1  1  6
  9 10  1  0
  9 11  1  0
 10  2  1  6
 10 12  1  0
 11  3  1  1
 11 13  1  0
 12  4  1  6
 12 14  1  0
M  END
>  <DRUGBANK_ID>  (1) 
DB03603

>  <SECONDARY_ACCESSION_NUMBERS>  (1) 
EXPT01594

>  <COMMON_NAME>  (1) 
Glucaric acid

>  <CAS_NUMBER>  (1) 
87-73-0

>  <UNII>  (1) 
QLZ991V4A2

$$$$
