HOC
     RDKit          2D

 11 10  0  0  0  0  0  0  0  0999 V2000
   -2.0779    0.1218    0.0000 C   0  0  0  0  0  0  0  0  0  0  0  0
   -1.3634   -0.2907    0.0000 C   0  0  0  0  0  0  0  0  0  0  0  0
    2.2093    0.9469    0.0000 O   0  0  0  0  0  0  0  0  0  0  0  0
    2.9238   -0.2907    0.0000 C   0  0  0  0  0  0  0  0  0  0  0  0
    2.2093    0.1218    0.0000 C   0  0  0  0  0  0  0  0  0  0  0  0
    1.4947   -0.2907    0.0000 C   0  0  0  0  0  0  0  0  0  0  0  0
    0.7802    0.1218    0.0000 C   0  0  0  0  0  0  0  0  0  0  0  0
    0.0657   -0.2907    0.0000 C   0  0  0  0  0  0  0  0  0  0  0  0
   -0.6488    0.1218    0.0000 C   0  0  0  0  0  0  0  0  0  0  0  0
    3.6383    0.1218    0.0000 O   0  0  0  0  0  0  0  0  0  0  0  0
    2.9238   -1.1158    0.0000 O   0  0  0  0  0  0  0  0  0  0  0  0
  1  2  1  0
  2  9  1  0
  4  5  1  0
  4 10  1  0
  4 11  2  0
  5  3  1  6
  5  6  1  0
  6  7  1  0
  7  8  1  0
  8  9  1  0
M  END
>  <DRUGBANK_ID>  (1) 
DB07907

>  <COMMON_NAME>  (1) 
(2S)-2-HYDROXYOCTANOIC ACID

$$$$
