
     RDKit          2D

 24 27  0  0  0  0  0  0  0  0999 V2000
   -1.6537    0.3032    0.0000 C   0  0  0  0  0  0  0  0  0  0  0  0
   -1.6549   -0.5169    0.0000 C   0  0  0  0  0  0  0  0  0  0  0  0
   -0.9462   -0.9261    0.0000 C   0  0  0  0  0  0  0  0  0  0  0  0
   -0.9479    0.7123    0.0000 C   0  0  0  0  0  0  0  0  0  0  0  0
   -0.2389    0.3067    0.0000 C   0  0  0  0  0  0  0  0  0  0  0  0
   -0.2401   -0.5189    0.0000 C   0  0  0  0  0  0  0  0  0  0  0  0
    0.4703   -0.9306    0.0000 C   0  0  0  0  0  0  0  0  0  0  0  0
    1.1867   -0.5210    0.0000 C   0  0  0  0  0  0  0  0  0  0  0  0
    0.4728    0.7209    0.0000 C   0  0  0  0  0  0  0  0  0  0  0  0
    1.1879    0.3010    0.0000 C   0  0  0  0  0  0  0  0  0  0  0  0
    1.1982    1.9565    0.0000 C   0  0  0  0  0  0  0  0  0  0  0  0
    0.4748    1.5478    0.0000 C   0  0  0  0  0  0  0  0  0  0  0  0
    1.9133    1.5367    0.0000 C   0  0  0  0  0  0  0  0  0  0  0  0
    1.9046    0.7097    0.0000 C   0  0  0  0  0  0  0  0  0  0  0  0
    2.6885    0.4457    0.0000 C   0  0  0  0  0  0  0  0  0  0  0  0
    3.1818    1.1098    0.0000 C   0  0  0  0  0  0  0  0  0  0  0  0
    2.7026    1.7839    0.0000 C   0  0  0  0  0  0  0  0  0  0  0  0
    2.9636    2.5590    0.0000 O   0  0  0  0  0  0  0  0  0  0  0  0
    1.9079    2.3558    0.0000 C   0  0  0  0  0  0  0  0  0  0  0  0
   -2.3634   -0.9252    0.0000 O   0  0  0  0  0  0  0  0  0  0  0  0
   -2.3640   -1.7429    0.0000 S   0  0  0  0  0  0  0  0  0  0  0  0
   -2.3710   -2.5590    0.0000 N   0  0  0  0  0  0  0  0  0  0  0  0
   -1.5462   -1.7467    0.0000 O   0  0  0  0  0  0  0  0  0  0  0  0
   -3.1818   -1.7410    0.0000 O   0  0  0  0  0  0  0  0  0  0  0  0
  1  2  2  0
  2  3  1  0
  2 20  1  0
  3  6  2  0
  4  1  1  0
  5  9  1  0
  5  4  2  0
  5  6  1  0
  6  7  1  0
  7  8  1  0
 10  8  1  6
  9 10  1  0
  9 12  1  1
 10 14  1  0
 11 12  1  0
 13 14  1  0
 13 19  1  1
 13 11  1  0
 14 15  1  1
 15 16  1  0
 16 17  1  0
 17 13  1  0
 17 18  1  1
 20 21  1  0
 21 22  1  0
 21 23  2  0
 21 24  2  0
M  END
>  <DRUGBANK_ID>  (1) 
DB06597

>  <COMMON_NAME>  (1) 
Estradiol sulfamate

>  <CAS_NUMBER>  (1) 
172377-52-5

>  <UNII>  (1) 
WO55ODW08Z

>  <SYNONYMS>  (1) 
Estradiol 3-sulfamate; Estradiol-3-O-Sulfamate

$$$$
