DET
     RDKit          2D

 15 14  0  0  0  0  0  0  0  0999 V2000
   -3.1360   -0.2121    0.0000 N   0  0  0  0  0  0  0  0  0  0  0  0
   -3.8505   -0.6246    0.0000 O   0  0  0  0  0  0  0  0  0  0  0  0
   -2.7235   -0.9267    0.0000 C   0  0  0  0  0  0  0  0  0  0  0  0
   -3.5486    0.5024    0.0000 C   0  0  0  0  0  0  0  0  0  0  0  0
   -2.4215    0.2004    0.0000 C   0  0  0  0  0  0  0  0  0  0  0  0
   -1.7069   -0.2121    0.0000 C   0  0  0  0  0  0  0  0  0  0  0  0
   -0.9924    0.2004    0.0000 C   0  0  0  0  0  0  0  0  0  0  0  0
   -0.2779   -0.2121    0.0000 C   0  0  0  0  0  0  0  0  0  0  0  0
    0.4366    0.2004    0.0000 C   0  0  0  0  0  0  0  0  0  0  0  0
    1.1512   -0.2121    0.0000 C   0  0  0  0  0  0  0  0  0  0  0  0
    1.8656    0.2004    0.0000 C   0  0  0  0  0  0  0  0  0  0  0  0
    2.5802   -0.2121    0.0000 C   0  0  0  0  0  0  0  0  0  0  0  0
    3.2947    0.2004    0.0000 C   0  0  0  0  0  0  0  0  0  0  0  0
    4.0093   -0.2121    0.0000 C   0  0  0  0  0  0  0  0  0  0  0  0
    4.7238    0.2004    0.0000 C   0  0  0  0  0  0  0  0  0  0  0  0
  1  2  1  0
  1  3  1  0
  1  4  1  0
  1  5  1  0
  5  6  1  0
  6  7  1  0
  7  8  1  0
  8  9  1  0
  9 10  1  0
 10 11  1  0
 11 12  1  0
 12 13  1  0
 13 14  1  0
 14 15  1  0
M  CHG  2   1   1   2  -1
M  END
>  <DRUGBANK_ID>  (1) 
DB07646

>  <COMMON_NAME>  (1) 
UNDECYLAMINE-N,N-DIMETHYL-N-OXIDE

$$$$
