
     RDKit          2D

  5  4  0  0  0  0  0  0  0  0999 V2000
    4.2363   -0.0495    0.0000 O   0  0  0  0  0  0  0  0  0  0  0  0
    2.8074   -0.8745    0.0000 O   0  0  0  0  0  0  0  0  0  0  0  0
    3.5219    0.3630    0.0000 N   0  0  0  0  0  0  0  0  0  0  0  0
    2.0929    0.3630    0.0000 N   0  0  0  0  0  0  0  0  0  0  0  0
    2.8074   -0.0495    0.0000 C   0  0  0  0  0  0  0  0  0  0  0  0
  1  3  1  0
  2  5  2  0
  3  5  1  0
  4  5  1  0
M  END
>  <DRUGBANK_ID>  (1) 
DB01005

>  <SECONDARY_ACCESSION_NUMBERS>  (1) 
APRD00023

>  <COMMON_NAME>  (1) 
Hydroxyurea

>  <CAS_NUMBER>  (1) 
127-07-1

>  <UNII>  (1) 
X6Q56QN5QC

>  <SYNONYMS>  (1) 
Carbamohydroxamic acid; Carbamohydroximic acid; Carbamoyl oxime; Carbamyl hydroxamate; Hidroxicarbamida; Hydrea; Hydroxycarbamid; Hydroxycarbamide; Hydroxycarbamidum; Hydroxyharnstoff; Hydroxyurea; N-Carbamoylhydroxylamine; N-Hydroxyurea; Oxyurea

$$$$
