
     RDKit          2D

 21 21  0  0  1  0  0  0  0  0999 V2000
   -4.4708    5.1599    0.0000 C   0  0  0  0  0  0  0  0  0  0  0  0
   -4.6423    4.3529    0.0000 C   0  0  0  0  0  0  0  0  0  0  0  0
   -4.0292    3.8009    0.0000 C   0  0  0  0  0  0  0  0  0  0  0  0
    0.0078    0.9744    0.0000 C   0  0  0  0  0  0  0  0  0  0  0  0
   -0.7066    1.3869    0.0000 C   0  0  0  0  0  0  0  0  0  0  0  0
    0.7223    1.3869    0.0000 C   0  0  0  0  0  0  0  0  0  0  0  0
   -4.2007    2.9939    0.0000 C   0  0  0  0  0  0  0  0  0  0  0  0
   -1.4211    0.9744    0.0000 C   0  0  0  0  0  0  0  0  0  0  0  0
    1.4368    0.9744    0.0000 C   0  0  0  0  0  0  0  0  0  0  0  0
   -2.1356    1.3869    0.0000 C   0  0  0  0  0  0  0  0  0  0  0  0
   -3.5876    2.4418    0.0000 C   0  0  0  0  0  0  0  0  0  0  0  0
    2.1512    1.3869    0.0000 C   0  0  0  0  0  0  0  0  0  0  0  0
   -1.4681    2.6968    0.0000 C   0  0  0  0  0  0  0  0  0  0  0  0
   -1.7231    3.4814    0.0000 C   0  0  0  0  0  0  0  0  0  0  0  0
   -2.1356    2.2119    0.0000 C   0  0  0  0  0  0  0  0  0  0  0  0
   -2.8030    2.6968    0.0000 C   0  0  0  0  0  0  0  0  0  0  0  0
   -2.5481    3.4814    0.0000 C   0  0  0  0  0  0  0  0  0  0  0  0
    2.8657    0.9744    0.0000 C   0  0  0  0  0  0  0  0  0  0  0  0
   -3.0330    4.1488    0.0000 O   0  0  0  0  0  0  0  0  0  0  0  0
    3.5802    1.3869    0.0000 O   0  0  0  0  0  0  0  0  0  0  0  0
    2.8657    0.1494    0.0000 O   0  0  0  0  0  0  0  0  0  0  0  0
  2  1  1  0
  3  2  1  0
  5  4  1  0
  6  4  1  0
  7  3  2  3
  7 11  1  0
  8  5  1  0
  9  6  1  0
 10  8  1  0
 12  9  1  0
 14 13  2  0
 15 10  1  1
 15 13  1  0
 16 11  1  1
 16 15  1  0
 17 14  1  0
 17 16  1  0
 18 12  1  0
 19 17  2  0
 20 18  2  0
 21 18  1  0
M  END
>  <DRUGBANK_ID>  (1) 
DB03007

>  <SECONDARY_ACCESSION_NUMBERS>  (1) 
EXPT02441

>  <COMMON_NAME>  (1) 
9r,13r-Opda

$$$$
