CT8
     RDKit          2D

 24 27  0  0  0  0  0  0  0  0999 V2000
    2.2964    1.5506    0.0000 Br  0  0  0  0  0  0  0  0  0  0  0  0
    1.5819    1.9631    0.0000 C   0  0  0  0  0  0  0  0  0  0  0  0
    0.8674    1.5506    0.0000 C   0  0  0  0  0  0  0  0  0  0  0  0
    0.1529    1.9631    0.0000 C   0  0  0  0  0  0  0  0  0  0  0  0
    0.1529    2.7881    0.0000 C   0  0  0  0  0  0  0  0  0  0  0  0
    0.8674    3.2006    0.0000 C   0  0  0  0  0  0  0  0  0  0  0  0
    1.5819    2.7881    0.0000 C   0  0  0  0  0  0  0  0  0  0  0  0
   -0.5615    1.5506    0.0000 C   0  0  0  0  0  0  0  0  0  0  0  0
   -0.5615    0.7256    0.0000 C   0  0  0  0  0  0  0  0  0  0  0  0
   -1.2760    0.3131    0.0000 C   0  0  0  0  0  0  0  0  0  0  0  0
   -1.9905    0.7256    0.0000 N   0  0  0  0  0  0  0  0  0  0  0  0
   -2.7751    0.4707    0.0000 N   0  0  0  0  0  0  0  0  0  0  0  0
   -3.2600    1.1381    0.0000 C   0  0  0  0  0  0  0  0  0  0  0  0
   -1.9905    1.5506    0.0000 C   0  0  0  0  0  0  0  0  0  0  0  0
   -1.2760    1.9631    0.0000 N   0  0  0  0  0  0  0  0  0  0  0  0
   -1.2760   -0.5119    0.0000 N   0  0  0  0  0  0  0  0  0  0  0  0
   -0.5615   -0.9244    0.0000 C   0  0  0  0  0  0  0  0  0  0  0  0
   -0.5615   -1.7494    0.0000 C   0  0  0  0  0  0  0  0  0  0  0  0
    0.1529   -2.1619    0.0000 C   0  0  0  0  0  0  0  0  0  0  0  0
    0.1529   -2.9869    0.0000 C   0  0  0  0  0  0  0  0  0  0  0  0
   -0.5615   -3.3994    0.0000 N   0  0  0  0  0  0  0  0  0  0  0  0
   -1.2760   -2.9869    0.0000 C   0  0  0  0  0  0  0  0  0  0  0  0
   -1.2760   -2.1619    0.0000 C   0  0  0  0  0  0  0  0  0  0  0  0
   -2.7751    1.8055    0.0000 N   0  0  0  0  0  0  0  0  0  0  0  0
  1  2  1  0
  2  3  2  0
  2  7  1  0
  3  4  1  0
  4  5  2  0
  4  8  1  0
  5  6  1  0
  6  7  2  0
  8  9  2  0
  8 15  1  0
  9 10  1  0
 10 11  2  0
 10 16  1  0
 11 12  1  0
 11 14  1  0
 12 13  1  0
 13 24  2  0
 14 15  2  0
 14 24  1  0
 16 17  1  0
 17 18  1  0
 18 19  2  0
 18 23  1  0
 19 20  1  0
 20 21  2  0
 21 22  1  0
 22 23  2  0
M  CHG  1  11   1
M  END
>  <DRUGBANK_ID>  (1) 
DB04669

>  <COMMON_NAME>  (1) 
TRIAZOLOPYRIMIDINE

$$$$
