
     RDKit          2D

 30 34  0  0  0  0  0  0  0  0999 V2000
    3.3523    1.1104    0.0000 C   0  0  0  0  0  0  0  0  0  0  0  0
    3.3523    1.9354    0.0000 C   0  0  0  0  0  0  0  0  0  0  0  0
    2.6378    0.6979    0.0000 C   0  0  0  0  0  0  0  0  0  0  0  0
    2.6378    2.3479    0.0000 C   0  0  0  0  0  0  0  0  0  0  0  0
    2.5399    4.8143    0.0000 C   0  0  0  0  0  0  0  0  0  0  0  0
    1.4780    5.7704    0.0000 C   0  0  0  0  0  0  0  0  0  0  0  0
   -1.2400    4.8873    0.0000 C   0  0  0  0  0  0  0  0  0  0  0  0
   -1.5371    3.4896    0.0000 C   0  0  0  0  0  0  0  0  0  0  0  0
    3.0919    5.4274    0.0000 C   0  0  0  0  0  0  0  0  0  0  0  0
    2.0300    6.3835    0.0000 C   0  0  0  0  0  0  0  0  0  0  0  0
   -2.0470    5.0588    0.0000 C   0  0  0  0  0  0  0  0  0  0  0  0
   -2.3441    3.6611    0.0000 C   0  0  0  0  0  0  0  0  0  0  0  0
    1.9233    1.1104    0.0000 C   0  0  0  0  0  0  0  0  0  0  0  0
    1.9233    1.9354    0.0000 C   0  0  0  0  0  0  0  0  0  0  0  0
   -0.1712    1.5229    0.0000 C   0  0  0  0  0  0  0  0  0  0  0  0
    0.6538    1.5229    0.0000 C   0  0  0  0  0  0  0  0  0  0  0  0
    1.1809    4.3727    0.0000 C   0  0  0  0  0  0  0  0  0  0  0  0
   -0.1781    3.9312    0.0000 C   0  0  0  0  0  0  0  0  0  0  0  0
    0.8838    2.9750    0.0000 C   0  0  0  0  0  0  0  0  0  0  0  0
   -0.5837    2.2374    0.0000 F   0  0  0  0  0  0  0  0  0  0  0  0
   -0.5837    0.8085    0.0000 F   0  0  0  0  0  0  0  0  0  0  0  0
    1.1387    0.8555    0.0000 N   0  0  0  0  0  0  0  0  0  0  0  0
    0.3739    4.5442    0.0000 N   0  0  0  0  0  0  0  0  0  0  0  0
    1.4358    3.5881    0.0000 N   0  0  0  0  0  0  0  0  0  0  0  0
    0.0768    3.1465    0.0000 N   0  0  0  0  0  0  0  0  0  0  0  0
    1.7329    4.9858    0.0000 N   0  0  0  0  0  0  0  0  0  0  0  0
   -0.9851    4.1027    0.0000 N   0  0  0  0  0  0  0  0  0  0  0  0
    1.1387    2.1904    0.0000 N   0  0  0  0  0  0  0  0  0  0  0  0
    2.8370    6.2120    0.0000 O   0  0  0  0  0  0  0  0  0  0  0  0
   -2.5990    4.4457    0.0000 O   0  0  0  0  0  0  0  0  0  0  0  0
  2  1  2  0
  3  1  1  0
  4  2  1  0
  9  5  1  0
 10  6  1  0
 11  7  1  0
 12  8  1  0
 13  3  2  0
 14  4  2  0
 14 13  1  0
 16 15  1  0
 20 15  1  0
 21 15  1  0
 22 13  1  0
 22 16  2  0
 23 17  2  0
 23 18  1  0
 24 17  1  0
 24 19  2  0
 25 18  2  0
 25 19  1  0
 26  5  1  0
 26  6  1  0
 26 17  1  0
 27  7  1  0
 27  8  1  0
 27 18  1  0
 28 14  1  0
 28 16  1  0
 28 19  1  0
 29  9  1  0
 29 10  1  0
 30 11  1  0
 30 12  1  0
M  END
>  <DRUGBANK_ID>  (1) 
DB12904

>  <COMMON_NAME>  (1) 
ZSTK-474

>  <CAS_NUMBER>  (1) 
475110-96-4

>  <UNII>  (1) 
K0068GK39A

$$$$
