
     RDKit          2D

  6  4  0  0  0  0  0  0  0  0999 V2000
   -1.5947    0.0000    0.0000 Ca  0  0  0  0  0 15  0  0  0  0  0  0
    0.7697    0.8250    0.0000 O   0  0  0  0  0  0  0  0  0  0  0  0
    0.7697   -0.8250    0.0000 O   0  0  0  0  0  0  0  0  0  0  0  0
    1.5947    0.0000    0.0000 O   0  0  0  0  0  0  0  0  0  0  0  0
    0.7697    0.0000    0.0000 S   0  0  0  0  0  0  0  0  0  0  0  0
   -0.0552    0.0000    0.0000 O   0  0  0  0  0  0  0  0  0  0  0  0
  2  5  1  0
  5  3  1  0
  5  4  2  0
  5  6  2  0
M  CHG  3   1   2   2  -1   3  -1
M  END
>  <DRUGBANK_ID>  (1) 
DB15533

>  <COMMON_NAME>  (1) 
Calcium sulfate

>  <CAS_NUMBER>  (1) 
7778-18-9

>  <UNII>  (1) 
E934B3V59H

>  <SYNONYMS>  (1) 
Anhydrous gypsum; Calcium sulfate, anhydrous; Calcium sulphate

$$$$
