PD7
     RDKit          2D

 26 25  0  0  0  0  0  0  0  0999 V2000
    1.9489    0.9744    0.0000 O   0  0  0  0  0  0  0  0  0  0  0  0
    1.9489    0.1494    0.0000 C   0  0  0  0  0  0  0  0  0  0  0  0
    2.6634   -0.2631    0.0000 C   0  0  0  0  0  0  0  0  0  0  0  0
    3.3779    0.1494    0.0000 C   0  0  0  0  0  0  0  0  0  0  0  0
    4.0923   -0.2631    0.0000 C   0  0  0  0  0  0  0  0  0  0  0  0
    4.8068    0.1494    0.0000 C   0  0  0  0  0  0  0  0  0  0  0  0
    5.5213   -0.2631    0.0000 C   0  0  0  0  0  0  0  0  0  0  0  0
    6.2357    0.1494    0.0000 C   0  0  0  0  0  0  0  0  0  0  0  0
    1.2344   -0.2631    0.0000 O   0  0  0  0  0  0  0  0  0  0  0  0
    0.5200    0.1494    0.0000 C   0  0  0  0  0  0  0  0  0  0  0  0
   -0.1945   -0.2631    0.0000 C   0  0  0  0  0  0  0  0  0  0  0  0
   -0.1945   -1.0881    0.0000 C   0  0  0  0  0  0  0  0  0  0  0  0
   -0.9090   -1.5006    0.0000 O   0  0  0  0  0  0  0  0  0  0  0  0
   -0.9090   -2.3256    0.0000 P   0  0  0  0  0  0  0  0  0  0  0  0
   -0.0840   -2.3256    0.0000 O   0  0  0  0  0  0  0  0  0  0  0  0
   -0.9090   -3.1506    0.0000 O   0  0  0  0  0  0  0  0  0  0  0  0
   -1.7340   -2.3256    0.0000 O   0  0  0  0  0  0  0  0  0  0  0  0
   -0.9090    0.1494    0.0000 O   0  0  0  0  0  0  0  0  0  0  0  0
   -1.6234   -0.2631    0.0000 C   0  0  0  0  0  0  0  0  0  0  0  0
   -1.6234   -1.0881    0.0000 O   0  0  0  0  0  0  0  0  0  0  0  0
   -2.3379    0.1494    0.0000 C   0  0  0  0  0  0  0  0  0  0  0  0
   -3.0524   -0.2631    0.0000 C   0  0  0  0  0  0  0  0  0  0  0  0
   -3.7668    0.1494    0.0000 C   0  0  0  0  0  0  0  0  0  0  0  0
   -4.4813   -0.2631    0.0000 C   0  0  0  0  0  0  0  0  0  0  0  0
   -5.1958    0.1494    0.0000 C   0  0  0  0  0  0  0  0  0  0  0  0
   -5.9103   -0.2631    0.0000 C   0  0  0  0  0  0  0  0  0  0  0  0
  2  1  2  0
  2  9  1  0
  3  2  1  0
  4  3  1  0
  4  5  1  0
  6  5  1  0
  6  7  1  0
  8  7  1  0
  9 10  1  0
 11 10  1  6
 11 12  1  0
 11 18  1  0
 12 13  1  0
 13 14  1  0
 14 17  1  0
 14 15  1  0
 16 14  2  0
 19 18  1  0
 20 19  2  0
 21 19  1  0
 22 21  1  0
 23 22  1  0
 24 23  1  0
 25 24  1  0
 26 25  1  0
M  END
>  <DRUGBANK_ID>  (1) 
DB08376

>  <COMMON_NAME>  (1) 
(2R)-3-(phosphonooxy)propane-1,2-diyl diheptanoate

$$$$
