
     RDKit          2D

 36 40  0  0  1  0  0  0  0  0999 V2000
   -6.8434    0.5265    0.0000 C   0  0  0  0  0  0  0  0  0  0  0  0
   -7.5430    0.0893    0.0000 C   0  0  0  0  0  0  0  0  0  0  0  0
   -7.5142   -0.7352    0.0000 O   0  0  0  0  0  0  0  0  0  0  0  0
   -8.2138   -1.1724    0.0000 C   0  0  0  0  0  0  0  0  0  0  0  0
   -8.9423   -0.7851    0.0000 O   0  0  0  0  0  0  0  0  0  0  0  0
   -8.1851   -1.9969    0.0000 N   0  0  0  0  0  0  0  0  0  0  0  0
   -8.8847   -2.4341    0.0000 C   0  0  0  0  0  0  0  0  0  0  0  0
   -8.9422   -3.2571    0.0000 C   0  0  0  0  0  0  0  0  0  0  0  0
   -9.7427   -3.4566    0.0000 O   0  0  0  0  0  0  0  0  0  0  0  0
  -10.1799   -2.7570    0.0000 N   0  0  0  0  0  0  0  0  0  0  0  0
   -9.6496   -2.1250    0.0000 C   0  0  0  0  0  0  0  0  0  0  0  0
   -9.8492   -1.3245    0.0000 C   0  0  0  0  0  0  0  0  0  0  0  0
   -8.3103   -3.7874    0.0000 C   0  0  0  0  0  0  0  0  0  0  0  0
   -7.5350   -3.5052    0.0000 C   0  0  0  0  0  0  0  0  0  0  0  0
   -6.9030   -4.0355    0.0000 C   0  0  0  0  0  0  0  0  0  0  0  0
   -7.0463   -4.8480    0.0000 C   0  0  0  0  0  0  0  0  0  0  0  0
   -7.8215   -5.1301    0.0000 C   0  0  0  0  0  0  0  0  0  0  0  0
   -8.4535   -4.5998    0.0000 C   0  0  0  0  0  0  0  0  0  0  0  0
   -6.4143   -5.3783    0.0000 C   0  0  0  0  0  0  0  0  0  0  0  0
   -5.6391   -5.0961    0.0000 C   0  0  0  0  0  0  0  0  0  0  0  0
   -5.0071   -5.6264    0.0000 C   0  0  0  0  0  0  0  0  0  0  0  0
   -5.1503   -6.4389    0.0000 C   0  0  0  0  0  0  0  0  0  0  0  0
   -5.9256   -6.7210    0.0000 C   0  0  0  0  0  0  0  0  0  0  0  0
   -6.5576   -6.1907    0.0000 C   0  0  0  0  0  0  0  0  0  0  0  0
   -4.5183   -6.9692    0.0000 C   0  0  0  0  0  0  0  0  0  0  0  0
   -4.1058   -7.6836    0.0000 C   0  0  0  0  0  0  0  0  0  0  0  0
   -4.9308   -7.6836    0.0000 C   0  0  0  0  0  0  0  0  0  0  0  0
   -3.8864   -6.4389    0.0000 C   0  0  0  0  0  0  0  0  0  0  0  0
   -3.1111   -6.7210    0.0000 O   0  0  0  0  0  0  0  0  0  0  0  0
   -4.0296   -5.6264    0.0000 O   0  0  0  0  0  0  0  0  0  0  0  0
   -8.2714    0.4766    0.0000 C   0  0  0  0  0  0  0  0  0  0  0  0
   -8.9711    0.0394    0.0000 C   0  0  0  0  0  0  0  0  0  0  0  0
   -9.6995    0.4267    0.0000 C   0  0  0  0  0  0  0  0  0  0  0  0
   -9.7283    1.2512    0.0000 C   0  0  0  0  0  0  0  0  0  0  0  0
   -9.0287    1.6884    0.0000 C   0  0  0  0  0  0  0  0  0  0  0  0
   -8.3002    1.3011    0.0000 C   0  0  0  0  0  0  0  0  0  0  0  0
  2  1  1  1
  2  3  1  0
  2 31  1  0
  3  4  1  0
  4  5  2  0
  4  6  1  0
  6  7  1  0
  7  8  2  0
  7 11  1  0
  8  9  1  0
  8 13  1  0
  9 10  1  0
 10 11  2  0
 11 12  1  0
 13 14  2  0
 13 18  1  0
 14 15  1  0
 15 16  2  0
 16 17  1  0
 16 19  1  0
 17 18  2  0
 19 20  2  0
 19 24  1  0
 20 21  1  0
 21 22  2  0
 22 23  1  0
 22 25  1  0
 23 24  2  0
 25 26  1  0
 25 27  1  0
 25 28  1  0
 26 27  1  0
 28 29  1  0
 28 30  2  0
 31 32  2  0
 31 36  1  0
 32 33  1  0
 33 34  2  0
 34 35  1  0
 35 36  2  0
M  END
>  <DRUGBANK_ID>  (1) 
DB14948

>  <COMMON_NAME>  (1) 
BMS-986020

>  <CAS_NUMBER>  (1) 
1257213-50-5

>  <UNII>  (1) 
38CTP01B4L

$$$$
