
     RDKit          2D

 12 12  0  0  0  0  0  0  0  0999 V2000
    1.7861    1.4437    0.0000 S   0  0  0  0  0  0  0  0  0  0  0  0
    1.0716   -1.4437    0.0000 N   0  0  0  0  0  0  0  0  0  0  0  0
    0.3572    1.4437    0.0000 N   0  0  0  0  0  0  0  0  0  0  0  0
    1.0716    0.2062    0.0000 C   0  0  0  0  0  0  0  0  0  0  0  0
    0.3572   -1.0312    0.0000 C   0  0  0  0  0  0  0  0  0  0  0  0
    0.3572   -0.2062    0.0000 C   0  0  0  0  0  0  0  0  0  0  0  0
    1.0716    1.0312    0.0000 C   0  0  0  0  0  0  0  0  0  0  0  0
    1.7861   -0.2062    0.0000 C   0  0  0  0  0  0  0  0  0  0  0  0
    1.7861   -1.0312    0.0000 C   0  0  0  0  0  0  0  0  0  0  0  0
   -0.3572   -1.4437    0.0000 C   0  0  0  0  0  0  0  0  0  0  0  0
   -1.0717   -1.0312    0.0000 C   0  0  0  0  0  0  0  0  0  0  0  0
   -1.7861   -1.4437    0.0000 C   0  0  0  0  0  0  0  0  0  0  0  0
  1  7  2  0
  2  5  2  0
  2  9  1  0
  3  7  1  0
  4  6  2  0
  4  7  1  0
  4  8  1  0
  5  6  1  0
  5 10  1  0
  8  9  2  0
 10 11  1  0
 11 12  1  0
M  END
>  <DRUGBANK_ID>  (1) 
DB12667

>  <COMMON_NAME>  (1) 
Protionamide

>  <CAS_NUMBER>  (1) 
14222-60-7

>  <UNII>  (1) 
76YOO33643

>  <SYNONYMS>  (1) 
Prothionamide; Protionamida; Protionamide; Protionamidum

$$$$
