
     RDKit          2D

 19 20  0  0  0  0  0  0  0  0999 V2000
   -2.1434    8.6625    0.0000 C   0  0  0  0  0  0  0  0  0  0  0  0
   -3.5724    6.1875    0.0000 C   0  0  0  0  0  0  0  0  0  0  0  0
    0.0000    3.3000    0.0000 C   0  0  0  0  0  0  0  0  0  0  0  0
   -1.4289    3.3000    0.0000 C   0  0  0  0  0  0  0  0  0  0  0  0
    0.0000    4.1250    0.0000 C   0  0  0  0  0  0  0  0  0  0  0  0
   -1.4289    4.1250    0.0000 C   0  0  0  0  0  0  0  0  0  0  0  0
   -1.4289    7.4250    0.0000 C   0  0  0  0  0  0  0  0  0  0  0  0
   -2.1434    7.8375    0.0000 C   0  0  0  0  0  0  0  0  0  0  0  0
   -2.8579    6.6000    0.0000 C   0  0  0  0  0  0  0  0  0  0  0  0
   -0.7145    2.8875    0.0000 C   0  0  0  0  0  0  0  0  0  0  0  0
   -0.7145    4.5375    0.0000 C   0  0  0  0  0  0  0  0  0  0  0  0
   -1.4289    6.6000    0.0000 C   0  0  0  0  0  0  0  0  0  0  0  0
   -0.7145    2.0625    0.0000 N   0  0  0  0  0  0  0  0  0  0  0  0
   -2.8579    7.4250    0.0000 N   0  0  0  0  0  0  0  0  0  0  0  0
   -2.1434    6.1875    0.0000 N   0  0  0  0  0  0  0  0  0  0  0  0
   -0.7145    6.1875    0.0000 N   0  0  0  0  0  0  0  0  0  0  0  0
   -1.5395    5.3625    0.0000 O   0  0  0  0  0  0  0  0  0  0  0  0
    0.1105    5.3625    0.0000 O   0  0  0  0  0  0  0  0  0  0  0  0
   -0.7145    5.3625    0.0000 S   0  0  0  0  0  0  0  0  0  0  0  0
  5  3  2  0
  6  4  1  0
  8  1  1  0
  8  7  2  0
  9  2  1  0
 10  3  1  0
 10  4  2  0
 11  5  1  0
 11  6  2  0
 12  7  1  0
 13 10  1  0
 14  8  1  0
 14  9  2  0
 15  9  1  0
 15 12  2  0
 16 12  1  0
 19 11  1  0
 19 16  1  0
 19 17  2  0
 19 18  2  0
M  END
>  <DRUGBANK_ID>  (1) 
DB13283

>  <COMMON_NAME>  (1) 
Sulfaisodimidine

>  <CAS_NUMBER>  (1) 
515-64-0

>  <UNII>  (1) 
W03L3ODK6E

>  <SYNONYMS>  (1) 
solfisomidina; Sulfisomidine

$$$$
