
     RDKit          2D

 29 31  0  0  1  0  0  0  0  0999 V2000
    1.8414   -8.1395    0.0000 C   0  0  0  0  0  0  0  0  0  0  0  0
    1.1270   -8.5520    0.0000 C   0  0  0  0  0  0  0  0  0  0  0  0
    1.1270   -9.3770    0.0000 C   0  0  0  0  0  0  0  0  0  0  0  0
    0.4125   -9.7895    0.0000 C   0  0  0  0  0  0  0  0  0  0  0  0
   -0.3020   -9.3770    0.0000 C   0  0  0  0  0  0  0  0  0  0  0  0
   -0.3020   -8.5520    0.0000 C   0  0  0  0  0  0  0  0  0  0  0  0
    0.4125   -8.1395    0.0000 C   0  0  0  0  0  0  0  0  0  0  0  0
    0.4125   -7.3145    0.0000 C   0  0  0  0  0  0  0  0  0  0  0  0
   -0.3020   -6.9020    0.0000 O   0  0  0  0  0  0  0  0  0  0  0  0
   -0.3020   -6.0770    0.0000 C   0  0  0  0  0  0  0  0  0  0  0  0
    0.4125   -5.6645    0.0000 O   0  0  0  0  0  0  0  0  0  0  0  0
   -1.0164   -5.6645    0.0000 C   0  0  0  0  0  0  0  0  0  0  0  0
   -1.8414   -5.6645    0.0000 C   0  0  0  0  0  0  0  0  0  0  0  0
   -2.5559   -6.0770    0.0000 C   0  0  0  0  0  0  0  0  0  0  0  0
   -3.2704   -5.6645    0.0000 C   0  0  0  0  0  0  0  0  0  0  0  0
   -3.2704   -4.8395    0.0000 Cl  0  0  0  0  0  0  0  0  0  0  0  0
   -3.9849   -6.0770    0.0000 C   0  0  0  0  0  0  0  0  0  0  0  0
   -4.6993   -6.4895    0.0000 F   0  0  0  0  0  0  0  0  0  0  0  0
   -3.5724   -6.7914    0.0000 F   0  0  0  0  0  0  0  0  0  0  0  0
   -4.3974   -5.3625    0.0000 F   0  0  0  0  0  0  0  0  0  0  0  0
   -1.4289   -4.9500    0.0000 C   0  0  0  0  0  0  0  0  0  0  0  0
   -1.9021   -4.2742    0.0000 C   0  0  0  0  0  0  0  0  0  0  0  0
   -0.9557   -4.2742    0.0000 C   0  0  0  0  0  0  0  0  0  0  0  0
    1.8414   -9.7895    0.0000 C   0  0  0  0  0  0  0  0  0  0  0  0
    2.5559   -9.3770    0.0000 C   0  0  0  0  0  0  0  0  0  0  0  0
    3.2704   -9.7895    0.0000 C   0  0  0  0  0  0  0  0  0  0  0  0
    3.2704  -10.6145    0.0000 C   0  0  0  0  0  0  0  0  0  0  0  0
    2.5559  -11.0270    0.0000 C   0  0  0  0  0  0  0  0  0  0  0  0
    1.8414  -10.6145    0.0000 C   0  0  0  0  0  0  0  0  0  0  0  0
  1  2  1  0
  2  3  2  0
  2  7  1  0
  3  4  1  0
  3 24  1  0
  4  5  2  0
  5  6  1  0
  6  7  2  0
  7  8  1  0
  8  9  1  0
  9 10  1  0
 10 11  2  0
 12 10  1  6
 12 13  1  0
 12 21  1  0
 13 14  1  6
 13 21  1  0
 14 15  2  0
 15 16  1  0
 15 17  1  0
 17 18  1  0
 17 19  1  0
 17 20  1  0
 21 22  1  0
 21 23  1  0
 24 25  2  0
 24 29  1  0
 25 26  1  0
 26 27  2  0
 27 28  1  0
 28 29  2  0
M  END
>  <DRUGBANK_ID>  (1) 
DB15056

>  <COMMON_NAME>  (1) 
Bifenthrin

>  <CAS_NUMBER>  (1) 
82657-04-3

>  <UNII>  (1) 
6B66JED0KN

>  <SYNONYMS>  (1) 
CAPTURE

$$$$
