
     RDKit          2D

 12 13  0  0  0  0  0  0  0  0999 V2000
    1.0717   -1.2372    0.0000 C   0  0  0  0  0  0  0  0  0  0  0  0
    1.7862   -0.8248    0.0000 C   0  0  0  0  0  0  0  0  0  0  0  0
   -1.0718   -0.8248    0.0000 C   0  0  0  0  0  0  0  0  0  0  0  0
   -1.0718    0.0002    0.0000 C   0  0  0  0  0  0  0  0  0  0  0  0
   -0.3573    0.4127    0.0000 C   0  0  0  0  0  0  0  0  0  0  0  0
    0.3571    0.0002    0.0000 C   0  0  0  0  0  0  0  0  0  0  0  0
    1.0717    0.4127    0.0000 C   0  0  0  0  0  0  0  0  0  0  0  0
    1.7862    0.0002    0.0000 C   0  0  0  0  0  0  0  0  0  0  0  0
    0.3571   -0.8248    0.0000 C   0  0  0  0  0  0  0  0  0  0  0  0
   -0.3573   -1.2372    0.0000 C   0  0  0  0  0  0  0  0  0  0  0  0
   -1.7862   -1.2379    0.0000 O   0  0  0  0  0  0  0  0  0  0  0  0
    1.0714    1.2379    0.0000 O   0  0  0  0  0  0  0  0  0  0  0  0
  1  9  2  0
  2  1  1  0
  3  4  1  0
  3 10  2  0
  4  5  2  0
  5  6  1  0
  6  7  2  0
  6  9  1  0
  7 12  1  0
  7  8  1  0
  8  2  2  0
  9 10  1  0
 11  3  1  0
M  END
>  <DRUGBANK_ID>  (1) 
DB07661

>  <COMMON_NAME>  (1) 
1,6-Naphthalenediol

>  <CAS_NUMBER>  (1) 
575-44-0

>  <UNII>  (1) 
34C30KW024

>  <SYNONYMS>  (1) 
1,6-dihydroxynaphthalene; 2,5-dihydroxynaphthalene; 2,5-naphthalenediol; 6-hydroxy-1-naphthol; Naphthalene-1,6-diol

$$$$
