
     RDKit          2D

 12 13  0  0  0  0  0  0  0  0999 V2000
    3.9934    0.8250    0.0000 C   0  0  0  0  0  0  0  0  0  0  0  0
    3.2789    1.2375    0.0000 C   0  0  0  0  0  0  0  0  0  0  0  0
    3.9934    0.0000    0.0000 C   0  0  0  0  0  0  0  0  0  0  0  0
    1.7798    1.0799    0.0000 C   0  0  0  0  0  0  0  0  0  0  0  0
    2.5645    0.8250    0.0000 C   0  0  0  0  0  0  0  0  0  0  0  0
    3.2789   -0.4125    0.0000 C   0  0  0  0  0  0  0  0  0  0  0  0
    2.5645    0.0000    0.0000 C   0  0  0  0  0  0  0  0  0  0  0  0
    1.2949    0.4125    0.0000 N   0  0  0  0  0  0  0  0  0  0  0  0
    1.7798   -0.2549    0.0000 N   0  0  0  0  0  0  0  0  0  0  0  0
    3.2789   -1.2375    0.0000 N   0  0  0  0  0  0  0  0  0  0  0  0
    3.9934   -1.6500    0.0000 O   0  0  0  0  0  0  0  0  0  0  0  0
    2.5645   -1.6500    0.0000 O   0  0  0  0  0  0  0  0  0  0  0  0
  2  1  2  0
  3  1  1  0
  5  2  1  0
  5  4  2  0
  6  3  2  0
  7  5  1  0
  7  6  1  0
  8  4  1  0
  9  7  2  0
  9  8  1  0
 10  6  1  0
 11 10  1  0
 12 10  2  0
M  CHG  2  10   1  11  -1
M  END
>  <DRUGBANK_ID>  (1) 
DB02207

>  <SECONDARY_ACCESSION_NUMBERS>  (1) 
EXPT00314

>  <COMMON_NAME>  (1) 
7-Nitroindazole

>  <CAS_NUMBER>  (1) 
2942-42-9

>  <UNII>  (1) 
UX0N37CMVH

$$$$
