MAX
     RDKit          2D

 26 28  0  0  0  0  0  0  0  0999 V2000
    1.2806    1.9098    0.0000 C   0  0  0  0  0  0  0  0  0  0  0  0
    1.9951    2.3223    0.0000 C   0  0  0  0  0  0  0  0  0  0  0  0
    2.7096    1.9098    0.0000 C   0  0  0  0  0  0  0  0  0  0  0  0
    2.7096    1.0848    0.0000 C   0  0  0  0  0  0  0  0  0  0  0  0
    1.9951    0.6723    0.0000 C   0  0  0  0  0  0  0  0  0  0  0  0
    1.2806    1.0848    0.0000 C   0  0  0  0  0  0  0  0  0  0  0  0
    0.5661    0.6723    0.0000 C   0  0  0  0  0  0  0  0  0  0  0  0
    0.5661   -0.1527    0.0000 C   0  0  0  0  0  0  0  0  0  0  0  0
    1.2336   -0.6376    0.0000 C   0  0  0  0  0  0  0  0  0  0  0  0
    0.9786   -1.4222    0.0000 O   0  0  0  0  0  0  0  0  0  0  0  0
    0.1536   -1.4222    0.0000 C   0  0  0  0  0  0  0  0  0  0  0  0
   -0.1013   -0.6376    0.0000 C   0  0  0  0  0  0  0  0  0  0  0  0
   -0.3313   -2.0897    0.0000 O   0  0  0  0  0  0  0  0  0  0  0  0
   -0.8859   -0.3827    0.0000 C   0  0  0  0  0  0  0  0  0  0  0  0
   -1.4990   -0.9347    0.0000 C   0  0  0  0  0  0  0  0  0  0  0  0
   -1.3275   -1.7417    0.0000 C   0  0  0  0  0  0  0  0  0  0  0  0
   -1.9406   -2.2937    0.0000 C   0  0  0  0  0  0  0  0  0  0  0  0
   -2.7252   -2.0388    0.0000 C   0  0  0  0  0  0  0  0  0  0  0  0
   -2.8967   -1.2318    0.0000 C   0  0  0  0  0  0  0  0  0  0  0  0
   -2.2836   -0.6798    0.0000 C   0  0  0  0  0  0  0  0  0  0  0  0
   -3.6813   -0.9768    0.0000 O   0  0  0  0  0  0  0  0  0  0  0  0
   -4.2944   -1.5289    0.0000 C   0  0  0  0  0  0  0  0  0  0  0  0
   -3.3383   -2.5908    0.0000 O   0  0  0  0  0  0  0  0  0  0  0  0
    3.4240    2.3223    0.0000 O   0  0  0  0  0  0  0  0  0  0  0  0
    1.9951    3.1473    0.0000 O   0  0  0  0  0  0  0  0  0  0  0  0
    2.7096    3.5598    0.0000 C   0  0  0  0  0  0  0  0  0  0  0  0
  1  2  2  0
  1  6  1  0
  2  3  1  0
  2 25  1  0
  3  4  2  0
  3 24  1  0
  4  5  1  0
  5  6  2  0
  6  7  1  0
  8  7  1  1
  8  9  1  0
  8 12  1  0
  9 10  1  0
 10 11  1  0
 11 12  1  0
 11 13  2  0
 12 14  1  6
 14 15  1  0
 15 16  2  0
 15 20  1  0
 16 17  1  0
 17 18  2  0
 18 19  1  0
 18 23  1  0
 19 20  2  0
 19 21  1  0
 21 22  1  0
 25 26  1  0
M  END
>  <DRUGBANK_ID>  (1) 
DB04200

>  <SECONDARY_ACCESSION_NUMBERS>  (1) 
EXPT02118

>  <COMMON_NAME>  (1) 
Matairesinol

>  <CAS_NUMBER>  (1) 
580-72-3

>  <UNII>  (1) 
XLW63P8WUA

>  <SYNONYMS>  (1) 
(âˆ’)-matairesinol; 3R,4R-Bis((4-hydroxy-3-methoxyphenyl)methyl)dihydro-2(3H)-furanone; Artigenin congener; Matairesinol

$$$$
