
     RDKit          2D

  8  8  0  0  0  0  0  0  0  0999 V2000
    1.4290   -0.5692    0.0000 O   0  0  0  0  0  0  0  0  0  0  0  0
   -1.4290   -0.5692    0.0000 O   0  0  0  0  0  0  0  0  0  0  0  0
    0.0000   -0.5692    0.0000 N   0  0  0  0  0  0  0  0  0  0  0  0
   -0.7146    0.6682    0.0000 N   0  0  0  0  0  0  0  0  0  0  0  0
    0.7146   -0.1567    0.0000 C   0  0  0  0  0  0  0  0  0  0  0  0
    0.7146    0.6682    0.0000 C   0  0  0  0  0  0  0  0  0  0  0  0
   -0.7146   -0.1567    0.0000 C   0  0  0  0  0  0  0  0  0  0  0  0
    0.0000    1.0808    0.0000 C   0  0  0  0  0  0  0  0  0  0  0  0
  2  7  2  0
  3  5  1  0
  3  7  1  0
  4  7  1  0
  4  8  1  0
  5  1  1  6
  5  6  1  0
  6  8  2  0
M  END
>  <DRUGBANK_ID>  (1) 
DB03939

>  <SECONDARY_ACCESSION_NUMBERS>  (1) 
EXPT01777

>  <COMMON_NAME>  (1) 
(4S)-4-hydroxy-3,4-dihydro-2(1H)-pyrimidinone

$$$$
