
     RDKit          2D

 21 24  0  0  1  0  0  0  0  0999 V2000
   16.4957  -10.5233    0.0000 C   0  0  0  0  0  0  0  0  0  0  0  0
   15.7811  -10.9341    0.0000 C   0  0  0  0  0  0  0  0  0  0  0  0
   17.2171  -10.9410    0.0000 C   0  0  0  0  0  0  0  0  0  0  0  0
   16.4992   -9.7017    0.0000 C   0  0  0  0  0  0  0  0  0  0  0  0
   15.5532  -10.4473    0.0000 O   0  0  0  0  0  0  0  0  0  0  0  0
   15.0078  -10.6303    0.0000 O   0  0  0  0  0  0  0  0  0  0  0  0
   15.7846  -11.7695    0.0000 O   0  0  0  0  0  0  0  0  0  0  0  0
   17.2171  -11.7695    0.0000 C   0  0  0  0  0  0  0  0  0  0  0  0
   17.9282  -10.5267    0.0000 C   0  0  0  0  0  0  0  0  0  0  0  0
   17.2171   -9.2874    0.0000 C   0  0  0  0  0  0  0  0  0  0  0  0
   16.0573   -9.0942    0.0000 C   0  0  0  0  0  0  0  0  0  0  0  0
   15.5567   -9.6223    0.0000 O   0  0  0  0  0  0  0  0  0  0  0  0
   14.7627   -9.8397    0.0000 C   0  0  0  0  0  0  0  0  0  0  0  0
   16.4992  -12.1837    0.0000 C   0  0  0  0  0  0  0  0  0  0  0  0
   17.9317  -12.1803    0.0000 C   0  0  0  0  0  0  0  0  0  0  0  0
   17.9282   -9.7017    0.0000 C   0  0  0  0  0  0  0  0  0  0  0  0
   17.2171   -8.4625    0.0000 C   0  0  0  0  0  0  0  0  0  0  0  0
   15.2288   -9.0769    0.0000 C   0  0  0  0  0  0  0  0  0  0  0  0
   13.9446   -9.8397    0.0000 C   0  0  0  0  0  0  0  0  0  0  0  0
   16.5026  -13.0087    0.0000 O   0  0  0  0  0  0  0  0  0  0  0  0
   15.7806  -13.4294    0.0000 C   0  0  0  0  0  0  0  0  0  0  0  0
  1  2  1  0
  1  3  1  0
  1  4  1  0
  1  5  1  6
  2  6  1  0
  2  7  1  6
  3  8  1  0
  3  9  1  1
  4 10  1  0
  4 11  1  1
  5 12  1  0
  6 13  1  0
  7 14  1  0
  8 15  1  1
  8 14  1  0
  9 16  1  0
 10 17  1  6
 10 16  1  0
 11 18  1  0
 13 19  1  6
 13 12  1  0
 13 18  1  0
 14 20  1  1
 20 21  1  0
M  END
>  <DRUGBANK_ID>  (1) 
DB06697

>  <COMMON_NAME>  (1) 
Artemether

>  <CAS_NUMBER>  (1) 
71963-77-4

>  <UNII>  (1) 
C7D6T3H22J

>  <SYNONYMS>  (1) 
(1R,4S,5R,8S,9R,10S,12R,13R)-10-methoxy-1,5,9-trimethyl-11,14,15,16-tetraoxatetracyclo[10.3.1.0^{4,13}.0^{8,13}]hexadecane; 10-methoxy-1,5,9-trimethyl-(1R,4S,5R,8S,9R,10S,12R,13R)-11,14,15,16-tetraoxatetracyclo[10.3.1.04,13.08,13]hexadecane; Artemetero; Artemether; Artemetherum; Artemisininelactol methyl ether; Dihydroartemisinin methyl ether; Dihydroqinghaosu methyl ether; methyl-dihydroartemisinine; β-artemether; β-dihydroartemisinin methyl ether

$$$$
