
     RDKit          2D

 21 23  0  0  1  0  0  0  0  0999 V2000
    0.4210    3.7125    0.0000 C   0  0  0  0  0  0  0  0  0  0  0  0
    1.1355    3.3000    0.0000 C   0  0  0  0  0  0  0  0  0  0  0  0
    1.8500    3.7125    0.0000 C   0  0  0  0  0  0  0  0  0  0  0  0
    2.5645    3.3000    0.0000 C   0  0  0  0  0  0  0  0  0  0  0  0
    2.5645    2.4750    0.0000 C   0  0  0  0  0  0  0  0  0  0  0  0
    1.8500    2.0625    0.0000 C   0  0  0  0  0  0  0  0  0  0  0  0
    1.1355    2.4750    0.0000 N   0  0  0  0  0  0  0  0  0  0  0  0
    0.4210    2.0625    0.0000 C   0  0  0  0  0  0  0  0  0  0  0  0
    0.4210    1.2375    0.0000 O   0  0  0  0  0  0  0  0  0  0  0  0
   -0.2934    2.4750    0.0000 C   0  0  0  0  0  0  0  0  0  0  0  0
   -1.0079    2.0625    0.0000 C   0  0  0  0  0  0  0  0  0  0  0  0
    3.2789    2.0625    0.0000 N   0  0  0  0  0  0  0  0  0  0  0  0
    3.2789    1.2375    0.0000 C   0  0  0  0  0  0  0  0  0  0  0  0
    3.9934    0.8250    0.0000 N   0  0  0  0  0  0  0  0  0  0  0  0
    3.9934    0.0000    0.0000 C   0  0  0  0  0  0  0  0  0  0  0  0
    3.2789   -0.4125    0.0000 N   0  0  0  0  0  0  0  0  0  0  0  0
    2.5645    0.0000    0.0000 C   0  0  0  0  0  0  0  0  0  0  0  0
    2.5645    0.8250    0.0000 C   0  0  0  0  0  0  0  0  0  0  0  0
    1.7798    1.0799    0.0000 C   0  0  0  0  0  0  0  0  0  0  0  0
    1.2949    0.4125    0.0000 C   0  0  0  0  0  0  0  0  0  0  0  0
    1.7798   -0.2549    0.0000 N   0  0  0  0  0  0  0  0  0  0  0  0
  2  1  1  1
  2  3  1  0
  2  7  1  0
  3  4  1  0
  5  4  1  0
  5  6  1  0
  5 12  1  1
  6  7  1  0
  7  8  1  0
  8  9  2  0
  8 10  1  0
 10 11  2  0
 12 13  1  0
 13 14  2  0
 13 18  1  0
 14 15  1  0
 15 16  2  0
 16 17  1  0
 17 18  2  0
 17 21  1  0
 18 19  1  0
 19 20  2  0
 20 21  1  0
M  END
>  <DRUGBANK_ID>  (1) 
DB14924

>  <COMMON_NAME>  (1) 
Ritlecitinib

>  <CAS_NUMBER>  (1) 
1792180-81-4

>  <UNII>  (1) 
2OYE00PC25

>  <SYNONYMS>  (1) 
2-propen-1-one, 1-((2S,5R)-2-methyl-5-(7H-pyrrolo(2,3-D)pyrimidin-4-ylamino)-1-piperidinyl)-

$$$$
