APF
     RDKit          2D

 18 18  0  0  0  0  0  0  0  0999 V2000
   -1.7226   -1.7600    0.0000 C   0  0  0  0  0  0  0  0  0  0  0  0
   -1.0081   -1.3475    0.0000 C   0  0  0  0  0  0  0  0  0  0  0  0
   -0.2936   -1.7600    0.0000 O   0  0  0  0  0  0  0  0  0  0  0  0
   -1.0081   -0.5225    0.0000 N   0  0  0  0  0  0  0  0  0  0  0  0
   -0.2936   -0.1100    0.0000 C   0  0  0  0  0  0  0  0  0  0  0  0
    0.4208   -0.5225    0.0000 C   0  0  0  0  0  0  0  0  0  0  0  0
    0.4208   -1.3475    0.0000 C   0  0  0  0  0  0  0  0  0  0  0  0
   -0.2936    0.7150    0.0000 C   0  0  0  0  0  0  0  0  0  0  0  0
    1.1353   -0.1100    0.0000 O   0  0  0  0  0  0  0  0  0  0  0  0
   -0.4042   -1.3475    0.0000 F   0  0  0  0  0  0  0  0  0  0  0  0
    1.2458   -1.3475    0.0000 F   0  0  0  0  0  0  0  0  0  0  0  0
    0.4208   -2.1725    0.0000 F   0  0  0  0  0  0  0  0  0  0  0  0
    0.4208    1.1275    0.0000 C   0  0  0  0  0  0  0  0  0  0  0  0
    0.4208    1.9525    0.0000 C   0  0  0  0  0  0  0  0  0  0  0  0
    1.1353    2.3650    0.0000 C   0  0  0  0  0  0  0  0  0  0  0  0
    1.8498    1.9525    0.0000 C   0  0  0  0  0  0  0  0  0  0  0  0
    1.8498    1.1275    0.0000 C   0  0  0  0  0  0  0  0  0  0  0  0
    1.1353    0.7150    0.0000 C   0  0  0  0  0  0  0  0  0  0  0  0
  1  2  1  0
  2  3  2  0
  2  4  1  0
  5  4  1  0
  5  6  1  0
  5  8  1  1
  6  7  1  0
  6  9  2  0
  7 10  1  0
  7 11  1  0
  7 12  1  0
  8 13  1  0
 13 14  2  0
 13 18  1  0
 14 15  1  0
 15 16  2  0
 16 17  1  0
 17 18  2  0
M  END
>  <DRUGBANK_ID>  (1) 
DB07380

>  <COMMON_NAME>  (1) 
1,1,1-TRIFLUORO-3-ACETAMIDO-4-PHENYL BUTAN-2-ONE(N-ACETYL-L-PHENYLALANYL TRIFLUOROMETHYL KETONE)

$$$$
