NC7
     RDKit          2D

 19 19  0  0  0  0  0  0  0  0999 V2000
   -2.7264   -0.0770    0.0000 C   0  0  0  0  0  0  0  0  0  0  0  0
   -2.0118   -0.4895    0.0000 N   0  0  0  0  0  0  0  0  0  0  0  0
   -1.2973   -0.0770    0.0000 C   0  0  0  0  0  0  0  0  0  0  0  0
   -0.5828   -0.4895    0.0000 N   0  0  0  0  0  0  0  0  0  0  0  0
    0.1317   -0.0770    0.0000 C   0  0  0  0  0  0  0  0  0  0  0  0
    0.8463   -0.4895    0.0000 C   0  0  0  0  0  0  0  0  0  0  0  0
    1.5607   -0.0770    0.0000 C   0  0  0  0  0  0  0  0  0  0  0  0
    2.2753   -0.4895    0.0000 C   0  0  0  0  0  0  0  0  0  0  0  0
    2.9898   -0.0770    0.0000 C   0  0  0  0  0  0  0  0  0  0  0  0
   -1.2973    0.7481    0.0000 O   0  0  0  0  0  0  0  0  0  0  0  0
    3.7044   -0.4895    0.0000 C   0  0  0  0  0  0  0  0  0  0  0  0
    4.4188   -0.0770    0.0000 C   0  0  0  0  0  0  0  0  0  0  0  0
    5.1334   -0.4895    0.0000 O   0  0  0  0  0  0  0  0  0  0  0  0
    4.4188    0.7481    0.0000 O   0  0  0  0  0  0  0  0  0  0  0  0
   -3.4409   -0.4895    0.0000 C   0  0  0  0  0  0  0  0  0  0  0  0
   -4.1554   -0.0770    0.0000 C   0  0  0  0  0  0  0  0  0  0  0  0
   -4.1554    0.7481    0.0000 C   0  0  0  0  0  0  0  0  0  0  0  0
   -3.4409    1.1606    0.0000 C   0  0  0  0  0  0  0  0  0  0  0  0
   -2.7264    0.7481    0.0000 C   0  0  0  0  0  0  0  0  0  0  0  0
  1  2  1  0
  1 15  1  0
  1 19  1  0
  2  3  1  0
  3  4  1  0
  3 10  2  0
  4  5  1  0
  5  6  1  0
  6  7  1  0
  7  8  1  0
  8  9  1  0
  9 11  1  0
 11 12  1  0
 12 13  1  0
 12 14  2  0
 15 16  1  0
 16 17  1  0
 17 18  1  0
 18 19  1  0
M  END
>  <DRUGBANK_ID>  (1) 
DB08259

>  <COMMON_NAME>  (1) 
7-{[(CYCLOHEXYLAMINO)CARBONYL]AMINO}HEPTANOIC ACID

$$$$
