
     RDKit          2D

 28 32  0  0  1  0  0  0  0  0999 V2000
    8.0250    1.1679    0.0000 C   0  0  0  0  0  0  0  0  0  0  0  0
    7.3575    1.6528    0.0000 N   0  0  0  0  0  0  0  0  0  0  0  0
    6.5729    1.3978    0.0000 C   0  0  0  0  0  0  0  0  0  0  0  0
    6.0880    2.0653    0.0000 C   0  0  0  0  0  0  0  0  0  0  0  0
    5.2630    2.0653    0.0000 N   0  0  0  0  0  0  0  0  0  0  0  0
    4.8505    1.3508    0.0000 C   0  0  0  0  0  0  0  0  0  0  0  0
    5.2630    0.6363    0.0000 N   0  0  0  0  0  0  0  0  0  0  0  0
    4.8505   -0.0781    0.0000 C   0  0  0  0  0  0  0  0  0  0  0  0
    4.0255   -0.0781    0.0000 C   0  0  0  0  0  0  0  0  0  0  0  0
    3.6130    0.6363    0.0000 C   0  0  0  0  0  0  0  0  0  0  0  0
    4.0255    1.3508    0.0000 N   0  0  0  0  0  0  0  0  0  0  0  0
    2.7880    0.6363    0.0000 N   0  0  0  0  0  0  0  0  0  0  0  0
    2.4300    1.3796    0.0000 C   0  0  0  0  0  0  0  0  0  0  0  0
    1.6257    1.5632    0.0000 C   0  0  0  0  0  0  0  0  0  0  0  0
    0.9807    1.0488    0.0000 C   0  0  0  0  0  0  0  0  0  0  0  0
    0.9807    0.2238    0.0000 C   0  0  0  0  0  0  0  0  0  0  0  0
    1.6257   -0.2905    0.0000 C   0  0  0  0  0  0  0  0  0  0  0  0
    2.4300   -0.1070    0.0000 C   0  0  0  0  0  0  0  0  0  0  0  0
    1.3940    0.6363    0.0000 N   0  0  0  0  0  0  0  0  0  0  0  0
    0.5690    0.6363    0.0000 C   0  0  0  0  0  0  0  0  0  0  0  0
    0.1565    1.3508    0.0000 O   0  0  0  0  0  0  0  0  0  0  0  0
    0.1565   -0.0781    0.0000 C   0  0  0  0  0  0  0  0  0  0  0  0
    0.1565   -0.9031    0.0000 C   0  0  0  0  0  0  0  0  0  0  0  0
   -0.5580   -0.4906    0.0000 C   0  0  0  0  0  0  0  0  0  0  0  0
   -1.2338   -0.9638    0.0000 F   0  0  0  0  0  0  0  0  0  0  0  0
   -1.2338   -0.0174    0.0000 F   0  0  0  0  0  0  0  0  0  0  0  0
    6.5729    2.7327    0.0000 C   0  0  0  0  0  0  0  0  0  0  0  0
    7.3575    2.4778    0.0000 N   0  0  0  0  0  0  0  0  0  0  0  0
  1  2  1  0
  2  3  1  0
  2 28  1  0
  3  4  2  0
  4  5  1  0
  4 27  1  0
  5  6  1  0
  6  7  2  0
  6 11  1  0
  7  8  1  0
  8  9  2  0
  9 10  1  0
 10 11  2  0
 10 12  1  0
 12 13  1  0
 12 18  1  0
 14 13  1  1
 14 15  1  0
 14 19  1  0
 15 16  1  0
 17 16  1  1
 17 18  1  0
 17 19  1  0
 19 20  1  0
 20 21  2  0
 22 20  1  6
 22 23  1  0
 22 24  1  0
 23 24  1  0
 24 25  1  0
 24 26  1  0
 27 28  2  0
M  END
>  <DRUGBANK_ID>  (1) 
DB15003

>  <COMMON_NAME>  (1) 
PF-06700841

>  <CAS_NUMBER>  (1) 
1883299-62-4

>  <UNII>  (1) 
3X8387Q25N

$$$$
