PLH
     RDKit          2D

 25 25  0  0  0  0  0  0  0  0999 V2000
    2.9025   -0.5842    0.0000 C   0  0  0  0  0  0  0  0  0  0  0  0
    2.0923   -0.7401    0.0000 C   0  0  0  0  0  0  0  0  0  0  0  0
    1.5522   -0.1164    0.0000 C   0  0  0  0  0  0  0  0  0  0  0  0
    1.8223    0.6631    0.0000 C   0  0  0  0  0  0  0  0  0  0  0  0
    1.2822    1.2868    0.0000 C   0  0  0  0  0  0  0  0  0  0  0  0
    0.4721    1.1309    0.0000 C   0  0  0  0  0  0  0  0  0  0  0  0
    1.5522    2.0663    0.0000 C   0  0  0  0  0  0  0  0  0  0  0  0
    0.7421   -0.2723    0.0000 C   0  0  0  0  0  0  0  0  0  0  0  0
   -0.6081    0.1954    0.0000 C   0  0  0  0  0  0  0  0  0  0  0  0
   -0.8782   -0.5842    0.0000 C   0  0  0  0  0  0  0  0  0  0  0  0
   -0.6081   -1.9874    0.0000 C   0  0  0  0  0  0  0  0  0  0  0  0
   -1.1482    0.8190    0.0000 C   0  0  0  0  0  0  0  0  0  0  0  0
   -1.9584    0.6631    0.0000 C   0  0  0  0  0  0  0  0  0  0  0  0
   -2.2284   -0.1164    0.0000 C   0  0  0  0  0  0  0  0  0  0  0  0
   -3.0385   -0.2723    0.0000 C   0  0  0  0  0  0  0  0  0  0  0  0
   -3.5786    0.3513    0.0000 C   0  0  0  0  0  0  0  0  0  0  0  0
   -3.3086    1.1309    0.0000 C   0  0  0  0  0  0  0  0  0  0  0  0
   -2.4984    1.2868    0.0000 C   0  0  0  0  0  0  0  0  0  0  0  0
    3.4425   -1.2078    0.0000 N   0  0  0  0  0  0  0  0  0  0  0  0
    0.2020    0.3513    0.0000 N   0  0  0  0  0  0  0  0  0  0  0  0
   -0.3381   -1.2078    0.0000 N   0  0  0  0  0  0  0  0  0  0  0  0
    4.2527   -1.0519    0.0000 O   0  0  0  0  0  0  0  0  0  0  0  0
    3.1725    0.1954    0.0000 O   0  0  0  0  0  0  0  0  0  0  0  0
    0.4721   -1.0519    0.0000 O   0  0  0  0  0  0  0  0  0  0  0  0
   -1.6883   -0.7401    0.0000 O   0  0  0  0  0  0  0  0  0  0  0  0
  1  2  1  0
  1 19  1  0
  1 23  2  0
  3  2  1  6
  3  4  1  0
  3  8  1  0
  4  5  1  0
  5  6  1  0
  5  7  1  0
  8 20  1  0
  8 24  2  0
  9 10  1  0
  9 12  1  6
  9 20  1  0
 10 21  1  0
 10 25  2  0
 11 21  1  0
 12 13  1  0
 13 14  2  0
 13 18  1  0
 14 15  1  0
 15 16  2  0
 16 17  1  0
 17 18  2  0
 19 22  1  0
M  END
>  <DRUGBANK_ID>  (1) 
DB08403

>  <COMMON_NAME>  (1) 
METHYLAMINO-PHENYLALANYL-LEUCYL-HYDROXAMIC ACID

$$$$
