
     RDKit          2D

 20 21  0  0  0  0  0  0  0  0999 V2000
   -2.8579    2.4750    0.0000 C   0  0  0  0  0  0  0  0  0  0  0  0
   -5.0013    0.4125    0.0000 C   0  0  0  0  0  0  0  0  0  0  0  0
   -0.7145   -2.8875    0.0000 C   0  0  0  0  0  0  0  0  0  0  0  0
   -2.1434   -2.8875    0.0000 C   0  0  0  0  0  0  0  0  0  0  0  0
   -0.7145   -2.0625    0.0000 C   0  0  0  0  0  0  0  0  0  0  0  0
   -2.1434   -2.0625    0.0000 C   0  0  0  0  0  0  0  0  0  0  0  0
   -2.8579   -0.0000    0.0000 C   0  0  0  0  0  0  0  0  0  0  0  0
   -2.8579    1.6500    0.0000 C   0  0  0  0  0  0  0  0  0  0  0  0
   -1.4289   -3.3000    0.0000 C   0  0  0  0  0  0  0  0  0  0  0  0
   -1.4289   -1.6500    0.0000 C   0  0  0  0  0  0  0  0  0  0  0  0
   -2.1434    0.4125    0.0000 C   0  0  0  0  0  0  0  0  0  0  0  0
   -3.5724    0.4125    0.0000 C   0  0  0  0  0  0  0  0  0  0  0  0
   -1.4289   -4.1250    0.0000 N   0  0  0  0  0  0  0  0  0  0  0  0
   -2.1434    1.2375    0.0000 N   0  0  0  0  0  0  0  0  0  0  0  0
   -3.5724    1.2375    0.0000 N   0  0  0  0  0  0  0  0  0  0  0  0
   -1.4289   -0.0000    0.0000 N   0  0  0  0  0  0  0  0  0  0  0  0
   -2.2539   -0.8250    0.0000 O   0  0  0  0  0  0  0  0  0  0  0  0
   -0.6039   -0.8250    0.0000 O   0  0  0  0  0  0  0  0  0  0  0  0
   -4.2868   -0.0000    0.0000 O   0  0  0  0  0  0  0  0  0  0  0  0
   -1.4289   -0.8250    0.0000 S   0  0  0  0  0  0  0  0  0  0  0  0
  5  3  2  0
  6  4  1  0
  8  1  1  0
  9  3  1  0
  9  4  2  0
 10  5  1  0
 10  6  2  0
 11  7  2  0
 12  7  1  0
 13  9  1  0
 14  8  2  0
 14 11  1  0
 15  8  1  0
 15 12  2  0
 16 11  1  0
 19  2  1  0
 19 12  1  0
 20 10  1  0
 20 16  1  0
 20 17  2  0
 20 18  2  0
M  END
>  <DRUGBANK_ID>  (1) 
DB13485

>  <COMMON_NAME>  (1) 
Sulfametomidine

>  <CAS_NUMBER>  (1) 
3772-76-7

>  <UNII>  (1) 
940ZL3AHKB

>  <SYNONYMS>  (1) 
Sulfametomidine

$$$$
