
     RDKit          2D

 28 27  0  0  0  0  0  0  0  0999 V2000
   -0.5001    1.3613    0.0000 C   0  0  0  0  0  0  0  0  0  0  0  0
   -0.5001    0.5363    0.0000 C   0  0  0  0  0  0  0  0  0  0  0  0
    0.2143    0.1237    0.0000 C   0  0  0  0  0  0  0  0  0  0  0  0
    0.2143   -0.7013    0.0000 C   0  0  0  0  0  0  0  0  0  0  0  0
    0.9288   -1.1138    0.0000 O   0  0  0  0  0  0  0  0  0  0  0  0
   -0.5001   -1.1137    0.0000 C   0  0  0  0  0  0  0  0  0  0  0  0
   -1.2146   -0.7012    0.0000 C   0  0  0  0  0  0  0  0  0  0  0  0
   -1.2146    0.1238    0.0000 O   0  0  0  0  0  0  0  0  0  0  0  0
    0.9288    0.5362    0.0000 O   0  0  0  0  0  0  0  0  0  0  0  0
    4.2435    1.4667    0.0000 C   0  0  0  0  0  0  0  0  0  0  0  0
    4.2435    0.6417    0.0000 C   0  0  0  0  0  0  0  0  0  0  0  0
    4.9579    0.2292    0.0000 C   0  0  0  0  0  0  0  0  0  0  0  0
    4.9579   -0.5958    0.0000 C   0  0  0  0  0  0  0  0  0  0  0  0
    5.6724   -1.0083    0.0000 O   0  0  0  0  0  0  0  0  0  0  0  0
    4.2435   -1.0083    0.0000 C   0  0  0  0  0  0  0  0  0  0  0  0
    3.5290   -0.5958    0.0000 C   0  0  0  0  0  0  0  0  0  0  0  0
    3.5290    0.2292    0.0000 O   0  0  0  0  0  0  0  0  0  0  0  0
    5.6724    0.6417    0.0000 O   0  0  0  0  0  0  0  0  0  0  0  0
   -0.3175   -2.7638    0.0000 C   0  0  0  0  0  0  0  0  0  0  0  0
   -0.3175   -3.5888    0.0000 C   0  0  0  0  0  0  0  0  0  0  0  0
    0.3969   -4.0013    0.0000 C   0  0  0  0  0  0  0  0  0  0  0  0
    0.3969   -4.8263    0.0000 C   0  0  0  0  0  0  0  0  0  0  0  0
    1.1114   -5.2388    0.0000 O   0  0  0  0  0  0  0  0  0  0  0  0
   -0.3175   -5.2388    0.0000 C   0  0  0  0  0  0  0  0  0  0  0  0
   -1.0320   -4.8263    0.0000 C   0  0  0  0  0  0  0  0  0  0  0  0
   -1.0320   -4.0013    0.0000 O   0  0  0  0  0  0  0  0  0  0  0  0
    1.1114   -3.5888    0.0000 O   0  0  0  0  0  0  0  0  0  0  0  0
    1.6433    0.9487    0.0000 Ga  0  0  0  0  0 15  0  0  0  0  0  0
  1  2  1  0
  2  3  2  0
  2  8  1  0
  3  4  1  0
  3  9  1  0
  4  5  2  0
  4  6  1  0
  6  7  2  0
  7  8  1  0
 10 11  1  0
 11 12  2  0
 11 17  1  0
 12 13  1  0
 12 18  1  0
 13 14  2  0
 13 15  1  0
 15 16  2  0
 16 17  1  0
 19 20  1  0
 20 21  2  0
 20 26  1  0
 21 22  1  0
 21 27  1  0
 22 23  2  0
 22 24  1  0
 24 25  2  0
 25 26  1  0
M  CHG  4   9  -1  18  -1  27  -1  28   3
M  END
>  <DRUGBANK_ID>  (1) 
DB05420

>  <COMMON_NAME>  (1) 
Gallium maltolate

>  <CAS_NUMBER>  (1) 
108560-70-9

>  <UNII>  (1) 
17LEI49C2G

$$$$
