
     RDKit          2D

 23 24  0  0  0  0  0  0  0  0999 V2000
    0.3526    0.8217    0.0000 C   0  0  0  0  0  0  0  0  0  0  0  0
    1.0709    0.4031    0.0000 C   0  0  0  0  0  0  0  0  0  0  0  0
    0.3526    1.6511    0.0000 O   0  0  0  0  0  0  0  0  0  0  0  0
    1.7790    0.8217    0.0000 C   0  0  0  0  0  0  0  0  0  0  0  0
    1.0709   -0.4238    0.0000 C   0  0  0  0  0  0  0  0  0  0  0  0
   -0.3552    0.4031    0.0000 O   0  0  0  0  0  0  0  0  0  0  0  0
   -2.5026    0.8217    0.0000 N   0  0  0  0  0  0  0  0  0  0  0  0
   -1.0762    0.8217    0.0000 C   0  0  0  0  0  0  0  0  0  0  0  0
   -1.7868    0.4108    0.0000 C   0  0  0  0  0  0  0  0  0  0  0  0
    1.7842    1.6459    0.0000 C   0  0  0  0  0  0  0  0  0  0  0  0
    2.5000    0.4031    0.0000 C   0  0  0  0  0  0  0  0  0  0  0  0
    0.3449   -0.8295    0.0000 C   0  0  0  0  0  0  0  0  0  0  0  0
    1.7790   -0.8295    0.0000 C   0  0  0  0  0  0  0  0  0  0  0  0
   -3.2131    0.4108    0.0000 C   0  0  0  0  0  0  0  0  0  0  0  0
   -2.5000    1.6434    0.0000 C   0  0  0  0  0  0  0  0  0  0  0  0
   -3.2131   -0.4185    0.0000 C   0  0  0  0  0  0  0  0  0  0  0  0
   -1.7946    2.0619    0.0000 C   0  0  0  0  0  0  0  0  0  0  0  0
    3.2105    0.8217    0.0000 C   0  0  0  0  0  0  0  0  0  0  0  0
    0.3605   -1.6563    0.0000 C   0  0  0  0  0  0  0  0  0  0  0  0
    1.7868   -1.6588    0.0000 C   0  0  0  0  0  0  0  0  0  0  0  0
    2.4922    2.0542    0.0000 C   0  0  0  0  0  0  0  0  0  0  0  0
    3.2131    1.6434    0.0000 C   0  0  0  0  0  0  0  0  0  0  0  0
    1.0633   -2.0619    0.0000 C   0  0  0  0  0  0  0  0  0  0  0  0
  2  1  1  0
  3  1  2  0
  4  2  1  0
  5  2  1  0
  6  1  1  0
  7  9  1  0
  8  6  1  0
  9  8  1  0
 10  4  2  0
 11  4  1  0
 12  5  2  0
 13  5  1  0
 14  7  1  0
 15  7  1  0
 16 14  1  0
 17 15  1  0
 18 11  2  0
 19 12  1  0
 20 13  2  0
 21 10  1  0
 22 18  1  0
 22 21  2  0
 23 20  1  0
 23 19  2  0
M  END
>  <DRUGBANK_ID>  (1) 
DB15795

>  <COMMON_NAME>  (1) 
Adiphenine

>  <CAS_NUMBER>  (1) 
64-95-9

>  <UNII>  (1) 
YKG6OR043Q

>  <SYNONYMS>  (1) 
Adiphenine

$$$$
