
     RDKit          2D

 10  9  0  0  0  0  0  0  0  0999 V2000
    1.0717    1.0312    0.0000 C   0  0  0  0  0  0  0  0  0  0  0  0
    1.0717   -1.4437    0.0000 C   0  0  0  0  0  0  0  0  0  0  0  0
    1.7861   -1.8562    0.0000 O   0  0  0  0  0  0  0  0  0  0  0  0
    1.0717    1.8562    0.0000 O   0  0  0  0  0  0  0  0  0  0  0  0
    0.3572   -0.2062    0.0000 N   0  0  0  0  0  0  0  0  0  0  0  0
    1.0717   -0.6187    0.0000 C   0  0  0  0  0  0  0  0  0  0  0  0
   -0.3572   -0.6187    0.0000 C   0  0  0  0  0  0  0  0  0  0  0  0
   -1.0716   -0.2062    0.0000 C   0  0  0  0  0  0  0  0  0  0  0  0
   -1.7861   -0.6187    0.0000 O   0  0  0  0  0  0  0  0  0  0  0  0
    0.3572    0.6187    0.0000 C   0  0  0  0  0  0  0  0  0  0  0  0
  3  2  1  0
  4  1  1  0
  5  6  1  0
  5  7  1  0
  5 10  1  0
  6  2  1  0
  7  8  1  0
  8  9  1  0
 10  1  1  0
M  END
>  <DRUGBANK_ID>  (1) 
DB13747

>  <COMMON_NAME>  (1) 
Trolamine

>  <CAS_NUMBER>  (1) 
102-71-6

>  <UNII>  (1) 
9O3K93S3TK

>  <SYNONYMS>  (1) 
2,2',2''-nitrilotris(ethanol); nitrilo-2,2',2''-triethanol; nitrilotriethanol; triethanolamine; tris(2-hydroxyethyl)amine; tris(Î²-hydroxyethyl)amine; Trolamine

$$$$
