
     RDKit          2D

 22 24  0  0  0  0  0  0  0  0999 V2000
   -2.0178   -1.3892    0.0000 C   0  0  0  0  0  0  0  0  0  0  0  0
   -1.7703   -2.1749    0.0000 C   0  0  0  0  0  0  0  0  0  0  0  0
   -0.9595   -2.3519    0.0000 C   0  0  0  0  0  0  0  0  0  0  0  0
   -1.4592   -0.7790    0.0000 C   0  0  0  0  0  0  0  0  0  0  0  0
   -0.6570   -0.9545    0.0000 C   0  0  0  0  0  0  0  0  0  0  0  0
   -0.4039   -1.7442    0.0000 C   0  0  0  0  0  0  0  0  0  0  0  0
    0.0156   -0.4780    0.0000 N   0  0  0  0  0  0  0  0  0  0  0  0
    0.6793   -0.9711    0.0000 C   0  0  0  0  0  0  0  0  0  0  0  0
    0.4177   -1.7493    0.0000 C   0  0  0  0  0  0  0  0  0  0  0  0
    0.9693   -2.3642    0.0000 C   0  0  0  0  0  0  0  0  0  0  0  0
    1.7793   -2.2032    0.0000 C   0  0  0  0  0  0  0  0  0  0  0  0
    2.0401   -1.4220    0.0000 C   0  0  0  0  0  0  0  0  0  0  0  0
    1.4878   -0.8069    0.0000 C   0  0  0  0  0  0  0  0  0  0  0  0
   -2.3294   -2.7933    0.0000 Br  0  0  0  0  0  0  0  0  0  0  0  0
    2.3294   -2.8184    0.0000 Br  0  0  0  0  0  0  0  0  0  0  0  0
    0.0202    0.3502    0.0000 C   0  0  0  0  0  0  0  0  0  0  0  0
    0.7366    0.7607    0.0000 C   0  0  0  0  0  0  0  0  0  0  0  0
    0.7425    1.5850    0.0000 C   0  0  0  0  0  0  0  0  0  0  0  0
    1.4550    1.9941    0.0000 N   0  0  0  0  0  0  0  0  0  0  0  0
    1.4610    2.8184    0.0000 C   0  0  0  0  0  0  0  0  0  0  0  0
    2.1707    1.5776    0.0000 C   0  0  0  0  0  0  0  0  0  0  0  0
    1.4484    0.3429    0.0000 O   0  0  0  0  0  0  0  0  0  0  0  0
  1  2  2  0
  2  3  1  0
  2 14  1  0
  3  6  2  0
  4  1  1  0
  5  6  1  0
  5  4  2  0
  6  9  1  0
  7  5  1  0
  7 16  1  0
  8  7  1  0
  8  9  2  0
  9 10  1  0
 10 11  2  0
 11 12  1  0
 11 15  1  0
 12 13  2  0
 13  8  1  0
 16 17  1  0
 17 18  1  0
 17 22  1  6
 18 19  1  0
 19 20  1  0
 19 21  1  0
M  END
>  <DRUGBANK_ID>  (1) 
DB01731

>  <SECONDARY_ACCESSION_NUMBERS>  (1) 
EXPT03245

>  <COMMON_NAME>  (1) 
(S)-wiskostatin

$$$$
