
     RDKit          2D

 30 33  0  0  0  0  0  0  0  0999 V2000
   -4.2868    8.0036    0.0000 C   0  0  0  0  0  0  0  0  0  0  0  0
   -3.5724    7.5911    0.0000 C   0  0  0  0  0  0  0  0  0  0  0  0
   -2.8579    8.0036    0.0000 C   0  0  0  0  0  0  0  0  0  0  0  0
   -2.1434    7.5911    0.0000 N   0  0  0  0  0  0  0  0  0  0  0  0
   -2.1434    6.7661    0.0000 C   0  0  0  0  0  0  0  0  0  0  0  0
   -2.8579    6.3536    0.0000 C   0  0  0  0  0  0  0  0  0  0  0  0
   -3.5724    6.7661    0.0000 N   0  0  0  0  0  0  0  0  0  0  0  0
   -2.8579    5.5286    0.0000 O   0  0  0  0  0  0  0  0  0  0  0  0
   -3.5724    5.1161    0.0000 C   0  0  0  0  0  0  0  0  0  0  0  0
   -1.4289    6.3536    0.0000 N   0  0  0  0  0  0  0  0  0  0  0  0
   -0.7145    6.7661    0.0000 S   0  0  0  0  0  0  0  0  0  0  0  0
   -0.3020    6.0516    0.0000 O   0  0  0  0  0  0  0  0  0  0  0  0
   -1.1270    7.4805    0.0000 O   0  0  0  0  0  0  0  0  0  0  0  0
   -0.0000    7.1786    0.0000 C   0  0  0  0  0  0  0  0  0  0  0  0
   -0.0000    8.0036    0.0000 C   0  0  0  0  0  0  0  0  0  0  0  0
    0.7145    8.4161    0.0000 C   0  0  0  0  0  0  0  0  0  0  0  0
    1.4289    8.0036    0.0000 C   0  0  0  0  0  0  0  0  0  0  0  0
    1.4289    7.1786    0.0000 N   0  0  0  0  0  0  0  0  0  0  0  0
    0.7145    6.7661    0.0000 C   0  0  0  0  0  0  0  0  0  0  0  0
    0.7145    5.9411    0.0000 C   0  0  0  0  0  0  0  0  0  0  0  0
    1.4289    5.5286    0.0000 C   0  0  0  0  0  0  0  0  0  0  0  0
    1.4289    4.7036    0.0000 C   0  0  0  0  0  0  0  0  0  0  0  0
    0.7145    4.2911    0.0000 C   0  0  0  0  0  0  0  0  0  0  0  0
    0.0000    4.7036    0.0000 C   0  0  0  0  0  0  0  0  0  0  0  0
   -0.0000    5.5286    0.0000 C   0  0  0  0  0  0  0  0  0  0  0  0
    0.7145    3.4661    0.0000 C   0  0  0  0  0  0  0  0  0  0  0  0
    1.3819    2.9812    0.0000 N   0  0  0  0  0  0  0  0  0  0  0  0
    1.1270    2.1965    0.0000 N   0  0  0  0  0  0  0  0  0  0  0  0
    0.3020    2.1965    0.0000 C   0  0  0  0  0  0  0  0  0  0  0  0
    0.0470    2.9812    0.0000 O   0  0  0  0  0  0  0  0  0  0  0  0
  1  2  1  0
  2  3  2  0
  2  7  1  0
  3  4  1  0
  4  5  2  0
  5  6  1  0
  5 10  1  0
  6  7  2  0
  6  8  1  0
  8  9  1  0
 10 11  1  0
 11 12  2  0
 11 13  2  0
 11 14  1  0
 14 15  2  0
 14 19  1  0
 15 16  1  0
 16 17  2  0
 17 18  1  0
 18 19  2  0
 19 20  1  0
 20 21  2  0
 20 25  1  0
 21 22  1  0
 22 23  2  0
 23 24  1  0
 23 26  1  0
 24 25  2  0
 26 27  2  0
 26 30  1  0
 27 28  1  0
 28 29  2  0
 29 30  1  0
M  END
>  <DRUGBANK_ID>  (1) 
DB06629

>  <COMMON_NAME>  (1) 
Zibotentan

>  <CAS_NUMBER>  (1) 
186497-07-4

>  <UNII>  (1) 
8054MM4902

>  <SYNONYMS>  (1) 
Zibotentan

$$$$
