AZL
     RDKit          2D

 30 31  0  0  0  0  0  0  0  0999 V2000
   -5.7045   -0.9257    0.0000 N   0  0  0  0  0  0  0  0  0  0  0  0
   -4.9900   -0.5132    0.0000 C   0  0  0  0  0  0  0  0  0  0  0  0
   -4.2755   -0.9257    0.0000 C   0  0  0  0  0  0  0  0  0  0  0  0
   -3.5611   -0.5132    0.0000 C   0  0  0  0  0  0  0  0  0  0  0  0
   -2.8466   -0.9257    0.0000 C   0  0  0  0  0  0  0  0  0  0  0  0
   -2.1321   -0.5132    0.0000 N   0  0  0  0  0  0  0  0  0  0  0  0
   -1.4177   -0.9257    0.0000 N   0  0  0  0  0  0  0  0  0  0  0  0
   -0.7032   -0.5132    0.0000 C   0  0  0  0  0  0  0  0  0  0  0  0
   -0.7032    0.3118    0.0000 O   0  0  0  0  0  0  0  0  0  0  0  0
    0.0113   -0.9257    0.0000 C   0  0  0  0  0  0  0  0  0  0  0  0
    0.7650   -0.5901    0.0000 N   0  0  0  0  0  0  0  0  0  0  0  0
    0.0975   -1.7461    0.0000 C   0  0  0  0  0  0  0  0  0  0  0  0
    0.9045   -1.9177    0.0000 C   0  0  0  0  0  0  0  0  0  0  0  0
    1.3170   -1.2032    0.0000 C   0  0  0  0  0  0  0  0  0  0  0  0
    0.9365    0.2169    0.0000 C   0  0  0  0  0  0  0  0  0  0  0  0
    0.3234    0.7689    0.0000 O   0  0  0  0  0  0  0  0  0  0  0  0
    1.7211    0.4718    0.0000 C   0  0  0  0  0  0  0  0  0  0  0  0
    2.3342   -0.0802    0.0000 N   0  0  0  0  0  0  0  0  0  0  0  0
    1.8926    1.2788    0.0000 C   0  0  0  0  0  0  0  0  0  0  0  0
    1.2795    1.8308    0.0000 C   0  0  0  0  0  0  0  0  0  0  0  0
    0.4949    1.5759    0.0000 C   0  0  0  0  0  0  0  0  0  0  0  0
   -0.1182    2.1279    0.0000 C   0  0  0  0  0  0  0  0  0  0  0  0
    0.0534    2.9349    0.0000 C   0  0  0  0  0  0  0  0  0  0  0  0
    0.8380    3.1898    0.0000 C   0  0  0  0  0  0  0  0  0  0  0  0
    1.4511    2.6378    0.0000 C   0  0  0  0  0  0  0  0  0  0  0  0
    3.1188    0.1747    0.0000 C   0  0  0  0  0  0  0  0  0  0  0  0
    3.2904    0.9817    0.0000 O   0  0  0  0  0  0  0  0  0  0  0  0
    3.7319   -0.3773    0.0000 O   0  0  0  0  0  0  0  0  0  0  0  0
    4.5165   -0.1224    0.0000 C   0  0  0  0  0  0  0  0  0  0  0  0
    4.6881    0.6846    0.0000 C   0  0  0  0  0  0  0  0  0  0  0  0
  1  2  1  0
  2  3  1  0
  3  4  1  0
  4  5  1  0
  5  6  1  0
  6  7  1  0
  7  8  1  0
  8  9  2  0
 10  8  1  1
 10 11  1  0
 10 12  1  0
 11 14  1  0
 11 15  1  0
 12 13  1  0
 13 14  1  0
 15 16  2  0
 15 17  1  0
 17 18  1  0
 17 19  1  1
 18 26  1  0
 19 20  1  0
 20 21  2  0
 20 25  1  0
 21 22  1  0
 22 23  2  0
 23 24  1  0
 24 25  2  0
 26 27  2  0
 26 28  1  0
 28 29  1  0
 29 30  1  0
M  END
>  <DRUGBANK_ID>  (1) 
DB07400

>  <COMMON_NAME>  (1) 
1-ETHOXYCARBONYL-D-PHE-PRO-2(4-AMINOBUTYL)HYDRAZINE

$$$$
