
     RDKit          2D

 24 25  0  0  1  0  0  0  0  0999 V2000
   -1.8768   -4.8270    0.0000 C   0  0  0  0  0  0  0  0  0  0  0  0
   -2.2893   -4.1125    0.0000 C   0  0  0  0  0  0  0  0  0  0  0  0
   -1.7372   -3.4994    0.0000 C   0  0  0  0  0  0  0  0  0  0  0  0
   -0.9836   -3.8350    0.0000 N   0  0  0  0  0  0  0  0  0  0  0  0
   -1.0698   -4.6555    0.0000 C   0  0  0  0  0  0  0  0  0  0  0  0
   -0.2691   -3.4225    0.0000 C   0  0  0  0  0  0  0  0  0  0  0  0
   -0.2691   -2.5975    0.0000 O   0  0  0  0  0  0  0  0  0  0  0  0
    0.4454   -3.8350    0.0000 C   0  0  0  0  0  0  0  0  0  0  0  0
    1.1598   -3.4225    0.0000 C   0  0  0  0  0  0  0  0  0  0  0  0
    1.8743   -3.8350    0.0000 C   0  0  0  0  0  0  0  0  0  0  0  0
    2.5888   -3.4225    0.0000 C   0  0  0  0  0  0  0  0  0  0  0  0
    3.3033   -3.8350    0.0000 C   0  0  0  0  0  0  0  0  0  0  0  0
    3.3033   -4.6600    0.0000 O   0  0  0  0  0  0  0  0  0  0  0  0
    4.0177   -3.4225    0.0000 N   0  0  0  0  0  0  0  0  0  0  0  0
    4.1040   -2.6020    0.0000 C   0  0  0  0  0  0  0  0  0  0  0  0
    4.9109   -2.4305    0.0000 C   0  0  0  0  0  0  0  0  0  0  0  0
    5.3234   -3.1450    0.0000 C   0  0  0  0  0  0  0  0  0  0  0  0
    4.7714   -3.7581    0.0000 C   0  0  0  0  0  0  0  0  0  0  0  0
    4.9429   -4.5650    0.0000 C   0  0  0  0  0  0  0  0  0  0  0  0
    5.7276   -4.8200    0.0000 O   0  0  0  0  0  0  0  0  0  0  0  0
    4.3298   -5.1171    0.0000 O   0  0  0  0  0  0  0  0  0  0  0  0
   -1.9088   -2.6925    0.0000 C   0  0  0  0  0  0  0  0  0  0  0  0
   -2.6934   -2.4375    0.0000 O   0  0  0  0  0  0  0  0  0  0  0  0
   -1.2957   -2.1404    0.0000 O   0  0  0  0  0  0  0  0  0  0  0  0
  1  2  1  0
  1  5  1  0
  2  3  1  0
  3  4  1  0
  3 22  1  6
  4  5  1  0
  4  6  1  0
  6  7  2  0
  6  8  1  0
  8  9  1  0
  9 10  1  0
 10 11  1  0
 11 12  1  0
 12 13  2  0
 12 14  1  0
 14 15  1  0
 14 18  1  0
 15 16  1  0
 16 17  1  0
 17 18  1  0
 18 19  1  6
 19 20  2  0
 19 21  1  0
 22 23  2  0
 22 24  1  0
M  END
>  <DRUGBANK_ID>  (1) 
DB13087

>  <COMMON_NAME>  (1) 
Miridesap

>  <CAS_NUMBER>  (1) 
224624-80-0

>  <UNII>  (1) 
WO97N24A47

>  <SYNONYMS>  (1) 
1,1'-hexanedioyldi-D-proline; CPHPC; Miridesap

$$$$
