
     RDKit          2D

 17 14  0  0  0  0  0  0  0  0999 V2000
    2.0640    0.2750    0.0000 C   0  0  0  0  0  0  0  0  0  0  0  0
    0.6350    0.2750    0.0000 C   0  0  0  0  0  0  0  0  0  0  0  0
   -0.0793   -0.1375    0.0000 C   0  0  0  0  0  0  0  0  0  0  0  0
    1.3495   -0.1375    0.0000 C   0  0  0  0  0  0  0  0  0  0  0  0
   -0.7938    0.2750    0.0000 C   0  0  0  0  0  0  0  0  0  0  0  0
    1.3495   -0.9625    0.0000 O   0  0  0  0  0  0  0  0  0  0  0  0
   -0.7938    1.1000    0.0000 O   0  0  0  0  0  0  0  0  0  0  0  0
   -1.5083   -0.1375    0.0000 O   0  0  0  0  0  0  0  0  0  0  0  0
    7.4042    0.2062    0.0000 C   0  0  0  0  0  0  0  0  0  0  0  0
    5.9752    0.2062    0.0000 C   0  0  0  0  0  0  0  0  0  0  0  0
    5.2608   -0.2062    0.0000 C   0  0  0  0  0  0  0  0  0  0  0  0
    6.6897   -0.2062    0.0000 C   0  0  0  0  0  0  0  0  0  0  0  0
    4.5463    0.2062    0.0000 C   0  0  0  0  0  0  0  0  0  0  0  0
    6.6897   -1.0312    0.0000 O   0  0  0  0  0  0  0  0  0  0  0  0
    3.8318   -0.2062    0.0000 O   0  0  0  0  0  0  0  0  0  0  0  0
    4.5463    1.0312    0.0000 O   0  0  0  0  0  0  0  0  0  0  0  0
   -2.2227   -0.5500    0.0000 Mg  0  0  0  0  0 15  0  0  0  0  0  0
  3  2  1  0
  4  1  1  0
  4  2  1  0
  5  3  1  0
  6  4  2  0
  7  5  2  0
  8  5  1  0
 11 10  1  0
 12  9  1  0
 12 10  1  0
 13 11  1  0
 14 12  2  0
 15 13  2  0
 16 13  1  0
M  CHG  3   8  -1  16  -1  17   2
M  END
>  <DRUGBANK_ID>  (1) 
DB14514

>  <SECONDARY_ACCESSION_NUMBERS>  (1) 
DBSALT002481

>  <COMMON_NAME>  (1) 
Magnesium levulinate

>  <CAS_NUMBER>  (1) 
58505-81-0

>  <UNII>  (1) 
DU3I0H5Z4H

>  <SYNONYMS>  (1) 
Magnesium diasporal

$$$$
