MNS
     RDKit          2D

 17 18  0  0  0  0  0  0  0  0999 V2000
   -0.8215   -1.0266    0.0000 C   0  0  0  0  0  0  0  0  0  0  0  0
   -1.5359   -0.6141    0.0000 C   0  0  0  0  0  0  0  0  0  0  0  0
   -1.5359    0.2109    0.0000 C   0  0  0  0  0  0  0  0  0  0  0  0
   -0.8215    0.6234    0.0000 C   0  0  0  0  0  0  0  0  0  0  0  0
   -0.1070    0.2109    0.0000 C   0  0  0  0  0  0  0  0  0  0  0  0
    0.6075    0.6234    0.0000 C   0  0  0  0  0  0  0  0  0  0  0  0
    1.3220    0.2109    0.0000 C   0  0  0  0  0  0  0  0  0  0  0  0
    1.3220   -0.6141    0.0000 C   0  0  0  0  0  0  0  0  0  0  0  0
    0.6075   -1.0266    0.0000 C   0  0  0  0  0  0  0  0  0  0  0  0
   -0.1070   -0.6141    0.0000 C   0  0  0  0  0  0  0  0  0  0  0  0
    0.6075    1.4484    0.0000 N   0  0  0  0  0  0  0  0  0  0  0  0
    1.3220    1.8609    0.0000 C   0  0  0  0  0  0  0  0  0  0  0  0
   -0.1070    1.8609    0.0000 C   0  0  0  0  0  0  0  0  0  0  0  0
   -0.8215   -1.8516    0.0000 S   0  0  0  0  0  0  0  0  0  0  0  0
   -0.8215   -2.6766    0.0000 O   0  0  0  0  0  0  0  0  0  0  0  0
   -1.6465   -1.8516    0.0000 O   0  0  0  0  0  0  0  0  0  0  0  0
    0.0035   -1.8516    0.0000 N   0  0  0  0  0  0  0  0  0  0  0  0
  1  2  2  0
  1 10  1  0
  1 14  1  0
  2  3  1  0
  3  4  2  0
  4  5  1  0
  5  6  1  0
  5 10  2  0
  6  7  2  0
  6 11  1  0
  7  8  1  0
  8  9  2  0
  9 10  1  0
 11 12  1  0
 11 13  1  0
 14 15  2  0
 14 16  2  0
 14 17  1  0
M  END
>  <DRUGBANK_ID>  (1) 
DB02866

>  <SECONDARY_ACCESSION_NUMBERS>  (1) 
EXPT02203

>  <COMMON_NAME>  (1) 
Dansylamide

>  <UNII>  (1) 
ZUZ5S5875E

$$$$
