793
     RDKit          2D

 22 24  0  0  0  0  0  0  0  0999 V2000
    1.3900   -0.2978    0.0000 C   0  0  0  0  0  0  0  0  0  0  0  0
    0.6755   -0.7103    0.0000 C   0  0  0  0  0  0  0  0  0  0  0  0
    0.6755   -1.5353    0.0000 C   0  0  0  0  0  0  0  0  0  0  0  0
    1.3900   -1.9478    0.0000 C   0  0  0  0  0  0  0  0  0  0  0  0
    1.3900   -2.7728    0.0000 C   0  0  0  0  0  0  0  0  0  0  0  0
    0.6755   -3.1853    0.0000 C   0  0  0  0  0  0  0  0  0  0  0  0
   -0.0390    1.6939    0.0000 C   0  0  0  0  0  0  0  0  0  0  0  0
    0.5444    1.1106    0.0000 C   0  0  0  0  0  0  0  0  0  0  0  0
   -1.8598    1.8250    0.0000 C   0  0  0  0  0  0  0  0  0  0  0  0
   -2.6848    1.8250    0.0000 C   0  0  0  0  0  0  0  0  0  0  0  0
   -3.0973    2.5395    0.0000 C   0  0  0  0  0  0  0  0  0  0  0  0
   -1.8598    3.2540    0.0000 C   0  0  0  0  0  0  0  0  0  0  0  0
   -1.4473    2.5395    0.0000 C   0  0  0  0  0  0  0  0  0  0  0  0
   -0.0390   -2.7728    0.0000 C   0  0  0  0  0  0  0  0  0  0  0  0
   -0.0390   -1.9478    0.0000 C   0  0  0  0  0  0  0  0  0  0  0  0
   -0.0390   -0.2978    0.0000 N   0  0  0  0  0  0  0  0  0  0  0  0
   -0.0390    0.5272    0.0000 C   0  0  0  0  0  0  0  0  0  0  0  0
   -0.6223    1.1106    0.0000 C   0  0  0  0  0  0  0  0  0  0  0  0
   -0.0390    2.5189    0.0000 O   0  0  0  0  0  0  0  0  0  0  0  0
    1.3694    1.1106    0.0000 O   0  0  0  0  0  0  0  0  0  0  0  0
   -1.4473    1.1106    0.0000 N   0  0  0  0  0  0  0  0  0  0  0  0
   -2.6848    3.2540    0.0000 N   0  0  0  0  0  0  0  0  0  0  0  0
  2  1  1  6
  2  3  1  0
  2 16  1  0
  3  4  2  0
  3 15  1  0
  4  5  1  0
  5  6  2  0
  6 14  1  0
  7  8  1  0
  7 18  1  0
  7 19  2  0
  8 17  1  0
  8 20  2  0
  9 10  2  0
  9 13  1  0
  9 21  1  0
 10 11  1  0
 11 22  2  0
 12 13  2  0
 12 22  1  0
 14 15  2  0
 16 17  1  0
 17 18  2  0
 18 21  1  0
M  END
>  <DRUGBANK_ID>  (1) 
DB07234

>  <COMMON_NAME>  (1) 
3-{[(1R)-1-phenylethyl]amino}-4-(pyridin-4-ylamino)cyclobut-3-ene-1,2-dione

$$$$
