
     RDKit          2D

 42 46  0  0  0  0  0  0  0  0999 V2000
   -6.2857   -1.8369    0.0000 Cl  0  0  0  0  0  0  0  0  0  0  0  0
   -0.8507   -1.1695    0.0000 O   0  0  0  0  0  0  0  0  0  0  0  0
   -0.8507   -2.5043    0.0000 O   0  0  0  0  0  0  0  0  0  0  0  0
    1.3549   -1.2751    0.0000 O   0  0  0  0  0  0  0  0  0  0  0  0
    1.9361    0.0302    0.0000 O   0  0  0  0  0  0  0  0  0  0  0  0
    5.6182   -0.8269    0.0000 O   0  0  0  0  0  0  0  0  0  0  0  0
    4.7783    0.3290    0.0000 O   0  0  0  0  0  0  0  0  0  0  0  0
    4.5196    2.7904    0.0000 O   0  0  0  0  0  0  0  0  0  0  0  0
    5.3595    1.6344    0.0000 O   0  0  0  0  0  0  0  0  0  0  0  0
   -2.9857   -1.8369    0.0000 N   0  0  0  0  0  0  0  0  0  0  0  0
    3.6159   -2.2817    0.0000 N   0  0  0  0  0  0  0  0  0  0  0  0
    4.6059    1.9700    0.0000 N   0  0  0  0  0  0  0  0  0  0  0  0
   -1.3357   -1.8369    0.0000 C   0  0  0  0  0  0  0  0  0  0  0  0
   -1.7482   -1.1224    0.0000 C   0  0  0  0  0  0  0  0  0  0  0  0
   -1.7482   -2.5514    0.0000 C   0  0  0  0  0  0  0  0  0  0  0  0
   -2.5732   -1.1224    0.0000 C   0  0  0  0  0  0  0  0  0  0  0  0
   -2.5732   -2.5514    0.0000 C   0  0  0  0  0  0  0  0  0  0  0  0
   -0.0662   -1.4244    0.0000 C   0  0  0  0  0  0  0  0  0  0  0  0
   -0.0662   -2.2494    0.0000 C   0  0  0  0  0  0  0  0  0  0  0  0
    0.6013   -0.9395    0.0000 C   0  0  0  0  0  0  0  0  0  0  0  0
   -3.8107   -1.8369    0.0000 C   0  0  0  0  0  0  0  0  0  0  0  0
   -4.2232   -1.1224    0.0000 C   0  0  0  0  0  0  0  0  0  0  0  0
   -4.2232   -2.5514    0.0000 C   0  0  0  0  0  0  0  0  0  0  0  0
    3.4435   -0.6407    0.0000 C   0  0  0  0  0  0  0  0  0  0  0  0
    2.7760   -1.1257    0.0000 C   0  0  0  0  0  0  0  0  0  0  0  0
    2.0223   -0.7901    0.0000 C   0  0  0  0  0  0  0  0  0  0  0  0
   -5.0482   -1.1224    0.0000 C   0  0  0  0  0  0  0  0  0  0  0  0
   -5.0482   -2.5514    0.0000 C   0  0  0  0  0  0  0  0  0  0  0  0
    4.1971   -0.9763    0.0000 C   0  0  0  0  0  0  0  0  0  0  0  0
    2.8622   -1.9462    0.0000 C   0  0  0  0  0  0  0  0  0  0  0  0
    3.3572    0.1796    0.0000 C   0  0  0  0  0  0  0  0  0  0  0  0
   -5.4607   -1.8369    0.0000 C   0  0  0  0  0  0  0  0  0  0  0  0
    4.2834   -1.7968    0.0000 C   0  0  0  0  0  0  0  0  0  0  0  0
    2.1948   -2.4311    0.0000 C   0  0  0  0  0  0  0  0  0  0  0  0
    4.0247    0.6646    0.0000 C   0  0  0  0  0  0  0  0  0  0  0  0
    2.6035    0.5152    0.0000 C   0  0  0  0  0  0  0  0  0  0  0  0
    4.8645   -0.4914    0.0000 C   0  0  0  0  0  0  0  0  0  0  0  0
    5.0370   -2.1323    0.0000 C   0  0  0  0  0  0  0  0  0  0  0  0
    3.9384    1.4850    0.0000 C   0  0  0  0  0  0  0  0  0  0  0  0
    2.5173    1.3356    0.0000 C   0  0  0  0  0  0  0  0  0  0  0  0
    3.1847    1.8206    0.0000 C   0  0  0  0  0  0  0  0  0  0  0  0
    6.2857   -0.3420    0.0000 C   0  0  0  0  0  0  0  0  0  0  0  0
  1 32  1  0
  2 13  1  0
  2 18  1  0
  3 13  1  0
  3 19  1  0
  4 20  1  0
  4 26  1  0
  5 26  2  0
  6 37  1  0
  6 42  1  0
  7 37  2  0
  8 12  1  0
  9 12  2  0
 10 16  1  0
 10 17  1  0
 10 21  1  0
 11 30  1  0
 11 33  1  0
 12 39  1  0
 13 14  1  0
 13 15  1  0
 14 16  1  0
 15 17  1  0
 18 19  1  0
 18 20  1  0
 21 22  2  0
 21 23  1  0
 22 27  1  0
 23 28  2  0
 24 25  1  0
 24 29  1  0
 24 31  1  0
 25 26  1  0
 25 30  2  0
 27 32  2  0
 28 32  1  0
 29 33  2  0
 29 37  1  0
 30 34  1  0
 31 35  2  0
 31 36  1  0
 33 38  1  0
 35 39  1  0
 36 40  2  0
 39 41  2  0
 40 41  1  0
M  CHG  2   8  -1  12   1
M  END
>  <DRUGBANK_ID>  (1) 
DB09233

>  <COMMON_NAME>  (1) 
Cronidipine

>  <CAS_NUMBER>  (1) 
113759-50-5

>  <UNII>  (1) 
7TXJ9MY5V9

>  <SYNONYMS>  (1) 
Cronidipine

$$$$
