TBA
     RDKit          2D

 17 16  0  0  0  0  0  0  0  0999 V2000
    1.2390   -0.3222    0.0000 N   0  0  0  0  0  0  0  0  0  0  0  0
    0.9690    0.4573    0.0000 C   0  0  0  0  0  0  0  0  0  0  0  0
    0.1588    0.6132    0.0000 C   0  0  0  0  0  0  0  0  0  0  0  0
    1.5091   -1.1018    0.0000 C   0  0  0  0  0  0  0  0  0  0  0  0
    2.3192   -1.2577    0.0000 C   0  0  0  0  0  0  0  0  0  0  0  0
    0.4595   -0.5923    0.0000 C   0  0  0  0  0  0  0  0  0  0  0  0
   -0.1642   -0.0522    0.0000 C   0  0  0  0  0  0  0  0  0  0  0  0
    2.0186   -0.0522    0.0000 C   0  0  0  0  0  0  0  0  0  0  0  0
    2.6422   -0.5923    0.0000 C   0  0  0  0  0  0  0  0  0  0  0  0
   -0.1112    1.3928    0.0000 C   0  0  0  0  0  0  0  0  0  0  0  0
   -0.9213    1.5487    0.0000 C   0  0  0  0  0  0  0  0  0  0  0  0
    2.5892   -2.0373    0.0000 C   0  0  0  0  0  0  0  0  0  0  0  0
    3.3994   -2.1932    0.0000 C   0  0  0  0  0  0  0  0  0  0  0  0
   -0.9437   -0.3222    0.0000 C   0  0  0  0  0  0  0  0  0  0  0  0
   -1.5674    0.2178    0.0000 C   0  0  0  0  0  0  0  0  0  0  0  0
    3.4218   -0.3222    0.0000 C   0  0  0  0  0  0  0  0  0  0  0  0
    4.0454   -0.8623    0.0000 C   0  0  0  0  0  0  0  0  0  0  0  0
  1  2  1  0
  1  4  1  0
  1  6  1  0
  1  8  1  0
  2  3  1  0
  3 10  1  0
  4  5  1  0
  5 12  1  0
  6  7  1  0
  7 14  1  0
  8  9  1  0
  9 16  1  0
 10 11  1  0
 12 13  1  0
 14 15  1  0
 16 17  1  0
M  CHG  1   1   1
M  END
>  <DRUGBANK_ID>  (1) 
DB01851

>  <SECONDARY_ACCESSION_NUMBERS>  (1) 
EXPT03013

>  <COMMON_NAME>  (1) 
Tetrabutylammonium Ion

>  <CAS_NUMBER>  (1) 
2052-49-5

>  <UNII>  (1) 
CBU2X6BBJR

$$$$
