
     RDKit          2D

 34 37  0  0  0  0  0  0  0  0999 V2000
    3.3853   -0.1400    0.0000 N   0  0  0  0  0  0  0  0  0  0  0  0
    4.0833    0.2863    0.0000 C   0  0  0  0  0  0  0  0  0  0  0  0
    2.6706    0.2863    0.0000 C   0  0  0  0  0  0  0  0  0  0  0  0
    2.6706    1.0636    0.0000 C   0  0  0  0  0  0  0  0  0  0  0  0
    4.0833    1.0636    0.0000 C   0  0  0  0  0  0  0  0  0  0  0  0
    4.7896   -0.1400    0.0000 C   0  0  0  0  0  0  0  0  0  0  0  0
    2.0061   -0.1400    0.0000 C   0  0  0  0  0  0  0  0  0  0  0  0
    3.3853    1.4899    0.0000 C   0  0  0  0  0  0  0  0  0  0  0  0
    2.0061    1.5150    0.0000 C   0  0  0  0  0  0  0  0  0  0  0  0
    4.7896    1.4899    0.0000 C   0  0  0  0  0  0  0  0  0  0  0  0
    3.3853   -0.9675    0.0000 C   0  0  0  0  0  0  0  0  0  0  0  0
    1.2789    0.2863    0.0000 C   0  0  0  0  0  0  0  0  0  0  0  0
    5.5043    0.2863    0.0000 C   0  0  0  0  0  0  0  0  0  0  0  0
    0.8233    0.0104    0.0000 N   0  0  0  0  0  0  0  0  0  0  0  0
    6.0435   -0.1275    0.0000 N   0  0  0  0  0  0  0  0  0  0  0  0
    1.2789    1.0636    0.0000 C   0  0  0  0  0  0  0  0  0  0  0  0
    5.5043    1.0929    0.0000 C   0  0  0  0  0  0  0  0  0  0  0  0
   -3.5483   -0.0982    0.0000 N   0  0  0  0  0  0  0  0  0  0  0  0
   -2.8462    0.3113    0.0000 C   0  0  0  0  0  0  0  0  0  0  0  0
   -4.2630    0.3489    0.0000 C   0  0  0  0  0  0  0  0  0  0  0  0
   -4.2630    1.1263    0.0000 C   0  0  0  0  0  0  0  0  0  0  0  0
   -2.8462    1.1263    0.0000 C   0  0  0  0  0  0  0  0  0  0  0  0
   -2.1314   -0.1107    0.0000 C   0  0  0  0  0  0  0  0  0  0  0  0
   -4.9902   -0.1107    0.0000 C   0  0  0  0  0  0  0  0  0  0  0  0
   -3.5483    1.5819    0.0000 C   0  0  0  0  0  0  0  0  0  0  0  0
   -4.9902    1.5819    0.0000 C   0  0  0  0  0  0  0  0  0  0  0  0
   -2.1314    1.5819    0.0000 C   0  0  0  0  0  0  0  0  0  0  0  0
   -1.4419    0.3113    0.0000 C   0  0  0  0  0  0  0  0  0  0  0  0
   -5.6924    0.3489    0.0000 C   0  0  0  0  0  0  0  0  0  0  0  0
   -1.1076   -0.0104    0.0000 N   0  0  0  0  0  0  0  0  0  0  0  0
   -6.0435   -0.0104    0.0000 N   0  0  0  0  0  0  0  0  0  0  0  0
   -1.4419    1.1012    0.0000 C   0  0  0  0  0  0  0  0  0  0  0  0
   -5.6924    1.1263    0.0000 C   0  0  0  0  0  0  0  0  0  0  0  0
    1.7261   -1.5819    0.0000 Cl  0  0  0  0  0  0  0  0  0  0  0  0
  2  1  2  0
  3  1  1  0
  4  3  2  0
  5  8  2  0
  5  2  1  0
  6  2  1  0
  7  3  1  0
  8  4  1  0
  9 16  2  0
  9  4  1  0
 10 17  2  0
 10  5  1  0
 11  1  1  0
 12  7  2  0
 13  6  2  0
 14 12  1  0
 15 13  1  0
 16 12  1  0
 17 13  1  0
 19 18  2  0
 20 18  1  0
 21 20  2  0
 22 19  1  0
 22 25  2  0
 23 19  1  0
 24 20  1  0
 25 21  1  0
 26 21  1  0
 26 33  2  0
 27 22  1  0
 27 32  2  0
 28 23  2  0
 29 24  2  0
 30 28  1  0
 31 29  1  0
 32 28  1  0
 33 29  1  0
M  CHG  2   1   1  34  -1
M  END
>  <DRUGBANK_ID>  (1) 
DB13373

>  <COMMON_NAME>  (1) 
Acriflavine

>  <CAS_NUMBER>  (1) 
65589-70-0

>  <UNII>  (1) 
1T3A50395T

>  <SYNONYMS>  (1) 
Acriflavinium chloride

$$$$
