CZA
     RDKit          2D

 25 29  0  0  0  0  0  0  0  0999 V2000
   -1.1823   -0.7569    0.0000 O   0  0  0  0  0  0  0  0  0  0  0  0
   -1.4372   -1.5415    0.0000 C   0  0  0  0  0  0  0  0  0  0  0  0
   -2.2219   -1.7964    0.0000 C   0  0  0  0  0  0  0  0  0  0  0  0
   -2.8893   -1.3115    0.0000 C   0  0  0  0  0  0  0  0  0  0  0  0
   -3.6430   -1.6471    0.0000 O   0  0  0  0  0  0  0  0  0  0  0  0
   -2.8031   -0.4910    0.0000 C   0  0  0  0  0  0  0  0  0  0  0  0
   -0.9523   -2.2089    0.0000 C   0  0  0  0  0  0  0  0  0  0  0  0
   -0.1677   -2.4639    0.0000 C   0  0  0  0  0  0  0  0  0  0  0  0
    0.5448   -2.0514    0.0000 C   0  0  0  0  0  0  0  0  0  0  0  0
    0.8448   -1.1942    0.0000 C   0  0  0  0  0  0  0  0  0  0  0  0
    1.6698   -1.1942    0.0000 N   0  0  0  0  0  0  0  0  0  0  0  0
    1.9752   -2.0514    0.0000 C   0  0  0  0  0  0  0  0  0  0  0  0
    1.2573   -2.4639    0.0000 C   0  0  0  0  0  0  0  0  0  0  0  0
    2.6877   -2.4639    0.0000 C   0  0  0  0  0  0  0  0  0  0  0  0
    2.6877   -3.2889    0.0000 C   0  0  0  0  0  0  0  0  0  0  0  0
    1.9752   -3.7014    0.0000 C   0  0  0  0  0  0  0  0  0  0  0  0
    1.2573   -3.2889    0.0000 C   0  0  0  0  0  0  0  0  0  0  0  0
    0.5448   -3.7014    0.0000 C   0  0  0  0  0  0  0  0  0  0  0  0
   -0.1677   -3.2889    0.0000 C   0  0  0  0  0  0  0  0  0  0  0  0
   -0.9523   -3.5438    0.0000 C   0  0  0  0  0  0  0  0  0  0  0  0
   -0.6168   -4.2975    0.0000 C   0  0  0  0  0  0  0  0  0  0  0  0
   -1.6668   -3.9563    0.0000 C   0  0  0  0  0  0  0  0  0  0  0  0
   -1.4372   -2.8764    0.0000 N   0  0  0  0  0  0  0  0  0  0  0  0
   -2.2219   -2.6214    0.0000 C   0  0  0  0  0  0  0  0  0  0  0  0
   -2.8893   -3.1063    0.0000 O   0  0  0  0  0  0  0  0  0  0  0  0
  1  2  2  0
  2  3  1  0
  7  2  1  6
  3 24  2  0
  3  4  1  0
  4  6  1  0
  4  5  2  0
  7 23  1  0
  7  8  1  0
  8 19  1  0
  8  9  1  1
  9 13  1  0
  9 10  2  0
 10 11  1  0
 11 12  1  0
 12 13  2  0
 12 14  1  0
 13 17  1  0
 14 15  2  0
 15 16  1  0
 16 17  2  0
 17 18  1  0
 19 18  1  1
 19 20  1  0
 20 21  1  0
 20 22  1  0
 20 23  1  0
 23 24  1  0
 24 25  1  0
M  END
>  <DRUGBANK_ID>  (1) 
DB07604

>  <COMMON_NAME>  (1) 
(6AR,11AS,11BR)-10-ACETYL-9-HYDROXY-7,7-DIMETHYL-2,6,6A,7,11A,11B-HEXAHYDRO-11H-PYRROLO[1',2':2,3]ISOINDOLO[4,5,6-CD]INDOL-11-ONE

$$$$
