23N
     RDKit          2D

 15 15  0  0  0  0  0  0  0  0999 V2000
   -1.5320    0.6359    0.0000 C   0  0  0  0  0  0  0  0  0  0  0  0
   -2.2465    0.2234    0.0000 C   0  0  0  0  0  0  0  0  0  0  0  0
   -2.2465   -0.6016    0.0000 C   0  0  0  0  0  0  0  0  0  0  0  0
   -1.5320   -1.0141    0.0000 C   0  0  0  0  0  0  0  0  0  0  0  0
   -0.8175   -0.6016    0.0000 C   0  0  0  0  0  0  0  0  0  0  0  0
   -0.8175    0.2234    0.0000 C   0  0  0  0  0  0  0  0  0  0  0  0
   -0.1031    0.6359    0.0000 C   0  0  0  0  0  0  0  0  0  0  0  0
    0.6114    0.2234    0.0000 C   0  0  0  0  0  0  0  0  0  0  0  0
    0.6114   -0.6016    0.0000 C   0  0  0  0  0  0  0  0  0  0  0  0
    1.3259   -1.0141    0.0000 O   0  0  0  0  0  0  0  0  0  0  0  0
   -0.1031   -1.0141    0.0000 O   0  0  0  0  0  0  0  0  0  0  0  0
    1.3259    0.6359    0.0000 C   0  0  0  0  0  0  0  0  0  0  0  0
    2.0404    0.2234    0.0000 N   0  0  0  0  0  0  0  0  0  0  0  0
    2.7548    0.6359    0.0000 O   0  0  0  0  0  0  0  0  0  0  0  0
    2.0404   -0.6016    0.0000 O   0  0  0  0  0  0  0  0  0  0  0  0
  1  6  2  0
  2  1  1  0
  2  3  2  0
  3  4  1  0
  4  5  2  0
  6  7  1  0
  6  5  1  0
  8  7  1  6
  8  9  1  0
  8 12  1  0
  9 10  2  0
  9 11  1  0
 12 13  1  0
 13 14  1  0
 15 13  2  0
M  CHG  2  13   1  14  -1
M  END
>  <DRUGBANK_ID>  (1) 
DB06924

>  <COMMON_NAME>  (1) 
(2R)-2-benzyl-3-nitropropanoic acid

$$$$
