
     RDKit          2D

 15 16  0  0  0  0  0  0  0  0999 V2000
    1.4289   -1.8562    0.0000 C   0  0  0  0  0  0  0  0  0  0  0  0
    2.1434   -0.6187    0.0000 C   0  0  0  0  0  0  0  0  0  0  0  0
    0.0000    1.4437    0.0000 C   0  0  0  0  0  0  0  0  0  0  0  0
   -0.7144    0.2062    0.0000 C   0  0  0  0  0  0  0  0  0  0  0  0
   -0.7144    1.8562    0.0000 C   0  0  0  0  0  0  0  0  0  0  0  0
   -1.4289    0.6187    0.0000 C   0  0  0  0  0  0  0  0  0  0  0  0
    2.1434    0.2062    0.0000 C   0  0  0  0  0  0  0  0  0  0  0  0
    0.7144   -0.6187    0.0000 C   0  0  0  0  0  0  0  0  0  0  0  0
    1.4289   -1.0312    0.0000 C   0  0  0  0  0  0  0  0  0  0  0  0
    0.0000    0.6187    0.0000 C   0  0  0  0  0  0  0  0  0  0  0  0
   -1.4289    1.4437    0.0000 C   0  0  0  0  0  0  0  0  0  0  0  0
    1.4289    0.6187    0.0000 C   0  0  0  0  0  0  0  0  0  0  0  0
    0.7144    0.2062    0.0000 N   0  0  0  0  0  0  0  0  0  0  0  0
   -2.1434    1.8562    0.0000 O   0  0  0  0  0  0  0  0  0  0  0  0
    1.4289    1.4437    0.0000 O   0  0  0  0  0  0  0  0  0  0  0  0
  5  3  2  0
  6  4  1  0
  7  2  2  0
  9  1  1  0
  9  2  1  0
  9  8  2  0
 10  3  1  0
 10  4  2  0
 11  5  1  0
 11  6  2  0
 12  7  1  0
 13  8  1  0
 13 10  1  0
 13 12  1  0
 14 11  1  0
 15 12  2  0
M  END
>  <DRUGBANK_ID>  (1) 
DB06299

>  <COMMON_NAME>  (1) 
Hydronidone

>  <CAS_NUMBER>  (1) 
851518-71-3

>  <UNII>  (1) 
RXQ128313W

>  <SYNONYMS>  (1) 
N-(4-Hydroxyphenyl)-5-methyl-2-pyridone

$$$$
