
     RDKit          2D

 22 25  0  0  0  0  0  0  0  0999 V2000
   -1.5127   -2.6048    0.0000 O   0  0  0  0  0  0  0  0  0  0  0  0
   -1.2578   -3.3894    0.0000 C   0  0  0  0  0  0  0  0  0  0  0  0
   -1.7427   -4.0569    0.0000 N   0  0  0  0  0  0  0  0  0  0  0  0
   -2.5677   -4.0569    0.0000 C   0  0  0  0  0  0  0  0  0  0  0  0
   -2.9802   -4.7714    0.0000 C   0  0  0  0  0  0  0  0  0  0  0  0
   -3.8052   -4.7714    0.0000 N   0  0  0  0  0  0  0  0  0  0  0  0
   -4.2901   -4.1039    0.0000 Se  0  0  0  0  0  2  0  0  0  0  0  0
   -5.0748   -4.3589    0.0000 C   0  0  0  0  0  0  0  0  0  0  0  0
   -5.0748   -5.1839    0.0000 C   0  0  0  0  0  0  0  0  0  0  0  0
   -5.7892   -5.5964    0.0000 C   0  0  0  0  0  0  0  0  0  0  0  0
   -6.5037   -5.1839    0.0000 C   0  0  0  0  0  0  0  0  0  0  0  0
   -6.5037   -4.3589    0.0000 C   0  0  0  0  0  0  0  0  0  0  0  0
   -5.7892   -3.9464    0.0000 C   0  0  0  0  0  0  0  0  0  0  0  0
   -4.2901   -5.4388    0.0000 C   0  0  0  0  0  0  0  0  0  0  0  0
   -4.0352   -6.2234    0.0000 O   0  0  0  0  0  0  0  0  0  0  0  0
   -1.2578   -4.7243    0.0000 Se  0  0  0  0  0  2  0  0  0  0  0  0
   -0.4732   -4.4694    0.0000 C   0  0  0  0  0  0  0  0  0  0  0  0
   -0.4732   -3.6444    0.0000 C   0  0  0  0  0  0  0  0  0  0  0  0
    0.2413   -3.2319    0.0000 C   0  0  0  0  0  0  0  0  0  0  0  0
    0.9558   -3.6444    0.0000 C   0  0  0  0  0  0  0  0  0  0  0  0
    0.9558   -4.4694    0.0000 C   0  0  0  0  0  0  0  0  0  0  0  0
    0.2413   -4.8819    0.0000 C   0  0  0  0  0  0  0  0  0  0  0  0
  1  2  2  0
  2  3  1  0
  2 18  1  0
  3  4  1  0
  3 16  1  0
  4  5  1  0
  5  6  1  0
  6  7  1  0
  6 14  1  0
  7  8  1  0
  8  9  2  0
  8 13  1  0
  9 10  1  0
  9 14  1  0
 10 11  2  0
 11 12  1  0
 12 13  2  0
 14 15  2  0
 16 17  1  0
 17 18  2  0
 17 22  1  0
 18 19  1  0
 19 20  2  0
 20 21  1  0
 21 22  2  0
M  END
>  <DRUGBANK_ID>  (1) 
DB15051

>  <COMMON_NAME>  (1) 
Ethaselen

>  <CAS_NUMBER>  (1) 
217798-39-5

>  <UNII>  (1) 
4Q2EZS1IWG

$$$$
