
     RDKit          2D

 27 28  0  0  0  0  0  0  0  0999 V2000
   -5.2813    1.3563    0.0000 C   0  0  0  0  0  0  0  0  0  0  0  0
   -5.9957    0.9438    0.0000 C   0  0  0  0  0  0  0  0  0  0  0  0
   -5.9957    0.1187    0.0000 C   0  0  0  0  0  0  0  0  0  0  0  0
   -5.2813   -0.2938    0.0000 C   0  0  0  0  0  0  0  0  0  0  0  0
   -4.5668    0.1187    0.0000 C   0  0  0  0  0  0  0  0  0  0  0  0
   -4.5668    0.9438    0.0000 C   0  0  0  0  0  0  0  0  0  0  0  0
   -3.8523   -0.2938    0.0000 C   0  0  0  0  0  0  0  0  0  0  0  0
   -3.1378    0.1187    0.0000 N   0  0  0  0  0  0  0  0  0  0  0  0
   -2.4234   -0.2938    0.0000 N   0  0  0  0  0  0  0  0  0  0  0  0
   -1.7089    0.1187    0.0000 C   0  0  0  0  0  0  0  0  0  0  0  0
   -0.9944   -0.2938    0.0000 C   0  0  0  0  0  0  0  0  0  0  0  0
   -0.2800    0.1187    0.0000 C   0  0  0  0  0  0  0  0  0  0  0  0
    0.4345   -0.2938    0.0000 N   0  0  0  0  0  0  0  0  0  0  0  0
    1.1490    0.1187    0.0000 N   0  0  0  0  0  0  0  0  0  0  0  0
    1.8635   -0.2938    0.0000 C   0  0  0  0  0  0  0  0  0  0  0  0
    2.5779    0.1187    0.0000 C   0  0  0  0  0  0  0  0  0  0  0  0
    3.2924    1.3563    0.0000 C   0  0  0  0  0  0  0  0  0  0  0  0
    2.5779    0.9438    0.0000 C   0  0  0  0  0  0  0  0  0  0  0  0
    3.2924   -0.2938    0.0000 C   0  0  0  0  0  0  0  0  0  0  0  0
    4.0069    0.1187    0.0000 C   0  0  0  0  0  0  0  0  0  0  0  0
    4.0069    0.9438    0.0000 C   0  0  0  0  0  0  0  0  0  0  0  0
   -3.8523   -1.1188    0.0000 S   0  0  0  0  0  0  0  0  0  0  0  0
   -1.7089    0.9437    0.0000 O   0  0  0  0  0  0  0  0  0  0  0  0
   -0.2800    0.9437    0.0000 O   0  0  0  0  0  0  0  0  0  0  0  0
    1.8635   -1.1188    0.0000 S   0  0  0  0  0  0  0  0  0  0  0  0
   -3.1378    0.9437    0.0000 C   0  0  0  0  0  0  0  0  0  0  0  0
    1.1490    0.9437    0.0000 C   0  0  0  0  0  0  0  0  0  0  0  0
  1  2  2  0
  1  6  1  0
  2  3  1  0
  3  4  2  0
  4  5  1  0
  5  6  2  0
  5  7  1  0
  7  8  1  0
  7 22  2  0
  8  9  1  0
  8 26  1  0
  9 10  1  0
 10 11  1  0
 10 23  2  0
 11 12  1  0
 12 13  1  0
 12 24  2  0
 13 14  1  0
 14 15  1  0
 14 27  1  0
 15 16  1  0
 15 25  2  0
 16 19  2  0
 17 18  2  0
 17 21  1  0
 18 16  1  0
 19 20  1  0
 20 21  2  0
M  END
>  <DRUGBANK_ID>  (1) 
DB05719

>  <COMMON_NAME>  (1) 
Elesclomol

>  <CAS_NUMBER>  (1) 
488832-69-5

>  <UNII>  (1) 
6UK191M53P

>  <SYNONYMS>  (1) 
1-N'-Benzenecarbothioyl-3-(2-benzenecarbothioyl-2-methylhydrazinyl)-N'-methyl-oxopropanehydrazidide; Elesclomol; Ã‰lesclomol; Elesclomolum

$$$$
