LY1
     RDKit          2D

 13 14  0  0  0  0  0  0  0  0999 V2000
    0.4514    0.9330    0.0000 C   0  0  0  0  0  0  0  0  0  0  0  0
    1.2557    0.7494    0.0000 N   0  0  0  0  0  0  0  0  0  0  0  0
    1.6137    0.0061    0.0000 C   0  0  0  0  0  0  0  0  0  0  0  0
    1.2557   -0.7372    0.0000 C   0  0  0  0  0  0  0  0  0  0  0  0
    0.4514   -0.9208    0.0000 C   0  0  0  0  0  0  0  0  0  0  0  0
   -0.1936   -0.4064    0.0000 C   0  0  0  0  0  0  0  0  0  0  0  0
   -0.9081   -0.8189    0.0000 C   0  0  0  0  0  0  0  0  0  0  0  0
   -1.6225   -0.4064    0.0000 C   0  0  0  0  0  0  0  0  0  0  0  0
   -1.6225    0.4186    0.0000 C   0  0  0  0  0  0  0  0  0  0  0  0
   -0.9081    0.8311    0.0000 C   0  0  0  0  0  0  0  0  0  0  0  0
   -0.1936    0.4186    0.0000 C   0  0  0  0  0  0  0  0  0  0  0  0
   -2.3370    0.8311    0.0000 Cl  0  0  0  0  0  0  0  0  0  0  0  0
   -0.9081    1.6561    0.0000 Cl  0  0  0  0  0  0  0  0  0  0  0  0
  1  2  1  0
  1 11  1  0
  2  3  1  0
  3  4  1  0
  4  5  1  0
  5  6  1  0
  6  7  2  0
  6 11  1  0
  7  8  1  0
  8  9  2  0
  9 10  1  0
  9 12  1  0
 10 11  2  0
 10 13  1  0
M  END
>  <DRUGBANK_ID>  (1) 
DB04273

>  <SECONDARY_ACCESSION_NUMBERS>  (1) 
EXPT02072

>  <COMMON_NAME>  (1) 
8,9-Dichloro-2,3,4,5-Tetrahydro-1h-Benzo[C]Azepine

>  <UNII>  (1) 
2K2UE2I8AY

$$$$
