
     RDKit          2D

 24 27  0  0  0  0  0  0  0  0999 V2000
   -2.2350   -0.6167    0.0000 C   0  0  0  0  0  0  0  0  0  0  0  0
   -0.4797    2.2836    0.0000 C   0  0  0  0  0  0  0  0  0  0  0  0
    0.3071    2.5314    0.0000 C   0  0  0  0  0  0  0  0  0  0  0  0
   -0.6587    1.4782    0.0000 C   0  0  0  0  0  0  0  0  0  0  0  0
    0.9153    1.9738    0.0000 C   0  0  0  0  0  0  0  0  0  0  0  0
    2.2350    0.2649    0.0000 C   0  0  0  0  0  0  0  0  0  0  0  0
    1.9038   -0.4906    0.0000 C   0  0  0  0  0  0  0  0  0  0  0  0
    0.9261    0.8386    0.0000 C   0  0  0  0  0  0  0  0  0  0  0  0
   -0.6165   -1.3202    0.0000 C   0  0  0  0  0  0  0  0  0  0  0  0
   -1.4600    0.6326    0.0000 C   0  0  0  0  0  0  0  0  0  0  0  0
   -1.5292   -0.1895    0.0000 C   0  0  0  0  0  0  0  0  0  0  0  0
    1.7461    0.9296    0.0000 C   0  0  0  0  0  0  0  0  0  0  0  0
   -0.0505    0.9206    0.0000 C   0  0  0  0  0  0  0  0  0  0  0  0
    0.5949    0.0829    0.0000 C   0  0  0  0  0  0  0  0  0  0  0  0
    0.7364    1.1683    0.0000 C   0  0  0  0  0  0  0  0  0  0  0  0
    1.0838   -0.5816    0.0000 C   0  0  0  0  0  0  0  0  0  0  0  0
    0.1121   -1.7069    0.0000 C   0  0  0  0  0  0  0  0  0  0  0  0
   -0.2294    0.1151    0.0000 C   0  0  0  0  0  0  0  0  0  0  0  0
    2.0773    1.6852    0.0000 Cl  0  0  0  0  0  0  0  0  0  0  0  0
    1.5449    1.3325    0.0000 Cl  0  0  0  0  0  0  0  0  0  0  0  0
    0.8689   -1.3783    0.0000 N   0  0  0  0  0  0  0  0  0  0  0  0
   -0.7687   -0.5093    0.0000 N   0  0  0  0  0  0  0  0  0  0  0  0
    0.0799   -2.5314    0.0000 O   0  0  0  0  0  0  0  0  0  0  0  0
   -0.6568    0.8209    0.0000 O   0  0  0  0  0  0  0  0  0  0  0  0
  3  2  2  0
  4  2  1  0
  5  3  1  0
  7  6  2  0
 11  1  1  0
 11 10  1  0
 12  6  1  0
 12  8  2  0
 13  4  2  0
 14  8  1  0
 15  5  2  0
 15 13  1  0
 16  7  1  0
 16 14  2  0
 17  9  1  0
 18 13  1  0
 18 14  1  0
 19 12  1  0
 20 15  1  0
 21 16  1  0
 21 17  2  0
 22  9  1  0
 22 11  1  0
 22 18  1  0
 23 17  1  0
 24 10  1  0
 24 18  1  0
M  END
>  <DRUGBANK_ID>  (1) 
DB15489

>  <COMMON_NAME>  (1) 
Mexazolam

>  <CAS_NUMBER>  (1) 
31868-18-5

>  <UNII>  (1) 
S5969B6237

>  <SYNONYMS>  (1) 
Mexazolam; Mexazolamum

$$$$
