A84
     RDKit          2D

 30 32  0  0  0  0  0  0  0  0999 V2000
   -3.0990   -0.8921    0.0000 C   0  0  0  0  0  0  0  0  0  0  0  0
   -2.3846   -1.3046    0.0000 C   0  0  0  0  0  0  0  0  0  0  0  0
   -1.6701   -0.8921    0.0000 C   0  0  0  0  0  0  0  0  0  0  0  0
   -1.6701   -0.0671    0.0000 C   0  0  0  0  0  0  0  0  0  0  0  0
   -2.3846    0.3454    0.0000 C   0  0  0  0  0  0  0  0  0  0  0  0
   -3.0990   -0.0671    0.0000 C   0  0  0  0  0  0  0  0  0  0  0  0
   -0.9556   -1.3046    0.0000 C   0  0  0  0  0  0  0  0  0  0  0  0
   -0.2411   -0.8921    0.0000 C   0  0  0  0  0  0  0  0  0  0  0  0
   -0.2411   -0.0671    0.0000 C   0  0  0  0  0  0  0  0  0  0  0  0
   -0.9556    0.3454    0.0000 C   0  0  0  0  0  0  0  0  0  0  0  0
   -0.9556    1.1704    0.0000 C   0  0  0  0  0  0  0  0  0  0  0  0
   -0.2411    1.5829    0.0000 O   0  0  0  0  0  0  0  0  0  0  0  0
   -1.6701    1.5829    0.0000 O   0  0  0  0  0  0  0  0  0  0  0  0
    0.4733    0.3454    0.0000 N   0  0  0  0  0  0  0  0  0  0  0  0
    1.1878   -0.0671    0.0000 S   0  0  0  0  0  0  0  0  0  0  0  0
    0.7753   -0.7815    0.0000 O   0  0  0  0  0  0  0  0  0  0  0  0
    1.6003    0.6474    0.0000 O   0  0  0  0  0  0  0  0  0  0  0  0
    1.9023   -0.4796    0.0000 C   0  0  0  0  0  0  0  0  0  0  0  0
    2.6167   -0.0671    0.0000 C   0  0  0  0  0  0  0  0  0  0  0  0
    3.3312   -0.4796    0.0000 C   0  0  0  0  0  0  0  0  0  0  0  0
    3.3312   -1.3046    0.0000 C   0  0  0  0  0  0  0  0  0  0  0  0
    2.6167   -1.7171    0.0000 C   0  0  0  0  0  0  0  0  0  0  0  0
    1.9023   -1.3046    0.0000 C   0  0  0  0  0  0  0  0  0  0  0  0
    4.0457   -1.7171    0.0000 F   0  0  0  0  0  0  0  0  0  0  0  0
    2.6167    0.7579    0.0000 C   0  0  0  0  0  0  0  0  0  0  0  0
    1.9023    1.1704    0.0000 C   0  0  0  0  0  0  0  0  0  0  0  0
    1.1878    0.7579    0.0000 C   0  0  0  0  0  0  0  0  0  0  0  0
    0.4733    1.1704    0.0000 N   0  0  0  0  0  0  0  0  0  0  0  0
   -0.2411    0.7579    0.0000 C   0  0  0  0  0  0  0  0  0  0  0  0
    0.4733    1.9954    0.0000 C   0  0  0  0  0  0  0  0  0  0  0  0
  1  2  1  0
  1  6  1  0
  2  3  1  0
  3  4  2  0
  3  7  1  0
  4  5  1  0
  4 10  1  0
  5  6  1  0
  7  8  2  0
  8  9  1  0
  9 10  2  0
  9 14  1  0
 10 11  1  0
 11 12  2  0
 11 13  1  0
 14 15  1  0
 15 16  2  0
 15 17  2  0
 15 18  1  0
 18 19  2  0
 18 23  1  0
 19 20  1  0
 19 25  1  0
 20 21  2  0
 21 22  1  0
 21 24  1  0
 22 23  2  0
 25 26  2  0
 26 27  1  0
 27 28  1  0
 28 29  1  0
 28 30  1  0
M  END
>  <DRUGBANK_ID>  (1) 
DB07323

>  <COMMON_NAME>  (1) 
2-[({2-[(1Z)-3-(DIMETHYLAMINO)PROP-1-ENYL]-4-FLUOROPHENYL}SULFONYL)AMINO]-5,6,7,8-TETRAHYDRONAPHTHALENE-1-CARBOXYLIC ACID

$$$$
