CPV
     RDKit          2D

 19 19  0  0  0  0  0  0  0  0999 V2000
    2.4787   -1.6440    0.0000 C   0  0  0  0  0  0  0  0  0  0  0  0
   -0.4087   -0.9296    0.0000 N   0  0  0  0  0  0  0  0  0  0  0  0
    3.3036   -1.6440    0.0000 O   0  0  0  0  0  0  0  0  0  0  0  0
    0.0038   -0.2151    0.0000 C   0  0  0  0  0  0  0  0  0  0  0  0
   -0.4087    0.4992    0.0000 C   0  0  0  0  0  0  0  0  0  0  0  0
   -1.2337    0.4992    0.0000 C   0  0  0  0  0  0  0  0  0  0  0  0
    0.8288   -0.2151    0.0000 C   0  0  0  0  0  0  0  0  0  0  0  0
    1.2412    0.4992    0.0000 O   0  0  0  0  0  0  0  0  0  0  0  0
   -2.8836    0.4992    0.0000 C   0  0  0  0  0  0  0  0  0  0  0  0
    2.0662   -0.9296    0.0000 C   0  0  0  0  0  0  0  0  0  0  0  0
    2.4787   -0.2151    0.0000 C   0  0  0  0  0  0  0  0  0  0  0  0
    1.2412   -0.9296    0.0000 C   0  0  0  0  0  0  0  0  0  0  0  0
   -1.6461    1.2138    0.0000 C   0  0  0  0  0  0  0  0  0  0  0  0
   -1.6461   -0.2151    0.0000 C   0  0  0  0  0  0  0  0  0  0  0  0
   -2.4711    1.2138    0.0000 C   0  0  0  0  0  0  0  0  0  0  0  0
   -2.4711   -0.2151    0.0000 C   0  0  0  0  0  0  0  0  0  0  0  0
    3.3036   -0.2151    0.0000 C   0  0  0  0  0  0  0  0  0  0  0  0
    2.0662    0.4992    0.0000 C   0  0  0  0  0  0  0  0  0  0  0  0
    2.0662   -2.3584    0.0000 O   0  0  0  0  0  0  0  0  0  0  0  0
  1  3  2  0
  1 10  1  0
  1 19  1  0
  4  2  1  1
  5  4  1  0
  6  5  1  0
  6 14  1  0
  6 13  1  0
  7  4  1  0
  7  8  1  1
  7 12  1  0
 10 12  1  1
 10 11  1  0
 11 18  1  0
 15  9  1  0
 15 13  1  0
 16  9  1  0
 16 14  1  0
 17 11  1  0
M  END
>  <DRUGBANK_ID>  (1) 
DB07581

>  <COMMON_NAME>  (1) 
5-AMINO-6-CYCLOHEXYL-4-HYDROXY-2-ISOPROPYL-HEXANOIC ACID

$$$$
