
     RDKit          2D

 34 37  0  0  0  0  0  0  0  0999 V2000
   -0.1443    0.0000    0.0000 C   0  0  0  0  0  0  0  0  0  0  0  0
   -0.1443   -0.8250    0.0000 N   0  0  0  0  0  0  0  0  0  0  0  0
    0.5981   -1.2375    0.0000 C   0  0  0  0  0  0  0  0  0  0  0  0
    1.2993   -0.8250    0.0000 C   0  0  0  0  0  0  0  0  0  0  0  0
    1.2993    0.0000    0.0000 C   0  0  0  0  0  0  0  0  0  0  0  0
    0.5981    0.4125    0.0000 S   0  0  0  0  0  0  0  0  0  0  0  0
   -0.9281    0.0000    0.0000 C   0  0  0  0  0  0  0  0  0  0  0  0
   -0.9281   -0.8250    0.0000 C   0  0  0  0  0  0  0  0  0  0  0  0
   -1.6706    0.4125    0.0000 N   0  0  0  0  0  0  0  0  0  0  0  0
   -2.3718    0.0000    0.0000 C   0  0  0  0  0  0  0  0  0  0  0  0
   -2.3718   -0.8250    0.0000 O   0  0  0  0  0  0  0  0  0  0  0  0
   -1.6706   -1.2375    0.0000 O   0  0  0  0  0  0  0  0  0  0  0  0
   -3.0731    0.4125    0.0000 C   0  0  0  0  0  0  0  0  0  0  0  0
    2.0006   -1.2375    0.0000 C   0  0  0  0  0  0  0  0  0  0  0  0
   -3.8156    0.0000    0.0000 C   0  0  0  0  0  0  0  0  0  0  0  0
   -4.4756    0.4950    0.0000 C   0  0  0  0  0  0  0  0  0  0  0  0
   -5.1356    0.0000    0.0000 S   0  0  0  0  0  0  0  0  0  0  0  0
   -4.8881   -0.8250    0.0000 C   0  0  0  0  0  0  0  0  0  0  0  0
   -4.0631   -0.8250    0.0000 N   0  0  0  0  0  0  0  0  0  0  0  0
   -3.0731    1.2375    0.0000 N   0  0  0  0  0  0  0  0  0  0  0  0
    0.5981   -2.0625    0.0000 C   0  0  0  0  0  0  0  0  0  0  0  0
    1.2993   -2.4750    0.0000 O   0  0  0  0  0  0  0  0  0  0  0  0
   -0.1443   -2.4750    0.0000 O   0  0  0  0  0  0  0  0  0  0  0  0
    2.7018   -0.8250    0.0000 S   0  0  0  0  0  0  0  0  0  0  0  0
    3.4031   -1.2375    0.0000 C   0  0  0  0  0  0  0  0  0  0  0  0
    4.1043   -0.8250    0.0000 C   0  0  0  0  0  0  0  0  0  0  0  0
    4.1043    0.0000    0.0000 C   0  0  0  0  0  0  0  0  0  0  0  0
    4.8881   -1.0725    0.0000 O   0  0  0  0  0  0  0  0  0  0  0  0
    5.3831   -0.4125    0.0000 C   0  0  0  0  0  0  0  0  0  0  0  0
    4.8881    0.2475    0.0000 C   0  0  0  0  0  0  0  0  0  0  0  0
   -5.3831   -1.4850    0.0000 N   0  0  0  0  0  0  0  0  0  0  0  0
    3.4031   -2.0625    0.0000 O   0  0  0  0  0  0  0  0  0  0  0  0
   -2.3718    1.6500    0.0000 O   0  0  0  0  0  0  0  0  0  0  0  0
   -2.3718    2.4750    0.0000 C   0  0  0  0  0  0  0  0  0  0  0  0
  1  2  1  0
  1  6  1  1
  1  7  1  0
  2  3  1  0
  2  8  1  0
  3  4  2  0
  3 21  1  0
  4  5  1  0
  4 14  1  0
  5  6  1  0
  7  8  1  0
  7  9  1  1
  8 12  2  0
  9 10  1  0
 10 11  2  0
 10 13  1  0
 13 15  1  0
 13 20  2  0
 14 24  1  0
 15 16  2  0
 15 19  1  0
 16 17  1  0
 17 18  1  0
 18 19  2  0
 18 31  1  0
 20 33  1  0
 21 22  1  0
 21 23  2  0
 24 25  1  0
 25 26  1  0
 25 32  2  0
 26 27  2  0
 26 28  1  0
 27 30  1  0
 28 29  1  0
 29 30  2  0
 33 34  1  0
M  END
>  <DRUGBANK_ID>  (1) 
DB11485

>  <COMMON_NAME>  (1) 
Ceftiofur

>  <CAS_NUMBER>  (1) 
80370-57-6

>  <UNII>  (1) 
83JL932I1C

>  <SYNONYMS>  (1) 
Ceftiofur; Ceftiofur crystalline free acid

$$$$
