
     RDKit          2D

 41 44  0  0  0  0  0  0  0  0999 V2000
    0.7145    0.4125    0.0000 C   0  0  0  0  0  0  0  0  0  0  0  0
    0.0000   -0.0000    0.0000 C   0  0  0  0  0  0  0  0  0  0  0  0
    0.0000   -0.8250    0.0000 N   0  0  0  0  0  0  0  0  0  0  0  0
   -0.7145   -1.2375    0.0000 C   0  0  0  0  0  0  0  0  0  0  0  0
   -1.4289   -0.8250    0.0000 C   0  0  0  0  0  0  0  0  0  0  0  0
   -2.1434   -1.2375    0.0000 C   0  0  0  0  0  0  0  0  0  0  0  0
   -2.8579   -0.8250    0.0000 O   0  0  0  0  0  0  0  0  0  0  0  0
   -3.5724   -1.2375    0.0000 C   0  0  0  0  0  0  0  0  0  0  0  0
   -4.2868   -0.8250    0.0000 C   0  0  0  0  0  0  0  0  0  0  0  0
   -5.0013   -1.2375    0.0000 C   0  0  0  0  0  0  0  0  0  0  0  0
   -5.0013   -2.0625    0.0000 C   0  0  0  0  0  0  0  0  0  0  0  0
   -4.2868   -2.4750    0.0000 C   0  0  0  0  0  0  0  0  0  0  0  0
   -3.5724   -2.0625    0.0000 C   0  0  0  0  0  0  0  0  0  0  0  0
   -4.2868   -3.3000    0.0000 N   0  0  0  0  0  0  0  0  0  0  0  0
   -5.0013   -3.7125    0.0000 C   0  0  0  0  0  0  0  0  0  0  0  0
   -5.7158   -3.3000    0.0000 N   0  0  0  0  0  0  0  0  0  0  0  0
   -5.7158   -2.4750    0.0000 C   0  0  0  0  0  0  0  0  0  0  0  0
   -6.4302   -2.0625    0.0000 N   0  0  0  0  0  0  0  0  0  0  0  0
   -7.1447   -2.4750    0.0000 C   0  0  0  0  0  0  0  0  0  0  0  0
   -7.2309   -3.2955    0.0000 C   0  0  0  0  0  0  0  0  0  0  0  0
   -8.0379   -3.4670    0.0000 C   0  0  0  0  0  0  0  0  0  0  0  0
   -8.4504   -2.7525    0.0000 N   0  0  0  0  0  0  0  0  0  0  0  0
   -7.8984   -2.1394    0.0000 N   0  0  0  0  0  0  0  0  0  0  0  0
   -8.3735   -4.2207    0.0000 C   0  0  0  0  0  0  0  0  0  0  0  0
   -9.1940   -4.3069    0.0000 C   0  0  0  0  0  0  0  0  0  0  0  0
   -9.6789   -3.6395    0.0000 O   0  0  0  0  0  0  0  0  0  0  0  0
   -9.5295   -5.0606    0.0000 N   0  0  0  0  0  0  0  0  0  0  0  0
  -10.3500   -5.1468    0.0000 C   0  0  0  0  0  0  0  0  0  0  0  0
  -10.6856   -5.9005    0.0000 C   0  0  0  0  0  0  0  0  0  0  0  0
  -11.5060   -5.9867    0.0000 C   0  0  0  0  0  0  0  0  0  0  0  0
  -11.9910   -5.3193    0.0000 C   0  0  0  0  0  0  0  0  0  0  0  0
  -11.6554   -4.5656    0.0000 C   0  0  0  0  0  0  0  0  0  0  0  0
  -10.8349   -4.4794    0.0000 C   0  0  0  0  0  0  0  0  0  0  0  0
  -12.1403   -3.8982    0.0000 F   0  0  0  0  0  0  0  0  0  0  0  0
    0.7145   -1.2375    0.0000 C   0  0  0  0  0  0  0  0  0  0  0  0
    1.4289   -0.8250    0.0000 C   0  0  0  0  0  0  0  0  0  0  0  0
    2.1434   -1.2375    0.0000 O   0  0  0  0  0  0  0  0  0  0  0  0
    2.8579   -0.8250    0.0000 P   0  0  0  0  0  0  0  0  0  0  0  0
    3.5724   -0.4125    0.0000 O   0  0  0  0  0  0  0  0  0  0  0  0
    3.2704   -1.5395    0.0000 O   0  0  0  0  0  0  0  0  0  0  0  0
    2.4454   -0.1105    0.0000 O   0  0  0  0  0  0  0  0  0  0  0  0
  1  2  1  0
  2  3  1  0
  3  4  1  0
  3 35  1  0
  4  5  1  0
  5  6  1  0
  6  7  1  0
  7  8  1  0
  8  9  2  0
  8 13  1  0
  9 10  1  0
 10 11  2  0
 11 12  1  0
 11 17  1  0
 12 13  2  0
 12 14  1  0
 14 15  2  0
 15 16  1  0
 16 17  2  0
 17 18  1  0
 18 19  1  0
 19 20  2  0
 19 23  1  0
 20 21  1  0
 21 22  2  0
 21 24  1  0
 22 23  1  0
 24 25  1  0
 25 26  2  0
 25 27  1  0
 27 28  1  0
 28 29  2  0
 28 33  1  0
 29 30  1  0
 30 31  2  0
 31 32  1  0
 32 33  2  0
 32 34  1  0
 35 36  1  0
 36 37  1  0
 37 38  1  0
 38 39  2  0
 38 40  1  0
 38 41  1  0
M  END
>  <DRUGBANK_ID>  (1) 
DB11747

>  <COMMON_NAME>  (1) 
Barasertib

>  <CAS_NUMBER>  (1) 
722543-31-9

>  <UNII>  (1) 
16XC2U7W8N

>  <SYNONYMS>  (1) 
Barasertib

$$$$
