NFG
     RDKit          2D

 24 25  0  0  0  0  0  0  0  0999 V2000
   -0.8905    0.0564    0.0000 C   0  0  0  0  0  0  0  0  0  0  0  0
   -0.8905    0.8814    0.0000 O   0  0  0  0  0  0  0  0  0  0  0  0
   -0.1761   -0.3561    0.0000 C   0  0  0  0  0  0  0  0  0  0  0  0
    0.5384    0.0564    0.0000 F   0  0  0  0  0  0  0  0  0  0  0  0
   -0.1761   -1.1811    0.0000 C   0  0  0  0  0  0  0  0  0  0  0  0
    0.5384   -1.5936    0.0000 O   0  0  0  0  0  0  0  0  0  0  0  0
   -0.8905   -1.5936    0.0000 C   0  0  0  0  0  0  0  0  0  0  0  0
   -0.8905   -2.4186    0.0000 O   0  0  0  0  0  0  0  0  0  0  0  0
   -1.6050   -1.1811    0.0000 C   0  0  0  0  0  0  0  0  0  0  0  0
   -2.3195   -1.5936    0.0000 C   0  0  0  0  0  0  0  0  0  0  0  0
   -3.0339   -1.1811    0.0000 O   0  0  0  0  0  0  0  0  0  0  0  0
   -1.6050   -0.3561    0.0000 O   0  0  0  0  0  0  0  0  0  0  0  0
   -0.1761    1.2939    0.0000 C   0  0  0  0  0  0  0  0  0  0  0  0
   -0.1761    2.1189    0.0000 C   0  0  0  0  0  0  0  0  0  0  0  0
   -0.8905    2.5314    0.0000 N   0  0  0  0  0  0  0  0  0  0  0  0
   -0.8905    3.3564    0.0000 O   0  0  0  0  0  0  0  0  0  0  0  0
   -1.6050    2.1189    0.0000 O   0  0  0  0  0  0  0  0  0  0  0  0
    0.5384    2.5314    0.0000 C   0  0  0  0  0  0  0  0  0  0  0  0
    1.2529    2.1189    0.0000 C   0  0  0  0  0  0  0  0  0  0  0  0
    1.9674    2.5314    0.0000 N   0  0  0  0  0  0  0  0  0  0  0  0
    1.9674    3.3564    0.0000 O   0  0  0  0  0  0  0  0  0  0  0  0
    2.6818    2.1189    0.0000 O   0  0  0  0  0  0  0  0  0  0  0  0
    1.2529    1.2939    0.0000 C   0  0  0  0  0  0  0  0  0  0  0  0
    0.5384    0.8814    0.0000 C   0  0  0  0  0  0  0  0  0  0  0  0
  1  2  1  1
  1  3  1  0
  1 12  1  0
  2 13  1  0
  3  4  1  6
  3  5  1  0
  5  6  1  1
  5  7  1  0
  7  8  1  6
  7  9  1  0
  9 10  1  1
  9 12  1  0
 10 11  1  0
 13 14  2  0
 13 24  1  0
 14 15  1  0
 14 18  1  0
 15 16  1  0
 15 17  2  0
 18 19  2  0
 19 20  1  0
 19 23  1  0
 20 21  1  0
 20 22  2  0
 23 24  2  0
M  CHG  4  15   1  16  -1  20   1  21  -1
M  END
>  <DRUGBANK_ID>  (1) 
DB02658

>  <SECONDARY_ACCESSION_NUMBERS>  (1) 
EXPT02330

>  <COMMON_NAME>  (1) 
2,4-Dinitrophenyl 2-Deoxy-2-Fluoro-Beta-D-Allopyranoside

$$$$
