
     RDKit          2D

 18 20  0  0  0  0  0  0  0  0999 V2000
    0.7145    2.0625    0.0000 C   0  0  0  0  0  0  0  0  0  0  0  0
    0.0000    0.0000    0.0000 C   0  0  0  0  0  0  0  0  0  0  0  0
    2.5559   -2.5070    0.0000 C   0  0  0  0  0  0  0  0  0  0  0  0
    3.7511    0.9920    0.0000 C   0  0  0  0  0  0  0  0  0  0  0  0
    0.7145   -0.4125    0.0000 C   0  0  0  0  0  0  0  0  0  0  0  0
    2.8109   -1.7224    0.0000 C   0  0  0  0  0  0  0  0  0  0  0  0
    2.9441    0.8205    0.0000 C   0  0  0  0  0  0  0  0  0  0  0  0
    0.0000    0.8250    0.0000 C   0  0  0  0  0  0  0  0  0  0  0  0
    1.7309   -2.5070    0.0000 C   0  0  0  0  0  0  0  0  0  0  0  0
    4.1636    0.2775    0.0000 C   0  0  0  0  0  0  0  0  0  0  0  0
    1.4289    0.8250    0.0000 C   0  0  0  0  0  0  0  0  0  0  0  0
    1.4289    0.0000    0.0000 C   0  0  0  0  0  0  0  0  0  0  0  0
    2.1434   -1.2375    0.0000 C   0  0  0  0  0  0  0  0  0  0  0  0
    2.8579    0.0000    0.0000 C   0  0  0  0  0  0  0  0  0  0  0  0
    2.1434   -0.4125    0.0000 C   0  0  0  0  0  0  0  0  0  0  0  0
    0.7145    1.2375    0.0000 N   0  0  0  0  0  0  0  0  0  0  0  0
    1.4760   -1.7224    0.0000 S   0  0  0  0  0  0  0  0  0  0  0  0
    3.6116   -0.3356    0.0000 S   0  0  0  0  0  0  0  0  0  0  0  0
  5  2  1  0
  6  3  1  0
  7  4  1  0
  8  2  1  0
  9  3  2  0
 10  4  2  0
 12  5  1  0
 12 11  1  0
 13  6  2  0
 14  7  2  0
 15 12  2  3
 15 13  1  0
 15 14  1  0
 16  1  1  0
 16  8  1  0
 16 11  1  0
 17  9  1  0
 17 13  1  0
 18 10  1  0
 18 14  1  0
M  END
>  <DRUGBANK_ID>  (1) 
DB13474

>  <COMMON_NAME>  (1) 
Tipepidine

>  <CAS_NUMBER>  (1) 
5169-78-8

>  <UNII>  (1) 
2260ZP67IT

>  <SYNONYMS>  (1) 
Tipepidine

$$$$
