FLE
     RDKit          2D

 16 16  0  0  0  0  0  0  0  0999 V2000
    0.2206    0.5696    0.0000 N   0  0  0  0  0  0  0  0  0  0  0  0
   -0.4938    0.1571    0.0000 C   0  0  0  0  0  0  0  0  0  0  0  0
   -1.2083    0.5696    0.0000 C   0  0  0  0  0  0  0  0  0  0  0  0
   -1.9228    0.1571    0.0000 C   0  0  0  0  0  0  0  0  0  0  0  0
   -2.6372    0.5696    0.0000 C   0  0  0  0  0  0  0  0  0  0  0  0
   -1.9228   -0.6679    0.0000 C   0  0  0  0  0  0  0  0  0  0  0  0
   -0.4938   -0.6679    0.0000 C   0  0  0  0  0  0  0  0  0  0  0  0
   -1.2083   -1.0804    0.0000 O   0  0  0  0  0  0  0  0  0  0  0  0
    0.2206   -1.0804    0.0000 O   0  0  0  0  0  0  0  0  0  0  0  0
    0.9351    0.1571    0.0000 C   0  0  0  0  0  0  0  0  0  0  0  0
    0.9351   -0.6679    0.0000 O   0  0  0  0  0  0  0  0  0  0  0  0
    1.6496    0.5696    0.0000 C   0  0  0  0  0  0  0  0  0  0  0  0
    1.7358    1.3901    0.0000 O   0  0  0  0  0  0  0  0  0  0  0  0
    2.4033    0.2341    0.0000 C   0  0  0  0  0  0  0  0  0  0  0  0
    2.9553    0.8472    0.0000 C   0  0  0  0  0  0  0  0  0  0  0  0
    2.5428    1.5616    0.0000 C   0  0  0  0  0  0  0  0  0  0  0  0
  1 10  1  0
  2  1  1  0
  2  3  1  6
  2  7  1  0
  3  4  1  0
  4  5  1  0
  4  6  1  0
  7  8  1  0
  7  9  2  0
 10 11  2  0
 10 12  1  0
 12 13  1  0
 12 14  2  0
 13 16  1  0
 14 15  1  0
 15 16  2  0
M  END
>  <DRUGBANK_ID>  (1) 
DB02215

>  <SECONDARY_ACCESSION_NUMBERS>  (1) 
EXPT01441

>  <COMMON_NAME>  (1) 
Furoyl-Leucine

$$$$
