AP6
     RDKit          2D

 18 20  0  0  0  0  0  0  0  0999 V2000
   -1.6599    1.3388    0.0000 N   0  0  0  0  0  0  0  0  0  0  0  0
   -2.3743    0.9263    0.0000 C   0  0  0  0  0  0  0  0  0  0  0  0
   -3.0888    1.3388    0.0000 N   0  0  0  0  0  0  0  0  0  0  0  0
   -2.3743    0.1013    0.0000 N   0  0  0  0  0  0  0  0  0  0  0  0
   -1.6599   -0.3112    0.0000 C   0  0  0  0  0  0  0  0  0  0  0  0
   -1.6599   -1.1362    0.0000 N   0  0  0  0  0  0  0  0  0  0  0  0
   -0.9454    0.1013    0.0000 C   0  0  0  0  0  0  0  0  0  0  0  0
   -0.9454    0.9263    0.0000 C   0  0  0  0  0  0  0  0  0  0  0  0
   -0.2309   -0.3112    0.0000 N   0  0  0  0  0  0  0  0  0  0  0  0
    0.4835    0.1013    0.0000 C   0  0  0  0  0  0  0  0  0  0  0  0
    0.4835    0.9263    0.0000 C   0  0  0  0  0  0  0  0  0  0  0  0
   -0.2309    1.3388    0.0000 N   0  0  0  0  0  0  0  0  0  0  0  0
    1.1980   -0.3112    0.0000 C   0  0  0  0  0  0  0  0  0  0  0  0
    1.9125    0.1013    0.0000 C   0  0  0  0  0  0  0  0  0  0  0  0
    1.1980   -1.1362    0.0000 C   0  0  0  0  0  0  0  0  0  0  0  0
    2.6270   -0.3112    0.0000 C   0  0  0  0  0  0  0  0  0  0  0  0
    1.9125   -1.5487    0.0000 C   0  0  0  0  0  0  0  0  0  0  0  0
    2.6270   -1.1362    0.0000 C   0  0  0  0  0  0  0  0  0  0  0  0
  1  2  2  0
  1  8  1  0
  2  3  1  0
  2  4  1  0
  4  5  2  0
  5  6  1  0
  5  7  1  0
  7  8  2  0
  7  9  1  0
  8 12  1  0
  9 10  1  0
 10 11  1  0
 10 13  1  1
 11 12  1  0
 13 14  2  0
 13 15  1  0
 14 16  1  0
 15 17  2  0
 16 18  2  0
 17 18  1  0
M  END
>  <DRUGBANK_ID>  (1) 
DB02911

>  <SECONDARY_ACCESSION_NUMBERS>  (1) 
EXPT00536

>  <COMMON_NAME>  (1) 
2,4-Diamino-6-Phenyl-5,6,7,8,-Tetrahydropteridine

$$$$
