
     RDKit          2D

 29 30  0  0  0  0  0  0  0  0999 V2000
   13.0806    1.2232    0.0000 O   0  0  0  0  0  0  0  0  0  0  0  0
   13.7950   -0.0143    0.0000 O   0  0  0  0  0  0  0  0  0  0  0  0
   14.5095   -1.2517    0.0000 O   0  0  0  0  0  0  0  0  0  0  0  0
   14.5095    1.2232    0.0000 N   0  0  0  0  0  0  0  0  0  0  0  0
    7.3652    1.2232    0.0000 C   0  0  0  0  0  0  0  0  0  0  0  0
    6.6509    0.8106    0.0000 C   0  0  0  0  0  0  0  0  0  0  0  0
    8.0797    0.8106    0.0000 C   0  0  0  0  0  0  0  0  0  0  0  0
    5.9365    1.2232    0.0000 C   0  0  0  0  0  0  0  0  0  0  0  0
    8.7941    1.2232    0.0000 C   0  0  0  0  0  0  0  0  0  0  0  0
    5.2219    0.8106    0.0000 C   0  0  0  0  0  0  0  0  0  0  0  0
    9.5085    0.8106    0.0000 C   0  0  0  0  0  0  0  0  0  0  0  0
    4.5076    1.2232    0.0000 C   0  0  0  0  0  0  0  0  0  0  0  0
   10.2230    1.2232    0.0000 C   0  0  0  0  0  0  0  0  0  0  0  0
    3.7932    0.8106    0.0000 C   0  0  0  0  0  0  0  0  0  0  0  0
   10.9373    0.8106    0.0000 C   0  0  0  0  0  0  0  0  0  0  0  0
    3.0788    1.2232    0.0000 C   0  0  0  0  0  0  0  0  0  0  0  0
   11.6518    1.2232    0.0000 C   0  0  0  0  0  0  0  0  0  0  0  0
    2.3643    0.8106    0.0000 C   0  0  0  0  0  0  0  0  0  0  0  0
   12.3663    0.8106    0.0000 C   0  0  0  0  0  0  0  0  0  0  0  0
    1.6498    1.2232    0.0000 C   0  0  0  0  0  0  0  0  0  0  0  0
   13.7950    0.8106    0.0000 C   0  0  0  0  0  0  0  0  0  0  0  0
   15.2239    0.8106    0.0000 C   0  0  0  0  0  0  0  0  0  0  0  0
   15.2239   -0.0143    0.0000 C   0  0  0  0  0  0  0  0  0  0  0  0
   14.5095   -0.4268    0.0000 C   0  0  0  0  0  0  0  0  0  0  0  0
   15.9613   -0.4554    0.0000 C   0  0  0  0  0  0  0  0  0  0  0  0
   15.9613    1.2517    0.0000 C   0  0  0  0  0  0  0  0  0  0  0  0
   16.7088   -0.0314    0.0000 C   0  0  0  0  0  0  0  0  0  0  0  0
   16.7088    0.8278    0.0000 C   0  0  0  0  0  0  0  0  0  0  0  0
   17.4216   -0.4467    0.0000 C   0  0  0  0  0  0  0  0  0  0  0  0
  1 19  1  0
  1 21  1  0
  2 21  1  0
  2 24  1  0
  3 24  2  0
  4 21  2  0
  4 22  1  0
  5  6  1  0
  5  7  1  0
  6  8  1  0
  7  9  1  0
  8 10  1  0
  9 11  1  0
 10 12  1  0
 11 13  1  0
 12 14  1  0
 13 15  1  0
 14 16  1  0
 15 17  1  0
 16 18  1  0
 17 19  1  0
 18 20  1  0
 22 23  2  0
 22 26  1  0
 23 24  1  0
 23 25  1  0
 25 27  2  0
 26 28  2  0
 27 28  1  0
 27 29  1  0
M  END
>  <DRUGBANK_ID>  (1) 
DB06586

>  <COMMON_NAME>  (1) 
Cetilistat

>  <CAS_NUMBER>  (1) 
282526-98-1

>  <UNII>  (1) 
LC5G1JUA39

>  <SYNONYMS>  (1) 
Cetilistat

$$$$
