
     RDKit          2D

 31 33  0  0  1  0  0  0  0  0999 V2000
    3.0639   -1.4415    0.0000 N   0  0  0  0  0  0  0  0  0  0  0  0
    3.2780   -0.6491    0.0000 C   0  0  0  0  0  0  0  0  0  0  0  0
    4.0752   -0.8584    0.0000 C   0  0  0  0  0  0  0  0  0  0  0  0
    3.8611   -1.6555    0.0000 C   0  0  0  0  0  0  0  0  0  0  0  0
    2.3538   -1.8580    0.0000 S   0  0  0  0  0  0  0  0  0  0  0  0
    2.7657   -2.5682    0.0000 O   0  0  0  0  0  0  0  0  0  0  0  0
    1.9419   -1.1432    0.0000 O   0  0  0  0  0  0  0  0  0  0  0  0
    1.6389   -2.2698    0.0000 N   0  0  0  0  0  0  0  0  0  0  0  0
    0.9240   -1.8580    0.0000 C   0  0  0  0  0  0  0  0  0  0  0  0
    0.9240   -1.0297    0.0000 N   0  0  0  0  0  0  0  0  0  0  0  0
    0.2093   -0.6179    0.0000 C   0  0  0  0  0  0  0  0  0  0  0  0
   -0.5055   -1.0297    0.0000 N   0  0  0  0  0  0  0  0  0  0  0  0
   -0.5055   -1.8580    0.0000 C   0  0  0  0  0  0  0  0  0  0  0  0
    0.2093   -2.2698    0.0000 C   0  0  0  0  0  0  0  0  0  0  0  0
   -1.2204   -2.2698    0.0000 O   0  0  0  0  0  0  0  0  0  0  0  0
   -1.9352   -1.8580    0.0000 C   0  0  0  0  0  0  0  0  0  0  0  0
   -1.9352   -1.0297    0.0000 C   0  0  0  0  0  0  0  0  0  0  0  0
   -2.6454   -2.2698    0.0000 C   0  0  0  0  0  0  0  0  0  0  0  0
   -3.3603   -1.8580    0.0000 C   0  0  0  0  0  0  0  0  0  0  0  0
   -4.0752   -2.2698    0.0000 O   0  0  0  0  0  0  0  0  0  0  0  0
   -2.6454   -3.0936    0.0000 O   0  0  0  0  0  0  0  0  0  0  0  0
    0.2093    0.2059    0.0000 S   0  0  0  0  0  0  0  0  0  0  0  0
    0.9240    0.6178    0.0000 C   0  0  0  0  0  0  0  0  0  0  0  0
    0.9240    1.4415    0.0000 C   0  0  0  0  0  0  0  0  0  0  0  0
    0.2093    1.8533    0.0000 C   0  0  0  0  0  0  0  0  0  0  0  0
    0.2093    2.6817    0.0000 C   0  0  0  0  0  0  0  0  0  0  0  0
    0.9240    3.0936    0.0000 C   0  0  0  0  0  0  0  0  0  0  0  0
    1.6389    2.6817    0.0000 C   0  0  0  0  0  0  0  0  0  0  0  0
    1.6389    1.8533    0.0000 C   0  0  0  0  0  0  0  0  0  0  0  0
   -0.5055    3.0936    0.0000 F   0  0  0  0  0  0  0  0  0  0  0  0
   -0.5055    1.4415    0.0000 F   0  0  0  0  0  0  0  0  0  0  0  0
  1  2  1  0
  1  4  1  0
  1  5  1  0
  2  3  1  0
  3  4  1  0
  5  6  2  0
  5  7  2  0
  5  8  1  0
  8  9  1  0
  9 14  1  0
 10  9  2  0
 11 10  1  0
 11 12  2  0
 11 22  1  0
 13 12  1  0
 13 15  1  0
 14 13  2  0
 15 16  1  0
 16 17  1  1
 16 18  1  0
 18 19  1  0
 18 21  1  1
 19 20  1  0
 22 23  1  0
 23 24  1  0
 24 25  2  0
 24 29  1  0
 25 26  1  0
 25 31  1  0
 26 27  2  0
 26 30  1  0
 27 28  1  0
 28 29  2  0
M  END
>  <DRUGBANK_ID>  (1) 
DB16822

>  <COMMON_NAME>  (1) 
AZD-5069

>  <CAS_NUMBER>  (1) 
878385-84-3

>  <UNII>  (1) 
4ADT8JXB9S

$$$$
