QUA
     RDKit          2D

 17 18  0  0  0  0  0  0  0  0999 V2000
   -2.0230    1.1238    0.0000 O   0  0  0  0  0  0  0  0  0  0  0  0
   -1.3085    1.5363    0.0000 C   0  0  0  0  0  0  0  0  0  0  0  0
   -0.5941    1.1238    0.0000 C   0  0  0  0  0  0  0  0  0  0  0  0
    0.1204    1.5363    0.0000 N   0  0  0  0  0  0  0  0  0  0  0  0
   -0.5941    0.2988    0.0000 C   0  0  0  0  0  0  0  0  0  0  0  0
    0.8349    1.1238    0.0000 C   0  0  0  0  0  0  0  0  0  0  0  0
    0.1204   -0.1137    0.0000 C   0  0  0  0  0  0  0  0  0  0  0  0
    1.5493    1.5363    0.0000 C   0  0  0  0  0  0  0  0  0  0  0  0
    0.8349    0.2988    0.0000 C   0  0  0  0  0  0  0  0  0  0  0  0
    1.5493    2.3613    0.0000 O   0  0  0  0  0  0  0  0  0  0  0  0
    2.2638    1.1238    0.0000 C   0  0  0  0  0  0  0  0  0  0  0  0
    0.1204   -0.9387    0.0000 C   0  0  0  0  0  0  0  0  0  0  0  0
    0.8349   -1.3512    0.0000 O   0  0  0  0  0  0  0  0  0  0  0  0
    1.5493   -0.1137    0.0000 C   0  0  0  0  0  0  0  0  0  0  0  0
   -0.5941   -1.3512    0.0000 C   0  0  0  0  0  0  0  0  0  0  0  0
    2.2638    0.2988    0.0000 C   0  0  0  0  0  0  0  0  0  0  0  0
   -1.3085    2.3613    0.0000 O   0  0  0  0  0  0  0  0  0  0  0  0
  1  2  2  0
  2  3  1  0
  2 17  1  0
  3  4  2  0
  3  5  1  0
  4  6  1  0
  5  7  2  0
  6  8  1  0
  6  9  2  0
  7  9  1  0
  7 12  1  0
  8 10  1  1
  8 11  1  0
  9 14  1  0
 11 16  1  0
 12 13  1  0
 12 15  1  1
 14 16  2  0
M  END
>  <DRUGBANK_ID>  (1) 
DB02566

>  <SECONDARY_ACCESSION_NUMBERS>  (1) 
EXPT02731

>  <COMMON_NAME>  (1) 
8-Hydroxy-4-(1-Hydroxyethyl)Quinoline-2-Carboxylic Acid

$$$$
