
     RDKit          2D

 18 17  0  0  0  0  0  0  0  0999 V2000
    3.9298    1.0313    0.0000 S   0  0  0  0  0  0  0  0  0  0  0  0
   -1.7862    1.0313    0.0000 O   0  0  0  0  0  0  0  0  0  0  0  0
   -3.9298   -0.2062    0.0000 O   0  0  0  0  0  0  0  0  0  0  0  0
   -1.0718   -1.0313    0.0000 O   0  0  0  0  0  0  0  0  0  0  0  0
    1.7862   -1.0313    0.0000 O   0  0  0  0  0  0  0  0  0  0  0  0
   -0.3571    0.2062    0.0000 N   0  0  0  0  0  0  0  0  0  0  0  0
    2.5008    0.2062    0.0000 N   0  0  0  0  0  0  0  0  0  0  0  0
   -2.5008   -0.2062    0.0000 C   0  0  0  0  0  0  0  0  0  0  0  0
   -1.7862    0.2062    0.0000 C   0  0  0  0  0  0  0  0  0  0  0  0
   -3.2152   -0.6187    0.0000 C   0  0  0  0  0  0  0  0  0  0  0  0
   -2.9133    0.5082    0.0000 C   0  0  0  0  0  0  0  0  0  0  0  0
   -2.0883   -0.9208    0.0000 C   0  0  0  0  0  0  0  0  0  0  0  0
   -1.0718   -0.2062    0.0000 C   0  0  0  0  0  0  0  0  0  0  0  0
    0.3572   -0.2062    0.0000 C   0  0  0  0  0  0  0  0  0  0  0  0
    1.0718    0.2062    0.0000 C   0  0  0  0  0  0  0  0  0  0  0  0
    1.7862   -0.2062    0.0000 C   0  0  0  0  0  0  0  0  0  0  0  0
    3.2153   -0.2062    0.0000 C   0  0  0  0  0  0  0  0  0  0  0  0
    3.9298    0.2062    0.0000 C   0  0  0  0  0  0  0  0  0  0  0  0
  1 18  1  0
  3 10  1  0
  4 13  2  0
  5 16  2  0
  6 13  1  0
  6 14  1  0
  7 16  1  0
  7 17  1  0
  8  9  1  0
  8 10  1  0
  8 11  1  0
  8 12  1  0
  9  2  1  1
  9 13  1  0
 14 15  1  0
 15 16  1  0
 17 18  2  0
M  END
>  <DRUGBANK_ID>  (1) 
DB03738

>  <SECONDARY_ACCESSION_NUMBERS>  (1) 
EXPT02522

>  <COMMON_NAME>  (1) 
Pantothenoylaminoethenethiol

>  <SYNONYMS>  (1) 
2,4-Dihydroxy-N-[2-(2-mercapto-vinylcarbamoyl)-ethyl]-3,3-dimethyl-butyramide

$$$$
