
     RDKit          2D

 14 16  0  0  0  0  0  0  0  0999 V2000
   -0.0320    0.0000    0.0000 C   0  0  0  0  0  0  0  0  0  0  0  0
   -0.8571    0.0000    0.0000 C   0  0  0  0  0  0  0  0  0  0  0  0
    0.4528   -0.6674    0.0000 C   0  0  0  0  0  0  0  0  0  0  0  0
    0.4528    0.6674    0.0000 N   0  0  0  0  0  0  0  0  0  0  0  0
   -1.2696    0.7145    0.0000 C   0  0  0  0  0  0  0  0  0  0  0  0
   -1.2696   -0.7145    0.0000 C   0  0  0  0  0  0  0  0  0  0  0  0
    1.2375   -0.4124    0.0000 N   0  0  0  0  0  0  0  0  0  0  0  0
    1.2375    0.4125    0.0000 C   0  0  0  0  0  0  0  0  0  0  0  0
   -2.0947    0.7145    0.0000 C   0  0  0  0  0  0  0  0  0  0  0  0
   -2.0947   -0.7145    0.0000 C   0  0  0  0  0  0  0  0  0  0  0  0
    2.0222   -0.6674    0.0000 C   0  0  0  0  0  0  0  0  0  0  0  0
    2.0222    0.6674    0.0000 S   0  0  0  0  0  0  0  0  0  0  0  0
   -2.5072    0.0000    0.0000 C   0  0  0  0  0  0  0  0  0  0  0  0
    2.5072    0.0000    0.0000 C   0  0  0  0  0  0  0  0  0  0  0  0
  1  2  1  0
  1  3  1  0
  1  4  1  0
  2  5  2  0
  2  6  1  0
  3  7  1  0
  4  8  2  0
  5  9  1  0
  6 10  2  0
  7 11  1  0
  7  8  1  0
  8 12  1  0
  9 13  2  0
 10 13  1  0
 11 14  1  0
 12 14  1  0
M  END
>  <DRUGBANK_ID>  (1) 
DB16561

>  <COMMON_NAME>  (1) 
Tetramisole

>  <CAS_NUMBER>  (1) 
5036-02-2

>  <UNII>  (1) 
C8M7RFE4NO

>  <SYNONYMS>  (1) 
Levamisole DL-form; Tetramisol; Tetramisole; Tetramisolum

$$$$
