
     RDKit          2D

 30 33  0  0  1  0  0  0  0  0999 V2000
    2.7845   -0.1271    0.0000 C   0  0  0  0  0  0  0  0  0  0  0  0
    2.7845    0.6979    0.0000 C   0  0  0  0  0  0  0  0  0  0  0  0
    3.4990    1.1104    0.0000 N   0  0  0  0  0  0  0  0  0  0  0  0
    4.2135    0.6979    0.0000 C   0  0  0  0  0  0  0  0  0  0  0  0
    4.9279    1.1104    0.0000 N   0  0  0  0  0  0  0  0  0  0  0  0
    5.6424    0.6979    0.0000 C   0  0  0  0  0  0  0  0  0  0  0  0
    5.6424   -0.1271    0.0000 N   0  0  0  0  0  0  0  0  0  0  0  0
    4.9279   -0.5396    0.0000 C   0  0  0  0  0  0  0  0  0  0  0  0
    4.9279   -1.3646    0.0000 N   0  0  0  0  0  0  0  0  0  0  0  0
    4.2135   -0.1271    0.0000 C   0  0  0  0  0  0  0  0  0  0  0  0
    3.4990   -0.5396    0.0000 C   0  0  0  0  0  0  0  0  0  0  0  0
    2.7845   -0.9521    0.0000 N   0  0  0  0  0  0  0  0  0  0  0  0
    2.0701    1.1104    0.0000 C   0  0  0  0  0  0  0  0  0  0  0  0
    1.3556    0.6979    0.0000 N   0  0  0  0  0  0  0  0  0  0  0  0
    0.6411    1.1104    0.0000 N   0  0  0  0  0  0  0  0  0  0  0  0
   -0.1435    0.8555    0.0000 C   0  0  0  0  0  0  0  0  0  0  0  0
   -0.6284    1.5229    0.0000 C   0  0  0  0  0  0  0  0  0  0  0  0
   -0.1435    2.1904    0.0000 C   0  0  0  0  0  0  0  0  0  0  0  0
   -0.3984    2.9750    0.0000 C   0  0  0  0  0  0  0  0  0  0  0  0
   -0.6534    3.7596    0.0000 N   0  0  0  0  0  0  0  0  0  0  0  0
    0.6411    1.9354    0.0000 C   0  0  0  0  0  0  0  0  0  0  0  0
    1.3556    2.3479    0.0000 C   0  0  0  0  0  0  0  0  0  0  0  0
    1.3556    3.1729    0.0000 O   0  0  0  0  0  0  0  0  0  0  0  0
    2.0701    1.9354    0.0000 N   0  0  0  0  0  0  0  0  0  0  0  0
    2.7845    2.3479    0.0000 C   0  0  0  0  0  0  0  0  0  0  0  0
    2.7845    3.1729    0.0000 C   0  0  0  0  0  0  0  0  0  0  0  0
    3.4990    3.5854    0.0000 C   0  0  0  0  0  0  0  0  0  0  0  0
    4.2135    3.1729    0.0000 C   0  0  0  0  0  0  0  0  0  0  0  0
    4.2135    2.3479    0.0000 C   0  0  0  0  0  0  0  0  0  0  0  0
    3.4990    1.9354    0.0000 C   0  0  0  0  0  0  0  0  0  0  0  0
  2  1  1  1
  2  3  1  0
  2 13  1  0
  3  4  1  0
  4  5  2  0
  4 10  1  0
  5  6  1  0
  6  7  2  0
  7  8  1  0
  8  9  1  0
  8 10  2  0
 10 11  1  0
 11 12  3  0
 13 14  2  0
 13 24  1  0
 14 15  1  0
 15 16  1  0
 15 21  1  0
 16 17  2  0
 17 18  1  0
 18 19  1  0
 18 21  2  0
 19 20  3  0
 21 22  1  0
 22 23  2  0
 22 24  1  0
 24 25  1  0
 25 26  2  0
 25 30  1  0
 26 27  1  0
 27 28  2  0
 28 29  1  0
 29 30  2  0
M  END
>  <DRUGBANK_ID>  (1) 
DB17816

>  <COMMON_NAME>  (1) 
LAS-191954

>  <CAS_NUMBER>  (1) 
1403947-26-1

>  <UNII>  (1) 
1MK0TQ597B

>  <SYNONYMS>  (1) 
2-((1s)-1-((6-amino-5-cyano-4-pyrimidinyl)amino)ethyl)-3,4-dihydro-4-oxo-3-phenylpyrrolo(2,1-f)(1,2,4)triazine-5-carbonitrile; Pyrrolo(2,1-f)(1,2,4)triazine-5-carbonitrile, 2-((1s)-1-((6-amino-5-cyano-4-pyrimidinyl)amino)ethyl)-3,4-dihydro-4-oxo-3-phenyl-

$$$$
