
     RDKit          2D

 17 17  0  0  0  0  0  0  0  0999 V2000
   -3.5797    0.0033    0.0000 C   0  0  0  0  0  0  0  0  0  0  0  0
   -3.5797   -0.8217    0.0000 C   0  0  0  0  0  0  0  0  0  0  0  0
   -2.8653   -1.2342    0.0000 C   0  0  0  0  0  0  0  0  0  0  0  0
   -2.1508   -0.8217    0.0000 C   0  0  0  0  0  0  0  0  0  0  0  0
   -2.1508    0.0033    0.0000 C   0  0  0  0  0  0  0  0  0  0  0  0
   -2.8653    0.4158    0.0000 C   0  0  0  0  0  0  0  0  0  0  0  0
   -1.4215    0.4158    0.0000 N   0  0  0  0  0  0  0  0  0  0  0  0
   -0.7070    0.0033    0.0000 C   0  0  0  0  0  0  0  0  0  0  0  0
    0.0073    0.4158    0.0000 C   0  0  0  0  0  0  0  0  0  0  0  0
    0.7218    0.0033    0.0000 N   0  0  0  0  0  0  0  0  0  0  0  0
    1.4363    0.4158    0.0000 C   0  0  0  0  0  0  0  0  0  0  0  0
    2.1508    0.0033    0.0000 C   0  0  0  0  0  0  0  0  0  0  0  0
    2.8652    0.4158    0.0000 C   0  0  0  0  0  0  0  0  0  0  0  0
    3.5797    0.0033    0.0000 C   0  0  0  0  0  0  0  0  0  0  0  0
   -2.8653    1.2406    0.0000 C   0  0  0  0  0  0  0  0  0  0  0  0
   -1.4253   -1.2406    0.0000 Cl  0  0  0  0  0  0  0  0  0  0  0  0
   -0.7070   -0.8215    0.0000 O   0  0  0  0  0  0  0  0  0  0  0  0
  1  2  2  0
  1  6  1  0
  2  3  1  0
  3  4  2  0
  4  5  1  0
  4 16  1  0
  5  6  2  0
  5  7  1  0
  6 15  1  0
  7  8  1  0
  8  9  1  0
  8 17  2  0
  9 10  1  0
 10 11  1  0
 11 12  1  0
 12 13  1  0
 13 14  1  0
M  END
>  <DRUGBANK_ID>  (1) 
DB13328

>  <COMMON_NAME>  (1) 
Butanilicaine

>  <CAS_NUMBER>  (1) 
3785-21-5

>  <UNII>  (1) 
7X3WV51F4N

>  <SYNONYMS>  (1) 
2-(Butylamino)-6'-chloro-o-acetoluidide; 2-(Butylamino)-N-(2-chloro-6-methylphenyl)acetamide; 2-Butylamino-6'-chloro-o-acetotoluidide; Butacetoluide; Butanilicaina; Butanilicaine; Butanilicainum

$$$$
