
     RDKit          2D

 35 41  0  0  1  0  0  0  0  0999 V2000
    1.4155   -3.0352    0.0000 C   0  0  0  0  0  0  0  0  0  0  0  0
    0.8638   -2.4218    0.0000 N   0  0  0  0  0  0  0  0  0  0  0  0
    1.1191   -1.6373    0.0000 C   0  0  0  0  0  0  0  0  0  0  0  0
    0.5601   -1.0371    0.0000 C   0  0  0  0  0  0  0  0  0  0  0  0
    0.8730   -0.2960    0.0000 C   0  0  0  0  0  0  0  0  0  0  0  0
    1.8469   -0.1489    0.0000 C   0  0  0  0  0  0  0  0  0  0  0  0
    2.4371    0.6365    0.0000 C   0  0  0  0  0  0  0  0  0  0  0  0
    3.2556    0.6259    0.0000 C   0  0  0  0  0  0  0  0  0  0  0  0
    3.5543   -0.1229    0.0000 C   0  0  0  0  0  0  0  0  0  0  0  0
    4.3790   -0.2088    0.0000 C   0  0  0  0  0  0  0  0  0  0  0  0
    4.6907   -0.9743    0.0000 C   0  0  0  0  0  0  0  0  0  0  0  0
    4.1707   -1.6304    0.0000 C   0  0  0  0  0  0  0  0  0  0  0  0
    3.3221   -1.5363    0.0000 C   0  0  0  0  0  0  0  0  0  0  0  0
    3.0315   -0.7687    0.0000 C   0  0  0  0  0  0  0  0  0  0  0  0
    2.1595   -0.6451    0.0000 C   0  0  0  0  0  0  0  0  0  0  0  0
    1.9449   -1.4771    0.0000 C   0  0  0  0  0  0  0  0  0  0  0  0
    2.6104   -1.9798    0.0000 O   0  0  0  0  0  0  0  0  0  0  0  0
    1.3144   -0.0464    0.0000 C   0  0  0  0  0  0  0  0  0  0  0  0
    1.1721    0.8410    0.0000 C   0  0  0  0  0  0  0  0  0  0  0  0
    1.8935    1.2248    0.0000 N   0  0  0  0  0  0  0  0  0  0  0  0
    2.0313    2.0382    0.0000 C   0  0  0  0  0  0  0  0  0  0  0  0
    1.3959    2.5643    0.0000 C   0  0  0  0  0  0  0  0  0  0  0  0
    0.5825    2.7022    0.0000 C   0  0  0  0  0  0  0  0  0  0  0  0
    1.1086    3.3377    0.0000 C   0  0  0  0  0  0  0  0  0  0  0  0
    4.4882   -2.3919    0.0000 O   0  0  0  0  0  0  0  0  0  0  0  0
    1.4240    0.5595    0.0000 O   0  0  0  0  0  0  0  0  0  0  0  0
    0.0567   -2.5930    0.0000 C   0  0  0  0  0  0  0  0  0  0  0  0
   -0.1986   -3.3775    0.0000 O   0  0  0  0  0  0  0  0  0  0  0  0
   -0.4950   -1.9796    0.0000 C   0  0  0  0  0  0  0  0  0  0  0  0
   -1.3021   -2.1507    0.0000 C   0  0  0  0  0  0  0  0  0  0  0  0
   -1.8538   -1.5374    0.0000 C   0  0  0  0  0  0  0  0  0  0  0  0
   -2.6743   -1.6232    0.0000 C   0  0  0  0  0  0  0  0  0  0  0  0
   -3.0095   -0.8693    0.0000 C   0  0  0  0  0  0  0  0  0  0  0  0
   -2.3962   -0.3176    0.0000 O   0  0  0  0  0  0  0  0  0  0  0  0
   -1.6819   -0.7305    0.0000 C   0  0  0  0  0  0  0  0  0  0  0  0
  1  2  1  0
  2 27  1  0
  3  2  1  6
  3  4  1  0
  3 16  1  0
  4  5  1  0
  5  6  1  0
  6  7  1  0
  6 15  1  0
  6 26  1  6
  7  8  1  6
  7 20  1  0
  8  9  1  0
  9 10  2  0
  9 14  1  0
 10 11  1  0
 11 12  2  0
 12 13  1  0
 12 25  1  0
 13 14  2  0
 13 17  1  0
 15 14  1  0
 15 16  1  0
 15 18  1  6
 16 17  1  1
 18 19  1  0
 19 20  1  0
 20 21  1  0
 21 22  1  0
 22 23  1  0
 22 24  1  0
 23 24  1  0
 27 28  2  0
 27 29  1  0
 29 30  2  0
 30 31  1  0
 31 32  1  0
 31 35  2  0
 32 33  2  0
 33 34  1  0
 34 35  1  0
M  END
>  <DRUGBANK_ID>  (1) 
DB13471

>  <COMMON_NAME>  (1) 
Nalfurafine

>  <CAS_NUMBER>  (1) 
152657-84-6

>  <UNII>  (1) 
XC41AVD567

>  <SYNONYMS>  (1) 
Nalfurafine

$$$$
