
     RDKit          2D

 41 40  0  0  0  0  0  0  0  0999 V2000
    3.8783    2.2197    0.0000 N   0  0  0  0  0  0  0  0  0  0  0  0
    4.6062    1.8314    0.0000 C   0  0  0  0  0  0  0  0  0  0  0  0
    4.6062    1.0064    0.0000 C   0  0  0  0  0  0  0  0  0  0  0  0
    5.3342    0.6183    0.0000 C   0  0  0  0  0  0  0  0  0  0  0  0
    5.3343   -0.2068    0.0000 C   0  0  0  0  0  0  0  0  0  0  0  0
    6.0621   -0.5948    0.0000 C   0  0  0  0  0  0  0  0  0  0  0  0
    6.0621   -1.4198    0.0000 C   0  0  0  0  0  0  0  0  0  0  0  0
    6.7901   -1.8081    0.0000 C   0  0  0  0  0  0  0  0  0  0  0  0
    5.2938    2.2439    0.0000 O   0  0  0  0  0  0  0  0  0  0  0  0
    6.8181   -2.6327    0.0000 C   0  0  0  0  0  0  0  0  0  0  0  0
    6.1178   -3.0690    0.0000 C   0  0  0  0  0  0  0  0  0  0  0  0
    3.9043   -0.2555    0.0000 C   0  0  0  0  0  0  0  0  0  0  0  0
    4.6323   -0.6437    0.0000 C   0  0  0  0  0  0  0  0  0  0  0  0
    4.6324   -1.4687    0.0000 C   0  0  0  0  0  0  0  0  0  0  0  0
    5.3603   -1.8570    0.0000 C   0  0  0  0  0  0  0  0  0  0  0  0
    5.3830   -2.6939    0.0000 C   0  0  0  0  0  0  0  0  0  0  0  0
    7.5531   -3.8577    0.0000 C   0  0  0  0  0  0  0  0  0  0  0  0
    6.8456   -4.2822    0.0000 C   0  0  0  0  0  0  0  0  0  0  0  0
    7.5392   -3.0328    0.0000 C   0  0  0  0  0  0  0  0  0  0  0  0
    6.1243   -3.8817    0.0000 C   0  0  0  0  0  0  0  0  0  0  0  0
   -0.4084    3.0450    0.0000 C   0  0  0  0  0  0  0  0  0  0  0  0
   -1.1229    3.4574    0.0000 C   0  0  0  0  0  0  0  0  0  0  0  0
   -1.8373    3.0450    0.0000 C   0  0  0  0  0  0  0  0  0  0  0  0
    1.0205    3.0450    0.0000 C   0  0  0  0  0  0  0  0  0  0  0  0
    0.3060    3.4574    0.0000 C   0  0  0  0  0  0  0  0  0  0  0  0
    2.4495    3.0450    0.0000 C   0  0  0  0  0  0  0  0  0  0  0  0
    1.7349    3.4574    0.0000 C   0  0  0  0  0  0  0  0  0  0  0  0
    3.1638    3.4574    0.0000 C   0  0  0  0  0  0  0  0  0  0  0  0
    3.8783    3.0450    0.0000 C   0  0  0  0  0  0  0  0  0  0  0  0
    4.5929    3.4574    0.0000 C   0  0  0  0  0  0  0  0  0  0  0  0
    3.1638    4.2822    0.0000 O   0  0  0  0  0  0  0  0  0  0  0  0
    5.3072    3.0447    0.0000 O   0  0  0  0  0  0  0  0  0  0  0  0
   -2.5519    3.4574    0.0000 C   0  0  0  0  0  0  0  0  0  0  0  0
   -3.2662    3.0448    0.0000 C   0  0  0  0  0  0  0  0  0  0  0  0
   -3.9808    3.4572    0.0000 C   0  0  0  0  0  0  0  0  0  0  0  0
   -4.6952    3.0448    0.0000 C   0  0  0  0  0  0  0  0  0  0  0  0
   -5.4097    3.4572    0.0000 C   0  0  0  0  0  0  0  0  0  0  0  0
   -6.1241    3.0447    0.0000 C   0  0  0  0  0  0  0  0  0  0  0  0
   -6.8387    3.4572    0.0000 C   0  0  0  0  0  0  0  0  0  0  0  0
   -7.5531    3.0447    0.0000 C   0  0  0  0  0  0  0  0  0  0  0  0
    2.4495    2.2200    0.0000 O   0  0  0  0  0  0  0  0  0  0  0  0
  1  2  1  0
  3  2  1  0
  4  3  1  0
  4  5  1  0
  6  5  1  0
  6  7  1  0
  8  7  1  0
  8 10  1  0
  9  2  2  0
 10 19  1  0
 11 20  1  0
 12 13  1  0
 13 14  1  0
 14 15  1  0
 15 16  1  0
 16 11  1  0
 18 17  1  0
 19 17  2  0
 20 18  1  0
 21 25  1  0
 22 21  1  0
 23 22  1  0
 23 33  1  0
 24 27  1  0
 25 24  1  0
 26 41  1  6
 27 26  1  0
 28 26  1  0
 28 31  1  1
 28 29  1  0
 29  1  1  0
 29 30  1  6
 30 32  1  0
 33 34  1  0
 34 35  1  0
 35 36  1  0
 36 37  1  0
 37 38  1  0
 38 39  1  0
 39 40  1  0
M  END
>  <DRUGBANK_ID>  (1) 
DB14111

>  <SECONDARY_ACCESSION_NUMBERS>  (1) 
DB11258

>  <COMMON_NAME>  (1) 
Ceramide NP

>  <CAS_NUMBER>  (1) 
100403-19-8

>  <UNII>  (1) 
4370DF050B

>  <SYNONYMS>  (1) 
Cer(t18:0/18:1n-9); Ceramide 3; Ceramide III; Ceramide IIIb; Cytomide IIIa; Cytomide IIIb; N-(9Z-octadecenoyl)-4-hydroxysphinganine; N-(9Z-octadecenoyl)phytosphingosine; N-octadecanoylphytosphingosine; N-oleoylphytosphingosine; N-oloeoyl-4-hydroxysphinganine

$$$$
