
     RDKit          2D

 12 12  0  0  0  0  0  0  0  0999 V2000
   -0.3572   -2.7307    0.0000 Cl  0  0  0  0  0  0  0  0  0  0  0  0
    1.0717    2.2192    0.0000 O   0  0  0  0  0  0  0  0  0  0  0  0
   -0.3572    0.5692    0.0000 N   0  0  0  0  0  0  0  0  0  0  0  0
    0.3571    1.8067    0.0000 N   0  0  0  0  0  0  0  0  0  0  0  0
    1.0717    0.5692    0.0000 N   0  0  0  0  0  0  0  0  0  0  0  0
   -0.3572   -0.2557    0.0000 C   0  0  0  0  0  0  0  0  0  0  0  0
    0.3571   -0.6682    0.0000 C   0  0  0  0  0  0  0  0  0  0  0  0
   -1.0717   -0.6682    0.0000 C   0  0  0  0  0  0  0  0  0  0  0  0
    0.3571   -1.4932    0.0000 C   0  0  0  0  0  0  0  0  0  0  0  0
   -1.0717   -1.4932    0.0000 C   0  0  0  0  0  0  0  0  0  0  0  0
   -0.3572   -1.9057    0.0000 C   0  0  0  0  0  0  0  0  0  0  0  0
    0.3571    0.9817    0.0000 C   0  0  0  0  0  0  0  0  0  0  0  0
  1 11  1  0
  2  4  1  0
  3  6  1  0
  3 12  2  0
  4 12  1  0
  5 12  1  0
  6  7  2  0
  6  8  1  0
  7  9  1  0
  8 10  2  0
  9 11  2  0
 10 11  1  0
M  END
>  <DRUGBANK_ID>  (1) 
DB04559

>  <SECONDARY_ACCESSION_NUMBERS>  (1) 
EXPT02578

>  <COMMON_NAME>  (1) 
N-(Chlorophenyl)-N'-hydroxyguanidine

>  <CAS_NUMBER>  (1) 
130974-86-6

$$$$
