
     RDKit          2D

  2  1  0  0  0  0  0  0  0  0999 V2000
   -1.4702    1.7659    0.0000 O   0  0  0  0  0  0  0  0  0  0  0  0
   -0.8789    1.1905    0.0000 O   0  0  0  0  0  0  0  0  0  0  0  0
  1  2  1  0
M  END
>  <DRUGBANK_ID>  (1) 
DB11091

>  <COMMON_NAME>  (1) 
Hydrogen peroxide

>  <CAS_NUMBER>  (1) 
7722-84-1

>  <UNII>  (1) 
BBX060AN9V

>  <SYNONYMS>  (1) 
Hydrogen peroxide

$$$$
