
     RDKit          2D

 23 25  0  0  0  0  0  0  0  0999 V2000
   -0.9160   -1.9250    0.0000 C   0  0  0  0  0  0  0  0  0  0  0  0
    3.0045    0.6793    0.0000 C   0  0  0  0  0  0  0  0  0  0  0  0
    0.3060    1.0918    0.0000 C   0  0  0  0  0  0  0  0  0  0  0  0
   -0.2485   -1.4401    0.0000 C   0  0  0  0  0  0  0  0  0  0  0  0
    1.5756    1.5043    0.0000 C   0  0  0  0  0  0  0  0  0  0  0  0
    0.5360   -1.6950    0.0000 C   0  0  0  0  0  0  0  0  0  0  0  0
    1.0209   -1.0276    0.0000 C   0  0  0  0  0  0  0  0  0  0  0  0
    2.2900    1.9168    0.0000 C   0  0  0  0  0  0  0  0  0  0  0  0
    1.5756    0.6793    0.0000 C   0  0  0  0  0  0  0  0  0  0  0  0
    0.5360   -0.3601    0.0000 C   0  0  0  0  0  0  0  0  0  0  0  0
    2.2900    2.7418    0.0000 N   0  0  0  0  0  0  0  0  0  0  0  0
    3.0045    1.5043    0.0000 N   0  0  0  0  0  0  0  0  0  0  0  0
    2.2900    0.2668    0.0000 N   0  0  0  0  0  0  0  0  0  0  0  0
    0.7909    1.7593    0.0000 N   0  0  0  0  0  0  0  0  0  0  0  0
    0.7909    0.4244    0.0000 N   0  0  0  0  0  0  0  0  0  0  0  0
    0.7909   -2.4796    0.0000 O   0  0  0  0  0  0  0  0  0  0  0  0
    1.8459   -1.0276    0.0000 O   0  0  0  0  0  0  0  0  0  0  0  0
   -3.0045   -2.5593    0.0000 O   0  0  0  0  0  0  0  0  0  0  0  0
   -1.6696   -1.5895    0.0000 O   0  0  0  0  0  0  0  0  0  0  0  0
   -0.2485   -0.6151    0.0000 O   0  0  0  0  0  0  0  0  0  0  0  0
   -2.3371   -2.0744    0.0000 P   0  0  0  0  0  0  0  0  0  0  0  0
   -2.8220   -1.4069    0.0000 S   0  0  0  0  0  0  0  0  0  0  0  0
   -1.8521   -2.7418    0.0000 S   0  0  0  0  0  0  0  0  0  0  0  0
  4  1  1  1
  4 20  1  0
  6  4  1  0
  6  7  1  0
  6 16  1  6
  8  5  2  0
  9  5  1  0
 10  7  1  0
 10 15  1  1
 10 20  1  0
 11  8  1  0
 12  2  2  0
 12  8  1  0
 13  2  1  0
 13  9  2  0
 14  3  2  0
 14  5  1  0
 15  3  1  0
 15  9  1  0
 17  7  1  0
 19  1  1  0
 21 18  1  0
 21 19  1  0
 22 21  1  0
 23 21  2  0
M  END
>  <DRUGBANK_ID>  (1) 
DB03011

>  <SECONDARY_ACCESSION_NUMBERS>  (1) 
EXPT00438

>  <COMMON_NAME>  (1) 
Adenosine-5'-(Dithio)Phosphate

>  <UNII>  (1) 
9WPM6R7Z7Q

$$$$
