
     RDKit          2D

 12 11  0  0  0  0  0  0  0  0999 V2000
    0.8250    1.4289    0.0000 O   0  0  0  0  0  0  0  0  0  0  0  0
    1.2375    0.7145    0.0000 C   0  0  0  0  0  0  0  0  0  0  0  0
    2.0625    0.7145    0.0000 O   0  0  0  0  0  0  0  0  0  0  0  0
    0.8250    0.0000    0.0000 C   0  0  0  0  0  0  0  0  0  0  0  0
    1.2375   -0.7145    0.0000 C   0  0  0  0  0  0  0  0  0  0  0  0
    2.0625   -0.7145    0.0000 P   0  0  0  0  0  0  0  0  0  0  0  0
    2.8875   -0.7145    0.0000 O   0  0  0  0  0  0  0  0  0  0  0  0
    2.0625   -1.5395    0.0000 O   0  0  0  0  0  0  0  0  0  0  0  0
    2.0625    0.1105    0.0000 O   0  0  0  0  0  0  0  0  0  0  0  0
    0.0000    0.0000    0.0000 C   0  0  0  0  0  0  0  0  0  0  0  0
   -0.4125    0.7145    0.0000 Cl  0  0  0  0  0  0  0  0  0  0  0  0
   -0.4125   -0.7145    0.0000 Cl  0  0  0  0  0  0  0  0  0  0  0  0
  1  2  1  0
  2  3  2  0
  2  4  1  0
  4  5  1  0
  4 10  2  3
  5  6  1  0
  6  7  1  0
  6  8  1  0
  6  9  2  0
 10 11  1  0
 10 12  1  0
M  END
>  <DRUGBANK_ID>  (1) 
DB04317

>  <SECONDARY_ACCESSION_NUMBERS>  (1) 
EXPT01136

>  <COMMON_NAME>  (1) 
3,3-Dichloro-2-Phosphonomethyl-Acrylic Acid

$$$$
