
     RDKit          2D

 32 35  0  0  0  0  0  0  0  0999 V2000
    0.3811    0.1616    0.0000 C   0  0  0  0  0  0  0  0  0  0  0  0
    1.1627    0.4173    0.0000 C   0  0  0  0  0  0  0  0  0  0  0  0
   -1.7611   -1.0735    0.0000 C   0  0  0  0  0  0  0  0  0  0  0  0
   -0.3281   -1.0735    0.0000 C   0  0  0  0  0  0  0  0  0  0  0  0
    0.3811   -0.6634    0.0000 C   0  0  0  0  0  0  0  0  0  0  0  0
   -1.0470   -0.6634    0.0000 C   0  0  0  0  0  0  0  0  0  0  0  0
   -1.7611   -1.8986    0.0000 C   0  0  0  0  0  0  0  0  0  0  0  0
    1.9493    0.6344    0.0000 O   0  0  0  0  0  0  0  0  0  0  0  0
   -0.3281    0.5765    0.0000 C   0  0  0  0  0  0  0  0  0  0  0  0
   -1.0470    0.1616    0.0000 C   0  0  0  0  0  0  0  0  0  0  0  0
   -2.4704   -0.6634    0.0000 C   0  0  0  0  0  0  0  0  0  0  0  0
    2.5282    0.0554    0.0000 C   0  0  0  0  0  0  0  0  0  0  0  0
    1.4233    1.1989    0.0000 C   0  0  0  0  0  0  0  0  0  0  0  0
   -2.4704   -2.3135    0.0000 C   0  0  0  0  0  0  0  0  0  0  0  0
    1.6453   -0.2484    0.0000 C   0  0  0  0  0  0  0  0  0  0  0  0
    1.1627   -0.9143    0.0000 C   0  0  0  0  0  0  0  0  0  0  0  0
   -0.3281   -1.8986    0.0000 C   0  0  0  0  0  0  0  0  0  0  0  0
   -3.1892   -1.0735    0.0000 C   0  0  0  0  0  0  0  0  0  0  0  0
    3.3244    0.2630    0.0000 C   0  0  0  0  0  0  0  0  0  0  0  0
   -3.1892   -1.8986    0.0000 C   0  0  0  0  0  0  0  0  0  0  0  0
   -1.0470   -2.3135    0.0000 C   0  0  0  0  0  0  0  0  0  0  0  0
    2.3208   -0.7406    0.0000 O   0  0  0  0  0  0  0  0  0  0  0  0
    0.8781    1.8214    0.0000 O   0  0  0  0  0  0  0  0  0  0  0  0
   -3.9034   -2.3135    0.0000 O   0  0  0  0  0  0  0  0  0  0  0  0
    0.3811    0.9867    0.0000 C   0  0  0  0  0  0  0  0  0  0  0  0
   -1.7563    0.5765    0.0000 O   0  0  0  0  0  0  0  0  0  0  0  0
    3.5367    1.0591    0.0000 Cl  0  0  0  0  0  0  0  0  0  0  0  0
    3.9034   -0.3160    0.0000 Cl  0  0  0  0  0  0  0  0  0  0  0  0
    2.2243    1.3727    0.0000 O   0  0  0  0  0  0  0  0  0  0  0  0
   -1.7707   -0.2484    0.0000 C   0  0  0  0  0  0  0  0  0  0  0  0
    2.4849    2.1446    0.0000 C   0  0  0  0  0  0  0  0  0  0  0  0
    3.2810    2.3135    0.0000 C   0  0  0  0  0  0  0  0  0  0  0  0
  1 25  1  1
  2  1  1  0
  2  8  1  6
  2 13  1  0
  3  6  1  0
  3 30  1  1
  4  5  1  0
  5  1  1  0
  6 10  1  1
  6  4  1  0
  7  3  1  0
  9  1  1  0
 10  9  1  0
 10 26  1  1
 11  3  1  0
 12  8  1  0
 14  7  2  0
 15  2  1  0
 15 16  1  0
  5 16  1  1
  4 17  1  6
 18 11  2  0
 19 12  1  0
 20 18  1  0
 20 14  1  0
 21 17  1  0
 21  7  1  0
 22 12  2  0
 23 13  2  0
 24 20  2  0
 27 19  1  0
 28 19  1  0
 29 13  1  0
 31 29  1  0
 32 31  1  0
M  END
>  <DRUGBANK_ID>  (1) 
DB05442

>  <COMMON_NAME>  (1) 
Etiprednol dicloacetate

>  <CAS_NUMBER>  (1) 
199331-40-3

>  <UNII>  (1) 
332VLD554F

>  <SYNONYMS>  (1) 
Etiprednol dicloacetate

$$$$
