
     RDKit          2D

 15 14  0  0  0  0  0  0  0  0999 V2000
    0.0000   -1.1774    0.0000 C   0  0  0  0  0  0  0  0  0  0  0  0
    0.7181   -0.7683    0.0000 N   0  0  0  0  0  0  0  0  0  0  0  0
    1.4280    1.1732    0.0000 C   0  0  0  0  0  0  0  0  0  0  0  0
    0.7140    0.7599    0.0000 C   0  0  0  0  0  0  0  0  0  0  0  0
   -1.4280    1.1607    0.0000 C   0  0  0  0  0  0  0  0  0  0  0  0
   -0.0125   -1.9999    0.0000 O   0  0  0  0  0  0  0  0  0  0  0  0
    1.4280    1.9999    0.0000 O   0  0  0  0  0  0  0  0  0  0  0  0
   -1.4280    1.9874    0.0000 O   0  0  0  0  0  0  0  0  0  0  0  0
   -0.7140   -0.7558    0.0000 C   0  0  0  0  0  0  0  0  0  0  0  0
    0.0000    1.1649    0.0000 C   0  0  0  0  0  0  0  0  0  0  0  0
   -0.7140    0.7516    0.0000 C   0  0  0  0  0  0  0  0  0  0  0  0
   -2.1420    0.7473    0.0000 N   0  0  0  0  0  0  0  0  0  0  0  0
    2.1420    0.7599    0.0000 O   0  0  0  0  0  0  0  0  0  0  0  0
   -0.7057    0.0709    0.0000 N   0  0  0  0  0  0  0  0  0  0  0  0
   -1.4322   -1.1649    0.0000 C   0  0  0  0  0  0  0  0  0  0  0  0
  2  1  1  0
  3  4  1  0
  4  2  1  0
  5 11  1  0
  6  1  2  0
  7  3  2  0
  8  5  2  0
  9  1  1  0
  9 14  1  0
  4 10  1  1
 11 10  1  0
 12  5  1  0
 13  3  1  0
  9 15  1  6
M  END
>  <DRUGBANK_ID>  (1) 
DB11876

>  <COMMON_NAME>  (1) 
Alanyl glutamine

>  <CAS_NUMBER>  (1) 
39537-23-0

>  <UNII>  (1) 
U5JDO2770Z

>  <SYNONYMS>  (1) 
Alanyl glutamine; Alanyl-glutamine dipeptide; Alanylglutamine; L-Alanyl-L-glutamine; N(2)-L-Alanyl-L-glutamine

$$$$
