
     RDKit          2D

 11 11  0  0  1  0  0  0  0  0999 V2000
   -0.0000    3.3000    0.0000 C   0  0  0  0  0  0  0  0  0  0  0  0
    1.4289   -0.0000    0.0000 C   0  0  0  0  0  0  0  0  0  0  0  0
    1.4289    0.8250    0.0000 C   0  0  0  0  0  0  0  0  0  0  0  0
    0.7145   -0.4125    0.0000 C   0  0  0  0  0  0  0  0  0  0  0  0
    0.7145    2.0625    0.0000 C   0  0  0  0  0  0  0  0  0  0  0  0
    0.0000    0.8250    0.0000 C   0  0  0  0  0  0  0  0  0  0  0  0
   -0.0000    2.4750    0.0000 C   0  0  0  0  0  0  0  0  0  0  0  0
    0.7145    1.2375    0.0000 C   0  0  0  0  0  0  0  0  0  0  0  0
    0.0000   -0.0000    0.0000 C   0  0  0  0  0  0  0  0  0  0  0  0
   -0.7145    2.0625    0.0000 N   0  0  0  0  0  0  0  0  0  0  0  0
   -0.7145   -0.4125    0.0000 O   0  0  0  0  0  0  0  0  0  0  0  0
  3  2  2  0
  4  2  1  0
  7  1  1  1
  7  5  1  0
  7 10  1  0
  8  3  1  0
  8  5  1  0
  8  6  2  0
  9  4  2  0
  9  6  1  0
 11  9  1  0
M  END
>  <DRUGBANK_ID>  (1) 
DB13703

>  <COMMON_NAME>  (1) 
Gepefrine

>  <CAS_NUMBER>  (1) 
18840-47-6

>  <UNII>  (1) 
V51RRX51VH

>  <SYNONYMS>  (1) 
Gepefrine

$$$$
