388
     RDKit          2D

 24 25  0  0  0  0  0  0  0  0999 V2000
    2.8586   -1.6997    0.0000 C   0  0  0  0  0  0  0  0  0  0  0  0
    2.1441   -1.2872    0.0000 N   0  0  0  0  0  0  0  0  0  0  0  0
    2.1441   -0.4622    0.0000 C   0  0  0  0  0  0  0  0  0  0  0  0
    2.8586   -0.0497    0.0000 O   0  0  0  0  0  0  0  0  0  0  0  0
    2.8586   -2.5247    0.0000 C   0  0  0  0  0  0  0  0  0  0  0  0
    3.5731   -2.9372    0.0000 C   0  0  0  0  0  0  0  0  0  0  0  0
    4.2876   -2.5247    0.0000 F   0  0  0  0  0  0  0  0  0  0  0  0
    3.5731   -3.7622    0.0000 C   0  0  0  0  0  0  0  0  0  0  0  0
    2.8586   -4.1747    0.0000 C   0  0  0  0  0  0  0  0  0  0  0  0
    2.8586   -4.9997    0.0000 Br  0  0  0  0  0  0  0  0  0  0  0  0
    2.1441   -3.7622    0.0000 C   0  0  0  0  0  0  0  0  0  0  0  0
    2.1441   -2.9372    0.0000 C   0  0  0  0  0  0  0  0  0  0  0  0
    1.4297   -0.0497    0.0000 C   0  0  0  0  0  0  0  0  0  0  0  0
    0.7152   -0.4622    0.0000 C   0  0  0  0  0  0  0  0  0  0  0  0
    0.0007   -0.0497    0.0000 C   0  0  0  0  0  0  0  0  0  0  0  0
    0.0007    0.7753    0.0000 C   0  0  0  0  0  0  0  0  0  0  0  0
   -0.7137    1.1878    0.0000 Cl  0  0  0  0  0  0  0  0  0  0  0  0
    0.7152    1.1878    0.0000 C   0  0  0  0  0  0  0  0  0  0  0  0
    1.4297    0.7753    0.0000 C   0  0  0  0  0  0  0  0  0  0  0  0
    2.1441    1.1878    0.0000 O   0  0  0  0  0  0  0  0  0  0  0  0
    2.1441    2.0128    0.0000 C   0  0  0  0  0  0  0  0  0  0  0  0
    2.8586    2.4253    0.0000 C   0  0  0  0  0  0  0  0  0  0  0  0
    2.8586    3.2503    0.0000 O   0  0  0  0  0  0  0  0  0  0  0  0
    3.5731    2.0128    0.0000 O   0  0  0  0  0  0  0  0  0  0  0  0
  1  5  1  0
  1  2  1  0
  2  3  1  0
  3  4  2  0
  3 13  1  0
  5  6  2  0
  5 12  1  0
  6  8  1  0
  6  7  1  0
  8  9  2  0
  9 10  1  0
  9 11  1  0
 11 12  2  0
 13 14  2  0
 13 19  1  0
 14 15  1  0
 15 16  2  0
 16 18  1  0
 16 17  1  0
 18 19  2  0
 19 20  1  0
 20 21  1  0
 21 22  1  0
 22 23  2  0
 22 24  1  0
M  END
>  <DRUGBANK_ID>  (1) 
DB07028

>  <COMMON_NAME>  (1) 
(2-{[(4-BROMO-2-FLUOROBENZYL)AMINO]CARBONYL}-5-CHLOROPHENOXY)ACETIC ACID

$$$$
