
     RDKit          2D

 12 11  0  0  0  0  0  0  0  0999 V2000
   -1.4289    1.0312    0.0000 N   0  0  0  0  0  0  0  0  0  0  0  0
   -1.4289    0.2062    0.0000 C   0  0  0  0  0  0  0  0  0  0  0  0
   -2.1434   -0.2062    0.0000 C   0  0  0  0  0  0  0  0  0  0  0  0
   -2.8578    0.2062    0.0000 O   0  0  0  0  0  0  0  0  0  0  0  0
   -0.7144   -0.2062    0.0000 C   0  0  0  0  0  0  0  0  0  0  0  0
    0.0000    0.2062    0.0000 C   0  0  0  0  0  0  0  0  0  0  0  0
    0.7144   -0.2062    0.0000 N   0  0  0  0  0  0  0  0  0  0  0  0
    1.4289    0.2062    0.0000 C   0  0  0  0  0  0  0  0  0  0  0  0
    2.1434   -0.2062    0.0000 N   0  0  0  0  0  0  0  0  0  0  0  0
    1.4289    1.0312    0.0000 N   0  0  0  0  0  0  0  0  0  0  0  0
    2.8578    0.2062    0.0000 O   0  0  0  0  0  0  0  0  0  0  0  0
   -2.1434   -1.0312    0.0000 O   0  0  0  0  0  0  0  0  0  0  0  0
  2  1  1  1
  2  5  1  0
  3  2  1  0
  3  4  2  0
  3 12  1  0
  5  6  1  0
  6  7  1  0
  8  7  1  0
  8  9  1  0
  8 10  2  0
  9 11  1  0
M  END
>  <DRUGBANK_ID>  (1) 
DB02381

>  <SECONDARY_ACCESSION_NUMBERS>  (1) 
EXPT02371; DB12913

>  <COMMON_NAME>  (1) 
nor-NOHA

>  <CAS_NUMBER>  (1) 
189302-40-7

>  <UNII>  (1) 
U0F1149OFR

>  <SYNONYMS>  (1) 
(2S)-2-amino-4-(((hydroxyamino)iminomethyl)amino)butanoic acid; N-hydroxy-nor-arginine; N-hydroxy-nor-L-arginine; Nomega-Hydroxy-nor-L-arginine

$$$$
