
     RDKit          2D

 39 45  0  0  1  0  0  0  0  0999 V2000
    3.4308   -1.5558    0.0000 F   0  0  0  0  0  0  0  0  0  0  0  0
    3.2590   -0.8387    0.0000 C   0  0  0  0  0  0  0  0  0  0  0  0
    2.6937   -0.8134    0.0000 C   0  0  0  0  0  0  0  0  0  0  0  0
    2.0215   -0.1243    0.0000 C   0  0  0  0  0  0  0  0  0  0  0  0
    2.6316    0.7144    0.0000 C   0  0  0  0  0  0  0  0  0  0  0  0
    3.4566    0.7144    0.0000 C   0  0  0  0  0  0  0  0  0  0  0  0
    3.8691   -0.0001    0.0000 C   0  0  0  0  0  0  0  0  0  0  0  0
    4.6895   -0.0868    0.0000 C   0  0  0  0  0  0  0  0  0  0  0  0
    5.1016   -0.8016    0.0000 N   0  0  0  0  0  0  0  0  0  0  0  0
    5.9087   -0.6305    0.0000 O   0  0  0  0  0  0  0  0  0  0  0  0
    5.9954    0.1899    0.0000 C   0  0  0  0  0  0  0  0  0  0  0  0
    6.6970    0.6878    0.0000 O   0  0  0  0  0  0  0  0  0  0  0  0
    5.2420    0.5259    0.0000 N   0  0  0  0  0  0  0  0  0  0  0  0
    1.3941   -0.0001    0.0000 N   0  0  0  0  0  0  0  0  0  0  0  0
    1.1624    0.9268    0.0000 C   0  0  0  0  0  0  0  0  0  0  0  0
    0.5174    0.4124    0.0000 C   0  0  0  0  0  0  0  0  0  0  0  0
    0.5174   -0.4126    0.0000 C   0  0  0  0  0  0  0  0  0  0  0  0
    1.1624   -0.9270    0.0000 C   0  0  0  0  0  0  0  0  0  0  0  0
    1.9667   -0.7434    0.0000 C   0  0  0  0  0  0  0  0  0  0  0  0
    2.3247   -0.0001    0.0000 C   0  0  0  0  0  0  0  0  0  0  0  0
    1.9667    0.7432    0.0000 C   0  0  0  0  0  0  0  0  0  0  0  0
    3.1603    0.2895    0.0000 O   0  0  0  0  0  0  0  0  0  0  0  0
    3.7620   -0.5884    0.0000 C   0  0  0  0  0  0  0  0  0  0  0  0
    3.8542   -1.5255    0.0000 C   0  0  0  0  0  0  0  0  0  0  0  0
    4.4038   -2.1408    0.0000 C   0  0  0  0  0  0  0  0  0  0  0  0
    3.9884   -2.8536    0.0000 O   0  0  0  0  0  0  0  0  0  0  0  0
    3.1821   -2.6789    0.0000 N   0  0  0  0  0  0  0  0  0  0  0  0
    3.0992   -1.8581    0.0000 C   0  0  0  0  0  0  0  0  0  0  0  0
    2.3863   -1.4428    0.0000 C   0  0  0  0  0  0  0  0  0  0  0  0
    1.6702   -1.8524    0.0000 C   0  0  0  0  0  0  0  0  0  0  0  0
    1.4493   -2.7204    0.0000 Cl  0  0  0  0  0  0  0  0  0  0  0  0
    0.9574   -1.4371    0.0000 C   0  0  0  0  0  0  0  0  0  0  0  0
    0.9607   -0.6121    0.0000 C   0  0  0  0  0  0  0  0  0  0  0  0
    1.6768   -0.2024    0.0000 C   0  0  0  0  0  0  0  0  0  0  0  0
    2.3896   -0.6178    0.0000 C   0  0  0  0  0  0  0  0  0  0  0  0
    3.2552   -0.1857    0.0000 Cl  0  0  0  0  0  0  0  0  0  0  0  0
    5.2246   -2.0578    0.0000 C   0  0  0  0  0  0  0  0  0  0  0  0
    5.8939   -1.5756    0.0000 C   0  0  0  0  0  0  0  0  0  0  0  0
    5.9769   -2.3964    0.0000 C   0  0  0  0  0  0  0  0  0  0  0  0
  1  2  1  0
  2  3  2  0
  2  7  1  0
  3  4  1  0
  4  5  2  0
  4 14  1  0
  5  6  1  0
  6  7  2  0
  7  8  1  0
  8  9  2  0
  8 13  1  0
  9 10  1  0
 10 11  1  0
 11 12  2  0
 11 13  1  0
 15 14  1  0
 15 16  1  1
 15 21  1  0
 16 17  1  0
 18 17  1  1
 18 14  1  0
 18 19  1  0
 20 19  1  0
 20 21  1  0
 20 22  1  1
 22 23  1  0
 23 24  1  0
 24 25  2  0
 24 28  1  0
 25 26  1  0
 25 37  1  0
 26 27  1  0
 27 28  2  0
 28 29  1  0
 29 30  2  0
 29 35  1  0
 30 31  1  0
 30 32  1  0
 32 33  2  0
 33 34  1  0
 34 35  2  0
 35 36  1  0
 37 38  1  0
 37 39  1  0
 38 39  1  0
M  END
>  <DRUGBANK_ID>  (1) 
DB18031

>  <COMMON_NAME>  (1) 
Linafexor

>  <CAS_NUMBER>  (1) 
2499656-04-9

>  <UNII>  (1) 
US5Q3KD5RD

>  <SYNONYMS>  (1) 
1,2,4-OXADIAZOL-5(2H)-ONE, 3-(4-(3-((5-CYCLOPROPYL-3-(2,6-DICHLOROPHENYL)-4-ISOXAZOLYL)METHOXY)-8-AZABICYCLO(3.2.1)OCT-8-YL)-2-FLUOROPHENYL)-; 3-(4-((3-endo)-3-((5-cyclopropyl-3-(2,6-dichlorophenyl)isoxazol-4- yl)methoxy)-8-azabicyclo[3.2.1]octan-8-yl)-2-fluorophenyl)-1,2,4-oxadiazol-5(4H)-one

$$$$
