
     RDKit          2D

 39 43  0  0  0  0  0  0  0  0999 V2000
    6.0589   -3.7449    0.0000 C   0  0  0  0  0  0  0  0  0  0  0  0
    6.7734   -3.3324    0.0000 C   0  0  0  0  0  0  0  0  0  0  0  0
    7.4879   -3.7449    0.0000 N   0  0  0  0  0  0  0  0  0  0  0  0
    7.4879   -4.5699    0.0000 C   0  0  0  0  0  0  0  0  0  0  0  0
    6.7734   -4.9824    0.0000 C   0  0  0  0  0  0  0  0  0  0  0  0
    8.2023   -3.3324    0.0000 C   0  0  0  0  0  0  0  0  0  0  0  0
    8.9168   -3.7449    0.0000 C   0  0  0  0  0  0  0  0  0  0  0  0
    9.6313   -3.3324    0.0000 N   0  0  0  0  0  0  0  0  0  0  0  0
   10.3458   -3.7449    0.0000 C   0  0  0  0  0  0  0  0  0  0  0  0
   10.3458   -4.5699    0.0000 O   0  0  0  0  0  0  0  0  0  0  0  0
   11.0602   -3.3324    0.0000 C   0  0  0  0  0  0  0  0  0  0  0  0
   11.1465   -2.5119    0.0000 C   0  0  0  0  0  0  0  0  0  0  0  0
   10.5334   -1.9599    0.0000 C   0  0  0  0  0  0  0  0  0  0  0  0
   11.9534   -2.3404    0.0000 N   0  0  0  0  0  0  0  0  0  0  0  0
   12.3659   -3.0548    0.0000 C   0  0  0  0  0  0  0  0  0  0  0  0
   13.1864   -3.1411    0.0000 C   0  0  0  0  0  0  0  0  0  0  0  0
   13.6713   -2.4736    0.0000 C   0  0  0  0  0  0  0  0  0  0  0  0
   13.4164   -1.6890    0.0000 C   0  0  0  0  0  0  0  0  0  0  0  0
   12.6318   -1.4341    0.0000 O   0  0  0  0  0  0  0  0  0  0  0  0
   14.0838   -1.2041    0.0000 N   0  0  0  0  0  0  0  0  0  0  0  0
   14.7513   -1.6890    0.0000 C   0  0  0  0  0  0  0  0  0  0  0  0
   15.5582   -1.5175    0.0000 C   0  0  0  0  0  0  0  0  0  0  0  0
   16.1103   -2.1306    0.0000 C   0  0  0  0  0  0  0  0  0  0  0  0
   15.8553   -2.9152    0.0000 C   0  0  0  0  0  0  0  0  0  0  0  0
   15.0484   -3.0867    0.0000 C   0  0  0  0  0  0  0  0  0  0  0  0
   14.4963   -2.4736    0.0000 C   0  0  0  0  0  0  0  0  0  0  0  0
   16.4074   -3.5283    0.0000 C   0  0  0  0  0  0  0  0  0  0  0  0
   17.2279   -3.4420    0.0000 C   0  0  0  0  0  0  0  0  0  0  0  0
   17.5634   -4.1957    0.0000 S   0  0  0  0  0  0  0  0  0  0  0  0
   16.9503   -4.7478    0.0000 C   0  0  0  0  0  0  0  0  0  0  0  0
   16.2358   -4.3353    0.0000 N   0  0  0  0  0  0  0  0  0  0  0  0
   17.0366   -5.5682    0.0000 C   0  0  0  0  0  0  0  0  0  0  0  0
   17.7902   -5.9038    0.0000 C   0  0  0  0  0  0  0  0  0  0  0  0
   17.8765   -6.7243    0.0000 C   0  0  0  0  0  0  0  0  0  0  0  0
   17.2090   -7.2092    0.0000 C   0  0  0  0  0  0  0  0  0  0  0  0
   16.4554   -6.8736    0.0000 C   0  0  0  0  0  0  0  0  0  0  0  0
   16.3691   -6.0532    0.0000 C   0  0  0  0  0  0  0  0  0  0  0  0
   11.8139   -3.6679    0.0000 C   0  0  0  0  0  0  0  0  0  0  0  0
   11.9854   -4.4749    0.0000 C   0  0  0  0  0  0  0  0  0  0  0  0
  1  2  1  0
  2  3  1  0
  3  4  1  0
  3  6  1  0
  4  5  1  0
  6  7  1  0
  7  8  1  0
  8  9  1  0
  9 10  2  0
  9 11  1  0
 11 12  2  0
 11 38  1  0
 12 13  1  0
 12 14  1  0
 14 15  1  0
 15 16  1  0
 15 38  2  0
 16 17  2  0
 17 18  1  0
 17 26  1  0
 18 19  2  0
 18 20  1  0
 20 21  1  0
 21 22  1  0
 21 26  2  0
 22 23  2  0
 23 24  1  0
 24 25  2  0
 24 27  1  0
 25 26  1  0
 27 28  2  0
 27 31  1  0
 28 29  1  0
 29 30  1  0
 30 31  2  0
 30 32  1  0
 32 33  2  0
 32 37  1  0
 33 34  1  0
 34 35  2  0
 35 36  1  0
 36 37  2  0
 38 39  1  0
M  END
>  <DRUGBANK_ID>  (1) 
DB14866

>  <COMMON_NAME>  (1) 
Amcasertib

>  <CAS_NUMBER>  (1) 
1129403-56-0

>  <UNII>  (1) 
GLY8ABW25V

>  <SYNONYMS>  (1) 
Amcasertib

$$$$
