
     RDKit          2D

 36 40  0  0  0  0  0  0  0  0999 V2000
   -2.5846    2.1433    0.0000 N   0  0  0  0  0  0  0  0  0  0  0  0
   -1.7596    2.1433    0.0000 C   0  0  0  0  0  0  0  0  0  0  0  0
   -2.9971    1.4289    0.0000 C   0  0  0  0  0  0  0  0  0  0  0  0
   -2.5846    0.7144    0.0000 C   0  0  0  0  0  0  0  0  0  0  0  0
   -3.8221    1.4289    0.0000 C   0  0  0  0  0  0  0  0  0  0  0  0
   -2.9971    0.0000    0.0000 N   0  0  0  0  0  0  0  0  0  0  0  0
   -1.7596    0.7144    0.0000 C   0  0  0  0  0  0  0  0  0  0  0  0
   -1.3471    1.4289    0.0000 C   0  0  0  0  0  0  0  0  0  0  0  0
   -2.5846   -0.7145    0.0000 C   0  0  0  0  0  0  0  0  0  0  0  0
   -1.7596   -0.7145    0.0000 C   0  0  0  0  0  0  0  0  0  0  0  0
   -1.3471    0.0000    0.0000 C   0  0  0  0  0  0  0  0  0  0  0  0
   -0.5221    0.0000    0.0000 C   0  0  0  0  0  0  0  0  0  0  0  0
   -0.1096   -0.7145    0.0000 C   0  0  0  0  0  0  0  0  0  0  0  0
    0.7153   -0.7145    0.0000 C   0  0  0  0  0  0  0  0  0  0  0  0
    0.3028    0.0000    0.0000 C   0  0  0  0  0  0  0  0  0  0  0  0
    0.7153    0.7144    0.0000 C   0  0  0  0  0  0  0  0  0  0  0  0
    1.5403    0.7144    0.0000 C   0  0  0  0  0  0  0  0  0  0  0  0
    1.9528    1.4289    0.0000 C   0  0  0  0  0  0  0  0  0  0  0  0
    1.5403    2.1433    0.0000 C   0  0  0  0  0  0  0  0  0  0  0  0
    0.7153    2.1433    0.0000 C   0  0  0  0  0  0  0  0  0  0  0  0
    0.3028    1.4289    0.0000 C   0  0  0  0  0  0  0  0  0  0  0  0
    1.1278    0.0000    0.0000 C   0  0  0  0  0  0  0  0  0  0  0  0
    1.9528    0.0000    0.0000 C   0  0  0  0  0  0  0  0  0  0  0  0
    2.3653   -0.7145    0.0000 C   0  0  0  0  0  0  0  0  0  0  0  0
    1.9528   -1.4289    0.0000 C   0  0  0  0  0  0  0  0  0  0  0  0
    1.1278   -1.4289    0.0000 C   0  0  0  0  0  0  0  0  0  0  0  0
    0.7153   -2.1433    0.0000 C   0  0  0  0  0  0  0  0  0  0  0  0
   -0.1096   -2.1433    0.0000 C   0  0  0  0  0  0  0  0  0  0  0  0
   -0.5221   -1.4289    0.0000 C   0  0  0  0  0  0  0  0  0  0  0  0
   -1.3471   -1.4289    0.0000 C   0  0  0  0  0  0  0  0  0  0  0  0
   -2.9971   -1.4289    0.0000 O   0  0  0  0  0  0  0  0  0  0  0  0
    3.0937   -1.1018    0.0000 C   0  0  0  0  0  0  0  0  0  0  0  0
    2.9464    0.0264    0.0000 O   0  0  0  0  0  0  0  0  0  0  0  0
    3.8221   -1.4891    0.0000 F   0  0  0  0  0  0  0  0  0  0  0  0
    3.5105   -0.4617    0.0000 F   0  0  0  0  0  0  0  0  0  0  0  0
    2.7064   -1.8302    0.0000 F   0  0  0  0  0  0  0  0  0  0  0  0
  1  2  2  0
  1  3  1  0
  2  8  1  0
  3  4  2  0
  4  6  1  0
  5  3  1  0
  7  4  1  0
  8  7  2  0
  9  6  1  0
  9 10  1  0
 10 30  1  0
 11 10  2  0
 11 12  1  0
 12 13  2  0
 13 29  1  0
 14 22  1  0
 14 13  1  0
 14 15  1  1
 16 15  1  0
 17 16  2  0
 17 18  1  0
 18 19  2  0
 19 20  1  0
 20 21  2  0
 21 16  1  0
 22 23  1  0
 24 25  1  0
 24 23  1  0
 24 32  1  0
 24 33  1  1
 26 27  1  1
 26 14  1  0
 26 25  1  0
 27 28  1  0
 29 28  1  0
 30 29  2  0
 31  9  2  0
 32 34  1  0
 32 35  1  0
 32 36  1  0
M  END
>  <DRUGBANK_ID>  (1) 
DB14676

>  <COMMON_NAME>  (1) 
Fagrocorat

>  <CAS_NUMBER>  (1) 
1044535-52-5

>  <UNII>  (1) 
OPM23UN90U

$$$$
