PR3
     RDKit          2D

 10  9  0  0  0  0  0  0  0  0999 V2000
   -1.9120    0.7722    0.0000 N   0  0  0  0  0  0  0  0  0  0  0  0
   -1.9120   -0.0529    0.0000 C   0  0  0  0  0  0  0  0  0  0  0  0
   -2.6266   -0.4654    0.0000 C   0  0  0  0  0  0  0  0  0  0  0  0
   -3.3410   -0.0529    0.0000 O   0  0  0  0  0  0  0  0  0  0  0  0
   -1.1975   -0.4654    0.0000 C   0  0  0  0  0  0  0  0  0  0  0  0
   -0.4830   -0.0529    0.0000 S   0  0  0  0  0  0  0  0  0  0  0  0
    0.2315   -0.4654    0.0000 S   0  0  0  0  0  0  0  0  0  0  0  0
    0.9461   -0.0529    0.0000 C   0  0  0  0  0  0  0  0  0  0  0  0
    1.6606   -0.4654    0.0000 C   0  0  0  0  0  0  0  0  0  0  0  0
    2.3751   -0.0529    0.0000 C   0  0  0  0  0  0  0  0  0  0  0  0
  2  1  1  1
  2  3  1  0
  2  5  1  0
  3  4  2  0
  5  6  1  0
  6  7  1  0
  7  8  1  0
  8  9  1  0
  9 10  1  0
M  END
>  <DRUGBANK_ID>  (1) 
DB03654

>  <SECONDARY_ACCESSION_NUMBERS>  (1) 
EXPT02654

>  <COMMON_NAME>  (1) 
S,S-Propylthiocysteine

$$$$
