
     RDKit          2D

 22 24  0  0  0  0  0  0  0  0999 V2000
   -0.7496   -0.8452    0.0000 C   0  0  0  0  0  0  0  0  0  0  0  0
    0.5200   -1.2577    0.0000 N   0  0  0  0  0  0  0  0  0  0  0  0
    0.6886   -0.0866    0.0000 O   0  0  0  0  0  0  0  0  0  0  0  0
   -0.7496   -1.6702    0.0000 C   0  0  0  0  0  0  0  0  0  0  0  0
   -1.4641   -0.4326    0.0000 C   0  0  0  0  0  0  0  0  0  0  0  0
    0.0350   -1.9252    0.0000 C   0  0  0  0  0  0  0  0  0  0  0  0
   -1.4641   -2.0828    0.0000 C   0  0  0  0  0  0  0  0  0  0  0  0
   -2.1786   -0.8452    0.0000 C   0  0  0  0  0  0  0  0  0  0  0  0
    0.2900   -2.7099    0.0000 O   0  0  0  0  0  0  0  0  0  0  0  0
   -2.1786   -1.6702    0.0000 C   0  0  0  0  0  0  0  0  0  0  0  0
    0.0350    0.2347    0.0000 C   0  0  0  0  0  0  0  0  0  0  0  0
    0.7495    0.6472    0.0000 C   0  0  0  0  0  0  0  0  0  0  0  0
   -0.6795    0.6472    0.0000 C   0  0  0  0  0  0  0  0  0  0  0  0
    0.7495    1.4723    0.0000 C   0  0  0  0  0  0  0  0  0  0  0  0
   -0.6795    1.4723    0.0000 C   0  0  0  0  0  0  0  0  0  0  0  0
    0.0350    1.8848    0.0000 C   0  0  0  0  0  0  0  0  0  0  0  0
    1.4640    1.8848    0.0000 S   0  0  0  0  0  0  0  0  0  0  0  0
    0.0350    2.7099    0.0000 Cl  0  0  0  0  0  0  0  0  0  0  0  0
    1.8765    1.1703    0.0000 O   0  0  0  0  0  0  0  0  0  0  0  0
    0.0350   -0.5902    0.0000 C   0  0  0  0  0  0  0  0  0  0  0  0
    2.1786    2.2974    0.0000 N   0  0  0  0  0  0  0  0  0  0  0  0
    1.0515    2.5994    0.0000 O   0  0  0  0  0  0  0  0  0  0  0  0
  1  4  2  0
  1  5  1  0
  2  6  1  0
  4  7  1  0
  4  6  1  0
  5  8  2  0
  6  9  2  0
  7 10  2  0
  8 10  1  0
 11 12  2  0
 11 13  1  0
 12 14  1  0
 13 15  2  0
 14 16  2  0
 14 17  1  0
 15 16  1  0
 16 18  1  0
 17 22  2  0
 17 19  2  0
 17 21  1  0
 20  1  1  0
 20  2  1  0
 20  3  1  0
 20 11  1  0
M  END
>  <DRUGBANK_ID>  (1) 
DB00310

>  <SECONDARY_ACCESSION_NUMBERS>  (1) 
APRD00127

>  <COMMON_NAME>  (1) 
Chlorthalidone

>  <CAS_NUMBER>  (1) 
77-36-1

>  <UNII>  (1) 
Q0MQD1073Q

>  <SYNONYMS>  (1) 
1-keto-3-(3'-sulfamyl-4'-chlorophenyl)-3-hydroxyisoindoline; 1-oxo-3-(3-sulfamyl-4-chlorophenyl)-3-hydroxyisoindoline; 2-chloro-5-(1-hydroxy-3-oxo-1-isoindolinyl)benzenesulfonamide; 2-chloro-5-(2,3-dihydro-1-hydroxy-3-oxo-1H-isoindol-1-yl)benzenesulfonamide; 3-(4'-chloro-3'-sulfamoylphenyl)-3-hydroxyphthalimidine; 3-hydroxy-3-(4-chloro-3-sulfamylphenyl)phthalimidine; Chlorphthalidolone; Chlortalidone; Chlortalidonum; Chlorthalidone; Clortalidona; Phthalamodine; Phthalamudine

$$$$
