RSA
     RDKit          2D

 13 14  0  0  0  0  0  0  0  0999 V2000
   -1.7057    2.5749    0.0000 C   0  0  0  0  0  0  0  0  0  0  0  0
   -1.4507    1.7903    0.0000 C   0  0  0  0  0  0  0  0  0  0  0  0
   -1.1958    1.0057    0.0000 C   0  0  0  0  0  0  0  0  0  0  0  0
   -0.3888    0.8341    0.0000 N   0  0  0  0  0  0  0  0  0  0  0  0
   -0.1339    0.0495    0.0000 C   0  0  0  0  0  0  0  0  0  0  0  0
   -0.6188   -0.6179    0.0000 C   0  0  0  0  0  0  0  0  0  0  0  0
   -0.1339   -1.2854    0.0000 C   0  0  0  0  0  0  0  0  0  0  0  0
    0.6507   -1.0304    0.0000 C   0  0  0  0  0  0  0  0  0  0  0  0
    0.6507   -0.2054    0.0000 C   0  0  0  0  0  0  0  0  0  0  0  0
    1.3652    0.2071    0.0000 C   0  0  0  0  0  0  0  0  0  0  0  0
    1.3652   -1.4429    0.0000 C   0  0  0  0  0  0  0  0  0  0  0  0
    2.0797   -1.0304    0.0000 C   0  0  0  0  0  0  0  0  0  0  0  0
    2.0797   -0.2054    0.0000 C   0  0  0  0  0  0  0  0  0  0  0  0
  1  2  3  0
  2  3  1  0
  3  4  1  0
  5  4  1  6
  5  6  1  0
  5  9  1  0
  6  7  1  0
  7  8  1  0
  8  9  2  0
  8 11  1  0
  9 10  1  0
 10 13  2  0
 11 12  2  0
 12 13  1  0
M  END
>  <DRUGBANK_ID>  (1) 
DB03894

>  <SECONDARY_ACCESSION_NUMBERS>  (1) 
EXPT02818

>  <COMMON_NAME>  (1) 
N-Propargyl-1(S)-Aminoindan

>  <UNII>  (1) 
4KM7HJ6CBA

$$$$
