TSC
     RDKit          2D

 13 14  0  0  0  0  0  0  0  0999 V2000
   -1.4335    1.7954    0.0000 O   0  0  0  0  0  0  0  0  0  0  0  0
   -1.1786    1.0108    0.0000 C   0  0  0  0  0  0  0  0  0  0  0  0
   -1.7306    0.3977    0.0000 N   0  0  0  0  0  0  0  0  0  0  0  0
   -0.3716    0.8392    0.0000 C   0  0  0  0  0  0  0  0  0  0  0  0
   -0.1167    0.0546    0.0000 C   0  0  0  0  0  0  0  0  0  0  0  0
   -0.6016   -0.6128    0.0000 C   0  0  0  0  0  0  0  0  0  0  0  0
   -0.1167   -1.2803    0.0000 N   0  0  0  0  0  0  0  0  0  0  0  0
    0.6679   -1.0253    0.0000 C   0  0  0  0  0  0  0  0  0  0  0  0
    0.6679   -0.2003    0.0000 C   0  0  0  0  0  0  0  0  0  0  0  0
    1.3824   -1.4378    0.0000 C   0  0  0  0  0  0  0  0  0  0  0  0
    2.0969   -1.0253    0.0000 C   0  0  0  0  0  0  0  0  0  0  0  0
    2.0969   -0.2003    0.0000 C   0  0  0  0  0  0  0  0  0  0  0  0
    1.3824    0.2122    0.0000 C   0  0  0  0  0  0  0  0  0  0  0  0
  1  2  1  0
  2  3  1  1
  2  4  1  0
  4  5  1  0
  5  6  2  0
  5  9  1  0
  6  7  1  0
  7  8  1  0
  8  9  2  0
  8 10  1  0
  9 13  1  0
 10 11  2  0
 11 12  1  0
 12 13  2  0
M  END
>  <DRUGBANK_ID>  (1) 
DB08649

>  <COMMON_NAME>  (1) 
(1S)-1-AMINO-2-(1H-INDOL-3-YL)ETHANOL

$$$$
