
     RDKit          2D

 13 13  0  0  1  0  0  0  0  0999 V2000
   14.1389  -12.8057    0.0000 C   0  0  0  0  0  0  0  0  0  0  0  0
   12.9016  -12.0912    0.0000 C   0  0  0  0  0  0  0  0  0  0  0  0
   14.5514  -12.0912    0.0000 C   0  0  0  0  0  0  0  0  0  0  0  0
   13.3140  -11.3767    0.0000 C   0  0  0  0  0  0  0  0  0  0  0  0
   14.1389  -11.3767    0.0000 C   0  0  0  0  0  0  0  0  0  0  0  0
   13.3140  -13.6307    0.0000 C   0  0  0  0  0  0  0  0  0  0  0  0
   13.3140  -12.8057    0.0000 C   0  0  0  0  0  0  0  0  0  0  0  0
   15.3763  -12.0912    0.0000 O   0  0  0  0  0  0  0  0  0  0  0  0
   12.9016  -10.6621    0.0000 O   0  0  0  0  0  0  0  0  0  0  0  0
   14.5514  -10.6621    0.0000 O   0  0  0  0  0  0  0  0  0  0  0  0
   12.5995  -14.0431    0.0000 O   0  0  0  0  0  0  0  0  0  0  0  0
   14.0285  -14.0431    0.0000 O   0  0  0  0  0  0  0  0  0  0  0  0
   12.5995  -13.2182    0.0000 O   0  0  0  0  0  0  0  0  0  0  0  0
  1  3  1  0
  1  7  1  0
  2  7  1  0
  2  4  1  0
  3  8  1  6
  3  5  1  0
  4  9  2  0
  4  5  1  0
  5 10  1  1
  6 11  1  0
  6 12  2  0
  7  6  1  0
  7 13  1  1
M  END
>  <DRUGBANK_ID>  (1) 
DB03868

>  <SECONDARY_ACCESSION_NUMBERS>  (1) 
EXPT01264

>  <COMMON_NAME>  (1) 
3-Dehydroquinic Acid

>  <UNII>  (1) 
Q8HL497GUU

$$$$
