
     RDKit          2D

 14 15  0  0  0  0  0  0  0  0999 V2000
    0.8212    6.8277    0.0000 C   0  0  0  0  0  0  0  0  0  0  0  0
   -0.6078    6.0027    0.0000 C   0  0  0  0  0  0  0  0  0  0  0  0
    1.5356    4.7652    0.0000 C   0  0  0  0  0  0  0  0  0  0  0  0
    1.5356    5.5902    0.0000 C   0  0  0  0  0  0  0  0  0  0  0  0
    0.8212    4.3527    0.0000 C   0  0  0  0  0  0  0  0  0  0  0  0
   -0.6078    4.3527    0.0000 C   0  0  0  0  0  0  0  0  0  0  0  0
    0.0597    3.0428    0.0000 C   0  0  0  0  0  0  0  0  0  0  0  0
   -1.0203    2.2581    0.0000 C   0  0  0  0  0  0  0  0  0  0  0  0
    0.8212    6.0027    0.0000 C   0  0  0  0  0  0  0  0  0  0  0  0
    0.1067    5.5902    0.0000 C   0  0  0  0  0  0  0  0  0  0  0  0
    0.1067    4.7652    0.0000 C   0  0  0  0  0  0  0  0  0  0  0  0
   -0.6078    3.5277    0.0000 C   0  0  0  0  0  0  0  0  0  0  0  0
   -0.1953    2.2581    0.0000 N   0  0  0  0  0  0  0  0  0  0  0  0
   -1.2752    3.0428    0.0000 N   0  0  0  0  0  0  0  0  0  0  0  0
  4  3  2  0
  5  3  1  0
  9  1  1  0
  9  4  1  0
 10  2  1  0
 10  9  2  0
 11  5  2  0
 11  6  1  0
 11 10  1  0
 12  6  1  0
 12  7  2  0
 13  7  1  0
 13  8  2  0
 14  8  1  0
 14 12  1  0
M  END
>  <DRUGBANK_ID>  (1) 
DB11556

>  <COMMON_NAME>  (1) 
Detomidine

>  <CAS_NUMBER>  (1) 
76631-46-4

>  <UNII>  (1) 
7N8K34P2XH

>  <SYNONYMS>  (1) 
4-(2,3-dimethylbenzyl)imidazole; Detomidine

$$$$
