
     RDKit          2D

  6  4  0  0  0  0  0  0  0  0999 V2000
   -1.1737   -0.2015    0.0000 C   0  0  0  0  0  0  0  0  0  0  0  0
   -1.8814   -0.6241    0.0000 N   0  0  0  0  0  0  0  0  0  0  0  0
   -0.4495   -0.5931    0.0000 N   0  0  0  0  0  0  0  0  0  0  0  0
   -1.1872    0.6241    0.0000 O   0  0  0  0  0  0  0  0  0  0  0  0
    1.0382   -0.3657    0.0000 O   0  0  0  0  0  0  0  0  0  0  0  0
    1.8814   -0.3657    0.0000 O   0  0  0  0  0  0  0  0  0  0  0  0
  1  2  1  0
  1  3  1  0
  1  4  2  0
  5  6  1  0
M  END
>  <DRUGBANK_ID>  (1) 
DB11129

>  <COMMON_NAME>  (1) 
Carbamide peroxide

>  <CAS_NUMBER>  (1) 
124-43-6

>  <UNII>  (1) 
31PZ2VAU81

>  <SYNONYMS>  (1) 
Carbamide peroxide; Hydrogen peroxide carbamide; Urea dioxide; Urea hydrogen peroxide; Urea peroxide

$$$$
