
     RDKit          2D

 29 31  0  0  0  0  0  0  0  0999 V2000
    2.9456   -2.5752    0.0000 P   0  0  0  0  0  0  0  0  0  0  0  0
    1.4103   -0.5420    0.0000 O   0  0  0  0  0  0  0  0  0  0  0  0
   -0.7090   -0.2871    0.0000 O   0  0  0  0  0  0  0  0  0  0  0  0
   -0.1544   -1.9940    0.0000 O   0  0  0  0  0  0  0  0  0  0  0  0
    2.4607   -1.9077    0.0000 O   0  0  0  0  0  0  0  0  0  0  0  0
    2.1717    0.7677    0.0000 O   0  0  0  0  0  0  0  0  0  0  0  0
    3.4304   -3.2425    0.0000 O   0  0  0  0  0  0  0  0  0  0  0  0
    3.6129   -2.0903    0.0000 O   0  0  0  0  0  0  0  0  0  0  0  0
    0.7429    3.2425    0.0000 O   0  0  0  0  0  0  0  0  0  0  0  0
    2.2781   -3.0600    0.0000 O   0  0  0  0  0  0  0  0  0  0  0  0
    0.7429    0.7677    0.0000 N   0  0  0  0  0  0  0  0  0  0  0  0
    1.4573    2.0051    0.0000 N   0  0  0  0  0  0  0  0  0  0  0  0
   -2.7196   -1.1361    0.0000 N   0  0  0  0  0  0  0  0  0  0  0  0
   -3.9390   -1.6790    0.0000 N   0  0  0  0  0  0  0  0  0  0  0  0
    0.0755   -0.5420    0.0000 C   0  0  0  0  0  0  0  0  0  0  0  0
    0.3304   -1.3266    0.0000 C   0  0  0  0  0  0  0  0  0  0  0  0
    0.7429   -0.0571    0.0000 C   0  0  0  0  0  0  0  0  0  0  0  0
    1.1554   -1.3266    0.0000 C   0  0  0  0  0  0  0  0  0  0  0  0
    1.6403   -1.9940    0.0000 C   0  0  0  0  0  0  0  0  0  0  0  0
   -1.3220   -0.8391    0.0000 C   0  0  0  0  0  0  0  0  0  0  0  0
    0.0284    1.1802    0.0000 C   0  0  0  0  0  0  0  0  0  0  0  0
    1.4573    1.1802    0.0000 C   0  0  0  0  0  0  0  0  0  0  0  0
   -2.1066   -0.5842    0.0000 C   0  0  0  0  0  0  0  0  0  0  0  0
    0.0284    2.0051    0.0000 C   0  0  0  0  0  0  0  0  0  0  0  0
    0.7429    2.4176    0.0000 C   0  0  0  0  0  0  0  0  0  0  0  0
   -0.6859    2.4176    0.0000 C   0  0  0  0  0  0  0  0  0  0  0  0
   -2.6334   -1.9565    0.0000 C   0  0  0  0  0  0  0  0  0  0  0  0
   -3.5266   -0.9646    0.0000 C   0  0  0  0  0  0  0  0  0  0  0  0
   -3.3871   -2.2921    0.0000 C   0  0  0  0  0  0  0  0  0  0  0  0
  1  5  1  0
  1  7  1  0
  1  8  1  0
  1 10  2  0
  2 17  1  0
  2 18  1  0
  3 20  1  0
  5 19  1  0
  6 22  2  0
  9 25  2  0
 11 21  1  0
 11 22  1  0
 12 22  1  0
 12 25  1  0
 13 23  1  0
 13 27  1  0
 13 28  1  0
 14 28  2  0
 14 29  1  0
 15  3  1  1
 15 16  1  0
 15 17  1  0
 16  4  1  1
 16 18  1  0
 17 11  1  6
 18 19  1  6
 20 23  1  0
 21 24  2  0
 24 25  1  0
 24 26  1  0
 27 29  2  0
M  END
>  <DRUGBANK_ID>  (1) 
DB04691

>  <COMMON_NAME>  (1) 
2'-O-[1-ethyl-1H-imidazol)] thymidine-5'-monophosphate

$$$$
