
     RDKit          2D

 40 45  0  0  1  0  0  0  0  0999 V2000
    5.2224   -0.2063    0.0000 O   0  0  0  0  0  0  0  0  0  0  0  0
    4.5080   -2.2688    0.0000 O   0  0  0  0  0  0  0  0  0  0  0  0
    3.7935   -0.2063    0.0000 N   0  0  0  0  0  0  0  0  0  0  0  0
    7.3659    0.2063    0.0000 N   0  0  0  0  0  0  0  0  0  0  0  0
    8.8711   -0.0870    0.0000 N   0  0  0  0  0  0  0  0  0  0  0  0
    3.7935    1.4438    0.0000 C   0  0  0  0  0  0  0  0  0  0  0  0
    3.0398    1.1082    0.0000 C   0  0  0  0  0  0  0  0  0  0  0  0
    3.7072    2.2643    0.0000 C   0  0  0  0  0  0  0  0  0  0  0  0
    4.5080    1.0313    0.0000 C   0  0  0  0  0  0  0  0  0  0  0  0
    2.4878    1.7213    0.0000 C   0  0  0  0  0  0  0  0  0  0  0  0
    2.9003    2.4358    0.0000 C   0  0  0  0  0  0  0  0  0  0  0  0
    5.2224    1.4438    0.0000 C   0  0  0  0  0  0  0  0  0  0  0  0
    4.5080    0.2063    0.0000 C   0  0  0  0  0  0  0  0  0  0  0  0
    5.9370    1.0313    0.0000 C   0  0  0  0  0  0  0  0  0  0  0  0
    5.2224    2.2688    0.0000 C   0  0  0  0  0  0  0  0  0  0  0  0
    6.6515    1.4438    0.0000 C   0  0  0  0  0  0  0  0  0  0  0  0
    3.7935   -1.0313    0.0000 C   0  0  0  0  0  0  0  0  0  0  0  0
    7.3659    1.0313    0.0000 C   0  0  0  0  0  0  0  0  0  0  0  0
    5.9370    2.6813    0.0000 C   0  0  0  0  0  0  0  0  0  0  0  0
    6.6515    2.2688    0.0000 C   0  0  0  0  0  0  0  0  0  0  0  0
    6.6985   -0.2787    0.0000 C   0  0  0  0  0  0  0  0  0  0  0  0
    8.0334   -0.2787    0.0000 C   0  0  0  0  0  0  0  0  0  0  0  0
    4.5080   -1.4438    0.0000 C   0  0  0  0  0  0  0  0  0  0  0  0
    3.0791   -1.4438    0.0000 C   0  0  0  0  0  0  0  0  0  0  0  0
    7.7784   -1.0633    0.0000 C   0  0  0  0  0  0  0  0  0  0  0  0
    6.9534   -1.0633    0.0000 C   0  0  0  0  0  0  0  0  0  0  0  0
    8.3436   -1.7108    0.0000 C   0  0  0  0  0  0  0  0  0  0  0  0
    5.8608   -0.0870    0.0000 C   0  0  0  0  0  0  0  0  0  0  0  0
    6.3883   -1.7108    0.0000 C   0  0  0  0  0  0  0  0  0  0  0  0
    3.0791   -2.2688    0.0000 C   0  0  0  0  0  0  0  0  0  0  0  0
    2.3645   -1.0313    0.0000 C   0  0  0  0  0  0  0  0  0  0  0  0
    9.1855   -1.5386    0.0000 C   0  0  0  0  0  0  0  0  0  0  0  0
    9.4511   -0.7212    0.0000 C   0  0  0  0  0  0  0  0  0  0  0  0
    5.2808   -0.7212    0.0000 C   0  0  0  0  0  0  0  0  0  0  0  0
    5.5463   -1.5386    0.0000 C   0  0  0  0  0  0  0  0  0  0  0  0
    8.0796   -2.4924    0.0000 C   0  0  0  0  0  0  0  0  0  0  0  0
    2.3645   -2.6813    0.0000 C   0  0  0  0  0  0  0  0  0  0  0  0
    1.6500   -1.4438    0.0000 C   0  0  0  0  0  0  0  0  0  0  0  0
   10.2574   -0.5466    0.0000 C   0  0  0  0  0  0  0  0  0  0  0  0
    1.6500   -2.2688    0.0000 C   0  0  0  0  0  0  0  0  0  0  0  0
  1 13  2  0
  2 23  1  0
  3 13  1  0
  4 18  1  0
  4 21  1  0
  4 22  1  0
  5 22  2  0
  5 33  1  0
  6  7  1  0
  6  8  1  0
  6  9  1  0
  7 10  1  0
  8 11  1  0
  9 12  1  0
  9 13  1  1
 10 11  1  0
 12 14  2  0
 12 15  1  0
 14 16  1  0
 15 19  2  0
 16 18  1  0
 16 20  2  0
 17  3  1  0
 17 23  1  1
 17 24  1  0
 19 20  1  0
 21 26  2  0
 21 28  1  0
 22 25  1  0
 24 30  2  0
 24 31  1  0
 25 26  1  0
 25 27  2  0
 26 29  1  0
 27 32  1  0
 27 36  1  0
 28 34  2  0
 29 35  2  0
 30 37  1  0
 31 38  2  0
 32 33  2  0
 33 39  1  0
 34 35  1  0
 37 40  2  0
 38 40  1  0
M  END
>  <DRUGBANK_ID>  (1) 
DB04852

>  <COMMON_NAME>  (1) 
Implitapide

>  <CAS_NUMBER>  (1) 
177469-96-4

>  <UNII>  (1) 
Q70OH404HR

>  <SYNONYMS>  (1) 
Implitapide

$$$$
