
     RDKit          2D

 11 11  0  0  1  0  0  0  0  0999 V2000
   -1.4974    0.3323    0.0000 C   0  0  0  0  0  0  0  0  0  0  0  0
    0.9803   -0.1553    0.0000 C   0  0  0  0  0  0  0  0  0  0  0  0
    1.2352    0.6294    0.0000 C   0  0  0  0  0  0  0  0  0  0  0  0
    0.1553   -0.1553    0.0000 C   0  0  0  0  0  0  0  0  0  0  0  0
   -0.8843    0.8843    0.0000 C   0  0  0  0  0  0  0  0  0  0  0  0
    0.5678    1.1143    0.0000 C   0  0  0  0  0  0  0  0  0  0  0  0
    0.5678    1.9393    0.0000 C   0  0  0  0  0  0  0  0  0  0  0  0
   -0.0997    0.6294    0.0000 N   0  0  0  0  0  0  0  0  0  0  0  0
   -1.0558    1.6913    0.0000 O   0  0  0  0  0  0  0  0  0  0  0  0
   -0.1467    2.3518    0.0000 O   0  0  0  0  0  0  0  0  0  0  0  0
    1.2822    2.3518    0.0000 O   0  0  0  0  0  0  0  0  0  0  0  0
  3  2  1  0
  4  2  1  0
  5  1  1  0
  6  3  1  0
  6  7  1  6
  8  4  1  0
  8  5  1  0
  8  6  1  0
  9  5  2  0
 10  7  2  0
 11  7  1  0
M  END
>  <DRUGBANK_ID>  (1) 
DB03360

>  <SECONDARY_ACCESSION_NUMBERS>  (1) 
EXPT02279

>  <COMMON_NAME>  (1) 
N-Acetylproline

>  <CAS_NUMBER>  (1) 
68-95-1

>  <UNII>  (1) 
CC8XZ138VZ

>  <SYNONYMS>  (1) 
(2S)-1-acetylpyrrolidine-2-carboxylic acid; (S)-(-)-N-acetylproline; (S)-1-acetylpyrrolidine-2-carboxylic acid; (S)-N-acetylproline; 1-acetylproline; Acetyl proline; N-acetyl-L-proline

$$$$
