
     RDKit          2D

  1  0  0  0  0  0  0  0  0  0999 V2000
    0.0000    0.0000    0.0000 Ne  0  0  0  0  0 15  0  0  0  0  0  0
M  END
>  <DRUGBANK_ID>  (1) 
DB11589

>  <COMMON_NAME>  (1) 
Neon

>  <CAS_NUMBER>  (1) 
7440-01-9

>  <UNII>  (1) 
4VB4Y46AHD

>  <SYNONYMS>  (1) 
Ne; neón; néon; Neon

$$$$
