
     RDKit          2D

 27 29  0  0  0  0  0  0  0  0999 V2000
   -8.8860   -0.0809    0.0000 C   0  0  0  0  0  0  0  0  0  0  0  0
   -8.4735    0.6336    0.0000 N   0  0  0  0  0  0  0  0  0  0  0  0
   -7.6485    0.6336    0.0000 C   0  0  0  0  0  0  0  0  0  0  0  0
   -7.2360    1.3480    0.0000 C   0  0  0  0  0  0  0  0  0  0  0  0
   -6.4110    1.3480    0.0000 C   0  0  0  0  0  0  0  0  0  0  0  0
   -5.9985    0.6336    0.0000 C   0  0  0  0  0  0  0  0  0  0  0  0
   -5.1735    0.6336    0.0000 C   0  0  0  0  0  0  0  0  0  0  0  0
   -4.7610    1.3480    0.0000 C   0  0  0  0  0  0  0  0  0  0  0  0
   -3.9360    1.3480    0.0000 C   0  0  0  0  0  0  0  0  0  0  0  0
   -3.5235    2.0625    0.0000 C   0  0  0  0  0  0  0  0  0  0  0  0
   -2.6985    2.0625    0.0000 C   0  0  0  0  0  0  0  0  0  0  0  0
   -2.2136    1.3951    0.0000 N   0  0  0  0  0  0  0  0  0  0  0  0
   -1.4289    1.6500    0.0000 C   0  0  0  0  0  0  0  0  0  0  0  0
   -1.4289    2.4750    0.0000 C   0  0  0  0  0  0  0  0  0  0  0  0
   -2.2136    2.7299    0.0000 S   0  0  0  0  0  0  0  0  0  0  0  0
   -0.7145    2.8875    0.0000 C   0  0  0  0  0  0  0  0  0  0  0  0
    0.0000    2.4750    0.0000 C   0  0  0  0  0  0  0  0  0  0  0  0
    0.7145    2.8875    0.0000 O   0  0  0  0  0  0  0  0  0  0  0  0
    1.4289    2.4750    0.0000 C   0  0  0  0  0  0  0  0  0  0  0  0
    2.1434    2.8875    0.0000 C   0  0  0  0  0  0  0  0  0  0  0  0
    2.1434    3.7125    0.0000 O   0  0  0  0  0  0  0  0  0  0  0  0
    2.8579    2.4750    0.0000 C   0  0  0  0  0  0  0  0  0  0  0  0
    3.5724    2.8875    0.0000 F   0  0  0  0  0  0  0  0  0  0  0  0
    0.0000    1.6500    0.0000 C   0  0  0  0  0  0  0  0  0  0  0  0
   -0.7145    1.2375    0.0000 C   0  0  0  0  0  0  0  0  0  0  0  0
   -6.4110   -0.0809    0.0000 C   0  0  0  0  0  0  0  0  0  0  0  0
   -7.2360   -0.0809    0.0000 N   0  0  0  0  0  0  0  0  0  0  0  0
  1  2  1  0
  2  3  1  0
  3  4  2  0
  3 27  1  0
  4  5  1  0
  5  6  2  0
  6  7  1  0
  6 26  1  0
  7  8  2  0
  8  9  1  0
  9 10  2  0
 10 11  1  0
 11 12  2  0
 11 15  1  0
 12 13  1  0
 13 14  2  0
 13 25  1  0
 14 15  1  0
 14 16  1  0
 16 17  2  0
 17 18  1  0
 17 24  1  0
 18 19  1  0
 19 20  1  0
 20 21  1  0
 20 22  1  0
 22 23  1  0
 24 25  2  0
 26 27  2  0
M  ISO  1  23  18
M  END
>  <DRUGBANK_ID>  (1) 
DB16297

>  <COMMON_NAME>  (1) 
Florzolotau F-18

>  <CAS_NUMBER>  (1) 
1565797-57-0

>  <UNII>  (1) 
51M993JIQ4

$$$$
