
     RDKit          2D

 28 30  0  0  0  0  0  0  0  0999 V2000
    4.8574    0.8485    0.0000 O   0  0  0  0  0  0  0  0  0  0  0  0
    5.2699    0.1341    0.0000 C   0  0  0  0  0  0  0  0  0  0  0  0
    6.0949    0.1341    0.0000 C   0  0  0  0  0  0  0  0  0  0  0  0
    6.5074   -0.5804    0.0000 N   0  0  0  0  0  0  0  0  0  0  0  0
    7.3324   -0.5804    0.0000 C   0  0  0  0  0  0  0  0  0  0  0  0
    7.7449    0.1341    0.0000 C   0  0  0  0  0  0  0  0  0  0  0  0
    8.5699    0.1341    0.0000 C   0  0  0  0  0  0  0  0  0  0  0  0
    9.0548    0.8015    0.0000 C   0  0  0  0  0  0  0  0  0  0  0  0
    9.8395    0.5466    0.0000 N   0  0  0  0  0  0  0  0  0  0  0  0
    9.8395   -0.2784    0.0000 C   0  0  0  0  0  0  0  0  0  0  0  0
   10.4526   -0.8305    0.0000 C   0  0  0  0  0  0  0  0  0  0  0  0
   10.2810   -1.6374    0.0000 C   0  0  0  0  0  0  0  0  0  0  0  0
    9.4964   -1.8924    0.0000 C   0  0  0  0  0  0  0  0  0  0  0  0
    8.8833   -1.3403    0.0000 C   0  0  0  0  0  0  0  0  0  0  0  0
    9.0548   -0.5334    0.0000 C   0  0  0  0  0  0  0  0  0  0  0  0
    6.0949   -1.2949    0.0000 C   0  0  0  0  0  0  0  0  0  0  0  0
    5.2699   -1.2949    0.0000 C   0  0  0  0  0  0  0  0  0  0  0  0
    4.8574   -2.0093    0.0000 C   0  0  0  0  0  0  0  0  0  0  0  0
    4.0324   -2.0093    0.0000 C   0  0  0  0  0  0  0  0  0  0  0  0
    3.6199   -1.2949    0.0000 C   0  0  0  0  0  0  0  0  0  0  0  0
    2.7949   -1.2949    0.0000 C   0  0  0  0  0  0  0  0  0  0  0  0
    2.3824   -0.5804    0.0000 C   0  0  0  0  0  0  0  0  0  0  0  0
    1.5574   -0.5804    0.0000 C   0  0  0  0  0  0  0  0  0  0  0  0
    1.1449   -1.2949    0.0000 O   0  0  0  0  0  0  0  0  0  0  0  0
    1.1449    0.1341    0.0000 N   0  0  0  0  0  0  0  0  0  0  0  0
    0.3199    0.1341    0.0000 O   0  0  0  0  0  0  0  0  0  0  0  0
    4.0324   -0.5804    0.0000 C   0  0  0  0  0  0  0  0  0  0  0  0
    4.8574   -0.5804    0.0000 C   0  0  0  0  0  0  0  0  0  0  0  0
  1  2  1  0
  2  3  1  0
  3  4  1  0
  4  5  1  0
  4 16  1  0
  5  6  1  0
  6  7  1  0
  7  8  2  0
  7 15  1  0
  8  9  1  0
  9 10  1  0
 10 11  1  0
 10 15  2  0
 11 12  2  0
 12 13  1  0
 13 14  2  0
 14 15  1  0
 16 17  1  0
 17 18  2  0
 17 28  1  0
 18 19  1  0
 19 20  2  0
 20 21  1  0
 20 27  1  0
 21 22  2  0
 22 23  1  0
 23 24  2  0
 23 25  1  0
 25 26  1  0
 27 28  2  0
M  END
>  <DRUGBANK_ID>  (1) 
DB17034

>  <COMMON_NAME>  (1) 
Dacinostat

>  <CAS_NUMBER>  (1) 
404951-53-7

>  <UNII>  (1) 
V10P524501

>  <SYNONYMS>  (1) 
(2e)-n-hydroxy-3-(4-(((2-hydroxyethyl)(2-(1h-indol-3-yl)ethyl)amino)methyl)phenyl)propenamide

$$$$
