
     RDKit          2D

 20 22  0  0  0  0  0  0  0  0999 V2000
    2.0636   -0.8249    0.0000 C   0  0  0  0  0  0  0  0  0  0  0  0
    1.6511   -0.1105    0.0000 C   0  0  0  0  0  0  0  0  0  0  0  0
    2.8886   -0.8249    0.0000 C   0  0  0  0  0  0  0  0  0  0  0  0
    2.0636    0.6039    0.0000 C   0  0  0  0  0  0  0  0  0  0  0  0
    3.3012   -0.1105    0.0000 C   0  0  0  0  0  0  0  0  0  0  0  0
    2.8886    0.6039    0.0000 C   0  0  0  0  0  0  0  0  0  0  0  0
    0.8261   -0.1105    0.0000 C   0  0  0  0  0  0  0  0  0  0  0  0
    0.3412   -0.7779    0.0000 N   0  0  0  0  0  0  0  0  0  0  0  0
    0.3412    0.5569    0.0000 O   0  0  0  0  0  0  0  0  0  0  0  0
   -0.4433   -0.5230    0.0000 C   0  0  0  0  0  0  0  0  0  0  0  0
   -0.4433    0.3019    0.0000 C   0  0  0  0  0  0  0  0  0  0  0  0
   -1.8723    0.3019    0.0000 C   0  0  0  0  0  0  0  0  0  0  0  0
   -1.1578    0.7144    0.0000 C   0  0  0  0  0  0  0  0  0  0  0  0
   -1.8723   -0.5230    0.0000 C   0  0  0  0  0  0  0  0  0  0  0  0
   -1.1578   -0.9355    0.0000 C   0  0  0  0  0  0  0  0  0  0  0  0
    3.3012   -1.5394    0.0000 Cl  0  0  0  0  0  0  0  0  0  0  0  0
    3.3012    1.3184    0.0000 Cl  0  0  0  0  0  0  0  0  0  0  0  0
   -2.5867    0.7144    0.0000 C   0  0  0  0  0  0  0  0  0  0  0  0
   -3.3012    0.3019    0.0000 O   0  0  0  0  0  0  0  0  0  0  0  0
   -2.5867    1.5394    0.0000 O   0  0  0  0  0  0  0  0  0  0  0  0
  2  1  2  0
  2  7  1  0
  3  1  1  0
  3 16  1  0
  4  2  1  0
  5  3  2  0
  6  4  2  0
  6  5  1  0
  6 17  1  0
  8  7  2  0
  9  7  1  0
 10  8  1  0
 10 11  2  0
 10 15  1  0
 11  9  1  0
 11 13  1  0
 12 18  1  0
 13 12  2  0
 14 12  1  0
 15 14  2  0
 18 19  1  0
 18 20  2  0
M  END
>  <DRUGBANK_ID>  (1) 
DB11644

>  <COMMON_NAME>  (1) 
Tafamidis

>  <CAS_NUMBER>  (1) 
594839-88-0

>  <UNII>  (1) 
8FG9H9D31J

>  <SYNONYMS>  (1) 
Tafamidis; Tafamidisum

$$$$
