
     RDKit          2D

 16 16  0  0  0  0  0  0  0  0999 V2000
    2.4925   -0.0320    0.0000 Na  0  0  0  0  0 15  0  0  0  0  0  0
   -0.3659   -0.0320    0.0000 C   0  0  0  0  0  0  0  0  0  0  0  0
   -0.6106   -0.5996    0.0000 C   0  0  0  0  0  0  0  0  0  0  0  0
   -1.2251   -0.7378    0.0000 C   0  0  0  0  0  0  0  0  0  0  0  0
   -1.6627   -0.3002    0.0000 C   0  0  0  0  0  0  0  0  0  0  0  0
   -1.2483   -1.0180    0.0000 C   0  0  0  0  0  0  0  0  0  0  0  0
   -0.4521   -0.8528    0.0000 C   0  0  0  0  0  0  0  0  0  0  0  0
   -1.1197    0.3034    0.0000 C   0  0  0  0  0  0  0  0  0  0  0  0
    0.3486    0.3804    0.0000 C   0  0  0  0  0  0  0  0  0  0  0  0
    1.0632   -0.0320    0.0000 S   0  0  0  0  0  0  0  0  0  0  0  0
    1.4758    0.6824    0.0000 O   0  0  0  0  0  0  0  0  0  0  0  0
    0.6506   -0.7467    0.0000 O   0  0  0  0  0  0  0  0  0  0  0  0
    1.7778   -0.4447    0.0000 O   0  0  0  0  0  0  0  0  0  0  0  0
    0.1598   -0.7592    0.0000 O   0  0  0  0  0  0  0  0  0  0  0  0
   -0.7071    1.0180    0.0000 C   0  0  0  0  0  0  0  0  0  0  0  0
   -1.7872    0.7885    0.0000 C   0  0  0  0  0  0  0  0  0  0  0  0
  2  3  1  0
  2  7  1  0
  2  8  1  0
  2  9  1  6
  3  4  1  0
  3 14  2  0
  5  4  1  6
  5  6  1  0
  5  8  1  0
  6  7  1  0
  8 15  1  0
  8 16  1  0
  9 10  1  0
 10 11  2  0
 10 12  2  0
 10 13  1  0
M  CHG  2   1   1  13  -1
M  END
>  <DRUGBANK_ID>  (1) 
DB15950

>  <COMMON_NAME>  (1) 
Sodium camphorsulfonate

>  <CAS_NUMBER>  (1) 
21791-94-6

>  <UNII>  (1) 
CFN2D8XEIU

>  <SYNONYMS>  (1) 
Sodium camsylate

$$$$
