
     RDKit          2D

 28 31  0  0  1  0  0  0  0  0999 V2000
   -2.6111   -2.5087    0.0000 C   0  0  0  0  0  0  0  0  0  0  0  0
   -2.1262   -1.8413    0.0000 N   0  0  0  0  0  0  0  0  0  0  0  0
   -1.3057   -1.9275    0.0000 C   0  0  0  0  0  0  0  0  0  0  0  0
   -0.7537   -1.3144    0.0000 C   0  0  0  0  0  0  0  0  0  0  0  0
    0.0000   -1.6500    0.0000 N   0  0  0  0  0  0  0  0  0  0  0  0
   -0.0862   -2.4705    0.0000 C   0  0  0  0  0  0  0  0  0  0  0  0
   -0.8932   -2.6420    0.0000 C   0  0  0  0  0  0  0  0  0  0  0  0
   -1.2288   -3.3957    0.0000 O   0  0  0  0  0  0  0  0  0  0  0  0
   -2.0492   -3.4819    0.0000 C   0  0  0  0  0  0  0  0  0  0  0  0
    0.7145   -1.2375    0.0000 C   0  0  0  0  0  0  0  0  0  0  0  0
    0.7145   -0.4125    0.0000 C   0  0  0  0  0  0  0  0  0  0  0  0
    1.4289    0.0000    0.0000 C   0  0  0  0  0  0  0  0  0  0  0  0
    2.1434   -0.4125    0.0000 C   0  0  0  0  0  0  0  0  0  0  0  0
    2.8579    0.0000    0.0000 C   0  0  0  0  0  0  0  0  0  0  0  0
    2.8579    0.8250    0.0000 O   0  0  0  0  0  0  0  0  0  0  0  0
    3.5724   -0.4125    0.0000 C   0  0  0  0  0  0  0  0  0  0  0  0
    3.5724   -1.2375    0.0000 C   0  0  0  0  0  0  0  0  0  0  0  0
    2.8579   -1.6500    0.0000 N   0  0  0  0  0  0  0  0  0  0  0  0
    2.1434   -1.2375    0.0000 C   0  0  0  0  0  0  0  0  0  0  0  0
    1.4289   -1.6500    0.0000 N   0  0  0  0  0  0  0  0  0  0  0  0
    2.8579   -2.4750    0.0000 C   0  0  0  0  0  0  0  0  0  0  0  0
    3.5253   -2.9599    0.0000 N   0  0  0  0  0  0  0  0  0  0  0  0
    3.2704   -3.7445    0.0000 C   0  0  0  0  0  0  0  0  0  0  0  0
    2.4454   -3.7445    0.0000 C   0  0  0  0  0  0  0  0  0  0  0  0
    2.1904   -2.9599    0.0000 S   0  0  0  0  0  0  0  0  0  0  0  0
    4.2868   -0.0000    0.0000 C   0  0  0  0  0  0  0  0  0  0  0  0
    4.2868    0.8250    0.0000 O   0  0  0  0  0  0  0  0  0  0  0  0
    5.0013   -0.4125    0.0000 O   0  0  0  0  0  0  0  0  0  0  0  0
  1  2  1  0
  3  2  1  1
  3  4  1  0
  3  7  1  0
  4  5  1  0
  5  6  1  0
  5 10  1  0
  6  7  1  0
  7  8  1  6
  8  9  1  0
 10 11  2  0
 10 20  1  0
 11 12  1  0
 12 13  2  0
 13 14  1  0
 13 19  1  0
 14 15  2  0
 14 16  1  0
 16 17  2  0
 16 26  1  0
 17 18  1  0
 18 19  1  0
 18 21  1  0
 19 20  2  0
 21 22  2  0
 21 25  1  0
 22 23  1  0
 23 24  2  0
 24 25  1  0
 26 27  2  0
 26 28  1  0
M  END
>  <DRUGBANK_ID>  (1) 
DB11999

>  <SECONDARY_ACCESSION_NUMBERS>  (1) 
DB05517

>  <COMMON_NAME>  (1) 
Vosaroxin

>  <CAS_NUMBER>  (1) 
175414-77-4

>  <UNII>  (1) 
K6A90IIZ19

>  <SYNONYMS>  (1) 
Voreloxin; Vosaroxin

$$$$
