Untitled Document-2
     RDKit          2D

 20 23  0  0  0  0  0  0  0  0999 V2000
   -2.0637   -0.5198    0.0000 C   0  0  0  0  0  0  0  0  0  0  0  0
   -2.0637   -1.3448    0.0000 C   0  0  0  0  0  0  0  0  0  0  0  0
   -1.3492   -1.7573    0.0000 C   0  0  0  0  0  0  0  0  0  0  0  0
   -0.6348   -1.3448    0.0000 C   0  0  0  0  0  0  0  0  0  0  0  0
   -0.6348   -0.5198    0.0000 C   0  0  0  0  0  0  0  0  0  0  0  0
   -1.3492   -0.1073    0.0000 C   0  0  0  0  0  0  0  0  0  0  0  0
    0.0797   -1.7573    0.0000 C   0  0  0  0  0  0  0  0  0  0  0  0
    0.7942   -1.3448    0.0000 C   0  0  0  0  0  0  0  0  0  0  0  0
    0.7942   -0.5198    0.0000 C   0  0  0  0  0  0  0  0  0  0  0  0
    0.0797   -0.1073    0.0000 C   0  0  0  0  0  0  0  0  0  0  0  0
    1.5086   -0.1073    0.0000 C   0  0  0  0  0  0  0  0  0  0  0  0
    1.5086    0.7177    0.0000 C   0  0  0  0  0  0  0  0  0  0  0  0
    0.7942    1.1302    0.0000 C   0  0  0  0  0  0  0  0  0  0  0  0
    0.0797    0.7177    0.0000 C   0  0  0  0  0  0  0  0  0  0  0  0
    2.2933   -0.3622    0.0000 C   0  0  0  0  0  0  0  0  0  0  0  0
    2.7782    0.3052    0.0000 C   0  0  0  0  0  0  0  0  0  0  0  0
    2.2933    0.9727    0.0000 C   0  0  0  0  0  0  0  0  0  0  0  0
   -2.7782   -1.7573    0.0000 O   0  0  0  0  0  0  0  0  0  0  0  0
    1.5086    1.5427    0.0000 C   0  0  0  0  0  0  0  0  0  0  0  0
    2.5482    1.7573    0.0000 O   0  0  0  0  0  0  0  0  0  0  0  0
  1  2  1  0
  2  3  1  0
  2 18  2  0
  3  4  2  0
  4  5  1  0
  4  7  1  0
  5  6  1  6
  6  1  1  0
  7  8  1  0
  9  8  1  6
  9 10  1  0
  9 11  1  0
 10  5  1  0
 11 12  1  0
 11 15  1  1
 12 13  1  0
 12 19  1  1
 13 14  1  0
 10 14  1  1
 15 16  1  0
 16 17  1  0
 17 12  1  0
 17 20  1  1
M  END
>  <DRUGBANK_ID>  (1) 
DB13169

>  <COMMON_NAME>  (1) 
Nandrolone

>  <CAS_NUMBER>  (1) 
434-22-0

>  <UNII>  (1) 
6PG9VR430D

>  <SYNONYMS>  (1) 
(17Î²)-17-hydroxyestr-4-en-3-one; 19-norandrostenolone; 19-nortestosterone; Nandrolona; Nandrolone; Nandrolonum

$$$$
