
     RDKit          2D

 31 32  0  0  0  0  0  0  0  0999 V2000
   -3.5832    0.3082    0.0000 C   0  0  0  0  0  0  0  0  0  0  0  0
   -4.2971   -0.0918    0.0000 C   0  0  0  0  0  0  0  0  0  0  0  0
   -3.5832    1.1398    0.0000 C   0  0  0  0  0  0  0  0  0  0  0  0
   -2.8614   -0.0918    0.0000 C   0  0  0  0  0  0  0  0  0  0  0  0
   -5.0187    0.3082    0.0000 C   0  0  0  0  0  0  0  0  0  0  0  0
   -4.2971    1.5439    0.0000 C   0  0  0  0  0  0  0  0  0  0  0  0
   -2.1436    0.3161    0.0000 O   0  0  0  0  0  0  0  0  0  0  0  0
   -2.8614   -0.9193    0.0000 O   0  0  0  0  0  0  0  0  0  0  0  0
   -5.0187    1.1281    0.0000 C   0  0  0  0  0  0  0  0  0  0  0  0
   -5.7288   -0.0918    0.0000 O   0  0  0  0  0  0  0  0  0  0  0  0
   -1.4335   -0.1075    0.0000 C   0  0  0  0  0  0  0  0  0  0  0  0
   -5.7288    1.5439    0.0000 O   0  0  0  0  0  0  0  0  0  0  0  0
   -5.7288   -0.9193    0.0000 C   0  0  0  0  0  0  0  0  0  0  0  0
   -0.7157    0.3161    0.0000 C   0  0  0  0  0  0  0  0  0  0  0  0
   -5.7288    2.3637    0.0000 C   0  0  0  0  0  0  0  0  0  0  0  0
    0.0020   -0.1075    0.0000 C   0  0  0  0  0  0  0  0  0  0  0  0
    0.7079    0.3082    0.0000 C   0  0  0  0  0  0  0  0  0  0  0  0
    1.4218   -0.0918    0.0000 N   0  0  0  0  0  0  0  0  0  0  0  0
    2.1436    0.3082    0.0000 C   0  0  0  0  0  0  0  0  0  0  0  0
    1.4218   -0.9193    0.0000 C   0  0  0  0  0  0  0  0  0  0  0  0
    2.8614   -0.0918    0.0000 C   0  0  0  0  0  0  0  0  0  0  0  0
    2.1436    1.1281    0.0000 C   0  0  0  0  0  0  0  0  0  0  0  0
    0.7079   -1.3352    0.0000 C   0  0  0  0  0  0  0  0  0  0  0  0
    3.5714    0.3082    0.0000 C   0  0  0  0  0  0  0  0  0  0  0  0
    4.2814   -0.1075    0.0000 C   0  0  0  0  0  0  0  0  0  0  0  0
    3.5714    1.1398    0.0000 C   0  0  0  0  0  0  0  0  0  0  0  0
    4.9914    0.3161    0.0000 C   0  0  0  0  0  0  0  0  0  0  0  0
    4.2814    1.5398    0.0000 C   0  0  0  0  0  0  0  0  0  0  0  0
    5.0071    1.1398    0.0000 C   0  0  0  0  0  0  0  0  0  0  0  0
    5.7288    1.5398    0.0000 O   0  0  0  0  0  0  0  0  0  0  0  0
    5.7288    2.3637    0.0000 C   0  0  0  0  0  0  0  0  0  0  0  0
  1  2  2  0
  1  3  1  0
  1  4  1  0
  2  5  1  0
  3  6  2  0
  4  7  1  0
  4  8  2  0
  5  9  2  0
  5 10  1  0
  6  9  1  0
  7 11  1  0
  9 12  1  0
 10 13  1  0
 11 14  1  0
 12 15  1  0
 14 16  1  0
 16 17  1  0
 17 18  1  0
 18 19  1  0
 18 20  1  0
 19 21  1  0
 19 22  1  0
 20 23  1  0
 21 24  1  0
 24 25  2  0
 24 26  1  0
 25 27  1  0
 26 28  2  0
 27 29  2  0
 28 29  1  0
 29 30  1  0
 30 31  1  0
M  END
>  <DRUGBANK_ID>  (1) 
DB12554

>  <COMMON_NAME>  (1) 
Mebeverine

>  <CAS_NUMBER>  (1) 
3625-06-7

>  <UNII>  (1) 
7F80CC3NNV

>  <SYNONYMS>  (1) 
Mebeverina; Mebeverine; Mebeverinum

$$$$
