
     RDKit          2D

 25 28  0  0  1  0  0  0  0  0999 V2000
    2.8068   -1.2128    0.0000 S   0  0  0  0  0  0  0  0  0  0  0  0
    9.0059    1.9257    0.0000 O   0  0  0  0  0  0  0  0  0  0  0  0
    3.5197   -1.6281    0.0000 O   0  0  0  0  0  0  0  0  0  0  0  0
    2.0939   -0.7975    0.0000 O   0  0  0  0  0  0  0  0  0  0  0  0
    2.3916   -1.9257    0.0000 O   0  0  0  0  0  0  0  0  0  0  0  0
    3.2221   -0.4999    0.0000 O   0  0  0  0  0  0  0  0  0  0  0  0
    6.5400    0.0651    0.0000 C   0  0  0  0  0  0  0  0  0  0  0  0
    7.2546   -0.3474    0.0000 C   0  0  0  0  0  0  0  0  0  0  0  0
    7.9690    0.0651    0.0000 C   0  0  0  0  0  0  0  0  0  0  0  0
    7.9690    0.8901    0.0000 C   0  0  0  0  0  0  0  0  0  0  0  0
    5.7893   -0.3530    0.0000 C   0  0  0  0  0  0  0  0  0  0  0  0
    6.5400    0.8901    0.0000 C   0  0  0  0  0  0  0  0  0  0  0  0
    7.2546    1.3026    0.0000 C   0  0  0  0  0  0  0  0  0  0  0  0
    8.7496   -0.1863    0.0000 C   0  0  0  0  0  0  0  0  0  0  0  0
    7.2678   -1.2066    0.0000 C   0  0  0  0  0  0  0  0  0  0  0  0
    5.7827   -1.2123    0.0000 C   0  0  0  0  0  0  0  0  0  0  0  0
    5.0247    0.1124    0.0000 C   0  0  0  0  0  0  0  0  0  0  0  0
    8.7496    1.1416    0.0000 C   0  0  0  0  0  0  0  0  0  0  0  0
    9.2311    0.4776    0.0000 C   0  0  0  0  0  0  0  0  0  0  0  0
    6.5269   -1.6420    0.0000 C   0  0  0  0  0  0  0  0  0  0  0  0
    7.9690    1.7151    0.0000 C   0  0  0  0  0  0  0  0  0  0  0  0
    5.7957    0.4719    0.0000 C   0  0  0  0  0  0  0  0  0  0  0  0
    5.0110   -1.6659    0.0000 C   0  0  0  0  0  0  0  0  0  0  0  0
    4.2426   -0.3232    0.0000 C   0  0  0  0  0  0  0  0  0  0  0  0
    4.2358   -1.2184    0.0000 C   0  0  0  0  0  0  0  0  0  0  0  0
  1  3  1  0
  1  4  1  0
  1  5  2  0
  1  6  2  0
  2 18  2  0
  7  8  1  0
  7 11  1  0
  7 12  1  1
  8  9  1  0
  8 15  1  6
  9 10  1  0
  9 14  1  1
 10 13  1  0
 10 18  1  0
 10 21  1  1
 11 16  1  0
 11 17  1  0
 11 22  1  1
 12 13  1  0
 14 19  1  0
 15 20  1  0
 16 20  2  0
 16 23  1  0
 17 24  1  0
 18 19  1  0
 23 25  1  0
 24 25  1  0
 25  3  1  1
M  END
>  <DRUGBANK_ID>  (1) 
DB05804

>  <COMMON_NAME>  (1) 
Prasterone sulfate

>  <CAS_NUMBER>  (1) 
651-48-9

>  <UNII>  (1) 
57B09Q7FJR

>  <SYNONYMS>  (1) 
(3-beta)-3-(Sulfooxy)androst-5-en-17-one; 17-Ketoandrost-5-en-3beta-yl sulfate; 17-oxoandrost-5-en-3Î²-yl hydrogen sulphate; 3-O-Sulfodehydroepiandrosterone; 3beta-Hydroxyandrost-5-en-17-one 3-sulfate; Androst-5-en-17-on-3beta-yl sulfuric acid; Dehydroepiandrosterone 3-sulfate; Dehydroepiandrosterone monosulfate; Dehydroepiandrosterone sulfate; Dehydroepiandrosterone sulphate; Dehydroisoandrosterone sulfate; Dehydroisoandrosterone-3-sulfate; DHEA sulfate; DHEA sulphate; DHEA-S; Prasterone sulphate

$$$$
