
     RDKit          2D

 15 15  0  0  0  0  0  0  0  0999 V2000
   -0.3572    0.6187    0.0000 O   0  0  0  0  0  0  0  0  0  0  0  0
   -0.3572   -1.8563    0.0000 O   0  0  0  0  0  0  0  0  0  0  0  0
   -1.7863   -1.0313    0.0000 O   0  0  0  0  0  0  0  0  0  0  0  0
    1.0717   -1.0313    0.0000 O   0  0  0  0  0  0  0  0  0  0  0  0
   -1.7863    1.4438    0.0000 O   0  0  0  0  0  0  0  0  0  0  0  0
    0.3572    1.8563    0.0000 O   0  0  0  0  0  0  0  0  0  0  0  0
    1.0717    0.6187    0.0000 N   0  0  0  0  0  0  0  0  0  0  0  0
   -0.3572   -1.0313    0.0000 C   0  0  0  0  0  0  0  0  0  0  0  0
   -1.0717   -0.6187    0.0000 C   0  0  0  0  0  0  0  0  0  0  0  0
    0.3572   -0.6187    0.0000 C   0  0  0  0  0  0  0  0  0  0  0  0
   -1.0717    0.2062    0.0000 C   0  0  0  0  0  0  0  0  0  0  0  0
    0.3572    0.2062    0.0000 C   0  0  0  0  0  0  0  0  0  0  0  0
   -1.7863    0.6187    0.0000 C   0  0  0  0  0  0  0  0  0  0  0  0
    1.0717    1.4438    0.0000 C   0  0  0  0  0  0  0  0  0  0  0  0
    1.7863    1.8563    0.0000 C   0  0  0  0  0  0  0  0  0  0  0  0
  1 11  1  0
  1 12  1  0
  5 13  1  0
  6 14  2  0
  7 14  1  0
  8  2  1  1
  8  9  1  0
  8 10  1  0
  9  3  1  6
  9 11  1  0
 10  4  1  6
 10 12  1  0
 11 13  1  1
 12  7  1  1
 14 15  1  0
M  END
>  <DRUGBANK_ID>  (1) 
DB02320

>  <SECONDARY_ACCESSION_NUMBERS>  (1) 
EXPT02300

>  <COMMON_NAME>  (1) 
N-beta-D-glucopyranosylacetamide

>  <CAS_NUMBER>  (1) 
6983-36-4

>  <SYNONYMS>  (1) 
1-N-acetyl-beta-D-glucosamine

$$$$
