
     RDKit          2D

 28 29  0  0  0  0  0  0  0  0999 V2000
   -1.5307    0.5117    0.0000 C   0  0  0  0  0  0  0  0  0  0  0  0
   -2.1923    0.8838    0.0000 C   0  0  0  0  0  0  0  0  0  0  0  0
   -2.8952    0.5117    0.0000 N   0  0  0  0  0  0  0  0  0  0  0  0
   -2.1923    1.6695    0.0000 O   0  0  0  0  0  0  0  0  0  0  0  0
   -3.5569    0.8838    0.0000 O   0  0  0  0  0  0  0  0  0  0  0  0
   -0.8191    0.9331    0.0000 C   0  0  0  0  0  0  0  0  0  0  0  0
   -0.1016    0.5294    0.0000 C   0  0  0  0  0  0  0  0  0  0  0  0
   -0.7874    1.7931    0.0000 C   0  0  0  0  0  0  0  0  0  0  0  0
   -0.0754    2.2149    0.0000 C   0  0  0  0  0  0  0  0  0  0  0  0
    0.6423    1.8111    0.0000 C   0  0  0  0  0  0  0  0  0  0  0  0
   -0.0847    3.0336    0.0000 C   0  0  0  0  0  0  0  0  0  0  0  0
    0.6152    0.9543    0.0000 N   0  0  0  0  0  0  0  0  0  0  0  0
   -0.0924   -0.3152    0.0000 O   0  0  0  0  0  0  0  0  0  0  0  0
    1.3338    0.5500    0.0000 C   0  0  0  0  0  0  0  0  0  0  0  0
    2.0380    0.9675    0.0000 C   0  0  0  0  0  0  0  0  0  0  0  0
    1.3430   -0.3966    0.0000 C   0  0  0  0  0  0  0  0  0  0  0  0
    2.0793   -0.8108    0.0000 C   0  0  0  0  0  0  0  0  0  0  0  0
    2.3245   -1.5943    0.0000 C   0  0  0  0  0  0  0  0  0  0  0  0
    3.1494   -1.6014    0.0000 C   0  0  0  0  0  0  0  0  0  0  0  0
    3.4111   -0.8190    0.0000 N   0  0  0  0  0  0  0  0  0  0  0  0
    2.7478   -0.3284    0.0000 C   0  0  0  0  0  0  0  0  0  0  0  0
    1.9050   -2.3069    0.0000 C   0  0  0  0  0  0  0  0  0  0  0  0
    2.3123   -3.0266    0.0000 C   0  0  0  0  0  0  0  0  0  0  0  0
    3.1373   -3.0336    0.0000 C   0  0  0  0  0  0  0  0  0  0  0  0
    3.5569   -2.3211    0.0000 C   0  0  0  0  0  0  0  0  0  0  0  0
    2.7498    0.5673    0.0000 N   0  0  0  0  0  0  0  0  0  0  0  0
    2.0285    1.7935    0.0000 O   0  0  0  0  0  0  0  0  0  0  0  0
    3.4692    0.9941    0.0000 C   0  0  0  0  0  0  0  0  0  0  0  0
  1  2  1  0
  6  1  1  1
  2  3  1  0
  2  4  2  0
  3  5  1  0
  6  7  1  0
  6  8  1  0
  7 12  1  0
  7 13  2  0
  8  9  1  0
  9 10  1  0
  9 11  1  0
 12 14  1  0
 14 15  1  0
 14 16  1  6
 15 26  1  0
 15 27  2  0
 16 17  1  0
 17 18  1  0
 17 21  2  0
 18 19  2  0
 18 22  1  0
 19 20  1  0
 19 25  1  0
 20 21  1  0
 22 23  2  0
 23 24  1  0
 24 25  2  0
 26 28  1  0
M  END
>  <DRUGBANK_ID>  (1) 
DB02255

>  <SECONDARY_ACCESSION_NUMBERS>  (1) 
EXPT01618

>  <COMMON_NAME>  (1) 
Ilomastat

>  <CAS_NUMBER>  (1) 
142880-36-2

>  <UNII>  (1) 
I0403ML141

>  <SYNONYMS>  (1) 
(R)-N(SUP 1)-HYDROXY-N-((S)-2-INDOL-3-YL-1-(METHYLCARBAMOYL)ETHYL)-2-ISOBUTYLSUCCINAMIDE; (S-(R*,S*))-N(SUP 4)-HYDROXY-N(SUP 1)-(1H-INDOL-3-YLMETHYL)-2-(METHYLAMINO)-2-OXOETHYL)-2-(2-METHYLOPROPYL)BUTANEDIAMIDE; Ilomastat

$$$$
