367
     RDKit          2D

 30 32  0  0  0  0  0  0  0  0999 V2000
   -0.3688   -0.8627    0.0000 C   0  0  0  0  0  0  0  0  0  0  0  0
    0.3457   -0.4502    0.0000 C   0  0  0  0  0  0  0  0  0  0  0  0
    1.0602   -0.8627    0.0000 C   0  0  0  0  0  0  0  0  0  0  0  0
    1.0602   -1.6877    0.0000 C   0  0  0  0  0  0  0  0  0  0  0  0
    0.3457   -2.1002    0.0000 C   0  0  0  0  0  0  0  0  0  0  0  0
   -0.3688   -1.6877    0.0000 C   0  0  0  0  0  0  0  0  0  0  0  0
   -1.0832   -0.4502    0.0000 C   0  0  0  0  0  0  0  0  0  0  0  0
   -1.7977   -0.8627    0.0000 C   0  0  0  0  0  0  0  0  0  0  0  0
   -1.0832   -2.1002    0.0000 C   0  0  0  0  0  0  0  0  0  0  0  0
   -1.7977   -1.6877    0.0000 C   0  0  0  0  0  0  0  0  0  0  0  0
   -2.5122   -0.4502    0.0000 C   0  0  0  0  0  0  0  0  0  0  0  0
   -3.2266   -0.8627    0.0000 N   0  0  0  0  0  0  0  0  0  0  0  0
   -2.5122    0.3748    0.0000 N   0  0  0  0  0  0  0  0  0  0  0  0
    0.3457    0.3748    0.0000 N   0  0  0  0  0  0  0  0  0  0  0  0
    1.0602    0.7873    0.0000 C   0  0  0  0  0  0  0  0  0  0  0  0
    1.7746    0.3748    0.0000 O   0  0  0  0  0  0  0  0  0  0  0  0
    1.0602    1.6123    0.0000 C   0  0  0  0  0  0  0  0  0  0  0  0
    0.3457    2.0248    0.0000 C   0  0  0  0  0  0  0  0  0  0  0  0
    0.3457    2.8498    0.0000 C   0  0  0  0  0  0  0  0  0  0  0  0
    1.0602    3.2623    0.0000 C   0  0  0  0  0  0  0  0  0  0  0  0
    1.7746    2.8498    0.0000 C   0  0  0  0  0  0  0  0  0  0  0  0
    1.7746    2.0248    0.0000 C   0  0  0  0  0  0  0  0  0  0  0  0
    2.4891    3.2623    0.0000 S   0  0  0  0  0  0  0  0  0  0  0  0
    3.2036    3.6748    0.0000 O   0  0  0  0  0  0  0  0  0  0  0  0
    2.9016    2.5478    0.0000 O   0  0  0  0  0  0  0  0  0  0  0  0
    2.0766    3.9767    0.0000 O   0  0  0  0  0  0  0  0  0  0  0  0
    3.9181    3.2623    0.0000 C   0  0  0  0  0  0  0  0  0  0  0  0
    4.6325    3.6748    0.0000 C   0  0  0  0  0  0  0  0  0  0  0  0
    5.3470    3.2623    0.0000 C   0  0  0  0  0  0  0  0  0  0  0  0
    6.0615    3.6748    0.0000 O   0  0  0  0  0  0  0  0  0  0  0  0
  1  2  1  0
  1  6  2  0
  1  7  1  0
  2  3  2  0
  2 14  1  0
  3  4  1  0
  4  5  2  0
  5  6  1  0
  6  9  1  0
  7  8  2  0
  8 10  1  0
  8 11  1  0
  9 10  2  0
 11 12  2  0
 11 13  1  0
 14 15  1  0
 15 16  2  0
 15 17  1  0
 17 18  2  0
 17 22  1  0
 18 19  1  0
 19 20  2  0
 20 21  1  0
 21 22  2  0
 21 23  1  0
 23 24  1  0
 23 25  2  0
 23 26  2  0
 24 27  1  0
 27 28  1  0
 28 29  1  0
 29 30  1  0
M  END
>  <DRUGBANK_ID>  (1) 
DB07022

>  <COMMON_NAME>  (1) 
3-Hydroxypropyl 3-[(7-carbamimidoyl-1-naphthyl)carbamoyl]benzenesulfonate

$$$$
