164
     RDKit          2D

 17 17  0  0  0  0  0  0  0  0999 V2000
   -2.4034    0.4108    0.0000 O   0  0  0  0  0  0  0  0  0  0  0  0
   -1.6889   -0.0017    0.0000 C   0  0  0  0  0  0  0  0  0  0  0  0
   -1.6889   -0.8267    0.0000 O   0  0  0  0  0  0  0  0  0  0  0  0
   -0.9744    0.4108    0.0000 C   0  0  0  0  0  0  0  0  0  0  0  0
   -0.9744    1.2358    0.0000 C   0  0  0  0  0  0  0  0  0  0  0  0
   -0.2600    1.6483    0.0000 C   0  0  0  0  0  0  0  0  0  0  0  0
    0.4545    1.2358    0.0000 C   0  0  0  0  0  0  0  0  0  0  0  0
    0.4545    0.4108    0.0000 C   0  0  0  0  0  0  0  0  0  0  0  0
   -1.6889    1.6483    0.0000 O   0  0  0  0  0  0  0  0  0  0  0  0
   -0.2600   -0.0017    0.0000 C   0  0  0  0  0  0  0  0  0  0  0  0
   -0.2600   -0.8267    0.0000 C   0  0  0  0  0  0  0  0  0  0  0  0
   -0.9744   -1.2392    0.0000 O   0  0  0  0  0  0  0  0  0  0  0  0
    0.4545   -1.2392    0.0000 C   0  0  0  0  0  0  0  0  0  0  0  0
    1.1690   -0.8267    0.0000 C   0  0  0  0  0  0  0  0  0  0  0  0
    1.8835   -1.2392    0.0000 C   0  0  0  0  0  0  0  0  0  0  0  0
    2.5979   -0.8267    0.0000 O   0  0  0  0  0  0  0  0  0  0  0  0
    1.8835   -2.0642    0.0000 O   0  0  0  0  0  0  0  0  0  0  0  0
  1  2  2  0
  2  3  1  0
  4  2  1  1
  4  5  1  0
  4 10  1  0
  5  6  1  0
  5  9  1  6
  6  7  2  0
  7  8  1  0
  8 10  2  0
 10 11  1  0
 11 12  2  0
 11 13  1  0
 13 14  1  0
 14 15  1  0
 15 16  1  0
 15 17  2  0
M  END
>  <DRUGBANK_ID>  (1) 
DB06864

>  <COMMON_NAME>  (1) 
2-(3-CARBOXYPROPIONYL)-6-HYDROXY-CYCLOHEXA-2,4-DIENE CARBOXYLIC ACID

$$$$
