
     RDKit          2D

 41 44  0  0  0  0  0  0  0  0999 V2000
   -3.8478    0.3709    0.0000 C   0  0  0  0  0  0  0  0  0  0  0  0
   -4.0193    1.1779    0.0000 C   0  0  0  0  0  0  0  0  0  0  0  0
   -4.8039    1.4328    0.0000 C   0  0  0  0  0  0  0  0  0  0  0  0
   -4.9754    2.2398    0.0000 C   0  0  0  0  0  0  0  0  0  0  0  0
   -4.3623    2.7918    0.0000 C   0  0  0  0  0  0  0  0  0  0  0  0
   -3.5777    2.5369    0.0000 C   0  0  0  0  0  0  0  0  0  0  0  0
   -3.4062    1.7299    0.0000 C   0  0  0  0  0  0  0  0  0  0  0  0
   -2.6216    1.4750    0.0000 C   0  0  0  0  0  0  0  0  0  0  0  0
   -2.4500    0.6680    0.0000 N   0  0  0  0  0  0  0  0  0  0  0  0
   -1.6654    0.4131    0.0000 C   0  0  0  0  0  0  0  0  0  0  0  0
   -1.0523    0.9651    0.0000 O   0  0  0  0  0  0  0  0  0  0  0  0
   -1.4939   -0.3938    0.0000 C   0  0  0  0  0  0  0  0  0  0  0  0
   -0.7402   -0.7293    0.0000 N   0  0  0  0  0  0  0  0  0  0  0  0
   -0.8265   -1.5498    0.0000 C   0  0  0  0  0  0  0  0  0  0  0  0
   -1.6334   -1.7214    0.0000 S   0  0  0  0  0  0  0  0  0  0  0  0
   -2.0459   -1.0069    0.0000 C   0  0  0  0  0  0  0  0  0  0  0  0
   -2.8031   -1.3345    0.0000 C   0  0  0  0  0  0  0  0  0  0  0  0
   -2.7184   -0.5290    0.0000 C   0  0  0  0  0  0  0  0  0  0  0  0
   -0.0258   -0.3168    0.0000 C   0  0  0  0  0  0  0  0  0  0  0  0
   -0.5107    0.3505    0.0000 O   0  0  0  0  0  0  0  0  0  0  0  0
    0.6886   -0.7293    0.0000 C   0  0  0  0  0  0  0  0  0  0  0  0
    0.6886   -1.5543    0.0000 O   0  0  0  0  0  0  0  0  0  0  0  0
    1.4031   -0.3168    0.0000 C   0  0  0  0  0  0  0  0  0  0  0  0
    1.4031    0.5081    0.0000 C   0  0  0  0  0  0  0  0  0  0  0  0
    0.6886    0.9206    0.0000 C   0  0  0  0  0  0  0  0  0  0  0  0
   -0.0258    0.5081    0.0000 C   0  0  0  0  0  0  0  0  0  0  0  0
   -0.7402    0.9206    0.0000 C   0  0  0  0  0  0  0  0  0  0  0  0
   -0.7402    1.7456    0.0000 C   0  0  0  0  0  0  0  0  0  0  0  0
   -0.0258    2.1581    0.0000 C   0  0  0  0  0  0  0  0  0  0  0  0
    0.6886    1.7456    0.0000 C   0  0  0  0  0  0  0  0  0  0  0  0
    2.1176   -0.7293    0.0000 N   0  0  0  0  0  0  0  0  0  0  0  0
    2.8320   -0.3168    0.0000 C   0  0  0  0  0  0  0  0  0  0  0  0
    2.8320    0.5081    0.0000 O   0  0  0  0  0  0  0  0  0  0  0  0
    3.5465   -0.7293    0.0000 C   0  0  0  0  0  0  0  0  0  0  0  0
    4.2610   -0.3168    0.0000 C   0  0  0  0  0  0  0  0  0  0  0  0
    4.9754   -0.7293    0.0000 C   0  0  0  0  0  0  0  0  0  0  0  0
    4.9754   -1.5543    0.0000 C   0  0  0  0  0  0  0  0  0  0  0  0
    4.2610   -1.9668    0.0000 C   0  0  0  0  0  0  0  0  0  0  0  0
    4.2610   -2.7918    0.0000 O   0  0  0  0  0  0  0  0  0  0  0  0
    3.5465   -1.5543    0.0000 C   0  0  0  0  0  0  0  0  0  0  0  0
    2.8320   -1.9668    0.0000 C   0  0  0  0  0  0  0  0  0  0  0  0
  1  2  1  0
  2  3  2  0
  2  7  1  0
  3  4  1  0
  4  5  2  0
  5  6  1  0
  6  7  2  0
  7  8  1  0
  8  9  1  0
  9 10  1  0
 10 11  2  0
 12 10  1  1
 12 13  1  0
 12 16  1  0
 13 14  1  0
 13 19  1  0
 14 15  1  0
 15 16  1  0
 16 17  1  0
 16 18  1  0
 19 20  2  0
 21 19  1  0
 21 22  1  6
 21 23  1  0
 23 24  1  6
 23 31  1  0
 24 25  1  0
 25 26  2  0
 25 30  1  0
 26 27  1  0
 27 28  2  0
 28 29  1  0
 29 30  2  0
 31 32  1  0
 32 33  2  0
 32 34  1  0
 34 35  2  0
 34 40  1  0
 35 36  1  0
 36 37  2  0
 37 38  1  0
 38 39  1  0
 38 40  2  0
 40 41  1  0
M  END
>  <DRUGBANK_ID>  (1) 
DB02668

>  <SECONDARY_ACCESSION_NUMBERS>  (1) 
EXPT01956

>  <COMMON_NAME>  (1) 
JE-2147

>  <CAS_NUMBER>  (1) 
186538-00-1

$$$$
