
     RDKit          2D

 41 46  0  0  1  0  0  0  0  0999 V2000
   -2.1619   -0.0024    0.0000 C   0  0  0  0  0  0  0  0  0  0  0  0
   -0.7408    0.1470    0.0000 C   0  0  0  0  0  0  0  0  0  0  0  0
   -8.2485   -5.5443    0.0000 C   0  0  0  0  0  0  0  0  0  0  0  0
   -7.3418   -6.2786    0.0000 C   0  0  0  0  0  0  0  0  0  0  0  0
   -7.5142   -4.6376    0.0000 C   0  0  0  0  0  0  0  0  0  0  0  0
   -3.6007   -2.8141    0.0000 C   0  0  0  0  0  0  0  0  0  0  0  0
   -6.1226   -6.0393    0.0000 C   0  0  0  0  0  0  0  0  0  0  0  0
   -5.3021   -5.9531    0.0000 C   0  0  0  0  0  0  0  0  0  0  0  0
   -3.5145   -3.6345    0.0000 C   0  0  0  0  0  0  0  0  0  0  0  0
   -2.8042   -1.5143    0.0000 C   0  0  0  0  0  0  0  0  0  0  0  0
   -2.1185   -2.4582    0.0000 C   0  0  0  0  0  0  0  0  0  0  0  0
   -6.2720   -4.6182    0.0000 C   0  0  0  0  0  0  0  0  0  0  0  0
   -0.5683   -1.4940    0.0000 C   0  0  0  0  0  0  0  0  0  0  0  0
    3.3523    1.1104    0.0000 C   0  0  0  0  0  0  0  0  0  0  0  0
    0.6538    1.5229    0.0000 C   0  0  0  0  0  0  0  0  0  0  0  0
   -1.4082   -0.3379    0.0000 C   0  0  0  0  0  0  0  0  0  0  0  0
   -2.9333   -2.3291    0.0000 C   0  0  0  0  0  0  0  0  0  0  0  0
   -6.6075   -5.3719    0.0000 C   0  0  0  0  0  0  0  0  0  0  0  0
   -1.9894   -1.6433    0.0000 C   0  0  0  0  0  0  0  0  0  0  0  0
   -4.9666   -5.1994    0.0000 C   0  0  0  0  0  0  0  0  0  0  0  0
   -5.4515   -4.5320    0.0000 C   0  0  0  0  0  0  0  0  0  0  0  0
    0.0992   -1.0091    0.0000 C   0  0  0  0  0  0  0  0  0  0  0  0
   -4.1819   -4.1195    0.0000 C   0  0  0  0  0  0  0  0  0  0  0  0
    1.9233    1.9354    0.0000 C   0  0  0  0  0  0  0  0  0  0  0  0
    0.8838   -1.2640    0.0000 C   0  0  0  0  0  0  0  0  0  0  0  0
    1.3687   -0.5966    0.0000 C   0  0  0  0  0  0  0  0  0  0  0  0
    2.6378    2.3479    0.0000 C   0  0  0  0  0  0  0  0  0  0  0  0
    1.9233    1.1104    0.0000 C   0  0  0  0  0  0  0  0  0  0  0  0
    0.8838    0.0709    0.0000 C   0  0  0  0  0  0  0  0  0  0  0  0
   -7.4280   -5.4581    0.0000 C   0  0  0  0  0  0  0  0  0  0  0  0
    2.6378    3.1729    0.0000 N   0  0  0  0  0  0  0  0  0  0  0  0
    3.3523    1.9354    0.0000 N   0  0  0  0  0  0  0  0  0  0  0  0
    2.6378    0.6979    0.0000 N   0  0  0  0  0  0  0  0  0  0  0  0
    1.1387    2.1904    0.0000 N   0  0  0  0  0  0  0  0  0  0  0  0
   -4.1819   -4.9445    0.0000 N   0  0  0  0  0  0  0  0  0  0  0  0
   -4.9666   -3.8645    0.0000 N   0  0  0  0  0  0  0  0  0  0  0  0
   -1.3220   -1.1584    0.0000 N   0  0  0  0  0  0  0  0  0  0  0  0
    1.1387    0.8555    0.0000 N   0  0  0  0  0  0  0  0  0  0  0  0
    1.1387   -2.0486    0.0000 O   0  0  0  0  0  0  0  0  0  0  0  0
    2.1937   -0.5966    0.0000 O   0  0  0  0  0  0  0  0  0  0  0  0
    0.0992   -0.1841    0.0000 O   0  0  0  0  0  0  0  0  0  0  0  0
  8  7  2  0
  9  6  1  0
 16  1  1  0
 16  2  1  0
 17  6  1  6
 17 10  1  0
 17 11  1  0
 18  7  1  0
 18 12  2  0
 19 10  1  0
 19 11  1  0
 19 37  1  6
 20  8  1  0
 21 12  1  0
 21 20  2  0
 22 13  1  1
 23  9  1  0
 25 22  1  0
 25 39  1  6
 26 25  1  0
 26 40  1  6
 27 24  2  0
 28 24  1  0
 29 26  1  0
 29 38  1  1
 30  3  1  0
 30  4  1  0
 30  5  1  0
 30 18  1  0
 31 27  1  0
 32 14  2  0
 32 27  1  0
 33 14  1  0
 33 28  2  0
 34 15  2  0
 34 24  1  0
 35 20  1  0
 35 23  2  0
 36 21  1  0
 36 23  1  0
 37 13  1  0
 37 16  1  0
 38 15  1  0
 38 28  1  0
 41 22  1  0
 41 29  1  0
M  END
>  <DRUGBANK_ID>  (1) 
DB12920

>  <COMMON_NAME>  (1) 
Pinometostat

>  <CAS_NUMBER>  (1) 
1380288-87-8

>  <UNII>  (1) 
8V9YR09EF3

>  <SYNONYMS>  (1) 
9H-PURIN-6-AMINE, 9-(5-DEOXY-5-((CIS-3-(2-(6-(1,1-DIMETHYLETHYL)-1H-BENZIMIDAZOL-2-YL)ETHYL)CYCLOBUTYL)(1-METHYLETHYL)AMINO)-.BETA.-D-RIBOFURANOSYL)-; Pinometostat; PINOMETOSTAT ANHYDROUS

$$$$
