
     RDKit          2D

 21 21  0  0  1  0  0  0  0  0999 V2000
   -0.8146   -1.4901    0.0000 C   0  0  0  0  0  0  0  0  0  0  0  0
   -0.3297   -0.8227    0.0000 C   0  0  0  0  0  0  0  0  0  0  0  0
    0.3378   -1.3076    0.0000 C   0  0  0  0  0  0  0  0  0  0  0  0
   -0.9971   -0.3378    0.0000 C   0  0  0  0  0  0  0  0  0  0  0  0
    0.1553   -0.1553    0.0000 C   0  0  0  0  0  0  0  0  0  0  0  0
   -0.0997    0.6294    0.0000 C   0  0  0  0  0  0  0  0  0  0  0  0
   -0.8843    0.8843    0.0000 C   0  0  0  0  0  0  0  0  0  0  0  0
   -1.4974    0.3323    0.0000 C   0  0  0  0  0  0  0  0  0  0  0  0
   -1.3259   -0.4747    0.0000 N   0  0  0  0  0  0  0  0  0  0  0  0
   -2.2820    0.5872    0.0000 C   0  0  0  0  0  0  0  0  0  0  0  0
   -2.8951    0.0352    0.0000 O   0  0  0  0  0  0  0  0  0  0  0  0
   -2.4535    1.3942    0.0000 O   0  0  0  0  0  0  0  0  0  0  0  0
    0.5678    1.1143    0.0000 C   0  0  0  0  0  0  0  0  0  0  0  0
    0.5678    1.9393    0.0000 O   0  0  0  0  0  0  0  0  0  0  0  0
    1.2822    2.3518    0.0000 C   0  0  0  0  0  0  0  0  0  0  0  0
    1.2822    3.1768    0.0000 P   0  0  0  0  0  0  0  0  0  0  0  0
    1.2822    4.0018    0.0000 O   0  0  0  0  0  0  0  0  0  0  0  0
    2.1072    3.1768    0.0000 O   0  0  0  0  0  0  0  0  0  0  0  0
    0.4572    3.1768    0.0000 O   0  0  0  0  0  0  0  0  0  0  0  0
    1.2352    0.6294    0.0000 N   0  0  0  0  0  0  0  0  0  0  0  0
    0.9803   -0.1553    0.0000 O   0  0  0  0  0  0  0  0  0  0  0  0
  1  2  1  0
  2  3  1  0
  2  4  1  0
  2  5  1  0
  5  6  2  0
  5 21  1  0
  6  7  1  0
  6 13  1  0
  7  8  1  0
  8  9  1  6
  8 10  1  0
 10 11  1  0
 10 12  2  0
 13 14  1  0
 13 20  2  0
 14 15  1  0
 15 16  1  0
 16 17  1  0
 16 18  1  0
 16 19  2  0
 20 21  1  0
M  END
>  <DRUGBANK_ID>  (1) 
DB02347

>  <SECONDARY_ACCESSION_NUMBERS>  (1) 
EXPT00578

>  <COMMON_NAME>  (1) 
2-Amino-3-(5-Tert-Butyl-3-(Phosphonomethoxy)-4-Isoxazolyl)Propionic Acid

$$$$
