L22
     RDKit          2D

 13 14  0  0  0  0  0  0  0  0999 V2000
    0.7116    2.2996    0.0000 N   0  0  0  0  0  0  0  0  0  0  0  0
    0.7116    1.4746    0.0000 C   0  0  0  0  0  0  0  0  0  0  0  0
    1.3790    0.9896    0.0000 S   0  0  0  0  0  0  0  0  0  0  0  0
    1.1241    0.2050    0.0000 C   0  0  0  0  0  0  0  0  0  0  0  0
    0.0442    0.9896    0.0000 N   0  0  0  0  0  0  0  0  0  0  0  0
    0.2991    0.2050    0.0000 C   0  0  0  0  0  0  0  0  0  0  0  0
   -0.1858   -0.4624    0.0000 C   0  0  0  0  0  0  0  0  0  0  0  0
    0.1497   -1.2161    0.0000 C   0  0  0  0  0  0  0  0  0  0  0  0
   -0.3352   -1.8835    0.0000 C   0  0  0  0  0  0  0  0  0  0  0  0
   -1.1557   -1.7973    0.0000 N   0  0  0  0  0  0  0  0  0  0  0  0
   -1.4912   -1.0436    0.0000 C   0  0  0  0  0  0  0  0  0  0  0  0
   -1.0063   -0.3762    0.0000 N   0  0  0  0  0  0  0  0  0  0  0  0
   -2.3117   -0.9574    0.0000 N   0  0  0  0  0  0  0  0  0  0  0  0
  1  2  1  0
  2  3  1  0
  2  5  2  0
  3  4  1  0
  4  6  2  0
  5  6  1  0
  6  7  1  0
  7  8  2  0
  7 12  1  0
  8  9  1  0
  9 10  2  0
 10 11  1  0
 11 12  2  0
 11 13  1  0
M  END
>  <DRUGBANK_ID>  (1) 
DB08075

>  <COMMON_NAME>  (1) 
4-(2-amino-1,3-thiazol-4-yl)pyrimidin-2-amine

$$$$
