
     RDKit          2D

 14 15  0  0  0  0  0  0  0  0999 V2000
   -0.0340   -2.1825    0.0000 C   0  0  0  0  0  0  0  0  0  0  0  0
    0.2481   -1.4072    0.0000 O   0  0  0  0  0  0  0  0  0  0  0  0
   -0.2822   -0.7752    0.0000 C   0  0  0  0  0  0  0  0  0  0  0  0
   -0.0000    0.0000    0.0000 C   0  0  0  0  0  0  0  0  0  0  0  0
    0.0000    0.8250    0.0000 C   0  0  0  0  0  0  0  0  0  0  0  0
   -0.7145    1.2375    0.0000 O   0  0  0  0  0  0  0  0  0  0  0  0
    0.7145    1.2375    0.0000 C   0  0  0  0  0  0  0  0  0  0  0  0
    1.4289    0.8250    0.0000 C   0  0  0  0  0  0  0  0  0  0  0  0
    1.4289    0.0000    0.0000 C   0  0  0  0  0  0  0  0  0  0  0  0
    0.7145   -0.4125    0.0000 N   0  0  0  0  0  0  0  0  0  0  0  0
    0.8520    0.1375    0.0000 C   0  0  0  0  0  0  0  0  0  0  0  0
    0.8520    0.6875    0.0000 C   0  0  0  0  0  0  0  0  0  0  0  0
   -0.8125    0.1433    0.0000 C   0  0  0  0  0  0  0  0  0  0  0  0
   -1.3428   -0.4887    0.0000 O   0  0  0  0  0  0  0  0  0  0  0  0
  1  2  1  0
  2  3  1  0
  3  4  1  0
  4  5  1  0
  4 10  1  0
  4 13  1  0
  5  6  2  0
  5  7  1  0
  7  8  1  0
  7 12  1  0
  8  9  1  0
  9 10  1  0
 10 11  1  0
 11 12  1  0
 13 14  1  0
M  END
>  <DRUGBANK_ID>  (1) 
DB11684

>  <COMMON_NAME>  (1) 
Eprenetapopt

>  <CAS_NUMBER>  (1) 
5291-32-7

>  <UNII>  (1) 
Z41TGB4080

>  <SYNONYMS>  (1) 
1-Azabicyclo(2.2.2)octan-3-one, 2-(hydroxymethyl)-2-(methoxymethyl)-; 2-(hydroxymethyl)-2-(methoxymethyl)-1-azabicyclo[2.2.2]octan-3-one; 2-hydroxymethyl-2-methoxymethyl-1-azabicyclo[2,2,2]octan-3-one; 3-QUINUCLIDINONE, 2-(HYDROXYMETHYL)-2-(METHOXYMETHYL)-

$$$$
