
     RDKit          2D

 15 16  0  0  1  0  0  0  0  0999 V2000
    0.7145    0.4125    0.0000 N   0  0  0  0  0  0  0  0  0  0  0  0
    0.7145   -0.4125    0.0000 C   0  0  0  0  0  0  0  0  0  0  0  0
   -0.7145   -0.4125    0.0000 C   0  0  0  0  0  0  0  0  0  0  0  0
    0.0000   -0.8250    0.0000 C   0  0  0  0  0  0  0  0  0  0  0  0
   -0.7145    0.4125    0.0000 C   0  0  0  0  0  0  0  0  0  0  0  0
    0.0000   -1.6500    0.0000 C   0  0  0  0  0  0  0  0  0  0  0  0
   -1.4289    0.8250    0.0000 C   0  0  0  0  0  0  0  0  0  0  0  0
    1.4991   -0.6674    0.0000 C   0  0  0  0  0  0  0  0  0  0  0  0
   -2.1434    0.4125    0.0000 C   0  0  0  0  0  0  0  0  0  0  0  0
    1.9840    0.0000    0.0000 N   0  0  0  0  0  0  0  0  0  0  0  0
    1.4991    0.6674    0.0000 C   0  0  0  0  0  0  0  0  0  0  0  0
   -1.4289   -0.8250    0.0000 C   0  0  0  0  0  0  0  0  0  0  0  0
   -1.4289   -1.6500    0.0000 C   0  0  0  0  0  0  0  0  0  0  0  0
   -2.1434   -0.4125    0.0000 C   0  0  0  0  0  0  0  0  0  0  0  0
   -2.8579   -0.8250    0.0000 C   0  0  0  0  0  0  0  0  0  0  0  0
  1 11  2  0
  2  1  1  0
  2  8  2  0
  3 12  1  0
  3  5  2  0
  4  3  1  0
  4  2  1  0
  4  6  1  1
  5  7  1  0
  7  9  2  0
  8 10  1  0
 10 11  1  0
 12 14  2  0
 12 13  1  0
 14  9  1  0
 14 15  1  0
M  END
>  <DRUGBANK_ID>  (1) 
DB00633

>  <SECONDARY_ACCESSION_NUMBERS>  (1) 
APRD00578

>  <COMMON_NAME>  (1) 
Dexmedetomidine

>  <CAS_NUMBER>  (1) 
113775-47-6

>  <UNII>  (1) 
67VB76HONO

>  <SYNONYMS>  (1) 
(+)-4-((S)-alpha,2,3-Trimethylbenzyl)imidazole; (+)-4-((S)-α,2,3-trimethylbenzyl)imidazole; Dexmedetomidin; Dexmedetomidina; Dexmédétomidine; Dexmedetomidine; Dexmedetomidinum

$$$$
