
     RDKit          2D

 31 34  0  0  1  0  0  0  0  0999 V2000
   -1.4526   -6.8612    0.0000 C   0  0  0  0  0  0  0  0  0  0  0  0
   -1.2691   -6.0569    0.0000 C   0  0  0  0  0  0  0  0  0  0  0  0
   -1.8738   -5.4957    0.0000 O   0  0  0  0  0  0  0  0  0  0  0  0
   -1.6902   -4.6914    0.0000 C   0  0  0  0  0  0  0  0  0  0  0  0
   -2.2950   -4.1303    0.0000 C   0  0  0  0  0  0  0  0  0  0  0  0
   -2.1114   -3.3260    0.0000 C   0  0  0  0  0  0  0  0  0  0  0  0
   -1.3231   -3.0828    0.0000 C   0  0  0  0  0  0  0  0  0  0  0  0
   -0.7183   -3.6439    0.0000 C   0  0  0  0  0  0  0  0  0  0  0  0
   -0.9019   -4.4482    0.0000 C   0  0  0  0  0  0  0  0  0  0  0  0
   -0.2971   -5.0094    0.0000 F   0  0  0  0  0  0  0  0  0  0  0  0
   -1.1395   -2.2785    0.0000 C   0  0  0  0  0  0  0  0  0  0  0  0
   -0.3512   -2.0353    0.0000 C   0  0  0  0  0  0  0  0  0  0  0  0
   -0.1676   -1.2310    0.0000 C   0  0  0  0  0  0  0  0  0  0  0  0
    0.6208   -0.9878    0.0000 C   0  0  0  0  0  0  0  0  0  0  0  0
    1.2255   -1.5490    0.0000 C   0  0  0  0  0  0  0  0  0  0  0  0
    1.0420   -2.3533    0.0000 C   0  0  0  0  0  0  0  0  0  0  0  0
    0.2536   -2.5964    0.0000 C   0  0  0  0  0  0  0  0  0  0  0  0
    0.0700   -3.4008    0.0000 Cl  0  0  0  0  0  0  0  0  0  0  0  0
    0.8044   -0.1835    0.0000 C   0  0  0  0  0  0  0  0  0  0  0  0
    1.6087    0.0001    0.0000 C   0  0  0  0  0  0  0  0  0  0  0  0
    1.9666    0.7434    0.0000 C   0  0  0  0  0  0  0  0  0  0  0  0
    1.6087    1.4867    0.0000 C   0  0  0  0  0  0  0  0  0  0  0  0
    0.8044    1.6703    0.0000 C   0  0  0  0  0  0  0  0  0  0  0  0
    1.0361    0.7434    0.0000 O   0  0  0  0  0  0  0  0  0  0  0  0
    0.1593    1.1559    0.0000 C   0  0  0  0  0  0  0  0  0  0  0  0
    0.1593    0.3309    0.0000 O   0  0  0  0  0  0  0  0  0  0  0  0
    0.6208    2.4746    0.0000 C   0  0  0  0  0  0  0  0  0  0  0  0
   -0.1676    2.7178    0.0000 O   0  0  0  0  0  0  0  0  0  0  0  0
    2.1231    2.1317    0.0000 O   0  0  0  0  0  0  0  0  0  0  0  0
    2.7916    0.7434    0.0000 O   0  0  0  0  0  0  0  0  0  0  0  0
    2.1231   -0.6449    0.0000 O   0  0  0  0  0  0  0  0  0  0  0  0
  1  2  1  0
  2  3  1  0
  3  4  1  0
  4  5  2  0
  4  9  1  0
  5  6  1  0
  6  7  2  0
  7  8  1  0
  7 11  1  0
  8  9  2  0
  9 10  1  0
 11 12  1  0
 12 13  2  0
 12 17  1  0
 13 14  1  0
 14 15  2  0
 15 16  1  0
 16 17  2  0
 17 18  1  0
 19 14  1  1
 19 20  1  0
 19 24  1  0
 19 26  1  0
 20 21  1  0
 20 31  1  1
 21 22  1  0
 21 30  1  6
 22 23  1  0
 22 29  1  1
 23 24  1  0
 23 25  1  0
 23 27  1  1
 25 26  1  0
 27 28  1  0
M  END
>  <DRUGBANK_ID>  (1) 
DB11939

>  <COMMON_NAME>  (1) 
Henagliflozin

>  <CAS_NUMBER>  (1) 
1623804-44-3

>  <UNII>  (1) 
21P2M98388

$$$$
