
     RDKit          2D

 31 34  0  0  1  0  0  0  0  0999 V2000
    0.7179    2.0361    0.0000 C   0  0  0  0  0  0  0  0  0  0  0  0
    3.2789   -3.7125    0.0000 C   0  0  0  0  0  0  0  0  0  0  0  0
    4.1039   -2.8875    0.0000 C   0  0  0  0  0  0  0  0  0  0  0  0
    1.5249    1.8646    0.0000 C   0  0  0  0  0  0  0  0  0  0  0  0
    1.8500    4.5375    0.0000 C   0  0  0  0  0  0  0  0  0  0  0  0
    1.8500    3.7125    0.0000 C   0  0  0  0  0  0  0  0  0  0  0  0
    3.2789   -1.2375    0.0000 C   0  0  0  0  0  0  0  0  0  0  0  0
    3.2789   -2.0625    0.0000 C   0  0  0  0  0  0  0  0  0  0  0  0
    2.5645    4.9500    0.0000 C   0  0  0  0  0  0  0  0  0  0  0  0
    3.2789    3.7125    0.0000 C   0  0  0  0  0  0  0  0  0  0  0  0
    3.9934    0.8250    0.0000 C   0  0  0  0  0  0  0  0  0  0  0  0
    2.5645    2.4750    0.0000 C   0  0  0  0  0  0  0  0  0  0  0  0
    2.5645    3.3000    0.0000 C   0  0  0  0  0  0  0  0  0  0  0  0
    3.2789   -0.4125    0.0000 C   0  0  0  0  0  0  0  0  0  0  0  0
    3.2789    1.2375    0.0000 C   0  0  0  0  0  0  0  0  0  0  0  0
    2.5645    0.0000    0.0000 C   0  0  0  0  0  0  0  0  0  0  0  0
    0.4699    0.4125    0.0000 C   0  0  0  0  0  0  0  0  0  0  0  0
    2.5645    0.8250    0.0000 C   0  0  0  0  0  0  0  0  0  0  0  0
   -0.0150    1.0799    0.0000 C   0  0  0  0  0  0  0  0  0  0  0  0
    1.2949    0.4125    0.0000 C   0  0  0  0  0  0  0  0  0  0  0  0
    3.2789   -2.8875    0.0000 C   0  0  0  0  0  0  0  0  0  0  0  0
    0.2399    1.8646    0.0000 N   0  0  0  0  0  0  0  0  0  0  0  0
    3.2789    4.5375    0.0000 N   0  0  0  0  0  0  0  0  0  0  0  0
    3.9934    0.0000    0.0000 N   0  0  0  0  0  0  0  0  0  0  0  0
    1.7798   -0.2549    0.0000 N   0  0  0  0  0  0  0  0  0  0  0  0
   -0.0150   -0.2549    0.0000 N   0  0  0  0  0  0  0  0  0  0  0  0
   -0.7996    0.8250    0.0000 N   0  0  0  0  0  0  0  0  0  0  0  0
    1.7798    1.0799    0.0000 N   0  0  0  0  0  0  0  0  0  0  0  0
    2.4539   -2.8875    0.0000 O   0  0  0  0  0  0  0  0  0  0  0  0
    3.2789    2.0625    0.0000 O   0  0  0  0  0  0  0  0  0  0  0  0
   -0.7996    0.0000    0.0000 O   0  0  0  0  0  0  0  0  0  0  0  0
  4  1  1  0
  6  5  1  0
  8  7  3  0
  9  5  1  0
 13  6  1  0
 13 10  1  0
 13 12  1  1
 14  7  1  0
 15 11  2  0
 16 14  1  0
 18 15  1  0
 18 16  2  0
 19 17  1  0
 20 17  1  0
 21  2  1  0
 21  3  1  0
 21  8  1  0
 22 19  1  0
 23  9  1  0
 23 10  1  0
 24 11  1  0
 24 14  2  0
 25 16  1  0
 25 20  2  0
 26 17  2  0
 27 19  2  0
 28  4  1  0
 28 18  1  0
 28 20  1  0
 29 21  1  0
 30 12  1  0
 30 15  1  0
 31 26  1  0
 31 27  1  0
M  END
>  <DRUGBANK_ID>  (1) 
DB12745

>  <COMMON_NAME>  (1) 
GSK-690693

>  <CAS_NUMBER>  (1) 
937174-76-0

>  <UNII>  (1) 
GWH480321B

$$$$
