FCF
     RDKit          2D

 25 26  0  0  0  0  0  0  0  0999 V2000
   -4.1044    3.2887    0.0000 O   0  0  0  0  0  0  0  0  0  0  0  0
   -3.3899    2.8762    0.0000 C   0  0  0  0  0  0  0  0  0  0  0  0
   -2.6754    3.2887    0.0000 O   0  0  0  0  0  0  0  0  0  0  0  0
   -3.3899    2.0512    0.0000 C   0  0  0  0  0  0  0  0  0  0  0  0
   -4.1044    1.6387    0.0000 C   0  0  0  0  0  0  0  0  0  0  0  0
   -4.1044    0.8137    0.0000 C   0  0  0  0  0  0  0  0  0  0  0  0
   -2.6754    1.6387    0.0000 C   0  0  0  0  0  0  0  0  0  0  0  0
   -2.6754    0.8137    0.0000 C   0  0  0  0  0  0  0  0  0  0  0  0
   -3.3899    0.4012    0.0000 C   0  0  0  0  0  0  0  0  0  0  0  0
   -1.9610    0.4012    0.0000 C   0  0  0  0  0  0  0  0  0  0  0  0
   -1.9610   -0.4238    0.0000 N   0  0  0  0  0  0  0  0  0  0  0  0
   -1.2465   -0.8363    0.0000 O   0  0  0  0  0  0  0  0  0  0  0  0
   -0.5320   -0.4238    0.0000 C   0  0  0  0  0  0  0  0  0  0  0  0
    0.1824   -0.8363    0.0000 C   0  0  0  0  0  0  0  0  0  0  0  0
    0.8969   -0.4238    0.0000 O   0  0  0  0  0  0  0  0  0  0  0  0
    1.6114   -0.8363    0.0000 N   0  0  0  0  0  0  0  0  0  0  0  0
    2.3259   -0.4238    0.0000 C   0  0  0  0  0  0  0  0  0  0  0  0
    3.0403   -0.8363    0.0000 C   0  0  0  0  0  0  0  0  0  0  0  0
    3.0403   -1.6613    0.0000 N   0  0  0  0  0  0  0  0  0  0  0  0
    3.7548   -0.4238    0.0000 C   0  0  0  0  0  0  0  0  0  0  0  0
    4.4693   -0.8363    0.0000 C   0  0  0  0  0  0  0  0  0  0  0  0
    5.1837   -0.4238    0.0000 O   0  0  0  0  0  0  0  0  0  0  0  0
    4.4693   -1.6613    0.0000 N   0  0  0  0  0  0  0  0  0  0  0  0
    3.7548   -2.0738    0.0000 C   0  0  0  0  0  0  0  0  0  0  0  0
    3.7548   -2.8988    0.0000 O   0  0  0  0  0  0  0  0  0  0  0  0
  2  1  1  0
  3  2  2  0
  4  2  1  0
  4  7  2  0
  5  4  1  0
  6  5  2  0
  6  9  1  0
  8  7  1  0
  8 10  1  0
  9  8  2  0
 11 10  2  0
 11 12  1  0
 13 12  1  0
 13 14  1  0
 14 15  1  0
 15 16  1  0
 16 17  2  0
 17 18  1  0
 18 20  2  0
 19 18  1  0
 19 24  1  0
 20 21  1  0
 21 22  2  0
 23 21  1  0
 24 23  1  0
 25 24  2  0
M  END
>  <DRUGBANK_ID>  (1) 
DB07760

>  <COMMON_NAME>  (1) 
3-[(1E,7E)-8-(2,6-dioxo-1,2,3,6-tetrahydropyrimidin-4-yl)-3,6-dioxa-2,7-diazaocta-1,7-dien-1-yl]benzoic acid

$$$$
