F6F
     RDKit          2D

 21 21  0  0  0  0  0  0  0  0999 V2000
   -2.1831    0.4089    0.0000 C   0  0  0  0  0  0  0  0  0  0  0  0
   -1.4686    0.8214    0.0000 C   0  0  0  0  0  0  0  0  0  0  0  0
   -0.7541    0.4089    0.0000 C   0  0  0  0  0  0  0  0  0  0  0  0
   -0.7541   -0.4161    0.0000 C   0  0  0  0  0  0  0  0  0  0  0  0
   -1.4686   -0.8286    0.0000 C   0  0  0  0  0  0  0  0  0  0  0  0
   -2.1831   -0.4161    0.0000 C   0  0  0  0  0  0  0  0  0  0  0  0
   -2.8976    0.8214    0.0000 O   0  0  0  0  0  0  0  0  0  0  0  0
   -3.6120    0.4089    0.0000 C   0  0  0  0  0  0  0  0  0  0  0  0
   -4.3265   -0.0036    0.0000 F   0  0  0  0  0  0  0  0  0  0  0  0
   -3.1995   -0.3055    0.0000 F   0  0  0  0  0  0  0  0  0  0  0  0
   -4.0245    1.1234    0.0000 F   0  0  0  0  0  0  0  0  0  0  0  0
   -0.0397   -0.8286    0.0000 C   0  0  0  0  0  0  0  0  0  0  0  0
    0.6748   -0.4161    0.0000 N   0  0  0  0  0  0  0  0  0  0  0  0
   -0.0397   -1.6536    0.0000 O   0  0  0  0  0  0  0  0  0  0  0  0
    1.3893   -0.8286    0.0000 C   0  0  0  0  0  0  0  0  0  0  0  0
    2.1037   -0.4161    0.0000 C   0  0  0  0  0  0  0  0  0  0  0  0
    2.8182   -0.8286    0.0000 O   0  0  0  0  0  0  0  0  0  0  0  0
    3.5327   -0.4161    0.0000 P   0  0  0  0  0  0  0  0  0  0  0  0
    4.2472   -0.0036    0.0000 O   0  0  0  0  0  0  0  0  0  0  0  0
    3.9452   -1.1305    0.0000 O   0  0  0  0  0  0  0  0  0  0  0  0
    3.1202    0.2984    0.0000 O   0  0  0  0  0  0  0  0  0  0  0  0
  1  2  2  0
  1  6  1  0
  1  7  1  0
  2  3  1  0
  3  4  2  0
  4  5  1  0
  4 12  1  0
  5  6  2  0
  7  8  1  0
  8  9  1  0
  8 10  1  0
  8 11  1  0
 12 13  1  0
 12 14  2  0
 13 15  1  0
 15 16  1  0
 16 17  1  0
 17 18  1  0
 18 19  1  0
 18 20  2  0
 18 21  1  0
M  END
>  <DRUGBANK_ID>  (1) 
DB07745

>  <COMMON_NAME>  (1) 
2-{[4-(TRIFLUOROMETHOXY)BENZOYL]AMINO}ETHYL DIHYDROGEN PHOSPHATE

$$$$
