
     RDKit          2D

 11 10  0  0  0  0  0  0  0  0999 V2000
    0.0000   -0.8250    0.0000 N   0  0  0  0  0  0  0  0  0  0  0  0
    0.7145   -1.2374    0.0000 C   0  0  0  0  0  0  0  0  0  0  0  0
   -0.7146   -1.2375    0.0000 C   0  0  0  0  0  0  0  0  0  0  0  0
    0.0000    0.0000    0.0000 C   0  0  0  0  0  0  0  0  0  0  0  0
    1.4289   -0.8249    0.0000 C   0  0  0  0  0  0  0  0  0  0  0  0
   -1.4290   -0.8250    0.0000 C   0  0  0  0  0  0  0  0  0  0  0  0
   -0.7146    0.4125    0.0000 C   0  0  0  0  0  0  0  0  0  0  0  0
    2.1435   -1.2374    0.0000 O   0  0  0  0  0  0  0  0  0  0  0  0
    1.4289    0.0001    0.0000 O   0  0  0  0  0  0  0  0  0  0  0  0
   -2.1435   -1.2376    0.0000 O   0  0  0  0  0  0  0  0  0  0  0  0
   -0.7147    1.2376    0.0000 O   0  0  0  0  0  0  0  0  0  0  0  0
  1  2  1  0
  1  3  1  0
  1  4  1  0
  2  5  1  0
  3  6  1  0
  4  7  1  0
  5  8  1  0
  5  9  2  0
  6 10  1  0
  7 11  1  0
M  END
>  <DRUGBANK_ID>  (1) 
DB03709

>  <SECONDARY_ACCESSION_NUMBERS>  (1) 
EXPT00641

>  <COMMON_NAME>  (1) 
Bicine

>  <CAS_NUMBER>  (1) 
150-25-4

>  <UNII>  (1) 
1J484QFI1O

>  <SYNONYMS>  (1) 
Bicene; Diethanol glycine; Diethylolglycine; Dihydroxyethylglycine; N,N-Dihydroxyethyl glycine; N,N-Dihydroxyethylglycine

$$$$
