
     RDKit          2D

 26 29  0  0  0  0  0  0  0  0999 V2000
    0.3221   -1.5712    0.0000 C   0  0  0  0  0  0  0  0  0  0  0  0
   -0.3924   -1.9836    0.0000 C   0  0  0  0  0  0  0  0  0  0  0  0
   -1.1068   -1.5712    0.0000 C   0  0  0  0  0  0  0  0  0  0  0  0
   -1.8213   -1.9836    0.0000 C   0  0  0  0  0  0  0  0  0  0  0  0
   -2.5358   -0.7462    0.0000 C   0  0  0  0  0  0  0  0  0  0  0  0
   -1.8213   -0.3337    0.0000 C   0  0  0  0  0  0  0  0  0  0  0  0
   -1.1068   -0.7462    0.0000 C   0  0  0  0  0  0  0  0  0  0  0  0
    0.3221    0.9037    0.0000 C   0  0  0  0  0  0  0  0  0  0  0  0
    2.3062    0.0787    0.0000 C   0  0  0  0  0  0  0  0  0  0  0  0
    1.8212   -0.5886    0.0000 C   0  0  0  0  0  0  0  0  0  0  0  0
   -0.3924   -0.3337    0.0000 C   0  0  0  0  0  0  0  0  0  0  0  0
    1.0366   -0.3337    0.0000 C   0  0  0  0  0  0  0  0  0  0  0  0
    0.3221   -0.7462    0.0000 C   0  0  0  0  0  0  0  0  0  0  0  0
    1.0366    0.4912    0.0000 C   0  0  0  0  0  0  0  0  0  0  0  0
    1.8212    0.7462    0.0000 C   0  0  0  0  0  0  0  0  0  0  0  0
   -2.5358   -1.5712    0.0000 C   0  0  0  0  0  0  0  0  0  0  0  0
   -3.2502   -1.9837    0.0000 O   0  0  0  0  0  0  0  0  0  0  0  0
   -0.3924    0.4912    0.0000 C   0  0  0  0  0  0  0  0  0  0  0  0
   -1.1069    0.9037    0.0000 O   0  0  0  0  0  0  0  0  0  0  0  0
    1.8212    1.5712    0.0000 C   0  0  0  0  0  0  0  0  0  0  0  0
    1.1068    1.9837    0.0000 O   0  0  0  0  0  0  0  0  0  0  0  0
    2.5358    1.9837    0.0000 C   0  0  0  0  0  0  0  0  0  0  0  0
    3.2503    1.5712    0.0000 O   0  0  0  0  0  0  0  0  0  0  0  0
    2.5358    1.1587    0.0000 O   0  0  0  0  0  0  0  0  0  0  0  0
   -1.1068    0.0787    0.0000 C   0  0  0  0  0  0  0  0  0  0  0  0
    1.0366    1.3162    0.0000 C   0  0  0  0  0  0  0  0  0  0  0  0
  1  2  1  0
  2  3  1  0
  3  4  2  0
  3  7  1  0
  4 16  1  0
  5  6  1  0
  6  7  1  0
  7 11  1  0
  7 25  1  1
  8 14  1  0
  9 10  1  0
 12 10  1  1
 11 18  1  1
 13  1  1  6
 13 11  1  0
 13 12  1  0
 14 15  1  0
 14 12  1  0
 14 26  1  1
 15  9  1  0
 15 24  1  6
 15 20  1  0
 16  5  1  0
 16 17  2  0
 18  8  1  0
 18 19  2  0
 20 22  1  0
 20 21  2  0
 22 23  1  0
M  END
>  <DRUGBANK_ID>  (1) 
DB14681

>  <COMMON_NAME>  (1) 
Cortisone

>  <CAS_NUMBER>  (1) 
53-06-5

>  <UNII>  (1) 
V27W9254FZ

>  <SYNONYMS>  (1) 
11-dehydro-17-hydroxycorticosterone; 17alpha,21-Dihydroxy-4-pregnene-3,11,20-trione; 17α,21-dihydroxy-4-pregnene-3,11,20-trione; 4-pregnene-17α,21-diol-3,11,20-trione; Cortisona; Cortisone; Cortisonum; Kendall's compound E; Kortison; pregn-4-en-17α,21-diol-3,11,20-trione; Reichstein's substance Fa; Wintersteiner's compound F

$$$$
