
     RDKit          2D

 21 21  0  0  0  0  0  0  0  0999 V2000
    0.5678    1.9393    0.0000 C   0  0  0  0  0  0  0  0  0  0  0  0
    0.5678    1.1143    0.0000 N   0  0  0  0  0  0  0  0  0  0  0  0
    1.2352    0.6294    0.0000 C   0  0  0  0  0  0  0  0  0  0  0  0
    0.9803   -0.1553    0.0000 C   0  0  0  0  0  0  0  0  0  0  0  0
    0.1553   -0.1553    0.0000 N   0  0  0  0  0  0  0  0  0  0  0  0
   -0.0997    0.6294    0.0000 C   0  0  0  0  0  0  0  0  0  0  0  0
   -0.8843    0.8843    0.0000 N   0  0  0  0  0  0  0  0  0  0  0  0
   -1.4974    0.3323    0.0000 O   0  0  0  0  0  0  0  0  0  0  0  0
   -1.0558    1.6913    0.0000 O   0  0  0  0  0  0  0  0  0  0  0  0
    2.0198    0.8843    0.0000 C   0  0  0  0  0  0  0  0  0  0  0  0
    2.1913    1.6913    0.0000 O   0  0  0  0  0  0  0  0  0  0  0  0
    2.9760    1.9462    0.0000 P   0  0  0  0  0  0  0  0  0  0  0  0
    3.2309    1.1616    0.0000 O   0  0  0  0  0  0  0  0  0  0  0  0
    3.7606    2.2012    0.0000 N   0  0  0  0  0  0  0  0  0  0  0  0
    4.3737    1.6491    0.0000 C   0  0  0  0  0  0  0  0  0  0  0  0
    4.2022    0.8421    0.0000 C   0  0  0  0  0  0  0  0  0  0  0  0
    4.8153    0.2901    0.0000 Br  0  0  0  0  0  0  0  0  0  0  0  0
    2.7210    2.7308    0.0000 N   0  0  0  0  0  0  0  0  0  0  0  0
    3.2731    3.3439    0.0000 C   0  0  0  0  0  0  0  0  0  0  0  0
    4.0800    3.1724    0.0000 C   0  0  0  0  0  0  0  0  0  0  0  0
    4.6321    3.7855    0.0000 Br  0  0  0  0  0  0  0  0  0  0  0  0
  1  2  1  0
  2  3  1  0
  2  6  1  0
  3  4  2  0
  3 10  1  0
  4  5  1  0
  5  6  2  0
  6  7  1  0
  7  8  2  0
  7  9  1  0
 10 11  1  0
 11 12  1  0
 12 13  2  0
 12 14  1  0
 12 18  1  0
 14 15  1  0
 15 16  1  0
 16 17  1  0
 18 19  1  0
 19 20  1  0
 20 21  1  0
M  CHG  2   7   1   9  -1
M  END
>  <DRUGBANK_ID>  (1) 
DB06091

>  <COMMON_NAME>  (1) 
Evofosfamide

>  <CAS_NUMBER>  (1) 
918633-87-1

>  <UNII>  (1) 
8A9RZ3HN8W

>  <SYNONYMS>  (1) 
(1-methyl-2-nitro-1H-imidazol-5-YL)methyl N,N'-bis(2-bromoethyl)diamidophosphate; (1-methyl-2-nitro-1H-imidazole-5-yl)methyl N,N'-bis(2-bromoethyl) diamidophosphate; Evofosfamide

$$$$
