
     RDKit          2D

 14 13  0  0  0  0  0  0  0  0999 V2000
   -0.7144   -0.2062    0.0000 C   0  0  0  0  0  0  0  0  0  0  0  0
   -1.4288    0.2062    0.0000 C   0  0  0  0  0  0  0  0  0  0  0  0
   -0.7144   -1.0312    0.0000 C   0  0  0  0  0  0  0  0  0  0  0  0
    0.0000    0.2062    0.0000 S   0  0  0  0  0  0  0  0  0  0  0  0
   -2.1433   -0.2062    0.0000 C   0  0  0  0  0  0  0  0  0  0  0  0
   -1.4288    1.0312    0.0000 C   0  0  0  0  0  0  0  0  0  0  0  0
   -1.4288   -1.4437    0.0000 C   0  0  0  0  0  0  0  0  0  0  0  0
    0.7145   -0.2062    0.0000 Hg  0  0  0  0  0  2  0  0  0  0  0  0
   -2.1433   -1.0312    0.0000 C   0  0  0  0  0  0  0  0  0  0  0  0
   -2.1433    1.4437    0.0000 O   0  0  0  0  0  0  0  0  0  0  0  0
   -0.7144    1.4437    0.0000 O   0  0  0  0  0  0  0  0  0  0  0  0
    1.4289    0.2062    0.0000 C   0  0  0  0  0  0  0  0  0  0  0  0
    2.1434   -0.2062    0.0000 C   0  0  0  0  0  0  0  0  0  0  0  0
    0.7632    1.3635    0.0000 Na  0  0  0  0  0 15  0  0  0  0  0  0
  1  2  2  0
  1  3  1  0
  1  4  1  0
  2  5  1  0
  2  6  1  0
  3  7  2  0
  4  8  1  0
  5  9  2  0
  6 10  2  0
  6 11  1  0
  7  9  1  0
  8 12  1  0
 12 13  1  0
M  CHG  2  11  -1  14   1
M  END
>  <DRUGBANK_ID>  (1) 
DB11590

>  <COMMON_NAME>  (1) 
Thimerosal

>  <CAS_NUMBER>  (1) 
54-64-8

>  <UNII>  (1) 
2225PI3MOV

>  <SYNONYMS>  (1) 
[(o-carboxyphenyl)thio]ethylmercury sodium salt; BTL-TML-COVID; BTL-TML-HSV; BTL-TML001; ethyl(2-mercaptobenzoato-S)mercury sodium salt; ethylmercurithiosalicylate sodium; ethylmercurithiosalicylic acid sodium salt; mercurothiolate; o-(ethylmercurithio)benzoic acid sodium salt; sodium ethylmercurithiosalicylate; sodium merthiolate; Thimerosal; Thiomersal; Thiomersalate; Thiomersalum; Tiomersal

$$$$
