8CA
     RDKit          2D

 23 26  0  0  0  0  0  0  0  0999 V2000
   -1.4057   -1.3891    0.0000 O   0  0  0  0  0  0  0  0  0  0  0  0
   -1.9577   -0.7760    0.0000 C   0  0  0  0  0  0  0  0  0  0  0  0
   -2.7647   -0.9476    0.0000 O   0  0  0  0  0  0  0  0  0  0  0  0
   -1.7027    0.0086    0.0000 C   0  0  0  0  0  0  0  0  0  0  0  0
   -2.2548    0.6217    0.0000 C   0  0  0  0  0  0  0  0  0  0  0  0
   -1.9998    1.4063    0.0000 C   0  0  0  0  0  0  0  0  0  0  0  0
   -1.1929    1.5778    0.0000 C   0  0  0  0  0  0  0  0  0  0  0  0
   -0.6408    0.9647    0.0000 C   0  0  0  0  0  0  0  0  0  0  0  0
    0.1842    0.9647    0.0000 C   0  0  0  0  0  0  0  0  0  0  0  0
    0.7362    1.5778    0.0000 C   0  0  0  0  0  0  0  0  0  0  0  0
    1.5432    1.4063    0.0000 C   0  0  0  0  0  0  0  0  0  0  0  0
    1.7981    0.6217    0.0000 C   0  0  0  0  0  0  0  0  0  0  0  0
    1.2461    0.0086    0.0000 C   0  0  0  0  0  0  0  0  0  0  0  0
    0.4391    0.1801    0.0000 C   0  0  0  0  0  0  0  0  0  0  0  0
   -0.2283   -0.3048    0.0000 N   0  0  0  0  0  0  0  0  0  0  0  0
   -0.8958    0.1801    0.0000 C   0  0  0  0  0  0  0  0  0  0  0  0
   -0.2283   -1.1298    0.0000 C   0  0  0  0  0  0  0  0  0  0  0  0
    0.4861   -1.5423    0.0000 C   0  0  0  0  0  0  0  0  0  0  0  0
    1.2006   -1.1298    0.0000 C   0  0  0  0  0  0  0  0  0  0  0  0
    1.9151   -1.5423    0.0000 C   0  0  0  0  0  0  0  0  0  0  0  0
    1.9151   -2.3673    0.0000 C   0  0  0  0  0  0  0  0  0  0  0  0
    1.2006   -2.7798    0.0000 C   0  0  0  0  0  0  0  0  0  0  0  0
    0.4861   -2.3673    0.0000 C   0  0  0  0  0  0  0  0  0  0  0  0
  1  2  2  0
  2  4  1  0
  3  2  1  0
  4  5  2  0
  5  6  1  0
  7  6  2  0
  8  7  1  0
  9  8  1  0
  9 10  1  0
 11 10  1  0
 12 11  1  0
 13 12  1  0
 13 14  1  0
 14  9  2  0
 15 14  1  0
 15 16  1  0
 16  4  1  0
 16  8  2  0
 17 15  1  0
 18 17  1  0
 18 19  2  0
 20 19  1  0
 21 20  2  0
 22 21  1  0
 22 23  2  0
 23 18  1  0
M  END
>  <DRUGBANK_ID>  (1) 
DB07283

>  <COMMON_NAME>  (1) 
9-benzyl-2,3,4,9-tetrahydro-1H-carbazole-8-carboxylic acid

$$$$
