
     RDKit          2D

 22 24  0  0  0  0  0  0  0  0999 V2000
   -2.2673   -1.0568    0.0000 C   0  0  0  0  0  0  0  0  0  0  0  0
   -1.4604   -0.8853    0.0000 C   0  0  0  0  0  0  0  0  0  0  0  0
    4.9279    1.1104    0.0000 C   0  0  0  0  0  0  0  0  0  0  0  0
    4.9279    1.9354    0.0000 C   0  0  0  0  0  0  0  0  0  0  0  0
    4.2135    0.6979    0.0000 C   0  0  0  0  0  0  0  0  0  0  0  0
    4.2135    2.3479    0.0000 C   0  0  0  0  0  0  0  0  0  0  0  0
    3.4990    1.1104    0.0000 C   0  0  0  0  0  0  0  0  0  0  0  0
    1.3556    0.6979    0.0000 C   0  0  0  0  0  0  0  0  0  0  0  0
    2.0701    1.1104    0.0000 C   0  0  0  0  0  0  0  0  0  0  0  0
    2.7845    2.3479    0.0000 C   0  0  0  0  0  0  0  0  0  0  0  0
    1.3556    2.3479    0.0000 C   0  0  0  0  0  0  0  0  0  0  0  0
    3.4990    1.9354    0.0000 C   0  0  0  0  0  0  0  0  0  0  0  0
    0.6411    1.1104    0.0000 C   0  0  0  0  0  0  0  0  0  0  0  0
    0.6411    1.9354    0.0000 C   0  0  0  0  0  0  0  0  0  0  0  0
   -0.1435    0.8555    0.0000 C   0  0  0  0  0  0  0  0  0  0  0  0
   -0.6284    1.5229    0.0000 C   0  0  0  0  0  0  0  0  0  0  0  0
   -0.3984    0.0709    0.0000 C   0  0  0  0  0  0  0  0  0  0  0  0
   -1.4534    1.5229    0.0000 N   0  0  0  0  0  0  0  0  0  0  0  0
    2.0701    1.9354    0.0000 N   0  0  0  0  0  0  0  0  0  0  0  0
    0.1536   -0.5422    0.0000 O   0  0  0  0  0  0  0  0  0  0  0  0
   -1.2054   -0.1006    0.0000 O   0  0  0  0  0  0  0  0  0  0  0  0
   -0.1435    2.1904    0.0000 S   0  0  0  0  0  0  0  0  0  0  0  0
  2  1  1  0
  4  3  2  0
  5  3  1  0
  6  4  1  0
  7  5  2  0
  9  8  1  0
 12  6  2  0
 12  7  1  0
 12 10  1  0
 13  8  1  0
 14 11  1  0
 14 13  2  0
 15 13  1  0
 16 15  2  0
 17 15  1  0
 18 16  1  0
 19  9  1  0
 19 10  1  0
 19 11  1  0
 20 17  2  0
 21  2  1  0
 21 17  1  0
 22 14  1  0
 22 16  1  0
M  END
>  <DRUGBANK_ID>  (1) 
DB13001

>  <COMMON_NAME>  (1) 
Tinoridine

>  <CAS_NUMBER>  (1) 
24237-54-5

>  <UNII>  (1) 
C9Z9ICZ7YR

>  <SYNONYMS>  (1) 
Tinoridine

$$$$
