
     RDKit          2D

 22 21  0  0  1  0  0  0  0  0999 V2000
    6.3793   -0.4909    0.0000 S   0  0  0  0  0  0  0  0  0  0  0  0
    5.6650   -0.0784    0.0000 O   0  0  0  0  0  0  0  0  0  0  0  0
    7.8082    1.9840    0.0000 O   0  0  0  0  0  0  0  0  0  0  0  0
    2.0928    1.1591    0.0000 O   0  0  0  0  0  0  0  0  0  0  0  0
    2.8072   -0.0784    0.0000 O   0  0  0  0  0  0  0  0  0  0  0  0
    5.6650   -1.7282    0.0000 O   0  0  0  0  0  0  0  0  0  0  0  0
   10.6658    1.1591    0.0000 O   0  0  0  0  0  0  0  0  0  0  0  0
    9.9515   -0.0784    0.0000 O   0  0  0  0  0  0  0  0  0  0  0  0
    6.3793    1.1591    0.0000 N   0  0  0  0  0  0  0  0  0  0  0  0
    8.5226    0.7465    0.0000 N   0  0  0  0  0  0  0  0  0  0  0  0
    3.5217    1.9840    0.0000 N   0  0  0  0  0  0  0  0  0  0  0  0
    7.0938    0.7465    0.0000 C   0  0  0  0  0  0  0  0  0  0  0  0
    4.2361    0.7465    0.0000 C   0  0  0  0  0  0  0  0  0  0  0  0
    4.9504    1.1591    0.0000 C   0  0  0  0  0  0  0  0  0  0  0  0
    3.5217    1.1591    0.0000 C   0  0  0  0  0  0  0  0  0  0  0  0
    5.6650    0.7465    0.0000 C   0  0  0  0  0  0  0  0  0  0  0  0
    7.0938   -0.0784    0.0000 C   0  0  0  0  0  0  0  0  0  0  0  0
    7.8082    1.1591    0.0000 C   0  0  0  0  0  0  0  0  0  0  0  0
    2.8072    0.7465    0.0000 C   0  0  0  0  0  0  0  0  0  0  0  0
    9.2371    1.1591    0.0000 C   0  0  0  0  0  0  0  0  0  0  0  0
    6.3793   -1.3158    0.0000 C   0  0  0  0  0  0  0  0  0  0  0  0
    9.9515    0.7465    0.0000 C   0  0  0  0  0  0  0  0  0  0  0  0
  1 17  1  0
  1 21  1  0
  2 16  2  0
  3 18  2  0
  4 19  1  0
  5 19  2  0
  6 21  1  0
  7 22  1  0
  8 22  2  0
  9 12  1  0
  9 16  1  0
 10 18  1  0
 10 20  1  0
 11 15  1  0
 12 17  1  0
 12 18  1  0
 13 14  1  0
 13 15  1  0
 14 16  1  0
 15 19  1  0
 20 22  1  0
M  END
>  <DRUGBANK_ID>  (1) 
DB05446

>  <COMMON_NAME>  (1) 
LJP 1082

$$$$
