
     RDKit          2D

 16 17  0  0  0  0  0  0  0  0999 V2000
    2.7956   -0.1062    0.0000 C   0  0  0  0  0  0  0  0  0  0  0  0
    2.7094    0.7142    0.0000 N   0  0  0  0  0  0  0  0  0  0  0  0
    1.9024    0.8857    0.0000 C   0  0  0  0  0  0  0  0  0  0  0  0
    1.4899    0.1712    0.0000 C   0  0  0  0  0  0  0  0  0  0  0  0
    2.0419   -0.4417    0.0000 N   0  0  0  0  0  0  0  0  0  0  0  0
    1.3504    1.4988    0.0000 C   0  0  0  0  0  0  0  0  0  0  0  0
    0.6830    0.3428    0.0000 C   0  0  0  0  0  0  0  0  0  0  0  0
    0.5967    1.1633    0.0000 S   0  0  0  0  0  0  0  0  0  0  0  0
   -2.7253   -0.8033    0.0000 C   0  0  0  0  0  0  0  0  0  0  0  0
   -2.1123   -0.2513    0.0000 C   0  0  0  0  0  0  0  0  0  0  0  0
   -1.3277   -0.5063    0.0000 C   0  0  0  0  0  0  0  0  0  0  0  0
   -0.7146    0.0457    0.0000 C   0  0  0  0  0  0  0  0  0  0  0  0
    0.0699   -0.2091    0.0000 C   0  0  0  0  0  0  0  0  0  0  0  0
   -2.5118   -1.6002    0.0000 O   0  0  0  0  0  0  0  0  0  0  0  0
   -3.5100   -0.5484    0.0000 O   0  0  0  0  0  0  0  0  0  0  0  0
    3.5100   -0.5187    0.0000 N   0  0  0  0  0  0  0  0  0  0  0  0
  1  2  1  0
  1  5  2  0
  1 16  1  0
  2  3  1  0
  3  4  1  0
  3  6  1  6
  4  5  1  6
  4  7  1  0
  6  8  1  0
  7  8  1  0
  7 13  1  6
  9 10  1  0
  9 14  2  0
  9 15  1  0
 10 11  1  0
 11 12  1  0
 12 13  1  0
M  END
>  <DRUGBANK_ID>  (1) 
DB03353

>  <SECONDARY_ACCESSION_NUMBERS>  (1) 
EXPT01870

>  <COMMON_NAME>  (1) 
2-Iminobiotin

>  <CAS_NUMBER>  (1) 
13395-35-2

>  <UNII>  (1) 
HXH71NRQ5C

>  <SYNONYMS>  (1) 
Guanidinobiotin; Hexahydro-2-imino-1h-thieno(3,4-d)imidazole-4-pentanoic acid

$$$$
