
     RDKit          2D

 16 16  0  0  0  0  0  0  0  0999 V2000
    1.0717   -0.4125    0.0000 C   0  0  0  0  0  0  0  0  0  0  0  0
    0.3572   -0.8250    0.0000 C   0  0  0  0  0  0  0  0  0  0  0  0
    0.3572   -1.6500    0.0000 O   0  0  0  0  0  0  0  0  0  0  0  0
   -0.3572   -0.4125    0.0000 C   0  0  0  0  0  0  0  0  0  0  0  0
   -1.0717   -0.8250    0.0000 O   0  0  0  0  0  0  0  0  0  0  0  0
    0.3572    0.8250    0.0000 O   0  0  0  0  0  0  0  0  0  0  0  0
   -1.0717    0.8250    0.0000 C   0  0  0  0  0  0  0  0  0  0  0  0
   -1.0717    1.6500    0.0000 O   0  0  0  0  0  0  0  0  0  0  0  0
   -1.7861    0.4125    0.0000 C   0  0  0  0  0  0  0  0  0  0  0  0
   -2.5006    0.8250    0.0000 O   0  0  0  0  0  0  0  0  0  0  0  0
   -0.3572    0.4125    0.0000 C   0  0  0  0  0  0  0  0  0  0  0  0
    1.7861    1.6500    0.0000 O   0  0  0  0  0  0  0  0  0  0  0  0
    1.7861    0.8250    0.0000 C   0  0  0  0  0  0  0  0  0  0  0  0
    2.5006    0.4125    0.0000 O   0  0  0  0  0  0  0  0  0  0  0  0
    1.0717    0.4125    0.0000 C   0  0  0  0  0  0  0  0  0  0  0  0
    1.0717    1.2374    0.0000 O   0  0  0  0  0  0  0  0  0  0  0  0
  1  2  1  0
  2  3  1  1
  2  4  1  0
  4  5  1  1
  4 11  1  0
  7  8  1  1
  7  9  1  0
  9 10  1  0
 11  6  1  1
 11  7  1  0
 13 12  2  0
 13 14  1  0
 15  1  1  0
 15  6  1  0
 15 13  1  0
 15 16  1  6
M  END
>  <DRUGBANK_ID>  (1) 
DB03548

>  <SECONDARY_ACCESSION_NUMBERS>  (1) 
EXPT01967

>  <COMMON_NAME>  (1) 
3-deoxy-alpha-D-manno-oct-2-ulopyranosonic acid

>  <SYNONYMS>  (1) 
3-deoxy-α-D-manno-oct-2-ulopyranosonic acid; α-2-keto-3-deoxyoctulosonic acid pyranose; α-Kdo; α-KDop

$$$$
