BPM
     RDKit          2D

 23 24  0  0  0  0  0  0  0  0999 V2000
   -0.8317    0.5454    0.0000 C   0  0  0  0  0  0  0  0  0  0  0  0
   -0.8317   -0.2796    0.0000 C   0  0  0  0  0  0  0  0  0  0  0  0
   -0.1172   -0.6921    0.0000 C   0  0  0  0  0  0  0  0  0  0  0  0
   -0.1172   -1.5171    0.0000 C   0  0  0  0  0  0  0  0  0  0  0  0
   -1.5462   -1.5171    0.0000 C   0  0  0  0  0  0  0  0  0  0  0  0
   -1.5462   -0.6921    0.0000 C   0  0  0  0  0  0  0  0  0  0  0  0
   -0.8317   -1.9296    0.0000 C   0  0  0  0  0  0  0  0  0  0  0  0
   -0.8317   -2.7546    0.0000 O   0  0  0  0  0  0  0  0  0  0  0  0
   -1.5462   -3.1671    0.0000 P   0  0  0  0  0  0  0  0  0  0  0  0
   -2.2606   -3.5796    0.0000 O   0  0  0  0  0  0  0  0  0  0  0  0
   -1.1337   -3.8816    0.0000 O   0  0  0  0  0  0  0  0  0  0  0  0
   -1.9587   -2.4527    0.0000 O   0  0  0  0  0  0  0  0  0  0  0  0
   -0.1172    0.9579    0.0000 C   0  0  0  0  0  0  0  0  0  0  0  0
   -0.1172    1.7829    0.0000 C   0  0  0  0  0  0  0  0  0  0  0  0
    0.5973    2.1954    0.0000 C   0  0  0  0  0  0  0  0  0  0  0  0
    1.3117    0.9579    0.0000 C   0  0  0  0  0  0  0  0  0  0  0  0
    0.5973    0.5454    0.0000 C   0  0  0  0  0  0  0  0  0  0  0  0
    1.3117    1.7829    0.0000 C   0  0  0  0  0  0  0  0  0  0  0  0
    2.0262    2.1954    0.0000 O   0  0  0  0  0  0  0  0  0  0  0  0
    2.0262    3.0204    0.0000 P   0  0  0  0  0  0  0  0  0  0  0  0
    2.0262    3.8454    0.0000 O   0  0  0  0  0  0  0  0  0  0  0  0
    2.8512    3.0204    0.0000 O   0  0  0  0  0  0  0  0  0  0  0  0
    1.2012    3.0204    0.0000 O   0  0  0  0  0  0  0  0  0  0  0  0
  1  2  1  0
  1 13  1  0
  2  3  2  0
  2  6  1  0
  3  4  1  0
  4  7  2  0
  5  6  2  0
  5  7  1  0
  7  8  1  0
  8  9  1  0
  9 10  2  0
  9 11  1  0
  9 12  1  0
 13 14  2  0
 13 17  1  0
 14 15  1  0
 15 18  2  0
 16 17  2  0
 16 18  1  0
 18 19  1  0
 19 20  1  0
 20 21  2  0
 20 22  1  0
 20 23  1  0
M  END
>  <DRUGBANK_ID>  (1) 
DB07480

>  <COMMON_NAME>  (1) 
4-PHOSPHONOOXY-PHENYL-METHYL-[4-PHOSPHONOOXY]BENZEN

$$$$
