
     RDKit          2D

 29 32  0  0  0  0  0  0  0  0999 V2000
   -2.4048    2.5820    0.0000 C   0  0  0  0  0  0  0  0  0  0  0  0
   -1.2767    3.4590    0.0000 C   0  0  0  0  0  0  0  0  0  0  0  0
   -1.3921    1.2793    0.0000 C   0  0  0  0  0  0  0  0  0  0  0  0
    1.3705    2.3821    0.0000 C   0  0  0  0  0  0  0  0  0  0  0  0
    4.5466    1.3336    0.0000 C   0  0  0  0  0  0  0  0  0  0  0  0
    2.0307    1.7357    0.0000 C   0  0  0  0  0  0  0  0  0  0  0  0
   -0.2640    2.1564    0.0000 C   0  0  0  0  0  0  0  0  0  0  0  0
    0.2424    1.5050    0.0000 C   0  0  0  0  0  0  0  0  0  0  0  0
    4.5754   -0.8489    0.0000 C   0  0  0  0  0  0  0  0  0  0  0  0
    3.7633   -0.7037    0.0000 C   0  0  0  0  0  0  0  0  0  0  0  0
    1.3367    0.1741    0.0000 C   0  0  0  0  0  0  0  0  0  0  0  0
    2.0195   -0.2889    0.0000 C   0  0  0  0  0  0  0  0  0  0  0  0
    6.1708    1.0432    0.0000 C   0  0  0  0  0  0  0  0  0  0  0  0
    3.7345    1.4789    0.0000 C   0  0  0  0  0  0  0  0  0  0  0  0
    5.3587    1.1884    0.0000 C   0  0  0  0  0  0  0  0  0  0  0  0
    2.9224    1.6241    0.0000 C   0  0  0  0  0  0  0  0  0  0  0  0
    5.9193   -0.3634    0.0000 C   0  0  0  0  0  0  0  0  0  0  0  0
   -1.5876    2.6948    0.0000 C   0  0  0  0  0  0  0  0  0  0  0  0
   -1.0812    2.0435    0.0000 C   0  0  0  0  0  0  0  0  0  0  0  0
    1.0596    1.6179    0.0000 C   0  0  0  0  0  0  0  0  0  0  0  0
    5.1072   -0.2182    0.0000 C   0  0  0  0  0  0  0  0  0  0  0  0
    6.4511    0.2673    0.0000 C   0  0  0  0  0  0  0  0  0  0  0  0
    3.4830    0.0722    0.0000 C   0  0  0  0  0  0  0  0  0  0  0  0
    1.5660    0.9666    0.0000 C   0  0  0  0  0  0  0  0  0  0  0  0
    2.6708    0.2174    0.0000 C   0  0  0  0  0  0  0  0  0  0  0  0
    4.0148    0.7029    0.0000 C   0  0  0  0  0  0  0  0  0  0  0  0
    4.8269    0.5577    0.0000 C   0  0  0  0  0  0  0  0  0  0  0  0
    2.3905    0.9934    0.0000 C   0  0  0  0  0  0  0  0  0  0  0  0
    7.2632    0.1221    0.0000 O   0  0  0  0  0  0  0  0  0  0  0  0
  8  7  2  0
 10  9  1  0
 12 11  1  0
 15 13  1  0
 16 14  1  0
 18  1  1  0
 18  2  1  0
 19  3  1  6
 19  7  1  0
 19 18  1  0
 20  4  1  1
 20  8  1  0
 21  9  2  0
 21 17  1  0
 22 13  1  0
 22 17  1  0
 22 29  1  6
 23 10  2  0
 24 11  1  6
 24 20  1  0
 24 28  1  0
 25 12  1  6
 25 23  1  0
 26 14  1  6
 26 23  1  0
 26 27  1  0
 27  5  1  6
 27 15  1  0
 27 21  1  0
 28  6  1  6
 28 16  1  0
 28 25  1  0
M  END
>  <DRUGBANK_ID>  (1) 
DB04038

>  <SECONDARY_ACCESSION_NUMBERS>  (1) 
EXPT01357

>  <COMMON_NAME>  (1) 
Ergosterol

>  <CAS_NUMBER>  (1) 
57-87-4

>  <UNII>  (1) 
Z30RAY509F

>  <SYNONYMS>  (1) 
(22E,24S)-24-methylcholesta-5,7,22-trien-3Î²-ol; Provitamin D2

$$$$
