LK5
     RDKit          2D

 22 23  0  0  0  0  0  0  0  0999 V2000
   -3.9748   -0.3547    0.0000 C   0  0  0  0  0  0  0  0  0  0  0  0
   -3.2603    0.0578    0.0000 C   0  0  0  0  0  0  0  0  0  0  0  0
   -2.5458   -0.3547    0.0000 C   0  0  0  0  0  0  0  0  0  0  0  0
   -1.8314    0.0578    0.0000 C   0  0  0  0  0  0  0  0  0  0  0  0
   -1.1169   -0.3547    0.0000 O   0  0  0  0  0  0  0  0  0  0  0  0
   -0.4024    0.0578    0.0000 C   0  0  0  0  0  0  0  0  0  0  0  0
   -0.4024    0.8828    0.0000 C   0  0  0  0  0  0  0  0  0  0  0  0
    0.3121    1.2953    0.0000 C   0  0  0  0  0  0  0  0  0  0  0  0
    1.0265    0.8828    0.0000 C   0  0  0  0  0  0  0  0  0  0  0  0
    1.0265    0.0578    0.0000 C   0  0  0  0  0  0  0  0  0  0  0  0
    0.3121   -0.3547    0.0000 C   0  0  0  0  0  0  0  0  0  0  0  0
    0.4836   -1.1616    0.0000 C   0  0  0  0  0  0  0  0  0  0  0  0
   -0.0684   -1.7747    0.0000 C   0  0  0  0  0  0  0  0  0  0  0  0
    0.1865   -2.5594    0.0000 O   0  0  0  0  0  0  0  0  0  0  0  0
   -0.8754   -1.6032    0.0000 O   0  0  0  0  0  0  0  0  0  0  0  0
    1.3041   -1.2479    0.0000 N   0  0  0  0  0  0  0  0  0  0  0  0
    1.6396   -0.4942    0.0000 C   0  0  0  0  0  0  0  0  0  0  0  0
    2.4466   -0.3227    0.0000 C   0  0  0  0  0  0  0  0  0  0  0  0
    2.9986   -0.9358    0.0000 C   0  0  0  0  0  0  0  0  0  0  0  0
    3.8056   -0.7642    0.0000 C   0  0  0  0  0  0  0  0  0  0  0  0
    2.7015    0.4620    0.0000 C   0  0  0  0  0  0  0  0  0  0  0  0
    3.5085    0.6335    0.0000 O   0  0  0  0  0  0  0  0  0  0  0  0
  1  2  1  0
  2  3  1  0
  3  4  1  0
  4  5  1  0
  6  5  1  6
  6  7  1  0
  6 11  1  0
  7  8  1  0
  8  9  1  0
 10  9  1  1
 10 17  1  0
 10 11  1  0
 11 12  2  0
 12 16  1  0
 12 13  1  0
 13 14  2  0
 13 15  1  0
 17 16  1  1
 17 18  1  0
 18 21  1  6
 18 19  1  0
 19 20  1  0
 21 22  2  0
M  END
>  <DRUGBANK_ID>  (1) 
DB08109

>  <COMMON_NAME>  (1) 
(1S,4R,7AR)-4-BUTOXY-1-[(1R)-1-FORMYLPROPYL]-2,4,5,6,7,7A-HEXAHYDRO-1H-ISOINDOLE-3-CARBOXYLIC ACID

$$$$
