
     RDKit          2D

 30 33  0  0  1  0  0  0  0  0999 V2000
   13.1980   -9.5906    0.0000 C   0  0  0  0  0  0  0  0  0  0  0  0
   12.4900   -9.1664    0.0000 C   0  0  0  0  0  0  0  0  0  0  0  0
   12.5059   -8.3405    0.0000 C   0  0  0  0  0  0  0  0  0  0  0  0
   13.2297   -7.9395    0.0000 C   0  0  0  0  0  0  0  0  0  0  0  0
   13.9374   -8.3682    0.0000 C   0  0  0  0  0  0  0  0  0  0  0  0
   13.9627   -9.1941    0.0000 O   0  0  0  0  0  0  0  0  0  0  0  0
   11.7707   -9.5638    0.0000 O   0  0  0  0  0  0  0  0  0  0  0  0
   11.8023   -7.9119    0.0000 O   0  0  0  0  0  0  0  0  0  0  0  0
   13.2457   -7.1136    0.0000 O   0  0  0  0  0  0  0  0  0  0  0  0
   14.6612   -7.9672    0.0000 C   0  0  0  0  0  0  0  0  0  0  0  0
   14.6757   -7.1454    0.0000 O   0  0  0  0  0  0  0  0  0  0  0  0
   13.1821  -10.4139    0.0000 C   0  0  0  0  0  0  0  0  0  0  0  0
   13.8967  -10.8261    0.0000 C   0  0  0  0  0  0  0  0  0  0  0  0
   13.8931  -11.6540    0.0000 C   0  0  0  0  0  0  0  0  0  0  0  0
   14.6146  -10.4174    0.0000 O   0  0  0  0  0  0  0  0  0  0  0  0
   12.4643  -10.8261    0.0000 C   0  0  0  0  0  0  0  0  0  0  0  0
   14.6077  -12.0662    0.0000 C   0  0  0  0  0  0  0  0  0  0  0  0
   13.1821  -12.0662    0.0000 C   0  0  0  0  0  0  0  0  0  0  0  0
   15.3290  -10.8330    0.0000 C   0  0  0  0  0  0  0  0  0  0  0  0
   12.4643  -11.6540    0.0000 C   0  0  0  0  0  0  0  0  0  0  0  0
   11.7532  -10.4105    0.0000 O   0  0  0  0  0  0  0  0  0  0  0  0
   15.3257  -11.6609    0.0000 C   0  0  0  0  0  0  0  0  0  0  0  0
   14.6042  -12.8940    0.0000 O   0  0  0  0  0  0  0  0  0  0  0  0
   16.0367  -12.0731    0.0000 C   0  0  0  0  0  0  0  0  0  0  0  0
   16.0711  -12.8974    0.0000 C   0  0  0  0  0  0  0  0  0  0  0  0
   16.7512  -11.6643    0.0000 C   0  0  0  0  0  0  0  0  0  0  0  0
   16.7443  -13.3165    0.0000 C   0  0  0  0  0  0  0  0  0  0  0  0
   17.4622  -12.0800    0.0000 C   0  0  0  0  0  0  0  0  0  0  0  0
   17.4588  -12.9043    0.0000 C   0  0  0  0  0  0  0  0  0  0  0  0
   18.1733  -13.3234    0.0000 O   0  0  0  0  0  0  0  0  0  0  0  0
  1 12  1  1
  1  2  1  0
  2  3  1  0
  2  7  1  6
  3  4  1  0
  3  8  1  1
  4  9  1  6
  4  5  1  0
  5 10  1  1
  5  6  1  0
  6  1  1  0
 10 11  1  0
 12 16  1  0
 13 12  2  0
 13 14  1  0
 13 15  1  0
 14 17  1  0
 14 18  2  0
 15 19  1  0
 16 20  2  0
 16 21  1  0
 17 22  1  0
 17 23  2  0
 18 20  1  0
 19 22  2  0
 22 24  1  0
 24 25  2  0
 24 26  1  0
 25 27  1  0
 26 28  2  0
 27 29  2  0
 28 29  1  0
 29 30  1  0
M  END
>  <DRUGBANK_ID>  (1) 
DB12290

>  <COMMON_NAME>  (1) 
Puerarin

>  <CAS_NUMBER>  (1) 
3681-99-0

>  <UNII>  (1) 
Z9W8997416

$$$$
