2SC
     RDKit          2D

 25 28  0  0  0  0  0  0  0  0999 V2000
   -1.4858    1.1428    0.0000 C   0  0  0  0  0  0  0  0  0  0  0  0
   -0.7011    0.8878    0.0000 C   0  0  0  0  0  0  0  0  0  0  0  0
   -0.7011    0.0628    0.0000 N   0  0  0  0  0  0  0  0  0  0  0  0
   -1.4858   -0.1921    0.0000 N   0  0  0  0  0  0  0  0  0  0  0  0
   -1.9707    0.4753    0.0000 C   0  0  0  0  0  0  0  0  0  0  0  0
    0.0133    1.3003    0.0000 N   0  0  0  0  0  0  0  0  0  0  0  0
    0.7278    0.8878    0.0000 C   0  0  0  0  0  0  0  0  0  0  0  0
    0.7278    0.0628    0.0000 C   0  0  0  0  0  0  0  0  0  0  0  0
    0.0133   -0.3497    0.0000 C   0  0  0  0  0  0  0  0  0  0  0  0
    0.0133   -1.1747    0.0000 N   0  0  0  0  0  0  0  0  0  0  0  0
    1.4423    1.3003    0.0000 C   0  0  0  0  0  0  0  0  0  0  0  0
   -0.7011   -1.5872    0.0000 C   0  0  0  0  0  0  0  0  0  0  0  0
   -0.7011   -2.4122    0.0000 C   0  0  0  0  0  0  0  0  0  0  0  0
   -1.4156   -2.8247    0.0000 C   0  0  0  0  0  0  0  0  0  0  0  0
   -1.4156   -3.6497    0.0000 N   0  0  0  0  0  0  0  0  0  0  0  0
   -0.7011   -4.0622    0.0000 C   0  0  0  0  0  0  0  0  0  0  0  0
    0.0133   -3.6497    0.0000 C   0  0  0  0  0  0  0  0  0  0  0  0
    0.0133   -2.8247    0.0000 C   0  0  0  0  0  0  0  0  0  0  0  0
    1.4423    2.1253    0.0000 C   0  0  0  0  0  0  0  0  0  0  0  0
    2.1568    2.5378    0.0000 C   0  0  0  0  0  0  0  0  0  0  0  0
    2.8712    2.1253    0.0000 C   0  0  0  0  0  0  0  0  0  0  0  0
    2.8712    1.3003    0.0000 C   0  0  0  0  0  0  0  0  0  0  0  0
    2.1568    0.8878    0.0000 C   0  0  0  0  0  0  0  0  0  0  0  0
   -1.7407    1.9274    0.0000 C   0  0  0  0  0  0  0  0  0  0  0  0
   -2.5477    2.0989    0.0000 O   0  0  0  0  0  0  0  0  0  0  0  0
  1  2  2  0
  1 24  1  0
  2  6  1  0
  3  2  1  0
  4  5  2  0
  4  3  1  0
  5  1  1  0
  7  6  2  0
  7 11  1  0
  8  7  1  0
  9  3  1  0
  9  8  2  0
 10 12  1  0
 10  9  1  0
 11 19  2  0
 11 23  1  0
 13 18  1  0
 13 12  1  0
 14 13  2  0
 15 16  2  0
 15 14  1  0
 16 17  1  0
 17 18  2  0
 19 20  1  0
 20 21  2  0
 22 21  1  0
 23 22  2  0
 24 25  1  0
M  END
>  <DRUGBANK_ID>  (1) 
DB06983

>  <COMMON_NAME>  (1) 
(5-phenyl-7-(pyridin-3-ylmethylamino)pyrazolo[1,5-a]pyrimidin-3-yl)methanol

$$$$
