
     RDKit          2D

 34 35  0  0  0  0  0  0  0  0999 V2000
   -3.4021    0.4141    0.0000 C   0  0  0  0  0  0  0  0  0  0  0  0
   -3.4021   -0.4232    0.0000 C   0  0  0  0  0  0  0  0  0  0  0  0
   -4.1075   -0.8243    0.0000 C   0  0  0  0  0  0  0  0  0  0  0  0
   -4.1075   -1.6438    0.0000 C   0  0  0  0  0  0  0  0  0  0  0  0
   -4.8390   -0.4232    0.0000 C   0  0  0  0  0  0  0  0  0  0  0  0
   -4.8390    0.4141    0.0000 C   0  0  0  0  0  0  0  0  0  0  0  0
   -4.1075    0.8197    0.0000 C   0  0  0  0  0  0  0  0  0  0  0  0
   -4.1075    1.6438    0.0000 C   0  0  0  0  0  0  0  0  0  0  0  0
   -5.5574    0.8197    0.0000 C   0  0  0  0  0  0  0  0  0  0  0  0
   -5.5663   -0.8243    0.0000 O   0  0  0  0  0  0  0  0  0  0  0  0
   -6.5805   -0.5669    0.0000 C   0  0  0  0  0  0  0  0  0  0  0  0
   -6.7184    0.2381    0.0000 O   0  0  0  0  0  0  0  0  0  0  0  0
   -7.3559   -1.0838    0.0000 C   0  0  0  0  0  0  0  0  0  0  0  0
   -2.6881   -0.8243    0.0000 C   0  0  0  0  0  0  0  0  0  0  0  0
   -1.9787   -0.4232    0.0000 C   0  0  0  0  0  0  0  0  0  0  0  0
   -1.9787    0.4141    0.0000 C   0  0  0  0  0  0  0  0  0  0  0  0
   -2.6881    0.8197    0.0000 O   0  0  0  0  0  0  0  0  0  0  0  0
   -1.2648    0.8286    0.0000 C   0  0  0  0  0  0  0  0  0  0  0  0
   -0.5285    0.4361    0.0000 C   0  0  0  0  0  0  0  0  0  0  0  0
    0.1851    0.8461    0.0000 C   0  0  0  0  0  0  0  0  0  0  0  0
    0.9036    0.4360    0.0000 C   0  0  0  0  0  0  0  0  0  0  0  0
    1.6088    0.8637    0.0000 C   0  0  0  0  0  0  0  0  0  0  0  0
    2.3272    0.4715    0.0000 C   0  0  0  0  0  0  0  0  0  0  0  0
    3.0500    0.8815    0.0000 C   0  0  0  0  0  0  0  0  0  0  0  0
    3.7684    0.4757    0.0000 C   0  0  0  0  0  0  0  0  0  0  0  0
    4.4781    0.8990    0.0000 C   0  0  0  0  0  0  0  0  0  0  0  0
    5.2054    0.4980    0.0000 C   0  0  0  0  0  0  0  0  0  0  0  0
    5.9149    0.9122    0.0000 C   0  0  0  0  0  0  0  0  0  0  0  0
    6.6376    0.5154    0.0000 C   0  0  0  0  0  0  0  0  0  0  0  0
    7.3559    0.9341    0.0000 C   0  0  0  0  0  0  0  0  0  0  0  0
    6.6376   -0.3085    0.0000 C   0  0  0  0  0  0  0  0  0  0  0  0
    3.7684   -0.3439    0.0000 C   0  0  0  0  0  0  0  0  0  0  0  0
    0.9036   -0.3835    0.0000 C   0  0  0  0  0  0  0  0  0  0  0  0
   -1.2427    0.0352    0.0000 C   0  0  0  0  0  0  0  0  0  0  0  0
  2  1  1  0
  3  2  2  0
  4  3  1  0
  5  3  1  0
  5  6  2  0
  6  7  1  0
  7  1  2  0
  8  7  1  0
  9  6  1  0
 10  5  1  0
 10 11  1  0
 11 12  2  0
 11 13  1  0
 14  2  1  0
 14 15  1  0
 15 16  1  0
 16 17  1  0
 16 18  1  0
 16 34  1  0
 17  1  1  0
 19 18  1  0
 20 19  1  0
 21 20  1  0
 21 33  1  0
 22 21  1  0
 23 22  1  0
 24 23  1  0
 25 24  1  0
 25 32  1  0
 26 25  1  0
 27 26  1  0
 28 27  1  0
 29 28  1  0
 30 29  1  0
 31 29  1  0
M  END
>  <DRUGBANK_ID>  (1) 
DB14477

>  <COMMON_NAME>  (1) 
DL-alpha tocopheryl acetate

>  <CAS_NUMBER>  (1) 
52225-20-4

>  <UNII>  (1) 
WR1WPI7EW8

>  <SYNONYMS>  (1) 
all-rac-alfa-tocopheryl acetate; all-rac-alpha-tocopheryl acetate; DL-alpha-tocopheryl acetate

$$$$
