
     RDKit          2D

 12 12  0  0  0  0  0  0  0  0999 V2000
   -0.3611    0.7543    0.0000 C   0  0  0  0  0  0  0  0  0  0  0  0
   -0.3611   -0.0695    0.0000 C   0  0  0  0  0  0  0  0  0  0  0  0
   -1.0796    1.1584    0.0000 N   0  0  0  0  0  0  0  0  0  0  0  0
    0.3587    1.1753    0.0000 C   0  0  0  0  0  0  0  0  0  0  0  0
   -1.0796   -0.4736    0.0000 N   0  0  0  0  0  0  0  0  0  0  0  0
    0.3587   -0.4857    0.0000 O   0  0  0  0  0  0  0  0  0  0  0  0
   -1.7947    0.7458    0.0000 C   0  0  0  0  0  0  0  0  0  0  0  0
    1.0712    0.7543    0.0000 C   0  0  0  0  0  0  0  0  0  0  0  0
   -1.7947   -0.0598    0.0000 C   0  0  0  0  0  0  0  0  0  0  0  0
    0.3587   -1.1753    0.0000 C   0  0  0  0  0  0  0  0  0  0  0  0
    1.0712    0.0333    0.0000 C   0  0  0  0  0  0  0  0  0  0  0  0
    1.7947    1.1753    0.0000 C   0  0  0  0  0  0  0  0  0  0  0  0
  1  2  2  0
  1  3  1  0
  1  4  1  0
  2  5  1  0
  2  6  1  0
  3  7  2  0
  4  8  1  0
  5  9  2  0
  6 10  1  0
  7  9  1  0
  8 11  1  0
  8 12  1  0
M  END
>  <DRUGBANK_ID>  (1) 
DB04512

>  <SECONDARY_ACCESSION_NUMBERS>  (1) 
EXPT02668

>  <COMMON_NAME>  (1) 
2-Isobutyl-3-methoxypyrazine

>  <CAS_NUMBER>  (1) 
24683-00-9

>  <UNII>  (1) 
S327O0T12O

>  <SYNONYMS>  (1) 
3-Isobutyl-2-methoxypyrazine

$$$$
