
     RDKit          2D

 27 29  0  0  0  0  0  0  0  0999 V2000
   -2.4997   -0.2039    0.0000 C   0  0  0  0  0  0  0  0  0  0  0  0
   -3.2167    0.2099    0.0000 C   0  0  0  0  0  0  0  0  0  0  0  0
   -3.2225    1.0348    0.0000 N   0  0  0  0  0  0  0  0  0  0  0  0
   -1.7883    0.2099    0.0000 C   0  0  0  0  0  0  0  0  0  0  0  0
   -2.4937   -1.0406    0.0000 C   0  0  0  0  0  0  0  0  0  0  0  0
   -2.5025    1.4488    0.0000 C   0  0  0  0  0  0  0  0  0  0  0  0
   -1.7883    1.0377    0.0000 C   0  0  0  0  0  0  0  0  0  0  0  0
   -3.2167   -1.4545    0.0000 C   0  0  0  0  0  0  0  0  0  0  0  0
   -3.9338   -0.2099    0.0000 C   0  0  0  0  0  0  0  0  0  0  0  0
    0.3775   -1.0348    0.0000 C   0  0  0  0  0  0  0  0  0  0  0  0
   -0.3395   -1.4487    0.0000 N   0  0  0  0  0  0  0  0  0  0  0  0
   -3.9338   -1.0406    0.0000 C   0  0  0  0  0  0  0  0  0  0  0  0
   -2.5055    2.2736    0.0000 O   0  0  0  0  0  0  0  0  0  0  0  0
   -1.7738   -1.4487    0.0000 C   0  0  0  0  0  0  0  0  0  0  0  0
   -1.0566   -1.0348    0.0000 C   0  0  0  0  0  0  0  0  0  0  0  0
   -4.6479    0.2099    0.0000 O   0  0  0  0  0  0  0  0  0  0  0  0
   -1.7825   -2.2736    0.0000 O   0  0  0  0  0  0  0  0  0  0  0  0
    0.3745   -0.2127    0.0000 C   0  0  0  0  0  0  0  0  0  0  0  0
    1.0916   -1.4458    0.0000 C   0  0  0  0  0  0  0  0  0  0  0  0
    1.8029   -1.0347    0.0000 C   0  0  0  0  0  0  0  0  0  0  0  0
    2.5140   -1.4481    0.0000 C   0  0  0  0  0  0  0  0  0  0  0  0
    3.2247   -1.0378    0.0000 C   0  0  0  0  0  0  0  0  0  0  0  0
    3.2249   -0.2155    0.0000 C   0  0  0  0  0  0  0  0  0  0  0  0
    2.5083    0.1947    0.0000 C   0  0  0  0  0  0  0  0  0  0  0  0
    1.8004   -0.2179    0.0000 C   0  0  0  0  0  0  0  0  0  0  0  0
    3.9338    0.2011    0.0000 O   0  0  0  0  0  0  0  0  0  0  0  0
    4.6479   -0.2069    0.0000 C   0  0  0  0  0  0  0  0  0  0  0  0
  2  1  2  0
  3  2  1  0
  4  1  1  0
  5  1  1  0
  6  7  1  0
  6  3  1  0
  7  4  2  0
  8 12  1  0
  8  5  2  0
  9  2  1  0
 10 18  1  6
 10 19  1  0
 10 11  1  0
 11 15  1  0
 12  9  2  0
 13  6  2  0
 14  5  1  0
 14 17  1  6
 15 14  1  0
 16  9  1  0
 19 20  1  0
 20 21  2  0
 21 22  1  0
 22 23  2  0
 23 24  1  0
 23 26  1  0
 24 25  2  0
 25 20  1  0
 26 27  1  0
M  END
>  <DRUGBANK_ID>  (1) 
DB15784

>  <COMMON_NAME>  (1) 
Carmoterol

>  <CAS_NUMBER>  (1) 
147568-66-9

>  <UNII>  (1) 
9810NUL4D1

>  <SYNONYMS>  (1) 
Carmoterol; Quinoterol

$$$$
