JI7
     RDKit          2D

 26 28  0  0  0  0  0  0  0  0999 V2000
   -0.9711   -2.5758    0.0000 C   0  0  0  0  0  0  0  0  0  0  0  0
   -1.5842   -2.0238    0.0000 C   0  0  0  0  0  0  0  0  0  0  0  0
   -1.4126   -1.2168    0.0000 C   0  0  0  0  0  0  0  0  0  0  0  0
   -0.6280   -0.9618    0.0000 C   0  0  0  0  0  0  0  0  0  0  0  0
   -0.0149   -1.5139    0.0000 N   0  0  0  0  0  0  0  0  0  0  0  0
   -0.1864   -2.3208    0.0000 C   0  0  0  0  0  0  0  0  0  0  0  0
   -0.4565   -0.1549    0.0000 C   0  0  0  0  0  0  0  0  0  0  0  0
   -1.0696    0.3972    0.0000 C   0  0  0  0  0  0  0  0  0  0  0  0
   -0.9833    1.2176    0.0000 C   0  0  0  0  0  0  0  0  0  0  0  0
   -1.7370    1.5532    0.0000 C   0  0  0  0  0  0  0  0  0  0  0  0
   -2.2890    0.9401    0.0000 N   0  0  0  0  0  0  0  0  0  0  0  0
   -1.8765    0.2256    0.0000 C   0  0  0  0  0  0  0  0  0  0  0  0
   -0.2689    1.6301    0.0000 N   0  0  0  0  0  0  0  0  0  0  0  0
    0.4456    1.2176    0.0000 C   0  0  0  0  0  0  0  0  0  0  0  0
    1.1601    1.6301    0.0000 C   0  0  0  0  0  0  0  0  0  0  0  0
    1.8746    1.2176    0.0000 N   0  0  0  0  0  0  0  0  0  0  0  0
    2.5890    1.6301    0.0000 C   0  0  0  0  0  0  0  0  0  0  0  0
    3.3035    1.2176    0.0000 C   0  0  0  0  0  0  0  0  0  0  0  0
    4.0180    1.6301    0.0000 C   0  0  0  0  0  0  0  0  0  0  0  0
    4.7324    1.2176    0.0000 C   0  0  0  0  0  0  0  0  0  0  0  0
    4.7324    0.3926    0.0000 C   0  0  0  0  0  0  0  0  0  0  0  0
    4.0180   -0.0199    0.0000 C   0  0  0  0  0  0  0  0  0  0  0  0
    3.3035    0.3926    0.0000 C   0  0  0  0  0  0  0  0  0  0  0  0
    4.0180   -0.8449    0.0000 Cl  0  0  0  0  0  0  0  0  0  0  0  0
   -2.3688   -2.2787    0.0000 C   0  0  0  0  0  0  0  0  0  0  0  0
    0.4267   -2.8729    0.0000 N   0  0  0  0  0  0  0  0  0  0  0  0
  1  2  2  0
  2 25  1  0
  3  2  1  0
  4  3  2  0
  5  4  1  0
  5  6  2  0
  6  1  1  0
  7  4  1  0
  8  7  1  1
  8 12  1  0
  9 13  1  6
  9  8  1  0
 10 11  1  0
 10  9  1  0
 11 12  1  0
 14 13  1  0
 15 14  1  0
 16 15  1  0
 17 16  1  0
 18 19  2  0
 18 17  1  0
 20 19  1  0
 21 20  2  0
 22 21  1  0
 22 23  2  0
 23 18  1  0
 24 22  1  0
 26  6  1  0
M  END
>  <DRUGBANK_ID>  (1) 
DB08019

>  <COMMON_NAME>  (1) 
N-{(3R,4S)-4-[(6-amino-4-methylpyridin-2-yl)methyl]pyrrolidin-3-yl}-N'-(3-chlorobenzyl)ethane-1,2-diamine

$$$$
