DHC
     RDKit          2D

 13 13  0  0  0  0  0  0  0  0999 V2000
    3.0952    0.8773    0.0000 C   0  0  0  0  0  0  0  0  0  0  0  0
    3.0952    1.7023    0.0000 O   0  0  0  0  0  0  0  0  0  0  0  0
    2.3808    0.4648    0.0000 C   0  0  0  0  0  0  0  0  0  0  0  0
    2.3808   -0.3602    0.0000 C   0  0  0  0  0  0  0  0  0  0  0  0
    1.6663   -0.7727    0.0000 C   0  0  0  0  0  0  0  0  0  0  0  0
    1.6663   -1.5977    0.0000 C   0  0  0  0  0  0  0  0  0  0  0  0
    0.9518   -2.0102    0.0000 C   0  0  0  0  0  0  0  0  0  0  0  0
    0.2374   -1.5977    0.0000 C   0  0  0  0  0  0  0  0  0  0  0  0
    0.2374   -0.7727    0.0000 C   0  0  0  0  0  0  0  0  0  0  0  0
    0.9518   -0.3602    0.0000 C   0  0  0  0  0  0  0  0  0  0  0  0
   -0.4771   -2.0102    0.0000 O   0  0  0  0  0  0  0  0  0  0  0  0
    0.9518   -2.8352    0.0000 O   0  0  0  0  0  0  0  0  0  0  0  0
    3.8097    0.4648    0.0000 O   0  0  0  0  0  0  0  0  0  0  0  0
  1  2  2  0
  1  3  1  0
  1 13  1  0
  3  4  2  0
  4  5  1  0
  5  6  2  0
  5 10  1  0
  6  7  1  0
  7  8  2  0
  7 12  1  0
  8  9  1  0
  8 11  1  0
  9 10  2  0
M  END
>  <DRUGBANK_ID>  (1) 
DB01880

>  <SECONDARY_ACCESSION_NUMBERS>  (1) 
EXPT01188

>  <COMMON_NAME>  (1) 
3,4-Dihydroxycinnamic Acid

>  <CAS_NUMBER>  (1) 
331-39-5

>  <UNII>  (1) 
U2S3A33KVM

$$$$
