785
     RDKit          2D

 24 26  0  0  0  0  0  0  0  0999 V2000
    2.7455    0.5024    0.0000 C   0  0  0  0  0  0  0  0  0  0  0  0
    2.7455   -0.3226    0.0000 C   0  0  0  0  0  0  0  0  0  0  0  0
    2.0310   -0.7351    0.0000 C   0  0  0  0  0  0  0  0  0  0  0  0
    1.3166   -0.3226    0.0000 C   0  0  0  0  0  0  0  0  0  0  0  0
    1.3166    0.5024    0.0000 C   0  0  0  0  0  0  0  0  0  0  0  0
    2.0310    0.9149    0.0000 C   0  0  0  0  0  0  0  0  0  0  0  0
    3.4600    0.9149    0.0000 C   0  0  0  0  0  0  0  0  0  0  0  0
    4.1745    0.5024    0.0000 N   0  0  0  0  0  0  0  0  0  0  0  0
    3.4600    1.7399    0.0000 N   0  0  0  0  0  0  0  0  0  0  0  0
    0.5320   -0.5776    0.0000 N   0  0  0  0  0  0  0  0  0  0  0  0
    0.5320    0.7573    0.0000 N   0  0  0  0  0  0  0  0  0  0  0  0
    0.0470    0.0899    0.0000 C   0  0  0  0  0  0  0  0  0  0  0  0
   -0.7780    0.0899    0.0000 C   0  0  0  0  0  0  0  0  0  0  0  0
   -1.1905   -0.6246    0.0000 C   0  0  0  0  0  0  0  0  0  0  0  0
   -2.0155   -0.6246    0.0000 C   0  0  0  0  0  0  0  0  0  0  0  0
   -2.4280   -1.3391    0.0000 O   0  0  0  0  0  0  0  0  0  0  0  0
   -2.0155   -2.0535    0.0000 C   0  0  0  0  0  0  0  0  0  0  0  0
   -1.6030   -2.7680    0.0000 F   0  0  0  0  0  0  0  0  0  0  0  0
   -2.7299   -2.4660    0.0000 F   0  0  0  0  0  0  0  0  0  0  0  0
   -1.3010   -1.6410    0.0000 F   0  0  0  0  0  0  0  0  0  0  0  0
   -2.4280    0.0899    0.0000 C   0  0  0  0  0  0  0  0  0  0  0  0
   -2.0155    0.8044    0.0000 C   0  0  0  0  0  0  0  0  0  0  0  0
   -1.1905    0.8044    0.0000 C   0  0  0  0  0  0  0  0  0  0  0  0
   -0.7780    1.5188    0.0000 O   0  0  0  0  0  0  0  0  0  0  0  0
  1  2  2  0
  1  6  1  0
  1  7  1  0
  2  3  1  0
  3  4  2  0
  4  5  1  0
  4 10  1  0
  5  6  2  0
  5 11  1  0
  7  8  1  0
  7  9  2  0
 10 12  1  0
 11 12  2  0
 12 13  1  0
 13 14  2  0
 13 23  1  0
 14 15  1  0
 15 16  1  0
 15 21  2  0
 16 17  1  0
 17 18  1  0
 17 19  1  0
 17 20  1  0
 21 22  1  0
 22 23  2  0
 23 24  1  0
M  CHG  2   9   1  24  -1
M  END
>  <DRUGBANK_ID>  (1) 
DB03595

>  <SECONDARY_ACCESSION_NUMBERS>  (1) 
EXPT00302

>  <COMMON_NAME>  (1) 
CRA_9785

$$$$
