
     RDKit          2D

 27 30  0  0  0  0  0  0  0  0999 V2000
   -1.4083    1.0297    0.0000 C   0  0  0  0  0  0  0  0  0  0  0  0
   -1.4083    0.2047    0.0000 C   0  0  0  0  0  0  0  0  0  0  0  0
   -0.6938   -0.2077    0.0000 C   0  0  0  0  0  0  0  0  0  0  0  0
    0.0206    0.2047    0.0000 C   0  0  0  0  0  0  0  0  0  0  0  0
    0.0206    1.0297    0.0000 C   0  0  0  0  0  0  0  0  0  0  0  0
   -0.6938    1.4422    0.0000 C   0  0  0  0  0  0  0  0  0  0  0  0
    0.7351   -0.2077    0.0000 C   0  0  0  0  0  0  0  0  0  0  0  0
    1.4495    0.2047    0.0000 C   0  0  0  0  0  0  0  0  0  0  0  0
    1.4495    1.0297    0.0000 C   0  0  0  0  0  0  0  0  0  0  0  0
    0.7351    1.4422    0.0000 C   0  0  0  0  0  0  0  0  0  0  0  0
    2.1552    1.4372    0.0000 C   0  0  0  0  0  0  0  0  0  0  0  0
    2.8555    1.0329    0.0000 C   0  0  0  0  0  0  0  0  0  0  0  0
    2.8425    0.2047    0.0000 C   0  0  0  0  0  0  0  0  0  0  0  0
    3.6244   -0.0632    0.0000 N   0  0  0  0  0  0  0  0  0  0  0  0
    4.1208    0.5976    0.0000 C   0  0  0  0  0  0  0  0  0  0  0  0
    3.6458    1.2739    0.0000 S   0  0  0  0  0  0  0  0  0  0  0  0
    4.9435    0.6257    0.0000 O   0  0  0  0  0  0  0  0  0  0  0  0
    2.1661   -0.2705    0.0000 O   0  0  0  0  0  0  0  0  0  0  0  0
   -2.1227   -0.2077    0.0000 O   0  0  0  0  0  0  0  0  0  0  0  0
   -2.8272    0.1990    0.0000 C   0  0  0  0  0  0  0  0  0  0  0  0
   -3.5269   -0.2048    0.0000 C   0  0  0  0  0  0  0  0  0  0  0  0
   -4.2289    0.2005    0.0000 C   0  0  0  0  0  0  0  0  0  0  0  0
   -4.9434   -0.2118    0.0000 C   0  0  0  0  0  0  0  0  0  0  0  0
   -4.9435   -1.0368    0.0000 C   0  0  0  0  0  0  0  0  0  0  0  0
   -4.2415   -1.4422    0.0000 C   0  0  0  0  0  0  0  0  0  0  0  0
   -3.5270   -1.0298    0.0000 C   0  0  0  0  0  0  0  0  0  0  0  0
   -4.2289    1.0296    0.0000 F   0  0  0  0  0  0  0  0  0  0  0  0
  1  2  2  0
  1  6  1  0
  2  3  1  0
  2 19  1  0
  3  4  2  0
  4  5  1  0
  4  7  1  0
  5  6  2  0
  5 10  1  0
  7  8  2  0
  8  9  1  0
  9 10  2  0
  9 11  1  0
 11 12  1  0
 12 13  1  0
 12 16  1  0
 13 14  1  0
 13 18  2  0
 14 15  1  0
 15 16  1  0
 15 17  2  0
 19 20  1  0
 20 21  1  0
 21 22  2  0
 21 26  1  0
 22 23  1  0
 22 27  1  0
 23 24  2  0
 24 25  1  0
 25 26  2  0
M  END
>  <DRUGBANK_ID>  (1) 
DB09199

>  <COMMON_NAME>  (1) 
Netoglitazone

>  <CAS_NUMBER>  (1) 
161600-01-7

>  <UNII>  (1) 
QOV2JZ647A

>  <SYNONYMS>  (1) 
Netoglitazone

$$$$
