
     RDKit          2D

 22 23  0  0  0  0  0  0  0  0999 V2000
   -0.0369    6.5303    0.0000 C   0  0  0  0  0  0  0  0  0  0  0  0
    4.2868    2.4750    0.0000 C   0  0  0  0  0  0  0  0  0  0  0  0
   -2.1434    2.0625    0.0000 C   0  0  0  0  0  0  0  0  0  0  0  0
   -0.5889    5.9172    0.0000 C   0  0  0  0  0  0  0  0  0  0  0  0
    2.1434    2.0625    0.0000 C   0  0  0  0  0  0  0  0  0  0  0  0
    1.4289    2.4750    0.0000 C   0  0  0  0  0  0  0  0  0  0  0  0
    2.8579    2.4750    0.0000 C   0  0  0  0  0  0  0  0  0  0  0  0
   -0.3340    5.1326    0.0000 C   0  0  0  0  0  0  0  0  0  0  0  0
    0.7145    2.0625    0.0000 C   0  0  0  0  0  0  0  0  0  0  0  0
   -1.7065    4.6057    0.0000 C   0  0  0  0  0  0  0  0  0  0  0  0
    3.5724    2.0625    0.0000 C   0  0  0  0  0  0  0  0  0  0  0  0
   -0.7145    3.7125    0.0000 C   0  0  0  0  0  0  0  0  0  0  0  0
   -1.4289    3.3000    0.0000 C   0  0  0  0  0  0  0  0  0  0  0  0
    0.0000    3.3000    0.0000 C   0  0  0  0  0  0  0  0  0  0  0  0
   -0.7145    2.0625    0.0000 C   0  0  0  0  0  0  0  0  0  0  0  0
   -2.0420    3.8520    0.0000 N   0  0  0  0  0  0  0  0  0  0  0  0
   -1.4289    2.4750    0.0000 N   0  0  0  0  0  0  0  0  0  0  0  0
   -0.8860    4.5195    0.0000 N   0  0  0  0  0  0  0  0  0  0  0  0
    0.0000    2.4750    0.0000 N   0  0  0  0  0  0  0  0  0  0  0  0
    3.5724    1.2375    0.0000 O   0  0  0  0  0  0  0  0  0  0  0  0
    0.7145    3.7125    0.0000 O   0  0  0  0  0  0  0  0  0  0  0  0
   -0.7145    1.2375    0.0000 O   0  0  0  0  0  0  0  0  0  0  0  0
  4  1  1  0
  6  5  1  0
  7  5  1  0
  8  4  1  0
  9  6  1  0
 11  2  1  0
 11  7  1  0
 13 12  2  0
 14 12  1  0
 16 10  2  0
 16 13  1  0
 17  3  1  0
 17 13  1  0
 17 15  1  0
 18  8  1  0
 18 10  1  0
 18 12  1  0
 19  9  1  0
 19 14  1  0
 19 15  1  0
 20 11  2  0
 21 14  2  0
 22 15  2  0
M  END
>  <DRUGBANK_ID>  (1) 
DB06479

>  <COMMON_NAME>  (1) 
Propentofylline

>  <CAS_NUMBER>  (1) 
55242-55-2

>  <UNII>  (1) 
5RTA398U4H

>  <SYNONYMS>  (1) 
Propentofylline

$$$$
