
     RDKit          2D

 32 35  0  0  1  0  0  0  0  0999 V2000
   -2.3895    2.1766    0.0000 C   0  0  0  0  0  0  0  0  0  0  0  0
   -1.9402    2.8685    0.0000 C   0  0  0  0  0  0  0  0  0  0  0  0
   -1.6445    3.6387    0.0000 C   0  0  0  0  0  0  0  0  0  0  0  0
   -0.8207    3.5955    0.0000 N   0  0  0  0  0  0  0  0  0  0  0  0
   -0.6071    2.7986    0.0000 C   0  0  0  0  0  0  0  0  0  0  0  0
   -1.2990    2.3493    0.0000 S   0  0  0  0  0  0  0  0  0  0  0  0
    0.1898    3.0121    0.0000 C   0  0  0  0  0  0  0  0  0  0  0  0
   -0.0238    3.8090    0.0000 C   0  0  0  0  0  0  0  0  0  0  0  0
    0.3887    4.5235    0.0000 O   0  0  0  0  0  0  0  0  0  0  0  0
    0.9042    2.5996    0.0000 N   0  0  0  0  0  0  0  0  0  0  0  0
    1.6187    3.0121    0.0000 C   0  0  0  0  0  0  0  0  0  0  0  0
    1.6187    3.8371    0.0000 O   0  0  0  0  0  0  0  0  0  0  0  0
    2.3332    2.5996    0.0000 C   0  0  0  0  0  0  0  0  0  0  0  0
    2.3332    1.7746    0.0000 C   0  0  0  0  0  0  0  0  0  0  0  0
    3.0476    1.3621    0.0000 C   0  0  0  0  0  0  0  0  0  0  0  0
    3.0476    0.5371    0.0000 C   0  0  0  0  0  0  0  0  0  0  0  0
    2.3332    0.1246    0.0000 C   0  0  0  0  0  0  0  0  0  0  0  0
    1.6187    0.5371    0.0000 C   0  0  0  0  0  0  0  0  0  0  0  0
    1.6187    1.3621    0.0000 C   0  0  0  0  0  0  0  0  0  0  0  0
    3.0476    3.0121    0.0000 C   0  0  0  0  0  0  0  0  0  0  0  0
    3.0476    3.8371    0.0000 O   0  0  0  0  0  0  0  0  0  0  0  0
    3.7621    2.5996    0.0000 O   0  0  0  0  0  0  0  0  0  0  0  0
    4.4766    3.0121    0.0000 C   0  0  0  0  0  0  0  0  0  0  0  0
    4.4766    3.8371    0.0000 C   0  0  0  0  0  0  0  0  0  0  0  0
    5.1911    4.2496    0.0000 C   0  0  0  0  0  0  0  0  0  0  0  0
    5.9055    3.8371    0.0000 C   0  0  0  0  0  0  0  0  0  0  0  0
    5.9055    3.0121    0.0000 C   0  0  0  0  0  0  0  0  0  0  0  0
    5.1911    2.5996    0.0000 C   0  0  0  0  0  0  0  0  0  0  0  0
   -2.0939    4.3306    0.0000 C   0  0  0  0  0  0  0  0  0  0  0  0
   -2.9177    4.2874    0.0000 O   0  0  0  0  0  0  0  0  0  0  0  0
   -1.7193    5.0657    0.0000 O   0  0  0  0  0  0  0  0  0  0  0  0
   -2.6753    3.2430    0.0000 C   0  0  0  0  0  0  0  0  0  0  0  0
  1  2  1  0
  2  3  1  0
  2  6  1  0
  2 32  1  0
  3  4  1  0
  3 29  1  6
  4  8  1  0
  5  4  1  0
  5  6  1  1
  5  7  1  0
  7  8  1  0
  7 10  1  1
  8  9  2  0
 10 11  1  0
 11 12  2  0
 11 13  1  0
 13 14  1  0
 13 20  1  0
 14 15  2  0
 14 19  1  0
 15 16  1  0
 16 17  2  0
 17 18  1  0
 18 19  2  0
 20 21  2  0
 20 22  1  0
 22 23  1  0
 23 24  2  0
 23 28  1  0
 24 25  1  0
 25 26  2  0
 26 27  1  0
 27 28  2  0
 29 30  2  0
 29 31  1  0
M  END
>  <DRUGBANK_ID>  (1) 
DB13506

>  <COMMON_NAME>  (1) 
Carfecillin

>  <CAS_NUMBER>  (1) 
27025-49-6

>  <UNII>  (1) 
9UU4XDB74X

>  <SYNONYMS>  (1) 
Carbenicillin phenyl; Carfecilina; Carfecillin; Carfecilline; Carfecillinum

$$$$
