1178
     RDKit          2D

 17 18  0  0  1  0  0  0  0  0999 V2000
    1.6500   -1.8563    0.0000 Cl  0  0  0  0  0  0  0  0  0  0  0  0
    5.2224   -0.6188    0.0000 S   0  0  0  0  0  0  0  0  0  0  0  0
    4.8099   -1.3332    0.0000 O   0  0  0  0  0  0  0  0  0  0  0  0
    5.6350   -1.3332    0.0000 O   0  0  0  0  0  0  0  0  0  0  0  0
    5.2224    1.8563    0.0000 O   0  0  0  0  0  0  0  0  0  0  0  0
    4.5080    0.6188    0.0000 N   0  0  0  0  0  0  0  0  0  0  0  0
    4.5080   -0.2063    0.0000 C   0  0  0  0  0  0  0  0  0  0  0  0
    5.9370   -0.2063    0.0000 C   0  0  0  0  0  0  0  0  0  0  0  0
    5.9370    0.6188    0.0000 C   0  0  0  0  0  0  0  0  0  0  0  0
    3.7935   -0.6188    0.0000 C   0  0  0  0  0  0  0  0  0  0  0  0
    5.2224    1.0313    0.0000 C   0  0  0  0  0  0  0  0  0  0  0  0
    3.7935    1.0313    0.0000 C   0  0  0  0  0  0  0  0  0  0  0  0
    3.7935   -1.4438    0.0000 C   0  0  0  0  0  0  0  0  0  0  0  0
    3.0791   -0.2063    0.0000 C   0  0  0  0  0  0  0  0  0  0  0  0
    3.0791   -1.8563    0.0000 C   0  0  0  0  0  0  0  0  0  0  0  0
    2.3645   -0.6188    0.0000 C   0  0  0  0  0  0  0  0  0  0  0  0
    2.3645   -1.4438    0.0000 C   0  0  0  0  0  0  0  0  0  0  0  0
  1 17  1  0
  2  3  2  0
  2  4  2  0
  2  7  1  0
  2  8  1  0
  5 11  2  0
  6  7  1  0
  6 11  1  0
  6 12  1  0
  7 10  1  0
  8  9  1  0
  9 11  1  0
 10 13  2  0
 10 14  1  0
 13 15  1  0
 14 16  2  0
 15 17  2  0
 16 17  1  0
M  END
>  <DRUGBANK_ID>  (1) 
DB01178

>  <SECONDARY_ACCESSION_NUMBERS>  (1) 
APRD00865

>  <COMMON_NAME>  (1) 
Chlormezanone

>  <CAS_NUMBER>  (1) 
80-77-3

>  <UNII>  (1) 
GP568V9G19

>  <SYNONYMS>  (1) 
(±)-chlormezanone; 2-(p-chlorophenyl)tetrahydro-3-methyl-4H-1,3-thiazin-4-one 1,1-dioxide; 2-(p-chlorphenyl)-3-methyl-1,3-perhydrothiazin-4-on-1,1-dioxide; Chlormethazanone; Chlormezanona; Chlormézanone; Chlormezanone; Chlormezanonum; Clormezanona

$$$$
