
     RDKit          2D

  7  7  0  0  0  0  0  0  0  0999 V2000
    0.0000    0.0000    0.0000 O   0  0  0  0  0  0  0  0  0  0  0  0
    0.6674   -0.4849    0.0000 C   0  0  0  0  0  0  0  0  0  0  0  0
   -0.6674   -0.4849    0.0000 N   0  0  0  0  0  0  0  0  0  0  0  0
    0.4125   -1.2695    0.0000 C   0  0  0  0  0  0  0  0  0  0  0  0
    0.8974   -1.9370    0.0000 N   0  0  0  0  0  0  0  0  0  0  0  0
   -0.4125   -1.2695    0.0000 C   0  0  0  0  0  0  0  0  0  0  0  0
   -0.8974   -1.9370    0.0000 O   0  0  0  0  0  0  0  0  0  0  0  0
  1  2  1  0
  1  3  1  0
  2  4  1  0
  4  6  1  0
  4  5  1  1
  6  3  1  0
  6  7  2  0
M  END
>  <DRUGBANK_ID>  (1) 
DB00260

>  <SECONDARY_ACCESSION_NUMBERS>  (1) 
APRD00894; DB03123

>  <COMMON_NAME>  (1) 
Cycloserine

>  <CAS_NUMBER>  (1) 
68-41-7

>  <UNII>  (1) 
95IK5KI84Z

>  <SYNONYMS>  (1) 
(+)-4-amino-3-isoxazolidinone; (+)-cycloserine; alpha-Cycloserine; Cicloserina; cyclo-D-Serine; Cyclosérine; Cycloserine; Cycloserinum; D-(+)-cycloserine; D-4-amino-3-isoxazolidinone; D-4-amino-3-isoxazolidone; D-Cycloserine; DCS; Orientomycin; α-Cycloserine

$$$$
