4TR
     RDKit          2D

 27 29  0  0  0  0  0  0  0  0999 V2000
    0.6589   -3.3244    0.0000 S   0  0  0  0  0  0  0  0  0  0  0  0
    1.4436   -3.5794    0.0000 O   0  0  0  0  0  0  0  0  0  0  0  0
    0.9139   -2.5398    0.0000 O   0  0  0  0  0  0  0  0  0  0  0  0
   -0.1257   -3.0695    0.0000 O   0  0  0  0  0  0  0  0  0  0  0  0
    0.4040   -4.1090    0.0000 N   0  0  0  0  0  0  0  0  0  0  0  0
   -0.2972   -2.2625    0.0000 C   0  0  0  0  0  0  0  0  0  0  0  0
   -1.0818   -2.0076    0.0000 C   0  0  0  0  0  0  0  0  0  0  0  0
   -1.2534   -1.2006    0.0000 C   0  0  0  0  0  0  0  0  0  0  0  0
   -0.6403   -0.6486    0.0000 C   0  0  0  0  0  0  0  0  0  0  0  0
    0.1444   -0.9035    0.0000 C   0  0  0  0  0  0  0  0  0  0  0  0
    0.3159   -1.7105    0.0000 C   0  0  0  0  0  0  0  0  0  0  0  0
   -0.8118    0.1584    0.0000 C   0  0  0  0  0  0  0  0  0  0  0  0
   -0.8848    3.9383    0.0000 C   0  0  0  0  0  0  0  0  0  0  0  0
   -1.0563    4.7453    0.0000 N   0  0  0  0  0  0  0  0  0  0  0  0
   -0.7133    3.1314    0.0000 C   0  0  0  0  0  0  0  0  0  0  0  0
    0.0714    2.8764    0.0000 C   0  0  0  0  0  0  0  0  0  0  0  0
    0.2429    2.0695    0.0000 C   0  0  0  0  0  0  0  0  0  0  0  0
   -0.3702    1.5174    0.0000 C   0  0  0  0  0  0  0  0  0  0  0  0
   -1.1548    1.7724    0.0000 C   0  0  0  0  0  0  0  0  0  0  0  0
   -1.3264    2.5793    0.0000 C   0  0  0  0  0  0  0  0  0  0  0  0
   -0.1987    0.7104    0.0000 N   0  0  0  0  0  0  0  0  0  0  0  0
    1.9208    0.4555    0.0000 N   0  0  0  0  0  0  0  0  0  0  0  0
    1.6659   -0.3291    0.0000 N   0  0  0  0  0  0  0  0  0  0  0  0
    0.8409   -0.3291    0.0000 C   0  0  0  0  0  0  0  0  0  0  0  0
    0.5859    0.4555    0.0000 N   0  0  0  0  0  0  0  0  0  0  0  0
    1.2534    0.9404    0.0000 C   0  0  0  0  0  0  0  0  0  0  0  0
    1.1005   -1.9654    0.0000 Br  0  0  0  0  0  0  0  0  0  0  0  0
  1  2  2  0
  1  3  2  0
  1  4  1  0
  1  5  1  0
  4  6  1  0
  6  7  2  0
  6 11  1  0
  7  8  1  0
  8  9  2  0
  9 10  1  0
  9 12  1  0
 10 11  2  0
 11 27  1  0
 12 21  1  0
 13 14  3  0
 13 15  1  0
 15 16  2  0
 15 20  1  0
 16 17  1  0
 17 18  2  0
 18 19  1  0
 18 21  1  0
 19 20  2  0
 21 25  1  0
 22 23  1  0
 22 26  2  0
 23 24  2  0
 24 25  1  0
 25 26  1  0
M  END
>  <DRUGBANK_ID>  (1) 
DB04600

>  <COMMON_NAME>  (1) 
4-[(3-BROMO-4-O-SULFAMOYLBENZYL)(4-CYANOPHENYL)AMINO]-4H-[1,2,4]-TRIAZOLE

$$$$
