
     RDKit          2D

 30 32  0  0  0  0  0  0  0  0999 V2000
    0.7144    0.2222    0.0000 O   0  0  0  0  0  0  0  0  0  0  0  0
    1.4289    0.6347    0.0000 C   0  0  0  0  0  0  0  0  0  0  0  0
    1.4289    1.4597    0.0000 N   0  0  0  0  0  0  0  0  0  0  0  0
    0.7144    1.8722    0.0000 N   0  0  0  0  0  0  0  0  0  0  0  0
    0.0000    1.4597    0.0000 C   0  0  0  0  0  0  0  0  0  0  0  0
   -0.7144    1.8722    0.0000 C   0  0  0  0  0  0  0  0  0  0  0  0
   -1.4289    1.4597    0.0000 C   0  0  0  0  0  0  0  0  0  0  0  0
   -2.1433    1.8722    0.0000 C   0  0  0  0  0  0  0  0  0  0  0  0
   -2.8578    1.4597    0.0000 O   0  0  0  0  0  0  0  0  0  0  0  0
   -3.5723    1.8722    0.0000 C   0  0  0  0  0  0  0  0  0  0  0  0
   -2.1433    2.6972    0.0000 C   0  0  0  0  0  0  0  0  0  0  0  0
   -2.8578    3.1097    0.0000 Br  0  0  0  0  0  0  0  0  0  0  0  0
   -1.4289    3.1097    0.0000 C   0  0  0  0  0  0  0  0  0  0  0  0
   -1.4289    3.9347    0.0000 O   0  0  0  0  0  0  0  0  0  0  0  0
   -0.7144    4.3472    0.0000 C   0  0  0  0  0  0  0  0  0  0  0  0
   -0.7144    2.6972    0.0000 C   0  0  0  0  0  0  0  0  0  0  0  0
    2.1433    0.2222    0.0000 C   0  0  0  0  0  0  0  0  0  0  0  0
    2.1433   -0.6027    0.0000 C   0  0  0  0  0  0  0  0  0  0  0  0
    2.8578   -1.0152    0.0000 C   0  0  0  0  0  0  0  0  0  0  0  0
    2.8578   -1.8402    0.0000 C   0  0  0  0  0  0  0  0  0  0  0  0
    2.1433   -2.2527    0.0000 C   0  0  0  0  0  0  0  0  0  0  0  0
    2.1433   -3.0777    0.0000 N   0  0  0  0  0  0  0  0  0  0  0  0
    2.8108   -3.5626    0.0000 N   0  0  0  0  0  0  0  0  0  0  0  0
    2.5558   -4.3472    0.0000 C   0  0  0  0  0  0  0  0  0  0  0  0
    1.7308   -4.3472    0.0000 C   0  0  0  0  0  0  0  0  0  0  0  0
    1.4760   -3.5626    0.0000 C   0  0  0  0  0  0  0  0  0  0  0  0
    1.4289   -1.8402    0.0000 C   0  0  0  0  0  0  0  0  0  0  0  0
    1.4289   -1.0152    0.0000 C   0  0  0  0  0  0  0  0  0  0  0  0
    2.8578    0.6347    0.0000 O   0  0  0  0  0  0  0  0  0  0  0  0
    3.5723    0.2222    0.0000 C   0  0  0  0  0  0  0  0  0  0  0  0
  1  2  2  0
  2  3  1  0
  2 17  1  0
  3  4  1  0
  4  5  2  0
  5  6  1  0
  6  7  2  0
  6 16  1  0
  7  8  1  0
  8  9  1  0
  8 11  2  0
  9 10  1  0
 11 12  1  0
 11 13  1  0
 13 14  1  0
 13 16  2  0
 14 15  1  0
 17 18  1  0
 17 29  1  0
 18 19  2  0
 18 28  1  0
 19 20  1  0
 20 21  2  0
 21 22  1  0
 21 27  1  0
 22 23  1  0
 22 26  1  0
 23 24  2  0
 24 25  1  0
 25 26  2  0
 27 28  2  0
 29 30  1  0
M  END
>  <DRUGBANK_ID>  (1) 
DB17874

>  <COMMON_NAME>  (1) 
OMS-824

>  <CAS_NUMBER>  (1) 
1207549-69-6

$$$$
