
     RDKit          2D

 10 11  0  0  0  0  0  0  0  0999 V2000
    6.8474   -9.9413    0.0000 C   0  0  0  0  0  0  0  0  0  0  0  0
    7.6724   -9.9413    0.0000 C   0  0  0  0  0  0  0  0  0  0  0  0
    7.9274   -9.1566    0.0000 N   0  0  0  0  0  0  0  0  0  0  0  0
    7.2600   -8.6717    0.0000 O   0  0  0  0  0  0  0  0  0  0  0  0
    6.5926   -9.1566    0.0000 C   0  0  0  0  0  0  0  0  0  0  0  0
    8.0850  -10.6557    0.0000 O   0  0  0  0  0  0  0  0  0  0  0  0
    5.7856   -8.9851    0.0000 C   0  0  0  0  0  0  0  0  0  0  0  0
    5.2336   -9.5982    0.0000 N   0  0  0  0  0  0  0  0  0  0  0  0
    5.4885  -10.3828    0.0000 C   0  0  0  0  0  0  0  0  0  0  0  0
    6.2955  -10.5544    0.0000 C   0  0  0  0  0  0  0  0  0  0  0  0
  1  2  1  0
  1  5  2  0
  1 10  1  0
  2  3  1  0
  2  6  2  0
  3  4  1  0
  4  5  1  0
  5  7  1  0
  7  8  1  0
  8  9  1  0
  9 10  1  0
M  END
>  <DRUGBANK_ID>  (1) 
DB06554

>  <COMMON_NAME>  (1) 
Gaboxadol

>  <CAS_NUMBER>  (1) 
64603-91-4

>  <UNII>  (1) 
K1M5RVL18S

>  <SYNONYMS>  (1) 
4,5,6,7-tetrahydroisoxazolo(5,4-c)pyridin-3-ol; Gaboxadol; THIP

$$$$
