
     RDKit          2D

 30 34  0  0  0  0  0  0  0  0999 V2000
    6.7596   -3.7394    0.0000 C   0  0  0  0  0  0  0  0  0  0  0  0
    6.4557   -2.9724    0.0000 C   0  0  0  0  0  0  0  0  0  0  0  0
    6.9679   -2.3257    0.0000 C   0  0  0  0  0  0  0  0  0  0  0  0
    7.7841   -2.4460    0.0000 C   0  0  0  0  0  0  0  0  0  0  0  0
    8.0880   -3.2129    0.0000 C   0  0  0  0  0  0  0  0  0  0  0  0
    7.5758   -3.8596    0.0000 C   0  0  0  0  0  0  0  0  0  0  0  0
    8.2963   -1.7992    0.0000 F   0  0  0  0  0  0  0  0  0  0  0  0
    6.6639   -1.5588    0.0000 N   0  0  0  0  0  0  0  0  0  0  0  0
    5.8648   -1.3539    0.0000 N   0  0  0  0  0  0  0  0  0  0  0  0
    5.8127   -0.5305    0.0000 C   0  0  0  0  0  0  0  0  0  0  0  0
    6.5797   -0.2265    0.0000 C   0  0  0  0  0  0  0  0  0  0  0  0
    7.1058   -0.8620    0.0000 C   0  0  0  0  0  0  0  0  0  0  0  0
    5.1160   -0.0887    0.0000 N   0  0  0  0  0  0  0  0  0  0  0  0
    4.3850   -0.4711    0.0000 C   0  0  0  0  0  0  0  0  0  0  0  0
    4.3507   -1.2954    0.0000 O   0  0  0  0  0  0  0  0  0  0  0  0
    3.6883   -0.0293    0.0000 C   0  0  0  0  0  0  0  0  0  0  0  0
    2.9573   -0.4118    0.0000 C   0  0  0  0  0  0  0  0  0  0  0  0
    2.2606    0.0300    0.0000 C   0  0  0  0  0  0  0  0  0  0  0  0
    2.2948    0.8543    0.0000 C   0  0  0  0  0  0  0  0  0  0  0  0
    2.2428    1.6777    0.0000 O   0  0  0  0  0  0  0  0  0  0  0  0
    1.4436    1.8826    0.0000 C   0  0  0  0  0  0  0  0  0  0  0  0
    1.1396    2.6495    0.0000 O   0  0  0  0  0  0  0  0  0  0  0  0
    1.0018    1.1859    0.0000 C   0  0  0  0  0  0  0  0  0  0  0  0
    1.5279    0.5504    0.0000 C   0  0  0  0  0  0  0  0  0  0  0  0
    1.2406   -0.2230    0.0000 C   0  0  0  0  0  0  0  0  0  0  0  0
    0.4272   -0.3609    0.0000 N   0  0  0  0  0  0  0  0  0  0  0  0
   -0.0989    0.2746    0.0000 C   0  0  0  0  0  0  0  0  0  0  0  0
    0.1884    1.0480    0.0000 C   0  0  0  0  0  0  0  0  0  0  0  0
    3.0258    1.2368    0.0000 C   0  0  0  0  0  0  0  0  0  0  0  0
    3.7225    0.7950    0.0000 C   0  0  0  0  0  0  0  0  0  0  0  0
  1  2  2  0
  1  6  1  0
  2  3  1  0
  3  4  2  0
  3  8  1  0
  4  5  1  0
  4  7  1  0
  5  6  2  0
  8  9  1  0
  8 12  1  0
  9 10  2  0
 10 11  1  0
 10 13  1  0
 11 12  2  0
 13 14  1  0
 14 15  2  0
 16 14  1  1
 16 17  1  0
 16 30  1  0
 17 18  1  0
 19 18  1  6
 19 20  1  0
 19 24  1  0
 19 29  1  0
 20 21  1  0
 21 22  2  0
 21 23  1  0
 23 24  2  0
 23 28  1  0
 24 25  1  0
 25 26  2  0
 26 27  1  0
 27 28  2  0
 29 30  1  0
M  END
>  <DRUGBANK_ID>  (1) 
DB12168

>  <COMMON_NAME>  (1) 
MK-0557

>  <CAS_NUMBER>  (1) 
328232-95-7

>  <UNII>  (1) 
HVE36P8422

$$$$
