
     RDKit          2D

 26 28  0  0  0  0  0  0  0  0999 V2000
   -3.7314    0.2537    0.0000 C   0  0  0  0  0  0  0  0  0  0  0  0
   -4.4460   -0.1587    0.0000 C   0  0  0  0  0  0  0  0  0  0  0  0
   -4.4460   -0.9837    0.0000 C   0  0  0  0  0  0  0  0  0  0  0  0
   -3.7314   -1.3962    0.0000 C   0  0  0  0  0  0  0  0  0  0  0  0
   -3.0169   -0.9837    0.0000 C   0  0  0  0  0  0  0  0  0  0  0  0
   -3.0169   -0.1587    0.0000 C   0  0  0  0  0  0  0  0  0  0  0  0
   -3.7314   -2.2212    0.0000 Cl  0  0  0  0  0  0  0  0  0  0  0  0
   -2.3025    0.2537    0.0000 N   0  0  0  0  0  0  0  0  0  0  0  0
   -1.5879   -0.1587    0.0000 C   0  0  0  0  0  0  0  0  0  0  0  0
   -0.8735    0.2537    0.0000 C   0  0  0  0  0  0  0  0  0  0  0  0
   -0.8735    1.0787    0.0000 N   0  0  0  0  0  0  0  0  0  0  0  0
   -1.5879    1.4912    0.0000 C   0  0  0  0  0  0  0  0  0  0  0  0
   -2.3025    1.0787    0.0000 C   0  0  0  0  0  0  0  0  0  0  0  0
   -0.1590    1.4912    0.0000 C   0  0  0  0  0  0  0  0  0  0  0  0
    0.5554    1.0787    0.0000 C   0  0  0  0  0  0  0  0  0  0  0  0
    1.2698    1.4912    0.0000 C   0  0  0  0  0  0  0  0  0  0  0  0
    1.9843    1.0787    0.0000 N   0  0  0  0  0  0  0  0  0  0  0  0
    2.0706    0.2582    0.0000 N   0  0  0  0  0  0  0  0  0  0  0  0
    2.8775    0.0867    0.0000 C   0  0  0  0  0  0  0  0  0  0  0  0
    3.2900    0.8012    0.0000 N   0  0  0  0  0  0  0  0  0  0  0  0
    2.7380    1.4142    0.0000 C   0  0  0  0  0  0  0  0  0  0  0  0
    2.9095    2.2212    0.0000 O   0  0  0  0  0  0  0  0  0  0  0  0
    4.1105    0.8874    0.0000 C   0  0  0  0  0  0  0  0  0  0  0  0
    4.4460    1.6411    0.0000 C   0  0  0  0  0  0  0  0  0  0  0  0
    3.2131   -0.6669    0.0000 C   0  0  0  0  0  0  0  0  0  0  0  0
    4.0335   -0.7531    0.0000 C   0  0  0  0  0  0  0  0  0  0  0  0
  1  2  2  0
  1  6  1  0
  2  3  1  0
  3  4  2  0
  4  5  1  0
  4  7  1  0
  5  6  2  0
  6  8  1  0
  8  9  1  0
  9 10  1  0
 10 11  1  0
 11 12  1  0
 11 14  1  0
 12 13  1  0
 13  8  1  0
 14 15  1  0
 15 16  1  0
 16 17  1  0
 17 18  1  0
 17 21  1  0
 18 19  2  0
 19 20  1  0
 19 25  1  0
 20 21  1  0
 20 23  1  0
 21 22  2  0
 23 24  1  0
 25 26  1  0
M  END
>  <DRUGBANK_ID>  (1) 
DB09194

>  <COMMON_NAME>  (1) 
Etoperidone

>  <CAS_NUMBER>  (1) 
52942-31-1

>  <UNII>  (1) 
KAI6MVO39Z

>  <SYNONYMS>  (1) 
Etoperidone

$$$$
