I45
     RDKit          2D

 30 32  0  0  0  0  0  0  0  0999 V2000
    0.0529   -2.8935    0.0000 C   0  0  0  0  0  0  0  0  0  0  0  0
    0.7674   -3.3060    0.0000 C   0  0  0  0  0  0  0  0  0  0  0  0
    0.7674   -4.1310    0.0000 C   0  0  0  0  0  0  0  0  0  0  0  0
    0.0529   -4.5435    0.0000 C   0  0  0  0  0  0  0  0  0  0  0  0
   -0.6615   -4.1310    0.0000 C   0  0  0  0  0  0  0  0  0  0  0  0
   -0.6615   -3.3060    0.0000 C   0  0  0  0  0  0  0  0  0  0  0  0
    0.0529   -2.0685    0.0000 C   0  0  0  0  0  0  0  0  0  0  0  0
   -0.6615   -1.6560    0.0000 O   0  0  0  0  0  0  0  0  0  0  0  0
   -0.6615   -0.8310    0.0000 C   0  0  0  0  0  0  0  0  0  0  0  0
   -1.3760   -0.4185    0.0000 C   0  0  0  0  0  0  0  0  0  0  0  0
   -1.3760    0.4065    0.0000 C   0  0  0  0  0  0  0  0  0  0  0  0
   -0.6615    0.8190    0.0000 N   0  0  0  0  0  0  0  0  0  0  0  0
    0.0529    0.4065    0.0000 C   0  0  0  0  0  0  0  0  0  0  0  0
    0.0529   -0.4185    0.0000 C   0  0  0  0  0  0  0  0  0  0  0  0
   -0.6615    1.6440    0.0000 C   0  0  0  0  0  0  0  0  0  0  0  0
   -1.3760    2.0565    0.0000 C   0  0  0  0  0  0  0  0  0  0  0  0
   -1.3760    2.8815    0.0000 C   0  0  0  0  0  0  0  0  0  0  0  0
   -0.6615    3.2940    0.0000 C   0  0  0  0  0  0  0  0  0  0  0  0
    0.0529    2.8815    0.0000 C   0  0  0  0  0  0  0  0  0  0  0  0
    0.0529    2.0565    0.0000 C   0  0  0  0  0  0  0  0  0  0  0  0
    1.4819   -2.8935    0.0000 F   0  0  0  0  0  0  0  0  0  0  0  0
    0.0529   -5.3685    0.0000 F   0  0  0  0  0  0  0  0  0  0  0  0
   -2.0905   -0.8310    0.0000 Br  0  0  0  0  0  0  0  0  0  0  0  0
   -2.0905    0.8190    0.0000 O   0  0  0  0  0  0  0  0  0  0  0  0
    0.7674    0.8190    0.0000 C   0  0  0  0  0  0  0  0  0  0  0  0
   -2.0905    3.2940    0.0000 C   0  0  0  0  0  0  0  0  0  0  0  0
   -2.8049    2.8815    0.0000 O   0  0  0  0  0  0  0  0  0  0  0  0
   -2.0905    4.1190    0.0000 N   0  0  0  0  0  0  0  0  0  0  0  0
   -2.8049    4.5315    0.0000 C   0  0  0  0  0  0  0  0  0  0  0  0
    0.7674    1.6440    0.0000 C   0  0  0  0  0  0  0  0  0  0  0  0
  1  2  2  0
  1  6  1  0
  1  7  1  0
  2  3  1  0
  2 21  1  0
  3  4  2  0
  4  5  1  0
  4 22  1  0
  5  6  2  0
  7  8  1  0
  8  9  1  0
  9 10  2  0
  9 14  1  0
 10 11  1  0
 10 23  1  0
 11 12  1  0
 11 24  2  0
 12 13  1  0
 12 15  1  0
 13 14  2  0
 13 25  1  0
 15 16  2  0
 15 20  1  0
 16 17  1  0
 17 18  2  0
 17 26  1  0
 18 19  1  0
 19 20  2  0
 20 30  1  0
 26 27  2  0
 26 28  1  0
 28 29  1  0
M  END
>  <DRUGBANK_ID>  (1) 
DB07941

>  <SECONDARY_ACCESSION_NUMBERS>  (1) 
DB11722

>  <COMMON_NAME>  (1) 
PH-797804

>  <CAS_NUMBER>  (1) 
586379-66-0

>  <UNII>  (1) 
SI09I1V827

$$$$
