
     RDKit          2D

 30 33  0  0  0  0  0  0  0  0999 V2000
   -3.5837    2.2688    0.0000 C   0  0  0  0  0  0  0  0  0  0  0  0
   -4.2969    1.8563    0.0000 C   0  0  0  0  0  0  0  0  0  0  0  0
   -4.2969    1.0312    0.0000 C   0  0  0  0  0  0  0  0  0  0  0  0
   -3.5837    0.6188    0.0000 C   0  0  0  0  0  0  0  0  0  0  0  0
   -2.8617    1.0312    0.0000 C   0  0  0  0  0  0  0  0  0  0  0  0
   -2.8617    1.8563    0.0000 C   0  0  0  0  0  0  0  0  0  0  0  0
   -3.5837    3.1023    0.0000 I   0  0  0  0  0  0  0  0  0  0  0  0
   -2.1484    0.6188    0.0000 C   0  0  0  0  0  0  0  0  0  0  0  0
   -1.4352    1.0312    0.0000 C   0  0  0  0  0  0  0  0  0  0  0  0
   -0.7132    2.2688    0.0000 C   0  0  0  0  0  0  0  0  0  0  0  0
   -1.4352    1.8563    0.0000 C   0  0  0  0  0  0  0  0  0  0  0  0
   -0.7132    0.6188    0.0000 C   0  0  0  0  0  0  0  0  0  0  0  0
    0.0000    1.0312    0.0000 C   0  0  0  0  0  0  0  0  0  0  0  0
    0.0000    1.8563    0.0000 C   0  0  0  0  0  0  0  0  0  0  0  0
   -2.1484    2.2688    0.0000 O   0  0  0  0  0  0  0  0  0  0  0  0
   -0.7132   -0.2062    0.0000 N   0  0  0  0  0  0  0  0  0  0  0  0
    0.0000   -0.6188    0.0000 C   0  0  0  0  0  0  0  0  0  0  0  0
    0.7132   -0.2062    0.0000 C   0  0  0  0  0  0  0  0  0  0  0  0
    0.0000   -1.4523    0.0000 C   0  0  0  0  0  0  0  0  0  0  0  0
    0.7132   -1.8648    0.0000 C   0  0  0  0  0  0  0  0  0  0  0  0
    1.4352   -1.4523    0.0000 C   0  0  0  0  0  0  0  0  0  0  0  0
    1.4352   -0.6188    0.0000 C   0  0  0  0  0  0  0  0  0  0  0  0
    2.1484   -1.8648    0.0000 C   0  0  0  0  0  0  0  0  0  0  0  0
    3.5837   -1.8648    0.0000 C   0  0  0  0  0  0  0  0  0  0  0  0
    2.8617   -1.4523    0.0000 C   0  0  0  0  0  0  0  0  0  0  0  0
    2.8617   -0.6188    0.0000 C   0  0  0  0  0  0  0  0  0  0  0  0
    3.5837   -2.6898    0.0000 C   0  0  0  0  0  0  0  0  0  0  0  0
    4.2969   -3.1023    0.0000 O   0  0  0  0  0  0  0  0  0  0  0  0
    2.1484   -2.6898    0.0000 N   0  0  0  0  0  0  0  0  0  0  0  0
    2.8617   -3.1023    0.0000 N   0  0  0  0  0  0  0  0  0  0  0  0
  1  2  2  0
  1  6  1  0
  1  7  1  0
  2  3  1  0
  3  4  2  0
  4  5  1  0
  5  6  2  0
  5  8  1  0
  8  9  1  0
  9 11  1  0
  9 12  2  0
 10 11  1  0
 10 14  1  0
 11 15  2  0
 12 13  1  0
 12 16  1  0
 13 14  1  0
 16 17  1  0
 17 18  2  0
 17 19  1  0
 18 22  1  0
 19 20  2  0
 20 21  1  0
 21 22  2  0
 21 23  1  0
 23 25  1  0
 23 29  2  0
 24 25  1  0
 24 27  1  0
 25 26  1  6
 27 30  1  0
 27 28  2  0
 29 30  1  0
M  END
>  <DRUGBANK_ID>  (1) 
DB01640

>  <SECONDARY_ACCESSION_NUMBERS>  (1) 
EXPT00272

>  <COMMON_NAME>  (1) 
6-(4-{[2-(3-iodobenzyl)-3-oxocyclohex-1-en-1-yl]amino}phenyl)-5-methyl-4,5-dihydropyridazin-3(2H)-one

>  <SYNONYMS>  (1) 
(4R)-3-[4-[[2-[(3-Iodophenyl)methyl]-3-oxocyclohexen-1-yl]amino]phenyl]-4-methyl-4,5-dihydro-1H-pyridazin-6-one

$$$$
