A11
     RDKit          2D

 19 20  0  0  0  0  0  0  0  0999 V2000
    2.2993    1.3973    0.0000 Cl  0  0  0  0  0  0  0  0  0  0  0  0
    2.2993    0.5723    0.0000 C   0  0  0  0  0  0  0  0  0  0  0  0
    3.0138    0.1598    0.0000 C   0  0  0  0  0  0  0  0  0  0  0  0
    3.0138   -0.6652    0.0000 C   0  0  0  0  0  0  0  0  0  0  0  0
    2.2993   -1.0777    0.0000 N   0  0  0  0  0  0  0  0  0  0  0  0
    1.5848   -0.6652    0.0000 C   0  0  0  0  0  0  0  0  0  0  0  0
    1.5848    0.1598    0.0000 C   0  0  0  0  0  0  0  0  0  0  0  0
    0.8703   -1.0777    0.0000 N   0  0  0  0  0  0  0  0  0  0  0  0
    0.1559   -0.6652    0.0000 C   0  0  0  0  0  0  0  0  0  0  0  0
   -0.5586   -1.0777    0.0000 C   0  0  0  0  0  0  0  0  0  0  0  0
   -1.2731   -0.6652    0.0000 C   0  0  0  0  0  0  0  0  0  0  0  0
   -1.2731    0.1598    0.0000 N   0  0  0  0  0  0  0  0  0  0  0  0
   -0.5586    0.5723    0.0000 C   0  0  0  0  0  0  0  0  0  0  0  0
    0.1559    0.1598    0.0000 C   0  0  0  0  0  0  0  0  0  0  0  0
   -1.9875    0.5723    0.0000 C   0  0  0  0  0  0  0  0  0  0  0  0
   -1.9875    1.3973    0.0000 O   0  0  0  0  0  0  0  0  0  0  0  0
   -2.7020    0.1598    0.0000 O   0  0  0  0  0  0  0  0  0  0  0  0
   -3.4165    0.5723    0.0000 C   0  0  0  0  0  0  0  0  0  0  0  0
   -4.1310    0.1598    0.0000 C   0  0  0  0  0  0  0  0  0  0  0  0
  1  2  1  0
  2  3  2  0
  2  7  1  0
  3  4  1  0
  4  5  2  0
  5  6  1  0
  6  7  2  0
  6  8  1  0
  8  9  1  0
  9 10  1  0
  9 14  1  0
 10 11  1  0
 11 12  1  0
 12 13  1  0
 12 15  1  0
 13 14  1  0
 15 16  2  0
 15 17  1  0
 17 18  1  0
 18 19  1  0
M  END
>  <DRUGBANK_ID>  (1) 
DB07306

>  <COMMON_NAME>  (1) 
ETHYL 4-[(4-CHLOROPYRIDIN-2-YL)AMINO]PIPERIDINE-1-CARBOXYLATE

$$$$
