
     RDKit          2D

 28 27  0  0  0  0  0  0  0  0999 V2000
   -0.8794    0.7161    0.0000 C   0  0  0  0  0  0  0  0  0  0  0  0
   -1.5445    0.2756    0.0000 N   0  0  0  0  0  0  0  0  0  0  0  0
   -2.2125    0.7686    0.0000 N   0  0  0  0  0  0  0  0  0  0  0  0
   -1.1157    1.5270    0.0000 C   0  0  0  0  0  0  0  0  0  0  0  0
   -1.9500    1.5358    0.0000 C   0  0  0  0  0  0  0  0  0  0  0  0
    1.8595    0.9757    0.0000 C   0  0  0  0  0  0  0  0  0  0  0  0
    1.9528   -1.2994    0.0000 C   0  0  0  0  0  0  0  0  0  0  0  0
    2.3904    1.2819    0.0000 C   0  0  0  0  0  0  0  0  0  0  0  0
    2.4808   -0.9932    0.0000 C   0  0  0  0  0  0  0  0  0  0  0  0
   -0.0919    0.4331    0.0000 O   0  0  0  0  0  0  0  0  0  0  0  0
   -1.5445   -0.5615    0.0000 C   0  0  0  0  0  0  0  0  0  0  0  0
    1.3519    0.8356    0.0000 Cl  0  0  0  0  0  0  0  0  0  0  0  0
    1.3257    1.2819    0.0000 Cl  0  0  0  0  0  0  0  0  0  0  0  0
    1.8595    0.3631    0.0000 Cl  0  0  0  0  0  0  0  0  0  0  0  0
    1.4219   -0.9932    0.0000 Cl  0  0  0  0  0  0  0  0  0  0  0  0
    1.9528   -1.9120    0.0000 Cl  0  0  0  0  0  0  0  0  0  0  0  0
    1.4657   -1.3752    0.0000 Cl  0  0  0  0  0  0  0  0  0  0  0  0
   -3.0146    0.5148    0.0000 C   0  0  0  0  0  0  0  0  0  0  0  0
    2.3904    1.8945    0.0000 O   0  0  0  0  0  0  0  0  0  0  0  0
    2.9183    0.9757    0.0000 O   0  0  0  0  0  0  0  0  0  0  0  0
    3.0146   -1.2994    0.0000 O   0  0  0  0  0  0  0  0  0  0  0  0
    2.4808   -0.3806    0.0000 O   0  0  0  0  0  0  0  0  0  0  0  0
   -2.4370    2.2270    0.0000 C   0  0  0  0  0  0  0  0  0  0  0  0
   -0.8211   -0.9582    0.0000 C   0  0  0  0  0  0  0  0  0  0  0  0
   -2.2445   -0.9902    0.0000 C   0  0  0  0  0  0  0  0  0  0  0  0
   -0.8036   -1.7895    0.0000 C   0  0  0  0  0  0  0  0  0  0  0  0
   -2.2300   -1.8333    0.0000 C   0  0  0  0  0  0  0  0  0  0  0  0
   -1.5270   -2.2270    0.0000 C   0  0  0  0  0  0  0  0  0  0  0  0
  2  1  1  0
  3  2  1  0
  3  5  1  0
  4  1  1  0
  5  4  2  0
  8  6  1  0
  9  7  1  0
 10  1  2  0
 11  2  1  0
 12  6  1  0
 13  6  1  0
 14  6  1  0
 15  7  1  0
 16  7  1  0
 17  7  1  0
 18  3  1  0
 19  8  1  0
 20  8  1  0
 21  9  1  0
 22  9  1  0
 23  5  1  0
 24 11  2  0
 25 11  1  0
 26 24  1  0
 26 28  2  0
 27 25  2  0
 28 27  1  0
M  END
>  <DRUGBANK_ID>  (1) 
DB01495

>  <COMMON_NAME>  (1) 
Dichloralphenazone

>  <CAS_NUMBER>  (1) 
480-30-8

>  <UNII>  (1) 
YYX637R279

>  <SYNONYMS>  (1) 
Dichloralphenazone

$$$$
