
     RDKit          2D

 19 21  0  0  0  0  0  0  0  0999 V2000
    2.0644    0.3822    0.0000 O   0  0  0  0  0  0  0  0  0  0  0  0
    3.0537   -2.0405    0.0000 O   0  0  0  0  0  0  0  0  0  0  0  0
   -1.8961    2.0405    0.0000 O   0  0  0  0  0  0  0  0  0  0  0  0
    0.6626   -1.2279    0.0000 N   0  0  0  0  0  0  0  0  0  0  0  0
   -0.4009    1.0543    0.0000 N   0  0  0  0  0  0  0  0  0  0  0  0
   -1.8961   -0.4346    0.0000 N   0  0  0  0  0  0  0  0  0  0  0  0
   -2.6107    0.8029    0.0000 N   0  0  0  0  0  0  0  0  0  0  0  0
    1.9900   -1.0861    0.0000 C   0  0  0  0  0  0  0  0  0  0  0  0
    1.3779   -1.6392    0.0000 C   0  0  0  0  0  0  0  0  0  0  0  0
    0.8328   -0.4206    0.0000 C   0  0  0  0  0  0  0  0  0  0  0  0
    1.6531   -0.3329    0.0000 C   0  0  0  0  0  0  0  0  0  0  0  0
   -0.1446   -1.0578    0.0000 C   0  0  0  0  0  0  0  0  0  0  0  0
   -0.4009   -0.2736    0.0000 C   0  0  0  0  0  0  0  0  0  0  0  0
   -1.1816   -0.0221    0.0000 C   0  0  0  0  0  0  0  0  0  0  0  0
    2.7974   -1.2562    0.0000 C   0  0  0  0  0  0  0  0  0  0  0  0
   -1.1816    0.8029    0.0000 C   0  0  0  0  0  0  0  0  0  0  0  0
    0.0805    0.3903    0.0000 C   0  0  0  0  0  0  0  0  0  0  0  0
   -1.8961    1.2154    0.0000 C   0  0  0  0  0  0  0  0  0  0  0  0
   -2.6107   -0.0221    0.0000 C   0  0  0  0  0  0  0  0  0  0  0  0
  2 15  1  0
  3 18  2  0
  4  9  1  0
  4 10  1  0
  4 12  1  0
  5 16  1  0
  5 17  1  0
  6 14  1  0
  6 19  2  0
  7 18  1  0
  7 19  1  0
  8  9  1  0
  8 11  1  0
  8 15  1  1
 10 11  1  0
 11  1  1  6
 12 13  1  0
 13 14  1  0
 13 17  2  0
 14 16  1  0
 16 18  1  0
M  CHG  1   4   1
M  END
>  <DRUGBANK_ID>  (1) 
DB03551

>  <SECONDARY_ACCESSION_NUMBERS>  (1) 
EXPT01206

>  <COMMON_NAME>  (1) 
(3R,4R)-3-Hydroxy-4-(hydroxymethyl)-1-[(4-oxo-4,4a,5,7a-tetrahydro-3H-pyrrolo[3,2-d]pyrimidin-7-yl)methyl]pyrrolidinium

$$$$
