
     RDKit          2D

 13 12  0  0  1  0  0  0  0  0999 V2000
    7.3659    0.4125    0.0000 O   0  0  0  0  0  0  0  0  0  0  0  0
    6.6515    1.6500    0.0000 O   0  0  0  0  0  0  0  0  0  0  0  0
    5.9370    0.4125    0.0000 C   0  0  0  0  0  0  0  0  0  0  0  0
    5.2224    0.8250    0.0000 C   0  0  0  0  0  0  0  0  0  0  0  0
    4.5080    0.4125    0.0000 C   0  0  0  0  0  0  0  0  0  0  0  0
    5.9370   -0.4125    0.0000 C   0  0  0  0  0  0  0  0  0  0  0  0
    3.7935    0.8250    0.0000 C   0  0  0  0  0  0  0  0  0  0  0  0
    3.0791    0.4125    0.0000 C   0  0  0  0  0  0  0  0  0  0  0  0
    5.2224   -0.8250    0.0000 C   0  0  0  0  0  0  0  0  0  0  0  0
    6.6515    0.8250    0.0000 C   0  0  0  0  0  0  0  0  0  0  0  0
    2.3645    0.8250    0.0000 C   0  0  0  0  0  0  0  0  0  0  0  0
    5.2224   -1.6500    0.0000 C   0  0  0  0  0  0  0  0  0  0  0  0
    1.6500    0.4125    0.0000 C   0  0  0  0  0  0  0  0  0  0  0  0
  1 10  1  0
  2 10  2  0
  3  4  1  6
  3  6  1  0
  3 10  1  0
  4  5  1  0
  5  7  1  0
  6  9  1  0
  7  8  1  0
  8 11  1  0
  9 12  1  0
 11 13  1  0
M  END
>  <DRUGBANK_ID>  (1) 
DB05343

>  <SECONDARY_ACCESSION_NUMBERS>  (1) 
DB11887

>  <COMMON_NAME>  (1) 
Arundic acid

>  <CAS_NUMBER>  (1) 
185517-21-9

>  <UNII>  (1) 
F2628ZD0FO

>  <SYNONYMS>  (1) 
(2R)-2-propyloctanoic acid; Arundic acid

$$$$
