
     RDKit          2D

 23 25  0  0  0  0  0  0  0  0999 V2000
    1.3219    3.4901    0.0000 N   0  0  0  0  0  0  0  0  0  0  0  0
    1.3219    2.6649    0.0000 C   0  0  0  0  0  0  0  0  0  0  0  0
    2.0376    2.2523    0.0000 N   0  0  0  0  0  0  0  0  0  0  0  0
    2.0376    1.4271    0.0000 C   0  0  0  0  0  0  0  0  0  0  0  0
    1.3219    1.0145    0.0000 N   0  0  0  0  0  0  0  0  0  0  0  0
    0.6061    1.4271    0.0000 C   0  0  0  0  0  0  0  0  0  0  0  0
    0.6061    2.2523    0.0000 C   0  0  0  0  0  0  0  0  0  0  0  0
   -0.1767    2.5049    0.0000 N   0  0  0  0  0  0  0  0  0  0  0  0
   -0.6652    1.8397    0.0000 C   0  0  0  0  0  0  0  0  0  0  0  0
   -0.1767    1.1746    0.0000 N   0  0  0  0  0  0  0  0  0  0  0  0
   -0.4294    0.3915    0.0000 C   0  0  0  0  0  0  0  0  0  0  0  0
    0.0505   -0.2736    0.0000 O   0  0  0  0  0  0  0  0  0  0  0  0
   -0.4294   -0.9387    0.0000 C   0  0  0  0  0  0  0  0  0  0  0  0
   -0.1767   -1.7219    0.0000 C   0  0  0  0  0  0  0  0  0  0  0  0
   -0.7326   -2.3366    0.0000 O   0  0  0  0  0  0  0  0  0  0  0  0
   -0.4715   -3.1197    0.0000 W   0  0  0  0  0  5  0  0  0  0  0  0
   -0.2189   -3.9026    0.0000 O   0  0  0  0  0  0  0  0  0  0  0  0
   -1.2546   -3.3722    0.0000 O   0  0  0  0  0  0  0  0  0  0  0  0
    0.3115   -2.8670    0.0000 O   0  0  0  0  0  0  0  0  0  0  0  0
   -1.2125   -0.6862    0.0000 C   0  0  0  0  0  0  0  0  0  0  0  0
   -1.8861   -1.1746    0.0000 O   0  0  0  0  0  0  0  0  0  0  0  0
   -1.2125    0.1388    0.0000 C   0  0  0  0  0  0  0  0  0  0  0  0
   -1.8861    0.6189    0.0000 O   0  0  0  0  0  0  0  0  0  0  0  0
  1  2  1  0
  2  3  2  0
  2  7  1  0
  3  4  1  0
  4  5  2  0
  5  6  1  0
  6  7  2  0
  6 10  1  0
  7  8  1  0
  8  9  2  0
  9 10  1  0
 11 10  1  6
 11 12  1  0
 11 22  1  0
 12 13  1  0
 13 14  1  1
 13 20  1  0
 14 15  1  0
 15 16  1  0
 16 17  1  0
 16 18  1  0
 16 19  2  0
 20 21  1  6
 20 22  1  0
 22 23  1  1
M  END
>  <DRUGBANK_ID>  (1) 
DB02373

>  <SECONDARY_ACCESSION_NUMBERS>  (1) 
EXPT00516

>  <COMMON_NAME>  (1) 
Adenosine monotungstate

$$$$
