
     RDKit          2D

 34 37  0  0  0  0  0  0  0  0999 V2000
   -1.9287    0.4451    0.0000 O   0  0  0  0  0  0  0  0  0  0  0  0
   -4.0225    0.8613    0.0000 O   0  0  0  0  0  0  0  0  0  0  0  0
   -2.9650    2.3115    0.0000 O   0  0  0  0  0  0  0  0  0  0  0  0
    1.4989    2.8684    0.0000 O   0  0  0  0  0  0  0  0  0  0  0  0
    1.7533    0.4064    0.0000 O   0  0  0  0  0  0  0  0  0  0  0  0
    3.2596   -0.2672    0.0000 O   0  0  0  0  0  0  0  0  0  0  0  0
    5.1796    2.0047    0.0000 O   0  0  0  0  0  0  0  0  0  0  0  0
    4.3417    3.1622    0.0000 O   0  0  0  0  0  0  0  0  0  0  0  0
   -2.9700   -0.5926    0.0000 N   0  0  0  0  0  0  0  0  0  0  0  0
   -2.9700   -1.9203    0.0000 N   0  0  0  0  0  0  0  0  0  0  0  0
   -4.4652   -0.4314    0.0000 N   0  0  0  0  0  0  0  0  0  0  0  0
    0.9155    1.5640    0.0000 N   0  0  0  0  0  0  0  0  0  0  0  0
   -5.1796   -1.6689    0.0000 N   0  0  0  0  0  0  0  0  0  0  0  0
   -4.4652   -2.9065    0.0000 N   0  0  0  0  0  0  0  0  0  0  0  0
    4.4265    2.3416    0.0000 N   0  0  0  0  0  0  0  0  0  0  0  0
   -3.1975    0.8599    0.0000 C   0  0  0  0  0  0  0  0  0  0  0  0
   -2.7137    0.1916    0.0000 C   0  0  0  0  0  0  0  0  0  0  0  0
   -2.7114    1.5265    0.0000 C   0  0  0  0  0  0  0  0  0  0  0  0
   -1.9272    1.2701    0.0000 C   0  0  0  0  0  0  0  0  0  0  0  0
   -1.2589    1.7539    0.0000 C   0  0  0  0  0  0  0  0  0  0  0  0
   -3.7506   -0.8439    0.0000 C   0  0  0  0  0  0  0  0  0  0  0  0
   -2.4885   -1.2564    0.0000 C   0  0  0  0  0  0  0  0  0  0  0  0
   -3.7506   -1.6689    0.0000 C   0  0  0  0  0  0  0  0  0  0  0  0
   -0.5058    1.4171    0.0000 C   0  0  0  0  0  0  0  0  0  0  0  0
    0.1624    1.9009    0.0000 C   0  0  0  0  0  0  0  0  0  0  0  0
   -4.4652   -2.0815    0.0000 C   0  0  0  0  0  0  0  0  0  0  0  0
   -5.1796   -0.8439    0.0000 C   0  0  0  0  0  0  0  0  0  0  0  0
    1.5837    2.0478    0.0000 C   0  0  0  0  0  0  0  0  0  0  0  0
    2.3369    1.7109    0.0000 C   0  0  0  0  0  0  0  0  0  0  0  0
    2.4217    0.8902    0.0000 C   0  0  0  0  0  0  0  0  0  0  0  0
    3.0051    2.1946    0.0000 C   0  0  0  0  0  0  0  0  0  0  0  0
    3.7582    1.8578    0.0000 C   0  0  0  0  0  0  0  0  0  0  0  0
    3.1748    0.5534    0.0000 C   0  0  0  0  0  0  0  0  0  0  0  0
    3.8431    1.0372    0.0000 C   0  0  0  0  0  0  0  0  0  0  0  0
  1 17  1  0
  1 19  1  0
  4 28  2  0
  5 30  1  0
  6 33  1  0
  7 15  1  0
  8 15  2  0
  9 21  1  0
  9 22  1  0
 10 22  2  0
 10 23  1  0
 11 21  1  0
 11 27  2  0
 12 25  1  0
 12 28  1  0
 13 26  2  0
 13 27  1  0
 14 26  1  0
 15 32  1  0
 16  2  1  6
 16 17  1  0
 16 18  1  0
 17  9  1  1
 18  3  1  6
 18 19  1  0
 19 20  1  1
 20 24  2  0
 21 23  2  0
 23 26  1  0
 24 25  1  0
 28 29  1  0
 29 30  2  0
 29 31  1  0
 30 33  1  0
 31 32  2  0
 32 34  1  0
 33 34  2  0
M  CHG  2   7  -1  15   1
M  END
>  <DRUGBANK_ID>  (1) 
DB03907

>  <SECONDARY_ACCESSION_NUMBERS>  (1) 
EXPT00934

>  <COMMON_NAME>  (1) 
N-[(E)-3-[(2R,3S,4R,5R)-5-(6-Aminopurin-9-yl)-3,4-dihydroxyoxolan-2-yl]prop-2-enyl]-2,3-dihydroxy-5-nitrobenzamide

$$$$
