
     RDKit          2D

 27 30  0  0  0  0  0  0  0  0999 V2000
    2.1785   -1.0011    0.0000 C   0  0  0  0  0  0  0  0  0  0  0  0
    0.6794   -1.9837    0.0000 C   0  0  0  0  0  0  0  0  0  0  0  0
    2.1785    0.3337    0.0000 C   0  0  0  0  0  0  0  0  0  0  0  0
    0.6794    0.4912    0.0000 C   0  0  0  0  0  0  0  0  0  0  0  0
    2.6633   -0.3337    0.0000 C   0  0  0  0  0  0  0  0  0  0  0  0
   -0.7496   -1.1587    0.0000 C   0  0  0  0  0  0  0  0  0  0  0  0
   -0.0350    0.0787    0.0000 C   0  0  0  0  0  0  0  0  0  0  0  0
   -0.0350   -2.3962    0.0000 C   0  0  0  0  0  0  0  0  0  0  0  0
   -0.7496   -1.9837    0.0000 C   0  0  0  0  0  0  0  0  0  0  0  0
   -1.4641   -0.7462    0.0000 C   0  0  0  0  0  0  0  0  0  0  0  0
   -1.4641   -2.3962    0.0000 C   0  0  0  0  0  0  0  0  0  0  0  0
   -2.1785   -1.1587    0.0000 C   0  0  0  0  0  0  0  0  0  0  0  0
    0.6794   -1.1587    0.0000 C   0  0  0  0  0  0  0  0  0  0  0  0
   -0.0350   -0.7462    0.0000 C   0  0  0  0  0  0  0  0  0  0  0  0
    1.3938    0.0787    0.0000 C   0  0  0  0  0  0  0  0  0  0  0  0
    1.3938    0.9037    0.0000 C   0  0  0  0  0  0  0  0  0  0  0  0
    1.3938   -0.7462    0.0000 C   0  0  0  0  0  0  0  0  0  0  0  0
   -2.1785   -1.9837    0.0000 C   0  0  0  0  0  0  0  0  0  0  0  0
    2.8930    0.7462    0.0000 C   0  0  0  0  0  0  0  0  0  0  0  0
    2.1785    1.1587    0.0000 O   0  0  0  0  0  0  0  0  0  0  0  0
    3.6074    1.1587    0.0000 C   0  0  0  0  0  0  0  0  0  0  0  0
   -2.8930   -2.3962    0.0000 N   0  0  0  0  0  0  0  0  0  0  0  0
    0.6792    1.3162    0.0000 C   0  0  0  0  0  0  0  0  0  0  0  0
    2.1785    1.9837    0.0000 C   0  0  0  0  0  0  0  0  0  0  0  0
    2.8930    2.3962    0.0000 C   0  0  0  0  0  0  0  0  0  0  0  0
    1.4640    2.3962    0.0000 O   0  0  0  0  0  0  0  0  0  0  0  0
   -3.6074   -1.9837    0.0000 O   0  0  0  0  0  0  0  0  0  0  0  0
  2  8  1  0
  3  5  1  0
  3 19  1  6
  3 20  1  0
  4  7  1  0
  5  1  1  0
  6  9  1  0
  6 10  1  6
  8  9  1  0
  9 11  2  0
 10 12  1  0
 11 18  1  0
 12 18  1  0
 13 14  1  0
 13  2  1  6
 14  6  1  0
 14  7  1  1
 15  3  1  0
 15  4  1  0
 15 16  1  1
 16 23  1  0
 17 13  1  0
 17 15  1  0
 17  1  1  1
 18 22  2  0
 19 21  3  0
 20 24  1  0
 22 27  1  0
 24 25  1  0
 24 26  2  0
M  END
>  <DRUGBANK_ID>  (1) 
DB00957

>  <SECONDARY_ACCESSION_NUMBERS>  (1) 
APRD00569

>  <COMMON_NAME>  (1) 
Norgestimate

>  <CAS_NUMBER>  (1) 
35189-28-7

>  <UNII>  (1) 
NKX8DN6TY9

>  <SYNONYMS>  (1) 
(+)-13-Ethyl-17-hydroxy-18,19-dinor-17α-pregn-4-en-20-yn-3-one oxime acetate (ester); (17α)-17-(Acetyloxy)-13-ethyl-18,19-dinorpregn-4-en-20-yn-3-one 3-oxime; d-13β-Ethyl-17α-ethynyl-17β-acetoxygon-4-en-3-one oxime; Dexnorgestrel Acetime; Norgestimate; Norgestimato; Norgestimatum

$$$$
