
     RDKit          2D

 22 24  0  0  0  0  0  0  0  0999 V2000
   -0.3544   -0.2013    0.0000 O   0  0  0  0  0  0  0  0  0  0  0  0
    0.3620    0.2079    0.0000 C   0  0  0  0  0  0  0  0  0  0  0  0
    0.3657    1.0329    0.0000 C   0  0  0  0  0  0  0  0  0  0  0  0
   -0.3468    1.4486    0.0000 C   0  0  0  0  0  0  0  0  0  0  0  0
   -0.3431    2.2736    0.0000 O   0  0  0  0  0  0  0  0  0  0  0  0
   -1.7720    2.2802    0.0000 O   0  0  0  0  0  0  0  0  0  0  0  0
   -1.7758    1.4552    0.0000 C   0  0  0  0  0  0  0  0  0  0  0  0
   -2.4921    1.0460    0.0000 C   0  0  0  0  0  0  0  0  0  0  0  0
   -1.0632    1.0394    0.0000 C   0  0  0  0  0  0  0  0  0  0  0  0
   -1.0670    0.2144    0.0000 C   0  0  0  0  0  0  0  0  0  0  0  0
   -1.7833   -0.1948    0.0000 C   0  0  0  0  0  0  0  0  0  0  0  0
   -2.4959    0.2210    0.0000 C   0  0  0  0  0  0  0  0  0  0  0  0
   -3.2123   -0.1883    0.0000 O   0  0  0  0  0  0  0  0  0  0  0  0
    1.7796   -2.2736    0.0000 O   0  0  0  0  0  0  0  0  0  0  0  0
    1.7833   -1.4486    0.0000 C   0  0  0  0  0  0  0  0  0  0  0  0
    1.0708   -1.0329    0.0000 C   0  0  0  0  0  0  0  0  0  0  0  0
    1.0745   -0.2079    0.0000 C   0  0  0  0  0  0  0  0  0  0  0  0
    1.7909    0.2013    0.0000 C   0  0  0  0  0  0  0  0  0  0  0  0
    2.5035   -0.2144    0.0000 C   0  0  0  0  0  0  0  0  0  0  0  0
    2.4997   -1.0394    0.0000 C   0  0  0  0  0  0  0  0  0  0  0  0
    3.2123   -1.4552    0.0000 O   0  0  0  0  0  0  0  0  0  0  0  0
    3.2085   -2.2802    0.0000 C   0  0  0  0  0  0  0  0  0  0  0  0
  1  2  1  0
  1 10  1  0
  2  3  2  0
  2 17  1  0
  3  4  1  0
  4  5  2  0
  4  9  1  0
  6  7  1  0
  7  8  2  0
  7  9  1  0
  8 12  1  0
  9 10  2  0
 10 11  1  0
 11 12  2  0
 12 13  1  0
 14 15  1  0
 15 16  2  0
 15 20  1  0
 16 17  1  0
 17 18  2  0
 18 19  1  0
 19 20  2  0
 20 21  1  0
 21 22  1  0
M  END
>  <DRUGBANK_ID>  (1) 
DB11259

>  <COMMON_NAME>  (1) 
Diosmetin

>  <CAS_NUMBER>  (1) 
520-34-3

>  <UNII>  (1) 
TWZ37241OT

>  <SYNONYMS>  (1) 
3',5,7-trihydroxy-4'-methoxyflavone; 5,7-Dihydroxy-2-(3-hydroxy-4-methoxyphenyl)-4-benzopyrone; Luteolin 4'-methyl ether; Salinigricoflavonol

$$$$
