
     RDKit          2D

 12 12  0  0  0  0  0  0  0  0999 V2000
    0.3573   -0.4125    0.0000 C   0  0  0  0  0  0  0  0  0  0  0  0
    0.3573   -1.2375    0.0000 O   0  0  0  0  0  0  0  0  0  0  0  0
   -0.3572    0.0000    0.0000 C   0  0  0  0  0  0  0  0  0  0  0  0
   -1.0716   -0.4125    0.0000 O   0  0  0  0  0  0  0  0  0  0  0  0
   -0.3572    0.8250    0.0000 C   0  0  0  0  0  0  0  0  0  0  0  0
    1.0718    0.8250    0.0000 C   0  0  0  0  0  0  0  0  0  0  0  0
    1.7860    1.2374    0.0000 O   0  0  0  0  0  0  0  0  0  0  0  0
    1.7860   -0.4125    0.0000 N   0  0  0  0  0  0  0  0  0  0  0  0
    0.3573    1.2374    0.0000 O   0  0  0  0  0  0  0  0  0  0  0  0
    1.0718    0.0000    0.0000 C   0  0  0  0  0  0  0  0  0  0  0  0
   -1.0716    1.2374    0.0000 C   0  0  0  0  0  0  0  0  0  0  0  0
   -1.7861    0.8250    0.0000 O   0  0  0  0  0  0  0  0  0  0  0  0
  1 10  1  0
  1  2  1  1
  3  1  1  0
  3  4  1  1
  5  3  1  0
  5  9  1  0
  5 11  1  1
  6 10  1  0
  6  7  1  1
  9  6  1  0
 10  8  1  6
 11 12  1  0
M  END
>  <DRUGBANK_ID>  (1) 
DB02678

>  <SECONDARY_ACCESSION_NUMBERS>  (1) 
EXPT00074

>  <COMMON_NAME>  (1) 
beta-D-Galactosamine

>  <CAS_NUMBER>  (1) 
14196-86-2

>  <UNII>  (1) 
K8YZM765ZS

>  <SYNONYMS>  (1) 
2-amino-2-deoxy-beta-D-galactopyranose; 2-amino-2-deoxy-β-D-galactopyranose; 2-deoxy-2-aminogalactose; β-D-galactosamine; β-galactosylamine

$$$$
