
     RDKit          2D

 17 18  0  0  0  0  0  0  0  0999 V2000
    0.7145    0.4125    0.0000 C   0  0  0  0  0  0  0  0  0  0  0  0
    0.7145   -0.4125    0.0000 C   0  0  0  0  0  0  0  0  0  0  0  0
    0.0000   -0.8250    0.0000 N   0  0  0  0  0  0  0  0  0  0  0  0
   -0.7145   -0.4125    0.0000 C   0  0  0  0  0  0  0  0  0  0  0  0
   -0.7145    0.4125    0.0000 C   0  0  0  0  0  0  0  0  0  0  0  0
    0.0000    0.8250    0.0000 C   0  0  0  0  0  0  0  0  0  0  0  0
   -1.4289   -0.8250    0.0000 Cl  0  0  0  0  0  0  0  0  0  0  0  0
    2.8109    0.8974    0.0000 C   0  0  0  0  0  0  0  0  0  0  0  0
    2.8109    1.7224    0.0000 N   0  0  0  0  0  0  0  0  0  0  0  0
    3.5253    2.1349    0.0000 N   0  0  0  0  0  0  0  0  0  0  0  0
    4.2398    1.7224    0.0000 O   0  0  0  0  0  0  0  0  0  0  0  0
    3.5253    2.9599    0.0000 O   0  0  0  0  0  0  0  0  0  0  0  0
    3.4783    0.4125    0.0000 N   0  0  0  0  0  0  0  0  0  0  0  0
    3.2234   -0.3721    0.0000 C   0  0  0  0  0  0  0  0  0  0  0  0
    2.3984   -0.3721    0.0000 C   0  0  0  0  0  0  0  0  0  0  0  0
    2.1434    0.4125    0.0000 N   0  0  0  0  0  0  0  0  0  0  0  0
    1.4289    0.8250    0.0000 C   0  0  0  0  0  0  0  0  0  0  0  0
  1  6  1  0
  2  1  2  0
  3  2  1  0
  3  4  2  0
  4  7  1  0
  5  4  1  0
  6  5  2  0
  8  9  2  0
  8 13  1  0
  9 10  1  0
 10 11  1  0
 10 12  2  0
 13 14  1  0
 15 14  1  0
 16  8  1  0
 16 15  1  0
 16 17  1  0
 17  1  1  0
M  CHG  2  10   1  11  -1
M  END
>  <DRUGBANK_ID>  (1) 
DB11421

>  <SECONDARY_ACCESSION_NUMBERS>  (1) 
DB07980

>  <COMMON_NAME>  (1) 
Imidacloprid

>  <CAS_NUMBER>  (1) 
105827-78-9

>  <UNII>  (1) 
3BN7M937V8

>  <SYNONYMS>  (1) 
(2E)-1-[(6-chloropyridin-3-yl)methyl]-N-nitroimidazolidin-2-imine; 1-((6-chloro-3-Pyridinyl)methyl)-N-nitro-2-imidazolidinimine; 1-((6-chloro-3-Pyridyl)methyl)-N-nitro-2-imidazolidinimine; IMD

$$$$
