175
     RDKit          2D

 30 31  0  0  1  0  0  0  0  0999 V2000
    3.0790    0.8556    0.0000 O   0  0  0  0  0  0  0  0  0  0  0  0
    1.6500    3.3306    0.0000 O   0  0  0  0  0  0  0  0  0  0  0  0
    4.5023   -0.8228    0.0000 O   0  0  0  0  0  0  0  0  0  0  0  0
    1.6500    0.8556    0.0000 O   0  0  0  0  0  0  0  0  0  0  0  0
    5.2025   -2.0685    0.0000 O   0  0  0  0  0  0  0  0  0  0  0  0
    7.3314   -3.3307    0.0000 O   0  0  0  0  0  0  0  0  0  0  0  0
    5.9026   -3.3142    0.0000 O   0  0  0  0  0  0  0  0  0  0  0  0
    3.7935    2.0931    0.0000 C   0  0  0  0  0  0  0  0  0  0  0  0
    4.5309    1.6521    0.0000 C   0  0  0  0  0  0  0  0  0  0  0  0
    3.0790    1.6806    0.0000 C   0  0  0  0  0  0  0  0  0  0  0  0
    5.2785    2.0760    0.0000 C   0  0  0  0  0  0  0  0  0  0  0  0
    4.5214    0.8271    0.0000 C   0  0  0  0  0  0  0  0  0  0  0  0
    3.7935    2.9181    0.0000 C   0  0  0  0  0  0  0  0  0  0  0  0
    2.3645    2.0931    0.0000 C   0  0  0  0  0  0  0  0  0  0  0  0
    2.3645    2.9181    0.0000 C   0  0  0  0  0  0  0  0  0  0  0  0
    5.2785    2.9354    0.0000 C   0  0  0  0  0  0  0  0  0  0  0  0
    5.2310    0.4064    0.0000 C   0  0  0  0  0  0  0  0  0  0  0  0
    3.0790    3.3306    0.0000 C   0  0  0  0  0  0  0  0  0  0  0  0
    4.5309    3.3593    0.0000 C   0  0  0  0  0  0  0  0  0  0  0  0
    5.9913    1.6607    0.0000 C   0  0  0  0  0  0  0  0  0  0  0  0
    5.2215   -0.4186    0.0000 C   0  0  0  0  0  0  0  0  0  0  0  0
    5.9312   -0.8394    0.0000 C   0  0  0  0  0  0  0  0  0  0  0  0
    2.3645    0.4431    0.0000 C   0  0  0  0  0  0  0  0  0  0  0  0
    5.9216   -1.6643    0.0000 C   0  0  0  0  0  0  0  0  0  0  0  0
    2.3645   -0.3819    0.0000 C   0  0  0  0  0  0  0  0  0  0  0  0
    6.6313   -2.0850    0.0000 C   0  0  0  0  0  0  0  0  0  0  0  0
    1.6500   -0.7944    0.0000 C   0  0  0  0  0  0  0  0  0  0  0  0
    3.0790   -0.7944    0.0000 C   0  0  0  0  0  0  0  0  0  0  0  0
    1.6500   -1.6194    0.0000 C   0  0  0  0  0  0  0  0  0  0  0  0
    6.6217   -2.9100    0.0000 C   0  0  0  0  0  0  0  0  0  0  0  0
  1 23  1  0
  4 23  2  0
  6 30  1  0
  7 30  2  0
  8  9  1  0
  8 10  1  0
  8 13  1  1
  9 11  1  0
  9 12  1  6
 10  1  1  1
 10 14  1  0
 11 16  1  0
 11 20  1  6
 12 17  1  0
 13 18  2  0
 13 19  1  0
 14 15  1  0
 15  2  1  6
 15 18  1  0
 16 19  2  0
 17 21  1  0
 21  3  1  6
 21 22  1  0
 22 24  1  0
 23 25  1  0
 24  5  1  6
 24 26  1  0
 25 27  1  0
 25 28  1  1
 26 30  1  0
 27 29  1  0
M  END
>  <DRUGBANK_ID>  (1) 
DB00175

>  <SECONDARY_ACCESSION_NUMBERS>  (1) 
APRD00328

>  <COMMON_NAME>  (1) 
Pravastatin

>  <CAS_NUMBER>  (1) 
81093-37-0

>  <UNII>  (1) 
KXO2KT9N0G

>  <SYNONYMS>  (1) 
(+)-(3R,5R)-3,5-dihydroxy-7-[(1S,2S,6S,8S,8aR)-6-hydroxy-2-methyl-8-{[(S)-2-methylbutyryl]oxy}-1,2,6,7,8,8a-hexahydro-1-naphthyl]heptanoic acid; Pravastatin; Pravastatin acid; Pravastatina; Pravastatine; Pravastatinum

$$$$
