
     RDKit          2D

 22 23  0  0  0  0  0  0  0  0999 V2000
   -0.8138    1.6276    0.0000 F   0  0  0  0  0  0  0  0  0  0  0  0
   -3.0407   -0.3921    0.0000 O   0  0  0  0  0  0  0  0  0  0  0  0
   -0.8508   -1.6276    0.0000 O   0  0  0  0  0  0  0  0  0  0  0  0
    0.5474    0.8064    0.0000 O   0  0  0  0  0  0  0  0  0  0  0  0
    3.6991   -0.8433    0.0000 O   0  0  0  0  0  0  0  0  0  0  0  0
    2.2638    1.6202    0.0000 O   0  0  0  0  0  0  0  0  0  0  0  0
   -1.5536   -0.3921    0.0000 N   0  0  0  0  0  0  0  0  0  0  0  0
   -0.1109   -0.3921    0.0000 N   0  0  0  0  0  0  0  0  0  0  0  0
    2.9815    0.3920    0.0000 N   0  0  0  0  0  0  0  0  0  0  0  0
    2.2713   -0.8508    0.0000 N   0  0  0  0  0  0  0  0  0  0  0  0
   -0.8508   -0.8064    0.0000 C   0  0  0  0  0  0  0  0  0  0  0  0
   -2.3822   -0.8433    0.0000 C   0  0  0  0  0  0  0  0  0  0  0  0
   -0.8138    0.8433    0.0000 C   0  0  0  0  0  0  0  0  0  0  0  0
   -1.5536    0.4364    0.0000 C   0  0  0  0  0  0  0  0  0  0  0  0
   -0.1109    0.3920    0.0000 C   0  0  0  0  0  0  0  0  0  0  0  0
   -2.6264   -1.6276    0.0000 C   0  0  0  0  0  0  0  0  0  0  0  0
   -3.6991   -0.8433    0.0000 C   0  0  0  0  0  0  0  0  0  0  0  0
   -3.4550   -1.6276    0.0000 C   0  0  0  0  0  0  0  0  0  0  0  0
    2.9815   -0.4364    0.0000 C   0  0  0  0  0  0  0  0  0  0  0  0
    2.2638    0.7990    0.0000 C   0  0  0  0  0  0  0  0  0  0  0  0
    1.5536    0.3847    0.0000 C   0  0  0  0  0  0  0  0  0  0  0  0
    1.5536   -0.4439    0.0000 C   0  0  0  0  0  0  0  0  0  0  0  0
  1 13  1  0
  2 12  1  0
  2 17  1  0
  3 11  2  0
  4 15  2  0
  5 19  2  0
  6 20  2  0
  7 11  1  0
  7 12  1  0
  7 14  1  0
  8 11  1  0
  8 15  1  0
  9 19  1  0
  9 20  1  0
 10 19  1  0
 10 22  1  0
 12 16  1  0
 13 14  2  0
 13 15  1  0
 16 18  1  0
 17 18  1  0
 20 21  1  0
 21 22  2  0
M  END
>  <DRUGBANK_ID>  (1) 
DB09327

>  <COMMON_NAME>  (1) 
Tegafur-uracil

>  <CAS_NUMBER>  (1) 
74578-38-4

>  <UNII>  (1) 
HMI5GR78FR

>  <SYNONYMS>  (1) 
Tegafur/uracil; UFT; UFUR

$$$$
