
     RDKit          2D

 15 16  0  0  0  0  0  0  0  0999 V2000
   -2.3374    0.6682    0.0000 O   0  0  0  0  0  0  0  0  0  0  0  0
    0.5339    1.5218    0.0000 O   0  0  0  0  0  0  0  0  0  0  0  0
   -0.9084   -0.9817    0.0000 N   0  0  0  0  0  0  0  0  0  0  0  0
   -0.9084    0.6682    0.0000 N   0  0  0  0  0  0  0  0  0  0  0  0
    0.5435   -1.0103    0.0000 N   0  0  0  0  0  0  0  0  0  0  0  0
    1.2911    0.2729    0.0000 N   0  0  0  0  0  0  0  0  0  0  0  0
    2.0040   -1.0016    0.0000 N   0  0  0  0  0  0  0  0  0  0  0  0
   -1.6229   -0.5692    0.0000 C   0  0  0  0  0  0  0  0  0  0  0  0
   -1.6229    0.2557    0.0000 C   0  0  0  0  0  0  0  0  0  0  0  0
   -0.1939   -0.5692    0.0000 C   0  0  0  0  0  0  0  0  0  0  0  0
   -2.0354   -1.2837    0.0000 C   0  0  0  0  0  0  0  0  0  0  0  0
   -2.4479   -0.5692    0.0000 C   0  0  0  0  0  0  0  0  0  0  0  0
   -0.1939    0.2557    0.0000 C   0  0  0  0  0  0  0  0  0  0  0  0
    0.5435    0.6968    0.0000 C   0  0  0  0  0  0  0  0  0  0  0  0
    1.2911   -0.5864    0.0000 C   0  0  0  0  0  0  0  0  0  0  0  0
  1  9  2  0
  2 14  2  0
  3  8  1  0
  3 10  1  0
  4  9  1  0
  4 13  1  0
  5 10  1  0
  5 15  1  0
  6 14  1  0
  6 15  2  0
  7 15  1  0
  8  9  1  0
  8 11  1  0
  8 12  1  0
 10 13  2  0
 13 14  1  0
M  END
>  <DRUGBANK_ID>  (1) 
DB02278

>  <SECONDARY_ACCESSION_NUMBERS>  (1) 
EXPT02803

>  <COMMON_NAME>  (1) 
7,8-dihydro-7,7-dimethyl-6-hydroxypterin

$$$$
