PL7
     RDKit          2D

 27 27  0  0  0  0  0  0  0  0999 V2000
   -2.6301    2.8415    0.0000 O   0  0  0  0  0  0  0  0  0  0  0  0
   -1.9156    2.4290    0.0000 C   0  0  0  0  0  0  0  0  0  0  0  0
   -1.2011    2.8415    0.0000 O   0  0  0  0  0  0  0  0  0  0  0  0
   -1.9156    1.6040    0.0000 C   0  0  0  0  0  0  0  0  0  0  0  0
   -1.2011    1.1915    0.0000 C   0  0  0  0  0  0  0  0  0  0  0  0
   -1.2011    0.3665    0.0000 C   0  0  0  0  0  0  0  0  0  0  0  0
   -1.9156   -0.0460    0.0000 C   0  0  0  0  0  0  0  0  0  0  0  0
   -1.9156   -0.8710    0.0000 O   0  0  0  0  0  0  0  0  0  0  0  0
   -2.6301    0.3665    0.0000 O   0  0  0  0  0  0  0  0  0  0  0  0
   -0.4867   -0.0460    0.0000 N   0  0  0  0  0  0  0  0  0  0  0  0
    0.2278    0.3665    0.0000 O   0  0  0  0  0  0  0  0  0  0  0  0
    0.9423   -0.0460    0.0000 C   0  0  0  0  0  0  0  0  0  0  0  0
    1.6567    0.3665    0.0000 C   0  0  0  0  0  0  0  0  0  0  0  0
    1.6567    1.1915    0.0000 C   0  0  0  0  0  0  0  0  0  0  0  0
    2.3712    1.6040    0.0000 O   0  0  0  0  0  0  0  0  0  0  0  0
    2.3712   -0.0460    0.0000 N   0  0  0  0  0  0  0  0  0  0  0  0
    3.0857    0.3665    0.0000 C   0  0  0  0  0  0  0  0  0  0  0  0
    3.0857    1.1915    0.0000 O   0  0  0  0  0  0  0  0  0  0  0  0
    3.8002   -0.0460    0.0000 C   0  0  0  0  0  0  0  0  0  0  0  0
    4.5146    0.3665    0.0000 O   0  0  0  0  0  0  0  0  0  0  0  0
    5.2291   -0.0460    0.0000 C   0  0  0  0  0  0  0  0  0  0  0  0
    5.9436    0.3665    0.0000 C   0  0  0  0  0  0  0  0  0  0  0  0
    6.6580   -0.0460    0.0000 C   0  0  0  0  0  0  0  0  0  0  0  0
    6.6580   -0.8710    0.0000 C   0  0  0  0  0  0  0  0  0  0  0  0
    5.9436   -1.2835    0.0000 C   0  0  0  0  0  0  0  0  0  0  0  0
    5.2291   -0.8710    0.0000 C   0  0  0  0  0  0  0  0  0  0  0  0
    0.9423    1.6040    0.0000 O   0  0  0  0  0  0  0  0  0  0  0  0
  1  2  1  0
  2  3  2  0
  2  4  1  0
  4  5  1  0
  5  6  1  0
  6  7  1  0
  6 10  2  0
  7  8  2  0
  7  9  1  0
 10 11  1  0
 11 12  1  0
 13 12  1  1
 13 14  1  0
 13 16  1  0
 14 15  2  0
 14 27  1  0
 16 17  1  0
 17 18  2  0
 17 19  1  0
 19 20  1  0
 20 21  1  0
 21 22  2  0
 21 26  1  0
 22 23  1  0
 23 24  2  0
 24 25  1  0
 25 26  2  0
M  END
>  <DRUGBANK_ID>  (1) 
DB08401

>  <COMMON_NAME>  (1) 
(2E)-2-({(2S)-2-CARBOXY-2-[(PHENOXYACETYL)AMINO]ETHOXY}IMINO)PENTANEDIOIC ACID

$$$$
