
     RDKit          2D

 10 11  0  0  0  0  0  0  0  0999 V2000
    1.3492   -0.8250    0.0000 C   0  0  0  0  0  0  0  0  0  0  0  0
   -0.0797   -0.8250    0.0000 C   0  0  0  0  0  0  0  0  0  0  0  0
   -0.0797    0.0000    0.0000 C   0  0  0  0  0  0  0  0  0  0  0  0
   -0.8643   -1.0799    0.0000 N   0  0  0  0  0  0  0  0  0  0  0  0
   -0.8643    0.2549    0.0000 C   0  0  0  0  0  0  0  0  0  0  0  0
   -1.3492   -0.4125    0.0000 N   0  0  0  0  0  0  0  0  0  0  0  0
    0.6347   -1.2375    0.0000 N   0  0  0  0  0  0  0  0  0  0  0  0
    1.3492    0.0000    0.0000 N   0  0  0  0  0  0  0  0  0  0  0  0
    0.6347    0.4125    0.0000 C   0  0  0  0  0  0  0  0  0  0  0  0
    0.6347    1.2375    0.0000 O   0  0  0  0  0  0  0  0  0  0  0  0
  1  8  2  0
  2  7  2  0
  3  2  1  0
  4  2  1  0
  5  3  1  0
  5  6  2  0
  6  4  1  0
  7  1  1  0
  9  3  2  0
  9  8  1  0
  9 10  1  0
M  END
>  <DRUGBANK_ID>  (1) 
DB00437

>  <SECONDARY_ACCESSION_NUMBERS>  (1) 
APRD00435; DB03027

>  <COMMON_NAME>  (1) 
Allopurinol

>  <CAS_NUMBER>  (1) 
315-30-0

>  <UNII>  (1) 
63CZ7GJN5I

>  <SYNONYMS>  (1) 
1,5-Dihydro-4H-pyrazolo(3,4-d)pyrimidin-4-one; 1,5-Dihydro-4H-pyrazolo(3,4-d)pyrimidine-4-one; 1H-Pyrazolo(3,4-d)pyrimidin-4-ol; 4-HPP; 4-Hydroxy-1H-pyrazolo(3,4-d)pyrimidine; 4-Hydroxy-3,4-pyrazolopyrimidine; 4-Hydroxypyrazolo(3,4-d)pyrimidine; 4-Hydroxypyrazolopyrimidine; 4-Hydroxypyrazolyl(3,4-d)pyrimidine; 4'-Hydroxypyrazolol(3,4-d)pyrimidine; 4H-Pyrazolo(3,4-d)pyrimidin-4-one; Allopurinol; Allopurinolum; Alopurinol

$$$$
