
     RDKit          2D

 10 10  0  0  1  0  0  0  0  0999 V2000
   -1.4289   -1.6500    0.0000 O   0  0  0  0  0  0  0  0  0  0  0  0
   -0.7145   -1.2375    0.0000 C   0  0  0  0  0  0  0  0  0  0  0  0
   -0.7145   -0.4125    0.0000 C   0  0  0  0  0  0  0  0  0  0  0  0
    0.0000    0.0000    0.0000 O   0  0  0  0  0  0  0  0  0  0  0  0
    0.7145   -0.4125    0.0000 C   0  0  0  0  0  0  0  0  0  0  0  0
    1.4289    0.0000    0.0000 O   0  0  0  0  0  0  0  0  0  0  0  0
    0.7145   -1.2375    0.0000 C   0  0  0  0  0  0  0  0  0  0  0  0
    1.4289   -1.6500    0.0000 O   0  0  0  0  0  0  0  0  0  0  0  0
    0.0000   -1.6500    0.0000 C   0  0  0  0  0  0  0  0  0  0  0  0
    0.0000   -2.4750    0.0000 O   0  0  0  0  0  0  0  0  0  0  0  0
  2  1  1  1
  2  3  1  0
  2  9  1  0
  3  4  1  0
  4  5  1  0
  5  6  1  0
  5  7  1  0
  7  8  1  1
  7  9  1  0
  9 10  1  6
M  END
>  <DRUGBANK_ID>  (1) 
DB03911

>  <SECONDARY_ACCESSION_NUMBERS>  (1) 
EXPT02070

>  <COMMON_NAME>  (1) 
L-Xylopyranose

$$$$
