
     RDKit          2D

 21 23  0  0  0  0  0  0  0  0999 V2000
    0.3555   -0.4242    0.0000 C   0  0  0  0  0  0  0  0  0  0  0  0
   -0.3525   -0.0200    0.0000 C   0  0  0  0  0  0  0  0  0  0  0  0
    0.3555    1.2098    0.0000 N   0  0  0  0  0  0  0  0  0  0  0  0
    1.0664    0.8112    0.0000 C   0  0  0  0  0  0  0  0  0  0  0  0
    1.0664   -0.0200    0.0000 O   0  0  0  0  0  0  0  0  0  0  0  0
   -0.3525    0.8112    0.0000 C   0  0  0  0  0  0  0  0  0  0  0  0
   -1.0722   -0.4242    0.0000 C   0  0  0  0  0  0  0  0  0  0  0  0
    0.0029   -1.0607    0.0000 C   0  0  0  0  0  0  0  0  0  0  0  0
   -1.0722    1.2098    0.0000 C   0  0  0  0  0  0  0  0  0  0  0  0
    1.7918    1.2241    0.0000 N   0  0  0  0  0  0  0  0  0  0  0  0
   -1.7803   -0.0200    0.0000 C   0  0  0  0  0  0  0  0  0  0  0  0
    1.0235   -0.9230    0.0000 C   0  0  0  0  0  0  0  0  0  0  0  0
   -1.7803    0.8112    0.0000 C   0  0  0  0  0  0  0  0  0  0  0  0
   -2.5027   -0.4358    0.0000 Cl  0  0  0  0  0  0  0  0  0  0  0  0
   -0.8227   -1.0607    0.0000 C   0  0  0  0  0  0  0  0  0  0  0  0
    0.4157   -1.7517    0.0000 C   0  0  0  0  0  0  0  0  0  0  0  0
    1.7918    2.0526    0.0000 C   0  0  0  0  0  0  0  0  0  0  0  0
    2.5027    2.4712    0.0000 C   0  0  0  0  0  0  0  0  0  0  0  0
    0.0029   -2.4712    0.0000 C   0  0  0  0  0  0  0  0  0  0  0  0
   -1.2270   -1.7775    0.0000 C   0  0  0  0  0  0  0  0  0  0  0  0
   -0.8227   -2.4712    0.0000 C   0  0  0  0  0  0  0  0  0  0  0  0
  2  1  1  0
  3  4  2  0
  4  5  1  0
  5  1  1  0
  6  2  2  0
  6  3  1  0
  7  2  1  0
  8  1  1  0
  9  6  1  0
  9 13  2  0
 10  4  1  0
 11  7  2  0
 12  1  1  0
 13 11  1  0
 14 11  1  0
 15  8  2  0
 16  8  1  0
 17 10  1  0
 18 17  1  0
 19 16  2  0
 20 15  1  0
 20 21  2  0
 21 19  1  0
M  END
>  <DRUGBANK_ID>  (1) 
DB08986

>  <COMMON_NAME>  (1) 
Etifoxine

>  <CAS_NUMBER>  (1) 
21715-46-8

>  <UNII>  (1) 
X24X82MX4X

>  <SYNONYMS>  (1) 
Etifoxina; Etifoxine; Etifoxinum

$$$$
