
     RDKit          2D

 23 26  0  0  0  0  0  0  0  0999 V2000
   -1.0462    0.1317    0.0000 C   0  0  0  0  0  0  0  0  0  0  0  0
   -0.3317    0.5442    0.0000 C   0  0  0  0  0  0  0  0  0  0  0  0
   -1.0462   -0.6933    0.0000 C   0  0  0  0  0  0  0  0  0  0  0  0
   -1.7606    0.5442    0.0000 C   0  0  0  0  0  0  0  0  0  0  0  0
    0.3340   -0.1215    0.0000 N   0  0  0  0  0  0  0  0  0  0  0  0
   -0.3317    1.3692    0.0000 N   0  0  0  0  0  0  0  0  0  0  0  0
   -0.1367   -0.9369    0.0000 C   0  0  0  0  0  0  0  0  0  0  0  0
   -1.7606   -1.1057    0.0000 C   0  0  0  0  0  0  0  0  0  0  0  0
   -2.4751    0.1317    0.0000 N   0  0  0  0  0  0  0  0  0  0  0  0
   -1.7606    1.3692    0.0000 N   0  0  0  0  0  0  0  0  0  0  0  0
    1.1519   -0.0139    0.0000 C   0  0  0  0  0  0  0  0  0  0  0  0
   -1.0462    1.7817    0.0000 C   0  0  0  0  0  0  0  0  0  0  0  0
   -2.4751   -0.6933    0.0000 N   0  0  0  0  0  0  0  0  0  0  0  0
   -1.7606   -1.9308    0.0000 N   0  0  0  0  0  0  0  0  0  0  0  0
   -3.1895    0.5442    0.0000 C   0  0  0  0  0  0  0  0  0  0  0  0
    1.5456    0.7110    0.0000 O   0  0  0  0  0  0  0  0  0  0  0  0
    1.7198   -0.6123    0.0000 C   0  0  0  0  0  0  0  0  0  0  0  0
    2.3568    0.5607    0.0000 C   0  0  0  0  0  0  0  0  0  0  0  0
    2.4644   -0.2571    0.0000 C   0  0  0  0  0  0  0  0  0  0  0  0
    1.5695   -1.4236    0.0000 O   0  0  0  0  0  0  0  0  0  0  0  0
    2.9552    1.1287    0.0000 C   0  0  0  0  0  0  0  0  0  0  0  0
    3.1895   -0.6508    0.0000 O   0  0  0  0  0  0  0  0  0  0  0  0
    2.7626    1.9308    0.0000 O   0  0  0  0  0  0  0  0  0  0  0  0
  1  2  1  0
  1  3  1  0
  1  4  2  0
  2  5  1  0
  2  6  2  0
  3  7  2  0
  3  8  1  0
  4  9  1  0
  4 10  1  0
  5  7  1  0
  6 12  1  0
  8 13  2  0
  8 14  1  0
  9 15  1  0
  9 13  1  0
 10 12  2  0
 11  5  1  6
 11 16  1  0
 11 17  1  0
 16 18  1  0
 17 19  1  0
 17 20  1  1
 18 21  1  6
 18 19  1  0
 19 22  1  1
 21 23  1  0
M  END
>  <DRUGBANK_ID>  (1) 
DB12405

>  <COMMON_NAME>  (1) 
Triciribine

>  <CAS_NUMBER>  (1) 
35943-35-2

>  <UNII>  (1) 
2421HMY9N6

>  <SYNONYMS>  (1) 
Pentaazacentopthylene; TCN; Triciribina; Triciribine; Triciribinum

$$$$
