KSL
     RDKit          2D

 24 27  0  0  0  0  0  0  0  0999 V2000
    1.0284   -0.5579    0.0000 C   0  0  0  0  0  0  0  0  0  0  0  0
    1.0284   -1.3829    0.0000 C   0  0  0  0  0  0  0  0  0  0  0  0
    1.7429   -1.7954    0.0000 C   0  0  0  0  0  0  0  0  0  0  0  0
    1.7429   -2.6204    0.0000 C   0  0  0  0  0  0  0  0  0  0  0  0
    1.0284   -3.0329    0.0000 C   0  0  0  0  0  0  0  0  0  0  0  0
    0.3139   -1.7954    0.0000 C   0  0  0  0  0  0  0  0  0  0  0  0
    0.3139   -2.6204    0.0000 C   0  0  0  0  0  0  0  0  0  0  0  0
   -0.4005   -3.0329    0.0000 C   0  0  0  0  0  0  0  0  0  0  0  0
   -0.4005   -1.3829    0.0000 N   0  0  0  0  0  0  0  0  0  0  0  0
   -0.4005   -0.5579    0.0000 C   0  0  0  0  0  0  0  0  0  0  0  0
   -1.1150   -0.1454    0.0000 C   0  0  0  0  0  0  0  0  0  0  0  0
   -1.8996   -0.4003    0.0000 C   0  0  0  0  0  0  0  0  0  0  0  0
   -2.3846    0.2671    0.0000 N   0  0  0  0  0  0  0  0  0  0  0  0
   -1.8996    0.9346    0.0000 C   0  0  0  0  0  0  0  0  0  0  0  0
   -1.1150    0.6796    0.0000 N   0  0  0  0  0  0  0  0  0  0  0  0
   -0.4005    1.0921    0.0000 C   0  0  0  0  0  0  0  0  0  0  0  0
    0.3139    0.6796    0.0000 C   0  0  0  0  0  0  0  0  0  0  0  0
    0.3139   -0.1454    0.0000 N   0  0  0  0  0  0  0  0  0  0  0  0
   -0.4005    1.9171    0.0000 C   0  0  0  0  0  0  0  0  0  0  0  0
   -1.1150    2.3296    0.0000 C   0  0  0  0  0  0  0  0  0  0  0  0
   -1.1150    3.1546    0.0000 C   0  0  0  0  0  0  0  0  0  0  0  0
   -0.4005    3.5671    0.0000 C   0  0  0  0  0  0  0  0  0  0  0  0
    0.3139    3.1546    0.0000 C   0  0  0  0  0  0  0  0  0  0  0  0
    0.3139    2.3296    0.0000 C   0  0  0  0  0  0  0  0  0  0  0  0
  1  2  1  0
  2  3  2  0
  2  6  1  0
  3  4  1  0
  4  5  2  0
  5  7  1  0
  6  7  2  0
  6  9  1  0
  7  8  1  0
  9 10  1  0
 10 11  1  0
 10 18  2  0
 11 12  2  0
 11 15  1  0
 12 13  1  0
 13 14  2  0
 14 15  1  0
 15 16  1  0
 16 17  2  0
 16 19  1  0
 17 18  1  0
 19 20  2  0
 19 24  1  0
 20 21  1  0
 21 22  2  0
 22 23  1  0
 23 24  2  0
M  END
>  <DRUGBANK_ID>  (1) 
DB08056

>  <COMMON_NAME>  (1) 
N-(2,6-dimethylphenyl)-5-phenylimidazo[1,5-a]pyrazin-8-amine

$$$$
