
     RDKit          2D

 37 42  0  0  0  0  0  0  0  0999 V2000
    7.7825   -1.5253    0.0000 C   0  0  0  0  0  0  0  0  0  0  0  0
    6.9755   -1.6968    0.0000 C   0  0  0  0  0  0  0  0  0  0  0  0
    6.7206   -2.4814    0.0000 N   0  0  0  0  0  0  0  0  0  0  0  0
    6.4235   -1.0837    0.0000 N   0  0  0  0  0  0  0  0  0  0  0  0
    5.6165   -1.2553    0.0000 C   0  0  0  0  0  0  0  0  0  0  0  0
    5.0645   -0.6422    0.0000 C   0  0  0  0  0  0  0  0  0  0  0  0
    5.3194    0.1425    0.0000 C   0  0  0  0  0  0  0  0  0  0  0  0
    6.1264    0.3140    0.0000 C   0  0  0  0  0  0  0  0  0  0  0  0
    6.6784   -0.2991    0.0000 C   0  0  0  0  0  0  0  0  0  0  0  0
    4.7674    0.7556    0.0000 O   0  0  0  0  0  0  0  0  0  0  0  0
    3.9604    0.5840    0.0000 C   0  0  0  0  0  0  0  0  0  0  0  0
    3.7054   -0.2006    0.0000 C   0  0  0  0  0  0  0  0  0  0  0  0
    2.8985   -0.3721    0.0000 C   0  0  0  0  0  0  0  0  0  0  0  0
    2.3464    0.2410    0.0000 C   0  0  0  0  0  0  0  0  0  0  0  0
    2.6014    1.0256    0.0000 C   0  0  0  0  0  0  0  0  0  0  0  0
    3.4084    1.1971    0.0000 C   0  0  0  0  0  0  0  0  0  0  0  0
    1.9339    1.5105    0.0000 N   0  0  0  0  0  0  0  0  0  0  0  0
    1.9339    2.3355    0.0000 C   0  0  0  0  0  0  0  0  0  0  0  0
    1.2195    2.7480    0.0000 C   0  0  0  0  0  0  0  0  0  0  0  0
    0.5050    2.3355    0.0000 C   0  0  0  0  0  0  0  0  0  0  0  0
   -0.2095    2.7480    0.0000 C   0  0  0  0  0  0  0  0  0  0  0  0
   -0.2095    3.5730    0.0000 C   0  0  0  0  0  0  0  0  0  0  0  0
   -0.9239    3.9855    0.0000 C   0  0  0  0  0  0  0  0  0  0  0  0
   -0.9239    4.8105    0.0000 C   0  0  0  0  0  0  0  0  0  0  0  0
   -0.2095    5.2230    0.0000 C   0  0  0  0  0  0  0  0  0  0  0  0
    0.5050    4.8105    0.0000 C   0  0  0  0  0  0  0  0  0  0  0  0
    0.5050    3.9855    0.0000 C   0  0  0  0  0  0  0  0  0  0  0  0
    1.2195    3.5730    0.0000 C   0  0  0  0  0  0  0  0  0  0  0  0
   -0.2095    6.0480    0.0000 C   0  0  0  0  0  0  0  0  0  0  0  0
   -0.9239    6.4605    0.0000 N   0  0  0  0  0  0  0  0  0  0  0  0
    0.5050    6.4605    0.0000 N   0  0  0  0  0  0  0  0  0  0  0  0
    1.2665    1.0256    0.0000 C   0  0  0  0  0  0  0  0  0  0  0  0
    1.5214    0.2410    0.0000 C   0  0  0  0  0  0  0  0  0  0  0  0
    0.9694   -0.3721    0.0000 C   0  0  0  0  0  0  0  0  0  0  0  0
    0.1624   -0.2006    0.0000 C   0  0  0  0  0  0  0  0  0  0  0  0
   -0.0925    0.5840    0.0000 C   0  0  0  0  0  0  0  0  0  0  0  0
    0.4595    1.1971    0.0000 C   0  0  0  0  0  0  0  0  0  0  0  0
  1  2  1  0
  2  3  2  0
  2  4  1  0
  4  5  1  0
  4  9  1  0
  5  6  1  0
  6  7  1  0
  7  8  1  0
  7 10  1  0
  8  9  1  0
 10 11  1  0
 11 12  2  0
 11 16  1  0
 12 13  1  0
 13 14  2  0
 14 15  1  0
 14 33  1  0
 15 16  2  0
 15 17  1  0
 17 18  1  0
 17 32  1  0
 18 19  1  0
 19 20  2  0
 19 28  1  0
 20 21  1  0
 21 22  2  0
 22 23  1  0
 22 27  1  0
 23 24  2  0
 24 25  1  0
 25 26  2  0
 25 29  1  0
 26 27  1  0
 27 28  2  0
 29 30  1  0
 29 31  2  0
 32 33  2  0
 32 37  1  0
 33 34  1  0
 34 35  2  0
 35 36  1  0
 36 37  2  0
M  END
>  <DRUGBANK_ID>  (1) 
DB02112

>  <SECONDARY_ACCESSION_NUMBERS>  (1) 
EXPT00320

>  <COMMON_NAME>  (1) 
Zk-806450

$$$$
