
     RDKit          2D

 13 13  0  0  0  0  0  0  0  0999 V2000
   -1.4289    0.0000    0.0000 C   0  0  0  0  0  0  0  0  0  0  0  0
   -2.8579    0.8250    0.0000 C   0  0  0  0  0  0  0  0  0  0  0  0
    0.0000    2.4750    0.0000 C   0  0  0  0  0  0  0  0  0  0  0  0
    0.7145   -0.4125    0.0000 C   0  0  0  0  0  0  0  0  0  0  0  0
    1.4289    0.0000    0.0000 C   0  0  0  0  0  0  0  0  0  0  0  0
    0.0000    0.0000    0.0000 C   0  0  0  0  0  0  0  0  0  0  0  0
    1.4289    0.8250    0.0000 C   0  0  0  0  0  0  0  0  0  0  0  0
   -0.7145    1.2375    0.0000 C   0  0  0  0  0  0  0  0  0  0  0  0
   -1.4289    0.8250    0.0000 C   0  0  0  0  0  0  0  0  0  0  0  0
    0.0000    0.8250    0.0000 C   0  0  0  0  0  0  0  0  0  0  0  0
    0.7145    1.2375    0.0000 C   0  0  0  0  0  0  0  0  0  0  0  0
   -2.1434    1.2375    0.0000 N   0  0  0  0  0  0  0  0  0  0  0  0
    0.7145    2.0625    0.0000 O   0  0  0  0  0  0  0  0  0  0  0  0
  5  4  2  0
  6  4  1  0
  7  5  1  0
  9  1  1  0
  9  8  1  0
 10  6  2  0
 10  8  1  0
 11  7  2  0
 11 10  1  0
 12  2  1  0
 12  9  1  0
 13  3  1  0
 13 11  1  0
M  END
>  <DRUGBANK_ID>  (1) 
DB13624

>  <COMMON_NAME>  (1) 
Methoxyphenamine

>  <CAS_NUMBER>  (1) 
93-30-1

>  <UNII>  (1) 
J3Z5SRI26Z

>  <SYNONYMS>  (1) 
2-Methoxymethamphetamine; Méthoxyphénamine; Methoxyphenamine; Methoxyphenaminum; Metoxifenamina

$$$$
