
     RDKit          2D

 26 28  0  0  0  0  0  0  0  0999 V2000
   -4.0260    0.4395    0.0000 S   0  0  0  0  0  0  0  0  0  0  0  0
   -4.6935    0.9244    0.0000 C   0  0  0  0  0  0  0  0  0  0  0  0
   -4.4386    1.7090    0.0000 C   0  0  0  0  0  0  0  0  0  0  0  0
   -3.6136    1.7090    0.0000 C   0  0  0  0  0  0  0  0  0  0  0  0
   -3.3586    0.9244    0.0000 C   0  0  0  0  0  0  0  0  0  0  0  0
   -2.6442    0.5119    0.0000 C   0  0  0  0  0  0  0  0  0  0  0  0
   -1.9297    0.9244    0.0000 C   0  0  0  0  0  0  0  0  0  0  0  0
   -1.2152    0.5119    0.0000 N   0  0  0  0  0  0  0  0  0  0  0  0
   -0.4183   -0.0994    0.0000 C   0  0  0  0  0  0  0  0  0  0  0  0
   -0.4183    0.7255    0.0000 C   0  0  0  0  0  0  0  0  0  0  0  0
    0.4066   -0.0994    0.0000 N   0  0  0  0  0  0  0  0  0  0  0  0
    0.4066    0.7255    0.0000 C   0  0  0  0  0  0  0  0  0  0  0  0
    1.1210   -0.5119    0.0000 C   0  0  0  0  0  0  0  0  0  0  0  0
    1.1210    1.1380    0.0000 S   0  0  0  0  0  0  0  0  0  0  0  0
    1.8355    0.7255    0.0000 C   0  0  0  0  0  0  0  0  0  0  0  0
    1.8355   -0.0994    0.0000 C   0  0  0  0  0  0  0  0  0  0  0  0
    2.5500   -0.5119    0.0000 C   0  0  0  0  0  0  0  0  0  0  0  0
    3.2645   -0.0994    0.0000 O   0  0  0  0  0  0  0  0  0  0  0  0
    3.9790   -0.5119    0.0000 C   0  0  0  0  0  0  0  0  0  0  0  0
    4.6934   -0.0994    0.0000 C   0  0  0  0  0  0  0  0  0  0  0  0
    1.1210   -1.3369    0.0000 C   0  0  0  0  0  0  0  0  0  0  0  0
   -1.9297    1.7494    0.0000 O   0  0  0  0  0  0  0  0  0  0  0  0
   -1.0017   -0.6828    0.0000 O   0  0  0  0  0  0  0  0  0  0  0  0
    0.4066   -1.7494    0.0000 O   0  0  0  0  0  0  0  0  0  0  0  0
    1.8355   -1.7494    0.0000 O   0  0  0  0  0  0  0  0  0  0  0  0
    3.9790   -1.3369    0.0000 O   0  0  0  0  0  0  0  0  0  0  0  0
  1  2  1  0
  1  5  1  0
  2  3  2  0
  3  4  1  0
  4  5  2  0
  5  6  1  0
  6  7  1  0
  7  8  1  0
  7 22  2  0
  9 10  1  0
  9 11  1  0
  9 23  2  0
 10  8  1  1
 11 12  1  0
 12 10  1  0
 12 14  1  1
 13 11  1  0
 13 16  2  0
 13 21  1  0
 14 15  1  0
 15 16  1  0
 16 17  1  0
 17 18  1  0
 18 19  1  0
 19 20  1  0
 19 26  2  0
 21 24  2  0
 21 25  1  0
M  END
>  <DRUGBANK_ID>  (1) 
DB00456

>  <SECONDARY_ACCESSION_NUMBERS>  (1) 
APRD00859; EXPT00946

>  <COMMON_NAME>  (1) 
Cefalotin

>  <CAS_NUMBER>  (1) 
153-61-7

>  <UNII>  (1) 
R72LW146E6

>  <SYNONYMS>  (1) 
3-Acetoxymethyl-7-(2-thienylacetamido)-3-cephem-4-carboxylic acid; 7-(2-Thienylacetamido)cephalosporanic acid; 7-(2'-thienylacetamido)cephalosporanic acid; 7-(Thiophene-2-acetamido)cephalosporin; Cefalothin; Cefalotin; Cefalotina; CÃ©falotine; Cefalotinum; Cephalothin; Cephalotin; CET

$$$$
