
     RDKit          2D

 42 48  0  0  0  0  0  0  0  0999 V2000
   -3.3064   -3.5793    0.0000 C   0  0  0  0  0  0  0  0  0  0  0  0
   -3.2378   -2.7572    0.0000 O   0  0  0  0  0  0  0  0  0  0  0  0
   -3.9155   -2.2867    0.0000 C   0  0  0  0  0  0  0  0  0  0  0  0
   -4.6618   -2.6383    0.0000 C   0  0  0  0  0  0  0  0  0  0  0  0
   -5.3395   -2.1678    0.0000 C   0  0  0  0  0  0  0  0  0  0  0  0
   -5.2709   -1.3457    0.0000 C   0  0  0  0  0  0  0  0  0  0  0  0
   -4.5246   -0.9940    0.0000 C   0  0  0  0  0  0  0  0  0  0  0  0
   -3.8469   -1.4645    0.0000 C   0  0  0  0  0  0  0  0  0  0  0  0
   -3.1006   -1.1129    0.0000 C   0  0  0  0  0  0  0  0  0  0  0  0
   -2.3775   -1.5099    0.0000 C   0  0  0  0  0  0  0  0  0  0  0  0
   -1.7764   -0.9449    0.0000 C   0  0  0  0  0  0  0  0  0  0  0  0
   -2.1280   -0.1986    0.0000 N   0  0  0  0  0  0  0  0  0  0  0  0
   -2.9464   -0.3024    0.0000 N   0  0  0  0  0  0  0  0  0  0  0  0
   -3.5115    0.2987    0.0000 C   0  0  0  0  0  0  0  0  0  0  0  0
   -4.3146    0.1099    0.0000 C   0  0  0  0  0  0  0  0  0  0  0  0
   -4.8797    0.7110    0.0000 C   0  0  0  0  0  0  0  0  0  0  0  0
   -4.6416    1.5009    0.0000 N   0  0  0  0  0  0  0  0  0  0  0  0
   -3.8385    1.6897    0.0000 C   0  0  0  0  0  0  0  0  0  0  0  0
   -3.2735    1.0886    0.0000 C   0  0  0  0  0  0  0  0  0  0  0  0
   -2.4704    1.2774    0.0000 C   0  0  0  0  0  0  0  0  0  0  0  0
   -2.2323    2.0673    0.0000 C   0  0  0  0  0  0  0  0  0  0  0  0
   -2.7974    2.6684    0.0000 C   0  0  0  0  0  0  0  0  0  0  0  0
   -3.6005    2.4796    0.0000 C   0  0  0  0  0  0  0  0  0  0  0  0
   -2.5593    3.4583    0.0000 Cl  0  0  0  0  0  0  0  0  0  0  0  0
   -0.9659   -1.0991    0.0000 C   0  0  0  0  0  0  0  0  0  0  0  0
   -0.4271   -0.4743    0.0000 O   0  0  0  0  0  0  0  0  0  0  0  0
   -0.6942   -1.8780    0.0000 N   0  0  0  0  0  0  0  0  0  0  0  0
    0.1163   -2.0322    0.0000 C   0  0  0  0  0  0  0  0  0  0  0  0
    0.8517   -1.6585    0.0000 C   0  0  0  0  0  0  0  0  0  0  0  0
    0.8517   -0.9111    0.0000 C   0  0  0  0  0  0  0  0  0  0  0  0
    1.3012   -0.1208    0.0000 C   0  0  0  0  0  0  0  0  0  0  0  0
    2.0368   -0.4945    0.0000 C   0  0  0  0  0  0  0  0  0  0  0  0
    2.0368   -1.2419    0.0000 C   0  0  0  0  0  0  0  0  0  0  0  0
    1.5873   -2.0322    0.0000 C   0  0  0  0  0  0  0  0  0  0  0  0
    1.3012   -1.6156    0.0000 C   0  0  0  0  0  0  0  0  0  0  0  0
    0.5657   -1.2419    0.0000 C   0  0  0  0  0  0  0  0  0  0  0  0
    0.5657   -0.4945    0.0000 C   0  0  0  0  0  0  0  0  0  0  0  0
    0.2323   -2.8490    0.0000 C   0  0  0  0  0  0  0  0  0  0  0  0
    0.9977   -3.1569    0.0000 O   0  0  0  0  0  0  0  0  0  0  0  0
   -0.4171   -3.3579    0.0000 O   0  0  0  0  0  0  0  0  0  0  0  0
   -4.4560   -0.1719    0.0000 O   0  0  0  0  0  0  0  0  0  0  0  0
   -5.1337    0.2986    0.0000 C   0  0  0  0  0  0  0  0  0  0  0  0
  1  2  1  0
  2  3  1  0
  3  4  2  0
  3  8  1  0
  4  5  1  0
  5  6  2  0
  6  7  1  0
  7  8  2  0
  7 41  1  0
  8  9  1  0
  9 10  2  0
  9 13  1  0
 10 11  1  0
 11 12  2  0
 11 25  1  0
 12 13  1  0
 13 14  1  0
 14 15  2  0
 14 19  1  0
 15 16  1  0
 16 17  2  0
 17 18  1  0
 18 19  2  0
 18 23  1  0
 19 20  1  0
 20 21  2  0
 21 22  1  0
 22 23  2  0
 22 24  1  0
 25 26  2  0
 25 27  1  0
 27 28  1  0
 28 29  1  0
 28 36  1  0
 28 38  1  0
 29 34  1  0
 29 30  1  0
 30 31  1  0
 31 37  1  0
 31 32  1  0
 32 33  1  0
 33 34  1  0
 33 35  1  0
 35 36  1  0
 36 37  1  0
 38 39  2  0
 38 40  1  0
 41 42  1  0
M  END
>  <DRUGBANK_ID>  (1) 
DB06455

>  <COMMON_NAME>  (1) 
Meclinertant

>  <CAS_NUMBER>  (1) 
146362-70-1

>  <UNII>  (1) 
5JBP4SI96H

>  <SYNONYMS>  (1) 
Meclinertant; Reminertant

$$$$
