FC3
     RDKit          2D

 18 19  0  0  0  0  0  0  0  0999 V2000
    0.6727   -1.0068    0.0000 O   0  0  0  0  0  0  0  0  0  0  0  0
    0.4177   -1.7914    0.0000 C   0  0  0  0  0  0  0  0  0  0  0  0
    0.9026   -2.4589    0.0000 C   0  0  0  0  0  0  0  0  0  0  0  0
    0.5671   -3.2126    0.0000 O   0  0  0  0  0  0  0  0  0  0  0  0
   -0.4073   -1.7914    0.0000 C   0  0  0  0  0  0  0  0  0  0  0  0
   -0.6622   -1.0068    0.0000 C   0  0  0  0  0  0  0  0  0  0  0  0
    0.0052   -0.5219    0.0000 C   0  0  0  0  0  0  0  0  0  0  0  0
    1.7231   -2.3726    0.0000 O   0  0  0  0  0  0  0  0  0  0  0  0
    0.0052    0.3031    0.0000 C   0  0  0  0  0  0  0  0  0  0  0  0
   -0.7092    0.7156    0.0000 C   0  0  0  0  0  0  0  0  0  0  0  0
   -0.7092    1.5406    0.0000 C   0  0  0  0  0  0  0  0  0  0  0  0
    0.0052    1.9531    0.0000 C   0  0  0  0  0  0  0  0  0  0  0  0
    0.7197    1.5406    0.0000 C   0  0  0  0  0  0  0  0  0  0  0  0
    0.7197    0.7156    0.0000 C   0  0  0  0  0  0  0  0  0  0  0  0
   -1.4237    0.3031    0.0000 C   0  0  0  0  0  0  0  0  0  0  0  0
   -2.1382   -0.1094    0.0000 F   0  0  0  0  0  0  0  0  0  0  0  0
   -1.8362    1.0176    0.0000 F   0  0  0  0  0  0  0  0  0  0  0  0
   -1.0112   -0.4114    0.0000 F   0  0  0  0  0  0  0  0  0  0  0  0
  1  2  1  0
  1  7  1  0
  2  3  1  0
  2  5  2  0
  3  4  1  0
  3  8  2  0
  5  6  1  0
  6  7  2  0
  7  9  1  0
  9 10  2  0
  9 14  1  0
 10 11  1  0
 10 15  1  0
 11 12  2  0
 12 13  1  0
 13 14  2  0
 15 16  1  0
 15 17  1  0
 15 18  1  0
M  END
>  <DRUGBANK_ID>  (1) 
DB07759

>  <COMMON_NAME>  (1) 
5-[2-(TRIFLUOROMETHYL)PHENYL]-2-FUROIC ACID

$$$$
