
     RDKit          2D

 13 13  0  0  0  0  0  0  0  0999 V2000
   -0.8079    2.2158    0.0000 C   0  0  0  0  0  0  0  0  0  0  0  0
   -0.0934    1.8033    0.0000 C   0  0  0  0  0  0  0  0  0  0  0  0
   -0.0934    0.9783    0.0000 C   0  0  0  0  0  0  0  0  0  0  0  0
   -0.8079    0.5658    0.0000 C   0  0  0  0  0  0  0  0  0  0  0  0
   -1.5223    0.9783    0.0000 C   0  0  0  0  0  0  0  0  0  0  0  0
   -1.5223    1.8033    0.0000 C   0  0  0  0  0  0  0  0  0  0  0  0
    0.6210    0.5658    0.0000 C   0  0  0  0  0  0  0  0  0  0  0  0
    1.3354    0.9783    0.0000 N   0  0  0  0  0  0  0  0  0  0  0  0
    2.0499    0.5658    0.0000 C   0  0  0  0  0  0  0  0  0  0  0  0
    2.7644    0.9783    0.0000 C   0  0  0  0  0  0  0  0  0  0  0  0
    3.4789    0.5658    0.0000 C   0  0  0  0  0  0  0  0  0  0  0  0
    4.1933    0.9783    0.0000 Cl  0  0  0  0  0  0  0  0  0  0  0  0
    2.0499   -0.2591    0.0000 O   0  0  0  0  0  0  0  0  0  0  0  0
  1  2  2  0
  1  6  1  0
  2  3  1  0
  3  4  2  0
  3  7  1  0
  4  5  1  0
  5  6  2  0
  7  8  1  0
  8  9  1  0
  9 10  1  0
  9 13  2  0
 10 11  1  0
 11 12  1  0
M  END
>  <DRUGBANK_ID>  (1) 
DB09011

>  <COMMON_NAME>  (1) 
Beclamide

>  <CAS_NUMBER>  (1) 
501-68-8

>  <UNII>  (1) 
F5N0ALI65V

>  <SYNONYMS>  (1) 
Beclamida; Beclamide; Beclamidum; Benzchlorpropamide; Benzylamide

$$$$
