5287547
     RDKit          2D

 10 11  0  0  0  0  0  0  0  0999 V2000
    3.8597    0.2514    0.0000 N   0  0  0  0  0  0  0  0  0  0  0  0
    3.8597   -1.0764    0.0000 N   0  0  0  0  0  0  0  0  0  0  0  0
    1.6500    0.0000    0.0000 N   0  0  0  0  0  0  0  0  0  0  0  0
    2.3645   -1.2375    0.0000 N   0  0  0  0  0  0  0  0  0  0  0  0
    3.0790    0.0000    0.0000 C   0  0  0  0  0  0  0  0  0  0  0  0
    2.3645    0.4125    0.0000 C   0  0  0  0  0  0  0  0  0  0  0  0
    3.0790   -0.8250    0.0000 C   0  0  0  0  0  0  0  0  0  0  0  0
    2.3645    1.2375    0.0000 C   0  0  0  0  0  0  0  0  0  0  0  0
    4.3412   -0.4125    0.0000 C   0  0  0  0  0  0  0  0  0  0  0  0
    1.6500   -0.8250    0.0000 C   0  0  0  0  0  0  0  0  0  0  0  0
  1  5  1  0
  1  9  1  0
  2  7  1  0
  2  9  2  0
  3  6  1  0
  3 10  2  0
  4  7  2  0
  4 10  1  0
  5  6  2  0
  5  7  1  0
  6  8  1  0
M  END
>  <DRUGBANK_ID>  (1) 
DB02113

>  <SECONDARY_ACCESSION_NUMBERS>  (1) 
EXPT00287

>  <COMMON_NAME>  (1) 
6-Methylpurine

>  <CAS_NUMBER>  (1) 
2004-03-7

>  <UNII>  (1) 
SEO6WX0OZG

$$$$
