FPB
     RDKit          2D

 28 30  0  0  0  0  0  0  0  0999 V2000
    0.5434   -0.3628    0.0000 O   0  0  0  0  0  0  0  0  0  0  0  0
    0.5434    0.4622    0.0000 C   0  0  0  0  0  0  0  0  0  0  0  0
    1.2579    0.8747    0.0000 C   0  0  0  0  0  0  0  0  0  0  0  0
    1.9724    0.4622    0.0000 C   0  0  0  0  0  0  0  0  0  0  0  0
    1.9724   -0.3628    0.0000 N   0  0  0  0  0  0  0  0  0  0  0  0
    2.6868    0.8747    0.0000 C   0  0  0  0  0  0  0  0  0  0  0  0
    3.4013    0.4622    0.0000 C   0  0  0  0  0  0  0  0  0  0  0  0
    4.1158    0.8747    0.0000 C   0  0  0  0  0  0  0  0  0  0  0  0
    4.1158    1.6997    0.0000 F   0  0  0  0  0  0  0  0  0  0  0  0
    4.8303    0.4622    0.0000 C   0  0  0  0  0  0  0  0  0  0  0  0
    4.8303   -0.3628    0.0000 C   0  0  0  0  0  0  0  0  0  0  0  0
    4.1158   -0.7753    0.0000 C   0  0  0  0  0  0  0  0  0  0  0  0
    3.4013   -0.3628    0.0000 C   0  0  0  0  0  0  0  0  0  0  0  0
   -0.1710    0.8747    0.0000 N   0  0  0  0  0  0  0  0  0  0  0  0
   -0.9247    0.5391    0.0000 C   0  0  0  0  0  0  0  0  0  0  0  0
   -1.4768    1.1522    0.0000 C   0  0  0  0  0  0  0  0  0  0  0  0
   -1.0643    1.8667    0.0000 C   0  0  0  0  0  0  0  0  0  0  0  0
   -0.2573    1.6951    0.0000 C   0  0  0  0  0  0  0  0  0  0  0  0
   -1.0962   -0.2679    0.0000 C   0  0  0  0  0  0  0  0  0  0  0  0
   -1.8809   -0.5228    0.0000 N   0  0  0  0  0  0  0  0  0  0  0  0
   -2.0524   -1.3298    0.0000 C   0  0  0  0  0  0  0  0  0  0  0  0
   -1.4393   -1.8818    0.0000 O   0  0  0  0  0  0  0  0  0  0  0  0
   -2.8370   -1.5847    0.0000 C   0  0  0  0  0  0  0  0  0  0  0  0
   -3.0085   -2.3917    0.0000 C   0  0  0  0  0  0  0  0  0  0  0  0
   -3.7932   -2.6466    0.0000 C   0  0  0  0  0  0  0  0  0  0  0  0
   -4.4063   -2.0946    0.0000 C   0  0  0  0  0  0  0  0  0  0  0  0
   -4.2347   -1.2876    0.0000 C   0  0  0  0  0  0  0  0  0  0  0  0
   -3.4501   -1.0327    0.0000 C   0  0  0  0  0  0  0  0  0  0  0  0
  1  2  2  0
  2  3  1  0
  2 14  1  0
  3  4  1  0
  4  5  1  1
  4  6  1  0
  6  7  1  0
  7  8  2  0
  7 13  1  0
  8  9  1  0
  8 10  1  0
 10 11  2  0
 11 12  1  0
 12 13  2  0
 14 15  1  0
 14 18  1  0
 15 16  1  0
 15 19  1  6
 16 17  1  0
 17 18  1  0
 19 20  1  0
 20 21  1  0
 21 22  2  0
 21 23  1  0
 23 24  2  0
 23 28  1  0
 24 25  1  0
 25 26  2  0
 26 27  1  0
 27 28  2  0
M  END
>  <DRUGBANK_ID>  (1) 
DB07779

>  <COMMON_NAME>  (1) 
N-({(2S)-1-[(3R)-3-AMINO-4-(2-FLUOROPHENYL)BUTANOYL]PYRROLIDIN-2-YL}METHYL)BENZAMIDE

$$$$
