
     RDKit          2D

 30 31  0  0  0  0  0  0  0  0999 V2000
   -3.2250    3.7122    0.0000 C   0  0  0  0  0  0  0  0  0  0  0  0
   -2.5087    3.3007    0.0000 C   0  0  0  0  0  0  0  0  0  0  0  0
   -2.5087    2.4758    0.0000 O   0  0  0  0  0  0  0  0  0  0  0  0
   -1.7938    2.0644    0.0000 C   0  0  0  0  0  0  0  0  0  0  0  0
   -1.0800    2.4778    0.0000 O   0  0  0  0  0  0  0  0  0  0  0  0
   -1.7938    1.2394    0.0000 C   0  0  0  0  0  0  0  0  0  0  0  0
   -2.5064    0.8259    0.0000 C   0  0  0  0  0  0  0  0  0  0  0  0
   -1.0763    0.8279    0.0000 C   0  0  0  0  0  0  0  0  0  0  0  0
   -1.0763    0.0030    0.0000 C   0  0  0  0  0  0  0  0  0  0  0  0
   -1.7891   -0.4104    0.0000 N   0  0  0  0  0  0  0  0  0  0  0  0
   -1.7891   -1.2353    0.0000 C   0  0  0  0  0  0  0  0  0  0  0  0
   -1.0740   -1.6468    0.0000 O   0  0  0  0  0  0  0  0  0  0  0  0
   -2.5028   -1.6488    0.0000 C   0  0  0  0  0  0  0  0  0  0  0  0
   -2.5028   -2.4738    0.0000 C   0  0  0  0  0  0  0  0  0  0  0  0
   -3.2154   -2.8872    0.0000 C   0  0  0  0  0  0  0  0  0  0  0  0
   -3.2154   -3.7122    0.0000 O   0  0  0  0  0  0  0  0  0  0  0  0
   -3.9305   -2.4758    0.0000 O   0  0  0  0  0  0  0  0  0  0  0  0
   -0.3613   -0.4083    0.0000 C   0  0  0  0  0  0  0  0  0  0  0  0
    0.3523    0.0050    0.0000 C   0  0  0  0  0  0  0  0  0  0  0  0
    0.3523    0.8343    0.0000 C   0  0  0  0  0  0  0  0  0  0  0  0
    1.0680    1.2531    0.0000 C   0  0  0  0  0  0  0  0  0  0  0  0
    1.7835    0.8343    0.0000 C   0  0  0  0  0  0  0  0  0  0  0  0
    2.4992    1.2447    0.0000 C   0  0  0  0  0  0  0  0  0  0  0  0
    3.2149    0.8259    0.0000 C   0  0  0  0  0  0  0  0  0  0  0  0
    3.9305    1.2447    0.0000 C   0  0  0  0  0  0  0  0  0  0  0  0
    3.9305    2.0739    0.0000 C   0  0  0  0  0  0  0  0  0  0  0  0
    3.2149    2.4844    0.0000 C   0  0  0  0  0  0  0  0  0  0  0  0
    2.4992    2.0739    0.0000 C   0  0  0  0  0  0  0  0  0  0  0  0
    1.7835    0.0050    0.0000 C   0  0  0  0  0  0  0  0  0  0  0  0
    1.0680   -0.4053    0.0000 C   0  0  0  0  0  0  0  0  0  0  0  0
  2  1  1  0
  3  2  1  0
  4  3  1  0
  4  5  2  0
  4  6  1  0
  6  7  1  1
  6  8  1  0
  9  8  1  1
  9 18  1  0
 10  9  1  0
 11 10  1  0
 11 12  2  0
 11 13  1  0
 13 14  1  0
 15 14  1  0
 15 16  1  0
 15 17  2  0
 19 18  1  0
 19 20  2  0
 20 21  1  0
 22 21  2  0
 22 23  1  0
 22 29  1  0
 23 24  2  0
 23 28  1  0
 25 24  1  0
 26 25  2  0
 27 26  1  0
 28 27  2  0
 29 30  2  0
 30 19  1  0
M  END
>  <DRUGBANK_ID>  (1) 
DB09292

>  <COMMON_NAME>  (1) 
Sacubitril

>  <CAS_NUMBER>  (1) 
149709-62-6

>  <UNII>  (1) 
17ERJ0MKGI

>  <SYNONYMS>  (1) 
Sacubitril; Sacubitrilo

$$$$
