S79
     RDKit          2D

 27 31  0  0  0  0  0  0  0  0999 V2000
   -4.5852   -1.4641    0.0000 N   0  0  0  0  0  0  0  0  0  0  0  0
   -3.8708   -1.0516    0.0000 C   0  0  0  0  0  0  0  0  0  0  0  0
   -3.1563   -1.4641    0.0000 N   0  0  0  0  0  0  0  0  0  0  0  0
   -2.4418   -1.0516    0.0000 C   0  0  0  0  0  0  0  0  0  0  0  0
   -1.7273   -1.4641    0.0000 C   0  0  0  0  0  0  0  0  0  0  0  0
   -1.0129   -1.0516    0.0000 C   0  0  0  0  0  0  0  0  0  0  0  0
   -0.2283   -1.3066    0.0000 N   0  0  0  0  0  0  0  0  0  0  0  0
    0.2567   -0.6391    0.0000 C   0  0  0  0  0  0  0  0  0  0  0  0
    1.0817   -0.6391    0.0000 N   0  0  0  0  0  0  0  0  0  0  0  0
    1.4942    0.0754    0.0000 C   0  0  0  0  0  0  0  0  0  0  0  0
    2.3192    0.0754    0.0000 C   0  0  0  0  0  0  0  0  0  0  0  0
    2.7317    0.7898    0.0000 C   0  0  0  0  0  0  0  0  0  0  0  0
    2.3192    1.5043    0.0000 C   0  0  0  0  0  0  0  0  0  0  0  0
    2.7317    2.2188    0.0000 C   0  0  0  0  0  0  0  0  0  0  0  0
    3.5567    2.2188    0.0000 C   0  0  0  0  0  0  0  0  0  0  0  0
    3.9692    1.5043    0.0000 C   0  0  0  0  0  0  0  0  0  0  0  0
    3.5567    0.7898    0.0000 C   0  0  0  0  0  0  0  0  0  0  0  0
    3.9692    0.0754    0.0000 C   0  0  0  0  0  0  0  0  0  0  0  0
    3.5567   -0.6391    0.0000 C   0  0  0  0  0  0  0  0  0  0  0  0
    2.7317   -0.6391    0.0000 C   0  0  0  0  0  0  0  0  0  0  0  0
   -0.2283    0.0283    0.0000 N   0  0  0  0  0  0  0  0  0  0  0  0
   -1.0129   -0.2266    0.0000 C   0  0  0  0  0  0  0  0  0  0  0  0
   -1.7273    0.1859    0.0000 C   0  0  0  0  0  0  0  0  0  0  0  0
   -2.4418   -0.2266    0.0000 C   0  0  0  0  0  0  0  0  0  0  0  0
   -3.1563    0.1859    0.0000 C   0  0  0  0  0  0  0  0  0  0  0  0
   -3.1563    1.0109    0.0000 O   0  0  0  0  0  0  0  0  0  0  0  0
   -3.8708   -0.2266    0.0000 N   0  0  0  0  0  0  0  0  0  0  0  0
  2 27  1  0
  2  1  1  0
  3  2  2  0
  4 24  2  0
  4  3  1  0
  5  4  1  0
  6 22  1  0
  6  5  2  0
  7  6  1  0
  8  7  1  0
  8 21  2  0
  9  8  1  0
 10  9  1  0
 11 12  1  0
 11 10  1  0
 12 13  2  0
 13 14  1  0
 15 14  2  0
 16 15  1  0
 17 16  2  0
 17 12  1  0
 18 17  1  0
 19 18  2  0
 19 20  1  0
 20 11  2  0
 21 22  1  0
 22 23  2  0
 23 24  1  0
 24 25  1  0
 25 26  2  0
 25 27  1  0
M  END
>  <DRUGBANK_ID>  (1) 
DB08512

>  <COMMON_NAME>  (1) 
6-amino-2-[(1-naphthylmethyl)amino]-3,7-dihydro-8H-imidazo[4,5-g]quinazolin-8-one

$$$$
