
     RDKit          2D

 41 41  0  0  0  0  0  0  0  0999 V2000
  -10.0025   -0.2897    0.0000 C   0  0  0  0  0  0  0  0  0  0  0  0
   -9.2881   -0.7022    0.0000 C   0  0  0  0  0  0  0  0  0  0  0  0
   -8.5736   -0.2897    0.0000 C   0  0  0  0  0  0  0  0  0  0  0  0
   -7.8591   -0.7022    0.0000 C   0  0  0  0  0  0  0  0  0  0  0  0
   -7.1447   -0.2897    0.0000 C   0  0  0  0  0  0  0  0  0  0  0  0
   -6.4302   -0.7022    0.0000 C   0  0  0  0  0  0  0  0  0  0  0  0
   -5.7157   -0.2897    0.0000 C   0  0  0  0  0  0  0  0  0  0  0  0
   -5.0012   -0.7022    0.0000 C   0  0  0  0  0  0  0  0  0  0  0  0
   -4.2868   -0.2897    0.0000 C   0  0  0  0  0  0  0  0  0  0  0  0
   -3.5723   -0.7022    0.0000 C   0  0  0  0  0  0  0  0  0  0  0  0
   -2.8578   -0.2897    0.0000 C   0  0  0  0  0  0  0  0  0  0  0  0
   -2.1434   -0.7022    0.0000 C   0  0  0  0  0  0  0  0  0  0  0  0
   -1.4289   -0.2897    0.0000 C   0  0  0  0  0  0  0  0  0  0  0  0
   -0.7144   -0.7022    0.0000 C   0  0  0  0  0  0  0  0  0  0  0  0
    0.0000   -0.2897    0.0000 C   0  0  0  0  0  0  0  0  0  0  0  0
    0.7144   -0.7022    0.0000 C   0  0  0  0  0  0  0  0  0  0  0  0
    0.7144   -1.5272    0.0000 O   0  0  0  0  0  0  0  0  0  0  0  0
    1.4289   -0.2897    0.0000 N   0  0  0  0  0  0  0  0  0  0  0  0
    2.1434   -0.7022    0.0000 C   0  0  0  0  0  0  0  0  0  0  0  0
    2.8578   -0.2897    0.0000 C   0  0  0  0  0  0  0  0  0  0  0  0
    2.8578    0.5352    0.0000 O   0  0  0  0  0  0  0  0  0  0  0  0
    3.5723   -0.7022    0.0000 N   0  0  0  0  0  0  0  0  0  0  0  0
    4.2868   -0.2897    0.0000 C   0  0  0  0  0  0  0  0  0  0  0  0
    4.2868    0.5352    0.0000 C   0  0  0  0  0  0  0  0  0  0  0  0
    5.0012    0.9477    0.0000 C   0  0  0  0  0  0  0  0  0  0  0  0
    5.0875    1.7682    0.0000 C   0  0  0  0  0  0  0  0  0  0  0  0
    5.8945    1.9397    0.0000 N   0  0  0  0  0  0  0  0  0  0  0  0
    6.3070    1.2252    0.0000 C   0  0  0  0  0  0  0  0  0  0  0  0
    5.7549    0.6121    0.0000 N   0  0  0  0  0  0  0  0  0  0  0  0
    5.0012   -0.7022    0.0000 C   0  0  0  0  0  0  0  0  0  0  0  0
    5.0012   -1.5272    0.0000 O   0  0  0  0  0  0  0  0  0  0  0  0
    5.7157   -0.2897    0.0000 N   0  0  0  0  0  0  0  0  0  0  0  0
    6.4302   -0.7022    0.0000 C   0  0  0  0  0  0  0  0  0  0  0  0
    7.1447   -0.2897    0.0000 C   0  0  0  0  0  0  0  0  0  0  0  0
    7.8591   -0.7022    0.0000 C   0  0  0  0  0  0  0  0  0  0  0  0
    8.5736   -0.2897    0.0000 C   0  0  0  0  0  0  0  0  0  0  0  0
    9.2881   -0.7022    0.0000 C   0  0  0  0  0  0  0  0  0  0  0  0
   10.0025   -0.2897    0.0000 N   0  0  0  0  0  0  0  0  0  0  0  0
    6.4302   -1.5272    0.0000 C   0  0  0  0  0  0  0  0  0  0  0  0
    7.1447   -1.9397    0.0000 O   0  0  0  0  0  0  0  0  0  0  0  0
    5.7157   -1.9397    0.0000 O   0  0  0  0  0  0  0  0  0  0  0  0
  1  2  1  0
  2  3  1  0
  3  4  1  0
  4  5  1  0
  5  6  1  0
  6  7  1  0
  7  8  1  0
  8  9  1  0
  9 10  1  0
 10 11  1  0
 11 12  1  0
 12 13  1  0
 13 14  1  0
 14 15  1  0
 15 16  1  0
 16 17  2  0
 16 18  1  0
 18 19  1  0
 19 20  1  0
 20 21  2  0
 20 22  1  0
 23 22  1  0
 23 24  1  1
 23 30  1  0
 24 25  1  0
 25 26  2  0
 25 29  1  0
 26 27  1  0
 27 28  1  0
 28 29  2  0
 30 31  2  0
 30 32  1  0
 33 32  1  0
 33 34  1  1
 33 39  1  0
 34 35  1  0
 35 36  1  0
 36 37  1  0
 37 38  1  0
 39 40  2  0
 39 41  1  0
M  END
>  <DRUGBANK_ID>  (1) 
DB11297

>  <COMMON_NAME>  (1) 
Palmitoyl oligopeptide

>  <CAS_NUMBER>  (1) 
147732-56-7

>  <UNII>  (1) 
RV743D216M

>  <SYNONYMS>  (1) 
Palmitoyl oligopeptide; Palmitoyl tripeptide-1

$$$$
