14A
     RDKit          2D

 27 28  0  0  0  0  0  0  0  0999 V2000
   -5.6016    0.9529    0.0000 N   0  0  0  0  0  0  0  0  0  0  0  0
   -4.8871    0.5404    0.0000 C   0  0  0  0  0  0  0  0  0  0  0  0
   -4.8871   -0.2846    0.0000 N   0  0  0  0  0  0  0  0  0  0  0  0
   -4.1726    0.9529    0.0000 N   0  0  0  0  0  0  0  0  0  0  0  0
   -3.4581    0.5404    0.0000 O   0  0  0  0  0  0  0  0  0  0  0  0
   -2.7437    0.9529    0.0000 C   0  0  0  0  0  0  0  0  0  0  0  0
   -2.0292    0.5404    0.0000 C   0  0  0  0  0  0  0  0  0  0  0  0
   -1.3147    0.9529    0.0000 C   0  0  0  0  0  0  0  0  0  0  0  0
   -0.6003    0.5404    0.0000 O   0  0  0  0  0  0  0  0  0  0  0  0
    0.1142    0.9529    0.0000 C   0  0  0  0  0  0  0  0  0  0  0  0
    0.1142    1.7779    0.0000 C   0  0  0  0  0  0  0  0  0  0  0  0
    0.8287    2.1904    0.0000 C   0  0  0  0  0  0  0  0  0  0  0  0
    1.5432    1.7779    0.0000 C   0  0  0  0  0  0  0  0  0  0  0  0
    1.5432    0.9529    0.0000 C   0  0  0  0  0  0  0  0  0  0  0  0
    0.8287    0.5404    0.0000 C   0  0  0  0  0  0  0  0  0  0  0  0
    0.8287    3.0154    0.0000 Cl  0  0  0  0  0  0  0  0  0  0  0  0
    2.2576    0.5404    0.0000 C   0  0  0  0  0  0  0  0  0  0  0  0
    2.9721    0.9529    0.0000 O   0  0  0  0  0  0  0  0  0  0  0  0
    2.2576   -0.2846    0.0000 N   0  0  0  0  0  0  0  0  0  0  0  0
    2.9721   -0.6971    0.0000 C   0  0  0  0  0  0  0  0  0  0  0  0
    2.9721   -1.5221    0.0000 C   0  0  0  0  0  0  0  0  0  0  0  0
    3.6866   -1.9346    0.0000 C   0  0  0  0  0  0  0  0  0  0  0  0
    1.5432   -0.6971    0.0000 C   0  0  0  0  0  0  0  0  0  0  0  0
    1.4569   -1.5176    0.0000 C   0  0  0  0  0  0  0  0  0  0  0  0
    0.6499   -1.6891    0.0000 C   0  0  0  0  0  0  0  0  0  0  0  0
    0.2374   -0.9746    0.0000 C   0  0  0  0  0  0  0  0  0  0  0  0
    0.7895   -0.3615    0.0000 C   0  0  0  0  0  0  0  0  0  0  0  0
  1  2  2  0
  2  3  1  0
  2  4  1  0
  4  5  1  0
  5  6  1  0
  6  7  1  0
  7  8  1  0
  8  9  1  0
  9 10  1  0
 10 11  2  0
 10 15  1  0
 11 12  1  0
 12 13  2  0
 12 16  1  0
 13 14  1  0
 14 15  2  0
 14 17  1  0
 17 18  2  0
 17 19  1  0
 19 20  1  0
 19 23  1  0
 20 21  1  0
 21 22  2  0
 23 24  1  0
 23 27  1  0
 24 25  1  0
 25 26  1  0
 26 27  1  0
M  END
>  <DRUGBANK_ID>  (1) 
DB06859

>  <COMMON_NAME>  (1) 
N-ALLYL-5-AMIDINOAMINOOXY-PROPYLOXY-3-CHLORO-N-CYCLOPENTYLBENZAMIDE

$$$$
