
     RDKit          2D

 24 27  0  0  0  0  0  0  0  0999 V2000
   -0.7145   -0.8250    0.0000 C   0  0  0  0  0  0  0  0  0  0  0  0
   -1.4289   -0.4125    0.0000 C   0  0  0  0  0  0  0  0  0  0  0  0
   -1.4289    0.4125    0.0000 C   0  0  0  0  0  0  0  0  0  0  0  0
   -0.7145    0.8250    0.0000 C   0  0  0  0  0  0  0  0  0  0  0  0
    0.0000    0.4125    0.0000 C   0  0  0  0  0  0  0  0  0  0  0  0
    0.0000   -0.4125    0.0000 C   0  0  0  0  0  0  0  0  0  0  0  0
    0.7145   -0.8250    0.0000 N   0  0  0  0  0  0  0  0  0  0  0  0
    0.7145    0.8250    0.0000 C   0  0  0  0  0  0  0  0  0  0  0  0
    1.4289    0.4125    0.0000 C   0  0  0  0  0  0  0  0  0  0  0  0
    1.4289   -0.4125    0.0000 C   0  0  0  0  0  0  0  0  0  0  0  0
    1.4289    2.8875    0.0000 C   0  0  0  0  0  0  0  0  0  0  0  0
    2.8578    2.0626    0.0000 C   0  0  0  0  0  0  0  0  0  0  0  0
    2.8578    2.8876    0.0000 C   0  0  0  0  0  0  0  0  0  0  0  0
    2.5559    2.5857    0.0000 C   0  0  0  0  0  0  0  0  0  0  0  0
    3.5723    3.3001    0.0000 C   0  0  0  0  0  0  0  0  0  0  0  0
    2.1434    3.3001    0.0000 C   0  0  0  0  0  0  0  0  0  0  0  0
    2.1434    1.6501    0.0000 N   0  0  0  0  0  0  0  0  0  0  0  0
    2.5560    0.9357    0.0000 C   0  0  0  0  0  0  0  0  0  0  0  0
    4.2868    2.8876    0.0000 C   0  0  0  0  0  0  0  0  0  0  0  0
    1.4289    2.0625    0.0000 C   0  0  0  0  0  0  0  0  0  0  0  0
    0.7144    1.6500    0.0000 C   0  0  0  0  0  0  0  0  0  0  0  0
    0.0000    2.0625    0.0000 O   0  0  0  0  0  0  0  0  0  0  0  0
   -2.1435    0.8250    0.0000 O   0  0  0  0  0  0  0  0  0  0  0  0
   -2.8579    0.4125    0.0000 C   0  0  0  0  0  0  0  0  0  0  0  0
  1  2  2  0
  1  6  1  0
  3 23  1  0
  3  2  1  0
  4  3  2  0
  5  4  1  0
  6  5  2  0
  6  7  1  0
  7 10  2  0
  8  5  1  0
  8  9  2  0
 10  9  1  0
 20 11  1  6
 12 13  1  0
 13 15  1  1
 14 18  1  0
 15 19  2  0
 16 11  1  1
 16 13  1  0
 16 14  1  0
 17 18  1  0
 17 12  1  0
 20 21  1  0
 20 17  1  0
 21  8  1  0
 21 22  1  1
 23 24  1  0
M  END
>  <DRUGBANK_ID>  (1) 
DB00468

>  <SECONDARY_ACCESSION_NUMBERS>  (1) 
APRD00563

>  <COMMON_NAME>  (1) 
Quinine

>  <CAS_NUMBER>  (1) 
130-95-0

>  <UNII>  (1) 
A7V27PHC7A

>  <SYNONYMS>  (1) 
(-)-Quinine; (−)-quinine; (8S,9R)-quinine; (R)-(−)-quinine; (R)-(6-methoxyquinolin-4-yl)((2S,4S,8R)-8-vinylquinuclidin-2-yl)methanol; 6'-Methoxycinchonidine; Chinin; Chinine; Chininum; Quinina; Quinine

$$$$
