GW3
     RDKit          2D

 20 22  0  0  0  0  0  0  0  0999 V2000
    1.7445    0.0574    0.0000 C   0  0  0  0  0  0  0  0  0  0  0  0
    1.3545   -0.6696    0.0000 C   0  0  0  0  0  0  0  0  0  0  0  0
    1.7891   -1.3708    0.0000 C   0  0  0  0  0  0  0  0  0  0  0  0
    2.6137   -1.3451    0.0000 N   0  0  0  0  0  0  0  0  0  0  0  0
    3.0037   -0.6180    0.0000 C   0  0  0  0  0  0  0  0  0  0  0  0
    2.5691    0.0832    0.0000 N   0  0  0  0  0  0  0  0  0  0  0  0
    1.3991   -2.0978    0.0000 N   0  0  0  0  0  0  0  0  0  0  0  0
    1.3099    0.7587    0.0000 C   0  0  0  0  0  0  0  0  0  0  0  0
    0.4853    0.7329    0.0000 C   0  0  0  0  0  0  0  0  0  0  0  0
    0.0953    0.0059    0.0000 C   0  0  0  0  0  0  0  0  0  0  0  0
    0.5299   -0.6953    0.0000 C   0  0  0  0  0  0  0  0  0  0  0  0
   -0.0027   -1.3254    0.0000 C   0  0  0  0  0  0  0  0  0  0  0  0
   -0.7665   -1.0135    0.0000 C   0  0  0  0  0  0  0  0  0  0  0  0
   -0.7059   -0.1907    0.0000 N   0  0  0  0  0  0  0  0  0  0  0  0
    3.8283   -0.5923    0.0000 N   0  0  0  0  0  0  0  0  0  0  0  0
   -1.3360    0.3419    0.0000 C   0  0  0  0  0  0  0  0  0  0  0  0
   -1.1897    1.1538    0.0000 C   0  0  0  0  0  0  0  0  0  0  0  0
   -1.8198    1.6864    0.0000 C   0  0  0  0  0  0  0  0  0  0  0  0
   -2.1123    0.0626    0.0000 C   0  0  0  0  0  0  0  0  0  0  0  0
   -2.7423    0.5952    0.0000 C   0  0  0  0  0  0  0  0  0  0  0  0
  1  2  1  0
  1  6  2  0
  1  8  1  0
  2  3  2  0
  2 11  1  0
  3  4  1  0
  3  7  1  0
  4  5  2  0
  5  6  1  0
  5 15  1  0
  8  9  2  0
  9 10  1  0
 10 11  2  0
 10 14  1  0
 11 12  1  0
 12 13  2  0
 13 14  1  0
 14 16  1  0
 16 17  1  0
 16 19  1  0
 17 18  1  0
 19 20  1  0
M  END
>  <DRUGBANK_ID>  (1) 
DB07862

>  <COMMON_NAME>  (1) 
7-(1-ETHYL-PROPYL)-7H-PYRROLO-[3,2-F]QUINAZOLINE-1,3-DIAMINE

$$$$
