
     RDKit          2D

 25 28  0  0  1  0  0  0  0  0999 V2000
    3.6826    0.2174    0.0000 C   0  0  0  0  0  0  0  0  0  0  0  0
    4.3340   -0.2889    0.0000 C   0  0  0  0  0  0  0  0  0  0  0  0
    5.0168    0.1741    0.0000 C   0  0  0  0  0  0  0  0  0  0  0  0
    5.7927   -0.1062    0.0000 O   0  0  0  0  0  0  0  0  0  0  0  0
    4.7875    0.9666    0.0000 C   0  0  0  0  0  0  0  0  0  0  0  0
    4.7280    1.7894    0.0000 O   0  0  0  0  0  0  0  0  0  0  0  0
    5.5996    1.1118    0.0000 C   0  0  0  0  0  0  0  0  0  0  0  0
    5.8799    1.8877    0.0000 C   0  0  0  0  0  0  0  0  0  0  0  0
    6.1315    0.4811    0.0000 O   0  0  0  0  0  0  0  0  0  0  0  0
    3.9629    0.9934    0.0000 C   0  0  0  0  0  0  0  0  0  0  0  0
    4.3228    1.7357    0.0000 C   0  0  0  0  0  0  0  0  0  0  0  0
    3.4311    1.6241    0.0000 C   0  0  0  0  0  0  0  0  0  0  0  0
    2.6190    1.4789    0.0000 C   0  0  0  0  0  0  0  0  0  0  0  0
    2.3387    0.7029    0.0000 C   0  0  0  0  0  0  0  0  0  0  0  0
    2.8705    0.0722    0.0000 C   0  0  0  0  0  0  0  0  0  0  0  0
    2.5902   -0.7037    0.0000 C   0  0  0  0  0  0  0  0  0  0  0  0
    1.7781   -0.8489    0.0000 C   0  0  0  0  0  0  0  0  0  0  0  0
    1.2463   -0.2182    0.0000 C   0  0  0  0  0  0  0  0  0  0  0  0
    0.4342   -0.3634    0.0000 C   0  0  0  0  0  0  0  0  0  0  0  0
   -0.0976    0.2673    0.0000 C   0  0  0  0  0  0  0  0  0  0  0  0
   -0.9098    0.1221    0.0000 O   0  0  0  0  0  0  0  0  0  0  0  0
    0.1827    1.0432    0.0000 C   0  0  0  0  0  0  0  0  0  0  0  0
    0.9948    1.1884    0.0000 C   0  0  0  0  0  0  0  0  0  0  0  0
    1.5266    0.5577    0.0000 C   0  0  0  0  0  0  0  0  0  0  0  0
    1.8069    1.3336    0.0000 C   0  0  0  0  0  0  0  0  0  0  0  0
  1  2  1  1
  1 10  1  0
  1 15  1  0
  3  2  1  0
  3  4  1  6
  5  3  1  0
  5  6  1  6
  5  7  1  0
  7  8  1  0
  7  9  2  0
 10  5  1  0
 10 11  1  1
 10 12  1  0
 12 13  1  0
 14 13  1  1
 14 24  1  0
 15 14  1  0
 15 16  1  6
 16 17  1  0
 17 18  1  0
 18 19  2  0
 19 20  1  0
 20 21  2  0
 20 22  1  0
 22 23  1  0
 24 23  1  0
 24 18  1  0
 24 25  1  1
M  END
>  <DRUGBANK_ID>  (1) 
DB18000

>  <COMMON_NAME>  (1) 
Algestone

>  <CAS_NUMBER>  (1) 
595-77-7

>  <UNII>  (1) 
3JEB53B3WT

>  <SYNONYMS>  (1) 
(16.alpha.)-16,17-dihydroxypregn-4-ene-3,20-dione; 16.alpha.,17-dihydroxypregn-4-ene-3,20-dione; 16.alpha.,17-dihydroxyprogesterone; 4-pregnene-16.alpha.,17.alpha.-diol-3,20-dione; Alphasone

$$$$
