Lupeol
     RDKit          2D

 31 35  0  0  1  0  0  0  0  0999 V2000
    9.5812  -13.7013    0.0000 C   0  0  0  0  0  0  0  0  0  0  0  0
    8.8455  -14.1257    0.0000 C   0  0  0  0  0  0  0  0  0  0  0  0
    7.4023  -14.1257    0.0000 C   0  0  0  0  0  0  0  0  0  0  0  0
    9.5812  -12.8807    0.0000 C   0  0  0  0  0  0  0  0  0  0  0  0
    8.1380  -13.7013    0.0000 C   0  0  0  0  0  0  0  0  0  0  0  0
    7.4023  -14.9464    0.0000 C   0  0  0  0  0  0  0  0  0  0  0  0
   10.2886  -12.4563    0.0000 C   0  0  0  0  0  0  0  0  0  0  0  0
    6.6666  -15.3708    0.0000 C   0  0  0  0  0  0  0  0  0  0  0  0
   10.4867  -11.6357    0.0000 C   0  0  0  0  0  0  0  0  0  0  0  0
   11.0243  -12.8807    0.0000 C   0  0  0  0  0  0  0  0  0  0  0  0
    8.8455  -14.9464    0.0000 C   0  0  0  0  0  0  0  0  0  0  0  0
   10.2886  -14.1257    0.0000 C   0  0  0  0  0  0  0  0  0  0  0  0
    8.8455  -12.4563    0.0000 C   0  0  0  0  0  0  0  0  0  0  0  0
    6.6666  -13.7013    0.0000 C   0  0  0  0  0  0  0  0  0  0  0  0
    8.1380  -12.8807    0.0000 C   0  0  0  0  0  0  0  0  0  0  0  0
    8.1380  -15.3708    0.0000 C   0  0  0  0  0  0  0  0  0  0  0  0
    9.9207  -11.0132    0.0000 C   0  0  0  0  0  0  0  0  0  0  0  0
   11.3072  -11.5508    0.0000 C   0  0  0  0  0  0  0  0  0  0  0  0
    5.9592  -14.9464    0.0000 C   0  0  0  0  0  0  0  0  0  0  0  0
   11.0243  -13.7013    0.0000 C   0  0  0  0  0  0  0  0  0  0  0  0
   11.6468  -12.3148    0.0000 C   0  0  0  0  0  0  0  0  0  0  0  0
    5.9592  -14.1257    0.0000 C   0  0  0  0  0  0  0  0  0  0  0  0
   10.2037  -10.2209    0.0000 C   0  0  0  0  0  0  0  0  0  0  0  0
    9.5812  -14.6917    0.0000 C   0  0  0  0  0  0  0  0  0  0  0  0
    8.8455  -13.2769    0.0000 C   0  0  0  0  0  0  0  0  0  0  0  0
    7.4023  -13.2486    0.0000 C   0  0  0  0  0  0  0  0  0  0  0  0
    5.2235  -15.3991    0.0000 O   0  0  0  0  0  0  0  0  0  0  0  0
    9.1001  -11.1547    0.0000 C   0  0  0  0  0  0  0  0  0  0  0  0
    7.0730  -16.0888    0.0000 C   0  0  0  0  0  0  0  0  0  0  0  0
    6.2480  -16.0817    0.0000 C   0  0  0  0  0  0  0  0  0  0  0  0
   11.0228  -12.0565    0.0000 C   0  0  0  0  0  0  0  0  0  0  0  0
  1 24  1  6
  2  1  1  0
  2 25  1  1
  3 26  1  1
  4  1  1  0
  5  2  1  0
  5  3  1  0
  6  3  1  0
  7  4  1  0
  8  6  1  0
  7  9  1  1
  9 17  1  6
 10  7  1  0
 10 31  1  1
 11  2  1  0
 12  1  1  0
  4 13  1  6
 14  3  1  0
  5 15  1  1
 15 13  1  0
  6 16  1  1
 16 11  1  0
 18  9  1  0
 19  8  1  0
 19 27  1  1
 20 10  1  0
 20 12  1  0
 21 10  1  0
 21 18  1  0
 22 14  1  0
 22 19  1  0
 23 17  2  0
 28 17  1  0
 29  8  1  0
 30  8  1  0
M  END
>  <DRUGBANK_ID>  (1) 
DB12622

>  <COMMON_NAME>  (1) 
Lupeol

>  <CAS_NUMBER>  (1) 
545-47-1

>  <UNII>  (1) 
O268W13H3O

$$$$
