PF2
     RDKit          2D

 26 29  0  0  0  0  0  0  0  0999 V2000
    4.2277    2.5919    0.0000 F   0  0  0  0  0  0  0  0  0  0  0  0
    3.8152    1.8774    0.0000 C   0  0  0  0  0  0  0  0  0  0  0  0
    4.5689    1.5418    0.0000 F   0  0  0  0  0  0  0  0  0  0  0  0
    3.1478    2.3623    0.0000 C   0  0  0  0  0  0  0  0  0  0  0  0
    2.4803    1.8774    0.0000 C   0  0  0  0  0  0  0  0  0  0  0  0
    3.5603    1.0928    0.0000 C   0  0  0  0  0  0  0  0  0  0  0  0
    2.7353    1.0928    0.0000 N   0  0  0  0  0  0  0  0  0  0  0  0
    2.2503    0.4253    0.0000 C   0  0  0  0  0  0  0  0  0  0  0  0
    2.5859   -0.3283    0.0000 O   0  0  0  0  0  0  0  0  0  0  0  0
    1.4299    0.5116    0.0000 C   0  0  0  0  0  0  0  0  0  0  0  0
    1.0174    1.2261    0.0000 N   0  0  0  0  0  0  0  0  0  0  0  0
    0.2104    1.0545    0.0000 C   0  0  0  0  0  0  0  0  0  0  0  0
    0.8778   -0.1015    0.0000 C   0  0  0  0  0  0  0  0  0  0  0  0
    0.1242    0.2340    0.0000 C   0  0  0  0  0  0  0  0  0  0  0  0
   -0.5903   -0.1785    0.0000 N   0  0  0  0  0  0  0  0  0  0  0  0
   -1.3048    0.2340    0.0000 C   0  0  0  0  0  0  0  0  0  0  0  0
   -2.0193   -0.1785    0.0000 C   0  0  0  0  0  0  0  0  0  0  0  0
   -2.0193   -1.0035    0.0000 N   0  0  0  0  0  0  0  0  0  0  0  0
   -1.3048   -1.4160    0.0000 C   0  0  0  0  0  0  0  0  0  0  0  0
   -0.5903   -1.0035    0.0000 C   0  0  0  0  0  0  0  0  0  0  0  0
   -2.7337   -1.4160    0.0000 C   0  0  0  0  0  0  0  0  0  0  0  0
   -3.4482   -1.0035    0.0000 N   0  0  0  0  0  0  0  0  0  0  0  0
   -4.1627   -1.4160    0.0000 C   0  0  0  0  0  0  0  0  0  0  0  0
   -4.1627   -2.2410    0.0000 C   0  0  0  0  0  0  0  0  0  0  0  0
   -3.4482   -2.6535    0.0000 C   0  0  0  0  0  0  0  0  0  0  0  0
   -2.7337   -2.2410    0.0000 N   0  0  0  0  0  0  0  0  0  0  0  0
  2  1  1  0
  2  3  1  0
  4  2  1  0
  5  4  1  0
  5  7  1  0
  6  2  1  0
  7  6  1  0
  8  7  1  0
  9  8  2  0
 10  8  1  6
 11 10  1  0
 12 11  1  0
 13 10  1  0
 14 12  1  0
 14 13  1  0
 14 15  1  6
 16 15  1  0
 17 16  1  0
 18 17  1  0
 18 19  1  0
 19 20  1  0
 20 15  1  0
 21 18  1  0
 22 21  2  0
 23 22  1  0
 24 23  2  0
 24 25  1  0
 25 26  2  0
 26 21  1  0
M  END
>  <DRUGBANK_ID>  (1) 
DB08382

>  <SECONDARY_ACCESSION_NUMBERS>  (1) 
DB12502

>  <COMMON_NAME>  (1) 
Gosogliptin

>  <CAS_NUMBER>  (1) 
869490-23-3

>  <UNII>  (1) 
GI718UO477

>  <SYNONYMS>  (1) 
2-(4-{(3S,5S)-5-[(3,3-difluoropyrrolidin-1-yl)carbonyl]pyrrolidin-3-yl}piperazin-1-yl)pyrimidine; Gosogliptin

$$$$
