
     RDKit          2D

  4  3  0  0  0  0  0  0  0  0999 V2000
    1.2375    0.7145    0.0000 C   0  0  0  0  0  0  0  0  0  0  0  0
    0.8250    0.0000    0.0000 C   0  0  0  0  0  0  0  0  0  0  0  0
    1.2375   -0.7145    0.0000 N   0  0  0  0  0  0  0  0  0  0  0  0
    0.0000    0.0000    0.0000 O   0  0  0  0  0  0  0  0  0  0  0  0
  1  2  1  0
  2  3  1  0
  2  4  2  0
M  END
>  <DRUGBANK_ID>  (1) 
DB02736

>  <SECONDARY_ACCESSION_NUMBERS>  (1) 
EXPT00414

>  <COMMON_NAME>  (1) 
Acetamide

>  <CAS_NUMBER>  (1) 
60-35-5

>  <UNII>  (1) 
8XOE1JSO29

$$$$
