FIP
     RDKit          2D

 18 19  0  0  0  0  0  0  0  0999 V2000
   -0.7824   -0.2583    0.0000 C   0  0  0  0  0  0  0  0  0  0  0  0
   -1.5361    0.0772    0.0000 C   0  0  0  0  0  0  0  0  0  0  0  0
   -2.0881   -0.5359    0.0000 C   0  0  0  0  0  0  0  0  0  0  0  0
   -1.7910    0.8619    0.0000 C   0  0  0  0  0  0  0  0  0  0  0  0
   -0.8687   -1.0788    0.0000 C   0  0  0  0  0  0  0  0  0  0  0  0
   -1.6756   -1.2503    0.0000 N   0  0  0  0  0  0  0  0  0  0  0  0
   -2.8951   -0.3643    0.0000 C   0  0  0  0  0  0  0  0  0  0  0  0
   -2.5980    1.0334    0.0000 C   0  0  0  0  0  0  0  0  0  0  0  0
   -3.1500    0.4203    0.0000 C   0  0  0  0  0  0  0  0  0  0  0  0
   -2.8529    1.8180    0.0000 F   0  0  0  0  0  0  0  0  0  0  0  0
   -0.0680    0.1542    0.0000 C   0  0  0  0  0  0  0  0  0  0  0  0
    0.6465   -0.2583    0.0000 C   0  0  0  0  0  0  0  0  0  0  0  0
    1.3610    0.1542    0.0000 C   0  0  0  0  0  0  0  0  0  0  0  0
    2.7899    0.1542    0.0000 P   0  0  0  0  0  0  0  0  0  0  0  0
    3.5044    0.5667    0.0000 O   0  0  0  0  0  0  0  0  0  0  0  0
    3.2024   -0.5603    0.0000 O   0  0  0  0  0  0  0  0  0  0  0  0
    2.3774    0.8687    0.0000 O   0  0  0  0  0  0  0  0  0  0  0  0
    2.0755   -0.2583    0.0000 O   0  0  0  0  0  0  0  0  0  0  0  0
  1  2  1  0
  1  5  2  0
  1 11  1  0
  2  3  2  0
  2  4  1  0
  3  6  1  0
  3  7  1  0
  4  8  2  0
  5  6  1  0
  7  9  2  0
  8  9  1  0
  8 10  1  0
 11 12  1  0
 12 13  1  0
 13 18  1  0
 14 15  2  0
 14 16  1  0
 14 17  1  0
 14 18  1  0
M  END
>  <DRUGBANK_ID>  (1) 
DB07773

>  <COMMON_NAME>  (1) 
5-FLUOROINDOLE PROPANOL PHOSPHATE

$$$$
