C4E
     RDKit          2D

 16 18  0  0  0  0  0  0  0  0999 V2000
   -0.1012    0.5398    0.0000 N   0  0  0  0  0  0  0  0  0  0  0  0
   -0.9082    0.7113    0.0000 C   0  0  0  0  0  0  0  0  0  0  0  0
   -1.4602    0.0982    0.0000 C   0  0  0  0  0  0  0  0  0  0  0  0
   -2.2672    0.2698    0.0000 C   0  0  0  0  0  0  0  0  0  0  0  0
   -2.5221    1.0544    0.0000 C   0  0  0  0  0  0  0  0  0  0  0  0
   -1.9701    1.6675    0.0000 C   0  0  0  0  0  0  0  0  0  0  0  0
   -1.1631    1.4960    0.0000 C   0  0  0  0  0  0  0  0  0  0  0  0
    0.1537   -0.2448    0.0000 C   0  0  0  0  0  0  0  0  0  0  0  0
   -0.3312   -0.9123    0.0000 C   0  0  0  0  0  0  0  0  0  0  0  0
    0.9384   -0.4998    0.0000 C   0  0  0  0  0  0  0  0  0  0  0  0
    1.6528   -0.0873    0.0000 C   0  0  0  0  0  0  0  0  0  0  0  0
    0.9384   -1.3248    0.0000 C   0  0  0  0  0  0  0  0  0  0  0  0
    0.1537   -1.5797    0.0000 N   0  0  0  0  0  0  0  0  0  0  0  0
    1.6528   -1.7373    0.0000 N   0  0  0  0  0  0  0  0  0  0  0  0
    2.3673   -1.3248    0.0000 C   0  0  0  0  0  0  0  0  0  0  0  0
    2.3673   -0.4998    0.0000 C   0  0  0  0  0  0  0  0  0  0  0  0
  1  2  1  0
  1  8  1  0
  2  3  2  0
  2  7  1  0
  3  4  1  0
  4  5  2  0
  5  6  1  0
  6  7  2  0
  8  9  2  0
  8 10  1  0
  9 13  1  0
 10 11  2  0
 10 12  1  0
 11 16  1  0
 12 13  1  0
 12 14  2  0
 14 15  1  0
 15 16  2  0
M  END
>  <DRUGBANK_ID>  (1) 
DB07524

>  <COMMON_NAME>  (1) 
N-phenyl-1H-pyrrolo[2,3-b]pyridin-3-amine

>  <UNII>  (1) 
B1XYZ89TUA

$$$$
