
     RDKit          2D

 28 29  0  0  1  0  0  0  0  0999 V2000
    0.6000   -2.1769    0.0000 C   0  0  0  0  0  0  0  0  0  0  0  0
    1.3926   -1.9481    0.0000 C   0  0  0  0  0  0  0  0  0  0  0  0
    1.9871   -2.5201    0.0000 N   0  0  0  0  0  0  0  0  0  0  0  0
    2.7797   -2.2913    0.0000 C   0  0  0  0  0  0  0  0  0  0  0  0
    3.3742   -2.8633    0.0000 C   0  0  0  0  0  0  0  0  0  0  0  0
    4.1668   -2.6345    0.0000 C   0  0  0  0  0  0  0  0  0  0  0  0
    4.3650   -1.8337    0.0000 C   0  0  0  0  0  0  0  0  0  0  0  0
    3.7705   -1.2617    0.0000 C   0  0  0  0  0  0  0  0  0  0  0  0
    2.9779   -1.4905    0.0000 C   0  0  0  0  0  0  0  0  0  0  0  0
    3.9687   -0.4608    0.0000 O   0  0  0  0  0  0  0  0  0  0  0  0
    5.1576   -1.6049    0.0000 C   0  0  0  0  0  0  0  0  0  0  0  0
    5.7521   -2.1769    0.0000 O   0  0  0  0  0  0  0  0  0  0  0  0
    5.3558   -0.8040    0.0000 O   0  0  0  0  0  0  0  0  0  0  0  0
    6.1484   -0.5752    0.0000 C   0  0  0  0  0  0  0  0  0  0  0  0
    6.7429   -1.1472    0.0000 C   0  0  0  0  0  0  0  0  0  0  0  0
    7.5355   -0.9184    0.0000 C   0  0  0  0  0  0  0  0  0  0  0  0
    8.1300   -1.4905    0.0000 C   0  0  0  0  0  0  0  0  0  0  0  0
    7.9318   -2.2913    0.0000 C   0  0  0  0  0  0  0  0  0  0  0  0
    8.5263   -2.8633    0.0000 O   0  0  0  0  0  0  0  0  0  0  0  0
    7.1392   -2.5201    0.0000 C   0  0  0  0  0  0  0  0  0  0  0  0
    6.9411   -3.3210    0.0000 C   0  0  0  0  0  0  0  0  0  0  0  0
    6.1484   -3.5498    0.0000 C   0  0  0  0  0  0  0  0  0  0  0  0
    5.5539   -2.9778    0.0000 C   0  0  0  0  0  0  0  0  0  0  0  0
    4.7613   -3.2066    0.0000 C   0  0  0  0  0  0  0  0  0  0  0  0
    7.5355   -3.8930    0.0000 O   0  0  0  0  0  0  0  0  0  0  0  0
    6.5447   -1.9481    0.0000 O   0  0  0  0  0  0  0  0  0  0  0  0
    6.1119   -1.6787    0.0000 C   0  0  0  0  0  0  0  0  0  0  0  0
    6.3466    0.2256    0.0000 C   0  0  0  0  0  0  0  0  0  0  0  0
  1  2  1  0
  2  3  1  0
  3  4  1  0
  4  5  2  0
  4  9  1  0
  5  6  1  0
  6  7  2  0
  6 24  1  0
  7  8  1  0
  7 11  1  0
  8  9  2  0
  8 10  1  0
 11 12  2  0
 11 13  1  0
 13 14  1  0
 14 15  1  0
 14 28  1  1
 15 16  1  0
 15 27  1  1
 16 17  2  0
 17 18  1  0
 18 19  2  0
 18 20  1  0
 20 21  1  0
 20 26  1  6
 21 22  1  0
 21 25  1  1
 22 23  1  0
 23 24  2  0
M  END
>  <DRUGBANK_ID>  (1) 
DB11687

>  <COMMON_NAME>  (1) 
E-6201

>  <CAS_NUMBER>  (1) 
603987-35-5

>  <UNII>  (1) 
CZP9GB25HO

$$$$
