
     RDKit          2D

 11 11  0  0  0  0  0  0  0  0999 V2000
   -0.0366   -1.4241    0.0000 C   0  0  0  0  0  0  0  0  0  0  0  0
    1.1926    0.7816    0.0000 C   0  0  0  0  0  0  0  0  0  0  0  0
   -0.3721   -0.6704    0.0000 C   0  0  0  0  0  0  0  0  0  0  0  0
    0.5252    1.2665    0.0000 C   0  0  0  0  0  0  0  0  0  0  0  0
   -0.1422    0.7816    0.0000 C   0  0  0  0  0  0  0  0  0  0  0  0
    0.1127   -0.0029    0.0000 C   0  0  0  0  0  0  0  0  0  0  0  0
   -0.5215   -2.0915    0.0000 O   0  0  0  0  0  0  0  0  0  0  0  0
   -1.1926   -0.5841    0.0000 O   0  0  0  0  0  0  0  0  0  0  0  0
    0.5252    2.0915    0.0000 O   0  0  0  0  0  0  0  0  0  0  0  0
   -0.9268    1.0365    0.0000 O   0  0  0  0  0  0  0  0  0  0  0  0
    0.9377   -0.0029    0.0000 O   0  0  0  0  0  0  0  0  0  0  0  0
  3  1  1  0
  3  8  1  1
  4  2  1  0
  4  9  1  1
  5  4  1  0
  5  6  1  0
  5 10  1  6
  6  3  1  0
  6 11  1  6
  7  1  1  0
 11  2  1  0
M  END
>  <DRUGBANK_ID>  (1) 
DB14474

>  <COMMON_NAME>  (1) 
Sorbitan

>  <CAS_NUMBER>  (1) 
12441-09-7

>  <UNII>  (1) 
AV0YTZ4E6J

>  <SYNONYMS>  (1) 
1,4-Sorbitan

$$$$
