
     RDKit          2D

 40 46  0  0  1  0  0  0  0  0999 V2000
    6.1117    1.3564    0.0000 C   0  0  0  0  0  0  0  0  0  0  0  0
    6.8264    0.9442    0.0000 C   0  0  0  0  0  0  0  0  0  0  0  0
    6.6552    0.1371    0.0000 C   0  0  0  0  0  0  0  0  0  0  0  0
    7.2075   -0.4757    0.0000 O   0  0  0  0  0  0  0  0  0  0  0  0
    5.8348    0.0505    0.0000 O   0  0  0  0  0  0  0  0  0  0  0  0
    5.4989    0.8040    0.0000 C   0  0  0  0  0  0  0  0  0  0  0  0
    4.7141    1.0586    0.0000 C   0  0  0  0  0  0  0  0  0  0  0  0
    4.5422    1.8655    0.0000 C   0  0  0  0  0  0  0  0  0  0  0  0
    5.1550    2.4178    0.0000 C   0  0  0  0  0  0  0  0  0  0  0  0
    4.9831    3.2247    0.0000 C   0  0  0  0  0  0  0  0  0  0  0  0
    5.9398    2.1632    0.0000 O   0  0  0  0  0  0  0  0  0  0  0  0
    3.7575    2.1200    0.0000 C   0  0  0  0  0  0  0  0  0  0  0  0
    3.5855    2.9269    0.0000 O   0  0  0  0  0  0  0  0  0  0  0  0
    3.1446    1.5677    0.0000 C   0  0  0  0  0  0  0  0  0  0  0  0
    3.3165    0.7608    0.0000 C   0  0  0  0  0  0  0  0  0  0  0  0
    4.1013    0.5063    0.0000 C   0  0  0  0  0  0  0  0  0  0  0  0
    4.2732   -0.3006    0.0000 O   0  0  0  0  0  0  0  0  0  0  0  0
    2.7037    0.2085    0.0000 C   0  0  0  0  0  0  0  0  0  0  0  0
    2.8756   -0.5984    0.0000 O   0  0  0  0  0  0  0  0  0  0  0  0
    1.9190    0.4631    0.0000 C   0  0  0  0  0  0  0  0  0  0  0  0
    1.3061   -0.0893    0.0000 C   0  0  0  0  0  0  0  0  0  0  0  0
    0.5214    0.1653    0.0000 C   0  0  0  0  0  0  0  0  0  0  0  0
    0.3495    0.9722    0.0000 C   0  0  0  0  0  0  0  0  0  0  0  0
   -0.4353    1.2267    0.0000 O   0  0  0  0  0  0  0  0  0  0  0  0
   -1.0481    0.6744    0.0000 C   0  0  0  0  0  0  0  0  0  0  0  0
   -0.8762   -0.1325    0.0000 C   0  0  0  0  0  0  0  0  0  0  0  0
   -1.4890   -0.6848    0.0000 C   0  0  0  0  0  0  0  0  0  0  0  0
   -2.2738   -0.4302    0.0000 C   0  0  0  0  0  0  0  0  0  0  0  0
   -2.8866   -0.9826    0.0000 O   0  0  0  0  0  0  0  0  0  0  0  0
   -2.4457    0.3767    0.0000 C   0  0  0  0  0  0  0  0  0  0  0  0
   -3.2304    0.6312    0.0000 C   0  0  0  0  0  0  0  0  0  0  0  0
   -1.8328    0.9290    0.0000 O   0  0  0  0  0  0  0  0  0  0  0  0
    0.9623    1.5245    0.0000 C   0  0  0  0  0  0  0  0  0  0  0  0
    0.7904    2.3314    0.0000 O   0  0  0  0  0  0  0  0  0  0  0  0
    0.9424    0.9579    0.0000 C   0  0  0  0  0  0  0  0  0  0  0  0
    0.1831    0.6355    0.0000 C   0  0  0  0  0  0  0  0  0  0  0  0
    1.0570    0.4200    0.0000 O   0  0  0  0  0  0  0  0  0  0  0  0
    1.7471    1.2699    0.0000 C   0  0  0  0  0  0  0  0  0  0  0  0
    2.3599    1.8223    0.0000 C   0  0  0  0  0  0  0  0  0  0  0  0
    2.1880    2.6292    0.0000 O   0  0  0  0  0  0  0  0  0  0  0  0
  1  2  1  1
  1  6  1  0
  1 11  1  0
  2  3  1  0
  3  4  2  0
  3  5  1  0
  6  5  1  1
  6  7  1  0
  7  8  2  0
  7 16  1  0
  8 12  1  0
  9  8  1  0
  9 10  1  6
  9 11  1  0
 12 13  2  0
 12 14  1  0
 14 15  2  0
 14 39  1  0
 15 16  1  0
 15 18  1  0
 16 17  2  0
 18 19  1  0
 18 20  2  0
 20 38  1  0
 21 20  1  0
 21 22  1  1
 21 37  1  0
 23 22  1  0
 23 24  1  1
 25 24  1  1
 25 26  1  0
 25 32  1  0
 26 27  1  0
 28 27  1  0
 28 29  1  6
 28 30  1  0
 30 31  1  6
 30 32  1  0
 33 23  1  0
 33 34  1  1
 33 35  1  0
 33 38  1  0
 35 36  1  6
 35 37  1  0
 38 39  2  0
 39 40  1  0
M  END
>  <DRUGBANK_ID>  (1) 
DB17273

>  <COMMON_NAME>  (1) 
Granaticin B

>  <CAS_NUMBER>  (1) 
19879-03-9

>  <UNII>  (1) 
JS606MEA30

>  <SYNONYMS>  (1) 
8,11-ethanofuro(2,3-e)naphtho(2,3-c:6,7-c')dipyran-2,6,13(9h)-trione, 3,3a,5,8,11,13b-hexahydro-7,8,12-trihydroxy-5,9-dimethyl-15-(((2s,5s,6s)-tetrahydro-5-hydroxy-6-methyl-2h-pyran-2-yl)oxy)-, (3as,5s,8s,9r,11r,13bs,15r)-

$$$$
