
     RDKit          2D

 17 18  0  0  1  0  0  0  0  0999 V2000
   29.0166   -5.6375    0.0000 O   0  0  0  0  0  0  0  0  0  0  0  0
   27.5845   -6.4570    0.0000 O   0  0  0  0  0  0  0  0  0  0  0  0
   24.6753   -6.4371    0.0000 O   0  0  0  0  0  0  0  0  0  0  0  0
   23.2463   -3.9621    0.0000 N   0  0  0  0  0  0  0  0  0  0  0  0
   24.6753   -3.9621    0.0000 N   0  0  0  0  0  0  0  0  0  0  0  0
   26.1273   -3.9334    0.0000 N   0  0  0  0  0  0  0  0  0  0  0  0
   26.1273   -5.6407    0.0000 N   0  0  0  0  0  0  0  0  0  0  0  0
   23.9608   -5.1996    0.0000 N   0  0  0  0  0  0  0  0  0  0  0  0
   28.3037   -5.2223    0.0000 C   0  0  0  0  0  0  0  0  0  0  0  0
   27.5876   -5.6320    0.0000 C   0  0  0  0  0  0  0  0  0  0  0  0
   28.3069   -4.3972    0.0000 C   0  0  0  0  0  0  0  0  0  0  0  0
   26.8747   -5.2167    0.0000 C   0  0  0  0  0  0  0  0  0  0  0  0
   26.8747   -4.3574    0.0000 C   0  0  0  0  0  0  0  0  0  0  0  0
   23.9608   -4.3746    0.0000 C   0  0  0  0  0  0  0  0  0  0  0  0
   25.3897   -4.3746    0.0000 C   0  0  0  0  0  0  0  0  0  0  0  0
   24.6753   -5.6121    0.0000 C   0  0  0  0  0  0  0  0  0  0  0  0
   25.3897   -5.1996    0.0000 C   0  0  0  0  0  0  0  0  0  0  0  0
  3 16  2  0
  4 14  1  0
  5 14  1  0
  5 15  1  0
  6 13  1  0
  6 15  2  0
  7 12  1  0
  7 17  2  0
  8 14  2  0
  8 16  1  0
  9  1  1  0
  9 10  1  0
  9 11  1  6
 10  2  1  6
 10 12  1  0
 12 13  1  6
 15 17  1  0
 16 17  1  0
M  END
>  <DRUGBANK_ID>  (1) 
DB02562

>  <SECONDARY_ACCESSION_NUMBERS>  (1) 
EXPT01676

>  <COMMON_NAME>  (1) 
Quinonoid 7,8-Tetrahydrobiopterin

>  <CAS_NUMBER>  (1) 
79647-29-3

$$$$
