
     RDKit          2D

 20 19  0  0  0  0  0  0  0  0999 V2000
   -4.6440   -0.2062    0.0000 C   0  0  0  0  0  0  0  0  0  0  0  0
   -3.9296   -0.6187    0.0000 C   0  0  0  0  0  0  0  0  0  0  0  0
   -3.2151   -0.2062    0.0000 C   0  0  0  0  0  0  0  0  0  0  0  0
   -2.5006   -0.6187    0.0000 C   0  0  0  0  0  0  0  0  0  0  0  0
   -1.7861   -0.2062    0.0000 C   0  0  0  0  0  0  0  0  0  0  0  0
   -0.3572   -0.2062    0.0000 C   0  0  0  0  0  0  0  0  0  0  0  0
    0.3572   -0.6187    0.0000 C   0  0  0  0  0  0  0  0  0  0  0  0
    1.0716   -0.2062    0.0000 C   0  0  0  0  0  0  0  0  0  0  0  0
    1.7861   -0.6187    0.0000 C   0  0  0  0  0  0  0  0  0  0  0  0
    2.5006   -0.2062    0.0000 C   0  0  0  0  0  0  0  0  0  0  0  0
    3.2151   -0.6187    0.0000 C   0  0  0  0  0  0  0  0  0  0  0  0
   -5.3585   -0.6187    0.0000 C   0  0  0  0  0  0  0  0  0  0  0  0
    3.9295   -0.2062    0.0000 C   0  0  0  0  0  0  0  0  0  0  0  0
   -6.0730   -0.2062    0.0000 C   0  0  0  0  0  0  0  0  0  0  0  0
    4.6440   -0.6187    0.0000 C   0  0  0  0  0  0  0  0  0  0  0  0
   -1.0717   -0.6187    0.0000 C   0  0  0  0  0  0  0  0  0  0  0  0
    5.3585    0.6187    0.0000 O   0  0  0  0  0  0  0  0  0  0  0  0
    6.0729   -0.6187    0.0000 O   0  0  0  0  0  0  0  0  0  0  0  0
    5.3585   -0.2062    0.0000 S   0  0  0  0  0  0  0  0  0  0  0  0
    6.0730    0.2062    0.0000 F   0  0  0  0  0  0  0  0  0  0  0  0
  2  1  1  0
  3  2  1  0
  4  3  1  0
  5  4  1  0
  6 16  1  0
  7  6  1  0
  8  7  1  0
  9  8  1  0
 10  9  1  0
 11 10  1  0
 12  1  1  0
 13 11  1  0
 14 12  1  0
 15 13  1  0
 16  5  1  0
 19 15  1  0
 19 17  2  0
 19 18  2  0
 19 20  1  0
M  END
>  <DRUGBANK_ID>  (1) 
DB02035

>  <SECONDARY_ACCESSION_NUMBERS>  (1) 
EXPT01783

>  <COMMON_NAME>  (1) 
Hexadecanesulfonyl fluoride

>  <CAS_NUMBER>  (1) 
86855-26-7

>  <UNII>  (1) 
ANCAJYD3FV

>  <SYNONYMS>  (1) 
1-Hexadecanesulfonyl fluoride; Hexadecane-1-sulfonyl fluoride

$$$$
