
     RDKit          2D

 12 12  0  0  0  0  0  0  0  0999 V2000
   -0.0029   -0.6165    0.0000 C   0  0  0  0  0  0  0  0  0  0  0  0
   -0.7219   -0.2145    0.0000 C   0  0  0  0  0  0  0  0  0  0  0  0
    0.7142   -0.2145    0.0000 C   0  0  0  0  0  0  0  0  0  0  0  0
   -0.0029   -1.4477    0.0000 C   0  0  0  0  0  0  0  0  0  0  0  0
   -0.7219    0.6165    0.0000 C   0  0  0  0  0  0  0  0  0  0  0  0
   -1.4293   -0.6282    0.0000 Cl  0  0  0  0  0  0  0  0  0  0  0  0
    0.7142    0.6165    0.0000 C   0  0  0  0  0  0  0  0  0  0  0  0
    0.7142   -1.8497    0.0000 C   0  0  0  0  0  0  0  0  0  0  0  0
   -0.7219   -1.8497    0.0000 C   0  0  0  0  0  0  0  0  0  0  0  0
   -0.0029    1.0302    0.0000 C   0  0  0  0  0  0  0  0  0  0  0  0
    1.4293    1.0302    0.0000 O   0  0  0  0  0  0  0  0  0  0  0  0
   -0.0029    1.8497    0.0000 C   0  0  0  0  0  0  0  0  0  0  0  0
  1  2  2  0
  1  3  1  0
  1  4  1  0
  2  5  1  0
  2  6  1  0
  3  7  2  0
  4  8  1  0
  4  9  1  0
  5 10  2  0
  7 11  1  0
  7 10  1  0
 10 12  1  0
M  END
>  <DRUGBANK_ID>  (1) 
DB15886

>  <COMMON_NAME>  (1) 
Carvasept

>  <CAS_NUMBER>  (1) 
5665-94-1

>  <UNII>  (1) 
5EL163606Q

>  <SYNONYMS>  (1) 
Carvasept; Chlorcarvacrol; Chlorocarvacrol; MCIT

$$$$
