
     RDKit          2D

 15 15  0  0  0  0  0  0  0  0999 V2000
   -0.7145   -0.6187    0.0000 C   0  0  0  0  0  0  0  0  0  0  0  0
   -0.7145    0.2062    0.0000 C   0  0  0  0  0  0  0  0  0  0  0  0
    0.0000   -1.0313    0.0000 C   0  0  0  0  0  0  0  0  0  0  0  0
    0.7145   -0.6187    0.0000 C   0  0  0  0  0  0  0  0  0  0  0  0
    0.7145    0.2062    0.0000 C   0  0  0  0  0  0  0  0  0  0  0  0
    0.0000    0.6187    0.0000 C   0  0  0  0  0  0  0  0  0  0  0  0
    1.4290   -1.0313    0.0000 C   0  0  0  0  0  0  0  0  0  0  0  0
    2.1436   -0.6187    0.0000 O   0  0  0  0  0  0  0  0  0  0  0  0
    1.4290   -1.8563    0.0000 O   0  0  0  0  0  0  0  0  0  0  0  0
    0.0000    1.4438    0.0000 C   0  0  0  0  0  0  0  0  0  0  0  0
    0.7145    1.8563    0.0000 O   0  0  0  0  0  0  0  0  0  0  0  0
   -0.7145    1.8563    0.0000 O   0  0  0  0  0  0  0  0  0  0  0  0
   -1.4290   -1.0313    0.0000 C   0  0  0  0  0  0  0  0  0  0  0  0
   -2.1436   -0.6187    0.0000 O   0  0  0  0  0  0  0  0  0  0  0  0
   -1.4290   -1.8563    0.0000 O   0  0  0  0  0  0  0  0  0  0  0  0
  2  1  2  0
  3  1  1  0
  4  3  2  0
  5  4  1  0
  6  2  1  0
  6  5  2  0
  7  4  1  0
  8  7  2  0
  9  7  1  0
 10  6  1  0
 11 10  1  0
 12 10  2  0
 13  1  1  0
 14 13  1  0
 15 13  2  0
M  END
>  <DRUGBANK_ID>  (1) 
DB08632

>  <COMMON_NAME>  (1) 
Trimesic acid

>  <CAS_NUMBER>  (1) 
554-95-0

>  <UNII>  (1) 
OU36OO5MTN

>  <SYNONYMS>  (1) 
1,3,5-Tricarboxybenzene; 5-carboxyisophthalic acid; Benzene-1,3,5-tricarboxylic acid; Trimesinic acid; Trimesitinic acid

$$$$
