
     RDKit          2D

 16 18  0  0  0  0  0  0  0  0999 V2000
   -1.3492    0.3019    0.0000 C   0  0  0  0  0  0  0  0  0  0  0  0
   -1.3492   -1.1269    0.0000 C   0  0  0  0  0  0  0  0  0  0  0  0
    1.8722   -1.2375    0.0000 C   0  0  0  0  0  0  0  0  0  0  0  0
   -2.1742    0.3019    0.0000 C   0  0  0  0  0  0  0  0  0  0  0  0
   -2.1742   -1.1269    0.0000 C   0  0  0  0  0  0  0  0  0  0  0  0
    2.5867   -0.8250    0.0000 C   0  0  0  0  0  0  0  0  0  0  0  0
    0.3731    0.2549    0.0000 C   0  0  0  0  0  0  0  0  0  0  0  0
   -0.9367   -0.4125    0.0000 C   0  0  0  0  0  0  0  0  0  0  0  0
    1.1578    0.0000    0.0000 C   0  0  0  0  0  0  0  0  0  0  0  0
    1.1578   -0.8250    0.0000 C   0  0  0  0  0  0  0  0  0  0  0  0
   -0.1117   -0.4125    0.0000 C   0  0  0  0  0  0  0  0  0  0  0  0
    1.8722    0.4125    0.0000 C   0  0  0  0  0  0  0  0  0  0  0  0
   -2.5867   -0.4125    0.0000 N   0  0  0  0  0  0  0  0  0  0  0  0
    2.5867    0.0000    0.0000 N   0  0  0  0  0  0  0  0  0  0  0  0
    0.3731   -1.0799    0.0000 N   0  0  0  0  0  0  0  0  0  0  0  0
    1.8722    1.2375    0.0000 O   0  0  0  0  0  0  0  0  0  0  0  0
  4  1  2  0
  5  2  1  0
  6  3  1  0
  8  1  1  0
  8  2  2  0
  9  7  1  0
 10  3  1  0
 10  9  2  0
 11  7  2  0
 11  8  1  0
 12  9  1  0
 13  4  1  0
 13  5  2  0
 14  6  1  0
 14 12  2  0
 15 10  1  0
 15 11  1  0
 16 12  1  0
M  END
>  <DRUGBANK_ID>  (1) 
DB17043

>  <COMMON_NAME>  (1) 
PHA-767491

>  <CAS_NUMBER>  (1) 
845714-00-3

>  <UNII>  (1) 
5M2GUN688C

$$$$
