
     RDKit          2D

 31 35  0  0  0  0  0  0  0  0999 V2000
   -4.1282   -1.0228    0.0000 O   0  0  0  0  0  0  0  0  0  0  0  0
   -3.9567   -0.2159    0.0000 C   0  0  0  0  0  0  0  0  0  0  0  0
   -4.5088    0.3972    0.0000 C   0  0  0  0  0  0  0  0  0  0  0  0
   -4.0962    1.1116    0.0000 S   0  0  0  0  0  0  0  0  0  0  0  0
   -3.2892    0.9401    0.0000 C   0  0  0  0  0  0  0  0  0  0  0  0
   -2.6762    1.4922    0.0000 O   0  0  0  0  0  0  0  0  0  0  0  0
   -3.2030    0.1196    0.0000 N   0  0  0  0  0  0  0  0  0  0  0  0
   -2.4885   -0.2928    0.0000 C   0  0  0  0  0  0  0  0  0  0  0  0
   -1.7741    0.1196    0.0000 C   0  0  0  0  0  0  0  0  0  0  0  0
   -1.0596   -0.2928    0.0000 C   0  0  0  0  0  0  0  0  0  0  0  0
   -0.3451    0.1196    0.0000 C   0  0  0  0  0  0  0  0  0  0  0  0
    0.4394   -0.1352    0.0000 C   0  0  0  0  0  0  0  0  0  0  0  0
    0.6944   -0.9198    0.0000 C   0  0  0  0  0  0  0  0  0  0  0  0
    1.5013   -1.0914    0.0000 C   0  0  0  0  0  0  0  0  0  0  0  0
    2.1144   -0.5393    0.0000 C   0  0  0  0  0  0  0  0  0  0  0  0
    2.8289   -0.9518    0.0000 C   0  0  0  0  0  0  0  0  0  0  0  0
    3.5825   -0.6163    0.0000 C   0  0  0  0  0  0  0  0  0  0  0  0
    3.6688    0.2041    0.0000 N   0  0  0  0  0  0  0  0  0  0  0  0
    3.0014    0.6890    0.0000 C   0  0  0  0  0  0  0  0  0  0  0  0
    3.0876    1.5096    0.0000 C   0  0  0  0  0  0  0  0  0  0  0  0
    3.8413    1.8450    0.0000 O   0  0  0  0  0  0  0  0  0  0  0  0
    4.5088    1.3601    0.0000 C   0  0  0  0  0  0  0  0  0  0  0  0
    4.4225    0.5397    0.0000 C   0  0  0  0  0  0  0  0  0  0  0  0
    2.6574   -1.7588    0.0000 C   0  0  0  0  0  0  0  0  0  0  0  0
    1.8368   -1.8450    0.0000 N   0  0  0  0  0  0  0  0  0  0  0  0
    0.9243    0.5321    0.0000 C   0  0  0  0  0  0  0  0  0  0  0  0
    1.7493    0.5321    0.0000 O   0  0  0  0  0  0  0  0  0  0  0  0
    0.4394    1.1996    0.0000 N   0  0  0  0  0  0  0  0  0  0  0  0
   -0.3451    0.9446    0.0000 C   0  0  0  0  0  0  0  0  0  0  0  0
   -1.0596    1.3571    0.0000 C   0  0  0  0  0  0  0  0  0  0  0  0
   -1.7740    0.9446    0.0000 C   0  0  0  0  0  0  0  0  0  0  0  0
  1  2  2  0
  2  3  1  0
  2  7  1  0
  3  4  1  0
  4  5  1  0
  5  6  2  0
  5  7  1  0
  7  8  1  0
  8  9  1  0
  9 10  2  0
  9 31  1  0
 10 11  1  0
 11 12  1  0
 11 29  2  0
 12 13  2  0
 13 14  1  0
 14 15  2  0
 14 25  1  0
 15 16  1  0
 16 17  1  0
 16 24  2  0
 17 18  1  0
 18 19  1  0
 18 23  1  0
 19 20  1  0
 20 21  1  0
 21 22  1  0
 22 23  1  0
 24 25  1  0
 26 12  1  0
 26 27  2  0
 28 26  1  0
 29 28  1  0
 29 30  1  0
 30 31  2  0
M  END
>  <DRUGBANK_ID>  (1) 
DB16821

>  <COMMON_NAME>  (1) 
S-49076

>  <CAS_NUMBER>  (1) 
1265965-22-7

>  <UNII>  (1) 
65ZUU7MATU

$$$$
