
     RDKit          2D

 35 37  0  0  0  0  0  0  0  0999 V2000
    0.6147   -2.4223    0.0000 O   0  0  0  0  0  0  0  0  0  0  0  0
   -0.8142   -2.4278    0.0000 O   0  0  0  0  0  0  0  0  0  0  0  0
    2.7437    1.2982    0.0000 O   0  0  0  0  0  0  0  0  0  0  0  0
    5.6047    0.4843    0.0000 O   0  0  0  0  0  0  0  0  0  0  0  0
   -3.7328    0.0271    0.0000 O   0  0  0  0  0  0  0  0  0  0  0  0
    4.8950   -0.7558    0.0000 O   0  0  0  0  0  0  0  0  0  0  0  0
    5.5951    2.9593    0.0000 O   0  0  0  0  0  0  0  0  0  0  0  0
    4.1662    2.9537    0.0000 O   0  0  0  0  0  0  0  0  0  0  0  0
    3.4629    0.0636    0.0000 N   0  0  0  0  0  0  0  0  0  0  0  0
   -3.7328   -2.4478    0.0000 N   0  0  0  0  0  0  0  0  0  0  0  0
   -4.4472   -1.2103    0.0000 N   0  0  0  0  0  0  0  0  0  0  0  0
   -5.1618   -2.4478    0.0000 N   0  0  0  0  0  0  0  0  0  0  0  0
   -0.1044   -1.1876    0.0000 C   0  0  0  0  0  0  0  0  0  0  0  0
   -0.8205   -0.7778    0.0000 C   0  0  0  0  0  0  0  0  0  0  0  0
    0.6083   -0.7724    0.0000 C   0  0  0  0  0  0  0  0  0  0  0  0
   -1.5334   -1.1931    0.0000 C   0  0  0  0  0  0  0  0  0  0  0  0
    4.1758    0.4788    0.0000 C   0  0  0  0  0  0  0  0  0  0  0  0
   -2.2808   -0.7692    0.0000 C   0  0  0  0  0  0  0  0  0  0  0  0
    0.6051    0.0525    0.0000 C   0  0  0  0  0  0  0  0  0  0  0  0
    1.3243   -1.1821    0.0000 C   0  0  0  0  0  0  0  0  0  0  0  0
   -0.1013   -2.0126    0.0000 C   0  0  0  0  0  0  0  0  0  0  0  0
   -1.5334   -2.0524    0.0000 C   0  0  0  0  0  0  0  0  0  0  0  0
   -3.0184   -1.2103    0.0000 C   0  0  0  0  0  0  0  0  0  0  0  0
    4.1726    1.3038    0.0000 C   0  0  0  0  0  0  0  0  0  0  0  0
    2.0340    0.0580    0.0000 C   0  0  0  0  0  0  0  0  0  0  0  0
   -3.0184   -2.0353    0.0000 C   0  0  0  0  0  0  0  0  0  0  0  0
    1.3180    0.4678    0.0000 C   0  0  0  0  0  0  0  0  0  0  0  0
    2.0372   -0.7669    0.0000 C   0  0  0  0  0  0  0  0  0  0  0  0
   -2.2808   -2.4763    0.0000 C   0  0  0  0  0  0  0  0  0  0  0  0
    2.7469    0.4733    0.0000 C   0  0  0  0  0  0  0  0  0  0  0  0
    4.8855    1.7191    0.0000 C   0  0  0  0  0  0  0  0  0  0  0  0
   -3.7328   -0.7978    0.0000 C   0  0  0  0  0  0  0  0  0  0  0  0
    4.8918    0.0691    0.0000 C   0  0  0  0  0  0  0  0  0  0  0  0
   -4.4472   -2.0353    0.0000 C   0  0  0  0  0  0  0  0  0  0  0  0
    4.8823    2.5440    0.0000 C   0  0  0  0  0  0  0  0  0  0  0  0
  1 21  1  0
  2 21  2  0
  3 30  2  0
  4 33  1  0
  5 32  2  0
  6 33  2  0
  7 35  1  0
  8 35  2  0
  9 30  1  0
 10 26  1  0
 10 34  1  0
 11 32  1  0
 11 34  2  0
 12 34  1  0
 13 14  1  6
 13 15  1  0
 13 21  1  0
 14 16  1  0
 15 19  2  0
 15 20  1  0
 16 18  2  0
 16 22  1  0
 17  9  1  0
 17 24  1  1
 17 33  1  0
 18 23  1  0
 19 27  1  0
 20 28  2  0
 22 29  2  0
 23 26  2  0
 23 32  1  0
 24 31  1  0
 25 27  2  0
 25 28  1  0
 25 30  1  0
 26 29  1  0
 31 35  1  0
M  END
>  <DRUGBANK_ID>  (1) 
DB04264

>  <SECONDARY_ACCESSION_NUMBERS>  (1) 
EXPT02347

>  <COMMON_NAME>  (1) 
(10R)-10-formyl-5,8,10-trideazafolic acid

$$$$
