
     RDKit          2D

  7  7  0  0  0  0  0  0  0  0999 V2000
   -0.8843    0.8843    0.0000 C   0  0  0  0  0  0  0  0  0  0  0  0
    0.9803   -0.1553    0.0000 C   0  0  0  0  0  0  0  0  0  0  0  0
    1.2352    0.6294    0.0000 C   0  0  0  0  0  0  0  0  0  0  0  0
    0.1553   -0.1553    0.0000 C   0  0  0  0  0  0  0  0  0  0  0  0
    0.5678    1.1143    0.0000 C   0  0  0  0  0  0  0  0  0  0  0  0
   -0.0997    0.6294    0.0000 N   0  0  0  0  0  0  0  0  0  0  0  0
    0.5678    1.9393    0.0000 O   0  0  0  0  0  0  0  0  0  0  0  0
  3  2  1  0
  4  2  1  0
  5  3  1  0
  6  1  1  0
  6  4  1  0
  6  5  1  0
  7  5  2  0
M  END
>  <DRUGBANK_ID>  (1) 
DB12521

>  <COMMON_NAME>  (1) 
Methyl pyrrolidone

>  <CAS_NUMBER>  (1) 
872-50-4

>  <UNII>  (1) 
JR9CE63FPM

>  <SYNONYMS>  (1) 
1-methyl-2-pyrrolidinone; 1-methyl-2-pyrrolidone; 1-methyl-5-pyrrolidinone; 1-methylpyrrolidinone; Methylpyrrolidone; N-methyl-2-pyrrolidone; N-methyl-pyrrolidone; N-methylpyrrolidone; NMP

$$$$
