
     RDKit          2D

 41 46  0  0  1  0  0  0  0  0999 V2000
   -1.9432   -3.8082    0.0000 C   0  0  0  0  0  0  0  0  0  0  0  0
   -1.6077   -3.0545    0.0000 N   0  0  0  0  0  0  0  0  0  0  0  0
   -0.8007   -2.8830    0.0000 C   0  0  0  0  0  0  0  0  0  0  0  0
   -0.7145   -2.0625    0.0000 C   0  0  0  0  0  0  0  0  0  0  0  0
   -1.4681   -1.7269    0.0000 C   0  0  0  0  0  0  0  0  0  0  0  0
   -2.0202   -2.3400    0.0000 N   0  0  0  0  0  0  0  0  0  0  0  0
    0.0000   -1.6500    0.0000 S   0  0  0  0  0  0  0  0  0  0  0  0
    0.4125   -2.3645    0.0000 O   0  0  0  0  0  0  0  0  0  0  0  0
   -0.4125   -0.9355    0.0000 O   0  0  0  0  0  0  0  0  0  0  0  0
    0.7145   -1.2375    0.0000 N   0  0  0  0  0  0  0  0  0  0  0  0
    0.7145   -0.4125    0.0000 C   0  0  0  0  0  0  0  0  0  0  0  0
    1.4289    0.0000    0.0000 C   0  0  0  0  0  0  0  0  0  0  0  0
    2.1434   -0.4125    0.0000 C   0  0  0  0  0  0  0  0  0  0  0  0
    2.8579    0.0000    0.0000 C   0  0  0  0  0  0  0  0  0  0  0  0
    3.5724   -0.4125    0.0000 C   0  0  0  0  0  0  0  0  0  0  0  0
    3.5724   -1.2375    0.0000 C   0  0  0  0  0  0  0  0  0  0  0  0
    2.8579   -1.6500    0.0000 C   0  0  0  0  0  0  0  0  0  0  0  0
    2.1434   -1.2375    0.0000 C   0  0  0  0  0  0  0  0  0  0  0  0
    1.4289   -1.6500    0.0000 C   0  0  0  0  0  0  0  0  0  0  0  0
    2.1434   -2.0625    0.0000 C   0  0  0  0  0  0  0  0  0  0  0  0
    1.4289   -2.4750    0.0000 O   0  0  0  0  0  0  0  0  0  0  0  0
    2.8579   -2.4750    0.0000 C   0  0  0  0  0  0  0  0  0  0  0  0
    2.8579   -3.3000    0.0000 C   0  0  0  0  0  0  0  0  0  0  0  0
    3.5724   -3.7125    0.0000 C   0  0  0  0  0  0  0  0  0  0  0  0
    4.2868   -3.3000    0.0000 C   0  0  0  0  0  0  0  0  0  0  0  0
    4.2868   -2.4750    0.0000 C   0  0  0  0  0  0  0  0  0  0  0  0
    3.5724   -2.0625    0.0000 N   0  0  0  0  0  0  0  0  0  0  0  0
    3.5724   -4.5375    0.0000 C   0  0  0  0  0  0  0  0  0  0  0  0
    3.5724   -5.3625    0.0000 F   0  0  0  0  0  0  0  0  0  0  0  0
    2.7474   -4.5375    0.0000 F   0  0  0  0  0  0  0  0  0  0  0  0
    4.3974   -4.5375    0.0000 F   0  0  0  0  0  0  0  0  0  0  0  0
    4.3570   -1.4924    0.0000 C   0  0  0  0  0  0  0  0  0  0  0  0
    4.8419   -0.8250    0.0000 N   0  0  0  0  0  0  0  0  0  0  0  0
    4.3570   -0.1576    0.0000 N   0  0  0  0  0  0  0  0  0  0  0  0
    4.6119    0.6271    0.0000 C   0  0  0  0  0  0  0  0  0  0  0  0
    4.0599    1.2402    0.0000 C   0  0  0  0  0  0  0  0  0  0  0  0
    4.3148    2.0248    0.0000 C   0  0  0  0  0  0  0  0  0  0  0  0
    5.1218    2.1963    0.0000 C   0  0  0  0  0  0  0  0  0  0  0  0
    5.3767    2.9809    0.0000 F   0  0  0  0  0  0  0  0  0  0  0  0
    5.6738    1.5832    0.0000 C   0  0  0  0  0  0  0  0  0  0  0  0
    5.4189    0.7986    0.0000 C   0  0  0  0  0  0  0  0  0  0  0  0
  1  2  1  0
  2  3  1  0
  2  6  1  0
  3  4  2  0
  4  5  1  0
  4  7  1  0
  5  6  2  0
  7  8  2  0
  7  9  2  0
  7 10  1  0
 10 11  1  0
 10 19  1  0
 11 12  1  0
 12 13  1  0
 13 14  2  0
 14 15  1  0
 15 16  2  0
 15 34  1  0
 16 17  1  0
 16 32  1  0
 18 17  1  0
 18 13  1  0
 18 19  1  0
 18 20  1  1
 20 21  2  0
 20 22  1  0
 22 23  2  0
 22 27  1  0
 23 24  1  0
 24 25  2  0
 24 28  1  0
 25 26  1  0
 26 27  2  0
 28 29  1  0
 28 30  1  0
 28 31  1  0
 32 33  2  0
 33 34  1  0
 34 35  1  0
 35 36  2  0
 35 41  1  0
 36 37  1  0
 37 38  2  0
 38 39  1  0
 38 40  1  0
 40 41  2  0
M  END
>  <DRUGBANK_ID>  (1) 
DB14976

>  <COMMON_NAME>  (1) 
Relacorilant

>  <CAS_NUMBER>  (1) 
1496510-51-0

>  <UNII>  (1) 
2158753C7E

>  <SYNONYMS>  (1) 
CORT125134; Relacorilant

$$$$
