
     RDKit          2D

 19 21  0  0  1  0  0  0  0  0999 V2000
    0.2078    7.4964    0.0000 C   0  0  0  0  0  0  0  0  0  0  0  0
   -0.6127    7.4102    0.0000 N   0  0  0  0  0  0  0  0  0  0  0  0
   -0.9482    6.6565    0.0000 C   0  0  0  0  0  0  0  0  0  0  0  0
   -0.5357    5.9420    0.0000 C   0  0  0  0  0  0  0  0  0  0  0  0
   -1.0878    5.3289    0.0000 C   0  0  0  0  0  0  0  0  0  0  0  0
   -1.8414    5.6645    0.0000 N   0  0  0  0  0  0  0  0  0  0  0  0
   -1.7552    6.4850    0.0000 C   0  0  0  0  0  0  0  0  0  0  0  0
   -2.5559    5.2520    0.0000 C   0  0  0  0  0  0  0  0  0  0  0  0
   -2.5559    4.4270    0.0000 C   0  0  0  0  0  0  0  0  0  0  0  0
   -3.2704    4.0145    0.0000 C   0  0  0  0  0  0  0  0  0  0  0  0
   -3.2704    3.1895    0.0000 N   0  0  0  0  0  0  0  0  0  0  0  0
   -2.5559    2.7770    0.0000 C   0  0  0  0  0  0  0  0  0  0  0  0
   -2.5559    1.9520    0.0000 C   0  0  0  0  0  0  0  0  0  0  0  0
   -2.1434    1.2375    0.0000 C   0  0  0  0  0  0  0  0  0  0  0  0
   -2.9684    1.2375    0.0000 C   0  0  0  0  0  0  0  0  0  0  0  0
   -3.9849    4.4270    0.0000 N   0  0  0  0  0  0  0  0  0  0  0  0
   -3.9849    5.2520    0.0000 C   0  0  0  0  0  0  0  0  0  0  0  0
   -4.6993    5.6645    0.0000 N   0  0  0  0  0  0  0  0  0  0  0  0
   -3.2704    5.6645    0.0000 N   0  0  0  0  0  0  0  0  0  0  0  0
  1  2  1  0
  3  2  1  6
  3  4  1  0
  3  7  1  0
  4  5  1  0
  5  6  1  0
  6  7  1  0
  6  8  1  0
  8  9  2  0
  8 19  1  0
  9 10  1  0
 10 11  1  0
 10 16  2  0
 11 12  1  0
 12 13  1  0
 13 14  1  0
 13 15  1  0
 14 15  1  0
 16 17  1  0
 17 18  1  0
 17 19  2  0
M  END
>  <DRUGBANK_ID>  (1) 
DB15027

>  <COMMON_NAME>  (1) 
Adriforant

>  <CAS_NUMBER>  (1) 
943057-12-3

>  <UNII>  (1) 
D65H9YE9VU

>  <SYNONYMS>  (1) 
Adriforant; PF-03893787

$$$$
