
     RDKit          2D

 12 12  0  0  1  0  0  0  0  0999 V2000
    2.1434    1.2375    0.0000 C   0  0  0  0  0  0  0  0  0  0  0  0
    1.4289    0.8250    0.0000 C   0  0  0  0  0  0  0  0  0  0  0  0
    0.0000    0.0000    0.0000 C   0  0  0  0  0  0  0  0  0  0  0  0
    0.7145    1.2375    0.0000 C   0  0  0  0  0  0  0  0  0  0  0  0
    0.0000    0.8250    0.0000 C   0  0  0  0  0  0  0  0  0  0  0  0
    0.7145   -0.4125    0.0000 C   0  0  0  0  0  0  0  0  0  0  0  0
   -0.7145   -0.4125    0.0000 F   0  0  0  0  0  0  0  0  0  0  0  0
    2.1434    2.0625    0.0000 O   0  0  0  0  0  0  0  0  0  0  0  0
    0.7145    2.0625    0.0000 O   0  0  0  0  0  0  0  0  0  0  0  0
   -0.7145    1.2375    0.0000 O   0  0  0  0  0  0  0  0  0  0  0  0
    0.7145   -1.2375    0.0000 O   0  0  0  0  0  0  0  0  0  0  0  0
    1.4289   -0.0000    0.0000 O   0  0  0  0  0  0  0  0  0  0  0  0
  2  1  1  1
  3  7  1  6
  4  2  1  0
  4  9  1  6
  5  3  1  0
  5  4  1  0
  5 10  1  1
  6  3  1  0
  6 11  1  6
  8  1  1  0
 12  2  1  0
 12  6  1  0
M  END
>  <DRUGBANK_ID>  (1) 
DB04282

>  <SECONDARY_ACCESSION_NUMBERS>  (1) 
EXPT01525

>  <COMMON_NAME>  (1) 
2-deoxy-2-fluoro-Î±-D-glucose

>  <UNII>  (1) 
H0QPM375HE

>  <SYNONYMS>  (1) 
2-deoxy-2-fluoro-alpha-D-glucose; 2-DEOXY-2-FLUORO-GLUCOSE

$$$$
