
     RDKit          2D

 11 10  0  0  1  0  0  0  0  0999 V2000
    2.6664   -2.3645    0.0000 C   0  0  0  0  0  0  0  0  0  0  0  0
    1.9520   -1.9520    0.0000 C   0  0  0  0  0  0  0  0  0  0  0  0
    1.2375   -2.3645    0.0000 C   0  0  0  0  0  0  0  0  0  0  0  0
    1.9520   -1.1270    0.0000 C   0  0  0  0  0  0  0  0  0  0  0  0
    1.2375   -0.7145    0.0000 N   0  0  0  0  0  0  0  0  0  0  0  0
    1.2375    0.1105    0.0000 C   0  0  0  0  0  0  0  0  0  0  0  0
    0.5230    0.5230    0.0000 N   0  0  0  0  0  0  0  0  0  0  0  0
    1.9520    0.5230    0.0000 O   0  0  0  0  0  0  0  0  0  0  0  0
    2.6664   -0.7145    0.0000 C   0  0  0  0  0  0  0  0  0  0  0  0
    2.6664    0.1105    0.0000 O   0  0  0  0  0  0  0  0  0  0  0  0
    3.3809   -1.1270    0.0000 O   0  0  0  0  0  0  0  0  0  0  0  0
  1  2  1  0
  2  3  1  0
  2  4  1  0
  4  5  1  1
  4  9  1  0
  5  6  1  0
  6  7  1  0
  6  8  2  0
  9 10  1  0
  9 11  2  0
M  END
>  <DRUGBANK_ID>  (1) 
DB01847

>  <SECONDARY_ACCESSION_NUMBERS>  (1) 
EXPT00879

>  <COMMON_NAME>  (1) 
N-Carbamyl-D-Valine

$$$$
