
     RDKit          2D

 23 25  0  0  0  0  0  0  0  0999 V2000
   -3.5878    1.8627    0.0000 O   0  0  0  0  0  0  0  0  0  0  0  0
   -3.5878    1.0367    0.0000 C   0  0  0  0  0  0  0  0  0  0  0  0
   -4.3020    0.6238    0.0000 O   0  0  0  0  0  0  0  0  0  0  0  0
   -2.8651    0.6238    0.0000 C   0  0  0  0  0  0  0  0  0  0  0  0
   -2.8651   -0.2108    0.0000 C   0  0  0  0  0  0  0  0  0  0  0  0
   -2.1510   -0.6238    0.0000 C   0  0  0  0  0  0  0  0  0  0  0  0
   -1.4369   -0.2108    0.0000 C   0  0  0  0  0  0  0  0  0  0  0  0
   -1.4369    0.6238    0.0000 C   0  0  0  0  0  0  0  0  0  0  0  0
   -2.1510    1.0367    0.0000 C   0  0  0  0  0  0  0  0  0  0  0  0
   -0.7141   -0.6238    0.0000 N   0  0  0  0  0  0  0  0  0  0  0  0
    0.0000   -0.2108    0.0000 C   0  0  0  0  0  0  0  0  0  0  0  0
    0.7141   -0.6238    0.0000 C   0  0  0  0  0  0  0  0  0  0  0  0
    0.7141   -1.4498    0.0000 C   0  0  0  0  0  0  0  0  0  0  0  0
    1.4368   -1.8627    0.0000 N   0  0  0  0  0  0  0  0  0  0  0  0
    2.1509   -1.4498    0.0000 C   0  0  0  0  0  0  0  0  0  0  0  0
    2.1509   -0.6238    0.0000 C   0  0  0  0  0  0  0  0  0  0  0  0
    1.4368   -0.2108    0.0000 N   0  0  0  0  0  0  0  0  0  0  0  0
    2.8651   -0.2108    0.0000 C   0  0  0  0  0  0  0  0  0  0  0  0
    2.8651    0.6238    0.0000 O   0  0  0  0  0  0  0  0  0  0  0  0
    3.5878   -0.6238    0.0000 N   0  0  0  0  0  0  0  0  0  0  0  0
    3.5878   -1.4498    0.0000 C   0  0  0  0  0  0  0  0  0  0  0  0
    2.8651   -1.8627    0.0000 N   0  0  0  0  0  0  0  0  0  0  0  0
    4.3020   -1.8627    0.0000 N   0  0  0  0  0  0  0  0  0  0  0  0
  1  2  1  0
  2  3  2  0
  2  4  1  0
  4  5  2  0
  4  9  1  0
  5  6  1  0
  6  7  2  0
  7  8  1  0
  7 10  1  0
  8  9  2  0
 10 11  1  0
 11 12  1  0
 12 13  2  0
 12 17  1  0
 13 14  1  0
 14 15  2  0
 15 16  1  0
 15 22  1  0
 16 17  2  0
 16 18  1  0
 18 19  2  0
 18 20  1  0
 20 21  1  0
 21 22  2  0
 21 23  1  0
M  END
>  <DRUGBANK_ID>  (1) 
DB04196

>  <SECONDARY_ACCESSION_NUMBERS>  (1) 
EXPT02678

>  <COMMON_NAME>  (1) 
Pteroic acid

>  <CAS_NUMBER>  (1) 
119-24-4

>  <UNII>  (1) 
8258W48TBZ

$$$$
