
     RDKit          2D

 22 24  0  0  0  0  0  0  0  0999 V2000
    1.8649    2.3228    0.0000 C   0  0  0  0  0  0  0  0  0  0  0  0
    2.5793    3.5603    0.0000 C   0  0  0  0  0  0  0  0  0  0  0  0
    7.3284    1.1483    0.0000 C   0  0  0  0  0  0  0  0  0  0  0  0
    5.0084    5.1666    0.0000 C   0  0  0  0  0  0  0  0  0  0  0  0
    6.5401    0.9051    0.0000 C   0  0  0  0  0  0  0  0  0  0  0  0
    4.4037    4.6055    0.0000 C   0  0  0  0  0  0  0  0  0  0  0  0
    4.0083    2.7353    0.0000 C   0  0  0  0  0  0  0  0  0  0  0  0
    7.5120    1.9526    0.0000 C   0  0  0  0  0  0  0  0  0  0  0  0
    5.7968    4.9235    0.0000 C   0  0  0  0  0  0  0  0  0  0  0  0
    5.9353    1.4663    0.0000 C   0  0  0  0  0  0  0  0  0  0  0  0
    4.5872    3.8012    0.0000 C   0  0  0  0  0  0  0  0  0  0  0  0
    7.2086    3.2817    0.0000 C   0  0  0  0  0  0  0  0  0  0  0  0
    6.7961    3.9962    0.0000 C   0  0  0  0  0  0  0  0  0  0  0  0
    3.2938    2.3228    0.0000 C   0  0  0  0  0  0  0  0  0  0  0  0
    4.7228    2.3228    0.0000 C   0  0  0  0  0  0  0  0  0  0  0  0
    6.9072    2.5137    0.0000 C   0  0  0  0  0  0  0  0  0  0  0  0
    5.9803    4.1191    0.0000 C   0  0  0  0  0  0  0  0  0  0  0  0
    6.1189    2.2706    0.0000 C   0  0  0  0  0  0  0  0  0  0  0  0
    5.3756    3.5580    0.0000 C   0  0  0  0  0  0  0  0  0  0  0  0
    2.5793    2.7353    0.0000 N   0  0  0  0  0  0  0  0  0  0  0  0
    5.4372    2.7353    0.0000 N   0  0  0  0  0  0  0  0  0  0  0  0
    2.5793    1.9103    0.0000 O   0  0  0  0  0  0  0  0  0  0  0  0
  5  3  2  0
  6  4  2  0
  8  3  1  0
  9  4  1  0
 10  5  1  0
 11  6  1  0
 13 12  1  0
 14  7  1  0
 15  7  1  0
 16  8  2  0
 16 12  1  0
 17  9  2  0
 17 13  1  0
 18 10  2  0
 18 16  1  0
 19 11  2  0
 19 17  1  0
 20  1  1  0
 20  2  1  0
 20 14  1  0
 20 22  1  0
 21 15  1  0
 21 18  1  0
 21 19  1  0
M  CHG  2  20   1  22  -1
M  END
>  <DRUGBANK_ID>  (1) 
DB13782

>  <COMMON_NAME>  (1) 
Imipramine oxide

>  <CAS_NUMBER>  (1) 
6829-98-7

>  <UNII>  (1) 
8MKS280XJW

>  <SYNONYMS>  (1) 
Imipramine N-oxide; Imipraminoxide

$$$$
