
     RDKit          2D

 26 27  0  0  0  0  0  0  0  0999 V2000
    3.2146   -1.6494    0.0000 N   0  0  0  0  0  0  0  0  0  0  0  0
    3.2146   -0.8238    0.0000 C   0  0  0  0  0  0  0  0  0  0  0  0
    2.5002   -0.4112    0.0000 N   0  0  0  0  0  0  0  0  0  0  0  0
    3.9290   -0.4112    0.0000 N   0  0  0  0  0  0  0  0  0  0  0  0
    4.6401    1.6526    0.0000 C   0  0  0  0  0  0  0  0  0  0  0  0
    4.6401    0.8270    0.0000 C   0  0  0  0  0  0  0  0  0  0  0  0
    3.9290    0.4143    0.0000 C   0  0  0  0  0  0  0  0  0  0  0  0
    3.2146    0.8270    0.0000 C   0  0  0  0  0  0  0  0  0  0  0  0
    3.2146    1.6526    0.0000 C   0  0  0  0  0  0  0  0  0  0  0  0
    3.9290    2.0621    0.0000 N   0  0  0  0  0  0  0  0  0  0  0  0
    1.7859   -0.8238    0.0000 C   0  0  0  0  0  0  0  0  0  0  0  0
    1.0715   -1.2366    0.0000 N   0  0  0  0  0  0  0  0  0  0  0  0
    2.5002   -2.0621    0.0000 C   0  0  0  0  0  0  0  0  0  0  0  0
    1.7859   -1.6494    0.0000 C   0  0  0  0  0  0  0  0  0  0  0  0
    1.0715   -2.0621    0.0000 C   0  0  0  0  0  0  0  0  0  0  0  0
    0.3571   -1.6494    0.0000 C   0  0  0  0  0  0  0  0  0  0  0  0
   -0.3571   -2.0621    0.0000 C   0  0  0  0  0  0  0  0  0  0  0  0
   -1.0715   -1.6494    0.0000 C   0  0  0  0  0  0  0  0  0  0  0  0
   -1.7859   -2.0621    0.0000 O   0  0  0  0  0  0  0  0  0  0  0  0
   -2.5002   -1.6494    0.0000 C   0  0  0  0  0  0  0  0  0  0  0  0
   -3.2146   -2.0621    0.0000 C   0  0  0  0  0  0  0  0  0  0  0  0
   -3.9257   -1.6494    0.0000 C   0  0  0  0  0  0  0  0  0  0  0  0
   -3.9257   -0.8238    0.0000 C   0  0  0  0  0  0  0  0  0  0  0  0
   -3.2146   -0.4112    0.0000 C   0  0  0  0  0  0  0  0  0  0  0  0
   -2.5002   -0.8238    0.0000 C   0  0  0  0  0  0  0  0  0  0  0  0
   -4.6401   -0.4112    0.0000 Cl  0  0  0  0  0  0  0  0  0  0  0  0
  1  2  1  0
  1 13  1  0
  2  3  1  0
  2  4  2  0
  3 11  1  0
  4  7  1  0
  5  6  2  0
  5 10  1  0
  6  7  1  0
  7  8  2  0
  8  9  1  0
  9 10  2  0
 11 12  3  0
 13 14  1  0
 14 15  1  0
 15 16  1  0
 16 17  1  0
 17 18  1  0
 18 19  1  0
 19 20  1  0
 20 21  2  0
 20 25  1  0
 21 22  1  0
 22 23  2  0
 23 24  1  0
 23 26  1  0
 24 25  2  0
M  END
>  <DRUGBANK_ID>  (1) 
DB12980

>  <COMMON_NAME>  (1) 
CHS-828

>  <CAS_NUMBER>  (1) 
200484-11-3

>  <UNII>  (1) 
8LAP87DNSZ

$$$$
