
     RDKit          2D

 35 39  0  0  0  0  0  0  0  0999 V2000
    3.0335   -2.3048    0.0000 C   0  0  0  0  0  0  0  0  0  0  0  0
    2.2089   -2.2790    0.0000 C   0  0  0  0  0  0  0  0  0  0  0  0
    1.8189   -1.5520    0.0000 N   0  0  0  0  0  0  0  0  0  0  0  0
    0.9943   -1.5262    0.0000 C   0  0  0  0  0  0  0  0  0  0  0  0
    0.5597   -2.2275    0.0000 O   0  0  0  0  0  0  0  0  0  0  0  0
    0.6043   -0.7992    0.0000 N   0  0  0  0  0  0  0  0  0  0  0  0
    1.0390   -0.0980    0.0000 C   0  0  0  0  0  0  0  0  0  0  0  0
    1.8636   -0.1238    0.0000 C   0  0  0  0  0  0  0  0  0  0  0  0
    2.2982    0.5775    0.0000 C   0  0  0  0  0  0  0  0  0  0  0  0
    3.1228    0.5517    0.0000 N   0  0  0  0  0  0  0  0  0  0  0  0
    3.5127   -0.1753    0.0000 C   0  0  0  0  0  0  0  0  0  0  0  0
    4.3140   -0.3719    0.0000 N   0  0  0  0  0  0  0  0  0  0  0  0
    4.3745   -1.1947    0.0000 C   0  0  0  0  0  0  0  0  0  0  0  0
    5.0758   -1.6293    0.0000 C   0  0  0  0  0  0  0  0  0  0  0  0
    5.8028   -1.2393    0.0000 N   0  0  0  0  0  0  0  0  0  0  0  0
    5.8285   -0.4147    0.0000 C   0  0  0  0  0  0  0  0  0  0  0  0
    6.5556   -0.0247    0.0000 C   0  0  0  0  0  0  0  0  0  0  0  0
    7.2568   -0.4593    0.0000 O   0  0  0  0  0  0  0  0  0  0  0  0
    7.2310   -1.2839    0.0000 C   0  0  0  0  0  0  0  0  0  0  0  0
    6.5040   -1.6739    0.0000 C   0  0  0  0  0  0  0  0  0  0  0  0
    3.6108   -1.5066    0.0000 C   0  0  0  0  0  0  0  0  0  0  0  0
    3.0781   -0.8765    0.0000 C   0  0  0  0  0  0  0  0  0  0  0  0
    2.2535   -0.8508    0.0000 C   0  0  0  0  0  0  0  0  0  0  0  0
   -0.2203   -0.7735    0.0000 C   0  0  0  0  0  0  0  0  0  0  0  0
   -0.6549   -1.4747    0.0000 C   0  0  0  0  0  0  0  0  0  0  0  0
   -0.2649   -2.2017    0.0000 F   0  0  0  0  0  0  0  0  0  0  0  0
   -1.4795   -1.4490    0.0000 C   0  0  0  0  0  0  0  0  0  0  0  0
   -1.9141   -2.1502    0.0000 O   0  0  0  0  0  0  0  0  0  0  0  0
   -1.5241   -2.8772    0.0000 C   0  0  0  0  0  0  0  0  0  0  0  0
   -1.8694   -0.7219    0.0000 C   0  0  0  0  0  0  0  0  0  0  0  0
   -1.4348   -0.0207    0.0000 C   0  0  0  0  0  0  0  0  0  0  0  0
   -1.8248    0.7063    0.0000 O   0  0  0  0  0  0  0  0  0  0  0  0
   -1.3902    1.4075    0.0000 C   0  0  0  0  0  0  0  0  0  0  0  0
   -0.6102   -0.0465    0.0000 C   0  0  0  0  0  0  0  0  0  0  0  0
   -0.1756    0.6548    0.0000 F   0  0  0  0  0  0  0  0  0  0  0  0
  1  2  1  0
  2  3  1  0
  3  4  1  0
  3 23  1  0
  4  5  2  0
  4  6  1  0
  6  7  1  0
  6 24  1  0
  7  8  1  0
  8  9  1  0
  8 23  2  0
  9 10  2  0
 10 11  1  0
 11 12  1  0
 11 22  2  0
 12 13  1  0
 13 14  1  0
 13 21  2  0
 14 15  1  0
 15 16  1  0
 15 20  1  0
 16 17  1  0
 17 18  1  0
 18 19  1  0
 19 20  1  0
 21 22  1  0
 22 23  1  0
 24 25  2  0
 24 34  1  0
 25 26  1  0
 25 27  1  0
 27 28  1  0
 27 30  2  0
 28 29  1  0
 30 31  1  0
 31 32  1  0
 31 34  2  0
 32 33  1  0
 34 35  1  0
M  END
>  <DRUGBANK_ID>  (1) 
DB15102

>  <COMMON_NAME>  (1) 
Pemigatinib

>  <CAS_NUMBER>  (1) 
1513857-77-6

>  <UNII>  (1) 
Y6BX7BL23K

>  <SYNONYMS>  (1) 
INCB054828; Pemigatinib

$$$$
