
     RDKit          2D

 34 39  0  0  0  0  0  0  0  0999 V2000
    3.2417    2.7855    0.0000 C   0  0  0  0  0  0  0  0  0  0  0  0
    3.0581    1.9812    0.0000 C   0  0  0  0  0  0  0  0  0  0  0  0
    2.2698    1.7381    0.0000 C   0  0  0  0  0  0  0  0  0  0  0  0
    2.6369    3.3467    0.0000 C   0  0  0  0  0  0  0  0  0  0  0  0
    1.6650    2.2992    0.0000 C   0  0  0  0  0  0  0  0  0  0  0  0
    1.8487    3.1035    0.0000 C   0  0  0  0  0  0  0  0  0  0  0  0
    1.3342    3.7485    0.0000 C   0  0  0  0  0  0  0  0  0  0  0  0
    0.9217    1.9411    0.0000 N   0  0  0  0  0  0  0  0  0  0  0  0
    0.5093    3.7485    0.0000 C   0  0  0  0  0  0  0  0  0  0  0  0
   -0.0051    3.1035    0.0000 C   0  0  0  0  0  0  0  0  0  0  0  0
    0.1785    2.2992    0.0000 C   0  0  0  0  0  0  0  0  0  0  0  0
   -0.4263    1.7381    0.0000 C   0  0  0  0  0  0  0  0  0  0  0  0
   -1.2146    1.9812    0.0000 C   0  0  0  0  0  0  0  0  0  0  0  0
   -1.3982    2.7855    0.0000 C   0  0  0  0  0  0  0  0  0  0  0  0
   -0.7934    3.3467    0.0000 C   0  0  0  0  0  0  0  0  0  0  0  0
   -1.8194    1.4201    0.0000 Cl  0  0  0  0  0  0  0  0  0  0  0  0
    0.9217    1.1161    0.0000 C   0  0  0  0  0  0  0  0  0  0  0  0
    0.2073    0.7036    0.0000 C   0  0  0  0  0  0  0  0  0  0  0  0
    0.2073   -0.1213    0.0000 C   0  0  0  0  0  0  0  0  0  0  0  0
   -0.5071   -0.5337    0.0000 N   0  0  0  0  0  0  0  0  0  0  0  0
   -1.7252   -3.5770    0.0000 C   0  0  0  0  0  0  0  0  0  0  0  0
   -2.5322   -3.7485    0.0000 C   0  0  0  0  0  0  0  0  0  0  0  0
   -3.0842   -3.1353    0.0000 C   0  0  0  0  0  0  0  0  0  0  0  0
   -2.8293   -2.3508    0.0000 C   0  0  0  0  0  0  0  0  0  0  0  0
   -2.0223   -2.1791    0.0000 N   0  0  0  0  0  0  0  0  0  0  0  0
   -1.4703   -2.7922    0.0000 C   0  0  0  0  0  0  0  0  0  0  0  0
   -3.2418   -1.6362    0.0000 N   0  0  0  0  0  0  0  0  0  0  0  0
   -2.6898   -1.0231    0.0000 C   0  0  0  0  0  0  0  0  0  0  0  0
   -1.9361   -1.3587    0.0000 C   0  0  0  0  0  0  0  0  0  0  0  0
   -0.5071   -1.3587    0.0000 C   0  0  0  0  0  0  0  0  0  0  0  0
   -1.2216   -1.7713    0.0000 C   0  0  0  0  0  0  0  0  0  0  0  0
   -1.9361   -0.5337    0.0000 C   0  0  0  0  0  0  0  0  0  0  0  0
   -1.2216   -0.1213    0.0000 C   0  0  0  0  0  0  0  0  0  0  0  0
   -2.8613   -0.2162    0.0000 O   0  0  0  0  0  0  0  0  0  0  0  0
  1  2  2  0
  2  3  1  0
  3  5  2  0
  4  1  1  0
  5  8  1  0
  5  6  1  0
  6  4  2  0
  6  7  1  0
  7  9  1  0
  8 17  1  0
  8 11  1  0
  9 10  1  0
 10 11  2  0
 11 12  1  0
 12 13  2  0
 13 16  1  0
 13 14  1  0
 14 15  2  0
 15 10  1  0
 17 18  1  0
 18 19  1  0
 19 20  1  0
 21 22  1  0
 21 26  1  0
 22 23  1  0
 23 24  1  0
 24 25  1  0
 24 27  1  0
 25 26  1  0
 27 28  1  0
 28 29  1  0
 28 34  2  0
 29 25  1  0
 29 32  1  0
 30 31  1  0
 30 20  1  0
 31 29  1  0
 32 33  1  0
 33 20  1  0
M  END
>  <DRUGBANK_ID>  (1) 
DB13676

>  <COMMON_NAME>  (1) 
Mosapramine

>  <CAS_NUMBER>  (1) 
89419-40-9

>  <UNII>  (1) 
04UZQ7O9SJ

>  <SYNONYMS>  (1) 
Mosapramine

$$$$
