
     RDKit          2D

  8  7  0  0  1  0  0  0  0  0999 V2000
   -2.3645   -1.0164    0.0000 C   0  0  0  0  0  0  0  0  0  0  0  0
   -1.6500   -1.4289    0.0000 C   0  0  0  0  0  0  0  0  0  0  0  0
   -0.9355   -1.0164    0.0000 C   0  0  0  0  0  0  0  0  0  0  0  0
   -0.2211   -1.4289    0.0000 C   0  0  0  0  0  0  0  0  0  0  0  0
    1.2079   -1.4289    0.0000 C   0  0  0  0  0  0  0  0  0  0  0  0
    0.4934   -1.0164    0.0000 C   0  0  0  0  0  0  0  0  0  0  0  0
    0.4934   -0.1914    0.0000 N   0  0  0  0  0  0  0  0  0  0  0  0
    1.9224   -1.0164    0.0000 O   0  0  0  0  0  0  0  0  0  0  0  0
  2  1  1  0
  3  2  1  0
  4  3  1  0
  6  4  1  0
  6  5  1  0
  6  7  1  6
  8  5  2  0
M  END
>  <DRUGBANK_ID>  (1) 
DB03241

>  <SECONDARY_ACCESSION_NUMBERS>  (1) 
EXPT02081

>  <COMMON_NAME>  (1) 
1-Amino-1-Carbonyl Pentane

$$$$
