
     RDKit          2D

 25 28  0  0  1  0  0  0  0  0999 V2000
    0.6529   -1.2716    0.0000 C   0  0  0  0  0  0  0  0  0  0  0  0
    1.3673   -0.8590    0.0000 C   0  0  0  0  0  0  0  0  0  0  0  0
    2.0818   -1.2716    0.0000 C   0  0  0  0  0  0  0  0  0  0  0  0
    2.0818   -2.0966    0.0000 C   0  0  0  0  0  0  0  0  0  0  0  0
    1.3673   -2.5091    0.0000 C   0  0  0  0  0  0  0  0  0  0  0  0
    0.6529   -2.0966    0.0000 C   0  0  0  0  0  0  0  0  0  0  0  0
    1.3673   -0.0340    0.0000 N   0  0  0  0  0  0  0  0  0  0  0  0
    2.7963   -0.8590    0.0000 N   0  0  0  0  0  0  0  0  0  0  0  0
    0.6529    0.3784    0.0000 C   0  0  0  0  0  0  0  0  0  0  0  0
   -0.0616   -0.0340    0.0000 N   0  0  0  0  0  0  0  0  0  0  0  0
   -0.7761    0.3784    0.0000 C   0  0  0  0  0  0  0  0  0  0  0  0
   -0.7761    1.2034    0.0000 C   0  0  0  0  0  0  0  0  0  0  0  0
   -0.0616    1.6159    0.0000 C   0  0  0  0  0  0  0  0  0  0  0  0
    0.6528    1.2034    0.0000 C   0  0  0  0  0  0  0  0  0  0  0  0
   -1.4905   -0.0340    0.0000 C   0  0  0  0  0  0  0  0  0  0  0  0
   -2.2442    0.3015    0.0000 C   0  0  0  0  0  0  0  0  0  0  0  0
   -2.7963   -0.3116    0.0000 N   0  0  0  0  0  0  0  0  0  0  0  0
   -2.3838   -1.0260    0.0000 N   0  0  0  0  0  0  0  0  0  0  0  0
   -1.5768   -0.8546    0.0000 C   0  0  0  0  0  0  0  0  0  0  0  0
   -2.7194   -1.7797    0.0000 C   0  0  0  0  0  0  0  0  0  0  0  0
    1.3673    1.6159    0.0000 F   0  0  0  0  0  0  0  0  0  0  0  0
   -0.2331    2.4229    0.0000 C   0  0  0  0  0  0  0  0  0  0  0  0
   -1.0536    2.5091    0.0000 N   0  0  0  0  0  0  0  0  0  0  0  0
   -1.3892    1.7554    0.0000 C   0  0  0  0  0  0  0  0  0  0  0  0
   -2.1962    1.5839    0.0000 O   0  0  0  0  0  0  0  0  0  0  0  0
  1  2  1  0
  1  6  1  0
  2  7  1  1
  3  2  1  0
  3  8  1  1
  4  3  1  0
  5  4  1  0
  6  5  1  0
  7  9  1  0
  9 14  1  0
 10  9  2  0
 11 10  1  0
 11 15  1  0
 12 11  2  0
 12 24  1  0
 13 12  1  0
 13 22  1  0
 14 13  2  0
 14 21  1  0
 16 17  2  0
 16 15  1  0
 17 18  1  0
 18 19  1  0
 18 20  1  0
 19 15  2  0
 22 23  1  0
 23 24  1  0
 24 25  2  0
M  END
>  <DRUGBANK_ID>  (1) 
DB16849

>  <COMMON_NAME>  (1) 
Mivavotinib

>  <CAS_NUMBER>  (1) 
1312691-33-0

>  <UNII>  (1) 
8QR88H79VX

>  <SYNONYMS>  (1) 
6-{[(1r,2s)-2-Aminocyclohexyl]amino}-7-Fluoro-4-(1-Methyl-1h-Pyrazol-4-Yl)-1,2-Dihydro-3h-Pyrrolo[3,4-C]pyridin-3-One; Mivavotinib

$$$$
