
     RDKit          2D

 19 21  0  0  0  0  0  0  0  0999 V2000
    0.0133   -1.0240    0.0000 C   0  0  0  0  0  0  0  0  0  0  0  0
   -0.2474   -1.8068    0.0000 C   0  0  0  0  0  0  0  0  0  0  0  0
   -0.6649   -0.5545    0.0000 O   0  0  0  0  0  0  0  0  0  0  0  0
   -1.1084   -1.8068    0.0000 C   0  0  0  0  0  0  0  0  0  0  0  0
   -1.3172   -1.0216    0.0000 C   0  0  0  0  0  0  0  0  0  0  0  0
   -1.6042   -2.4590    0.0000 O   0  0  0  0  0  0  0  0  0  0  0  0
    0.0131   -0.1971    0.0000 N   0  0  0  0  0  0  0  0  0  0  0  0
    0.6807    0.2876    0.0000 C   0  0  0  0  0  0  0  0  0  0  0  0
   -0.6541    0.2879    0.0000 C   0  0  0  0  0  0  0  0  0  0  0  0
    0.4259    1.0722    0.0000 C   0  0  0  0  0  0  0  0  0  0  0  0
   -0.3991    1.0725    0.0000 C   0  0  0  0  0  0  0  0  0  0  0  0
    1.4877    0.1159    0.0000 N   0  0  0  0  0  0  0  0  0  0  0  0
    2.0397    0.7289    0.0000 C   0  0  0  0  0  0  0  0  0  0  0  0
    0.9780    1.6852    0.0000 C   0  0  0  0  0  0  0  0  0  0  0  0
    1.7849    1.5136    0.0000 N   0  0  0  0  0  0  0  0  0  0  0  0
    0.7151    2.4759    0.0000 N   0  0  0  0  0  0  0  0  0  0  0  0
   -1.3156   -0.1878    0.0000 C   0  0  0  0  0  0  0  0  0  0  0  0
   -2.0397    0.2243    0.0000 O   0  0  0  0  0  0  0  0  0  0  0  0
    0.2346   -2.4759    0.0000 O   0  0  0  0  0  0  0  0  0  0  0  0
  1  7  1  1
  2  1  1  0
  2 19  1  6
  3  1  1  0
  4  2  1  0
  4  6  1  6
  5  3  1  0
  5  4  1  0
  5 17  1  1
  8  7  1  0
  9  7  1  0
 10  8  2  0
 11  9  2  0
 11 10  1  0
 12  8  1  0
 13 12  2  0
 14 10  1  0
 14 16  1  0
 15 13  1  0
 15 14  2  0
 17 18  1  0
M  END
>  <DRUGBANK_ID>  (1) 
DB03172

>  <SECONDARY_ACCESSION_NUMBERS>  (1) 
EXPT03017

>  <COMMON_NAME>  (1) 
Tubercidin

>  <CAS_NUMBER>  (1) 
69-33-0

>  <UNII>  (1) 
M351LCX45Y

>  <SYNONYMS>  (1) 
7-deazaadenosine; Sparsomycin A; Tubercidine

$$$$
