
     RDKit          2D

 37 41  0  0  0  0  0  0  0  0999 V2000
    1.0027   -4.7739    0.0000 C   0  0  0  0  0  0  0  0  0  0  0  0
    0.4507   -4.1608    0.0000 C   0  0  0  0  0  0  0  0  0  0  0  0
    1.0638   -3.6088    0.0000 C   0  0  0  0  0  0  0  0  0  0  0  0
   -0.1014   -3.5477    0.0000 C   0  0  0  0  0  0  0  0  0  0  0  0
   -0.9083   -3.7192    0.0000 C   0  0  0  0  0  0  0  0  0  0  0  0
   -1.4604   -3.1062    0.0000 C   0  0  0  0  0  0  0  0  0  0  0  0
   -1.2054   -2.3215    0.0000 C   0  0  0  0  0  0  0  0  0  0  0  0
   -0.3984   -2.1500    0.0000 C   0  0  0  0  0  0  0  0  0  0  0  0
    0.1536   -2.7631    0.0000 N   0  0  0  0  0  0  0  0  0  0  0  0
   -0.1435   -1.3654    0.0000 N   0  0  0  0  0  0  0  0  0  0  0  0
    0.6411   -1.1104    0.0000 C   0  0  0  0  0  0  0  0  0  0  0  0
    0.6411   -0.2854    0.0000 C   0  0  0  0  0  0  0  0  0  0  0  0
    1.3556    0.1271    0.0000 C   0  0  0  0  0  0  0  0  0  0  0  0
    2.0701   -0.2854    0.0000 N   0  0  0  0  0  0  0  0  0  0  0  0
    2.0701   -1.1104    0.0000 C   0  0  0  0  0  0  0  0  0  0  0  0
    1.3556   -1.5229    0.0000 N   0  0  0  0  0  0  0  0  0  0  0  0
    2.7845   -1.5229    0.0000 N   0  0  0  0  0  0  0  0  0  0  0  0
    2.7845   -2.3479    0.0000 C   0  0  0  0  0  0  0  0  0  0  0  0
    3.4990   -2.7604    0.0000 C   0  0  0  0  0  0  0  0  0  0  0  0
    3.4990   -3.5854    0.0000 C   0  0  0  0  0  0  0  0  0  0  0  0
    2.7845   -3.9979    0.0000 C   0  0  0  0  0  0  0  0  0  0  0  0
    2.0701   -3.5854    0.0000 C   0  0  0  0  0  0  0  0  0  0  0  0
    2.0701   -2.7604    0.0000 C   0  0  0  0  0  0  0  0  0  0  0  0
    2.7845   -4.8229    0.0000 N   0  0  0  0  0  0  0  0  0  0  0  0
    3.4990   -5.2354    0.0000 C   0  0  0  0  0  0  0  0  0  0  0  0
    3.4990   -6.0604    0.0000 C   0  0  0  0  0  0  0  0  0  0  0  0
    2.7845   -6.4729    0.0000 N   0  0  0  0  0  0  0  0  0  0  0  0
    2.0701   -6.0604    0.0000 C   0  0  0  0  0  0  0  0  0  0  0  0
    2.0701   -5.2354    0.0000 C   0  0  0  0  0  0  0  0  0  0  0  0
    2.7845   -7.2979    0.0000 C   0  0  0  0  0  0  0  0  0  0  0  0
   -0.1435   -0.0305    0.0000 C   0  0  0  0  0  0  0  0  0  0  0  0
   -0.3984    0.7541    0.0000 O   0  0  0  0  0  0  0  0  0  0  0  0
   -0.6284   -0.6979    0.0000 N   0  0  0  0  0  0  0  0  0  0  0  0
   -1.4534   -0.6979    0.0000 C   0  0  0  0  0  0  0  0  0  0  0  0
   -1.8659   -1.4124    0.0000 C   0  0  0  0  0  0  0  0  0  0  0  0
   -2.6909   -1.4124    0.0000 C   0  0  0  0  0  0  0  0  0  0  0  0
   -0.1624   -4.7128    0.0000 O   0  0  0  0  0  0  0  0  0  0  0  0
  1  2  1  0
  2  3  1  0
  2  4  1  0
  2 37  1  0
  4  5  2  0
  4  9  1  0
  5  6  1  0
  6  7  2  0
  7  8  1  0
  8  9  2  0
  8 10  1  0
 10 11  1  0
 10 33  1  0
 11 12  1  0
 11 16  2  0
 12 13  2  0
 12 31  1  0
 13 14  1  0
 14 15  2  0
 15 16  1  0
 15 17  1  0
 17 18  1  0
 18 19  2  0
 18 23  1  0
 19 20  1  0
 20 21  2  0
 21 22  1  0
 21 24  1  0
 22 23  2  0
 24 25  1  0
 24 29  1  0
 25 26  1  0
 26 27  1  0
 27 28  1  0
 27 30  1  0
 28 29  1  0
 31 32  2  0
 31 33  1  0
 33 34  1  0
 34 35  1  0
 35 36  2  0
M  END
>  <DRUGBANK_ID>  (1) 
DB11740

>  <COMMON_NAME>  (1) 
Adavosertib

>  <CAS_NUMBER>  (1) 
955365-80-7

>  <UNII>  (1) 
K2T6HJX3I3

$$$$
