
     RDKit          2D

 25 26  0  0  0  0  0  0  0  0999 V2000
    0.0002   -0.4125    0.0000 C   0  0  0  0  0  0  0  0  0  0  0  0
    0.0002    0.4125    0.0000 C   0  0  0  0  0  0  0  0  0  0  0  0
    0.7147    0.8249    0.0000 C   0  0  0  0  0  0  0  0  0  0  0  0
    0.7147    1.6500    0.0000 C   0  0  0  0  0  0  0  0  0  0  0  0
    0.0002    2.0625    0.0000 C   0  0  0  0  0  0  0  0  0  0  0  0
   -0.7142    1.6500    0.0000 C   0  0  0  0  0  0  0  0  0  0  0  0
   -0.7142    0.8249    0.0000 C   0  0  0  0  0  0  0  0  0  0  0  0
   -0.7142   -0.8250    0.0000 C   0  0  0  0  0  0  0  0  0  0  0  0
   -0.7142   -1.6500    0.0000 C   0  0  0  0  0  0  0  0  0  0  0  0
    0.0002   -2.0625    0.0000 O   0  0  0  0  0  0  0  0  0  0  0  0
   -1.4287   -2.0625    0.0000 C   0  0  0  0  0  0  0  0  0  0  0  0
   -2.1431   -1.6500    0.0000 C   0  0  0  0  0  0  0  0  0  0  0  0
   -2.1431   -0.8250    0.0000 C   0  0  0  0  0  0  0  0  0  0  0  0
   -2.8576   -0.4125    0.0000 C   0  0  0  0  0  0  0  0  0  0  0  0
   -3.5721   -0.8250    0.0000 O   0  0  0  0  0  0  0  0  0  0  0  0
   -1.4287   -0.4125    0.0000 C   0  0  0  0  0  0  0  0  0  0  0  0
    0.8172   -0.8250    0.0000 C   0  0  0  0  0  0  0  0  0  0  0  0
    1.4218   -0.4000    0.0000 C   0  0  0  0  0  0  0  0  0  0  0  0
    2.1434   -0.8001    0.0000 N   0  0  0  0  0  0  0  0  0  0  0  0
    2.1577   -1.6249    0.0000 C   0  0  0  0  0  0  0  0  0  0  0  0
    2.8793   -2.0248    0.0000 C   0  0  0  0  0  0  0  0  0  0  0  0
    1.4506   -2.0498    0.0000 C   0  0  0  0  0  0  0  0  0  0  0  0
    2.8506   -0.3752    0.0000 C   0  0  0  0  0  0  0  0  0  0  0  0
    2.8361    0.4496    0.0000 C   0  0  0  0  0  0  0  0  0  0  0  0
    3.5721   -0.7752    0.0000 C   0  0  0  0  0  0  0  0  0  0  0  0
  1  2  1  0
  1  8  1  0
  1 17  1  1
  2  3  2  0
  2  7  1  0
  3  4  1  0
  4  5  2  0
  6  5  1  0
  7  6  2  0
  8  9  2  0
  8 16  1  0
  9 10  1  0
  9 11  1  0
 11 12  2  0
 13 12  1  0
 13 14  1  0
 14 15  1  0
 16 13  2  0
 17 18  1  0
 18 19  1  0
 19 20  1  0
 19 23  1  0
 20 21  1  0
 20 22  1  0
 23 24  1  0
 23 25  1  0
M  END
>  <DRUGBANK_ID>  (1) 
DB15578

>  <COMMON_NAME>  (1) 
Desfesoterodine

>  <CAS_NUMBER>  (1) 
207679-81-0

>  <UNII>  (1) 
YU871O78GR

>  <SYNONYMS>  (1) 
5-Hydroxymethyltolterodine; Desfesoterodine

$$$$
