ALR
     RDKit          2D

 19 21  0  0  0  0  0  0  0  0999 V2000
   -0.2498   -0.8256    0.0000 C   0  0  0  0  0  0  0  0  0  0  0  0
    0.4646    0.4119    0.0000 C   0  0  0  0  0  0  0  0  0  0  0  0
   -0.2498    0.8244    0.0000 C   0  0  0  0  0  0  0  0  0  0  0  0
   -0.9643   -0.4131    0.0000 C   0  0  0  0  0  0  0  0  0  0  0  0
   -0.2498    1.6494    0.0000 O   0  0  0  0  0  0  0  0  0  0  0  0
   -1.6788   -0.8256    0.0000 O   0  0  0  0  0  0  0  0  0  0  0  0
   -1.6788    0.8244    0.0000 C   0  0  0  0  0  0  0  0  0  0  0  0
    0.4646   -0.4131    0.0000 C   0  0  0  0  0  0  0  0  0  0  0  0
    1.1791   -0.8256    0.0000 C   0  0  0  0  0  0  0  0  0  0  0  0
    1.8936   -0.4131    0.0000 C   0  0  0  0  0  0  0  0  0  0  0  0
    1.8936    0.4119    0.0000 C   0  0  0  0  0  0  0  0  0  0  0  0
    1.1791    0.8244    0.0000 C   0  0  0  0  0  0  0  0  0  0  0  0
   -0.2498   -1.6506    0.0000 C   0  0  0  0  0  0  0  0  0  0  0  0
    0.4646   -2.0631    0.0000 C   0  0  0  0  0  0  0  0  0  0  0  0
    1.1791   -1.6506    0.0000 C   0  0  0  0  0  0  0  0  0  0  0  0
   -0.9643    0.4119    0.0000 N   0  0  0  0  0  0  0  0  0  0  0  0
   -1.6788    1.6494    0.0000 C   0  0  0  0  0  0  0  0  0  0  0  0
   -2.3932    2.0619    0.0000 O   0  0  0  0  0  0  0  0  0  0  0  0
   -0.9643    2.0619    0.0000 O   0  0  0  0  0  0  0  0  0  0  0  0
  1  4  1  0
  1  8  2  0
  1 13  1  0
  2  3  1  0
  2  8  1  0
  2 12  2  0
  3  5  2  0
  3 16  1  0
  4  6  2  0
  4 16  1  0
  7 16  1  0
  7 17  1  0
  8  9  1  0
  9 10  1  0
  9 15  2  0
 10 11  2  0
 11 12  1  0
 13 14  2  0
 14 15  1  0
 17 18  2  0
 17 19  1  0
M  END
>  <DRUGBANK_ID>  (1) 
DB02020

>  <SECONDARY_ACCESSION_NUMBERS>  (1) 
EXPT00502

>  <COMMON_NAME>  (1) 
Alrestatin

>  <CAS_NUMBER>  (1) 
51411-04-2

>  <UNII>  (1) 
515DHK15LG

>  <SYNONYMS>  (1) 
Alrestatin

$$$$
