
     RDKit          2D

  7  6  0  0  0  0  0  0  0  0999 V2000
    0.5230    1.1270    0.0000 C   0  0  0  0  0  0  0  0  0  0  0  0
    1.2375    0.7145    0.0000 C   0  0  0  0  0  0  0  0  0  0  0  0
    1.9520    1.1270    0.0000 O   0  0  0  0  0  0  0  0  0  0  0  0
    2.6664    0.7145    0.0000 N   0  0  0  0  0  0  0  0  0  0  0  0
    3.3809    1.1270    0.0000 O   0  0  0  0  0  0  0  0  0  0  0  0
    2.6664   -0.1105    0.0000 O   0  0  0  0  0  0  0  0  0  0  0  0
   -0.1914    0.7145    0.0000 N   0  0  0  0  0  0  0  0  0  0  0  0
  1  2  1  0
  1  7  1  0
  2  3  1  0
  3  4  1  0
  4  5  2  0
  4  6  1  0
M  CHG  2   4   1   6  -1
M  END
>  <DRUGBANK_ID>  (1) 
DB13585

>  <COMMON_NAME>  (1) 
Aminoethyl nitrate

>  <CAS_NUMBER>  (1) 
646-02-6

>  <UNII>  (1) 
S1IA7R2J48

>  <SYNONYMS>  (1) 
2-aminoethyl nitrate; Aminoethyl nitrate; Itramin

$$$$
