
     RDKit          2D

 17 18  0  0  0  0  0  0  0  0999 V2000
   -1.6795    1.0313    0.0000 C   0  0  0  0  0  0  0  0  0  0  0  0
   -2.3939    0.6188    0.0000 C   0  0  0  0  0  0  0  0  0  0  0  0
   -2.3939   -0.2063    0.0000 C   0  0  0  0  0  0  0  0  0  0  0  0
   -1.6795   -0.6188    0.0000 C   0  0  0  0  0  0  0  0  0  0  0  0
   -0.9650   -0.2063    0.0000 C   0  0  0  0  0  0  0  0  0  0  0  0
   -0.9650    0.6188    0.0000 C   0  0  0  0  0  0  0  0  0  0  0  0
   -0.2505    1.0313    0.0000 C   0  0  0  0  0  0  0  0  0  0  0  0
   -0.2505   -0.6188    0.0000 C   0  0  0  0  0  0  0  0  0  0  0  0
    0.4639   -0.2063    0.0000 C   0  0  0  0  0  0  0  0  0  0  0  0
    0.4639    0.6188    0.0000 C   0  0  0  0  0  0  0  0  0  0  0  0
    1.1784    1.0313    0.0000 C   0  0  0  0  0  0  0  0  0  0  0  0
    1.8929    0.6188    0.0000 C   0  0  0  0  0  0  0  0  0  0  0  0
    1.8929   -0.2062    0.0000 O   0  0  0  0  0  0  0  0  0  0  0  0
    2.6073    1.0313    0.0000 O   0  0  0  0  0  0  0  0  0  0  0  0
    1.1784    1.8563    0.0000 C   0  0  0  0  0  0  0  0  0  0  0  0
   -3.1084   -0.6188    0.0000 O   0  0  0  0  0  0  0  0  0  0  0  0
   -3.1084   -1.4438    0.0000 C   0  0  0  0  0  0  0  0  0  0  0  0
  1  2  2  0
  1  6  1  0
  2  3  1  0
  3  4  2  0
  3 16  1  0
  4  5  1  0
  5  6  2  0
  5  8  1  0
  7  6  1  0
  7 10  2  0
  8  9  2  0
  9 10  1  0
 10 11  1  0
 11 12  1  0
 11 15  1  6
 12 13  2  0
 12 14  1  0
 16 17  1  0
M  END
>  <DRUGBANK_ID>  (1) 
DB00788

>  <SECONDARY_ACCESSION_NUMBERS>  (1) 
APRD01135; DB08298

>  <COMMON_NAME>  (1) 
Naproxen

>  <CAS_NUMBER>  (1) 
22204-53-1

>  <UNII>  (1) 
57Y76R9ATQ

>  <SYNONYMS>  (1) 
(+)-(S)-6-Methoxy-α-methyl-2-naphthaleneacetic acid; (+)-(S)-Naproxen; (+)-2-(6-Methoxy-2-naphthyl)propionic acid; (+)-2-(Methoxy-2-naphthyl)-propionic acid; (+)-2-(Methoxy-2-naphthyl)-propionsäure; (+)-Naproxen; (S)-(+)-2-(6-Methoxy-2-naphthyl)propionic acid; (S)-(+)-Naproxen; (S)-2-(6-Methoxy-2-naphthyl)propanoic acid; (S)-2-(6-Methoxy-2-naphthyl)propionic acid; (S)-6-Methoxy-alpha-methyl-2-naphthaleneacetic acid; (S)-Naproxen; Naprolag; Naproxen; Naproxène; Naproxeno; Naproxenum

$$$$
