B32
     RDKit          2D

 32 34  0  0  0  0  0  0  0  0999 V2000
    7.5269    0.2947    0.0000 C   0  0  0  0  0  0  0  0  0  0  0  0
    6.8124   -0.1178    0.0000 C   0  0  0  0  0  0  0  0  0  0  0  0
    6.0980    0.2947    0.0000 C   0  0  0  0  0  0  0  0  0  0  0  0
    5.3835   -0.1178    0.0000 C   0  0  0  0  0  0  0  0  0  0  0  0
    4.6690    0.2947    0.0000 C   0  0  0  0  0  0  0  0  0  0  0  0
    3.9545   -0.1178    0.0000 C   0  0  0  0  0  0  0  0  0  0  0  0
    3.2401    0.2947    0.0000 C   0  0  0  0  0  0  0  0  0  0  0  0
    2.5256   -0.1178    0.0000 C   0  0  0  0  0  0  0  0  0  0  0  0
    1.8111    0.2947    0.0000 N   0  0  0  0  0  0  0  0  0  0  0  0
    1.0967   -0.1178    0.0000 C   0  0  0  0  0  0  0  0  0  0  0  0
    0.3822    0.2947    0.0000 C   0  0  0  0  0  0  0  0  0  0  0  0
   -0.3323   -0.1178    0.0000 S   0  0  0  0  0  0  0  0  0  0  0  0
   -1.0468    0.2947    0.0000 C   0  0  0  0  0  0  0  0  0  0  0  0
   -1.7612   -0.1178    0.0000 C   0  0  0  0  0  0  0  0  0  0  0  0
   -2.5149    0.2178    0.0000 O   0  0  0  0  0  0  0  0  0  0  0  0
   -1.8475   -0.9383    0.0000 C   0  0  0  0  0  0  0  0  0  0  0  0
   -1.2344   -1.4903    0.0000 O   0  0  0  0  0  0  0  0  0  0  0  0
   -2.6544   -1.1098    0.0000 C   0  0  0  0  0  0  0  0  0  0  0  0
   -2.9900   -1.8635    0.0000 O   0  0  0  0  0  0  0  0  0  0  0  0
   -3.0669   -0.3953    0.0000 C   0  0  0  0  0  0  0  0  0  0  0  0
   -3.8874   -0.3091    0.0000 N   0  0  0  0  0  0  0  0  0  0  0  0
   -4.4394   -0.9222    0.0000 C   0  0  0  0  0  0  0  0  0  0  0  0
   -5.1931   -0.5866    0.0000 N   0  0  0  0  0  0  0  0  0  0  0  0
   -5.1069    0.2338    0.0000 C   0  0  0  0  0  0  0  0  0  0  0  0
   -4.2999    0.4054    0.0000 C   0  0  0  0  0  0  0  0  0  0  0  0
   -4.0450    1.1900    0.0000 N   0  0  0  0  0  0  0  0  0  0  0  0
   -4.5970    1.8031    0.0000 C   0  0  0  0  0  0  0  0  0  0  0  0
   -5.4040    1.6316    0.0000 N   0  0  0  0  0  0  0  0  0  0  0  0
   -5.6589    0.8469    0.0000 C   0  0  0  0  0  0  0  0  0  0  0  0
   -6.4659    0.6754    0.0000 N   0  0  0  0  0  0  0  0  0  0  0  0
    8.9558    0.2947    0.0000 C   0  0  0  0  0  0  0  0  0  0  0  0
    8.2414   -0.1178    0.0000 C   0  0  0  0  0  0  0  0  0  0  0  0
  1  2  1  0
  1 32  1  0
  2  3  1  0
  3  4  1  0
  4  5  1  0
  5  6  1  0
  6  7  1  0
  7  8  1  0
  8  9  1  0
  9 10  1  0
 10 11  1  0
 11 12  1  0
 13 12  1  0
 14 13  1  6
 14 16  1  0
 15 14  1  0
 15 20  1  0
 16 18  1  0
 16 17  1  1
 18 19  1  1
 20 18  1  0
 20 21  1  6
 21 25  1  0
 22 21  1  0
 23 22  2  0
 23 24  1  0
 24 29  1  0
 24 25  2  0
 25 26  1  0
 26 27  2  0
 28 27  1  0
 29 28  2  0
 30 29  1  0
 31 32  1  0
M  END
>  <DRUGBANK_ID>  (1) 
DB07413

>  <COMMON_NAME>  (1) 
5'-S-[2-(decylamino)ethyl]-5'-thioadenosine

$$$$
