
     RDKit          2D

 31 33  0  0  0  0  0  0  0  0999 V2000
    0.4164   -0.3087    0.0000 O   0  0  0  0  0  0  0  0  0  0  0  0
    0.4230    0.5162    0.0000 C   0  0  0  0  0  0  0  0  0  0  0  0
   -0.2882    0.9342    0.0000 C   0  0  0  0  0  0  0  0  0  0  0  0
    1.1406    0.9230    0.0000 C   0  0  0  0  0  0  0  0  0  0  0  0
   -0.2817    1.7593    0.0000 C   0  0  0  0  0  0  0  0  0  0  0  0
    1.1471    1.7479    0.0000 C   0  0  0  0  0  0  0  0  0  0  0  0
    0.4359    2.1661    0.0000 C   0  0  0  0  0  0  0  0  0  0  0  0
    1.8518    0.5048    0.0000 O   0  0  0  0  0  0  0  0  0  0  0  0
    1.8648    2.1549    0.0000 N   0  0  0  0  0  0  0  0  0  0  0  0
   -0.9930    2.1773    0.0000 N   0  0  0  0  0  0  0  0  0  0  0  0
   -1.0035    0.5231    0.0000 O   0  0  0  0  0  0  0  0  0  0  0  0
   -1.7144    0.1044    0.0000 C   0  0  0  0  0  0  0  0  0  0  0  0
   -1.7072   -0.7205    0.0000 C   0  0  0  0  0  0  0  0  0  0  0  0
   -2.4324    0.5105    0.0000 O   0  0  0  0  0  0  0  0  0  0  0  0
   -2.4179   -1.1393    0.0000 C   0  0  0  0  0  0  0  0  0  0  0  0
   -3.1433    0.0917    0.0000 C   0  0  0  0  0  0  0  0  0  0  0  0
   -3.1361   -0.7331    0.0000 C   0  0  0  0  0  0  0  0  0  0  0  0
   -3.8614    0.4980    0.0000 C   0  0  0  0  0  0  0  0  0  0  0  0
   -3.8685    1.3230    0.0000 N   0  0  0  0  0  0  0  0  0  0  0  0
   -3.8469   -1.1519    0.0000 O   0  0  0  0  0  0  0  0  0  0  0  0
   -2.4107   -1.9642    0.0000 O   0  0  0  0  0  0  0  0  0  0  0  0
   -0.9892   -1.1267    0.0000 N   0  0  0  0  0  0  0  0  0  0  0  0
    1.1359   -0.7252    0.0000 C   0  0  0  0  0  0  0  0  0  0  0  0
    2.4708   -0.7252    0.0000 C   0  0  0  0  0  0  0  0  0  0  0  0
    1.8034   -0.2402    0.0000 O   0  0  0  0  0  0  0  0  0  0  0  0
    2.2159   -1.5099    0.0000 C   0  0  0  0  0  0  0  0  0  0  0  0
    1.3909   -1.5099    0.0000 C   0  0  0  0  0  0  0  0  0  0  0  0
    0.9059   -2.1772    0.0000 O   0  0  0  0  0  0  0  0  0  0  0  0
    2.7008   -2.1773    0.0000 O   0  0  0  0  0  0  0  0  0  0  0  0
    3.2555   -0.4702    0.0000 C   0  0  0  0  0  0  0  0  0  0  0  0
    3.8685   -1.0222    0.0000 O   0  0  0  0  0  0  0  0  0  0  0  0
 23  1  1  6
  2  1  1  1
  3  2  1  0
  3 11  1  6
  4  2  1  0
  4  8  1  6
  5  3  1  0
  5 10  1  1
  6  4  1  0
  6  9  1  1
  7  5  1  0
  7  6  1  0
 12 11  1  6
 13 12  1  0
 13 22  1  6
 14 12  1  0
 15 13  1  0
 15 21  1  1
 16 14  1  0
 16 18  1  1
 17 15  1  0
 17 16  1  0
 17 20  1  6
 19 18  1  0
 23 25  1  0
 24 30  1  6
 25 24  1  0
 26 24  1  0
 26 29  1  1
 27 26  1  0
 27 23  1  0
 27 28  1  1
 31 30  1  0
M  END
>  <DRUGBANK_ID>  (1) 
DB03615

>  <SECONDARY_ACCESSION_NUMBERS>  (1) 
EXPT02786

>  <COMMON_NAME>  (1) 
Ribostamycin

>  <CAS_NUMBER>  (1) 
25546-65-0

>  <UNII>  (1) 
2Q5JOU7T53

>  <SYNONYMS>  (1) 
Ribostamicina; Ribostamycin; Ribostamycin A; Ribostamycine; Ribostamycinum; Vistamycin

$$$$
