HI5
     RDKit          2D

 21 20  0  0  0  0  0  0  0  0999 V2000
    0.7896   -1.4121    0.0000 P   0  0  0  0  0  0  0  0  0  0  0  0
    1.2745   -2.0796    0.0000 O   0  0  0  0  0  0  0  0  0  0  0  0
    1.5742   -1.1572    0.0000 O   0  0  0  0  0  0  0  0  0  0  0  0
    0.7896   -0.5871    0.0000 O   0  0  0  0  0  0  0  0  0  0  0  0
    0.3046   -2.0796    0.0000 O   0  0  0  0  0  0  0  0  0  0  0  0
    0.0049   -1.1572    0.0000 O   0  0  0  0  0  0  0  0  0  0  0  0
    0.0751   -0.1746    0.0000 C   0  0  0  0  0  0  0  0  0  0  0  0
    0.0751    0.6504    0.0000 C   0  0  0  0  0  0  0  0  0  0  0  0
   -0.6394    1.0629    0.0000 C   0  0  0  0  0  0  0  0  0  0  0  0
   -1.3539    0.6504    0.0000 O   0  0  0  0  0  0  0  0  0  0  0  0
   -2.0683    1.0629    0.0000 C   0  0  0  0  0  0  0  0  0  0  0  0
   -2.0683    1.8879    0.0000 O   0  0  0  0  0  0  0  0  0  0  0  0
   -2.7828    0.6504    0.0000 C   0  0  0  0  0  0  0  0  0  0  0  0
   -3.4973    1.0629    0.0000 C   0  0  0  0  0  0  0  0  0  0  0  0
   -4.2117    0.6504    0.0000 C   0  0  0  0  0  0  0  0  0  0  0  0
    0.7896    1.0629    0.0000 O   0  0  0  0  0  0  0  0  0  0  0  0
    1.5040    0.6504    0.0000 C   0  0  0  0  0  0  0  0  0  0  0  0
    2.2185    1.0629    0.0000 C   0  0  0  0  0  0  0  0  0  0  0  0
    2.9330    0.6504    0.0000 C   0  0  0  0  0  0  0  0  0  0  0  0
    3.6474    1.0629    0.0000 C   0  0  0  0  0  0  0  0  0  0  0  0
    1.5040   -0.1746    0.0000 O   0  0  0  0  0  0  0  0  0  0  0  0
  1  2  1  0
  1  3  1  0
  1  4  1  0
  1  5  1  0
  1  6  1  0
  4  7  1  0
  8  7  1  1
  8  9  1  0
  8 16  1  0
  9 10  1  0
 10 11  1  0
 11 12  2  0
 11 13  1  0
 13 14  1  0
 14 15  1  0
 16 17  1  0
 17 18  1  0
 17 21  2  0
 18 19  1  0
 19 20  1  0
M  END
>  <DRUGBANK_ID>  (1) 
DB07898

>  <COMMON_NAME>  (1) 
(2R)-3-[(tetrahydroxyphosphoranyl)oxy]-1,2-propanediyl dibutanoate

>  <SYNONYMS>  (1) 
2-(butyryloxy)-1-{[(tetrahydroxyphosphoranyl)oxy]methyl}ethyl butyrate

$$$$
