
     RDKit          2D

 23 24  0  0  0  0  0  0  0  0999 V2000
    6.4302   -0.4125    0.0000 C   0  0  0  0  0  0  0  0  0  0  0  0
    3.5724   -2.0625    0.0000 C   0  0  0  0  0  0  0  0  0  0  0  0
    2.8579   -0.8250    0.0000 C   0  0  0  0  0  0  0  0  0  0  0  0
   10.0026   -0.8250    0.0000 C   0  0  0  0  0  0  0  0  0  0  0  0
    9.2881   -2.0625    0.0000 C   0  0  0  0  0  0  0  0  0  0  0  0
    4.2868   -1.6500    0.0000 C   0  0  0  0  0  0  0  0  0  0  0  0
    3.5724   -0.4125    0.0000 C   0  0  0  0  0  0  0  0  0  0  0  0
    9.2881   -0.4125    0.0000 C   0  0  0  0  0  0  0  0  0  0  0  0
    8.5737   -1.6500    0.0000 C   0  0  0  0  0  0  0  0  0  0  0  0
    5.7158   -0.8250    0.0000 C   0  0  0  0  0  0  0  0  0  0  0  0
    7.1447   -0.8250    0.0000 C   0  0  0  0  0  0  0  0  0  0  0  0
    2.8579   -1.6500    0.0000 C   0  0  0  0  0  0  0  0  0  0  0  0
   10.0026   -1.6500    0.0000 C   0  0  0  0  0  0  0  0  0  0  0  0
    4.2868   -0.8250    0.0000 C   0  0  0  0  0  0  0  0  0  0  0  0
    8.5737   -0.8250    0.0000 C   0  0  0  0  0  0  0  0  0  0  0  0
    2.1434   -2.0625    0.0000 C   0  0  0  0  0  0  0  0  0  0  0  0
   10.7171   -2.0625    0.0000 C   0  0  0  0  0  0  0  0  0  0  0  0
    1.4289   -1.6500    0.0000 N   0  0  0  0  0  0  0  0  0  0  0  0
    2.1434   -2.8875    0.0000 N   0  0  0  0  0  0  0  0  0  0  0  0
   11.4315   -1.6500    0.0000 N   0  0  0  0  0  0  0  0  0  0  0  0
   10.7171   -2.8875    0.0000 N   0  0  0  0  0  0  0  0  0  0  0  0
    5.0013   -0.4125    0.0000 O   0  0  0  0  0  0  0  0  0  0  0  0
    7.8592   -0.4125    0.0000 O   0  0  0  0  0  0  0  0  0  0  0  0
  6  2  2  0
  7  3  1  0
  8  4  2  0
  9  5  1  0
 10  1  1  0
 11  1  1  0
 12  2  1  0
 12  3  2  0
 13  4  1  0
 13  5  2  0
 14  6  1  0
 14  7  2  0
 15  8  1  0
 15  9  2  0
 16 12  1  0
 17 13  1  0
 18 16  1  0
 19 16  2  0
 20 17  1  0
 21 17  2  0
 22 10  1  0
 22 14  1  0
 23 11  1  0
 23 15  1  0
M  END
>  <DRUGBANK_ID>  (1) 
DB13296

>  <COMMON_NAME>  (1) 
Propamidine

>  <CAS_NUMBER>  (1) 
104-32-5

>  <UNII>  (1) 
G20G12V769

>  <SYNONYMS>  (1) 
propamidina; Propamidine

$$$$
