6BD
     RDKit          2D

 21 23  0  0  0  0  0  0  0  0999 V2000
   -1.3223   -0.6673    0.0000 C   0  0  0  0  0  0  0  0  0  0  0  0
   -1.5772   -1.4519    0.0000 C   0  0  0  0  0  0  0  0  0  0  0  0
   -2.3842   -1.6234    0.0000 C   0  0  0  0  0  0  0  0  0  0  0  0
   -2.9362   -1.0103    0.0000 C   0  0  0  0  0  0  0  0  0  0  0  0
   -2.6813   -0.2257    0.0000 C   0  0  0  0  0  0  0  0  0  0  0  0
   -1.8743   -0.0542    0.0000 C   0  0  0  0  0  0  0  0  0  0  0  0
   -1.4618    0.6603    0.0000 C   0  0  0  0  0  0  0  0  0  0  0  0
   -1.7168    1.4449    0.0000 C   0  0  0  0  0  0  0  0  0  0  0  0
   -1.1647    2.0580    0.0000 C   0  0  0  0  0  0  0  0  0  0  0  0
   -0.3578    1.8865    0.0000 C   0  0  0  0  0  0  0  0  0  0  0  0
   -0.1028    1.1018    0.0000 C   0  0  0  0  0  0  0  0  0  0  0  0
   -0.6548    0.4888    0.0000 C   0  0  0  0  0  0  0  0  0  0  0  0
   -0.5686   -0.3317    0.0000 C   0  0  0  0  0  0  0  0  0  0  0  0
    0.1459   -0.7442    0.0000 N   0  0  0  0  0  0  0  0  0  0  0  0
    0.8603   -0.3317    0.0000 O   0  0  0  0  0  0  0  0  0  0  0  0
    1.5748   -0.7442    0.0000 C   0  0  0  0  0  0  0  0  0  0  0  0
    2.2893   -0.3317    0.0000 C   0  0  0  0  0  0  0  0  0  0  0  0
    2.2893    0.4933    0.0000 C   0  0  0  0  0  0  0  0  0  0  0  0
    3.0037   -0.7442    0.0000 C   0  0  0  0  0  0  0  0  0  0  0  0
    3.7182   -0.3317    0.0000 O   0  0  0  0  0  0  0  0  0  0  0  0
    3.0037   -1.5692    0.0000 O   0  0  0  0  0  0  0  0  0  0  0  0
  1  6  1  0
  2  1  2  0
  2  3  1  0
  3  4  2  0
  4  5  1  0
  6  5  2  0
  7  6  1  0
  7  8  2  0
  9  8  1  0
 10  9  2  0
 11 10  1  0
 11 12  2  0
 12  7  1  0
 13  1  1  0
 13 12  1  0
 14 13  2  3
 15 14  1  0
 16 15  1  0
 17 16  1  0
 17 19  1  0
 17 18  1  6
 19 21  1  0
 20 19  2  0
M  END
>  <DRUGBANK_ID>  (1) 
DB07201

>  <COMMON_NAME>  (1) 
(2S)-3-[(9H-fluoren-9-ylideneamino)oxy]-2-methylpropanoic acid

$$$$
