
     RDKit          2D

 41 44  0  0  1  0  0  0  0  0999 V2000
    6.2029   -2.3427    0.0000 C   0  0  0  0  0  0  0  0  0  0  0  0
    5.7904   -1.6282    0.0000 N   0  0  0  0  0  0  0  0  0  0  0  0
    6.2029   -0.9137    0.0000 C   0  0  0  0  0  0  0  0  0  0  0  0
    5.7904   -0.1993    0.0000 C   0  0  0  0  0  0  0  0  0  0  0  0
    6.2029    0.5152    0.0000 C   0  0  0  0  0  0  0  0  0  0  0  0
    5.7904    1.2297    0.0000 N   0  0  0  0  0  0  0  0  0  0  0  0
    4.9654    1.2297    0.0000 C   0  0  0  0  0  0  0  0  0  0  0  0
    4.5529    0.5152    0.0000 O   0  0  0  0  0  0  0  0  0  0  0  0
    4.5529    1.9441    0.0000 N   0  0  0  0  0  0  0  0  0  0  0  0
    3.7279    1.9441    0.0000 C   0  0  0  0  0  0  0  0  0  0  0  0
    3.3700    1.2008    0.0000 N   0  0  0  0  0  0  0  0  0  0  0  0
    2.5656    1.0173    0.0000 C   0  0  0  0  0  0  0  0  0  0  0  0
    2.3821    0.2130    0.0000 C   0  0  0  0  0  0  0  0  0  0  0  0
    2.9868   -0.3482    0.0000 N   0  0  0  0  0  0  0  0  0  0  0  0
    2.8032   -1.1525    0.0000 C   0  0  0  0  0  0  0  0  0  0  0  0
    2.0149   -1.3957    0.0000 C   0  0  0  0  0  0  0  0  0  0  0  0
    1.4101   -0.8345    0.0000 C   0  0  0  0  0  0  0  0  0  0  0  0
    1.5937   -0.0302    0.0000 C   0  0  0  0  0  0  0  0  0  0  0  0
    1.9206    1.5316    0.0000 C   0  0  0  0  0  0  0  0  0  0  0  0
    1.2062    1.1191    0.0000 C   0  0  0  0  0  0  0  0  0  0  0  0
    0.4917    1.5316    0.0000 C   0  0  0  0  0  0  0  0  0  0  0  0
    0.4917    2.3566    0.0000 C   0  0  0  0  0  0  0  0  0  0  0  0
    1.2062    2.7691    0.0000 C   0  0  0  0  0  0  0  0  0  0  0  0
    1.9206    2.3566    0.0000 C   0  0  0  0  0  0  0  0  0  0  0  0
    2.5656    2.8710    0.0000 N   0  0  0  0  0  0  0  0  0  0  0  0
    2.3821    3.6753    0.0000 C   0  0  0  0  0  0  0  0  0  0  0  0
    1.5937    3.9185    0.0000 C   0  0  0  0  0  0  0  0  0  0  0  0
    0.9889    3.3574    0.0000 O   0  0  0  0  0  0  0  0  0  0  0  0
    1.4101    4.7228    0.0000 C   0  0  0  0  0  0  0  0  0  0  0  0
    2.2144    4.9064    0.0000 C   0  0  0  0  0  0  0  0  0  0  0  0
    0.6058    4.5393    0.0000 C   0  0  0  0  0  0  0  0  0  0  0  0
    1.2265    5.5271    0.0000 C   0  0  0  0  0  0  0  0  0  0  0  0
    0.4382    5.7703    0.0000 O   0  0  0  0  0  0  0  0  0  0  0  0
    0.2546    6.5746    0.0000 C   0  0  0  0  0  0  0  0  0  0  0  0
   -0.5337    6.8178    0.0000 C   0  0  0  0  0  0  0  0  0  0  0  0
    0.8594    7.1358    0.0000 O   0  0  0  0  0  0  0  0  0  0  0  0
    3.3700    2.6874    0.0000 C   0  0  0  0  0  0  0  0  0  0  0  0
    3.8843    3.3325    0.0000 O   0  0  0  0  0  0  0  0  0  0  0  0
    7.0279    0.5152    0.0000 C   0  0  0  0  0  0  0  0  0  0  0  0
    7.4404   -0.1993    0.0000 C   0  0  0  0  0  0  0  0  0  0  0  0
    7.0279   -0.9137    0.0000 C   0  0  0  0  0  0  0  0  0  0  0  0
  1  2  1  0
  2  3  1  0
  3  4  2  0
  3 41  1  0
  4  5  1  0
  5  6  1  0
  5 39  2  0
  6  7  1  0
  7  8  2  0
  7  9  1  0
 10  9  1  6
 10 11  1  0
 10 37  1  0
 11 12  2  0
 12 13  1  0
 12 19  1  0
 13 14  2  0
 13 18  1  0
 14 15  1  0
 15 16  2  0
 16 17  1  0
 17 18  2  0
 19 20  1  0
 19 24  2  0
 20 21  2  0
 21 22  1  0
 22 23  2  0
 23 24  1  0
 24 25  1  0
 25 26  1  0
 25 37  1  0
 26 27  1  0
 27 28  2  0
 27 29  1  0
 29 30  1  0
 29 31  1  0
 29 32  1  0
 32 33  1  0
 33 34  1  0
 34 35  1  0
 34 36  2  0
 37 38  2  0
 39 40  1  0
 40 41  2  0
M  END
>  <DRUGBANK_ID>  (1) 
DB17270

>  <COMMON_NAME>  (1) 
Ceclazepide

>  <CAS_NUMBER>  (1) 
1801749-44-9

>  <UNII>  (1) 
99B5ZR9276

>  <SYNONYMS>  (1) 
(r)-1-(1-(4-acetoxy-3,3-dimethyl-2-oxo-butyl)-2-oxo-5-(pyridin-2-yl)-2,3-dihydro-1h-benzo(e)(1,4)diazepin-3-yl)-3-(3-methylamino-phenyl)-urea; Urea, n-((3r)-1-(4-(acetyloxy)-3,3-dimethyl-2-oxobutyl)-2,3-dihydro-2-oxo-5-(2-pyridinyl)-1h-1,4-benzodiazepin-3-yl)-n'-(3-(methylamino)phenyl)-

$$$$
