
     RDKit          2D

 22 23  0  0  0  0  0  0  0  0999 V2000
    0.1148    1.0679    0.0000 C   0  0  0  0  0  0  0  0  0  0  0  0
    0.1148    1.8929    0.0000 C   0  0  0  0  0  0  0  0  0  0  0  0
    0.8294    0.6554    0.0000 N   0  0  0  0  0  0  0  0  0  0  0  0
    1.5439    1.0679    0.0000 C   0  0  0  0  0  0  0  0  0  0  0  0
    1.5439    1.8929    0.0000 N   0  0  0  0  0  0  0  0  0  0  0  0
    0.8294    2.3054    0.0000 C   0  0  0  0  0  0  0  0  0  0  0  0
    0.8294   -0.1695    0.0000 C   0  0  0  0  0  0  0  0  0  0  0  0
    0.1620   -0.6544    0.0000 O   0  0  0  0  0  0  0  0  0  0  0  0
    0.4169   -1.4390    0.0000 C   0  0  0  0  0  0  0  0  0  0  0  0
    1.2419   -1.4390    0.0000 C   0  0  0  0  0  0  0  0  0  0  0  0
    2.2583    0.6554    0.0000 O   0  0  0  0  0  0  0  0  0  0  0  0
   -1.5794   -3.1304    0.0000 O   0  0  0  0  0  0  0  0  0  0  0  0
   -1.5794   -2.3054    0.0000 P   0  0  0  0  0  0  0  0  0  0  0  0
   -0.8648   -1.8929    0.0000 O   0  0  0  0  0  0  0  0  0  0  0  0
   -0.0679   -2.1064    0.0000 C   0  0  0  0  0  0  0  0  0  0  0  0
    1.4969   -0.6544    0.0000 C   0  0  0  0  0  0  0  0  0  0  0  0
    2.2938   -0.4409    0.0000 O   0  0  0  0  0  0  0  0  0  0  0  0
    0.8294    3.1304    0.0000 N   0  0  0  0  0  0  0  0  0  0  0  0
    1.7267   -2.1064    0.0000 O   0  0  0  0  0  0  0  0  0  0  0  0
   -2.2938   -1.8929    0.0000 O   0  0  0  0  0  0  0  0  0  0  0  0
   -0.5995    2.3054    0.0000 C   0  0  0  0  0  0  0  0  0  0  0  0
   -1.5794   -1.4804    0.0000 O   0  0  0  0  0  0  0  0  0  0  0  0
  1  2  2  0
  2  6  1  0
  2 21  1  0
  3  1  1  0
  3  4  1  0
  4 11  2  0
  4  5  1  0
  5  6  2  0
  6 18  1  0
  7  3  1  1
  7  8  1  0
  7 16  1  0
  8  9  1  0
  9 15  1  1
  9 10  1  0
 10 19  1  6
 13 12  2  0
 13 14  1  0
 13 22  1  0
 15 14  1  0
 16 10  1  0
 16 17  1  6
 20 13  1  0
M  END
>  <DRUGBANK_ID>  (1) 
DB01995

>  <SECONDARY_ACCESSION_NUMBERS>  (1) 
EXPT00251

>  <COMMON_NAME>  (1) 
5-methylcytidine 5'-monophosphate

>  <CAS_NUMBER>  (1) 
3590-36-1

>  <SYNONYMS>  (1) 
5-methyl-CMP; 5-methylcytidine-5'-monophosphate; 5-methylcytidylic acid

$$$$
