
     RDKit          2D

 24 26  0  0  0  0  0  0  0  0999 V2000
   -1.4787   -0.5291    0.0000 C   0  0  0  0  0  0  0  0  0  0  0  0
   -2.1964   -0.9424    0.0000 C   0  0  0  0  0  0  0  0  0  0  0  0
   -2.1964   -1.7687    0.0000 C   0  0  0  0  0  0  0  0  0  0  0  0
   -1.4787   -2.1818    0.0000 C   0  0  0  0  0  0  0  0  0  0  0  0
   -0.7683   -0.9424    0.0000 C   0  0  0  0  0  0  0  0  0  0  0  0
   -0.7683   -1.7687    0.0000 C   0  0  0  0  0  0  0  0  0  0  0  0
    0.5001   -1.3555    0.0000 C   0  0  0  0  0  0  0  0  0  0  0  0
    0.0145   -2.0223    0.0000 N   0  0  0  0  0  0  0  0  0  0  0  0
   -2.9067   -0.5291    0.0000 C   0  0  0  0  0  0  0  0  0  0  0  0
   -2.9067    0.2899    0.0000 N   0  0  0  0  0  0  0  0  0  0  0  0
   -3.6244   -0.9424    0.0000 N   0  0  0  0  0  0  0  0  0  0  0  0
    1.3265   -1.3555    0.0000 C   0  0  0  0  0  0  0  0  0  0  0  0
    2.9720   -1.3555    0.0000 C   0  0  0  0  0  0  0  0  0  0  0  0
    2.5661   -0.6450    0.0000 C   0  0  0  0  0  0  0  0  0  0  0  0
    1.7397   -0.6450    0.0000 C   0  0  0  0  0  0  0  0  0  0  0  0
    1.7397   -2.0731    0.0000 C   0  0  0  0  0  0  0  0  0  0  0  0
    2.5661   -2.0731    0.0000 C   0  0  0  0  0  0  0  0  0  0  0  0
    1.3265    0.0725    0.0000 O   0  0  0  0  0  0  0  0  0  0  0  0
    2.5661    0.7829    0.0000 C   0  0  0  0  0  0  0  0  0  0  0  0
    0.0145   -0.6886    0.0000 N   0  0  0  0  0  0  0  0  0  0  0  0
    2.9720    0.0725    0.0000 O   0  0  0  0  0  0  0  0  0  0  0  0
    2.8198    1.5729    0.0000 C   0  0  0  0  0  0  0  0  0  0  0  0
    2.2689    2.1818    0.0000 C   0  0  0  0  0  0  0  0  0  0  0  0
    3.6244    1.7397    0.0000 C   0  0  0  0  0  0  0  0  0  0  0  0
  1  2  2  0
  1  5  1  0
  2  3  1  0
  2  9  1  0
  3  4  2  0
  4  6  1  0
  5 20  1  0
  5  6  2  0
  6  8  1  0
  7 20  2  0
  7  8  1  0
  7 12  1  0
  9 11  1  0
  9 10  2  0
 12 15  2  0
 12 16  1  0
 13 14  2  0
 13 17  1  0
 14 15  1  0
 14 21  1  0
 15 18  1  0
 16 17  2  0
 19 21  1  0
 19 22  1  0
 22 23  1  0
 22 24  1  0
M  CHG  2  10   1  18  -1
M  END
>  <DRUGBANK_ID>  (1) 
DB04470

>  <SECONDARY_ACCESSION_NUMBERS>  (1) 
EXPT00271

>  <COMMON_NAME>  (1) 
CRA_10656

$$$$
