
     RDKit          2D

 35 37  0  0  1  0  0  0  0  0999 V2000
    2.4454    0.7145    0.0000 C   0  0  0  0  0  0  0  0  0  0  0  0
    2.8579    0.0000    0.0000 C   0  0  0  0  0  0  0  0  0  0  0  0
    3.6829    0.0000    0.0000 C   0  0  0  0  0  0  0  0  0  0  0  0
    4.0954   -0.7145    0.0000 C   0  0  0  0  0  0  0  0  0  0  0  0
    4.9204   -0.7145    0.0000 C   0  0  0  0  0  0  0  0  0  0  0  0
    5.3329   -1.4289    0.0000 O   0  0  0  0  0  0  0  0  0  0  0  0
    5.3329    0.0000    0.0000 N   0  0  0  0  0  0  0  0  0  0  0  0
    6.1579    0.0000    0.0000 C   0  0  0  0  0  0  0  0  0  0  0  0
    6.6428    0.6674    0.0000 C   0  0  0  0  0  0  0  0  0  0  0  0
    7.4274    0.4125    0.0000 N   0  0  0  0  0  0  0  0  0  0  0  0
    7.4274   -0.4125    0.0000 C   0  0  0  0  0  0  0  0  0  0  0  0
    6.6428   -0.6674    0.0000 N   0  0  0  0  0  0  0  0  0  0  0  0
    8.0949    0.8974    0.0000 C   0  0  0  0  0  0  0  0  0  0  0  0
    7.6099    1.5649    0.0000 C   0  0  0  0  0  0  0  0  0  0  0  0
    8.5798    0.2300    0.0000 C   0  0  0  0  0  0  0  0  0  0  0  0
    8.7623    1.3823    0.0000 C   0  0  0  0  0  0  0  0  0  0  0  0
    9.5160    1.0468    0.0000 N   0  0  0  0  0  0  0  0  0  0  0  0
   10.1834    1.5317    0.0000 C   0  0  0  0  0  0  0  0  0  0  0  0
   10.9371    1.1962    0.0000 C   0  0  0  0  0  0  0  0  0  0  0  0
   11.6908    0.8606    0.0000 C   0  0  0  0  0  0  0  0  0  0  0  0
   11.2727    1.9498    0.0000 C   0  0  0  0  0  0  0  0  0  0  0  0
   10.6015    0.4425    0.0000 C   0  0  0  0  0  0  0  0  0  0  0  0
    3.6829   -1.4289    0.0000 N   0  0  0  0  0  0  0  0  0  0  0  0
    2.8579   -1.4289    0.0000 C   0  0  0  0  0  0  0  0  0  0  0  0
    2.4454   -2.1434    0.0000 C   0  0  0  0  0  0  0  0  0  0  0  0
    1.6204   -2.1434    0.0000 C   0  0  0  0  0  0  0  0  0  0  0  0
    1.2079   -1.4289    0.0000 C   0  0  0  0  0  0  0  0  0  0  0  0
    0.3829   -1.4289    0.0000 C   0  0  0  0  0  0  0  0  0  0  0  0
   -0.0296   -0.7145    0.0000 C   0  0  0  0  0  0  0  0  0  0  0  0
    0.3829    0.0000    0.0000 C   0  0  0  0  0  0  0  0  0  0  0  0
    1.2079    0.0000    0.0000 C   0  0  0  0  0  0  0  0  0  0  0  0
    1.6204   -0.7145    0.0000 C   0  0  0  0  0  0  0  0  0  0  0  0
    2.4454   -0.7145    0.0000 C   0  0  0  0  0  0  0  0  0  0  0  0
    1.6204    0.7145    0.0000 F   0  0  0  0  0  0  0  0  0  0  0  0
   -0.8546   -0.7145    0.0000 F   0  0  0  0  0  0  0  0  0  0  0  0
  1  2  1  0
  2  3  1  0
  4  3  1  1
  4  5  1  0
  4 23  1  0
  5  6  2  0
  5  7  1  0
  7  8  1  0
  8  9  2  0
  8 12  1  0
  9 10  1  0
 10 11  1  0
 10 13  1  0
 11 12  2  0
 13 14  1  0
 13 15  1  0
 13 16  1  0
 16 17  1  0
 17 18  1  0
 18 19  1  0
 19 20  1  0
 19 21  1  0
 19 22  1  0
 24 23  1  1
 24 25  1  0
 24 33  1  0
 25 26  1  0
 26 27  1  0
 27 28  2  0
 27 32  1  0
 28 29  1  0
 29 30  2  0
 29 35  1  0
 30 31  1  0
 31 32  2  0
 31 34  1  0
 32 33  1  0
M  END
>  <DRUGBANK_ID>  (1) 
DB12005

>  <COMMON_NAME>  (1) 
Nirogacestat

>  <CAS_NUMBER>  (1) 
1290543-63-3

>  <UNII>  (1) 
QZ62892OFJ

>  <SYNONYMS>  (1) 
Nirogacestat

$$$$
