
     RDKit          2D

 23 24  0  0  0  0  0  0  0  0999 V2000
    0.0260   -0.2789    0.0000 C   0  0  0  0  0  0  0  0  0  0  0  0
    0.0121    0.5424    0.0000 C   0  0  0  0  0  0  0  0  0  0  0  0
    0.7433   -0.6740    0.0000 C   0  0  0  0  0  0  0  0  0  0  0  0
   -0.6739   -0.7052    0.0000 C   0  0  0  0  0  0  0  0  0  0  0  0
    0.7156    0.9685    0.0000 O   0  0  0  0  0  0  0  0  0  0  0  0
   -0.7120    0.9408    0.0000 C   0  0  0  0  0  0  0  0  0  0  0  0
    1.4468   -0.2546    0.0000 C   0  0  0  0  0  0  0  0  0  0  0  0
   -1.3947   -0.3170    0.0000 C   0  0  0  0  0  0  0  0  0  0  0  0
   -0.6531   -1.5299    0.0000 O   0  0  0  0  0  0  0  0  0  0  0  0
    1.4329    0.5666    0.0000 C   0  0  0  0  0  0  0  0  0  0  0  0
   -1.4155    0.5111    0.0000 C   0  0  0  0  0  0  0  0  0  0  0  0
    2.1399    0.9927    0.0000 C   0  0  0  0  0  0  0  0  0  0  0  0
    1.4329    1.5299    0.0000 C   0  0  0  0  0  0  0  0  0  0  0  0
   -2.1398    0.9061    0.0000 C   0  0  0  0  0  0  0  0  0  0  0  0
    2.8641    0.5908    0.0000 C   0  0  0  0  0  0  0  0  0  0  0  0
   -2.8468    0.4765    0.0000 C   0  0  0  0  0  0  0  0  0  0  0  0
    3.5711    1.0205    0.0000 C   0  0  0  0  0  0  0  0  0  0  0  0
   -3.5711    0.8716    0.0000 C   0  0  0  0  0  0  0  0  0  0  0  0
    4.2919    0.6151    0.0000 C   0  0  0  0  0  0  0  0  0  0  0  0
   -4.2745    0.4418    0.0000 C   0  0  0  0  0  0  0  0  0  0  0  0
    4.9987    1.0448    0.0000 C   0  0  0  0  0  0  0  0  0  0  0  0
    4.3057   -0.2096    0.0000 C   0  0  0  0  0  0  0  0  0  0  0  0
   -4.9987    0.8369    0.0000 C   0  0  0  0  0  0  0  0  0  0  0  0
  1  2  2  0
  1  3  1  0
  1  4  1  0
  2  5  1  0
  2  6  1  0
  3  7  2  0
  4  8  2  0
  4  9  1  0
  5 10  1  0
  6 11  2  0
  7 10  1  0
  8 11  1  0
 10 12  1  0
 10 13  1  0
 11 14  1  0
 12 15  1  0
 14 16  1  0
 15 17  1  0
 16 18  1  0
 17 19  2  3
 18 20  1  0
 19 21  1  0
 19 22  1  0
 20 23  1  0
M  END
>  <DRUGBANK_ID>  (1) 
DB14735

>  <COMMON_NAME>  (1) 
Cannabichromene

>  <CAS_NUMBER>  (1) 
20675-51-8

>  <UNII>  (1) 
K4497H250W

>  <SYNONYMS>  (1) 
2-Methyl-2-(4-methyl-3-pentenyl)-7-pentyl-2H-1-benzopyran-5-ol; Cannabichrome; Cannabinochromene; Cannanbichromene; Pentylcannabichromene

$$$$
