1181
     RDKit          2D

 14 14  0  0  1  0  0  0  0  0999 V2000
    1.6500    0.6040    0.0000 Cl  0  0  0  0  0  0  0  0  0  0  0  0
    4.5080   -2.2540    0.0000 Cl  0  0  0  0  0  0  0  0  0  0  0  0
    4.5080    0.6040    0.0000 P   0  0  0  0  0  0  0  0  0  0  0  0
    5.2224    1.0165    0.0000 O   0  0  0  0  0  0  0  0  0  0  0  0
    4.9205   -0.1106    0.0000 O   0  0  0  0  0  0  0  0  0  0  0  0
    3.7935    1.0165    0.0000 N   0  0  0  0  0  0  0  0  0  0  0  0
    4.0955   -0.1106    0.0000 N   0  0  0  0  0  0  0  0  0  0  0  0
    3.7935    1.8415    0.0000 C   0  0  0  0  0  0  0  0  0  0  0  0
    4.5080    2.2540    0.0000 C   0  0  0  0  0  0  0  0  0  0  0  0
    5.2224    1.8415    0.0000 C   0  0  0  0  0  0  0  0  0  0  0  0
    3.0791    0.6040    0.0000 C   0  0  0  0  0  0  0  0  0  0  0  0
    4.5080   -0.8250    0.0000 C   0  0  0  0  0  0  0  0  0  0  0  0
    2.3645    1.0165    0.0000 C   0  0  0  0  0  0  0  0  0  0  0  0
    4.0955   -1.5395    0.0000 C   0  0  0  0  0  0  0  0  0  0  0  0
  1 13  1  0
  2 14  1  0
  3  4  1  0
  3  5  2  0
  3  6  1  0
  3  7  1  0
  4 10  1  0
  6  8  1  0
  6 11  1  0
  7 12  1  0
  8  9  1  0
  9 10  1  0
 11 13  1  0
 12 14  1  0
M  END
>  <DRUGBANK_ID>  (1) 
DB01181

>  <SECONDARY_ACCESSION_NUMBERS>  (1) 
APRD00007

>  <COMMON_NAME>  (1) 
Ifosfamide

>  <CAS_NUMBER>  (1) 
3778-73-2

>  <UNII>  (1) 
UM20QQM95Y

>  <SYNONYMS>  (1) 
3-(2-chloroethyl)-2-((2-chloroethyl)amino)tetrahydro-2H-1,3,2-oxazaphosphorine 2-oxide; Ifosfamida; Ifosfamide; Ifosfamidum; Iphosphamide; Isofosfamide; Isophosphamide; Isosfamide

$$$$
