
     RDKit          2D

  9  8  0  0  1  0  0  0  0  0999 V2000
   10.3181  -13.2426    0.0000 C   0  0  0  0  0  0  0  0  0  0  0  0
   11.1430  -13.2426    0.0000 C   0  0  0  0  0  0  0  0  0  0  0  0
    9.9056  -13.9572    0.0000 C   0  0  0  0  0  0  0  0  0  0  0  0
   10.3181  -14.6717    0.0000 C   0  0  0  0  0  0  0  0  0  0  0  0
    9.0807  -13.9572    0.0000 N   0  0  0  0  0  0  0  0  0  0  0  0
   12.3804  -12.5281    0.0000 N   0  0  0  0  0  0  0  0  0  0  0  0
    9.9056  -15.3862    0.0000 O   0  0  0  0  0  0  0  0  0  0  0  0
   11.1430  -14.6717    0.0000 O   0  0  0  0  0  0  0  0  0  0  0  0
   11.5555  -12.5281    0.0000 O   0  0  0  0  0  0  0  0  0  0  0  0
  1  3  1  0
  1  2  1  0
  2  9  1  0
  3  5  1  1
  3  4  1  0
  4  7  1  0
  4  8  2  0
  6  9  1  0
M  END
>  <DRUGBANK_ID>  (1) 
DB02821

>  <SECONDARY_ACCESSION_NUMBERS>  (1) 
EXPT00828

>  <COMMON_NAME>  (1) 
Canaline

>  <CAS_NUMBER>  (1) 
496-93-5

>  <UNII>  (1) 
T7H2XP1ZNS

$$$$
