
     RDKit          2D

 42 47  0  0  0  0  0  0  0  0999 V2000
   -0.8631   -2.1972    0.0000 C   0  0  0  0  0  0  0  0  0  0  0  0
   -0.0793   -1.9498    0.0000 N   0  0  0  0  0  0  0  0  0  0  0  0
   -0.8631   -3.0222    0.0000 C   0  0  0  0  0  0  0  0  0  0  0  0
    0.4156   -2.6098    0.0000 C   0  0  0  0  0  0  0  0  0  0  0  0
   -0.0793   -3.3110    0.0000 N   0  0  0  0  0  0  0  0  0  0  0  0
   -1.5643   -3.4348    0.0000 C   0  0  0  0  0  0  0  0  0  0  0  0
   -2.2656   -2.1972    0.0000 C   0  0  0  0  0  0  0  0  0  0  0  0
   -1.5643   -0.9598    0.0000 C   0  0  0  0  0  0  0  0  0  0  0  0
    1.2406   -2.6098    0.0000 O   0  0  0  0  0  0  0  0  0  0  0  0
   -2.2656   -3.0222    0.0000 C   0  0  0  0  0  0  0  0  0  0  0  0
   -0.8323   -0.5289    0.0000 O   0  0  0  0  0  0  0  0  0  0  0  0
    1.6531   -3.3523    0.0000 C   0  0  0  0  0  0  0  0  0  0  0  0
    2.4782   -3.3523    0.0000 C   0  0  0  0  0  0  0  0  0  0  0  0
    2.7786    1.3503    0.0000 C   0  0  0  0  0  0  0  0  0  0  0  0
    2.0038    1.7377    0.0000 C   0  0  0  0  0  0  0  0  0  0  0  0
    1.8931    2.5309    0.0000 N   0  0  0  0  0  0  0  0  0  0  0  0
    1.2658    1.3687    0.0000 N   0  0  0  0  0  0  0  0  0  0  0  0
    1.0813    2.6600    0.0000 C   0  0  0  0  0  0  0  0  0  0  0  0
    0.7124    1.9221    0.0000 O   0  0  0  0  0  0  0  0  0  0  0  0
    0.7309    3.4348    0.0000 O   0  0  0  0  0  0  0  0  0  0  0  0
   -2.2754   -0.5414    0.0000 O   0  0  0  0  0  0  0  0  0  0  0  0
   -2.2686    0.2835    0.0000 C   0  0  0  0  0  0  0  0  0  0  0  0
   -2.9698    0.6960    0.0000 C   0  0  0  0  0  0  0  0  0  0  0  0
   -3.7418    0.4589    0.0000 C   0  0  0  0  0  0  0  0  0  0  0  0
   -4.2075    1.1189    0.0000 O   0  0  0  0  0  0  0  0  0  0  0  0
   -3.7238    1.7657    0.0000 C   0  0  0  0  0  0  0  0  0  0  0  0
   -2.9592    1.5053    0.0000 O   0  0  0  0  0  0  0  0  0  0  0  0
   -4.0079   -0.3197    0.0000 C   0  0  0  0  0  0  0  0  0  0  0  0
   -3.9723    2.5683    0.0000 O   0  0  0  0  0  0  0  0  0  0  0  0
    3.4930    1.7628    0.0000 C   0  0  0  0  0  0  0  0  0  0  0  0
    2.7786    0.5251    0.0000 C   0  0  0  0  0  0  0  0  0  0  0  0
    3.4930    0.1127    0.0000 C   0  0  0  0  0  0  0  0  0  0  0  0
    4.2075    0.5251    0.0000 C   0  0  0  0  0  0  0  0  0  0  0  0
    4.2075    1.3503    0.0000 C   0  0  0  0  0  0  0  0  0  0  0  0
    2.0640    0.1128    0.0000 C   0  0  0  0  0  0  0  0  0  0  0  0
    1.3495    0.5253    0.0000 C   0  0  0  0  0  0  0  0  0  0  0  0
    0.6351    0.1128    0.0000 C   0  0  0  0  0  0  0  0  0  0  0  0
    0.6351   -0.7122    0.0000 C   0  0  0  0  0  0  0  0  0  0  0  0
    1.3495   -1.1248    0.0000 C   0  0  0  0  0  0  0  0  0  0  0  0
    2.0640   -0.7122    0.0000 C   0  0  0  0  0  0  0  0  0  0  0  0
   -0.0793   -1.1248    0.0000 C   0  0  0  0  0  0  0  0  0  0  0  0
   -1.5643   -1.7848    0.0000 C   0  0  0  0  0  0  0  0  0  0  0  0
  1  2  1  0
  1  3  2  0
  1 42  1  0
  2  4  1  0
  2 41  1  0
  3  5  1  0
  3  6  1  0
  4  9  1  0
  4  5  2  0
  6 10  2  0
  7 10  1  0
  8 11  2  0
  8 21  1  0
  8 42  1  0
  9 12  1  0
 12 13  1  0
 14 15  1  0
 14 31  1  0
 15 16  1  0
 15 17  2  0
 16 18  1  0
 17 19  1  0
 18 19  1  0
 18 20  2  0
 21 22  1  0
 22 23  1  0
 23 24  2  0
 23 27  1  0
 24 25  1  0
 24 28  1  0
 25 26  1  0
 26 27  1  0
 26 29  2  0
 30 14  2  0
 30 34  1  0
 31 32  2  0
 31 35  1  0
 32 33  1  0
 33 34  2  0
 36 35  2  0
 36 37  1  0
 37 38  2  0
 38 39  1  0
 38 41  1  0
 39 40  2  0
 40 35  1  0
 42  7  2  0
M  END
>  <DRUGBANK_ID>  (1) 
DB08822

>  <SECONDARY_ACCESSION_NUMBERS>  (1) 
DB05358

>  <COMMON_NAME>  (1) 
Azilsartan medoxomil

>  <CAS_NUMBER>  (1) 
863031-21-4

>  <UNII>  (1) 
LL0G25K7I2

>  <SYNONYMS>  (1) 
Azilsartan; Azilsartan medoxomil; Azilsartan médoxomil; Azilsartán medoxomilo; Azilsartanum medoxomilum

$$$$
