S60
     RDKit          2D

 16 18  0  0  0  0  0  0  0  0999 V2000
   -1.8990    0.4794    0.0000 C   0  0  0  0  0  0  0  0  0  0  0  0
   -2.6135    0.8919    0.0000 N   0  0  0  0  0  0  0  0  0  0  0  0
   -1.1845    0.8919    0.0000 N   0  0  0  0  0  0  0  0  0  0  0  0
   -0.4701    0.4794    0.0000 C   0  0  0  0  0  0  0  0  0  0  0  0
    0.2444    0.8919    0.0000 C   0  0  0  0  0  0  0  0  0  0  0  0
    0.9589    0.4794    0.0000 C   0  0  0  0  0  0  0  0  0  0  0  0
    1.7435    0.7343    0.0000 N   0  0  0  0  0  0  0  0  0  0  0  0
    2.2284    0.0669    0.0000 C   0  0  0  0  0  0  0  0  0  0  0  0
    3.0534    0.0669    0.0000 C   0  0  0  0  0  0  0  0  0  0  0  0
    1.7435   -0.6005    0.0000 N   0  0  0  0  0  0  0  0  0  0  0  0
    0.9589   -0.3456    0.0000 C   0  0  0  0  0  0  0  0  0  0  0  0
    0.2444   -0.7581    0.0000 C   0  0  0  0  0  0  0  0  0  0  0  0
   -0.4701   -0.3456    0.0000 C   0  0  0  0  0  0  0  0  0  0  0  0
   -1.1845   -0.7581    0.0000 C   0  0  0  0  0  0  0  0  0  0  0  0
   -1.1845   -1.5831    0.0000 O   0  0  0  0  0  0  0  0  0  0  0  0
   -1.8990   -0.3456    0.0000 N   0  0  0  0  0  0  0  0  0  0  0  0
  1  2  1  0
  1  3  2  0
  1 16  1  0
  3  4  1  0
  4  5  2  0
  4 13  1  0
  5  6  1  0
  6  7  1  0
  6 11  2  0
  7  8  2  0
  8  9  1  0
  8 10  1  0
 10 11  1  0
 11 12  1  0
 12 13  2  0
 13 14  1  0
 14 15  2  0
 14 16  1  0
M  END
>  <DRUGBANK_ID>  (1) 
DB08511

>  <COMMON_NAME>  (1) 
6-amino-2-methyl-1,7-dihydro-8H-imidazo[4,5-g]quinazolin-8-one

$$$$
