417
     RDKit          2D

 29 32  0  0  0  0  0  0  0  0999 V2000
    2.6459    0.4386    0.0000 C   0  0  0  0  0  0  0  0  0  0  0  0
    1.9314    0.0261    0.0000 C   0  0  0  0  0  0  0  0  0  0  0  0
    1.2170    0.4386    0.0000 C   0  0  0  0  0  0  0  0  0  0  0  0
    1.2170    1.2636    0.0000 C   0  0  0  0  0  0  0  0  0  0  0  0
    1.9314    1.6761    0.0000 C   0  0  0  0  0  0  0  0  0  0  0  0
    2.6459    1.2636    0.0000 C   0  0  0  0  0  0  0  0  0  0  0  0
    0.5025    0.0261    0.0000 C   0  0  0  0  0  0  0  0  0  0  0  0
   -0.2120    0.4386    0.0000 C   0  0  0  0  0  0  0  0  0  0  0  0
   -0.9264    0.0261    0.0000 C   0  0  0  0  0  0  0  0  0  0  0  0
   -0.9264   -0.7989    0.0000 C   0  0  0  0  0  0  0  0  0  0  0  0
   -0.2120   -1.2114    0.0000 C   0  0  0  0  0  0  0  0  0  0  0  0
    0.5025   -0.7989    0.0000 C   0  0  0  0  0  0  0  0  0  0  0  0
   -1.6409   -1.2114    0.0000 N   0  0  0  0  0  0  0  0  0  0  0  0
   -1.6409   -2.0364    0.0000 C   0  0  0  0  0  0  0  0  0  0  0  0
   -2.3554   -2.4489    0.0000 C   0  0  0  0  0  0  0  0  0  0  0  0
   -3.0699   -2.0364    0.0000 N   0  0  0  0  0  0  0  0  0  0  0  0
   -3.0699   -1.2114    0.0000 C   0  0  0  0  0  0  0  0  0  0  0  0
   -2.3554   -0.7989    0.0000 C   0  0  0  0  0  0  0  0  0  0  0  0
   -3.8545   -2.2913    0.0000 C   0  0  0  0  0  0  0  0  0  0  0  0
   -4.3394   -1.6239    0.0000 N   0  0  0  0  0  0  0  0  0  0  0  0
   -3.8545   -0.9565    0.0000 N   0  0  0  0  0  0  0  0  0  0  0  0
    1.9314    2.5011    0.0000 F   0  0  0  0  0  0  0  0  0  0  0  0
    1.9314   -0.7989    0.0000 F   0  0  0  0  0  0  0  0  0  0  0  0
    1.2170   -1.2114    0.0000 N   0  0  0  0  0  0  0  0  0  0  0  0
   -4.1094   -3.0760    0.0000 C   0  0  0  0  0  0  0  0  0  0  0  0
   -4.3644   -3.8606    0.0000 F   0  0  0  0  0  0  0  0  0  0  0  0
   -4.8940   -2.8210    0.0000 F   0  0  0  0  0  0  0  0  0  0  0  0
   -3.3248   -3.3309    0.0000 F   0  0  0  0  0  0  0  0  0  0  0  0
    3.3604    1.6761    0.0000 F   0  0  0  0  0  0  0  0  0  0  0  0
  1  2  2  0
  1  6  1  0
  2 23  1  0
  2  3  1  0
  3  4  2  0
  4  5  1  0
  5  6  2  0
  5 22  1  0
  6 29  1  0
  7  3  1  6
  7 12  1  0
  7  8  1  0
  8  9  1  0
  9 10  1  0
 10 11  1  0
 10 13  1  1
 11 12  1  0
 12 24  1  1
 13 14  1  0
 13 18  1  0
 14 15  1  0
 15 16  1  0
 16 19  1  0
 16 17  1  0
 17 21  2  0
 17 18  1  0
 19 25  1  0
 19 20  2  0
 20 21  1  0
 25 27  1  0
 25 26  1  0
 25 28  1  0
M  END
>  <DRUGBANK_ID>  (1) 
DB07072

>  <COMMON_NAME>  (1) 
(1S,2R,5S)-5-[3-(TRIFLUOROMETHYL)-5,6-DIHYDRO[1,2,4]TRIAZOLO[4,3-A]PYRAZIN-7(8H)-YL]-2-(2,4,5-TRIFLUOROPHENYL)CYCLOHEXANAMINE

$$$$
