HAB
     RDKit          2D

 18 19  0  0  0  0  0  0  0  0999 V2000
    0.2106   -1.1055    0.0000 C   0  0  0  0  0  0  0  0  0  0  0  0
    0.9250   -1.5180    0.0000 C   0  0  0  0  0  0  0  0  0  0  0  0
    0.9250   -2.3430    0.0000 C   0  0  0  0  0  0  0  0  0  0  0  0
    0.2106   -2.7555    0.0000 C   0  0  0  0  0  0  0  0  0  0  0  0
   -0.5039   -2.3430    0.0000 C   0  0  0  0  0  0  0  0  0  0  0  0
   -0.5039   -1.5180    0.0000 C   0  0  0  0  0  0  0  0  0  0  0  0
   -0.5039    0.9570    0.0000 C   0  0  0  0  0  0  0  0  0  0  0  0
   -1.2184    1.3695    0.0000 C   0  0  0  0  0  0  0  0  0  0  0  0
   -1.2184    2.1945    0.0000 C   0  0  0  0  0  0  0  0  0  0  0  0
   -0.5039    2.6070    0.0000 C   0  0  0  0  0  0  0  0  0  0  0  0
    0.2106    2.1945    0.0000 C   0  0  0  0  0  0  0  0  0  0  0  0
    0.2106    1.3695    0.0000 C   0  0  0  0  0  0  0  0  0  0  0  0
    1.6395   -1.1055    0.0000 C   0  0  0  0  0  0  0  0  0  0  0  0
    0.2106   -0.2805    0.0000 N   0  0  0  0  0  0  0  0  0  0  0  0
   -0.5039    0.1320    0.0000 N   0  0  0  0  0  0  0  0  0  0  0  0
    2.3540   -1.5180    0.0000 O   0  0  0  0  0  0  0  0  0  0  0  0
    1.6395   -0.2805    0.0000 O   0  0  0  0  0  0  0  0  0  0  0  0
   -0.5039    3.4320    0.0000 O   0  0  0  0  0  0  0  0  0  0  0  0
  1  2  2  0
  1  6  1  0
  1 14  1  0
  2  3  1  0
  2 13  1  0
  3  4  2  0
  4  5  1  0
  5  6  2  0
  7  8  2  0
  7 12  1  0
  7 15  1  0
  8  9  1  0
  9 10  2  0
 10 11  1  0
 10 18  1  0
 11 12  2  0
 13 16  2  0
 13 17  1  0
 14 15  2  0
M  END
>  <DRUGBANK_ID>  (1) 
DB07880

>  <COMMON_NAME>  (1) 
2-((4'-HYDROXYPHENYL)-AZO)BENZOIC ACID

$$$$
