YTT
     RDKit          2D

 24 26  0  0  0  0  0  0  0  0999 V2000
    1.4052   -0.8211    0.0000 O   0  0  0  0  0  0  0  0  0  0  0  0
    0.6908   -0.4086    0.0000 C   0  0  0  0  0  0  0  0  0  0  0  0
   -0.0237   -0.8211    0.0000 C   0  0  0  0  0  0  0  0  0  0  0  0
   -0.0237   -1.6461    0.0000 C   0  0  0  0  0  0  0  0  0  0  0  0
   -0.7382   -2.0586    0.0000 C   0  0  0  0  0  0  0  0  0  0  0  0
   -0.7382   -2.8836    0.0000 C   0  0  0  0  0  0  0  0  0  0  0  0
   -1.4527   -3.2961    0.0000 C   0  0  0  0  0  0  0  0  0  0  0  0
   -2.1671   -2.8836    0.0000 C   0  0  0  0  0  0  0  0  0  0  0  0
   -2.8816   -3.2961    0.0000 O   0  0  0  0  0  0  0  0  0  0  0  0
   -2.1671   -2.0586    0.0000 C   0  0  0  0  0  0  0  0  0  0  0  0
   -1.4527   -1.6461    0.0000 C   0  0  0  0  0  0  0  0  0  0  0  0
   -0.7382   -0.4086    0.0000 N   0  0  0  0  0  0  0  0  0  0  0  0
    0.6908    0.4164    0.0000 N   0  0  0  0  0  0  0  0  0  0  0  0
   -0.0237    0.8289    0.0000 C   0  0  0  0  0  0  0  0  0  0  0  0
   -0.7382    0.4164    0.0000 C   0  0  0  0  0  0  0  0  0  0  0  0
   -1.4527    0.8289    0.0000 O   0  0  0  0  0  0  0  0  0  0  0  0
   -0.0237    1.6539    0.0000 C   0  0  0  0  0  0  0  0  0  0  0  0
    0.6908    2.0664    0.0000 C   0  0  0  0  0  0  0  0  0  0  0  0
    0.6908    2.8914    0.0000 C   0  0  0  0  0  0  0  0  0  0  0  0
    1.4052    3.3039    0.0000 C   0  0  0  0  0  0  0  0  0  0  0  0
    2.1197    2.8914    0.0000 C   0  0  0  0  0  0  0  0  0  0  0  0
    2.8342    3.3039    0.0000 O   0  0  0  0  0  0  0  0  0  0  0  0
    2.1197    2.0664    0.0000 C   0  0  0  0  0  0  0  0  0  0  0  0
    1.4052    1.6539    0.0000 C   0  0  0  0  0  0  0  0  0  0  0  0
  1  2  2  0
  2  3  1  0
  2 13  1  0
  3  4  1  6
  3 12  1  0
  4  5  1  0
  5  6  2  0
  5 11  1  0
  6  7  1  0
  7  8  2  0
  8  9  1  0
  8 10  1  0
 10 11  2  0
 12 15  1  0
 13 14  1  0
 14 15  1  0
 14 17  1  6
 15 16  2  0
 17 18  1  0
 18 19  2  0
 18 24  1  0
 19 20  1  0
 20 21  2  0
 21 22  1  0
 21 23  1  0
 23 24  2  0
M  END
>  <DRUGBANK_ID>  (1) 
DB08761

>  <COMMON_NAME>  (1) 
(3S,6S)-3,6-bis(4-hydroxybenzyl)piperazine-2,5-dione

$$$$
