
     RDKit          2D

 39 40  0  0  0  0  0  0  0  0999 V2000
   -0.0484    1.2841    0.0000 C   0  0  0  0  0  0  0  0  0  0  0  0
   -0.8106    0.9684    0.0000 C   0  0  0  0  0  0  0  0  0  0  0  0
   -1.1263    0.2062    0.0000 C   0  0  0  0  0  0  0  0  0  0  0  0
    1.0294    0.2062    0.0000 C   0  0  0  0  0  0  0  0  0  0  0  0
   -0.8106   -0.5559    0.0000 C   0  0  0  0  0  0  0  0  0  0  0  0
   -0.0484   -0.8716    0.0000 C   0  0  0  0  0  0  0  0  0  0  0  0
    0.7137   -0.5559    0.0000 C   0  0  0  0  0  0  0  0  0  0  0  0
   -0.0484    2.1091    0.0000 C   0  0  0  0  0  0  0  0  0  0  0  0
   -1.3940    1.5518    0.0000 O   0  0  0  0  0  0  0  0  0  0  0  0
   -0.7629    2.5216    0.0000 O   0  0  0  0  0  0  0  0  0  0  0  0
    0.6660    2.5216    0.0000 C   0  0  0  0  0  0  0  0  0  0  0  0
   -1.3940   -1.1393    0.0000 O   0  0  0  0  0  0  0  0  0  0  0  0
   -0.0484   -1.6966    0.0000 C   0  0  0  0  0  0  0  0  0  0  0  0
   -0.7629   -2.1091    0.0000 C   0  0  0  0  0  0  0  0  0  0  0  0
   -0.7629   -2.9341    0.0000 C   0  0  0  0  0  0  0  0  0  0  0  0
   -1.4773   -3.3466    0.0000 C   0  0  0  0  0  0  0  0  0  0  0  0
   -0.0484   -3.3466    0.0000 C   0  0  0  0  0  0  0  0  0  0  0  0
   -1.9513    0.2062    0.0000 C   0  0  0  0  0  0  0  0  0  0  0  0
   -2.3638    0.9208    0.0000 C   0  0  0  0  0  0  0  0  0  0  0  0
   -3.1888    0.9208    0.0000 C   0  0  0  0  0  0  0  0  0  0  0  0
   -3.6013    1.6352    0.0000 C   0  0  0  0  0  0  0  0  0  0  0  0
   -3.6013    0.2063    0.0000 C   0  0  0  0  0  0  0  0  0  0  0  0
    1.8544    0.2062    0.0000 C   0  0  0  0  0  0  0  0  0  0  0  0
    2.2669   -0.5082    0.0000 C   0  0  0  0  0  0  0  0  0  0  0  0
    3.0919   -0.5082    0.0000 C   0  0  0  0  0  0  0  0  0  0  0  0
    3.5044   -1.2226    0.0000 C   0  0  0  0  0  0  0  0  0  0  0  0
    3.5044    0.2062    0.0000 C   0  0  0  0  0  0  0  0  0  0  0  0
   -0.5741    0.2062    0.0000 C   0  0  0  0  0  0  0  0  0  0  0  0
    0.2508    0.2062    0.0000 O   0  0  0  0  0  0  0  0  0  0  0  0
    0.6661    3.3466    0.0000 C   0  0  0  0  0  0  0  0  0  0  0  0
    1.3805    2.1091    0.0000 C   0  0  0  0  0  0  0  0  0  0  0  0
    0.7137    0.9684    0.0000 C   0  0  0  0  0  0  0  0  0  0  0  0
    1.1263    1.6829    0.0000 C   0  0  0  0  0  0  0  0  0  0  0  0
    1.9513    1.6828    0.0000 C   0  0  0  0  0  0  0  0  0  0  0  0
    2.3638    2.3972    0.0000 C   0  0  0  0  0  0  0  0  0  0  0  0
    3.1888    2.3972    0.0000 C   0  0  0  0  0  0  0  0  0  0  0  0
    3.6013    3.1117    0.0000 C   0  0  0  0  0  0  0  0  0  0  0  0
    3.6013    1.6827    0.0000 C   0  0  0  0  0  0  0  0  0  0  0  0
    1.5388    0.9683    0.0000 C   0  0  0  0  0  0  0  0  0  0  0  0
  1  8  1  1
  1 28  1  0
  1  2  1  0
  1 32  1  0
  2  9  1  0
  2  3  2  0
  3 18  1  0
  3  5  1  0
  4 23  1  1
  4  7  1  0
  5 12  2  0
  6 13  1  1
  6 28  1  0
  6  5  1  0
  6  7  1  0
  8 10  2  0
  8 11  1  0
 11 30  1  0
 11 31  1  0
 13 14  1  0
 14 15  2  3
 15 16  1  0
 15 17  1  0
 18 19  1  0
 19 20  2  3
 20 21  1  0
 20 22  1  0
 23 24  1  0
 24 25  2  3
 25 26  1  0
 25 27  1  0
 28 29  2  0
 32 33  1  0
 32 39  1  1
 32  4  1  0
 33 34  1  0
 34 35  1  0
 35 36  2  3
 36 37  1  0
 36 38  1  0
M  END
>  <DRUGBANK_ID>  (1) 
DB01892

>  <SECONDARY_ACCESSION_NUMBERS>  (1) 
EXPT01804

>  <COMMON_NAME>  (1) 
Hyperforin

>  <CAS_NUMBER>  (1) 
11079-53-1

>  <UNII>  (1) 
RM741E34FP

>  <SYNONYMS>  (1) 
Hiperforina; Hyperforine

$$$$
