
     RDKit          2D

 41 44  0  0  0  0  0  0  0  0999 V2000
    0.7441    2.3941    0.0000 C   0  0  0  0  0  0  0  0  0  0  0  0
    5.0309   -5.0309    0.0000 C   0  0  0  0  0  0  0  0  0  0  0  0
    2.8875   -4.1763    0.0000 C   0  0  0  0  0  0  0  0  0  0  0  0
    2.8875    1.5395    0.0000 C   0  0  0  0  0  0  0  0  0  0  0  0
    0.7441    1.5691    0.0000 C   0  0  0  0  0  0  0  0  0  0  0  0
    5.0309   -4.2059    0.0000 C   0  0  0  0  0  0  0  0  0  0  0  0
    2.4750   -3.4618    0.0000 C   0  0  0  0  0  0  0  0  0  0  0  0
    3.3000    0.8250    0.0000 C   0  0  0  0  0  0  0  0  0  0  0  0
    1.4586    2.8066    0.0000 C   0  0  0  0  0  0  0  0  0  0  0  0
    4.3164   -5.4434    0.0000 C   0  0  0  0  0  0  0  0  0  0  0  0
    2.4750   -4.8908    0.0000 C   0  0  0  0  0  0  0  0  0  0  0  0
    3.3000    2.2539    0.0000 C   0  0  0  0  0  0  0  0  0  0  0  0
    2.1730    1.5691    0.0000 C   0  0  0  0  0  0  0  0  0  0  0  0
    3.6020   -4.2059    0.0000 C   0  0  0  0  0  0  0  0  0  0  0  0
    1.2375   -4.1763    0.0000 C   0  0  0  0  0  0  0  0  0  0  0  0
    4.5375    1.5395    0.0000 C   0  0  0  0  0  0  0  0  0  0  0  0
    2.1730   -0.9059    0.0000 C   0  0  0  0  0  0  0  0  0  0  0  0
    3.6020   -1.7309    0.0000 C   0  0  0  0  0  0  0  0  0  0  0  0
    2.4750   -2.0329    0.0000 C   0  0  0  0  0  0  0  0  0  0  0  0
    3.3000   -0.6039    0.0000 C   0  0  0  0  0  0  0  0  0  0  0  0
    1.4586    1.1566    0.0000 C   0  0  0  0  0  0  0  0  0  0  0  0
    4.3164   -3.7934    0.0000 C   0  0  0  0  0  0  0  0  0  0  0  0
    1.6500   -3.4618    0.0000 C   0  0  0  0  0  0  0  0  0  0  0  0
    4.1250    0.8250    0.0000 C   0  0  0  0  0  0  0  0  0  0  0  0
    1.4586    0.3316    0.0000 C   0  0  0  0  0  0  0  0  0  0  0  0
    4.3164   -2.9684    0.0000 C   0  0  0  0  0  0  0  0  0  0  0  0
    1.2375   -2.7474    0.0000 C   0  0  0  0  0  0  0  0  0  0  0  0
    4.5375    0.1105    0.0000 C   0  0  0  0  0  0  0  0  0  0  0  0
    2.8875   -1.3184    0.0000 C   0  0  0  0  0  0  0  0  0  0  0  0
    2.1730    2.3941    0.0000 N   0  0  0  0  0  0  0  0  0  0  0  0
    3.6020   -5.0309    0.0000 N   0  0  0  0  0  0  0  0  0  0  0  0
    1.6500   -4.8908    0.0000 N   0  0  0  0  0  0  0  0  0  0  0  0
    4.1250    2.2539    0.0000 N   0  0  0  0  0  0  0  0  0  0  0  0
    0.7441   -0.0809    0.0000 O   0  0  0  0  0  0  0  0  0  0  0  0
    5.0309   -2.5559    0.0000 O   0  0  0  0  0  0  0  0  0  0  0  0
    0.4125   -2.7474    0.0000 O   0  0  0  0  0  0  0  0  0  0  0  0
    5.3625    0.1105    0.0000 O   0  0  0  0  0  0  0  0  0  0  0  0
    2.1730   -0.0809    0.0000 O   0  0  0  0  0  0  0  0  0  0  0  0
    3.6020   -2.5559    0.0000 O   0  0  0  0  0  0  0  0  0  0  0  0
    1.6500   -2.0329    0.0000 O   0  0  0  0  0  0  0  0  0  0  0  0
    4.1250   -0.6039    0.0000 O   0  0  0  0  0  0  0  0  0  0  0  0
  5  1  2  0
  6  2  2  0
  7  3  2  0
  8  4  2  0
  9  1  1  0
 10  2  1  0
 11  3  1  0
 12  4  1  0
 21  5  1  0
 21 13  2  0
 22  6  1  0
 22 14  2  0
 23  7  1  0
 23 15  2  0
 24  8  1  0
 24 16  2  0
 25 21  1  0
 26 22  1  0
 27 23  1  0
 28 24  1  0
 29 17  1  0
 29 18  1  0
 29 19  1  0
 29 20  1  0
 30  9  2  0
 30 13  1  0
 31 10  2  0
 31 14  1  0
 32 11  2  0
 32 15  1  0
 33 12  2  0
 33 16  1  0
 34 25  2  0
 35 26  2  0
 36 27  2  0
 37 28  2  0
 38 17  1  0
 38 25  1  0
 39 18  1  0
 39 26  1  0
 40 19  1  0
 40 27  1  0
 41 20  1  0
 41 28  1  0
M  END
>  <DRUGBANK_ID>  (1) 
DB13441

>  <COMMON_NAME>  (1) 
Niceritrol

>  <CAS_NUMBER>  (1) 
5868-05-3

>  <UNII>  (1) 
F54EHJ34MV

>  <SYNONYMS>  (1) 
Niceritrol

$$$$
