
     RDKit          2D

  9  9  0  0  1  0  0  0  0  0999 V2000
    0.2382    1.7138    0.0000 C   0  0  0  0  0  0  0  0  0  0  0  0
    0.6507    0.1743    0.0000 C   0  0  0  0  0  0  0  0  0  0  0  0
    0.2382    0.8888    0.0000 C   0  0  0  0  0  0  0  0  0  0  0  0
   -0.4763    2.1263    0.0000 C   0  0  0  0  0  0  0  0  0  0  0  0
   -0.4763    2.9513    0.0000 C   0  0  0  0  0  0  0  0  0  0  0  0
   -1.1908    1.7138    0.0000 N   0  0  0  0  0  0  0  0  0  0  0  0
   -1.1908    3.3638    0.0000 O   0  0  0  0  0  0  0  0  0  0  0  0
    0.2382    3.3638    0.0000 O   0  0  0  0  0  0  0  0  0  0  0  0
   -0.1743    0.1743    0.0000 O   0  0  0  0  0  0  0  0  0  0  0  0
  3  1  1  1
  3  2  1  0
  4  1  1  0
  4  6  1  6
  5  4  1  0
  7  5  2  0
  8  5  1  0
  9  2  1  0
  9  3  1  0
M  END
>  <DRUGBANK_ID>  (1) 
DB03191

>  <SECONDARY_ACCESSION_NUMBERS>  (1) 
EXPT02037

>  <COMMON_NAME>  (1) 
3-Oxiran-2ylalanine

$$$$
