
     RDKit          2D

 38 44  0  0  1  0  0  0  0  0999 V2000
    1.4069   -7.8193    0.0000 C   0  0  0  0  0  0  0  0  0  0  0  0
    2.1655   -7.4950    0.0000 C   0  0  0  0  0  0  0  0  0  0  0  0
    2.2640   -6.6759    0.0000 C   0  0  0  0  0  0  0  0  0  0  0  0
    1.6039   -6.1811    0.0000 C   0  0  0  0  0  0  0  0  0  0  0  0
    0.8453   -6.5053    0.0000 C   0  0  0  0  0  0  0  0  0  0  0  0
    0.7468   -7.3244    0.0000 C   0  0  0  0  0  0  0  0  0  0  0  0
    0.1188   -6.1144    0.0000 C   0  0  0  0  0  0  0  0  0  0  0  0
   -0.0285   -5.3026    0.0000 C   0  0  0  0  0  0  0  0  0  0  0  0
    0.5143   -4.6813    0.0000 C   0  0  0  0  0  0  0  0  0  0  0  0
    1.3385   -4.7184    0.0000 C   0  0  0  0  0  0  0  0  0  0  0  0
    1.8234   -5.3858    0.0000 C   0  0  0  0  0  0  0  0  0  0  0  0
    2.6439   -5.2996    0.0000 N   0  0  0  0  0  0  0  0  0  0  0  0
    2.9794   -4.5459    0.0000 N   0  0  0  0  0  0  0  0  0  0  0  0
    2.4945   -3.8784    0.0000 C   0  0  0  0  0  0  0  0  0  0  0  0
    1.6740   -3.9647    0.0000 C   0  0  0  0  0  0  0  0  0  0  0  0
    2.8301   -3.1248    0.0000 N   0  0  0  0  0  0  0  0  0  0  0  0
    2.4176   -2.4103    0.0000 C   0  0  0  0  0  0  0  0  0  0  0  0
    2.9696   -1.7972    0.0000 N   0  0  0  0  0  0  0  0  0  0  0  0
    3.7233   -2.1328    0.0000 C   0  0  0  0  0  0  0  0  0  0  0  0
    3.6370   -2.9532    0.0000 N   0  0  0  0  0  0  0  0  0  0  0  0
    4.4377   -1.7203    0.0000 N   0  0  0  0  0  0  0  0  0  0  0  0
    5.1522   -2.1328    0.0000 C   0  0  0  0  0  0  0  0  0  0  0  0
    5.1522   -2.9578    0.0000 C   0  0  0  0  0  0  0  0  0  0  0  0
    5.8667   -3.3703    0.0000 C   0  0  0  0  0  0  0  0  0  0  0  0
    6.5811   -2.9578    0.0000 C   0  0  0  0  0  0  0  0  0  0  0  0
    6.5811   -2.1328    0.0000 C   0  0  0  0  0  0  0  0  0  0  0  0
    5.8667   -1.7203    0.0000 C   0  0  0  0  0  0  0  0  0  0  0  0
    7.2262   -1.6184    0.0000 C   0  0  0  0  0  0  0  0  0  0  0  0
    8.0305   -1.8020    0.0000 C   0  0  0  0  0  0  0  0  0  0  0  0
    8.3884   -2.5453    0.0000 C   0  0  0  0  0  0  0  0  0  0  0  0
    8.0305   -3.2886    0.0000 C   0  0  0  0  0  0  0  0  0  0  0  0
    7.2262   -3.4721    0.0000 C   0  0  0  0  0  0  0  0  0  0  0  0
    9.2134   -2.5453    0.0000 N   0  0  0  0  0  0  0  0  0  0  0  0
    9.6984   -1.8778    0.0000 C   0  0  0  0  0  0  0  0  0  0  0  0
   10.4830   -2.1328    0.0000 C   0  0  0  0  0  0  0  0  0  0  0  0
   10.4830   -2.9578    0.0000 C   0  0  0  0  0  0  0  0  0  0  0  0
    9.6984   -3.2127    0.0000 C   0  0  0  0  0  0  0  0  0  0  0  0
    1.5971   -2.3241    0.0000 N   0  0  0  0  0  0  0  0  0  0  0  0
  1  2  2  0
  1  6  1  0
  2  3  1  0
  3  4  2  0
  4  5  1  0
  4 11  1  0
  5  6  2  0
  5  7  1  0
  7  8  1  0
  8  9  1  0
  9 10  1  0
 10 11  2  0
 10 15  1  0
 11 12  1  0
 12 13  2  0
 13 14  1  0
 14 15  2  0
 14 16  1  0
 16 17  1  0
 16 20  1  0
 17 18  2  0
 17 38  1  0
 18 19  1  0
 19 20  2  0
 19 21  1  0
 21 22  1  0
 22 23  2  0
 22 27  1  0
 23 24  1  0
 24 25  2  0
 25 26  1  0
 25 32  1  0
 26 27  2  0
 26 28  1  0
 28 29  1  0
 29 30  1  0
 30 31  1  0
 30 33  1  1
 31 32  1  0
 33 34  1  0
 33 37  1  0
 34 35  1  0
 35 36  1  0
 36 37  1  0
M  END
>  <DRUGBANK_ID>  (1) 
DB12411

>  <COMMON_NAME>  (1) 
Bemcentinib

>  <CAS_NUMBER>  (1) 
1037624-75-1

>  <UNII>  (1) 
0ICW2LX8AS

>  <SYNONYMS>  (1) 
(S)-1-(6,7-dihydro-5H-benzo[6,7]cyclohepta[1,2-c]pyridazin-3-yl)-N3-(7-(pyrrolidin-1-yl)- 6,7,8,9-tetrahydro-5H-benzo[7]annulen-2-yl)-1H-1,2,4-triazole-3,5-diamine; Bemcentinib

$$$$
