
     RDKit          2D

 17 16  0  0  0  0  0  0  0  0999 V2000
    2.8580    0.0000    0.0000 C   0  0  0  0  0  0  0  0  0  0  0  0
    2.1435   -0.4125    0.0000 C   0  0  0  0  0  0  0  0  0  0  0  0
    1.4290    0.0000    0.0000 C   0  0  0  0  0  0  0  0  0  0  0  0
    0.7145   -0.4125    0.0000 C   0  0  0  0  0  0  0  0  0  0  0  0
    0.0000    0.0000    0.0000 C   0  0  0  0  0  0  0  0  0  0  0  0
   -0.7145   -0.4125    0.0000 C   0  0  0  0  0  0  0  0  0  0  0  0
   -1.4290    0.0000    0.0000 C   0  0  0  0  0  0  0  0  0  0  0  0
   -2.1435   -0.4125    0.0000 C   0  0  0  0  0  0  0  0  0  0  0  0
   -2.8580    0.0000    0.0000 C   0  0  0  0  0  0  0  0  0  0  0  0
   -3.5725   -0.4125    0.0000 C   0  0  0  0  0  0  0  0  0  0  0  0
    3.5726   -0.4125    0.0000 O   0  0  0  0  0  0  0  0  0  0  0  0
   -4.2870    0.0000    0.0000 C   0  0  0  0  0  0  0  0  0  0  0  0
   -5.0016   -0.4125    0.0000 C   0  0  0  0  0  0  0  0  0  0  0  0
    4.2871    0.0000    0.0000 S   0  0  0  0  0  0  0  0  0  0  0  0
    3.8746    0.7145    0.0000 O   0  0  0  0  0  0  0  0  0  0  0  0
    5.0016    0.4125    0.0000 O   0  0  0  0  0  0  0  0  0  0  0  0
    4.6996   -0.7145    0.0000 O   0  0  0  0  0  0  0  0  0  0  0  0
  1  2  1  0
  1 11  1  0
  2  3  1  0
  3  4  1  0
  4  5  1  0
  5  6  1  0
  6  7  1  0
  7  8  1  0
  8  9  1  0
  9 10  1  0
 12 10  1  0
 13 12  1  0
 14 11  1  0
 15 14  2  0
 16 14  2  0
 17 14  1  0
M  END
>  <DRUGBANK_ID>  (1) 
DB03967

>  <SECONDARY_ACCESSION_NUMBERS>  (1) 
EXPT02877

>  <COMMON_NAME>  (1) 
Dodecyl sulfate

>  <CAS_NUMBER>  (1) 
151-41-7

>  <UNII>  (1) 
DIQ16UC154

>  <SYNONYMS>  (1) 
Dodecyl hydrogen sulfate; Dodecylsulfuric acid; Lauryl sulfate; Lauryl sulfuric acid; Lauryl sulphate; Monododecyl hydrogen sulfate; N-Dodecyl sulfate; Sulfuric acid, monododecyl ester

$$$$
