
     RDKit          2D

 18 20  0  0  1  0  0  0  0  0999 V2000
   -1.7458    1.7380    0.0000 C   0  0  0  0  0  0  0  0  0  0  0  0
   -0.9528    1.5106    0.0000 C   0  0  0  0  0  0  0  0  0  0  0  0
   -0.3593    2.0837    0.0000 C   0  0  0  0  0  0  0  0  0  0  0  0
    0.4337    1.8563    0.0000 C   0  0  0  0  0  0  0  0  0  0  0  0
    0.6333    1.0558    0.0000 C   0  0  0  0  0  0  0  0  0  0  0  0
    0.0399    0.4827    0.0000 C   0  0  0  0  0  0  0  0  0  0  0  0
   -0.7532    0.7101    0.0000 C   0  0  0  0  0  0  0  0  0  0  0  0
   -0.7532   -0.1149    0.0000 C   0  0  0  0  0  0  0  0  0  0  0  0
   -0.0857   -0.5998    0.0000 C   0  0  0  0  0  0  0  0  0  0  0  0
   -0.3407   -1.3844    0.0000 C   0  0  0  0  0  0  0  0  0  0  0  0
   -1.1657   -1.3844    0.0000 C   0  0  0  0  0  0  0  0  0  0  0  0
   -1.4206   -0.5998    0.0000 S   0  0  0  0  0  0  0  0  0  0  0  0
   -1.5462    0.4827    0.0000 N   0  0  0  0  0  0  0  0  0  0  0  0
   -1.7458   -0.3178    0.0000 C   0  0  0  0  0  0  0  0  0  0  0  0
   -2.5388   -0.5452    0.0000 C   0  0  0  0  0  0  0  0  0  0  0  0
   -3.1323    0.0279    0.0000 C   0  0  0  0  0  0  0  0  0  0  0  0
   -2.9327    0.8284    0.0000 C   0  0  0  0  0  0  0  0  0  0  0  0
   -2.1397    1.0558    0.0000 C   0  0  0  0  0  0  0  0  0  0  0  0
  2  1  1  1
  2  3  1  0
  2  7  1  0
  3  4  1  0
  4  5  1  0
  5  6  1  0
  6  7  1  0
  7  8  1  6
  7 13  1  0
  8  9  2  0
  8 12  1  0
  9 10  1  0
 10 11  2  0
 11 12  1  0
 13 14  1  0
 13 18  1  0
 14 15  1  0
 15 16  1  0
 16 17  1  0
 17 18  1  0
M  END
>  <DRUGBANK_ID>  (1) 
DB13096

>  <COMMON_NAME>  (1) 
Gacyclidine

>  <CAS_NUMBER>  (1) 
68134-81-6

>  <UNII>  (1) 
9290ND070R

>  <SYNONYMS>  (1) 
Gacyclidine

$$$$
