
     RDKit          2D

 34 39  0  0  0  0  0  0  0  0999 V2000
    0.1489   -0.8979    0.0000 O   0  0  0  0  0  0  0  0  0  0  0  0
   -0.6580   -0.7263    0.0000 C   0  0  0  0  0  0  0  0  0  0  0  0
   -1.2101   -1.3394    0.0000 N   0  0  0  0  0  0  0  0  0  0  0  0
   -2.0170   -1.1679    0.0000 N   0  0  0  0  0  0  0  0  0  0  0  0
   -2.2720   -0.3833    0.0000 C   0  0  0  0  0  0  0  0  0  0  0  0
   -3.0790   -0.2117    0.0000 O   0  0  0  0  0  0  0  0  0  0  0  0
   -1.7199    0.2298    0.0000 C   0  0  0  0  0  0  0  0  0  0  0  0
   -1.9749    1.0144    0.0000 C   0  0  0  0  0  0  0  0  0  0  0  0
   -1.4229    1.6275    0.0000 C   0  0  0  0  0  0  0  0  0  0  0  0
   -0.6159    1.4560    0.0000 C   0  0  0  0  0  0  0  0  0  0  0  0
   -0.3609    0.6714    0.0000 C   0  0  0  0  0  0  0  0  0  0  0  0
   -0.9130    0.0583    0.0000 C   0  0  0  0  0  0  0  0  0  0  0  0
   -1.6778    2.4122    0.0000 N   0  0  0  0  0  0  0  0  0  0  0  0
   -2.4624    2.6671    0.0000 N   0  0  0  0  0  0  0  0  0  0  0  0
   -2.4624    3.4921    0.0000 C   0  0  0  0  0  0  0  0  0  0  0  0
   -3.1299    3.9770    0.0000 C   0  0  0  0  0  0  0  0  0  0  0  0
   -3.8835    3.6415    0.0000 C   0  0  0  0  0  0  0  0  0  0  0  0
   -4.5510    4.1264    0.0000 C   0  0  0  0  0  0  0  0  0  0  0  0
   -5.3046    3.7908    0.0000 C   0  0  0  0  0  0  0  0  0  0  0  0
   -5.9721    4.2758    0.0000 C   0  0  0  0  0  0  0  0  0  0  0  0
   -5.8858    5.0962    0.0000 C   0  0  0  0  0  0  0  0  0  0  0  0
   -5.1322    5.4318    0.0000 C   0  0  0  0  0  0  0  0  0  0  0  0
   -4.4647    4.9469    0.0000 C   0  0  0  0  0  0  0  0  0  0  0  0
   -1.6778    3.7470    0.0000 N   0  0  0  0  0  0  0  0  0  0  0  0
   -1.1929    3.0796    0.0000 N   0  0  0  0  0  0  0  0  0  0  0  0
   -0.3679    3.0796    0.0000 C   0  0  0  0  0  0  0  0  0  0  0  0
    0.1171    2.4122    0.0000 N   0  0  0  0  0  0  0  0  0  0  0  0
    0.9017    2.6671    0.0000 C   0  0  0  0  0  0  0  0  0  0  0  0
    0.9017    3.4921    0.0000 C   0  0  0  0  0  0  0  0  0  0  0  0
    0.1171    3.7470    0.0000 S   0  0  0  0  0  0  0  0  0  0  0  0
    1.6161    3.9046    0.0000 C   0  0  0  0  0  0  0  0  0  0  0  0
    2.3306    3.4921    0.0000 C   0  0  0  0  0  0  0  0  0  0  0  0
    2.3306    2.6671    0.0000 C   0  0  0  0  0  0  0  0  0  0  0  0
    1.6161    2.2546    0.0000 C   0  0  0  0  0  0  0  0  0  0  0  0
  1  2  2  0
  2  3  1  0
  2 12  1  0
  3  4  1  0
  4  5  1  0
  5  6  2  0
  5  7  1  0
  7  8  1  0
  7 12  2  0
  8  9  2  0
  9 10  1  0
  9 13  1  0
 10 11  2  0
 11 12  1  0
 13 14  2  0
 13 25  1  0
 14 15  1  0
 15 16  1  0
 15 24  2  0
 16 17  2  0
 17 18  1  0
 18 19  2  0
 18 23  1  0
 19 20  1  0
 20 21  2  0
 21 22  1  0
 22 23  2  0
 24 25  1  0
 25 26  1  0
 26 27  2  0
 26 30  1  0
 27 28  1  0
 28 29  2  0
 28 34  1  0
 29 30  1  0
 29 31  1  0
 31 32  2  0
 32 33  1  0
 33 34  2  0
M  CHG  1  13   1
M  END
>  <DRUGBANK_ID>  (1) 
DB01897

>  <SECONDARY_ACCESSION_NUMBERS>  (1) 
EXPT02404

>  <COMMON_NAME>  (1) 
2-(2f-Benzothiazolyl)-5-Styryl-3-(4f-Phthalhydrazidyl)Tetrazolium Chloride

$$$$
