
     RDKit          2D

 20 22  0  0  0  0  0  0  0  0999 V2000
   -4.2962   -2.1269    0.0000 C   0  0  0  0  0  0  0  0  0  0  0  0
   -4.7087   -1.4124    0.0000 C   0  0  0  0  0  0  0  0  0  0  0  0
   -4.2962   -0.6979    0.0000 C   0  0  0  0  0  0  0  0  0  0  0  0
   -3.4712   -0.6979    0.0000 N   0  0  0  0  0  0  0  0  0  0  0  0
   -3.0587   -1.4124    0.0000 C   0  0  0  0  0  0  0  0  0  0  0  0
   -3.4712   -2.1269    0.0000 C   0  0  0  0  0  0  0  0  0  0  0  0
   -2.2337   -1.4124    0.0000 C   0  0  0  0  0  0  0  0  0  0  0  0
   -1.4087   -1.4124    0.0000 C   0  0  0  0  0  0  0  0  0  0  0  0
   -0.5837   -1.4124    0.0000 C   0  0  0  0  0  0  0  0  0  0  0  0
   -0.1712   -0.6979    0.0000 C   0  0  0  0  0  0  0  0  0  0  0  0
    0.6538   -0.6979    0.0000 C   0  0  0  0  0  0  0  0  0  0  0  0
    1.1387   -0.0305    0.0000 C   0  0  0  0  0  0  0  0  0  0  0  0
    1.9233   -0.2854    0.0000 N   0  0  0  0  0  0  0  0  0  0  0  0
    2.6378    0.1271    0.0000 C   0  0  0  0  0  0  0  0  0  0  0  0
    3.3523   -0.2854    0.0000 C   0  0  0  0  0  0  0  0  0  0  0  0
    3.3523   -1.1104    0.0000 C   0  0  0  0  0  0  0  0  0  0  0  0
    2.6378   -1.5229    0.0000 C   0  0  0  0  0  0  0  0  0  0  0  0
    1.9233   -1.1104    0.0000 C   0  0  0  0  0  0  0  0  0  0  0  0
    1.1387   -1.3654    0.0000 N   0  0  0  0  0  0  0  0  0  0  0  0
    4.0668    0.1271    0.0000 F   0  0  0  0  0  0  0  0  0  0  0  0
  1  2  2  0
  1  6  1  0
  2  3  1  0
  3  4  2  0
  4  5  1  0
  5  6  2  0
  5  7  1  0
  7  8  3  0
  8  9  1  0
  9 10  1  0
 10 11  1  0
 11 12  2  0
 11 19  1  0
 12 13  1  0
 13 14  1  0
 13 18  1  0
 14 15  2  0
 15 16  1  0
 15 20  1  0
 16 17  2  0
 17 18  1  0
 18 19  2  0
M  END
>  <DRUGBANK_ID>  (1) 
DB12733

>  <SECONDARY_ACCESSION_NUMBERS>  (1) 
DB06060

>  <COMMON_NAME>  (1) 
Dipraglurant

>  <CAS_NUMBER>  (1) 
872363-17-2

>  <UNII>  (1) 
CV8JZR21A1

>  <SYNONYMS>  (1) 
Dipraglurant

$$$$
