
     RDKit          2D

 25 24  0  0  0  0  0  0  0  0999 V2000
    5.3513   -0.4119    0.0000 O   0  0  0  0  0  0  0  0  0  0  0  0
    5.3513    0.4119    0.0000 C   0  0  0  0  0  0  0  0  0  0  0  0
    6.0661    0.8240    0.0000 C   0  0  0  0  0  0  0  0  0  0  0  0
    6.7770    0.4119    0.0000 O   0  0  0  0  0  0  0  0  0  0  0  0
    6.0661    1.6478    0.0000 C   0  0  0  0  0  0  0  0  0  0  0  0
    5.3513    2.0597    0.0000 O   0  0  0  0  0  0  0  0  0  0  0  0
    4.6364   -0.8239    0.0000 C   0  0  0  0  0  0  0  0  0  0  0  0
    4.6364   -1.6478    0.0000 C   0  0  0  0  0  0  0  0  0  0  0  0
    3.9214   -2.0597    0.0000 C   0  0  0  0  0  0  0  0  0  0  0  0
    3.2107   -1.6478    0.0000 C   0  0  0  0  0  0  0  0  0  0  0  0
    2.4958   -2.0597    0.0000 C   0  0  0  0  0  0  0  0  0  0  0  0
    1.7851   -1.6478    0.0000 C   0  0  0  0  0  0  0  0  0  0  0  0
    1.0702   -2.0597    0.0000 C   0  0  0  0  0  0  0  0  0  0  0  0
    0.3553   -1.6478    0.0000 C   0  0  0  0  0  0  0  0  0  0  0  0
   -0.3595   -2.0597    0.0000 C   0  0  0  0  0  0  0  0  0  0  0  0
   -1.0703   -1.6478    0.0000 C   0  0  0  0  0  0  0  0  0  0  0  0
   -1.7852   -2.0597    0.0000 C   0  0  0  0  0  0  0  0  0  0  0  0
   -2.4959   -1.6478    0.0000 C   0  0  0  0  0  0  0  0  0  0  0  0
   -3.2108   -2.0597    0.0000 C   0  0  0  0  0  0  0  0  0  0  0  0
   -3.9257   -1.6478    0.0000 C   0  0  0  0  0  0  0  0  0  0  0  0
   -4.6407   -2.0597    0.0000 C   0  0  0  0  0  0  0  0  0  0  0  0
   -5.3514   -1.6478    0.0000 C   0  0  0  0  0  0  0  0  0  0  0  0
   -6.0662   -2.0597    0.0000 C   0  0  0  0  0  0  0  0  0  0  0  0
   -6.7770   -1.6478    0.0000 C   0  0  0  0  0  0  0  0  0  0  0  0
    3.9214   -0.4119    0.0000 O   0  0  0  0  0  0  0  0  0  0  0  0
  1  2  1  0
  1  7  1  0
  2  3  1  0
  3  4  1  0
  3  5  1  0
  5  6  1  0
  7  8  1  0
  7 25  2  0
  8  9  1  0
  9 10  1  0
 10 11  1  0
 11 12  1  0
 12 13  1  0
 13 14  1  0
 14 15  1  0
 15 16  1  0
 16 17  1  0
 17 18  1  0
 18 19  1  0
 19 20  1  0
 20 21  1  0
 21 22  1  0
 22 23  1  0
 23 24  1  0
M  END
>  <DRUGBANK_ID>  (1) 
DB11250

>  <SECONDARY_ACCESSION_NUMBERS>  (1) 
DBSALT001566

>  <COMMON_NAME>  (1) 
Glyceryl monostearate

>  <CAS_NUMBER>  (1) 
31566-31-1

>  <UNII>  (1) 
258491E1RZ

>  <SYNONYMS>  (1) 
Geleol mono and diglycerides; Glycerin monostearate; Glycerol monostearate; Glyceroli monostearas; Glyceryl monooctadecanoate; Glyceryl monopalmitostearate; Glyceryl stearate; Monoglyceryl stearate; Monostearate (glyceride); Monostearin; Stearic acid, monoester with glycerol; Stearoylglycerol

$$$$
