
     RDKit          2D

 29 34  0  0  1  0  0  0  0  0999 V2000
    6.0247   -9.1250    0.0000 C   0  0  0  0  0  0  0  0  0  0  0  0
    6.0247   -9.9500    0.0000 O   0  0  0  0  0  0  0  0  0  0  0  0
    6.8093  -10.2049    0.0000 C   0  0  0  0  0  0  0  0  0  0  0  0
    7.2943   -9.5375    0.0000 C   0  0  0  0  0  0  0  0  0  0  0  0
    6.8093   -8.8701    0.0000 C   0  0  0  0  0  0  0  0  0  0  0  0
    8.0789  -10.6175    0.0000 C   0  0  0  0  0  0  0  0  0  0  0  0
    8.0789   -9.7924    0.0000 C   0  0  0  0  0  0  0  0  0  0  0  0
    8.8635  -10.8723    0.0000 C   0  0  0  0  0  0  0  0  0  0  0  0
    9.3484  -10.2049    0.0000 C   0  0  0  0  0  0  0  0  0  0  0  0
    8.8635   -9.5375    0.0000 O   0  0  0  0  0  0  0  0  0  0  0  0
   10.1331  -10.4598    0.0000 O   0  0  0  0  0  0  0  0  0  0  0  0
   10.1331  -11.2848    0.0000 C   0  0  0  0  0  0  0  0  0  0  0  0
    9.3484  -11.5398    0.0000 C   0  0  0  0  0  0  0  0  0  0  0  0
    5.3572   -8.6401    0.0000 O   0  0  0  0  0  0  0  0  0  0  0  0
    7.2943  -10.8723    0.0000 C   0  0  0  0  0  0  0  0  0  0  0  0
    7.5939  -11.2848    0.0000 C   0  0  0  0  0  0  0  0  0  0  0  0
    8.8635  -11.6973    0.0000 C   0  0  0  0  0  0  0  0  0  0  0  0
    8.0789  -11.9523    0.0000 C   0  0  0  0  0  0  0  0  0  0  0  0
   10.7305  -11.6999    0.0000 O   0  0  0  0  0  0  0  0  0  0  0  0
    7.2758   -8.5344    0.0000 O   0  0  0  0  0  0  0  0  0  0  0  0
    6.7426   -8.0714    0.0000 C   0  0  0  0  0  0  0  0  0  0  0  0
    7.9284   -9.0750    0.0000 C   0  0  0  0  0  0  0  0  0  0  0  0
    7.4250  -10.0678    0.0000 O   0  0  0  0  0  0  0  0  0  0  0  0
    7.9284   -8.4318    0.0000 O   0  0  0  0  0  0  0  0  0  0  0  0
    9.7462  -12.2212    0.0000 O   0  0  0  0  0  0  0  0  0  0  0  0
    8.9212  -12.3890    0.0000 C   0  0  0  0  0  0  0  0  0  0  0  0
    8.4178  -13.0462    0.0000 C   0  0  0  0  0  0  0  0  0  0  0  0
    9.0750  -13.2140    0.0000 C   0  0  0  0  0  0  0  0  0  0  0  0
    9.5784  -12.8784    0.0000 C   0  0  0  0  0  0  0  0  0  0  0  0
  1  2  1  0
  1 14  2  0
  3  2  1  0
  3  4  1  0
  3 15  1  6
  4  5  1  0
  4 20  1  1
  5  1  1  0
  5 21  1  1
  6  7  1  0
  6  8  1  0
  6 15  1  6
  6 16  1  0
  7  4  1  0
  7 10  1  6
  7 22  1  0
  8  9  1  0
  8 17  1  0
  9 10  1  0
  9 11  1  0
 11 12  1  0
 12 13  1  0
 12 19  2  0
 13  8  1  0
 13 25  1  0
 16 18  1  0
 17 18  1  0
 17 26  1  0
 22 23  1  0
 22 24  2  0
 23 16  1  0
 26 27  1  0
 26 28  1  0
 26 29  1  0
M  END
>  <DRUGBANK_ID>  (1) 
DB06743

>  <COMMON_NAME>  (1) 
Ginkgolide A

>  <CAS_NUMBER>  (1) 
15291-75-5

>  <UNII>  (1) 
TAZ2DPR77B

>  <SYNONYMS>  (1) 
Ginkgolide-A

$$$$
