
     RDKit          2D

  7  7  0  0  0  0  0  0  0  0999 V2000
    0.9803   -0.1553    0.0000 C   0  0  0  0  0  0  0  0  0  0  0  0
    0.1553   -0.1553    0.0000 C   0  0  0  0  0  0  0  0  0  0  0  0
   -0.3297   -0.8227    0.0000 O   0  0  0  0  0  0  0  0  0  0  0  0
   -0.0997    0.6294    0.0000 N   0  0  0  0  0  0  0  0  0  0  0  0
    0.5678    1.1143    0.0000 C   0  0  0  0  0  0  0  0  0  0  0  0
    0.5678    1.9393    0.0000 O   0  0  0  0  0  0  0  0  0  0  0  0
    1.2352    0.6294    0.0000 S   0  0  0  0  0  0  0  0  0  0  0  0
  1  2  1  0
  1  7  1  0
  2  3  2  0
  2  4  1  0
  4  5  1  0
  5  6  2  0
  5  7  1  0
M  END
>  <DRUGBANK_ID>  (1) 
DB11898

>  <COMMON_NAME>  (1) 
2,4-thiazolidinedione

>  <CAS_NUMBER>  (1) 
2295-31-0

>  <UNII>  (1) 
AA68LXK93C

>  <SYNONYMS>  (1) 
Thiazolidinedione

$$$$
