
     RDKit          2D

 20 21  0  0  0  0  0  0  0  0999 V2000
    3.2933   -1.8043    0.0000 O   0  0  0  0  0  0  0  0  0  0  0  0
    2.8808   -1.0898    0.0000 C   0  0  0  0  0  0  0  0  0  0  0  0
    3.2933   -0.3753    0.0000 O   0  0  0  0  0  0  0  0  0  0  0  0
    2.0558   -1.0898    0.0000 C   0  0  0  0  0  0  0  0  0  0  0  0
    1.6433   -0.3753    0.0000 C   0  0  0  0  0  0  0  0  0  0  0  0
    2.0558    0.3390    0.0000 O   0  0  0  0  0  0  0  0  0  0  0  0
    0.8183   -0.3753    0.0000 C   0  0  0  0  0  0  0  0  0  0  0  0
    0.3334   -1.0428    0.0000 C   0  0  0  0  0  0  0  0  0  0  0  0
    0.5884   -1.8274    0.0000 C   0  0  0  0  0  0  0  0  0  0  0  0
   -0.4511   -0.7878    0.0000 O   0  0  0  0  0  0  0  0  0  0  0  0
   -0.4511    0.0371    0.0000 C   0  0  0  0  0  0  0  0  0  0  0  0
    0.3334    0.2920    0.0000 N   0  0  0  0  0  0  0  0  0  0  0  0
   -1.1185    0.5220    0.0000 C   0  0  0  0  0  0  0  0  0  0  0  0
   -1.8722    0.1864    0.0000 C   0  0  0  0  0  0  0  0  0  0  0  0
   -2.5397    0.6714    0.0000 C   0  0  0  0  0  0  0  0  0  0  0  0
   -3.2933    0.3358    0.0000 Cl  0  0  0  0  0  0  0  0  0  0  0  0
   -2.4534    1.4918    0.0000 C   0  0  0  0  0  0  0  0  0  0  0  0
   -1.6998    1.8274    0.0000 C   0  0  0  0  0  0  0  0  0  0  0  0
   -1.0323    1.3425    0.0000 C   0  0  0  0  0  0  0  0  0  0  0  0
   -0.2786    1.6780    0.0000 O   0  0  0  0  0  0  0  0  0  0  0  0
  1  2  1  0
  2  3  2  0
  2  4  1  0
  5  4  1  0
  5  6  1  6
  7  5  1  0
  7  8  1  0
  7 12  1  1
  8  9  1  6
  8 10  1  0
 10 11  1  0
 11 12  2  0
 11 13  1  0
 13 14  2  0
 13 19  1  0
 14 15  1  0
 15 16  1  0
 15 17  2  0
 17 18  1  0
 18 19  2  0
 19 20  1  0
M  END
>  <DRUGBANK_ID>  (1) 
DB15551

>  <COMMON_NAME>  (1) 
Leptazoline A

$$$$
