
     RDKit          2D

 18 17  0  0  0  0  0  0  0  0999 V2000
   -2.5043    0.4933    0.0000 N   0  0  0  0  0  0  0  0  0  0  0  0
   -1.7860    0.8991    0.0000 C   0  0  0  0  0  0  0  0  0  0  0  0
   -3.2219    0.8974    0.0000 C   0  0  0  0  0  0  0  0  0  0  0  0
   -2.5148   -0.3253    0.0000 C   0  0  0  0  0  0  0  0  0  0  0  0
   -1.0696    0.4897    0.0000 C   0  0  0  0  0  0  0  0  0  0  0  0
   -3.9396    0.5211    0.0000 C   0  0  0  0  0  0  0  0  0  0  0  0
   -3.2219   -0.7294    0.0000 C   0  0  0  0  0  0  0  0  0  0  0  0
   -0.3466    0.8874    0.0000 N   0  0  0  0  0  0  0  0  0  0  0  0
   -1.0696   -0.3287    0.0000 O   0  0  0  0  0  0  0  0  0  0  0  0
   -3.9291   -0.3044    0.0000 C   0  0  0  0  0  0  0  0  0  0  0  0
    0.3643    0.4689    0.0000 C   0  0  0  0  0  0  0  0  0  0  0  0
    1.0925    0.8731    0.0000 C   0  0  0  0  0  0  0  0  0  0  0  0
    1.8107    0.4671    0.0000 O   0  0  0  0  0  0  0  0  0  0  0  0
    2.5316    0.8685    0.0000 C   0  0  0  0  0  0  0  0  0  0  0  0
    3.2396    0.4448    0.0000 C   0  0  0  0  0  0  0  0  0  0  0  0
    2.5421    1.6975    0.0000 O   0  0  0  0  0  0  0  0  0  0  0  0
    3.9396    0.8815    0.0000 C   0  0  0  0  0  0  0  0  0  0  0  0
   -1.8669   -1.6975    0.0000 Cl  0  0  0  0  0  0  0  0  0  0  0  0
  1  2  1  0
  1  3  2  0
  1  4  1  0
  2  5  1  0
  3  6  1  0
  4  7  2  0
  5  8  1  0
  5  9  2  0
  6 10  2  0
  7 10  1  0
  8 11  1  0
 11 12  1  0
 12 13  1  0
 13 14  1  0
 14 15  1  0
 14 16  2  0
 15 17  1  0
M  CHG  2   1   1  18  -1
M  END
>  <DRUGBANK_ID>  (1) 
DB09377

>  <COMMON_NAME>  (1) 
Undecoylium chloride iodine complex

>  <CAS_NUMBER>  (1) 
1338-54-1

>  <UNII>  (1) 
O4CEK7FP0D

>  <SYNONYMS>  (1) 
Undecoylium chloride-iodine

$$$$
