
     RDKit          2D

 21 21  0  0  0  0  0  0  0  0999 V2000
   -1.0712    0.4146    0.0000 C   0  0  0  0  0  0  0  0  0  0  0  0
   -0.3593    0.8293    0.0000 C   0  0  0  0  0  0  0  0  0  0  0  0
   -1.0712   -0.4112    0.0000 C   0  0  0  0  0  0  0  0  0  0  0  0
   -1.7830    0.8259    0.0000 C   0  0  0  0  0  0  0  0  0  0  0  0
    0.3559    0.4181    0.0000 C   0  0  0  0  0  0  0  0  0  0  0  0
   -0.3628    1.6518    0.0000 O   0  0  0  0  0  0  0  0  0  0  0  0
   -1.7796   -0.8224    0.0000 C   0  0  0  0  0  0  0  0  0  0  0  0
   -2.4984    0.4146    0.0000 C   0  0  0  0  0  0  0  0  0  0  0  0
    0.3559   -0.4043    0.0000 N   0  0  0  0  0  0  0  0  0  0  0  0
    1.0713    0.8329    0.0000 C   0  0  0  0  0  0  0  0  0  0  0  0
   -2.4950   -0.4146    0.0000 C   0  0  0  0  0  0  0  0  0  0  0  0
    1.0713   -0.8155    0.0000 C   0  0  0  0  0  0  0  0  0  0  0  0
    1.7831    0.4250    0.0000 O   0  0  0  0  0  0  0  0  0  0  0  0
   -3.2103   -0.8258    0.0000 N   0  0  0  0  0  0  0  0  0  0  0  0
    1.7831   -0.4043    0.0000 C   0  0  0  0  0  0  0  0  0  0  0  0
    1.0713   -1.6449    0.0000 O   0  0  0  0  0  0  0  0  0  0  0  0
   -3.2137   -1.6518    0.0000 O   0  0  0  0  0  0  0  0  0  0  0  0
   -3.9257   -0.4112    0.0000 O   0  0  0  0  0  0  0  0  0  0  0  0
    2.4985   -0.8155    0.0000 N   0  0  0  0  0  0  0  0  0  0  0  0
    3.2103   -0.3973    0.0000 N   0  0  0  0  0  0  0  0  0  0  0  0
    3.9257    0.0173    0.0000 N   0  0  0  0  0  0  0  0  0  0  0  0
  1  2  1  0
  1  3  2  0
  1  4  1  0
  2  5  1  0
  2  6  1  1
  3  7  1  0
  4  8  2  0
  5  9  1  0
  5 10  1  1
  7 11  2  0
  8 11  1  0
  9 12  1  0
 10 13  1  0
 11 14  1  0
 12 15  1  0
 12 16  2  0
 14 17  2  0
 14 18  1  0
 15 19  1  0
 19 20  2  0
 20 21  2  0
M  CHG  4  14   1  18  -1  20   1  21  -1
M  END
>  <DRUGBANK_ID>  (1) 
DB13294

>  <COMMON_NAME>  (1) 
Azidamfenicol

>  <CAS_NUMBER>  (1) 
13838-08-9

>  <UNII>  (1) 
40257685LM

>  <SYNONYMS>  (1) 
Azidamfenicol; Azidamfenicolum; Azidanfenicol

$$$$
