
     RDKit          2D

 12 11  0  0  0  0  0  0  0  0999 V2000
   13.9596   -9.6772    0.0000 C   0  0  0  0  0  0  0  0  0  0  0  0
   13.1269   -9.6772    0.0000 P   0  0  0  0  0  0  0  0  0  0  0  0
   14.3707  -10.3924    0.0000 C   0  0  0  0  0  0  0  0  0  0  0  0
   14.3707   -8.9619    0.0000 O   0  0  0  0  0  0  0  0  0  0  0  0
   12.2977   -9.6772    0.0000 O   0  0  0  0  0  0  0  0  0  0  0  0
   13.1269  -10.5099    0.0000 O   0  0  0  0  0  0  0  0  0  0  0  0
   13.1269   -8.8479    0.0000 O   0  0  0  0  0  0  0  0  0  0  0  0
   13.9596  -11.1077    0.0000 Cl  0  0  0  0  0  0  0  0  0  0  0  0
   15.1966  -10.3924    0.0000 Cl  0  0  0  0  0  0  0  0  0  0  0  0
   14.9547  -10.9763    0.0000 Cl  0  0  0  0  0  0  0  0  0  0  0  0
   11.8899   -8.9619    0.0000 C   0  0  0  0  0  0  0  0  0  0  0  0
   12.4117  -10.9210    0.0000 C   0  0  0  0  0  0  0  0  0  0  0  0
  1  2  1  0
  1  3  1  0
  1  4  1  0
  2  5  1  0
  2  6  1  0
  2  7  2  0
  3  8  1  0
  3  9  1  0
  3 10  1  0
  5 11  1  0
  6 12  1  0
M  END
>  <DRUGBANK_ID>  (1) 
DB11473

>  <COMMON_NAME>  (1) 
Metrifonate

>  <CAS_NUMBER>  (1) 
52-68-6

>  <UNII>  (1) 
DBF2DG4G2K

>  <SYNONYMS>  (1) 
(±)-Trichlorfon; 1-Hydroxy-2,2,2-trichloroethylphosphonic acid dimethyl ester; Chlorophos; Methyl chlorophos; Metrifonate; Métrifonate; Metrifonato; Metrifonatum; Trichlorfon

$$$$
