
     RDKit          2D

 21 22  0  0  0  0  0  0  0  0999 V2000
   -1.7416   -0.4533    0.0000 C   0  0  0  0  0  0  0  0  0  0  0  0
   -2.1024    0.2873    0.0000 C   0  0  0  0  0  0  0  0  0  0  0  0
   -1.0360   -0.0159    0.0000 C   0  0  0  0  0  0  0  0  0  0  0  0
   -1.2435   -1.1174    0.0000 C   0  0  0  0  0  0  0  0  0  0  0  0
   -2.5302   -0.7215    0.0000 C   0  0  0  0  0  0  0  0  0  0  0  0
   -1.6138    0.9706    0.0000 C   0  0  0  0  0  0  0  0  0  0  0  0
   -2.9101    0.3703    0.0000 C   0  0  0  0  0  0  0  0  0  0  0  0
   -0.3081   -0.4342    0.0000 O   0  0  0  0  0  0  0  0  0  0  0  0
   -1.0488    0.7981    0.0000 O   0  0  0  0  0  0  0  0  0  0  0  0
   -1.7225   -1.7879    0.0000 C   0  0  0  0  0  0  0  0  0  0  0  0
   -2.5110   -1.5453    0.0000 C   0  0  0  0  0  0  0  0  0  0  0  0
   -1.9618    1.7113    0.0000 C   0  0  0  0  0  0  0  0  0  0  0  0
   -3.2581    1.1110    0.0000 C   0  0  0  0  0  0  0  0  0  0  0  0
    0.3879    0.0000    0.0000 C   0  0  0  0  0  0  0  0  0  0  0  0
   -2.7952    1.7879    0.0000 C   0  0  0  0  0  0  0  0  0  0  0  0
    1.1127   -0.4054    0.0000 C   0  0  0  0  0  0  0  0  0  0  0  0
    1.8342    0.0191    0.0000 N   0  0  0  0  0  0  0  0  0  0  0  0
    2.5463   -0.3767    0.0000 C   0  0  0  0  0  0  0  0  0  0  0  0
    1.8055    0.8429    0.0000 C   0  0  0  0  0  0  0  0  0  0  0  0
    3.2581    0.0446    0.0000 C   0  0  0  0  0  0  0  0  0  0  0  0
    2.5271    1.2675    0.0000 C   0  0  0  0  0  0  0  0  0  0  0  0
  1  2  1  0
  1  3  1  0
  1  4  1  0
  1  5  1  0
  2  6  2  0
  2  7  1  0
  3  8  1  0
  3  9  2  0
  4 10  1  0
  5 11  1  0
  6 12  1  0
  7 13  2  0
  8 14  1  0
 10 11  1  0
 12 15  2  0
 13 15  1  0
 14 16  1  0
 16 17  1  0
 17 18  1  0
 17 19  1  0
 18 20  1  0
 19 21  1  0
M  END
>  <DRUGBANK_ID>  (1) 
DB11504

>  <COMMON_NAME>  (1) 
Caramiphen

>  <CAS_NUMBER>  (1) 
77-22-5

>  <UNII>  (1) 
97J7NP0XJY

>  <SYNONYMS>  (1) 
Caramifenio; Caramiphen; Caramiphenum

$$$$
