
     RDKit          2D

 22 25  0  0  1  0  0  0  0  0999 V2000
    8.6275    0.3477    0.0000 Br  0  0  0  0  0  0  0  0  0  0  0  0
    2.0917   -1.7578    0.0000 O   0  0  0  0  0  0  0  0  0  0  0  0
    7.5775    1.7956    0.0000 O   0  0  0  0  0  0  0  0  0  0  0  0
    5.1119   -0.0648    0.0000 C   0  0  0  0  0  0  0  0  0  0  0  0
    4.3612   -0.4829    0.0000 C   0  0  0  0  0  0  0  0  0  0  0  0
    5.8262   -0.4772    0.0000 C   0  0  0  0  0  0  0  0  0  0  0  0
    6.5406   -0.0648    0.0000 C   0  0  0  0  0  0  0  0  0  0  0  0
    4.3545   -1.3421    0.0000 C   0  0  0  0  0  0  0  0  0  0  0  0
    6.5406    0.7602    0.0000 C   0  0  0  0  0  0  0  0  0  0  0  0
    5.1119    0.7602    0.0000 C   0  0  0  0  0  0  0  0  0  0  0  0
    5.8395   -1.3363    0.0000 C   0  0  0  0  0  0  0  0  0  0  0  0
    5.8262    1.1727    0.0000 C   0  0  0  0  0  0  0  0  0  0  0  0
    5.0987   -1.7718    0.0000 C   0  0  0  0  0  0  0  0  0  0  0  0
    3.5966   -0.0176    0.0000 C   0  0  0  0  0  0  0  0  0  0  0  0
    7.3211   -0.3162    0.0000 C   0  0  0  0  0  0  0  0  0  0  0  0
    3.5829   -1.7956    0.0000 C   0  0  0  0  0  0  0  0  0  0  0  0
    4.3676    0.3421    0.0000 C   0  0  0  0  0  0  0  0  0  0  0  0
    7.3211    1.0115    0.0000 C   0  0  0  0  0  0  0  0  0  0  0  0
    7.8026    0.3477    0.0000 C   0  0  0  0  0  0  0  0  0  0  0  0
    2.8147   -0.4531    0.0000 C   0  0  0  0  0  0  0  0  0  0  0  0
    2.8078   -1.3480    0.0000 C   0  0  0  0  0  0  0  0  0  0  0  0
    6.5406    1.5851    0.0000 C   0  0  0  0  0  0  0  0  0  0  0  0
  3 18  2  0
  4  5  1  0
  4  6  1  0
  4 10  1  1
  5  8  1  0
  5 14  1  0
  5 17  1  1
  6  7  1  0
  6 11  1  6
  7  9  1  0
  7 15  1  1
  8 13  1  1
  8 16  1  0
  9 12  1  0
  9 18  1  0
  9 22  1  1
 10 12  1  0
 11 13  1  0
 14 20  1  0
 15 19  1  0
 16 21  1  0
 18 19  1  0
 19  1  1  6
 20 21  1  0
 21  2  1  1
M  END
>  <DRUGBANK_ID>  (1) 
DB05107

>  <COMMON_NAME>  (1) 
16-Bromoepiandrosterone

>  <CAS_NUMBER>  (1) 
28507-02-0

>  <UNII>  (1) 
9735KA370S

>  <SYNONYMS>  (1) 
16alpha-bromoepiandrosterone

$$$$
