
     RDKit          2D

 32 33  0  0  0  0  0  0  0  0999 V2000
    2.8295    1.2219    0.0000 C   0  0  0  0  0  0  0  0  0  0  0  0
    2.8295    0.3968    0.0000 C   0  0  0  0  0  0  0  0  0  0  0  0
    2.1149   -0.0156    0.0000 C   0  0  0  0  0  0  0  0  0  0  0  0
    1.4003    0.3968    0.0000 C   0  0  0  0  0  0  0  0  0  0  0  0
    1.4003    1.2219    0.0000 C   0  0  0  0  0  0  0  0  0  0  0  0
    2.1149    1.6345    0.0000 C   0  0  0  0  0  0  0  0  0  0  0  0
    0.6748    1.6410    0.0000 C   0  0  0  0  0  0  0  0  0  0  0  0
   -0.0353    1.2309    0.0000 C   0  0  0  0  0  0  0  0  0  0  0  0
   -0.7321    1.6334    0.0000 N   0  0  0  0  0  0  0  0  0  0  0  0
   -1.4359    1.2271    0.0000 C   0  0  0  0  0  0  0  0  0  0  0  0
   -2.1359    1.6315    0.0000 C   0  0  0  0  0  0  0  0  0  0  0  0
   -2.8378    1.2261    0.0000 C   0  0  0  0  0  0  0  0  0  0  0  0
   -3.5388    1.6309    0.0000 C   0  0  0  0  0  0  0  0  0  0  0  0
   -4.2439    1.2208    0.0000 C   0  0  0  0  0  0  0  0  0  0  0  0
   -4.2486    0.4110    0.0000 C   0  0  0  0  0  0  0  0  0  0  0  0
   -3.5496    0.0021    0.0000 O   0  0  0  0  0  0  0  0  0  0  0  0
    0.6748    2.4661    0.0000 O   0  0  0  0  0  0  0  0  0  0  0  0
   -2.8460    0.4030    0.0000 C   0  0  0  0  0  0  0  0  0  0  0  0
   -2.1470   -0.0057    0.0000 C   0  0  0  0  0  0  0  0  0  0  0  0
   -1.4435    0.3950    0.0000 O   0  0  0  0  0  0  0  0  0  0  0  0
   -0.7444   -0.0137    0.0000 C   0  0  0  0  0  0  0  0  0  0  0  0
   -0.7490   -0.8236    0.0000 C   0  0  0  0  0  0  0  0  0  0  0  0
   -0.0500   -1.2324    0.0000 C   0  0  0  0  0  0  0  0  0  0  0  0
   -0.0546   -2.0574    0.0000 C   0  0  0  0  0  0  0  0  0  0  0  0
   -0.7715   -2.4661    0.0000 C   0  0  0  0  0  0  0  0  0  0  0  0
   -1.4705   -2.0571    0.0000 C   0  0  0  0  0  0  0  0  0  0  0  0
   -1.4659   -1.2320    0.0000 C   0  0  0  0  0  0  0  0  0  0  0  0
   -2.1912   -0.8078    0.0000 Cl  0  0  0  0  0  0  0  0  0  0  0  0
    0.6701   -0.8221    0.0000 Cl  0  0  0  0  0  0  0  0  0  0  0  0
    3.5441    1.6345    0.0000 C   0  0  0  0  0  0  0  0  0  0  0  0
    4.2486    1.2276    0.0000 O   0  0  0  0  0  0  0  0  0  0  0  0
    3.5441   -0.0156    0.0000 O   0  0  0  0  0  0  0  0  0  0  0  0
  1  2  2  0
  1  6  1  0
  1 30  1  0
  2  3  1  0
  2 32  1  0
  3  4  2  0
  4  5  1  0
  5  6  2  0
  5  7  1  0
  7  8  1  0
  7 17  1  6
  8  9  1  0
  9 10  1  0
 10 11  1  0
 11 12  1  0
 12 13  1  0
 13 14  1  0
 14 15  1  0
 15 16  1  0
 16 18  1  0
 18 19  1  0
 19 20  1  0
 20 21  1  0
 21 22  1  0
 22 23  2  0
 22 27  1  0
 23 24  1  0
 23 29  1  0
 24 25  2  0
 25 26  1  0
 26 27  2  0
 27 28  1  0
 30 31  1  0
M  END
>  <DRUGBANK_ID>  (1) 
DB09082

>  <SECONDARY_ACCESSION_NUMBERS>  (1) 
DB06577

>  <COMMON_NAME>  (1) 
Vilanterol

>  <CAS_NUMBER>  (1) 
503068-34-6

>  <UNII>  (1) 
028LZY775B

>  <SYNONYMS>  (1) 
Vilanterol; Vilant√©rol; Vilanterolum

$$$$
