
     RDKit          2D

 31 34  0  0  0  0  0  0  0  0999 V2000
   -1.6659    2.3984    0.0000 N   0  0  0  0  0  0  0  0  0  0  0  0
   -1.1809    1.7309    0.0000 C   0  0  0  0  0  0  0  0  0  0  0  0
   -1.6659    1.0635    0.0000 C   0  0  0  0  0  0  0  0  0  0  0  0
   -2.4506    1.3184    0.0000 C   0  0  0  0  0  0  0  0  0  0  0  0
   -3.1650    0.9059    0.0000 C   0  0  0  0  0  0  0  0  0  0  0  0
   -3.8795    1.3184    0.0000 C   0  0  0  0  0  0  0  0  0  0  0  0
   -3.8795    2.1434    0.0000 C   0  0  0  0  0  0  0  0  0  0  0  0
   -3.1650    2.5559    0.0000 C   0  0  0  0  0  0  0  0  0  0  0  0
   -2.4506    2.1434    0.0000 C   0  0  0  0  0  0  0  0  0  0  0  0
   -0.3560    1.7309    0.0000 C   0  0  0  0  0  0  0  0  0  0  0  0
    0.0564    2.4454    0.0000 O   0  0  0  0  0  0  0  0  0  0  0  0
    0.0564    1.0164    0.0000 N   0  0  0  0  0  0  0  0  0  0  0  0
    0.8814    1.0164    0.0000 C   0  0  0  0  0  0  0  0  0  0  0  0
    1.2939    1.7309    0.0000 C   0  0  0  0  0  0  0  0  0  0  0  0
    0.8814    2.4454    0.0000 O   0  0  0  0  0  0  0  0  0  0  0  0
    2.1189    1.7309    0.0000 N   0  0  0  0  0  0  0  0  0  0  0  0
    2.5314    2.4454    0.0000 C   0  0  0  0  0  0  0  0  0  0  0  0
    3.3564    2.4454    0.0000 C   0  0  0  0  0  0  0  0  0  0  0  0
    3.7690    1.7309    0.0000 C   0  0  0  0  0  0  0  0  0  0  0  0
    3.3564    1.0164    0.0000 C   0  0  0  0  0  0  0  0  0  0  0  0
    2.5314    1.0164    0.0000 C   0  0  0  0  0  0  0  0  0  0  0  0
    4.5940    1.7309    0.0000 O   0  0  0  0  0  0  0  0  0  0  0  0
    1.2939    0.3020    0.0000 C   0  0  0  0  0  0  0  0  0  0  0  0
    0.8814   -0.4124    0.0000 C   0  0  0  0  0  0  0  0  0  0  0  0
    1.2939   -1.1269    0.0000 C   0  0  0  0  0  0  0  0  0  0  0  0
    0.8814   -1.8413    0.0000 C   0  0  0  0  0  0  0  0  0  0  0  0
    0.0564   -1.8413    0.0000 C   0  0  0  0  0  0  0  0  0  0  0  0
   -0.3560   -1.1269    0.0000 C   0  0  0  0  0  0  0  0  0  0  0  0
    0.0564   -0.4124    0.0000 C   0  0  0  0  0  0  0  0  0  0  0  0
   -0.3560   -2.5558    0.0000 F   0  0  0  0  0  0  0  0  0  0  0  0
   -4.5940    0.9059    0.0000 Cl  0  0  0  0  0  0  0  0  0  0  0  0
  1  2  1  0
  1  9  1  0
  2  3  2  0
  2 10  1  0
  3  4  1  0
  4  5  1  0
  4  9  2  0
  5  6  2  0
  6  7  1  0
  6 31  1  0
  7  8  2  0
  8  9  1  0
 10 11  2  0
 10 12  1  0
 13 14  1  0
 13 23  1  6
 13 12  1  0
 14 15  2  0
 14 16  1  0
 16 17  1  0
 16 21  1  0
 17 18  1  0
 18 19  1  0
 19 20  1  0
 19 22  1  0
 20 21  1  0
 23 24  1  0
 24 25  2  0
 24 29  1  0
 25 26  1  0
 26 27  2  0
 27 28  1  0
 27 30  1  0
 28 29  2  0
M  END
>  <DRUGBANK_ID>  (1) 
DB03383

>  <SECONDARY_ACCESSION_NUMBERS>  (1) 
EXPT00907

>  <COMMON_NAME>  (1) 
CP-320626

>  <CAS_NUMBER>  (1) 
186430-23-9

>  <UNII>  (1) 
FKX709RK3Q

$$$$
