5B2
     RDKit          2D

 16 18  0  0  0  0  0  0  0  0999 V2000
   -1.4074   -0.2019    0.0000 C   0  0  0  0  0  0  0  0  0  0  0  0
   -0.6929    0.2106    0.0000 C   0  0  0  0  0  0  0  0  0  0  0  0
   -2.1920    0.0531    0.0000 C   0  0  0  0  0  0  0  0  0  0  0  0
   -2.4469    0.8377    0.0000 N   0  0  0  0  0  0  0  0  0  0  0  0
    0.0216   -0.2019    0.0000 C   0  0  0  0  0  0  0  0  0  0  0  0
    0.0216   -1.0269    0.0000 C   0  0  0  0  0  0  0  0  0  0  0  0
   -0.6929   -1.4394    0.0000 C   0  0  0  0  0  0  0  0  0  0  0  0
   -1.4074   -1.0269    0.0000 C   0  0  0  0  0  0  0  0  0  0  0  0
   -2.1920   -1.2818    0.0000 N   0  0  0  0  0  0  0  0  0  0  0  0
   -2.6769   -0.6144    0.0000 N   0  0  0  0  0  0  0  0  0  0  0  0
    0.7360    0.2106    0.0000 C   0  0  0  0  0  0  0  0  0  0  0  0
    0.7360    1.0356    0.0000 C   0  0  0  0  0  0  0  0  0  0  0  0
    1.4505    1.4481    0.0000 C   0  0  0  0  0  0  0  0  0  0  0  0
    2.1650    1.0356    0.0000 C   0  0  0  0  0  0  0  0  0  0  0  0
    2.1650    0.2106    0.0000 C   0  0  0  0  0  0  0  0  0  0  0  0
    1.4505   -0.2019    0.0000 C   0  0  0  0  0  0  0  0  0  0  0  0
  1  2  2  0
  1  3  1  0
  1  8  1  0
  2  5  1  0
  3  4  1  0
  3 10  2  0
  5  6  2  0
  5 11  1  0
  6  7  1  0
  7  8  2  0
  8  9  1  0
  9 10  1  0
 11 12  2  0
 11 16  1  0
 12 13  1  0
 13 14  2  0
 14 15  1  0
 15 16  2  0
M  END
>  <DRUGBANK_ID>  (1) 
DB07161

>  <COMMON_NAME>  (1) 
5-phenyl-1H-indazol-3-amine

$$$$
