
     RDKit          2D

  9  8  0  0  0  0  0  0  0  0999 V2000
   -1.4279   -0.0063    0.0000 O   0  0  0  0  0  0  0  0  0  0  0  0
   -0.7139    0.4070    0.0000 C   0  0  0  0  0  0  0  0  0  0  0  0
    0.0000   -0.0020    0.0000 C   0  0  0  0  0  0  0  0  0  0  0  0
    0.7139    0.4113    0.0000 N   0  0  0  0  0  0  0  0  0  0  0  0
    1.4279    0.0020    0.0000 O   0  0  0  0  0  0  0  0  0  0  0  0
   -0.7180   -0.4113    0.0000 C   0  0  0  0  0  0  0  0  0  0  0  0
    0.7139   -0.4155    0.0000 Br  0  0  0  0  0  0  0  0  0  0  0  0
   -0.7222   -1.2379    0.0000 O   0  0  0  0  0  0  0  0  0  0  0  0
    0.7121    1.2379    0.0000 O   0  0  0  0  0  0  0  0  0  0  0  0
  1  2  1  0
  2  3  1  0
  3  6  1  0
  3  7  1  0
  3  4  1  0
  4  5  1  0
  4  9  2  0
  6  8  1  0
M  CHG  2   4   1   5  -1
M  END
>  <DRUGBANK_ID>  (1) 
DB13960

>  <COMMON_NAME>  (1) 
Bronopol

>  <CAS_NUMBER>  (1) 
52-51-7

>  <UNII>  (1) 
6PU1E16C9W

>  <SYNONYMS>  (1) 
2-Bromo-2-nitropropane-1,3-diol; 2-Nitro-2-bromo-1,3-propanediol; beta-Bromo-beta-nitrotrimethyleneglycol; Bronopol; Bronopolu; Bronopolum

$$$$
