
     RDKit          2D

 19 21  0  0  0  0  0  0  0  0999 V2000
    5.7158    0.8250    0.0000 C   0  0  0  0  0  0  0  0  0  0  0  0
    0.7145   -0.4125    0.0000 C   0  0  0  0  0  0  0  0  0  0  0  0
    1.4289    0.0000    0.0000 C   0  0  0  0  0  0  0  0  0  0  0  0
    5.0013   -1.2375    0.0000 C   0  0  0  0  0  0  0  0  0  0  0  0
    4.2868   -1.6500    0.0000 C   0  0  0  0  0  0  0  0  0  0  0  0
    0.7145   -1.2375    0.0000 C   0  0  0  0  0  0  0  0  0  0  0  0
    4.2868    0.0000    0.0000 C   0  0  0  0  0  0  0  0  0  0  0  0
    2.8579    0.0000    0.0000 C   0  0  0  0  0  0  0  0  0  0  0  0
    5.7158    0.0000    0.0000 C   0  0  0  0  0  0  0  0  0  0  0  0
    5.0013   -0.4125    0.0000 C   0  0  0  0  0  0  0  0  0  0  0  0
    2.1434   -0.4125    0.0000 C   0  0  0  0  0  0  0  0  0  0  0  0
    3.5724   -0.4125    0.0000 C   0  0  0  0  0  0  0  0  0  0  0  0
    3.5724   -1.2375    0.0000 C   0  0  0  0  0  0  0  0  0  0  0  0
    2.1434   -1.2375    0.0000 C   0  0  0  0  0  0  0  0  0  0  0  0
    6.4302   -0.4125    0.0000 C   0  0  0  0  0  0  0  0  0  0  0  0
    1.4289   -1.6500    0.0000 N   0  0  0  0  0  0  0  0  0  0  0  0
    7.1447    0.0000    0.0000 O   0  0  0  0  0  0  0  0  0  0  0  0
    6.4302   -1.2375    0.0000 O   0  0  0  0  0  0  0  0  0  0  0  0
    2.8579   -1.6500    0.0000 O   0  0  0  0  0  0  0  0  0  0  0  0
  3  2  2  0
  5  4  1  0
  6  2  1  0
  9  1  1  0
 10  4  2  0
 10  7  1  0
 10  9  1  0
 11  3  1  0
 11  8  1  0
 12  7  2  0
 12  8  1  0
 13  5  2  0
 13 12  1  0
 14 11  2  0
 15  9  1  0
 16  6  2  0
 16 14  1  0
 17 15  2  0
 18 15  1  0
 19 13  1  0
 19 14  1  0
M  END
>  <DRUGBANK_ID>  (1) 
DB13514

>  <COMMON_NAME>  (1) 
Pranoprofen

>  <CAS_NUMBER>  (1) 
52549-17-4

>  <UNII>  (1) 
2R7O1ET613

>  <SYNONYMS>  (1) 
Pranoprofen

$$$$
