870
     RDKit          2D

 30 33  0  0  0  0  0  0  0  0999 V2000
   -4.1495    2.4319    0.0000 C   0  0  0  0  0  0  0  0  0  0  0  0
   -3.7370    3.1464    0.0000 C   0  0  0  0  0  0  0  0  0  0  0  0
   -2.9120    3.1464    0.0000 C   0  0  0  0  0  0  0  0  0  0  0  0
   -2.4995    2.4319    0.0000 C   0  0  0  0  0  0  0  0  0  0  0  0
   -2.9120    1.7174    0.0000 C   0  0  0  0  0  0  0  0  0  0  0  0
   -3.7370    1.7174    0.0000 C   0  0  0  0  0  0  0  0  0  0  0  0
   -2.4995    1.0030    0.0000 S   0  0  0  0  0  0  0  0  0  0  0  0
   -3.2140    0.5905    0.0000 O   0  0  0  0  0  0  0  0  0  0  0  0
   -1.7850    1.4155    0.0000 O   0  0  0  0  0  0  0  0  0  0  0  0
   -2.0870    0.2885    0.0000 N   0  0  0  0  0  0  0  0  0  0  0  0
   -1.2620    0.2885    0.0000 C   0  0  0  0  0  0  0  0  0  0  0  0
   -0.7771    0.9559    0.0000 N   0  0  0  0  0  0  0  0  0  0  0  0
    0.0075    0.7010    0.0000 C   0  0  0  0  0  0  0  0  0  0  0  0
    0.7220    1.1135    0.0000 C   0  0  0  0  0  0  0  0  0  0  0  0
    1.4365    0.7010    0.0000 C   0  0  0  0  0  0  0  0  0  0  0  0
    1.4365   -0.1240    0.0000 C   0  0  0  0  0  0  0  0  0  0  0  0
    0.7220   -0.5365    0.0000 C   0  0  0  0  0  0  0  0  0  0  0  0
    0.0075   -0.1240    0.0000 C   0  0  0  0  0  0  0  0  0  0  0  0
   -0.7771   -0.3789    0.0000 O   0  0  0  0  0  0  0  0  0  0  0  0
   -2.4995    3.8608    0.0000 Cl  0  0  0  0  0  0  0  0  0  0  0  0
   -4.1495    1.0030    0.0000 Cl  0  0  0  0  0  0  0  0  0  0  0  0
    2.1510    1.1135    0.0000 O   0  0  0  0  0  0  0  0  0  0  0  0
    2.8654    0.7010    0.0000 C   0  0  0  0  0  0  0  0  0  0  0  0
    1.4365   -2.5990    0.0000 C   0  0  0  0  0  0  0  0  0  0  0  0
    0.7220   -3.0115    0.0000 C   0  0  0  0  0  0  0  0  0  0  0  0
    0.0075   -2.5990    0.0000 C   0  0  0  0  0  0  0  0  0  0  0  0
    0.0075   -1.7740    0.0000 C   0  0  0  0  0  0  0  0  0  0  0  0
    0.7220   -1.3615    0.0000 C   0  0  0  0  0  0  0  0  0  0  0  0
    1.4365   -1.7740    0.0000 C   0  0  0  0  0  0  0  0  0  0  0  0
   -0.7069   -3.0115    0.0000 N   0  0  0  0  0  0  0  0  0  0  0  0
  1  2  2  0
  1  6  1  0
  2  3  1  0
  3  4  2  0
  3 20  1  0
  4  5  1  0
  5  6  2  0
  5  7  1  0
  6 21  1  0
  7  8  2  0
  7  9  2  0
  7 10  1  0
 10 11  1  0
 11 12  2  0
 11 19  1  0
 12 13  1  0
 13 14  2  0
 13 18  1  0
 14 15  1  0
 15 16  2  0
 15 22  1  0
 16 17  1  0
 17 18  2  0
 17 28  1  0
 18 19  1  0
 22 23  1  0
 24 25  2  0
 24 29  1  0
 25 26  1  0
 26 27  2  0
 26 30  1  0
 27 28  1  0
 28 29  2  0
M  END
>  <DRUGBANK_ID>  (1) 
DB07270

>  <COMMON_NAME>  (1) 
N-[7-(3-AMINOPHENYL)-5-METHOXY-1,3-BENZOXAZOL-2-YL]-2,5-DICHLOROBENZENESULFONAMIDE

$$$$
