
     RDKit          2D

 35 37  0  0  0  0  0  0  0  0999 V2000
    0.7144    2.6812    0.0000 S   0  0  0  0  0  0  0  0  0  0  0  0
   -0.7144    0.2062    0.0000 O   0  0  0  0  0  0  0  0  0  0  0  0
    0.0000    0.6187    0.0000 O   0  0  0  0  0  0  0  0  0  0  0  0
   -0.7144   -0.6187    0.0000 O   0  0  0  0  0  0  0  0  0  0  0  0
   -1.4289   -1.8562    0.0000 O   0  0  0  0  0  0  0  0  0  0  0  0
   -2.8579   -4.3312    0.0000 O   0  0  0  0  0  0  0  0  0  0  0  0
   -0.7144    1.8562    0.0000 N   0  0  0  0  0  0  0  0  0  0  0  0
   -2.1433    0.2062    0.0000 N   0  0  0  0  0  0  0  0  0  0  0  0
   -1.4289    1.4437    0.0000 C   0  0  0  0  0  0  0  0  0  0  0  0
   -2.1433    1.8562    0.0000 C   0  0  0  0  0  0  0  0  0  0  0  0
   -2.1433   -0.6187    0.0000 C   0  0  0  0  0  0  0  0  0  0  0  0
   -1.4289    0.6187    0.0000 C   0  0  0  0  0  0  0  0  0  0  0  0
   -2.8579   -1.0312    0.0000 C   0  0  0  0  0  0  0  0  0  0  0  0
   -2.1433    2.6812    0.0000 C   0  0  0  0  0  0  0  0  0  0  0  0
    0.7144    1.8562    0.0000 C   0  0  0  0  0  0  0  0  0  0  0  0
    0.0000    1.4437    0.0000 C   0  0  0  0  0  0  0  0  0  0  0  0
    1.4289    1.4437    0.0000 C   0  0  0  0  0  0  0  0  0  0  0  0
   -2.8579   -1.8562    0.0000 C   0  0  0  0  0  0  0  0  0  0  0  0
   -1.4289   -1.0312    0.0000 C   0  0  0  0  0  0  0  0  0  0  0  0
   -2.8579    3.0937    0.0000 C   0  0  0  0  0  0  0  0  0  0  0  0
   -1.4289    3.0937    0.0000 C   0  0  0  0  0  0  0  0  0  0  0  0
    2.1433    1.8562    0.0000 C   0  0  0  0  0  0  0  0  0  0  0  0
   -2.1433   -2.2687    0.0000 C   0  0  0  0  0  0  0  0  0  0  0  0
   -3.5723   -2.2687    0.0000 C   0  0  0  0  0  0  0  0  0  0  0  0
   -2.8579    3.9187    0.0000 C   0  0  0  0  0  0  0  0  0  0  0  0
   -1.4289    3.9187    0.0000 C   0  0  0  0  0  0  0  0  0  0  0  0
    2.1433    2.6812    0.0000 C   0  0  0  0  0  0  0  0  0  0  0  0
    2.8578    1.4437    0.0000 C   0  0  0  0  0  0  0  0  0  0  0  0
   -2.1433    4.3312    0.0000 C   0  0  0  0  0  0  0  0  0  0  0  0
   -2.1433   -3.0937    0.0000 C   0  0  0  0  0  0  0  0  0  0  0  0
   -3.5723   -3.0937    0.0000 C   0  0  0  0  0  0  0  0  0  0  0  0
   -2.8579   -3.5062    0.0000 C   0  0  0  0  0  0  0  0  0  0  0  0
    2.8578    3.0937    0.0000 C   0  0  0  0  0  0  0  0  0  0  0  0
    3.5723    1.8562    0.0000 C   0  0  0  0  0  0  0  0  0  0  0  0
    3.5723    2.6812    0.0000 C   0  0  0  0  0  0  0  0  0  0  0  0
 15  1  1  1
  2 12  2  0
  3 16  2  0
  4 19  1  0
  5 19  2  0
  6 32  1  0
  7 16  1  0
  8 12  1  0
  9  7  1  0
  9 10  1  6
  9 12  1  0
 10 14  1  0
 11  8  1  0
 11 13  1  6
 11 19  1  0
 13 18  1  0
 14 20  2  0
 14 21  1  0
 15 16  1  0
 15 17  1  0
 17 22  1  0
 18 23  2  0
 18 24  1  0
 20 25  1  0
 21 26  2  0
 22 27  2  0
 22 28  1  0
 23 30  1  0
 24 31  2  0
 25 29  2  0
 26 29  1  0
 27 33  1  0
 28 34  2  0
 30 32  2  0
 31 32  1  0
 33 35  2  0
 34 35  1  0
M  END
>  <DRUGBANK_ID>  (1) 
DB03949

>  <SECONDARY_ACCESSION_NUMBERS>  (1) 
EXPT03061

>  <COMMON_NAME>  (1) 
N-[(2S)-3-Phenyl-2-sulfanylpropanoyl]-L-phenylalanyl-L-tyrosine

>  <SYNONYMS>  (1) 
(2-sulfanyl-3-phenylpropanoyl)-phe-tyr

$$$$
