4823
     RDKit          2D

 24 27  0  0  0  0  0  0  0  0999 V2000
    5.1662   -1.2245    0.0000 O   0  0  0  0  0  0  0  0  0  0  0  0
    2.3154    2.3559    0.0000 O   0  0  0  0  0  0  0  0  0  0  0  0
    6.5328    1.3746    0.0000 O   0  0  0  0  0  0  0  0  0  0  0  0
    3.8597   -1.8884    0.0000 N   0  0  0  0  0  0  0  0  0  0  0  0
    3.8597   -0.5606    0.0000 C   0  0  0  0  0  0  0  0  0  0  0  0
    3.0790   -0.8120    0.0000 C   0  0  0  0  0  0  0  0  0  0  0  0
    4.3411   -1.2245    0.0000 C   0  0  0  0  0  0  0  0  0  0  0  0
    3.4736    0.1686    0.0000 C   0  0  0  0  0  0  0  0  0  0  0  0
    4.5279   -0.0768    0.0000 C   0  0  0  0  0  0  0  0  0  0  0  0
    3.0790   -1.6370    0.0000 C   0  0  0  0  0  0  0  0  0  0  0  0
    2.3645   -0.3995    0.0000 C   0  0  0  0  0  0  0  0  0  0  0  0
    2.3645   -2.0495    0.0000 C   0  0  0  0  0  0  0  0  0  0  0  0
    2.6491    0.1987    0.0000 C   0  0  0  0  0  0  0  0  0  0  0  0
    4.4431    0.7438    0.0000 C   0  0  0  0  0  0  0  0  0  0  0  0
    3.9120    0.8674    0.0000 C   0  0  0  0  0  0  0  0  0  0  0  0
    5.2810   -0.4137    0.0000 C   0  0  0  0  0  0  0  0  0  0  0  0
    1.6500   -0.8120    0.0000 C   0  0  0  0  0  0  0  0  0  0  0  0
    1.6500   -1.6370    0.0000 C   0  0  0  0  0  0  0  0  0  0  0  0
    2.2631    0.9279    0.0000 C   0  0  0  0  0  0  0  0  0  0  0  0
    5.1114    1.2276    0.0000 C   0  0  0  0  0  0  0  0  0  0  0  0
    3.5259    1.5966    0.0000 C   0  0  0  0  0  0  0  0  0  0  0  0
    5.9493    0.0701    0.0000 C   0  0  0  0  0  0  0  0  0  0  0  0
    2.7014    1.6268    0.0000 C   0  0  0  0  0  0  0  0  0  0  0  0
    5.8645    0.8908    0.0000 C   0  0  0  0  0  0  0  0  0  0  0  0
  1  7  2  0
  2 23  1  0
  3 24  1  0
  4  7  1  0
  4 10  1  0
  5  6  1  0
  5  7  1  0
  5  8  1  0
  5  9  1  0
  6 10  2  0
  6 11  1  0
  8 13  2  0
  8 15  1  0
  9 14  2  0
  9 16  1  0
 10 12  1  0
 11 17  2  0
 12 18  2  0
 13 19  1  0
 14 20  1  0
 15 21  2  0
 16 22  2  0
 17 18  1  0
 19 23  2  0
 20 24  2  0
 21 23  1  0
 22 24  1  0
M  END
>  <DRUGBANK_ID>  (1) 
DB04823

>  <COMMON_NAME>  (1) 
Oxyphenisatin

>  <CAS_NUMBER>  (1) 
125-13-3

>  <UNII>  (1) 
3BT0VQG2GQ

>  <SYNONYMS>  (1) 
1,3-Dihydro-3,3-bis(4-hydroxyphenyl)-2H-indol-2-one; 3,3-Bis(4-hydroxyphenyl)oxindole; 3,3-Bis(p-hydroxyphenyl)-2-indolinone; 3,3-Bis(p-hydroxyphenyl)oxindole; 4,4'-Dihydroxydiphenylisatin; Dihydroxyphenoloxindol; Oxifenisatina; Oxyphenisatine; Oxyphenisatinum

$$$$
