
     RDKit          2D

 21 24  0  0  1  0  0  0  0  0999 V2000
    3.2147    1.4754    0.0000 C   0  0  0  0  0  0  0  0  0  0  0  0
    3.9726    1.1494    0.0000 C   0  0  0  0  0  0  0  0  0  0  0  0
    4.7962    1.1022    0.0000 C   0  0  0  0  0  0  0  0  0  0  0  0
    5.1672    0.3654    0.0000 C   0  0  0  0  0  0  0  0  0  0  0  0
    4.7145   -0.3244    0.0000 C   0  0  0  0  0  0  0  0  0  0  0  0
    3.8909   -0.2772    0.0000 N   0  0  0  0  0  0  0  0  0  0  0  0
    3.5199    0.4596    0.0000 C   0  0  0  0  0  0  0  0  0  0  0  0
    2.6962    0.5068    0.0000 C   0  0  0  0  0  0  0  0  0  0  0  0
    2.2436   -0.1829    0.0000 C   0  0  0  0  0  0  0  0  0  0  0  0
    1.4477    0.0344    0.0000 C   0  0  0  0  0  0  0  0  0  0  0  0
    0.7537   -0.4116    0.0000 C   0  0  0  0  0  0  0  0  0  0  0  0
    0.0204   -0.0335    0.0000 C   0  0  0  0  0  0  0  0  0  0  0  0
   -0.0188    0.7906    0.0000 C   0  0  0  0  0  0  0  0  0  0  0  0
    0.6753    1.2366    0.0000 C   0  0  0  0  0  0  0  0  0  0  0  0
    1.4085    0.8585    0.0000 C   0  0  0  0  0  0  0  0  0  0  0  0
    2.1801    1.1504    0.0000 O   0  0  0  0  0  0  0  0  0  0  0  0
    2.6146   -0.9198    0.0000 C   0  0  0  0  0  0  0  0  0  0  0  0
    3.4382   -0.9670    0.0000 C   0  0  0  0  0  0  0  0  0  0  0  0
    4.1620    1.9523    0.0000 C   0  0  0  0  0  0  0  0  0  0  0  0
    4.9521    2.1897    0.0000 O   0  0  0  0  0  0  0  0  0  0  0  0
    5.1416    2.9927    0.0000 C   0  0  0  0  0  0  0  0  0  0  0  0
  2  1  1  6
  2  3  1  0
  2  7  1  0
  2 19  1  0
  3  4  1  0
  4  5  1  0
  5  6  1  0
  6  7  1  0
  6 18  1  0
  7  8  1  6
  8  9  2  0
  8 16  1  0
  9 10  1  0
  9 17  1  0
 10 11  2  0
 10 15  1  0
 11 12  1  0
 12 13  2  0
 13 14  1  0
 14 15  2  0
 15 16  1  0
 17 18  1  0
 19 20  1  0
 20 21  1  0
M  END
>  <DRUGBANK_ID>  (1) 
DB12057

>  <COMMON_NAME>  (1) 
ORM-12741

>  <CAS_NUMBER>  (1) 
610782-82-6

>  <UNII>  (1) 
C5D3YG7ZR8

$$$$
