U05
     RDKit          2D

 22 24  0  0  0  0  0  0  0  0999 V2000
   -1.4800   -0.8523    0.0000 N   0  0  0  0  0  0  0  0  0  0  0  0
   -2.2684   -0.6092    0.0000 C   0  0  0  0  0  0  0  0  0  0  0  0
   -2.4519    0.1952    0.0000 C   0  0  0  0  0  0  0  0  0  0  0  0
   -1.8472    0.7563    0.0000 C   0  0  0  0  0  0  0  0  0  0  0  0
   -1.0588    0.5131    0.0000 C   0  0  0  0  0  0  0  0  0  0  0  0
   -0.5444    1.1581    0.0000 C   0  0  0  0  0  0  0  0  0  0  0  0
   -0.9024    1.9014    0.0000 O   0  0  0  0  0  0  0  0  0  0  0  0
    0.2806    1.1581    0.0000 N   0  0  0  0  0  0  0  0  0  0  0  0
    0.6385    1.9014    0.0000 C   0  0  0  0  0  0  0  0  0  0  0  0
    0.7949    0.5131    0.0000 C   0  0  0  0  0  0  0  0  0  0  0  0
    1.5833    0.7563    0.0000 C   0  0  0  0  0  0  0  0  0  0  0  0
    2.1881    0.1952    0.0000 C   0  0  0  0  0  0  0  0  0  0  0  0
    2.0045   -0.6092    0.0000 C   0  0  0  0  0  0  0  0  0  0  0  0
    2.6092   -1.1703    0.0000 N   0  0  0  0  0  0  0  0  0  0  0  0
    3.3976   -0.9271    0.0000 O   0  0  0  0  0  0  0  0  0  0  0  0
    2.4257   -1.9746    0.0000 O   0  0  0  0  0  0  0  0  0  0  0  0
    1.2161   -0.8523    0.0000 C   0  0  0  0  0  0  0  0  0  0  0  0
    0.6114   -0.2912    0.0000 C   0  0  0  0  0  0  0  0  0  0  0  0
   -0.1319   -0.6491    0.0000 N   0  0  0  0  0  0  0  0  0  0  0  0
   -0.1319   -1.4741    0.0000 C   0  0  0  0  0  0  0  0  0  0  0  0
   -0.8464   -1.8866    0.0000 C   0  0  0  0  0  0  0  0  0  0  0  0
   -0.8752   -0.2912    0.0000 C   0  0  0  0  0  0  0  0  0  0  0  0
  1  2  2  0
  1 22  1  0
  2  3  1  0
  3  4  2  0
  4  5  1  0
  5  6  1  0
  5 22  2  0
  6  7  2  0
  6  8  1  0
  8  9  1  0
  8 10  1  0
 10 11  1  0
 10 18  2  0
 11 12  2  0
 12 13  1  0
 13 14  1  0
 13 17  2  0
 14 15  1  0
 14 16  2  0
 17 18  1  0
 18 19  1  0
 19 20  1  0
 19 22  1  0
 20 21  1  0
M  CHG  2  14   1  15  -1
M  END
>  <DRUGBANK_ID>  (1) 
DB08665

>  <COMMON_NAME>  (1) 
6,11-DIHYDRO-11-ETHYL-6-METHYL-9-NITRO-5H-PYRIDO[2,3-B][1,5]BENZODIAZEPIN-5-ONE

>  <UNII>  (1) 
KOO1113T0V

$$$$
