
     RDKit          2D

 25 26  0  0  1  0  0  0  0  0999 V2000
    0.0000   -1.6500    0.0000 C   0  0  0  0  0  0  0  0  0  0  0  0
    0.7145   -1.2375    0.0000 C   0  0  0  0  0  0  0  0  0  0  0  0
    1.4289   -1.6500    0.0000 O   0  0  0  0  0  0  0  0  0  0  0  0
    1.4289   -2.4750    0.0000 C   0  0  0  0  0  0  0  0  0  0  0  0
    2.1434   -2.8875    0.0000 C   0  0  0  0  0  0  0  0  0  0  0  0
    2.1434   -3.7125    0.0000 C   0  0  0  0  0  0  0  0  0  0  0  0
    1.4289   -4.1250    0.0000 C   0  0  0  0  0  0  0  0  0  0  0  0
    0.7145   -3.7125    0.0000 C   0  0  0  0  0  0  0  0  0  0  0  0
    0.7145   -2.8875    0.0000 C   0  0  0  0  0  0  0  0  0  0  0  0
    0.0000   -4.1250    0.0000 C   0  0  0  0  0  0  0  0  0  0  0  0
   -0.7145   -4.5375    0.0000 F   0  0  0  0  0  0  0  0  0  0  0  0
    0.4125   -4.8395    0.0000 F   0  0  0  0  0  0  0  0  0  0  0  0
   -0.4125   -3.4105    0.0000 F   0  0  0  0  0  0  0  0  0  0  0  0
    2.8579   -4.1250    0.0000 C   0  0  0  0  0  0  0  0  0  0  0  0
    3.5724   -4.5375    0.0000 F   0  0  0  0  0  0  0  0  0  0  0  0
    2.4454   -4.8395    0.0000 F   0  0  0  0  0  0  0  0  0  0  0  0
    3.2704   -3.4105    0.0000 F   0  0  0  0  0  0  0  0  0  0  0  0
    0.7145   -0.4125    0.0000 C   0  0  0  0  0  0  0  0  0  0  0  0
    0.0000    0.0000    0.0000 C   0  0  0  0  0  0  0  0  0  0  0  0
    0.0000    0.8250    0.0000 C   0  0  0  0  0  0  0  0  0  0  0  0
   -0.7145    1.2375    0.0000 O   0  0  0  0  0  0  0  0  0  0  0  0
    0.7145    1.2375    0.0000 C   0  0  0  0  0  0  0  0  0  0  0  0
    1.4289    0.8250    0.0000 C   0  0  0  0  0  0  0  0  0  0  0  0
    2.1434    1.2375    0.0000 O   0  0  0  0  0  0  0  0  0  0  0  0
    1.4289    0.0000    0.0000 C   0  0  0  0  0  0  0  0  0  0  0  0
  2  1  1  1
  2  3  1  0
  2 18  1  0
  3  4  1  0
  4  5  2  0
  4  9  1  0
  5  6  1  0
  6  7  2  0
  6 14  1  0
  7  8  1  0
  8  9  2  0
  8 10  1  0
 10 11  1  0
 10 12  1  0
 10 13  1  0
 14 15  1  0
 14 16  1  0
 14 17  1  0
 18 19  1  0
 18 25  1  0
 19 20  1  0
 20 21  2  0
 20 22  1  0
 22 23  1  0
 23 24  2  0
 23 25  1  0
M  END
>  <DRUGBANK_ID>  (1) 
DB18061

>  <COMMON_NAME>  (1) 
AKV-9

>  <CAS_NUMBER>  (1) 
1307262-15-2

>  <UNII>  (1) 
SSZ5C8U4KQ

>  <SYNONYMS>  (1) 
1,3-Cyclohexanedione, 5-[(1S)-1-[3,5-bis(trifluoromethyl)phenoxy]ethyl]-; 5-((S)-1-(3,5-bis(trifluoromethyl)phenoxy)ethyl)-3-hydroxycyclohex-2-en-1-one; 5-[(1S)-1-[3,5-Bis(trifluoromethyl)phenoxy]ethyl]-1,3-cyclohexanedione

$$$$
