
     RDKit          2D

 27 29  0  0  0  0  0  0  0  0999 V2000
    3.2150    1.0312    0.0000 C   0  0  0  0  0  0  0  0  0  0  0  0
    3.2150    0.2062    0.0000 C   0  0  0  0  0  0  0  0  0  0  0  0
    2.5006   -0.2062    0.0000 C   0  0  0  0  0  0  0  0  0  0  0  0
    2.5006   -1.0312    0.0000 C   0  0  0  0  0  0  0  0  0  0  0  0
    3.2150   -1.4437    0.0000 C   0  0  0  0  0  0  0  0  0  0  0  0
    3.9295   -1.0312    0.0000 C   0  0  0  0  0  0  0  0  0  0  0  0
    3.9295   -0.2062    0.0000 C   0  0  0  0  0  0  0  0  0  0  0  0
    2.5006    1.4437    0.0000 O   0  0  0  0  0  0  0  0  0  0  0  0
    3.9295    1.4437    0.0000 O   0  0  0  0  0  0  0  0  0  0  0  0
    1.7861    0.2062    0.0000 C   0  0  0  0  0  0  0  0  0  0  0  0
    1.0716   -0.2062    0.0000 C   0  0  0  0  0  0  0  0  0  0  0  0
    1.0716   -1.0312    0.0000 C   0  0  0  0  0  0  0  0  0  0  0  0
    0.3572   -1.4437    0.0000 C   0  0  0  0  0  0  0  0  0  0  0  0
   -0.3572   -1.0312    0.0000 C   0  0  0  0  0  0  0  0  0  0  0  0
   -0.3572   -0.2062    0.0000 C   0  0  0  0  0  0  0  0  0  0  0  0
    0.3572    0.2062    0.0000 C   0  0  0  0  0  0  0  0  0  0  0  0
    1.7861    1.0312    0.0000 O   0  0  0  0  0  0  0  0  0  0  0  0
   -1.0717   -1.4437    0.0000 O   0  0  0  0  0  0  0  0  0  0  0  0
   -1.7861   -1.0312    0.0000 C   0  0  0  0  0  0  0  0  0  0  0  0
   -2.5007   -1.4437    0.0000 C   0  0  0  0  0  0  0  0  0  0  0  0
   -3.2151   -1.0312    0.0000 N   0  0  0  0  0  0  0  0  0  0  0  0
   -3.9296   -1.4437    0.0000 C   0  0  0  0  0  0  0  0  0  0  0  0
   -4.6440   -1.0312    0.0000 C   0  0  0  0  0  0  0  0  0  0  0  0
   -4.6440   -0.2062    0.0000 C   0  0  0  0  0  0  0  0  0  0  0  0
   -3.9296    0.2062    0.0000 C   0  0  0  0  0  0  0  0  0  0  0  0
   -3.2151   -0.2062    0.0000 C   0  0  0  0  0  0  0  0  0  0  0  0
    4.6440    1.0312    0.0000 C   0  0  0  0  0  0  0  0  0  0  0  0
  1  2  1  0
  1  8  2  0
  1  9  1  0
  2  3  2  0
  2  7  1  0
  3  4  1  0
  3 10  1  0
  4  5  2  0
  5  6  1  0
  6  7  2  0
  9 27  1  0
 10 11  1  0
 10 17  2  0
 11 12  2  0
 11 16  1  0
 12 13  1  0
 13 14  2  0
 14 15  1  0
 14 18  1  0
 15 16  2  0
 18 19  1  0
 19 20  1  0
 20 21  1  0
 21 22  1  0
 21 26  1  0
 22 23  1  0
 23 24  1  0
 24 25  1  0
 25 26  1  0
M  END
>  <DRUGBANK_ID>  (1) 
DB15947

>  <COMMON_NAME>  (1) 
Pitofenone

>  <CAS_NUMBER>  (1) 
54063-52-4

>  <UNII>  (1) 
M09N8K7YJY

>  <SYNONYMS>  (1) 
Pitofenona; Pitofenone; Pitofenonum

$$$$
