
     RDKit          2D

 26 27  0  0  0  0  0  0  0  0999 V2000
    1.7834    0.3229    0.0000 C   0  0  0  0  0  0  0  0  0  0  0  0
    1.7793   -0.5021    0.0000 O   0  0  0  0  0  0  0  0  0  0  0  0
    2.4878   -0.9159    0.0000 C   0  0  0  0  0  0  0  0  0  0  0  0
    3.2051   -0.5093    0.0000 C   0  0  0  0  0  0  0  0  0  0  0  0
    3.2092    0.3157    0.0000 C   0  0  0  0  0  0  0  0  0  0  0  0
    2.4962    0.7342    0.0000 C   0  0  0  0  0  0  0  0  0  0  0  0
   -2.4877    0.3146    0.0000 C   0  0  0  0  0  0  0  0  0  0  0  0
   -2.4877   -0.5104    0.0000 C   0  0  0  0  0  0  0  0  0  0  0  0
   -1.7756   -0.9188    0.0000 C   0  0  0  0  0  0  0  0  0  0  0  0
   -1.0636   -0.5104    0.0000 N   0  0  0  0  0  0  0  0  0  0  0  0
   -1.0636    0.3146    0.0000 C   0  0  0  0  0  0  0  0  0  0  0  0
   -1.7756    0.7314    0.0000 C   0  0  0  0  0  0  0  0  0  0  0  0
   -0.3542    0.7314    0.0000 C   0  0  0  0  0  0  0  0  0  0  0  0
    0.3583    0.3188    0.0000 N   0  0  0  0  0  0  0  0  0  0  0  0
    1.0709    0.7355    0.0000 C   0  0  0  0  0  0  0  0  0  0  0  0
    2.4836   -1.7398    0.0000 S   0  0  0  0  0  0  0  0  0  0  0  0
   -3.2045    0.7272    0.0000 C   0  0  0  0  0  0  0  0  0  0  0  0
   -3.9212    0.3188    0.0000 C   0  0  0  0  0  0  0  0  0  0  0  0
    2.4919    1.5606    0.0000 O   0  0  0  0  0  0  0  0  0  0  0  0
    3.9212    0.7355    0.0000 O   0  0  0  0  0  0  0  0  0  0  0  0
    3.9172   -0.9188    0.0000 O   0  0  0  0  0  0  0  0  0  0  0  0
   -0.3583    1.5565    0.0000 O   0  0  0  0  0  0  0  0  0  0  0  0
    1.0668    1.5606    0.0000 C   0  0  0  0  0  0  0  0  0  0  0  0
    1.6502    2.1481    0.0000 C   0  0  0  0  0  0  0  0  0  0  0  0
    0.4792    2.1481    0.0000 Cl  0  0  0  0  0  0  0  0  0  0  0  0
    1.7669   -2.1481    0.0000 C   0  0  0  0  0  0  0  0  0  0  0  0
  1  2  1  6
  1  6  1  0
  2  3  1  0
  3 16  1  1
  3  4  1  0
  4  5  1  0
  4 21  1  1
  5 20  1  6
  5  6  1  0
  6 19  1  6
  7 17  1  1
  7 12  1  0
  7  8  1  0
  8  9  1  0
  9 10  1  0
 10 11  1  0
 11 12  1  0
 11 13  1  1
 13 14  1  0
 13 22  2  0
 15 14  1  6
 15  1  1  0
 15 23  1  0
 16 26  1  0
 17 18  1  0
 23 24  1  1
 23 25  1  0
M  END
>  <DRUGBANK_ID>  (1) 
DB11537

>  <COMMON_NAME>  (1) 
Pirlimycin

>  <CAS_NUMBER>  (1) 
79548-73-5

>  <UNII>  (1) 
LM19JT6G5K

>  <SYNONYMS>  (1) 
Pirlimycin; Pirlimycina; Pirlimycine; Pirlimycinum

$$$$
