21U
     RDKit          2D

 24 25  0  0  0  0  0  0  0  0999 V2000
    3.0375   -0.3382    0.0000 C   0  0  0  0  0  0  0  0  0  0  0  0
    2.3230   -1.5757    0.0000 N   0  0  0  0  0  0  0  0  0  0  0  0
    2.3230   -0.7507    0.0000 C   0  0  0  0  0  0  0  0  0  0  0  0
    1.6085   -0.3382    0.0000 C   0  0  0  0  0  0  0  0  0  0  0  0
    1.6085    0.4868    0.0000 O   0  0  0  0  0  0  0  0  0  0  0  0
    0.8941   -0.7507    0.0000 N   0  0  0  0  0  0  0  0  0  0  0  0
    0.8078   -1.5712    0.0000 C   0  0  0  0  0  0  0  0  0  0  0  0
    0.0009   -1.7427    0.0000 C   0  0  0  0  0  0  0  0  0  0  0  0
   -0.4116   -1.0283    0.0000 C   0  0  0  0  0  0  0  0  0  0  0  0
    0.1404   -0.4152    0.0000 C   0  0  0  0  0  0  0  0  0  0  0  0
   -0.0311    0.3918    0.0000 C   0  0  0  0  0  0  0  0  0  0  0  0
   -0.8158    0.6467    0.0000 N   0  0  0  0  0  0  0  0  0  0  0  0
   -0.9873    1.4537    0.0000 C   0  0  0  0  0  0  0  0  0  0  0  0
   -1.7719    1.7086    0.0000 C   0  0  0  0  0  0  0  0  0  0  0  0
   -2.3850    1.1566    0.0000 C   0  0  0  0  0  0  0  0  0  0  0  0
   -3.1696    1.4115    0.0000 C   0  0  0  0  0  0  0  0  0  0  0  0
   -3.3412    2.2185    0.0000 C   0  0  0  0  0  0  0  0  0  0  0  0
   -2.7281    2.7706    0.0000 C   0  0  0  0  0  0  0  0  0  0  0  0
   -1.9434    2.5156    0.0000 C   0  0  0  0  0  0  0  0  0  0  0  0
    0.5820    0.9438    0.0000 O   0  0  0  0  0  0  0  0  0  0  0  0
    3.7519   -0.7507    0.0000 C   0  0  0  0  0  0  0  0  0  0  0  0
    4.4664   -0.3382    0.0000 C   0  0  0  0  0  0  0  0  0  0  0  0
    3.7519   -1.5757    0.0000 C   0  0  0  0  0  0  0  0  0  0  0  0
   -3.7827    0.8595    0.0000 Cl  0  0  0  0  0  0  0  0  0  0  0  0
  1  3  1  0
  1 21  1  0
  3  2  1  1
  3  4  1  0
  4  5  2  0
  4  6  1  0
  6  7  1  0
  6 10  1  0
  7  8  1  0
  8  9  1  0
  9 10  1  0
 10 11  1  1
 11 12  1  0
 11 20  2  0
 12 13  1  0
 13 14  1  0
 14 15  2  0
 14 19  1  0
 15 16  1  0
 16 17  2  0
 16 24  1  0
 17 18  1  0
 18 19  2  0
 21 22  1  0
 21 23  1  0
M  END
>  <DRUGBANK_ID>  (1) 
DB06911

>  <COMMON_NAME>  (1) 
D-leucyl-N-(3-chlorobenzyl)-L-prolinamide

$$$$
