
     RDKit          2D

 23 26  0  0  1  0  0  0  0  0999 V2000
   10.4746   -7.8095    0.0000 C   0  0  0  0  0  0  0  0  0  0  0  0
   10.4746   -8.6345    0.0000 C   0  0  0  0  0  0  0  0  0  0  0  0
    9.7601   -7.3970    0.0000 C   0  0  0  0  0  0  0  0  0  0  0  0
    9.7601   -9.0470    0.0000 C   0  0  0  0  0  0  0  0  0  0  0  0
    9.0457   -7.8095    0.0000 C   0  0  0  0  0  0  0  0  0  0  0  0
    9.0457   -8.6345    0.0000 C   0  0  0  0  0  0  0  0  0  0  0  0
   11.9036   -7.8095    0.0000 C   0  0  0  0  0  0  0  0  0  0  0  0
   11.9036   -8.6345    0.0000 C   0  0  0  0  0  0  0  0  0  0  0  0
   11.1890   -7.3970    0.0000 C   0  0  0  0  0  0  0  0  0  0  0  0
   11.1890   -9.0470    0.0000 C   0  0  0  0  0  0  0  0  0  0  0  0
   12.6182   -6.5720    0.0000 C   0  0  0  0  0  0  0  0  0  0  0  0
   12.6182   -7.3970    0.0000 C   0  0  0  0  0  0  0  0  0  0  0  0
   11.9036   -6.1595    0.0000 C   0  0  0  0  0  0  0  0  0  0  0  0
   11.1892   -6.5720    0.0000 C   0  0  0  0  0  0  0  0  0  0  0  0
   13.3329   -6.1493    0.0000 C   0  0  0  0  0  0  0  0  0  0  0  0
   14.0555   -6.5929    0.0000 C   0  0  0  0  0  0  0  0  0  0  0  0
   14.0461   -7.4002    0.0000 C   0  0  0  0  0  0  0  0  0  0  0  0
   12.5987   -5.9288    0.0000 C   0  0  0  0  0  0  0  0  0  0  0  0
    8.4737   -8.9911    0.0000 O   0  0  0  0  0  0  0  0  0  0  0  0
   13.0741   -5.6771    0.0000 C   0  0  0  0  0  0  0  0  0  0  0  0
   13.7733   -5.5652    0.0000 O   0  0  0  0  0  0  0  0  0  0  0  0
   12.1373   -5.6212    0.0000 C   0  0  0  0  0  0  0  0  0  0  0  0
   13.0741   -5.1597    0.0000 C   0  0  0  0  0  0  0  0  0  0  0  0
  1  9  2  0
  2 10  1  0
  2  1  1  0
  3  1  1  0
  4  2  2  0
  5  3  1  0
  6  4  1  0
  6  5  1  0
  6 19  2  0
  7 12  1  0
  7  8  1  6
  9  7  1  0
  9 14  1  0
 10  8  1  0
 11 18  1  1
 12 11  1  0
 13 11  1  0
 14 13  2  0
 15 11  1  0
 15 20  1  0
 15 21  1  1
 16 15  1  0
 12 17  1  1
 17 16  1  0
 18 22  1  0
 20 23  1  0
M  END
>  <DRUGBANK_ID>  (1) 
DB06870

>  <COMMON_NAME>  (1) 
Tetrahydrogestrinone

>  <CAS_NUMBER>  (1) 
618903-56-3

>  <UNII>  (1) 
643MR6L9LB

$$$$
