RT3
     RDKit          2D

 29 31  0  0  0  0  0  0  0  0999 V2000
   -6.3202    1.4491    0.0000 O   0  0  0  0  0  0  0  0  0  0  0  0
   -5.6057    1.0366    0.0000 S   0  0  0  0  0  0  0  0  0  0  0  0
   -6.0182    0.3221    0.0000 O   0  0  0  0  0  0  0  0  0  0  0  0
   -5.1932    1.7511    0.0000 N   0  0  0  0  0  0  0  0  0  0  0  0
   -4.8912    0.6241    0.0000 C   0  0  0  0  0  0  0  0  0  0  0  0
   -4.1768    1.0366    0.0000 C   0  0  0  0  0  0  0  0  0  0  0  0
   -3.4623    0.6241    0.0000 C   0  0  0  0  0  0  0  0  0  0  0  0
   -2.7478    1.0366    0.0000 Cl  0  0  0  0  0  0  0  0  0  0  0  0
   -4.8912   -0.2009    0.0000 C   0  0  0  0  0  0  0  0  0  0  0  0
   -4.1768   -0.6134    0.0000 C   0  0  0  0  0  0  0  0  0  0  0  0
   -3.4623   -0.2009    0.0000 C   0  0  0  0  0  0  0  0  0  0  0  0
   -2.7478   -0.6134    0.0000 N   0  0  0  0  0  0  0  0  0  0  0  0
   -2.0334   -0.2009    0.0000 C   0  0  0  0  0  0  0  0  0  0  0  0
   -2.0334    0.6241    0.0000 O   0  0  0  0  0  0  0  0  0  0  0  0
   -1.3189   -0.6134    0.0000 C   0  0  0  0  0  0  0  0  0  0  0  0
   -0.6044   -0.2009    0.0000 S   0  0  0  0  0  0  0  0  0  0  0  0
    0.1100   -0.6134    0.0000 C   0  0  0  0  0  0  0  0  0  0  0  0
    0.1100   -1.4384    0.0000 O   0  0  0  0  0  0  0  0  0  0  0  0
    0.8245   -0.2009    0.0000 N   0  0  0  0  0  0  0  0  0  0  0  0
    0.8245    0.6241    0.0000 C   0  0  0  0  0  0  0  0  0  0  0  0
    1.5390   -0.6134    0.0000 C   0  0  0  0  0  0  0  0  0  0  0  0
    1.5390   -1.4384    0.0000 C   0  0  0  0  0  0  0  0  0  0  0  0
    2.2535   -0.2009    0.0000 C   0  0  0  0  0  0  0  0  0  0  0  0
    2.2535    0.6241    0.0000 C   0  0  0  0  0  0  0  0  0  0  0  0
    1.5390    1.0366    0.0000 C   0  0  0  0  0  0  0  0  0  0  0  0
    2.9679   -0.6134    0.0000 C   0  0  0  0  0  0  0  0  0  0  0  0
    2.9679   -1.4384    0.0000 C   0  0  0  0  0  0  0  0  0  0  0  0
    3.6824   -1.8509    0.0000 C   0  0  0  0  0  0  0  0  0  0  0  0
    2.2535   -1.8509    0.0000 C   0  0  0  0  0  0  0  0  0  0  0  0
  2  5  1  0
  2  1  2  0
  2  3  2  0
  4  2  1  0
  5  6  2  0
  6  7  1  0
  7  8  1  0
  9 10  2  0
  9  5  1  0
 10 11  1  0
 11 12  1  0
 11  7  2  0
 13 15  1  0
 13 12  1  0
 14 13  2  0
 15 16  1  0
 16 17  1  0
 17 19  1  0
 17 18  2  0
 19 21  1  0
 20 25  1  0
 20 19  1  0
 21 23  2  0
 21 22  1  0
 22 29  2  0
 23 26  1  0
 24 23  1  0
 25 24  1  0
 26 27  2  0
 27 28  1  0
 29 27  1  0
M  END
>  <DRUGBANK_ID>  (1) 
DB08494

>  <COMMON_NAME>  (1) 
S-{2-[(2-chloro-4-sulfamoylphenyl)amino]-2-oxoethyl} 6-methyl-3,4-dihydroquinoline-1(2H)-carbothioate

$$$$
