
     RDKit          2D

 11 11  0  0  0  0  0  0  0  0999 V2000
    0.7184    1.0314    0.0000 C   0  0  0  0  0  0  0  0  0  0  0  0
    0.0033    0.6187    0.0000 C   0  0  0  0  0  0  0  0  0  0  0  0
    0.0033   -0.2063    0.0000 C   0  0  0  0  0  0  0  0  0  0  0  0
    0.7184    1.8530    0.0000 O   0  0  0  0  0  0  0  0  0  0  0  0
    1.4336    0.6187    0.0000 N   0  0  0  0  0  0  0  0  0  0  0  0
   -0.7151   -0.6187    0.0000 C   0  0  0  0  0  0  0  0  0  0  0  0
   -0.7151   -1.4440    0.0000 O   0  0  0  0  0  0  0  0  0  0  0  0
   -0.7151    1.0314    0.0000 C   0  0  0  0  0  0  0  0  0  0  0  0
   -1.4232    0.6187    0.0000 C   0  0  0  0  0  0  0  0  0  0  0  0
   -1.4232   -0.2063    0.0000 C   0  0  0  0  0  0  0  0  0  0  0  0
   -1.4336   -1.8530    0.0000 C   0  0  0  0  0  0  0  0  0  0  0  0
  2  1  1  0
  3  2  2  0
  4  1  2  0
  5  1  1  0
  6  3  1  0
  7  6  1  0
  8  2  1  0
  9  8  2  0
 10  9  1  0
 10  6  2  0
 11  7  1  0
M  END
>  <DRUGBANK_ID>  (1) 
DB03073

>  <SECONDARY_ACCESSION_NUMBERS>  (1) 
EXPT00177

>  <COMMON_NAME>  (1) 
3-Methoxybenzamide

>  <CAS_NUMBER>  (1) 
5813-86-5

>  <UNII>  (1) 
M8502TLK98

>  <SYNONYMS>  (1) 
m-Anisamide; m-Methoxybenzamide

$$$$
