DT4
     RDKit          2D

 28 31  0  0  0  0  0  0  0  0999 V2000
   -3.3565   -2.6510    0.0000 O   0  0  0  0  0  0  0  0  0  0  0  0
   -2.6420   -2.2385    0.0000 S   0  0  0  0  0  0  0  0  0  0  0  0
   -2.2295   -2.9530    0.0000 O   0  0  0  0  0  0  0  0  0  0  0  0
   -3.0545   -1.5241    0.0000 N   0  0  0  0  0  0  0  0  0  0  0  0
   -1.9275   -1.8260    0.0000 C   0  0  0  0  0  0  0  0  0  0  0  0
   -1.9275   -1.0010    0.0000 C   0  0  0  0  0  0  0  0  0  0  0  0
   -1.2131   -0.5885    0.0000 C   0  0  0  0  0  0  0  0  0  0  0  0
   -0.4986   -1.0010    0.0000 C   0  0  0  0  0  0  0  0  0  0  0  0
   -0.4986   -1.8260    0.0000 C   0  0  0  0  0  0  0  0  0  0  0  0
   -1.2131   -2.2385    0.0000 C   0  0  0  0  0  0  0  0  0  0  0  0
    0.2159   -0.5885    0.0000 N   0  0  0  0  0  0  0  0  0  0  0  0
    0.2159    0.2365    0.0000 C   0  0  0  0  0  0  0  0  0  0  0  0
   -0.4986    0.6490    0.0000 N   0  0  0  0  0  0  0  0  0  0  0  0
   -1.2832    0.3940    0.0000 N   0  0  0  0  0  0  0  0  0  0  0  0
   -1.7681    1.0615    0.0000 C   0  0  0  0  0  0  0  0  0  0  0  0
   -0.4986    1.4740    0.0000 C   0  0  0  0  0  0  0  0  0  0  0  0
   -1.2832    1.7289    0.0000 N   0  0  0  0  0  0  0  0  0  0  0  0
    0.2159    1.8865    0.0000 N   0  0  0  0  0  0  0  0  0  0  0  0
    0.9304    1.4740    0.0000 C   0  0  0  0  0  0  0  0  0  0  0  0
    0.9304    0.6490    0.0000 C   0  0  0  0  0  0  0  0  0  0  0  0
    1.6448    1.8865    0.0000 N   0  0  0  0  0  0  0  0  0  0  0  0
    2.3593    1.4740    0.0000 C   0  0  0  0  0  0  0  0  0  0  0  0
    3.0738    1.8865    0.0000 C   0  0  0  0  0  0  0  0  0  0  0  0
    3.7882    1.4740    0.0000 C   0  0  0  0  0  0  0  0  0  0  0  0
    3.7882    0.6490    0.0000 C   0  0  0  0  0  0  0  0  0  0  0  0
    4.5027    0.2365    0.0000 N   0  0  0  0  0  0  0  0  0  0  0  0
    3.0738    0.2365    0.0000 C   0  0  0  0  0  0  0  0  0  0  0  0
    2.3593    0.6490    0.0000 C   0  0  0  0  0  0  0  0  0  0  0  0
  1  2  2  0
  2  3  2  0
  2  4  1  0
  2  5  1  0
  5  6  2  0
  5 10  1  0
  6  7  1  0
  7  8  2  0
  8  9  1  0
  8 11  1  0
  9 10  2  0
 11 12  1  0
 12 13  1  0
 12 20  2  0
 13 14  1  0
 13 16  1  0
 14 15  2  0
 15 17  1  0
 16 17  2  0
 16 18  1  0
 18 19  2  0
 19 20  1  0
 19 21  1  0
 22 21  1  1
 22 23  1  0
 22 28  1  0
 23 24  1  0
 24 25  1  0
 25 26  1  6
 25 27  1  0
 27 28  1  0
M  END
>  <DRUGBANK_ID>  (1) 
DB07687

>  <COMMON_NAME>  (1) 
4-({5-[(4-AMINOCYCLOHEXYL)AMINO][1,2,4]TRIAZOLO[1,5-A]PYRIMIDIN-7-YL}AMINO)BENZENESULFONAMIDE

$$$$
