
     RDKit          2D

 39 40  0  0  0  0  0  0  0  0999 V2000
   -4.5535   -0.3432    0.0000 C   0  0  0  0  0  0  0  0  0  0  0  0
   -1.1848   -1.6017    0.0000 C   0  0  0  0  0  0  0  0  0  0  0  0
   -0.7884    0.0000    0.0000 C   0  0  0  0  0  0  0  0  0  0  0  0
    0.5986   -0.3432    0.0000 C   0  0  0  0  0  0  0  0  0  0  0  0
    0.7967    0.4575    0.0000 C   0  0  0  0  0  0  0  0  0  0  0  0
    0.2023    1.0296    0.0000 C   0  0  0  0  0  0  0  0  0  0  0  0
    0.4004    1.8304    0.0000 C   0  0  0  0  0  0  0  0  0  0  0  0
   -4.3553    0.4575    0.0000 C   0  0  0  0  0  0  0  0  0  0  0  0
    1.1930   -0.9152    0.0000 C   0  0  0  0  0  0  0  0  0  0  0  0
    2.1838    0.1143    0.0000 C   0  0  0  0  0  0  0  0  0  0  0  0
    2.5802   -1.2585    0.0000 C   0  0  0  0  0  0  0  0  0  0  0  0
    3.3728   -1.0296    0.0000 C   0  0  0  0  0  0  0  0  0  0  0  0
    3.9673   -1.6017    0.0000 C   0  0  0  0  0  0  0  0  0  0  0  0
    4.7599   -1.3729    0.0000 C   0  0  0  0  0  0  0  0  0  0  0  0
   -3.5628    0.6864    0.0000 C   0  0  0  0  0  0  0  0  0  0  0  0
    4.9581   -0.5720    0.0000 C   0  0  0  0  0  0  0  0  0  0  0  0
    5.7507   -0.3432    0.0000 C   0  0  0  0  0  0  0  0  0  0  0  0
    6.3452   -0.9152    0.0000 C   0  0  0  0  0  0  0  0  0  0  0  0
    6.1470   -1.7161    0.0000 C   0  0  0  0  0  0  0  0  0  0  0  0
    5.3544   -1.9449    0.0000 C   0  0  0  0  0  0  0  0  0  0  0  0
   -2.9682    0.1143    0.0000 C   0  0  0  0  0  0  0  0  0  0  0  0
   -3.1664   -0.6864    0.0000 C   0  0  0  0  0  0  0  0  0  0  0  0
   -3.9591   -0.9152    0.0000 C   0  0  0  0  0  0  0  0  0  0  0  0
   -2.1756    0.3431    0.0000 C   0  0  0  0  0  0  0  0  0  0  0  0
   -1.7792   -1.0296    0.0000 C   0  0  0  0  0  0  0  0  0  0  0  0
   -0.1940   -0.5720    0.0000 N   0  0  0  0  0  0  0  0  0  0  0  0
    1.9857   -0.6864    0.0000 N   0  0  0  0  0  0  0  0  0  0  0  0
   -1.5811   -0.2288    0.0000 N   0  0  0  0  0  0  0  0  0  0  0  0
   -0.3921   -1.3729    0.0000 O   0  0  0  0  0  0  0  0  0  0  0  0
   -1.3829   -2.4025    0.0000 O   0  0  0  0  0  0  0  0  0  0  0  0
   -0.5903    0.8008    0.0000 O   0  0  0  0  0  0  0  0  0  0  0  0
   -5.7425   -2.1737    0.0000 O   0  0  0  0  0  0  0  0  0  0  0  0
   -0.1940    2.4025    0.0000 O   0  0  0  0  0  0  0  0  0  0  0  0
    1.1930    2.0592    0.0000 O   0  0  0  0  0  0  0  0  0  0  0  0
    0.9949   -1.7161    0.0000 O   0  0  0  0  0  0  0  0  0  0  0  0
   -6.3451   -1.1747    0.0000 O   0  0  0  0  0  0  0  0  0  0  0  0
   -4.7434   -1.5710    0.0000 O   0  0  0  0  0  0  0  0  0  0  0  0
   -5.3461   -0.5720    0.0000 O   0  0  0  0  0  0  0  0  0  0  0  0
   -5.5443   -1.3729    0.0000 P   0  0  0  0  0  0  0  0  0  0  0  0
  1  8  2  0
  1 23  1  0
  1 38  1  0
  2 25  1  0
  2 29  1  0
  2 30  2  0
  3 26  1  0
  3 28  1  0
  3 31  2  0
  4  5  1  1
  4  9  1  0
  4 26  1  0
  5  6  1  0
  6  7  1  0
  7 33  2  0
  7 34  1  0
  8 15  1  0
  9 27  1  0
  9 35  2  0
 10 27  1  0
 11 12  1  0
 11 27  1  0
 12 13  1  0
 13 14  1  0
 14 16  1  0
 14 20  1  0
 15 21  2  0
 16 17  1  0
 17 18  1  0
 18 19  1  0
 19 20  1  0
 21 22  1  0
 21 24  1  0
 22 23  2  0
 24 28  1  0
 25 28  1  0
 32 39  2  0
 36 39  1  0
 37 39  1  0
 38 39  1  0
M  END
>  <DRUGBANK_ID>  (1) 
DB01773

>  <SECONDARY_ACCESSION_NUMBERS>  (1) 
EXPT03200

>  <COMMON_NAME>  (1) 
4-[3-carboxymethyl-3-(4-phosphonooxy-benzyl)-ureido]-4-[(3-cyclohexyl-propyl)-methyl-carbamoyl]butyric acid

$$$$
