
     RDKit          2D

 28 32  0  0  0  0  0  0  0  0999 V2000
   -1.4087    0.8085    0.0000 C   0  0  0  0  0  0  0  0  0  0  0  0
   -0.5837    0.8085    0.0000 C   0  0  0  0  0  0  0  0  0  0  0  0
   -6.7712    0.0940    0.0000 C   0  0  0  0  0  0  0  0  0  0  0  0
    3.3523    1.9354    0.0000 C   0  0  0  0  0  0  0  0  0  0  0  0
    3.3523    1.1104    0.0000 C   0  0  0  0  0  0  0  0  0  0  0  0
   -6.3587   -0.6205    0.0000 C   0  0  0  0  0  0  0  0  0  0  0  0
   -6.3587    0.8085    0.0000 C   0  0  0  0  0  0  0  0  0  0  0  0
   -1.8212    0.0940    0.0000 C   0  0  0  0  0  0  0  0  0  0  0  0
   -0.1712    1.5229    0.0000 C   0  0  0  0  0  0  0  0  0  0  0  0
   -3.0587    0.8085    0.0000 C   0  0  0  0  0  0  0  0  0  0  0  0
   -3.0587   -0.6205    0.0000 C   0  0  0  0  0  0  0  0  0  0  0  0
   -3.8837    0.8085    0.0000 C   0  0  0  0  0  0  0  0  0  0  0  0
   -3.8837   -0.6205    0.0000 C   0  0  0  0  0  0  0  0  0  0  0  0
    2.8441    1.5229    0.0000 C   0  0  0  0  0  0  0  0  0  0  0  0
    2.6378    2.3479    0.0000 C   0  0  0  0  0  0  0  0  0  0  0  0
    2.6378    0.6979    0.0000 C   0  0  0  0  0  0  0  0  0  0  0  0
    1.9233    1.9354    0.0000 C   0  0  0  0  0  0  0  0  0  0  0  0
    1.9233    1.1104    0.0000 C   0  0  0  0  0  0  0  0  0  0  0  0
    1.1387    2.1904    0.0000 C   0  0  0  0  0  0  0  0  0  0  0  0
    1.1387    0.8555    0.0000 C   0  0  0  0  0  0  0  0  0  0  0  0
   -5.1212    0.0940    0.0000 C   0  0  0  0  0  0  0  0  0  0  0  0
   -5.5337   -0.6205    0.0000 N   0  0  0  0  0  0  0  0  0  0  0  0
   -5.5337    0.8085    0.0000 N   0  0  0  0  0  0  0  0  0  0  0  0
   -2.6462    0.0940    0.0000 N   0  0  0  0  0  0  0  0  0  0  0  0
   -4.2962    0.0940    0.0000 N   0  0  0  0  0  0  0  0  0  0  0  0
    0.6538    1.5229    0.0000 N   0  0  0  0  0  0  0  0  0  0  0  0
    0.8838    2.9750    0.0000 O   0  0  0  0  0  0  0  0  0  0  0  0
    0.8838    0.0709    0.0000 O   0  0  0  0  0  0  0  0  0  0  0  0
  2  1  1  0
  5  4  1  0
  6  3  2  0
  7  3  1  0
  8  1  1  0
  9  2  1  0
 12 10  1  0
 13 11  1  0
 15  4  1  1
 15 14  1  0
 16  5  1  1
 16 14  1  0
 17 15  1  0
 18 16  1  0
 18 17  1  0
 17 19  1  6
 18 20  1  6
 22  6  1  0
 22 21  2  0
 23  7  2  0
 23 21  1  0
 24  8  1  0
 24 10  1  0
 24 11  1  0
 25 12  1  0
 25 13  1  0
 25 21  1  0
 26  9  1  0
 26 19  1  0
 26 20  1  0
 27 19  2  0
 28 20  2  0
M  END
>  <DRUGBANK_ID>  (1) 
DB12833

>  <COMMON_NAME>  (1) 
Tandospirone

>  <CAS_NUMBER>  (1) 
87760-53-0

>  <UNII>  (1) 
190230I669

>  <SYNONYMS>  (1) 
Tandospirone

$$$$
