344
     RDKit          2D

 15 17  0  0  0  0  0  0  0  0999 V2000
   -1.9773   -0.6225    0.0000 N   0  0  0  0  0  0  0  0  0  0  0  0
   -2.4622    0.0449    0.0000 C   0  0  0  0  0  0  0  0  0  0  0  0
   -1.9773    0.7124    0.0000 N   0  0  0  0  0  0  0  0  0  0  0  0
   -1.1927    0.4574    0.0000 C   0  0  0  0  0  0  0  0  0  0  0  0
   -0.4782    0.8699    0.0000 C   0  0  0  0  0  0  0  0  0  0  0  0
    0.2363    0.4574    0.0000 C   0  0  0  0  0  0  0  0  0  0  0  0
    0.9507    0.8699    0.0000 N   0  0  0  0  0  0  0  0  0  0  0  0
    1.6652    0.4574    0.0000 C   0  0  0  0  0  0  0  0  0  0  0  0
    2.3797    0.8699    0.0000 N   0  0  0  0  0  0  0  0  0  0  0  0
    1.6652   -0.3676    0.0000 N   0  0  0  0  0  0  0  0  0  0  0  0
    0.9507   -0.7801    0.0000 C   0  0  0  0  0  0  0  0  0  0  0  0
    0.9507   -1.6051    0.0000 O   0  0  0  0  0  0  0  0  0  0  0  0
    0.2363   -0.3676    0.0000 C   0  0  0  0  0  0  0  0  0  0  0  0
   -0.4782   -0.7801    0.0000 C   0  0  0  0  0  0  0  0  0  0  0  0
   -1.1927   -0.3676    0.0000 C   0  0  0  0  0  0  0  0  0  0  0  0
  1  2  2  0
  1 15  1  0
  2  3  1  0
  3  4  1  0
  4  5  1  0
  4 15  2  0
  5  6  2  0
  6  7  1  0
  6 13  1  0
  7  8  2  0
  8  9  1  0
  8 10  1  0
 10 11  1  0
 11 12  2  0
 11 13  1  0
 13 14  2  0
 14 15  1  0
M  END
>  <DRUGBANK_ID>  (1) 
DB07012

>  <COMMON_NAME>  (1) 
6-AMINO-3,7-DIHYDRO-IMIDAZO[4,5-G]QUINAZOLIN-8-ONE

$$$$
