4858
     RDKit          2D

 22 24  0  0  0  0  0  0  0  0999 V2000
    8.4961   -1.1680    0.0000 O   0  0  0  0  0  0  0  0  0  0  0  0
    3.6375   -0.7501    0.0000 O   0  0  0  0  0  0  0  0  0  0  0  0
    7.1241   -1.1680    0.0000 N   0  0  0  0  0  0  0  0  0  0  0  0
    4.3280    0.4352    0.0000 N   0  0  0  0  0  0  0  0  0  0  0  0
    2.2686    0.0471    0.0000 N   0  0  0  0  0  0  0  0  0  0  0  0
    6.4382    0.0202    0.0000 C   0  0  0  0  0  0  0  0  0  0  0  0
    7.1241    0.4161    0.0000 C   0  0  0  0  0  0  0  0  0  0  0  0
    6.4382   -0.7719    0.0000 C   0  0  0  0  0  0  0  0  0  0  0  0
    7.8101    0.0202    0.0000 C   0  0  0  0  0  0  0  0  0  0  0  0
    5.7300    0.4436    0.0000 C   0  0  0  0  0  0  0  0  0  0  0  0
    5.0124    0.0366    0.0000 C   0  0  0  0  0  0  0  0  0  0  0  0
    5.7300   -1.1955    0.0000 C   0  0  0  0  0  0  0  0  0  0  0  0
    7.8101   -0.7719    0.0000 C   0  0  0  0  0  0  0  0  0  0  0  0
    5.0124   -0.7884    0.0000 C   0  0  0  0  0  0  0  0  0  0  0  0
    7.1113    1.2411    0.0000 C   0  0  0  0  0  0  0  0  0  0  0  0
    8.5309    0.4216    0.0000 C   0  0  0  0  0  0  0  0  0  0  0  0
    2.9561    0.4406    0.0000 C   0  0  0  0  0  0  0  0  0  0  0  0
    7.8228    1.6591    0.0000 C   0  0  0  0  0  0  0  0  0  0  0  0
    3.6404    0.0419    0.0000 C   0  0  0  0  0  0  0  0  0  0  0  0
    8.5373    1.2466    0.0000 C   0  0  0  0  0  0  0  0  0  0  0  0
    1.5842    0.4459    0.0000 C   0  0  0  0  0  0  0  0  0  0  0  0
    2.2655   -0.7449    0.0000 C   0  0  0  0  0  0  0  0  0  0  0  0
  1 13  2  0
  2 19  2  0
  3  8  1  0
  3 13  1  0
  4 11  1  0
  4 19  1  0
  5 17  1  0
  5 21  1  0
  5 22  1  0
  6  7  1  0
  6  8  2  0
  6 10  1  0
  7  9  2  0
  7 15  1  0
  8 12  1  0
  9 13  1  0
  9 16  1  0
 10 11  2  0
 11 14  1  0
 12 14  2  0
 15 18  2  0
 16 20  2  0
 17 19  1  0
 18 20  1  0
M  END
>  <DRUGBANK_ID>  (1) 
DB08348

>  <COMMON_NAME>  (1) 
N~2~,N~2~-DIMETHYL-N~1~-(6-OXO-5,6-DIHYDROPHENANTHRIDIN-2-YL)GLYCINAMIDE

>  <UNII>  (1) 
NA92ZAR7N2

$$$$
