2T1
     RDKit          2D

 28 30  0  0  0  0  0  0  0  0999 V2000
    0.5017    0.2369    0.0000 N   0  0  0  0  0  0  0  0  0  0  0  0
    1.2162   -1.0006    0.0000 N   0  0  0  0  0  0  0  0  0  0  0  0
   -1.6417    2.2994    0.0000 C   0  0  0  0  0  0  0  0  0  0  0  0
   -2.3562    2.7119    0.0000 C   0  0  0  0  0  0  0  0  0  0  0  0
   -3.0706    2.2994    0.0000 C   0  0  0  0  0  0  0  0  0  0  0  0
   -0.9272    1.0619    0.0000 C   0  0  0  0  0  0  0  0  0  0  0  0
   -0.2127    1.4744    0.0000 C   0  0  0  0  0  0  0  0  0  0  0  0
   -0.2127   -0.1756    0.0000 C   0  0  0  0  0  0  0  0  0  0  0  0
    1.9307   -1.4131    0.0000 C   0  0  0  0  0  0  0  0  0  0  0  0
    1.9307   -2.2381    0.0000 C   0  0  0  0  0  0  0  0  0  0  0  0
    2.6451   -1.0006    0.0000 C   0  0  0  0  0  0  0  0  0  0  0  0
    1.2162   -2.6506    0.0000 C   0  0  0  0  0  0  0  0  0  0  0  0
    1.2162   -3.4756    0.0000 O   0  0  0  0  0  0  0  0  0  0  0  0
    0.5017   -2.2381    0.0000 O   0  0  0  0  0  0  0  0  0  0  0  0
    2.6451   -2.6506    0.0000 C   0  0  0  0  0  0  0  0  0  0  0  0
    3.3596   -2.2381    0.0000 C   0  0  0  0  0  0  0  0  0  0  0  0
    3.3596   -1.4131    0.0000 C   0  0  0  0  0  0  0  0  0  0  0  0
    1.2162   -0.1756    0.0000 C   0  0  0  0  0  0  0  0  0  0  0  0
    1.9307    0.2369    0.0000 O   0  0  0  0  0  0  0  0  0  0  0  0
   -0.9272    0.2369    0.0000 C   0  0  0  0  0  0  0  0  0  0  0  0
    0.5017    1.0619    0.0000 C   0  0  0  0  0  0  0  0  0  0  0  0
   -1.6417    1.4744    0.0000 C   0  0  0  0  0  0  0  0  0  0  0  0
   -2.3562    1.0619    0.0000 C   0  0  0  0  0  0  0  0  0  0  0  0
   -3.0706    1.4744    0.0000 C   0  0  0  0  0  0  0  0  0  0  0  0
   -0.9272    2.7119    0.0000 C   0  0  0  0  0  0  0  0  0  0  0  0
   -1.3397    3.4264    0.0000 F   0  0  0  0  0  0  0  0  0  0  0  0
   -0.5147    1.9975    0.0000 F   0  0  0  0  0  0  0  0  0  0  0  0
   -0.2127    3.1244    0.0000 F   0  0  0  0  0  0  0  0  0  0  0  0
  1  8  1  0
  2 18  1  0
  3 25  1  0
  4  3  2  0
  5  4  1  0
  6 20  1  0
  7  6  1  0
  7 21  1  0
  9  2  1  0
  9 11  1  0
 10  9  2  0
 12 10  1  0
 12 13  1  0
 14 12  2  0
 15 10  1  0
 15 16  2  0
 16 17  1  0
 17 11  2  0
 18  1  1  0
 18 19  2  0
 20  8  1  0
 21  1  1  0
 22  3  1  0
 22  6  1  0
 23 22  2  0
 24  5  2  0
 24 23  1  0
 25 28  1  0
 25 27  1  0
 26 25  1  0
M  END
>  <DRUGBANK_ID>  (1) 
DB06985

>  <COMMON_NAME>  (1) 
2-[({4-[2-(trifluoromethyl)phenyl]piperidin-1-yl}carbonyl)amino]benzoic acid

$$$$
