
     RDKit          2D

  5  4  0  0  1  0  0  0  0  0999 V2000
    2.0625   -0.7145    0.0000 C   0  0  0  0  0  0  0  0  0  0  0  0
    1.2375   -0.7145    0.0000 C   0  0  0  0  0  0  0  0  0  0  0  0
    0.8250   -1.4289    0.0000 O   0  0  0  0  0  0  0  0  0  0  0  0
    0.8250    0.0000    0.0000 C   0  0  0  0  0  0  0  0  0  0  0  0
    0.0000    0.0000    0.0000 O   0  0  0  0  0  0  0  0  0  0  0  0
  2  1  1  1
  2  3  1  0
  2  4  1  0
  4  5  1  0
M  END
>  <DRUGBANK_ID>  (1) 
DB02159

>  <SECONDARY_ACCESSION_NUMBERS>  (1) 
EXPT02574

>  <COMMON_NAME>  (1) 
(R)-Propylene glycol

>  <CAS_NUMBER>  (1) 
4254-14-2

>  <UNII>  (1) 
602HN5L69H

>  <SYNONYMS>  (1) 
R-1,2-propanediol

$$$$
