NS7
     RDKit          2D

 28 31  0  0  0  0  0  0  0  0999 V2000
   -3.7547    0.3920    0.0000 C   0  0  0  0  0  0  0  0  0  0  0  0
   -4.3067    1.0051    0.0000 C   0  0  0  0  0  0  0  0  0  0  0  0
   -3.8942    1.7196    0.0000 C   0  0  0  0  0  0  0  0  0  0  0  0
   -3.0872    1.5481    0.0000 C   0  0  0  0  0  0  0  0  0  0  0  0
   -3.0010    0.7276    0.0000 C   0  0  0  0  0  0  0  0  0  0  0  0
   -2.2865    0.3151    0.0000 C   0  0  0  0  0  0  0  0  0  0  0  0
   -1.5721    0.7276    0.0000 C   0  0  0  0  0  0  0  0  0  0  0  0
   -2.2865   -0.5099    0.0000 N   0  0  0  0  0  0  0  0  0  0  0  0
   -1.5721   -0.9224    0.0000 S   0  0  0  0  0  0  0  0  0  0  0  0
   -2.1024   -1.5544    0.0000 O   0  0  0  0  0  0  0  0  0  0  0  0
   -1.0418   -1.5544    0.0000 O   0  0  0  0  0  0  0  0  0  0  0  0
   -0.8576   -0.5099    0.0000 C   0  0  0  0  0  0  0  0  0  0  0  0
   -0.1431   -0.9224    0.0000 C   0  0  0  0  0  0  0  0  0  0  0  0
   -0.8576    0.3151    0.0000 C   0  0  0  0  0  0  0  0  0  0  0  0
   -0.1431    0.7276    0.0000 C   0  0  0  0  0  0  0  0  0  0  0  0
    0.5713    0.3151    0.0000 C   0  0  0  0  0  0  0  0  0  0  0  0
    1.2858    0.7276    0.0000 C   0  0  0  0  0  0  0  0  0  0  0  0
    0.5713   -0.5099    0.0000 C   0  0  0  0  0  0  0  0  0  0  0  0
    1.2858   -0.9224    0.0000 S   0  0  0  0  0  0  0  0  0  0  0  0
    0.8733   -1.6369    0.0000 O   0  0  0  0  0  0  0  0  0  0  0  0
    1.6983   -0.2080    0.0000 O   0  0  0  0  0  0  0  0  0  0  0  0
    2.0003   -1.3349    0.0000 N   0  0  0  0  0  0  0  0  0  0  0  0
    2.0003   -2.1599    0.0000 C   0  0  0  0  0  0  0  0  0  0  0  0
    2.7148   -2.5724    0.0000 C   0  0  0  0  0  0  0  0  0  0  0  0
    3.4292   -2.1599    0.0000 N   0  0  0  0  0  0  0  0  0  0  0  0
    4.1437   -2.5724    0.0000 C   0  0  0  0  0  0  0  0  0  0  0  0
    3.4292   -1.3349    0.0000 C   0  0  0  0  0  0  0  0  0  0  0  0
    2.7148   -0.9224    0.0000 C   0  0  0  0  0  0  0  0  0  0  0  0
  1  2  1  0
  1  5  1  0
  2  3  1  0
  3  4  1  0
  5  4  1  0
  6  5  1  1
  7  6  1  0
  8  6  1  0
  9  8  1  0
  9 10  2  0
 11  9  2  0
 12  9  1  0
 12 14  2  0
 13 12  1  0
 14  7  1  0
 15 14  1  0
 16 15  2  0
 17 16  1  0
 18 13  2  0
 18 16  1  0
 19 18  1  0
 19 22  1  0
 20 19  2  0
 21 19  2  0
 22 28  1  0
 23 22  1  0
 23 24  1  0
 24 25  1  0
 25 27  1  0
 26 25  1  0
 28 27  1  0
M  END
>  <DRUGBANK_ID>  (1) 
DB08305

>  <COMMON_NAME>  (1) 
(3R)-3-cyclopentyl-6-methyl-7-[(4-methylpiperazin-1-yl)sulfonyl]-3,4-dihydro-2H-1,2-benzothiazine 1,1-dioxide

$$$$
