YE7
     RDKit          2D

 17 19  0  0  0  0  0  0  0  0999 V2000
   -0.3140   -0.4666    0.0000 C   0  0  0  0  0  0  0  0  0  0  0  0
    0.4872   -0.6633    0.0000 N   0  0  0  0  0  0  0  0  0  0  0  0
    0.8772   -1.3903    0.0000 C   0  0  0  0  0  0  0  0  0  0  0  0
    1.7018   -1.4160    0.0000 C   0  0  0  0  0  0  0  0  0  0  0  0
    2.1364   -0.7148    0.0000 C   0  0  0  0  0  0  0  0  0  0  0  0
    2.9610   -0.7405    0.0000 C   0  0  0  0  0  0  0  0  0  0  0  0
    3.3956   -0.0393    0.0000 C   0  0  0  0  0  0  0  0  0  0  0  0
    3.0056    0.6877    0.0000 C   0  0  0  0  0  0  0  0  0  0  0  0
    2.1810    0.7135    0.0000 C   0  0  0  0  0  0  0  0  0  0  0  0
    1.7464    0.0122    0.0000 C   0  0  0  0  0  0  0  0  0  0  0  0
    0.9218    0.0380    0.0000 C   0  0  0  0  0  0  0  0  0  0  0  0
    0.3892    0.6680    0.0000 N   0  0  0  0  0  0  0  0  0  0  0  0
   -0.3746    0.3562    0.0000 C   0  0  0  0  0  0  0  0  0  0  0  0
   -1.0758    0.7908    0.0000 C   0  0  0  0  0  0  0  0  0  0  0  0
   -1.8028    0.4008    0.0000 O   0  0  0  0  0  0  0  0  0  0  0  0
   -1.0500    1.6154    0.0000 N   0  0  0  0  0  0  0  0  0  0  0  0
   -1.7513    2.0500    0.0000 N   0  0  0  0  0  0  0  0  0  0  0  0
  1 13  2  0
  1  2  1  0
  2 11  1  0
  2  3  1  0
  3  4  2  0
  4  5  1  0
  5 10  2  0
  5  6  1  0
  6  7  2  0
  7  8  1  0
  8  9  2  0
  9 10  1  0
 10 11  1  0
 11 12  2  0
 12 13  1  0
 13 14  1  0
 14 15  2  0
 14 16  1  0
 16 17  1  0
M  END
>  <DRUGBANK_ID>  (1) 
DB08758

>  <COMMON_NAME>  (1) 
IMIDAZO[2,1-A]ISOQUINOLINE-2-CARBOHYDRAZIDE

$$$$
