981
     RDKit          2D

 20 22  0  0  1  0  0  0  0  0999 V2000
    3.5651    0.0678    0.0000 O   0  0  0  0  0  0  0  0  0  0  0  0
    3.2627    1.4644    0.0000 O   0  0  0  0  0  0  0  0  0  0  0  0
    7.7863   -0.6839    0.0000 N   0  0  0  0  0  0  0  0  0  0  0  0
    6.8691    0.5845    0.0000 N   0  0  0  0  0  0  0  0  0  0  0  0
    2.2044    0.5042    0.0000 N   0  0  0  0  0  0  0  0  0  0  0  0
    6.4566   -0.6851    0.0000 C   0  0  0  0  0  0  0  0  0  0  0  0
    7.1240   -0.2001    0.0000 C   0  0  0  0  0  0  0  0  0  0  0  0
    6.7121   -1.4644    0.0000 C   0  0  0  0  0  0  0  0  0  0  0  0
    5.7891   -0.2001    0.0000 C   0  0  0  0  0  0  0  0  0  0  0  0
    7.5322   -1.4637    0.0000 C   0  0  0  0  0  0  0  0  0  0  0  0
    6.0441    0.5845    0.0000 C   0  0  0  0  0  0  0  0  0  0  0  0
    5.7891   -1.1700    0.0000 C   0  0  0  0  0  0  0  0  0  0  0  0
    8.5714   -0.4303    0.0000 C   0  0  0  0  0  0  0  0  0  0  0  0
    4.9514   -0.3917    0.0000 C   0  0  0  0  0  0  0  0  0  0  0  0
    7.3540    1.2520    0.0000 C   0  0  0  0  0  0  0  0  0  0  0  0
    5.4789    1.2319    0.0000 C   0  0  0  0  0  0  0  0  0  0  0  0
    4.3715    0.2425    0.0000 C   0  0  0  0  0  0  0  0  0  0  0  0
    4.6370    1.0597    0.0000 C   0  0  0  0  0  0  0  0  0  0  0  0
    3.0107    0.6787    0.0000 C   0  0  0  0  0  0  0  0  0  0  0  0
    1.6500    1.1151    0.0000 C   0  0  0  0  0  0  0  0  0  0  0  0
  1 17  1  0
  1 19  1  0
  2 19  2  0
  7  3  1  1
  3 10  1  0
  3 13  1  0
  4  7  1  0
  4 11  1  0
  4 15  1  0
  5 19  1  0
  5 20  1  0
  6  7  1  0
  6  8  1  0
  6  9  1  0
  6 12  1  6
  8 10  1  0
  9 11  2  0
  9 14  1  0
 11 16  1  0
 14 17  2  0
 16 18  2  0
 17 18  1  0
M  END
>  <DRUGBANK_ID>  (1) 
DB00981

>  <SECONDARY_ACCESSION_NUMBERS>  (1) 
APRD00406

>  <COMMON_NAME>  (1) 
Physostigmine

>  <CAS_NUMBER>  (1) 
57-47-6

>  <UNII>  (1) 
9U1VM840SP

>  <SYNONYMS>  (1) 
Eserine; Physostigmine; Physostol

$$$$
