
     RDKit          2D

 33 37  0  0  1  0  0  0  0  0999 V2000
    3.3190    0.3417    0.0000 C   0  0  0  0  0  0  0  0  0  0  0  0
    8.4558    6.1992    0.0000 C   0  0  0  0  0  0  0  0  0  0  0  0
    9.6209    6.1382    0.0000 C   0  0  0  0  0  0  0  0  0  0  0  0
    8.3947    5.0341    0.0000 C   0  0  0  0  0  0  0  0  0  0  0  0
    4.1360    0.4565    0.0000 C   0  0  0  0  0  0  0  0  0  0  0  0
   10.1540    2.1776    0.0000 C   0  0  0  0  0  0  0  0  0  0  0  0
    9.8991    1.3930    0.0000 C   0  0  0  0  0  0  0  0  0  0  0  0
    9.6020    2.7907    0.0000 C   0  0  0  0  0  0  0  0  0  0  0  0
    9.0921    1.2215    0.0000 C   0  0  0  0  0  0  0  0  0  0  0  0
    5.8040    1.6630    0.0000 C   0  0  0  0  0  0  0  0  0  0  0  0
    8.4979    4.0169    0.0000 C   0  0  0  0  0  0  0  0  0  0  0  0
    6.7686    3.5457    0.0000 C   0  0  0  0  0  0  0  0  0  0  0  0
    3.9351    2.7907    0.0000 C   0  0  0  0  0  0  0  0  0  0  0  0
    8.7950    2.6192    0.0000 C   0  0  0  0  0  0  0  0  0  0  0  0
    8.2430    3.2323    0.0000 C   0  0  0  0  0  0  0  0  0  0  0  0
    7.4360    3.0607    0.0000 C   0  0  0  0  0  0  0  0  0  0  0  0
    4.7421    2.6192    0.0000 C   0  0  0  0  0  0  0  0  0  0  0  0
    4.9971    1.8346    0.0000 C   0  0  0  0  0  0  0  0  0  0  0  0
    8.5401    1.8346    0.0000 C   0  0  0  0  0  0  0  0  0  0  0  0
    6.3561    2.2761    0.0000 C   0  0  0  0  0  0  0  0  0  0  0  0
    7.1811    2.2761    0.0000 C   0  0  0  0  0  0  0  0  0  0  0  0
    5.2941    3.2323    0.0000 C   0  0  0  0  0  0  0  0  0  0  0  0
    3.6380    1.3930    0.0000 C   0  0  0  0  0  0  0  0  0  0  0  0
    9.0078    5.5861    0.0000 C   0  0  0  0  0  0  0  0  0  0  0  0
    4.4450    1.2215    0.0000 C   0  0  0  0  0  0  0  0  0  0  0  0
    9.3049    4.1884    0.0000 N   0  0  0  0  0  0  0  0  0  0  0  0
    7.7331    1.6630    0.0000 N   0  0  0  0  0  0  0  0  0  0  0  0
    6.1011    3.0607    0.0000 N   0  0  0  0  0  0  0  0  0  0  0  0
    5.0392    4.0169    0.0000 O   0  0  0  0  0  0  0  0  0  0  0  0
    3.0860    0.7799    0.0000 O   0  0  0  0  0  0  0  0  0  0  0  0
    5.1447    0.7843    0.0000 O   0  0  0  0  0  0  0  0  0  0  0  0
    3.3831    2.1776    0.0000 O   0  0  0  0  0  0  0  0  0  0  0  0
    9.5598    4.9730    0.0000 O   0  0  0  0  0  0  0  0  0  0  0  0
  5  1  1  0
  7  6  2  0
  8  6  1  0
  9  7  1  0
 14  8  2  0
 15 11  1  0
 15 14  1  0
 16 12  1  0
 16 15  2  0
 17 13  1  0
 18 10  1  0
 18 17  2  0
 19  9  2  0
 19 14  1  0
 20 10  2  0
 21 16  1  0
 21 20  1  0
 22 17  1  0
 24  2  1  0
 24  3  1  0
 24  4  1  0
 25  5  1  0
 25 18  1  0
 25 23  1  0
 25 31  1  6
 26 11  2  0
 27 19  1  0
 27 21  2  0
 28 12  1  0
 28 20  1  0
 28 22  1  0
 29 22  2  0
 30 23  2  0
 32 13  1  0
 32 23  1  0
 33 24  1  0
 33 26  1  0
M  END
>  <DRUGBANK_ID>  (1) 
DB06721

>  <COMMON_NAME>  (1) 
Gimatecan

>  <CAS_NUMBER>  (1) 
292618-32-7

>  <UNII>  (1) 
7KKS9R192F

>  <SYNONYMS>  (1) 
(4S)-11-[(E)-(tert-butoxyimino)methyl]-4-ethyl-4-hydroxy-1H-pyrano[3',4':6,7]indolizino[1,2-b]quinoline-3,14(4H,12H)-dione; (4S)-4-ethyl-4-hydroxy-3,14-dioxo-3,4,12,14-tetrahydro-1-H-pyrano[3',4':6,7]-indolizino-[1,2-b]-quinoline-11-carbaldehyde O-(tert-butyl)-(E)-oxime; 1H-Pyrano[3',4':6,7]indolizino[1,2-b]quinoline-11-carboxaldehyde, 4-ethyl-3,4,12,14-tetrahydro-4-hydroxy-3,14-dioxo-, 11-[O-(1,1-dimethylethyl)oxime], (4S)-; Gimatecan

$$$$
