
     RDKit          2D

 15 15  0  0  0  0  0  0  0  0999 V2000
   -1.4533    0.3763    0.0000 C   0  0  0  0  0  0  0  0  0  0  0  0
   -2.2380   -0.7036    0.0000 N   0  0  0  0  0  0  0  0  0  0  0  0
   -2.2380    0.6313    0.0000 N   0  0  0  0  0  0  0  0  0  0  0  0
   -0.7859    0.8612    0.0000 C   0  0  0  0  0  0  0  0  0  0  0  0
   -2.7229   -0.0361    0.0000 C   0  0  0  0  0  0  0  0  0  0  0  0
   -3.5479   -0.0361    0.0000 O   0  0  0  0  0  0  0  0  0  0  0  0
   -1.4533   -0.4486    0.0000 C   0  0  0  0  0  0  0  0  0  0  0  0
   -0.7389   -0.8611    0.0000 C   0  0  0  0  0  0  0  0  0  0  0  0
   -0.0244   -0.4486    0.0000 C   0  0  0  0  0  0  0  0  0  0  0  0
    0.6900   -0.8611    0.0000 C   0  0  0  0  0  0  0  0  0  0  0  0
    1.4045   -0.4486    0.0000 C   0  0  0  0  0  0  0  0  0  0  0  0
    2.1189   -0.8611    0.0000 C   0  0  0  0  0  0  0  0  0  0  0  0
    2.8334   -0.4486    0.0000 C   0  0  0  0  0  0  0  0  0  0  0  0
    2.8334    0.3763    0.0000 O   0  0  0  0  0  0  0  0  0  0  0  0
    3.5479   -0.8611    0.0000 O   0  0  0  0  0  0  0  0  0  0  0  0
  1  3  1  0
  1  4  1  1
  2  5  1  0
  3  5  1  0
  5  6  2  0
  7  1  1  0
  7  2  1  0
  7  8  1  1
  8  9  1  0
  9 10  1  0
 10 11  1  0
 11 12  1  0
 12 13  1  0
 13 14  2  0
 13 15  1  0
M  END
>  <DRUGBANK_ID>  (1) 
DB03775

>  <SECONDARY_ACCESSION_NUMBERS>  (1) 
EXPT01280

>  <COMMON_NAME>  (1) 
Dethiobiotin

>  <CAS_NUMBER>  (1) 
533-48-2

>  <UNII>  (1) 
71U5JB52KS

>  <SYNONYMS>  (1) 
(+)-dethiobiotin; (4R-cis)-5-methyl-2-oxo-4-imidazolidinehexanoic acid; (4R,5S)-5-methyl-2-oxo-4-imidazolidinehexanoic acid; (4R,5S)-dethiobiotin; d-Dethiobiotin

$$$$
