490
     RDKit          2D

 28 31  0  0  0  0  0  0  0  0999 V2000
    9.0752   -1.7862    0.0000 O   0  0  0  0  0  0  0  0  0  0  0  0
    9.0752    1.0717    0.0000 O   0  0  0  0  0  0  0  0  0  0  0  0
    9.0752   -0.3572    0.0000 N   0  0  0  0  0  0  0  0  0  0  0  0
    5.7751    1.0717    0.0000 N   0  0  0  0  0  0  0  0  0  0  0  0
    4.1251    1.0717    0.0000 N   0  0  0  0  0  0  0  0  0  0  0  0
    2.8876    0.3572    0.0000 N   0  0  0  0  0  0  0  0  0  0  0  0
    2.8876    1.7862    0.0000 N   0  0  0  0  0  0  0  0  0  0  0  0
   10.7252   -0.3572    0.0000 C   0  0  0  0  0  0  0  0  0  0  0  0
   11.2102   -1.0247    0.0000 C   0  0  0  0  0  0  0  0  0  0  0  0
   11.2102    0.3102    0.0000 C   0  0  0  0  0  0  0  0  0  0  0  0
   11.9948   -0.7697    0.0000 C   0  0  0  0  0  0  0  0  0  0  0  0
   11.9948    0.0553    0.0000 C   0  0  0  0  0  0  0  0  0  0  0  0
   10.3127   -1.0717    0.0000 C   0  0  0  0  0  0  0  0  0  0  0  0
   10.3127    0.3572    0.0000 C   0  0  0  0  0  0  0  0  0  0  0  0
    9.4877   -1.0717    0.0000 C   0  0  0  0  0  0  0  0  0  0  0  0
    9.4877    0.3572    0.0000 C   0  0  0  0  0  0  0  0  0  0  0  0
    8.2502   -0.3572    0.0000 C   0  0  0  0  0  0  0  0  0  0  0  0
    7.8377    0.3572    0.0000 C   0  0  0  0  0  0  0  0  0  0  0  0
    7.0127    0.3572    0.0000 C   0  0  0  0  0  0  0  0  0  0  0  0
    6.6001    1.0717    0.0000 C   0  0  0  0  0  0  0  0  0  0  0  0
    5.3626    0.3572    0.0000 C   0  0  0  0  0  0  0  0  0  0  0  0
    5.3626    1.7862    0.0000 C   0  0  0  0  0  0  0  0  0  0  0  0
    4.5376    0.3572    0.0000 C   0  0  0  0  0  0  0  0  0  0  0  0
    4.5376    1.7862    0.0000 C   0  0  0  0  0  0  0  0  0  0  0  0
    3.3001    1.0717    0.0000 C   0  0  0  0  0  0  0  0  0  0  0  0
    2.0625    0.3572    0.0000 C   0  0  0  0  0  0  0  0  0  0  0  0
    2.0625    1.7862    0.0000 C   0  0  0  0  0  0  0  0  0  0  0  0
    1.6500    1.0717    0.0000 C   0  0  0  0  0  0  0  0  0  0  0  0
  1 15  2  0
  2 16  2  0
  3 15  1  0
  3 16  1  0
  3 17  1  0
  4 20  1  0
  4 21  1  0
  4 22  1  0
  5 23  1  0
  5 24  1  0
  5 25  1  0
  6 25  2  0
  6 26  1  0
  7 25  1  0
  7 27  2  0
  8  9  1  0
  8 10  1  0
  8 13  1  0
  8 14  1  0
  9 11  1  0
 10 12  1  0
 11 12  1  0
 13 15  1  0
 14 16  1  0
 17 18  1  0
 18 19  1  0
 19 20  1  0
 21 23  1  0
 22 24  1  0
 26 28  2  0
 27 28  1  0
M  END
>  <DRUGBANK_ID>  (1) 
DB00490

>  <SECONDARY_ACCESSION_NUMBERS>  (1) 
APRD00222

>  <COMMON_NAME>  (1) 
Buspirone

>  <CAS_NUMBER>  (1) 
36505-84-7

>  <UNII>  (1) 
TK65WKS8HL

>  <SYNONYMS>  (1) 
8-(4-(4-(2-Pyrimidinyl)-1-piperizinyl)butyl)-8-azaspiro(4,5)decane-7,9-dione; Buspiron; Buspirona; Buspirone; Buspironum

$$$$
