
     RDKit          2D

 29 33  0  0  1  0  0  0  0  0999 V2000
   -7.4340    2.6420    0.0000 O   0  0  0  0  0  0  0  0  0  0  0  0
   -6.7195    2.2295    0.0000 N   0  0  0  0  0  0  0  0  0  0  0  0
   -6.0050    2.6420    0.0000 C   0  0  0  0  0  0  0  0  0  0  0  0
   -6.0050    3.4670    0.0000 O   0  0  0  0  0  0  0  0  0  0  0  0
   -5.2906    2.2295    0.0000 C   0  0  0  0  0  0  0  0  0  0  0  0
   -4.5761    2.6420    0.0000 C   0  0  0  0  0  0  0  0  0  0  0  0
   -3.8616    2.2295    0.0000 N   0  0  0  0  0  0  0  0  0  0  0  0
   -3.8616    1.4045    0.0000 C   0  0  0  0  0  0  0  0  0  0  0  0
   -4.5761    0.9920    0.0000 N   0  0  0  0  0  0  0  0  0  0  0  0
   -5.2906    1.4045    0.0000 C   0  0  0  0  0  0  0  0  0  0  0  0
   -3.1471    0.9920    0.0000 N   0  0  0  0  0  0  0  0  0  0  0  0
   -2.3935    1.3276    0.0000 C   0  0  0  0  0  0  0  0  0  0  0  0
   -1.8414    0.7145    0.0000 C   0  0  0  0  0  0  0  0  0  0  0  0
   -2.2539    0.0000    0.0000 C   0  0  0  0  0  0  0  0  0  0  0  0
   -3.0609    0.1715    0.0000 C   0  0  0  0  0  0  0  0  0  0  0  0
   -1.4289    0.0000    0.0000 C   0  0  0  0  0  0  0  0  0  0  0  0
   -0.7145   -0.4125    0.0000 N   0  0  0  0  0  0  0  0  0  0  0  0
    0.0000    0.0000    0.0000 C   0  0  0  0  0  0  0  0  0  0  0  0
    0.7145   -0.4125    0.0000 C   0  0  0  0  0  0  0  0  0  0  0  0
    1.4289    0.0000    0.0000 N   0  0  0  0  0  0  0  0  0  0  0  0
    2.1434   -0.4125    0.0000 C   0  0  0  0  0  0  0  0  0  0  0  0
    2.8579    0.0000    0.0000 C   0  0  0  0  0  0  0  0  0  0  0  0
    3.5724   -0.4125    0.0000 C   0  0  0  0  0  0  0  0  0  0  0  0
    3.5724   -1.2375    0.0000 C   0  0  0  0  0  0  0  0  0  0  0  0
    4.2868   -1.6500    0.0000 F   0  0  0  0  0  0  0  0  0  0  0  0
    2.8579   -1.6500    0.0000 C   0  0  0  0  0  0  0  0  0  0  0  0
    2.1434   -1.2375    0.0000 C   0  0  0  0  0  0  0  0  0  0  0  0
    1.4289   -1.6500    0.0000 C   0  0  0  0  0  0  0  0  0  0  0  0
    0.7145   -1.2375    0.0000 C   0  0  0  0  0  0  0  0  0  0  0  0
  1  2  1  0
  2  3  1  0
  3  4  2  0
  3  5  1  0
  5  6  2  0
  5 10  1  0
  6  7  1  0
  7  8  2  0
  8  9  1  0
  8 11  1  0
  9 10  2  0
 11 12  1  0
 11 15  1  0
 13 12  1  6
 13 14  1  0
 13 16  1  0
 14 15  1  6
 14 16  1  0
 16 17  1  1
 17 18  1  0
 18 19  1  0
 19 20  2  0
 19 29  1  0
 20 21  1  0
 21 22  2  0
 21 27  1  0
 22 23  1  0
 23 24  2  0
 24 25  1  0
 24 26  1  0
 26 27  2  0
 27 28  1  0
 28 29  2  0
M  END
>  <DRUGBANK_ID>  (1) 
DB15419

>  <COMMON_NAME>  (1) 
Nanatinostat

>  <CAS_NUMBER>  (1) 
1256448-47-1

>  <UNII>  (1) 
YTL7A418KQ

>  <SYNONYMS>  (1) 
Nanatinostat

$$$$
