OPA
     RDKit          2D

 18 19  0  0  0  0  0  0  0  0999 V2000
    2.2933   -0.5895    0.0000 O   0  0  0  0  0  0  0  0  0  0  0  0
    1.5789   -1.0020    0.0000 C   0  0  0  0  0  0  0  0  0  0  0  0
    0.8644   -0.5895    0.0000 C   0  0  0  0  0  0  0  0  0  0  0  0
    0.8644    0.2355    0.0000 C   0  0  0  0  0  0  0  0  0  0  0  0
    1.5789    0.6480    0.0000 C   0  0  0  0  0  0  0  0  0  0  0  0
    2.2933    0.2355    0.0000 C   0  0  0  0  0  0  0  0  0  0  0  0
    0.0798   -0.8445    0.0000 S   0  0  0  0  0  0  0  0  0  0  0  0
   -0.4051   -0.1770    0.0000 C   0  0  0  0  0  0  0  0  0  0  0  0
    0.0798    0.4904    0.0000 C   0  0  0  0  0  0  0  0  0  0  0  0
   -0.1752    1.2750    0.0000 C   0  0  0  0  0  0  0  0  0  0  0  0
   -0.9821    1.4466    0.0000 O   0  0  0  0  0  0  0  0  0  0  0  0
    0.3769    1.8881    0.0000 O   0  0  0  0  0  0  0  0  0  0  0  0
   -1.2301   -0.1770    0.0000 N   0  0  0  0  0  0  0  0  0  0  0  0
   -1.6426   -0.8915    0.0000 C   0  0  0  0  0  0  0  0  0  0  0  0
   -2.4676   -0.8915    0.0000 C   0  0  0  0  0  0  0  0  0  0  0  0
   -2.8801   -1.6060    0.0000 O   0  0  0  0  0  0  0  0  0  0  0  0
   -2.8801   -0.1770    0.0000 O   0  0  0  0  0  0  0  0  0  0  0  0
   -1.2301   -1.6060    0.0000 O   0  0  0  0  0  0  0  0  0  0  0  0
  1  2  1  0
  1  6  1  0
  2  3  1  0
  3  4  2  0
  3  7  1  0
  4  5  1  0
  4  9  1  0
  5  6  1  0
  7  8  1  0
  8  9  2  0
  8 13  1  0
  9 10  1  0
 10 11  1  0
 10 12  2  0
 13 14  1  0
 14 15  1  0
 14 18  2  0
 15 16  1  0
 15 17  2  0
M  END
>  <DRUGBANK_ID>  (1) 
DB03102

>  <SECONDARY_ACCESSION_NUMBERS>  (1) 
EXPT02439

>  <COMMON_NAME>  (1) 
2-(Oxalyl-Amino)-4,7-Dihydro-5h-Thieno[2,3-C]Pyran-3-Carboxylic Acid

$$$$
