C15
     RDKit          2D

 22 21  0  0  0  0  0  0  0  0999 V2000
    4.6732    0.9492    0.0000 C   0  0  0  0  0  0  0  0  0  0  0  0
    3.8763    0.7357    0.0000 C   0  0  0  0  0  0  0  0  0  0  0  0
    3.6628   -0.0612    0.0000 C   0  0  0  0  0  0  0  0  0  0  0  0
   -3.1971   -6.3378    0.0000 C   0  0  0  0  0  0  0  0  0  0  0  0
   -2.9835   -5.5408    0.0000 C   0  0  0  0  0  0  0  0  0  0  0  0
   -2.1866   -5.3273    0.0000 C   0  0  0  0  0  0  0  0  0  0  0  0
   -1.9730   -4.5303    0.0000 C   0  0  0  0  0  0  0  0  0  0  0  0
    2.8658   -0.2749    0.0000 N   0  0  0  0  0  0  0  0  0  0  0  0
    3.0794   -1.0718    0.0000 C   0  0  0  0  0  0  0  0  0  0  0  0
    2.6523    0.5221    0.0000 C   0  0  0  0  0  0  0  0  0  0  0  0
   -1.1762   -4.3168    0.0000 C   0  0  0  0  0  0  0  0  0  0  0  0
   -0.9625   -3.5198    0.0000 C   0  0  0  0  0  0  0  0  0  0  0  0
   -0.1656   -3.3063    0.0000 C   0  0  0  0  0  0  0  0  0  0  0  0
    0.0479   -2.5094    0.0000 C   0  0  0  0  0  0  0  0  0  0  0  0
    0.8448   -2.2958    0.0000 C   0  0  0  0  0  0  0  0  0  0  0  0
    1.0584   -1.4989    0.0000 C   0  0  0  0  0  0  0  0  0  0  0  0
    1.8553   -1.2853    0.0000 C   0  0  0  0  0  0  0  0  0  0  0  0
    2.0689   -0.4884    0.0000 C   0  0  0  0  0  0  0  0  0  0  0  0
    4.8869    1.7462    0.0000 S   0  0  0  0  0  0  0  0  0  0  0  0
    5.1004    2.5431    0.0000 O   0  0  0  0  0  0  0  0  0  0  0  0
    5.6838    1.5326    0.0000 O   0  0  0  0  0  0  0  0  0  0  0  0
    4.0899    1.9597    0.0000 O   0  0  0  0  0  0  0  0  0  0  0  0
  1  2  1  0
  1 19  1  0
  2  3  1  0
  3  8  1  0
  4  5  1  0
  5  6  1  0
  6  7  1  0
  7 11  1  0
  8  9  1  0
  8 10  1  0
  8 18  1  0
 11 12  1  0
 12 13  1  0
 13 14  1  0
 14 15  1  0
 15 16  1  0
 16 17  1  0
 17 18  1  0
 19 20  2  0
 19 21  2  0
 19 22  1  0
M  CHG  1   8   1
M  END
>  <DRUGBANK_ID>  (1) 
DB02643

>  <SECONDARY_ACCESSION_NUMBERS>  (1) 
EXPT00799

>  <COMMON_NAME>  (1) 
N-Dodecyl-N,N-Dimethyl-3-Ammonio-1-Propanesulfonate

>  <UNII>  (1) 
R6P3KW3E8U

$$$$
