
     RDKit          2D

 28 29  0  0  0  0  0  0  0  0999 V2000
    0.1767   -1.9943    0.0000 P   0  0  0  0  0  0  0  0  0  0  0  0
    1.4822   -2.5755    0.0000 P   0  0  0  0  0  0  0  0  0  0  0  0
    2.7877   -3.1568    0.0000 P   0  0  0  0  0  0  0  0  0  0  0  0
   -1.3586    0.0391    0.0000 O   0  0  0  0  0  0  0  0  0  0  0  0
   -2.9236   -1.4130    0.0000 O   0  0  0  0  0  0  0  0  0  0  0  0
   -0.3081   -1.3268    0.0000 O   0  0  0  0  0  0  0  0  0  0  0  0
   -3.4552    1.3491    0.0000 O   0  0  0  0  0  0  0  0  0  0  0  0
    0.8442   -1.5093    0.0000 O   0  0  0  0  0  0  0  0  0  0  0  0
   -0.4907   -2.4792    0.0000 O   0  0  0  0  0  0  0  0  0  0  0  0
    2.3028   -2.4892    0.0000 O   0  0  0  0  0  0  0  0  0  0  0  0
   -2.0261    3.8242    0.0000 O   0  0  0  0  0  0  0  0  0  0  0  0
    1.5685   -3.3960    0.0000 O   0  0  0  0  0  0  0  0  0  0  0  0
    1.3959   -1.7549    0.0000 O   0  0  0  0  0  0  0  0  0  0  0  0
    3.4552   -2.6718    0.0000 O   0  0  0  0  0  0  0  0  0  0  0  0
    3.2726   -3.8242    0.0000 O   0  0  0  0  0  0  0  0  0  0  0  0
    2.1202   -3.6417    0.0000 O   0  0  0  0  0  0  0  0  0  0  0  0
   -2.0261    1.3491    0.0000 N   0  0  0  0  0  0  0  0  0  0  0  0
   -2.7407    2.5867    0.0000 N   0  0  0  0  0  0  0  0  0  0  0  0
    0.6616   -2.6617    0.0000 N   0  0  0  0  0  0  0  0  0  0  0  0
   -2.4386   -0.7456    0.0000 C   0  0  0  0  0  0  0  0  0  0  0  0
   -1.6136   -0.7456    0.0000 C   0  0  0  0  0  0  0  0  0  0  0  0
   -2.6937    0.0391    0.0000 C   0  0  0  0  0  0  0  0  0  0  0  0
   -2.0261    0.5240    0.0000 C   0  0  0  0  0  0  0  0  0  0  0  0
   -1.1287   -1.4130    0.0000 C   0  0  0  0  0  0  0  0  0  0  0  0
   -2.7407    1.7616    0.0000 C   0  0  0  0  0  0  0  0  0  0  0  0
   -1.3116    1.7616    0.0000 C   0  0  0  0  0  0  0  0  0  0  0  0
   -1.3116    2.5867    0.0000 C   0  0  0  0  0  0  0  0  0  0  0  0
   -2.0261    2.9992    0.0000 C   0  0  0  0  0  0  0  0  0  0  0  0
  1  6  1  0
  1  8  1  0
  1  9  2  0
  1 19  1  0
  2 10  1  0
  2 12  1  0
  2 13  2  0
  2 19  1  0
  3 10  1  0
  3 14  1  0
  3 15  1  0
  3 16  2  0
  4 21  1  0
  4 23  1  0
  6 24  1  0
  7 25  2  0
 11 28  2  0
 17 25  1  0
 17 26  1  0
 18 25  1  0
 18 28  1  0
 20  5  1  1
 20 21  1  0
 20 22  1  0
 21 24  1  6
 22 23  1  0
 23 17  1  6
 26 27  2  0
 27 28  1  0
M  END
>  <DRUGBANK_ID>  (1) 
DB01965

>  <SECONDARY_ACCESSION_NUMBERS>  (1) 
EXPT01299

>  <COMMON_NAME>  (1) 
2'-Deoxyuridine 5'-alpha,beta-imido-triphosphate

$$$$
