655
     RDKit          2D

 25 28  0  0  0  0  0  0  0  0999 V2000
    2.3484   -0.5924    0.0000 C   0  0  0  0  0  0  0  0  0  0  0  0
    2.3484   -1.4174    0.0000 C   0  0  0  0  0  0  0  0  0  0  0  0
    1.6340   -1.8299    0.0000 C   0  0  0  0  0  0  0  0  0  0  0  0
    0.9195   -1.4174    0.0000 C   0  0  0  0  0  0  0  0  0  0  0  0
    0.9195   -0.5924    0.0000 C   0  0  0  0  0  0  0  0  0  0  0  0
    1.6340   -0.1799    0.0000 C   0  0  0  0  0  0  0  0  0  0  0  0
    3.0629   -0.1799    0.0000 C   0  0  0  0  0  0  0  0  0  0  0  0
    3.7774   -0.5924    0.0000 N   0  0  0  0  0  0  0  0  0  0  0  0
    3.0629    0.6451    0.0000 N   0  0  0  0  0  0  0  0  0  0  0  0
    0.1349   -1.6724    0.0000 N   0  0  0  0  0  0  0  0  0  0  0  0
    0.1349   -0.3375    0.0000 N   0  0  0  0  0  0  0  0  0  0  0  0
   -0.3500   -1.0049    0.0000 C   0  0  0  0  0  0  0  0  0  0  0  0
   -1.1750   -1.0049    0.0000 C   0  0  0  0  0  0  0  0  0  0  0  0
   -1.5875   -1.7194    0.0000 C   0  0  0  0  0  0  0  0  0  0  0  0
   -2.4125   -1.7194    0.0000 C   0  0  0  0  0  0  0  0  0  0  0  0
   -2.8250   -1.0049    0.0000 C   0  0  0  0  0  0  0  0  0  0  0  0
   -2.4125   -0.2905    0.0000 C   0  0  0  0  0  0  0  0  0  0  0  0
   -2.8250    0.4240    0.0000 O   0  0  0  0  0  0  0  0  0  0  0  0
   -1.5875   -0.2905    0.0000 C   0  0  0  0  0  0  0  0  0  0  0  0
   -1.1750    0.4240    0.0000 O   0  0  0  0  0  0  0  0  0  0  0  0
   -1.5921    1.2247    0.0000 C   0  0  0  0  0  0  0  0  0  0  0  0
   -2.4125    1.1385    0.0000 C   0  0  0  0  0  0  0  0  0  0  0  0
   -2.7481    1.8922    0.0000 C   0  0  0  0  0  0  0  0  0  0  0  0
   -2.1350    2.4442    0.0000 C   0  0  0  0  0  0  0  0  0  0  0  0
   -1.4205    2.0317    0.0000 C   0  0  0  0  0  0  0  0  0  0  0  0
  1  2  2  0
  1  6  1  0
  1  7  1  0
  2  3  1  0
  3  4  2  0
  4  5  1  0
  4 10  1  0
  5  6  2  0
  5 11  1  0
  7  8  1  0
  7  9  2  0
 10 12  1  0
 11 12  2  0
 12 13  1  0
 13 14  2  0
 13 19  1  0
 14 15  1  0
 15 16  2  0
 16 17  1  0
 17 18  1  0
 17 19  2  0
 18 22  1  0
 19 20  1  0
 21 22  1  0
 21 25  1  0
 22 23  1  0
 23 24  1  0
 24 25  1  0
M  CHG  2   9   1  20  -1
M  END
>  <DRUGBANK_ID>  (1) 
DB02526

>  <SECONDARY_ACCESSION_NUMBERS>  (1) 
EXPT00270

>  <COMMON_NAME>  (1) 
CRA_10655

$$$$
