
     RDKit          2D

 21 21  0  0  0  0  0  0  0  0999 V2000
   -2.8574   -0.2062    0.0000 C   0  0  0  0  0  0  0  0  0  0  0  0
   -3.5707   -0.6184    0.0000 C   0  0  0  0  0  0  0  0  0  0  0  0
   -3.5707   -1.4432    0.0000 O   0  0  0  0  0  0  0  0  0  0  0  0
   -4.2854   -1.8554    0.0000 C   0  0  0  0  0  0  0  0  0  0  0  0
   -1.4280    0.6184    0.0000 N   0  0  0  0  0  0  0  0  0  0  0  0
   -2.1427    1.0307    0.0000 C   0  0  0  0  0  0  0  0  0  0  0  0
   -2.8574    0.6184    0.0000 C   0  0  0  0  0  0  0  0  0  0  0  0
   -3.5707    1.0307    0.0000 C   0  0  0  0  0  0  0  0  0  0  0  0
   -4.2854    0.6184    0.0000 C   0  0  0  0  0  0  0  0  0  0  0  0
   -4.2854   -0.2062    0.0000 C   0  0  0  0  0  0  0  0  0  0  0  0
   -4.9987   -0.6184    0.0000 O   0  0  0  0  0  0  0  0  0  0  0  0
   -0.7147    1.8554    0.0000 O   0  0  0  0  0  0  0  0  0  0  0  0
   -0.7147    1.0307    0.0000 C   0  0  0  0  0  0  0  0  0  0  0  0
   -0.0001    0.6184    0.0000 C   0  0  0  0  0  0  0  0  0  0  0  0
    0.7132    1.0307    0.0000 C   0  0  0  0  0  0  0  0  0  0  0  0
    1.4279    0.6184    0.0000 C   0  0  0  0  0  0  0  0  0  0  0  0
    2.1426    1.0307    0.0000 C   0  0  0  0  0  0  0  0  0  0  0  0
    2.8560    0.6184    0.0000 C   0  0  0  0  0  0  0  0  0  0  0  0
    3.5707    1.0307    0.0000 C   0  0  0  0  0  0  0  0  0  0  0  0
    4.2854    0.6184    0.0000 C   0  0  0  0  0  0  0  0  0  0  0  0
    4.9987    1.0307    0.0000 C   0  0  0  0  0  0  0  0  0  0  0  0
  1  2  2  0
  1  7  1  0
  2  3  1  0
  2 10  1  0
  3  4  1  0
  5  6  1  0
  5 13  1  0
  6  7  1  0
  7  8  2  0
  8  9  1  0
  9 10  2  0
 10 11  1  0
 12 13  2  0
 13 14  1  0
 14 15  1  0
 15 16  1  0
 16 17  1  0
 17 18  1  0
 18 19  1  0
 19 20  1  0
 20 21  1  0
M  END
>  <DRUGBANK_ID>  (1) 
DB11324

>  <COMMON_NAME>  (1) 
Nonivamide

>  <CAS_NUMBER>  (1) 
2444-46-4

>  <UNII>  (1) 
S846B891OR

>  <SYNONYMS>  (1) 
Hydroxymethoxybenzyl pelargonamide; N-Nonanoyl vanillylamide; N-Vanillylnonamide; N-Vanillylpelargonamide; Nonivamide; Pelargonyl vanillylamide; Pseudocapsaicin; Vanillyl-N-nonylamide

$$$$
