
     RDKit          2D

 26 28  0  0  1  0  0  0  0  0999 V2000
   -0.5683   -1.4940    0.0000 C   0  0  0  0  0  0  0  0  0  0  0  0
   -2.7431   -1.3078    0.0000 C   0  0  0  0  0  0  0  0  0  0  0  0
    3.3523    1.1104    0.0000 C   0  0  0  0  0  0  0  0  0  0  0  0
    0.6538    1.5229    0.0000 C   0  0  0  0  0  0  0  0  0  0  0  0
    0.0992   -1.0091    0.0000 C   0  0  0  0  0  0  0  0  0  0  0  0
   -1.9894   -1.6433    0.0000 C   0  0  0  0  0  0  0  0  0  0  0  0
    1.9233    1.9354    0.0000 C   0  0  0  0  0  0  0  0  0  0  0  0
    0.8838   -1.2640    0.0000 C   0  0  0  0  0  0  0  0  0  0  0  0
    1.3687   -0.5966    0.0000 C   0  0  0  0  0  0  0  0  0  0  0  0
    2.6378    2.3479    0.0000 C   0  0  0  0  0  0  0  0  0  0  0  0
    1.9233    1.1104    0.0000 C   0  0  0  0  0  0  0  0  0  0  0  0
    0.8838    0.0709    0.0000 C   0  0  0  0  0  0  0  0  0  0  0  0
    2.6378    3.1729    0.0000 N   0  0  0  0  0  0  0  0  0  0  0  0
    3.3523    1.9354    0.0000 N   0  0  0  0  0  0  0  0  0  0  0  0
    2.6378    0.6979    0.0000 N   0  0  0  0  0  0  0  0  0  0  0  0
    1.1387    2.1904    0.0000 N   0  0  0  0  0  0  0  0  0  0  0  0
    1.1387    0.8555    0.0000 N   0  0  0  0  0  0  0  0  0  0  0  0
   -1.9032   -2.4638    0.0000 O   0  0  0  0  0  0  0  0  0  0  0  0
    1.1387   -2.0486    0.0000 O   0  0  0  0  0  0  0  0  0  0  0  0
    2.1937   -0.5966    0.0000 O   0  0  0  0  0  0  0  0  0  0  0  0
   -4.0779   -2.2776    0.0000 O   0  0  0  0  0  0  0  0  0  0  0  0
   -3.8954   -1.1253    0.0000 O   0  0  0  0  0  0  0  0  0  0  0  0
   -2.9256   -2.4601    0.0000 O   0  0  0  0  0  0  0  0  0  0  0  0
   -1.3220   -1.1584    0.0000 O   0  0  0  0  0  0  0  0  0  0  0  0
    0.0992   -0.1841    0.0000 O   0  0  0  0  0  0  0  0  0  0  0  0
   -3.4105   -1.7927    0.0000 P   0  0  0  0  0  0  0  0  0  0  0  0
  5  1  1  1
  6  2  1  0
  8  5  1  0
  8 19  1  6
  9  8  1  0
  9 20  1  6
 10  7  2  0
 11  7  1  0
 12  9  1  0
 12 17  1  1
 13 10  1  0
 14  3  2  0
 14 10  1  0
 15  3  1  0
 15 11  2  0
 16  4  2  0
 16  7  1  0
 17  4  1  0
 17 11  1  0
 18  6  2  0
 24  1  1  0
 24  6  1  0
 25  5  1  0
 25 12  1  0
 26  2  1  0
 26 21  1  0
 26 22  1  0
 26 23  2  0
M  END
>  <DRUGBANK_ID>  (1) 
DB02607

>  <SECONDARY_ACCESSION_NUMBERS>  (1) 
EXPT02938

>  <COMMON_NAME>  (1) 
Adenosine Phosphonoacetic Acid

$$$$
