550
     RDKit          2D

 31 34  0  0  0  0  0  0  0  0999 V2000
   -4.1127   -0.1210    0.0000 O   0  0  0  0  0  0  0  0  0  0  0  0
   -4.8100   -1.6165    0.0000 O   0  0  0  0  0  0  0  0  0  0  0  0
   -3.0603    0.8429    0.0000 O   0  0  0  0  0  0  0  0  0  0  0  0
   -1.6531    1.0910    0.0000 O   0  0  0  0  0  0  0  0  0  0  0  0
    1.4305   -1.4892    0.0000 O   0  0  0  0  0  0  0  0  0  0  0  0
   -2.8176   -0.7249    0.0000 C   0  0  0  0  0  0  0  0  0  0  0  0
   -2.1418   -0.2517    0.0000 C   0  0  0  0  0  0  0  0  0  0  0  0
   -2.0699   -1.0736    0.0000 C   0  0  0  0  0  0  0  0  0  0  0  0
   -2.2851    0.5607    0.0000 C   0  0  0  0  0  0  0  0  0  0  0  0
   -1.4274    0.1608    0.0000 C   0  0  0  0  0  0  0  0  0  0  0  0
   -3.6395   -0.7968    0.0000 C   0  0  0  0  0  0  0  0  0  0  0  0
   -3.9882   -1.5445    0.0000 N   0  0  0  0  0  0  0  0  0  0  0  0
   -3.2036    1.6554    0.0000 C   0  0  0  0  0  0  0  0  0  0  0  0
   -0.7129   -0.2517    0.0000 C   0  0  0  0  0  0  0  0  0  0  0  0
    0.0016    0.1608    0.0000 C   0  0  0  0  0  0  0  0  0  0  0  0
    0.7160   -0.2517    0.0000 C   0  0  0  0  0  0  0  0  0  0  0  0
    0.7160   -1.0767    0.0000 C   0  0  0  0  0  0  0  0  0  0  0  0
    0.0016   -1.4892    0.0000 C   0  0  0  0  0  0  0  0  0  0  0  0
   -0.7129   -1.0767    0.0000 C   0  0  0  0  0  0  0  0  0  0  0  0
    2.1450   -1.0767    0.0000 C   0  0  0  0  0  0  0  0  0  0  0  0
    2.1450   -0.2517    0.0000 C   0  0  0  0  0  0  0  0  0  0  0  0
    1.4305    0.1608    0.0000 C   0  0  0  0  0  0  0  0  0  0  0  0
    1.4305    0.9858    0.0000 C   0  0  0  0  0  0  0  0  0  0  0  0
    2.1450    1.3983    0.0000 N   0  0  0  0  0  0  0  0  0  0  0  0
    2.8595    0.1608    0.0000 C   0  0  0  0  0  0  0  0  0  0  0  0
    2.8595    0.9858    0.0000 C   0  0  0  0  0  0  0  0  0  0  0  0
    3.5739    1.3983    0.0000 C   0  0  0  0  0  0  0  0  0  0  0  0
    4.2884    0.9858    0.0000 C   0  0  0  0  0  0  0  0  0  0  0  0
    4.2884    0.1608    0.0000 C   0  0  0  0  0  0  0  0  0  0  0  0
    3.5739   -0.2517    0.0000 C   0  0  0  0  0  0  0  0  0  0  0  0
    0.7160    1.3983    0.0000 C   0  0  0  0  0  0  0  0  0  0  0  0
  1 11  2  0
  2 12  1  0
  3  9  1  0
  3 13  1  0
  4  9  2  0
  5 17  1  0
  5 20  1  0
  6  7  1  0
  6  8  1  0
  6 11  1  6
  7  8  1  0
  7  9  1  0
  7 10  1  6
 10 14  1  0
 11 12  1  0
 14 15  2  0
 14 19  1  0
 15 16  1  0
 16 17  2  0
 17 18  1  0
 18 19  2  0
 20 21  1  0
 21 22  2  0
 21 25  1  0
 22 23  1  0
 23 24  2  0
 23 31  1  0
 24 26  1  0
 25 26  2  0
 25 30  1  0
 26 27  1  0
 27 28  2  0
 28 29  1  0
 29 30  2  0
M  END
>  <DRUGBANK_ID>  (1) 
DB07147

>  <COMMON_NAME>  (1) 
methyl (1R,2S)-2-(hydroxycarbamoyl)-1-{4-[(2-methylquinolin-4-yl)methoxy]benzyl}cyclopropanecarboxylate

$$$$
