
     RDKit          2D

 26 26  0  0  0  0  0  0  0  0999 V2000
    0.1084   -1.7714    0.0000 C   0  0  0  0  0  0  0  0  0  0  0  0
    0.1084   -2.6011    0.0000 C   0  0  0  0  0  0  0  0  0  0  0  0
    0.8228   -3.0114    0.0000 C   0  0  0  0  0  0  0  0  0  0  0  0
    1.5416   -2.6011    0.0000 C   0  0  0  0  0  0  0  0  0  0  0  0
    1.5416   -1.7714    0.0000 O   0  0  0  0  0  0  0  0  0  0  0  0
    0.8228   -1.3613    0.0000 C   0  0  0  0  0  0  0  0  0  0  0  0
    0.8228   -0.5315    0.0000 S   0  0  0  0  0  0  0  0  0  0  0  0
    0.1084   -0.1213    0.0000 C   0  0  0  0  0  0  0  0  0  0  0  0
   -0.7789   -0.6008    0.0000 N   0  0  0  0  0  0  0  0  0  0  0  0
   -1.1902    0.0484    0.0000 O   0  0  0  0  0  0  0  0  0  0  0  0
   -2.0153    0.0484    0.0000 S   0  0  0  0  0  0  0  0  0  0  0  0
   -2.2296    0.8471    0.0000 O   0  0  0  0  0  0  0  0  0  0  0  0
   -2.0153   -0.7766    0.0000 O   0  0  0  0  0  0  0  0  0  0  0  0
   -2.8403    0.0484    0.0000 O   0  0  0  0  0  0  0  0  0  0  0  0
    0.1084    0.7037    0.0000 C   0  0  0  0  0  0  0  0  0  0  0  0
   -0.6057    1.1186    0.0000 C   0  0  0  0  0  0  0  0  0  0  0  0
   -0.6057    1.9436    0.0000 C   0  0  0  0  0  0  0  0  0  0  0  0
   -1.3197    2.3538    0.0000 C   0  0  0  0  0  0  0  0  0  0  0  0
   -1.3197    3.1789    0.0000 S   0  0  0  0  0  0  0  0  0  0  0  0
   -2.1188    3.3932    0.0000 C   0  0  0  0  0  0  0  0  0  0  0  0
   -0.3629    3.8365    0.0000 O   0  0  0  0  0  0  0  0  0  0  0  0
    2.1215   -3.1810    0.0000 C   0  0  0  0  0  0  0  0  0  0  0  0
    2.8403   -2.7709    0.0000 O   0  0  0  0  0  0  0  0  0  0  0  0
    0.8228   -3.8365    0.0000 O   0  0  0  0  0  0  0  0  0  0  0  0
   -0.6055   -3.0114    0.0000 O   0  0  0  0  0  0  0  0  0  0  0  0
   -0.6055   -1.3613    0.0000 O   0  0  0  0  0  0  0  0  0  0  0  0
  1  2  1  0
  1  6  1  0
  1 26  1  1
  2  3  1  0
  2 25  1  6
  3  4  1  0
  3 24  1  1
  4  5  1  0
  4 22  1  6
  5  6  1  0
  6  7  1  6
  7  8  1  0
  8  9  2  0
  8 15  1  0
  9 10  1  0
 10 11  1  0
 11 12  2  0
 11 13  2  0
 11 14  1  0
 15 16  1  0
 16 17  1  0
 17 18  1  0
 18 19  1  0
 19 20  1  0
 19 21  1  0
 22 23  1  0
M  CHG  2  19   1  21  -1
M  END
>  <DRUGBANK_ID>  (1) 
DB15436

>  <COMMON_NAME>  (1) 
Glucoraphanin

>  <CAS_NUMBER>  (1) 
1432982-77-8

>  <UNII>  (1) 
Q86A197713

>  <SYNONYMS>  (1) 
4-methylsulfinylbutyl glucosinolate; Glucorafanin; Sulforaphane glucosinolate

$$$$
