
     RDKit          2D

  7  6  0  0  0  0  0  0  0  0999 V2000
    2.4750   -1.4289    0.0000 O   0  0  0  0  0  0  0  0  0  0  0  0
    2.0625   -0.7145    0.0000 C   0  0  0  0  0  0  0  0  0  0  0  0
    2.4750   -0.0000    0.0000 O   0  0  0  0  0  0  0  0  0  0  0  0
    1.2375   -0.7145    0.0000 C   0  0  0  0  0  0  0  0  0  0  0  0
    0.8250   -1.4289    0.0000 O   0  0  0  0  0  0  0  0  0  0  0  0
    0.8250    0.0000    0.0000 C   0  0  0  0  0  0  0  0  0  0  0  0
    0.0000    0.0000    0.0000 Br  0  0  0  0  0  0  0  0  0  0  0  0
  1  2  1  0
  2  3  2  0
  2  4  1  0
  4  5  2  0
  4  6  1  0
  6  7  1  0
M  END
>  <DRUGBANK_ID>  (1) 
DB17135

>  <COMMON_NAME>  (1) 
Bromopyruvate

>  <CAS_NUMBER>  (1) 
1113-59-3

>  <UNII>  (1) 
63JMV04GRK

>  <SYNONYMS>  (1) 
3-bromo-2-oxopropanoic acid; 3-bromopyruvate; 3-bromopyruvic acid; Bromopyruvic acid

$$$$
