780
     RDKit          2D

 10 10  0  0  0  0  0  0  0  0999 V2000
    3.0790    1.3942    0.0000 N   0  0  0  0  0  0  0  0  0  0  0  0
    3.7934    1.8067    0.0000 N   0  0  0  0  0  0  0  0  0  0  0  0
    2.3644    0.1568    0.0000 C   0  0  0  0  0  0  0  0  0  0  0  0
    2.3644   -0.6683    0.0000 C   0  0  0  0  0  0  0  0  0  0  0  0
    3.0790    0.5692    0.0000 C   0  0  0  0  0  0  0  0  0  0  0  0
    3.0790   -1.0808    0.0000 C   0  0  0  0  0  0  0  0  0  0  0  0
    1.6500   -1.0808    0.0000 C   0  0  0  0  0  0  0  0  0  0  0  0
    3.0790   -1.9058    0.0000 C   0  0  0  0  0  0  0  0  0  0  0  0
    1.6500   -1.9058    0.0000 C   0  0  0  0  0  0  0  0  0  0  0  0
    2.3644   -2.3182    0.0000 C   0  0  0  0  0  0  0  0  0  0  0  0
  1  2  1  0
  1  5  1  0
  3  4  1  0
  3  5  1  0
  4  6  2  0
  4  7  1  0
  6  8  1  0
  7  9  2  0
  8 10  2  0
  9 10  1  0
M  END
>  <DRUGBANK_ID>  (1) 
DB00780

>  <SECONDARY_ACCESSION_NUMBERS>  (1) 
APRD00099

>  <COMMON_NAME>  (1) 
Phenelzine

>  <CAS_NUMBER>  (1) 
51-71-8

>  <UNII>  (1) 
O408N561GF

>  <SYNONYMS>  (1) 
Fenelzina; Phenelzin; Phenelzine; Ph√©nelzine; Phenelzinum

$$$$
