
     RDKit          2D

 29 32  0  0  0  0  0  0  0  0999 V2000
    1.9042   -7.0330    0.0000 C   0  0  0  0  0  0  0  0  0  0  0  0
    2.1591   -6.2484    0.0000 C   0  0  0  0  0  0  0  0  0  0  0  0
    2.9437   -6.5033    0.0000 C   0  0  0  0  0  0  0  0  0  0  0  0
    1.3745   -5.9934    0.0000 C   0  0  0  0  0  0  0  0  0  0  0  0
    2.4140   -5.4638    0.0000 C   0  0  0  0  0  0  0  0  0  0  0  0
    1.8620   -4.8507    0.0000 N   0  0  0  0  0  0  0  0  0  0  0  0
    2.1169   -4.0660    0.0000 C   0  0  0  0  0  0  0  0  0  0  0  0
    1.5649   -3.4530    0.0000 C   0  0  0  0  0  0  0  0  0  0  0  0
    1.8198   -2.6683    0.0000 N   0  0  0  0  0  0  0  0  0  0  0  0
    1.3349   -2.0009    0.0000 C   0  0  0  0  0  0  0  0  0  0  0  0
    0.5099   -2.0009    0.0000 S   0  0  0  0  0  0  0  0  0  0  0  0
    0.0974   -1.2864    0.0000 C   0  0  0  0  0  0  0  0  0  0  0  0
   -0.7276   -1.2864    0.0000 C   0  0  0  0  0  0  0  0  0  0  0  0
   -1.1401   -0.5720    0.0000 C   0  0  0  0  0  0  0  0  0  0  0  0
   -1.9471   -0.4004    0.0000 O   0  0  0  0  0  0  0  0  0  0  0  0
   -2.0333    0.4201    0.0000 C   0  0  0  0  0  0  0  0  0  0  0  0
   -1.2796    0.7556    0.0000 O   0  0  0  0  0  0  0  0  0  0  0  0
   -0.7276    0.1425    0.0000 C   0  0  0  0  0  0  0  0  0  0  0  0
    0.0974    0.1425    0.0000 C   0  0  0  0  0  0  0  0  0  0  0  0
    0.5099   -0.5720    0.0000 C   0  0  0  0  0  0  0  0  0  0  0  0
    1.3349   -0.5720    0.0000 I   0  0  0  0  0  0  0  0  0  0  0  0
    1.8198   -1.3335    0.0000 N   0  0  0  0  0  0  0  0  0  0  0  0
    2.6045   -1.5884    0.0000 C   0  0  0  0  0  0  0  0  0  0  0  0
    3.3189   -1.1759    0.0000 C   0  0  0  0  0  0  0  0  0  0  0  0
    3.3189   -0.3509    0.0000 N   0  0  0  0  0  0  0  0  0  0  0  0
    4.0334   -1.5884    0.0000 N   0  0  0  0  0  0  0  0  0  0  0  0
    4.0334   -2.4134    0.0000 C   0  0  0  0  0  0  0  0  0  0  0  0
    3.3189   -2.8259    0.0000 N   0  0  0  0  0  0  0  0  0  0  0  0
    2.6045   -2.4134    0.0000 C   0  0  0  0  0  0  0  0  0  0  0  0
  1  2  1  0
  2  3  1  0
  2  4  1  0
  2  5  1  0
  5  6  1  0
  6  7  1  0
  7  8  1  0
  8  9  1  0
  9 10  1  0
  9 29  1  0
 10 11  1  0
 10 22  2  0
 11 12  1  0
 12 13  2  0
 12 20  1  0
 13 14  1  0
 14 15  1  0
 14 18  2  0
 15 16  1  0
 16 17  1  0
 17 18  1  0
 18 19  1  0
 19 20  2  0
 20 21  1  0
 22 23  1  0
 23 24  1  0
 23 29  2  0
 24 25  1  0
 24 26  2  0
 26 27  1  0
 27 28  2  0
 28 29  1  0
M  END
>  <DRUGBANK_ID>  (1) 
DB18106

>  <COMMON_NAME>  (1) 
Icapamespib

>  <CAS_NUMBER>  (1) 
1000999-96-1

>  <UNII>  (1) 
447591A1PU

>  <SYNONYMS>  (1) 
9h-purine-9-ethanamine, 6-amino-n-(2,2-dimethylpropyl)-8-((6-iodo-1,3-benzodioxol-5-yl)thio)-

$$$$
