
     RDKit          2D

 31 33  0  0  0  0  0  0  0  0999 V2000
    2.1353   -4.2396    0.0000 C   0  0  0  0  0  0  0  0  0  0  0  0
    2.8498   -3.8271    0.0000 C   0  0  0  0  0  0  0  0  0  0  0  0
    3.5642   -4.2396    0.0000 O   0  0  0  0  0  0  0  0  0  0  0  0
    4.2787   -3.8271    0.0000 C   0  0  0  0  0  0  0  0  0  0  0  0
    4.2787   -3.0021    0.0000 O   0  0  0  0  0  0  0  0  0  0  0  0
    4.9932   -4.2396    0.0000 C   0  0  0  0  0  0  0  0  0  0  0  0
    5.7077   -3.8271    0.0000 N   0  0  0  0  0  0  0  0  0  0  0  0
    5.7939   -3.0066    0.0000 N   0  0  0  0  0  0  0  0  0  0  0  0
    6.6009   -2.8351    0.0000 C   0  0  0  0  0  0  0  0  0  0  0  0
    7.0134   -3.5495    0.0000 C   0  0  0  0  0  0  0  0  0  0  0  0
    6.4613   -4.1626    0.0000 C   0  0  0  0  0  0  0  0  0  0  0  0
    6.6329   -4.9696    0.0000 C   0  0  0  0  0  0  0  0  0  0  0  0
    7.4175   -5.2245    0.0000 C   0  0  0  0  0  0  0  0  0  0  0  0
    7.5890   -6.0315    0.0000 C   0  0  0  0  0  0  0  0  0  0  0  0
    6.9759   -6.5836    0.0000 C   0  0  0  0  0  0  0  0  0  0  0  0
    6.1913   -6.3286    0.0000 C   0  0  0  0  0  0  0  0  0  0  0  0
    6.0198   -5.5216    0.0000 C   0  0  0  0  0  0  0  0  0  0  0  0
    7.1474   -7.3905    0.0000 C   0  0  0  0  0  0  0  0  0  0  0  0
    7.9321   -7.6455    0.0000 C   0  0  0  0  0  0  0  0  0  0  0  0
    8.1036   -8.4524    0.0000 C   0  0  0  0  0  0  0  0  0  0  0  0
    7.4905   -9.0045    0.0000 C   0  0  0  0  0  0  0  0  0  0  0  0
    6.7059   -8.7495    0.0000 C   0  0  0  0  0  0  0  0  0  0  0  0
    6.5343   -7.9426    0.0000 C   0  0  0  0  0  0  0  0  0  0  0  0
    8.8882   -8.7074    0.0000 S   0  0  0  0  0  0  0  0  0  0  0  0
    9.6728   -8.9623    0.0000 C   0  0  0  0  0  0  0  0  0  0  0  0
    8.6333   -9.4920    0.0000 O   0  0  0  0  0  0  0  0  0  0  0  0
    9.1432   -7.9228    0.0000 O   0  0  0  0  0  0  0  0  0  0  0  0
    6.9364   -2.0814    0.0000 C   0  0  0  0  0  0  0  0  0  0  0  0
    7.2720   -1.3277    0.0000 F   0  0  0  0  0  0  0  0  0  0  0  0
    7.6901   -2.4170    0.0000 F   0  0  0  0  0  0  0  0  0  0  0  0
    6.1828   -1.7458    0.0000 F   0  0  0  0  0  0  0  0  0  0  0  0
  1  2  1  0
  2  3  1  0
  3  4  1  0
  4  5  2  0
  4  6  1  0
  6  7  1  0
  7  8  1  0
  7 11  1  0
  8  9  2  0
  9 10  1  0
  9 28  1  0
 10 11  2  0
 11 12  1  0
 12 13  2  0
 12 17  1  0
 13 14  1  0
 14 15  2  0
 15 16  1  0
 15 18  1  0
 16 17  2  0
 18 19  2  0
 18 23  1  0
 19 20  1  0
 20 21  2  0
 20 24  1  0
 21 22  1  0
 22 23  2  0
 24 25  1  0
 24 26  2  0
 24 27  2  0
 28 29  1  0
 28 30  1  0
 28 31  1  0
M  END
>  <DRUGBANK_ID>  (1) 
DB16320

>  <COMMON_NAME>  (1) 
Rovazolac

>  <CAS_NUMBER>  (1) 
1454288-88-0

>  <UNII>  (1) 
W51K389XIL

>  <SYNONYMS>  (1) 
Rovazolac

$$$$
