
     RDKit          2D

 41 42  0  0  1  0  0  0  0  0999 V2000
    3.9680   -0.9260    0.0000 O   0  0  0  0  0  0  0  0  0  0  0  0
    3.1981   -0.6297    0.0000 C   0  0  0  0  0  0  0  0  0  0  0  0
    2.5565   -1.1483    0.0000 N   0  0  0  0  0  0  0  0  0  0  0  0
    3.0698    0.1852    0.0000 C   0  0  0  0  0  0  0  0  0  0  0  0
    2.2998    0.4815    0.0000 N   0  0  0  0  0  0  0  0  0  0  0  0
    1.6582   -0.0370    0.0000 C   0  0  0  0  0  0  0  0  0  0  0  0
    0.8883    0.2593    0.0000 C   0  0  0  0  0  0  0  0  0  0  0  0
    0.2467   -0.2593    0.0000 N   0  0  0  0  0  0  0  0  0  0  0  0
   -0.5232    0.0370    0.0000 C   0  0  0  0  0  0  0  0  0  0  0  0
   -1.1648   -0.4815    0.0000 C   0  0  0  0  0  0  0  0  0  0  0  0
   -1.9347   -0.1852    0.0000 N   0  0  0  0  0  0  0  0  0  0  0  0
   -2.5763   -0.7038    0.0000 C   0  0  0  0  0  0  0  0  0  0  0  0
   -3.3463   -0.4074    0.0000 C   0  0  0  0  0  0  0  0  0  0  0  0
   -3.4746    0.4074    0.0000 N   0  0  0  0  0  0  0  0  0  0  0  0
   -2.8330    0.9260    0.0000 C   0  0  0  0  0  0  0  0  0  0  0  0
   -2.9613    1.7410    0.0000 C   0  0  0  0  0  0  0  0  0  0  0  0
   -3.6960    2.1162    0.0000 N   0  0  0  0  0  0  0  0  0  0  0  0
   -4.4314    1.7423    0.0000 C   0  0  0  0  0  0  0  0  0  0  0  0
   -5.1229    2.1923    0.0000 C   0  0  0  0  0  0  0  0  0  0  0  0
   -4.4754    0.9185    0.0000 O   0  0  0  0  0  0  0  0  0  0  0  0
   -3.5662    2.9309    0.0000 C   0  0  0  0  0  0  0  0  0  0  0  0
   -2.7513    3.0593    0.0000 C   0  0  0  0  0  0  0  0  0  0  0  0
   -2.3774    2.3238    0.0000 C   0  0  0  0  0  0  0  0  0  0  0  0
   -2.0630    0.6297    0.0000 O   0  0  0  0  0  0  0  0  0  0  0  0
   -3.9879   -0.9260    0.0000 C   0  0  0  0  0  0  0  0  0  0  0  0
   -3.8595   -1.7410    0.0000 C   0  0  0  0  0  0  0  0  0  0  0  0
   -3.1248   -2.1162    0.0000 C   0  0  0  0  0  0  0  0  0  0  0  0
   -3.2546   -2.9309    0.0000 N   0  0  0  0  0  0  0  0  0  0  0  0
   -4.0696   -3.0593    0.0000 C   0  0  0  0  0  0  0  0  0  0  0  0
   -4.4434   -2.3238    0.0000 N   0  0  0  0  0  0  0  0  0  0  0  0
   -2.4480   -1.5187    0.0000 O   0  0  0  0  0  0  0  0  0  0  0  0
   -1.0364   -1.2965    0.0000 C   0  0  0  0  0  0  0  0  0  0  0  0
   -1.6781   -1.8151    0.0000 O   0  0  0  0  0  0  0  0  0  0  0  0
   -0.6515    0.8520    0.0000 O   0  0  0  0  0  0  0  0  0  0  0  0
    0.7600    1.0742    0.0000 C   0  0  0  0  0  0  0  0  0  0  0  0
   -0.0099    1.3706    0.0000 S   0  0  0  0  0  0  0  0  0  0  0  0
    1.7866   -0.8520    0.0000 O   0  0  0  0  0  0  0  0  0  0  0  0
    3.7114    0.7038    0.0000 C   0  0  0  0  0  0  0  0  0  0  0  0
    4.4813    0.4074    0.0000 C   0  0  0  0  0  0  0  0  0  0  0  0
    4.6097   -0.4074    0.0000 N   0  0  0  0  0  0  0  0  0  0  0  0
    5.1229    0.9260    0.0000 O   0  0  0  0  0  0  0  0  0  0  0  0
  1  2  2  0
  2  3  1  0
  4  2  1  0
  4  5  1  0
  4 38  1  1
  5  6  1  0
  6 37  2  0
  7  6  1  0
  7  8  1  0
  7 35  1  1
  8  9  1  0
  9 34  2  0
 10  9  1  0
 10 11  1  0
 10 32  1  6
 11 12  1  0
 12 31  2  0
 13 12  1  0
 13 14  1  0
 13 25  1  6
 14 15  1  0
 15 24  2  0
 16 15  1  1
 16 17  1  0
 16 23  1  0
 17 18  1  0
 17 21  1  0
 18 19  1  0
 18 20  2  0
 21 22  1  0
 22 23  1  0
 25 26  1  0
 26 27  2  0
 26 30  1  0
 27 28  1  0
 28 29  2  0
 29 30  1  0
 32 33  1  0
 35 36  1  0
 38 39  1  0
 39 40  1  0
 39 41  2  0
M  END
>  <DRUGBANK_ID>  (1) 
DB05491

>  <COMMON_NAME>  (1) 
ATN-161

>  <CAS_NUMBER>  (1) 
262438-43-7

>  <UNII>  (1) 
XW0H5LE42K

$$$$
