
     RDKit          2D

 38 38  0  0  0  0  0  0  0  0999 V2000
    4.4911   -1.4576    0.0000 C   0  0  0  0  0  0  0  0  0  0  0  0
    3.7735   -1.8503    0.0000 C   0  0  0  0  0  0  0  0  0  0  0  0
    5.2053   -1.8572    0.0000 C   0  0  0  0  0  0  0  0  0  0  0  0
    4.4911   -0.6215    0.0000 O   0  0  0  0  0  0  0  0  0  0  0  0
    3.0627   -1.4478    0.0000 C   0  0  0  0  0  0  0  0  0  0  0  0
    3.7735   -2.6783    0.0000 O   0  0  0  0  0  0  0  0  0  0  0  0
    5.9265   -1.4576    0.0000 C   0  0  0  0  0  0  0  0  0  0  0  0
    5.2053   -2.6818    0.0000 O   0  0  0  0  0  0  0  0  0  0  0  0
    2.3417   -1.8434    0.0000 C   0  0  0  0  0  0  0  0  0  0  0  0
    3.0627   -0.6117    0.0000 O   0  0  0  0  0  0  0  0  0  0  0  0
    6.6406   -1.8572    0.0000 O   0  0  0  0  0  0  0  0  0  0  0  0
    2.3382   -2.6783    0.0000 O   0  0  0  0  0  0  0  0  0  0  0  0
    1.6240   -1.4366    0.0000 O   0  0  0  0  0  0  0  0  0  0  0  0
   -4.1668    0.5261    0.0000 C   0  0  0  0  0  0  0  0  0  0  0  0
   -3.2249    0.0914    0.0000 O   0  0  0  0  0  0  0  0  0  0  0  0
   -4.5878    1.2368    0.0000 O   0  0  0  0  0  0  0  0  0  0  0  0
   -4.5637   -0.1949    0.0000 C   0  0  0  0  0  0  0  0  0  0  0  0
   -3.1939   -1.4542    0.0000 C   0  0  0  0  0  0  0  0  0  0  0  0
   -5.3744    1.2403    0.0000 C   0  0  0  0  0  0  0  0  0  0  0  0
   -5.4089   -0.1742    0.0000 C   0  0  0  0  0  0  0  0  0  0  0  0
   -4.1737   -0.9125    0.0000 O   0  0  0  0  0  0  0  0  0  0  0  0
   -2.4763   -1.8614    0.0000 C   0  0  0  0  0  0  0  0  0  0  0  0
   -3.9081   -1.8683    0.0000 C   0  0  0  0  0  0  0  0  0  0  0  0
   -5.7816    0.5399    0.0000 C   0  0  0  0  0  0  0  0  0  0  0  0
   -5.7885    1.9891    0.0000 C   0  0  0  0  0  0  0  0  0  0  0  0
   -5.8126   -0.9022    0.0000 O   0  0  0  0  0  0  0  0  0  0  0  0
   -1.7655   -1.4508    0.0000 C   0  0  0  0  0  0  0  0  0  0  0  0
   -2.4763   -2.6894    0.0000 O   0  0  0  0  0  0  0  0  0  0  0  0
   -4.6292   -1.4542    0.0000 C   0  0  0  0  0  0  0  0  0  0  0  0
   -3.9081   -2.6928    0.0000 O   0  0  0  0  0  0  0  0  0  0  0  0
   -6.6406    0.5468    0.0000 O   0  0  0  0  0  0  0  0  0  0  0  0
   -5.3468    2.6928    0.0000 O   0  0  0  0  0  0  0  0  0  0  0  0
   -1.0444   -1.8545    0.0000 C   0  0  0  0  0  0  0  0  0  0  0  0
   -1.7655   -0.6159    0.0000 O   0  0  0  0  0  0  0  0  0  0  0  0
   -5.3434   -1.8683    0.0000 O   0  0  0  0  0  0  0  0  0  0  0  0
   -1.0410   -2.6894    0.0000 O   0  0  0  0  0  0  0  0  0  0  0  0
   -0.3268   -1.4404    0.0000 O   0  0  0  0  0  0  0  0  0  0  0  0
    0.5463   -1.4364    0.0000 Ca  0  0  0  0  0  2  0  0  0  0  0  0
  1  2  1  0
  1  3  1  0
  1  4  1  6
  2  5  1  0
  2  6  1  6
  3  7  1  0
  3  8  1  1
  5  9  1  0
  5 10  1  6
  7 11  1  0
  9 13  1  0
  9 12  2  0
 14 15  1  1
 14 16  1  0
 14 17  1  0
 16 19  1  0
 17 20  1  0
 17 21  1  6
 18 15  1  1
 18 22  1  0
 18 23  1  0
 19 24  1  0
 19 25  1  1
 20 26  1  1
 20 24  1  0
 22 27  1  0
 22 28  1  1
 23 29  1  0
 23 30  1  6
 24 31  1  1
 25 32  1  0
 27 33  1  0
 27 34  1  1
 29 35  1  0
 33 36  2  0
 33 37  1  0
 37 38  1  0
 38 13  1  0
M  END
>  <DRUGBANK_ID>  (1) 
DB13142

>  <COMMON_NAME>  (1) 
Calcium glubionate anhydrous

>  <CAS_NUMBER>  (1) 
97635-31-9

>  <UNII>  (1) 
93H20IU3DN

>  <SYNONYMS>  (1) 
(D-gluconato)(lactobionato)calcium; Calcium D-gluconate lactobionate; Calcium glubionate anhydrous; Glubionate calcium

$$$$
