
     RDKit          2D

 27 29  0  0  0  0  0  0  0  0999 V2000
   -4.7992    0.7511    0.0000 C   0  0  0  0  0  0  0  0  0  0  0  0
   -4.2051   -2.0443    0.0000 C   0  0  0  0  0  0  0  0  0  0  0  0
    2.8668   -0.3805    0.0000 C   0  0  0  0  0  0  0  0  0  0  0  0
    3.5812    0.0320    0.0000 C   0  0  0  0  0  0  0  0  0  0  0  0
   -0.7056    0.0320    0.0000 C   0  0  0  0  0  0  0  0  0  0  0  0
   -1.4201   -0.3805    0.0000 C   0  0  0  0  0  0  0  0  0  0  0  0
    2.1523    0.8570    0.0000 C   0  0  0  0  0  0  0  0  0  0  0  0
    0.7233    0.0320    0.0000 C   0  0  0  0  0  0  0  0  0  0  0  0
   -2.2208    0.8525    0.0000 C   0  0  0  0  0  0  0  0  0  0  0  0
    2.1523    0.0320    0.0000 C   0  0  0  0  0  0  0  0  0  0  0  0
    3.5812    0.8570    0.0000 C   0  0  0  0  0  0  0  0  0  0  0  0
    2.8668    1.2695    0.0000 C   0  0  0  0  0  0  0  0  0  0  0  0
    1.4378   -0.3805    0.0000 C   0  0  0  0  0  0  0  0  0  0  0  0
   -2.8882   -0.3036    0.0000 C   0  0  0  0  0  0  0  0  0  0  0  0
   -3.4402    0.3095    0.0000 C   0  0  0  0  0  0  0  0  0  0  0  0
   -3.1432   -1.0882    0.0000 C   0  0  0  0  0  0  0  0  0  0  0  0
   -4.5022   -0.6466    0.0000 C   0  0  0  0  0  0  0  0  0  0  0  0
    0.0089   -0.3805    0.0000 N   0  0  0  0  0  0  0  0  0  0  0  0
   -3.0277    1.0240    0.0000 N   0  0  0  0  0  0  0  0  0  0  0  0
   -4.2472    0.1380    0.0000 N   0  0  0  0  0  0  0  0  0  0  0  0
   -3.9501   -1.2597    0.0000 N   0  0  0  0  0  0  0  0  0  0  0  0
   -2.1345    0.0320    0.0000 N   0  0  0  0  0  0  0  0  0  0  0  0
    4.2957    1.2695    0.0000 O   0  0  0  0  0  0  0  0  0  0  0  0
    2.8668    2.0945    0.0000 O   0  0  0  0  0  0  0  0  0  0  0  0
    1.4378   -1.2055    0.0000 O   0  0  0  0  0  0  0  0  0  0  0  0
   -2.5911   -1.7013    0.0000 O   0  0  0  0  0  0  0  0  0  0  0  0
   -5.3091   -0.8181    0.0000 O   0  0  0  0  0  0  0  0  0  0  0  0
  4  3  2  0
  6  5  1  0
 10  3  1  0
 10  7  2  0
 11  4  1  0
 12  7  1  0
 12 11  2  0
 13  8  1  0
 13 10  1  0
 15 14  2  0
 16 14  1  0
 18  5  1  0
 18  8  1  0
 19  9  2  0
 19 15  1  0
 20  1  1  0
 20 15  1  0
 20 17  1  0
 21  2  1  0
 21 16  1  0
 21 17  1  0
 22  6  1  0
 22  9  1  0
 22 14  1  0
 23 11  1  0
 24 12  1  0
 25 13  1  0
 26 16  2  0
 27 17  2  0
M  END
>  <DRUGBANK_ID>  (1) 
DB12927

>  <COMMON_NAME>  (1) 
Theodrenaline

>  <CAS_NUMBER>  (1) 
13460-98-5

>  <UNII>  (1) 
RW8PD99T8G

>  <SYNONYMS>  (1) 
Theodrenaline

$$$$
