
     RDKit          2D

 32 32  0  0  0  0  0  0  0  0999 V2000
   -1.8141   -0.0171    0.0000 N   0  0  0  0  0  0  0  0  0  0  0  0
   -1.0956    0.3967    0.0000 C   0  0  0  0  0  0  0  0  0  0  0  0
   -0.3797   -0.8422    0.0000 O   0  0  0  0  0  0  0  0  0  0  0  0
   -0.3797   -0.0133    0.0000 C   0  0  0  0  0  0  0  0  0  0  0  0
   -1.0956    1.2220    0.0000 C   0  0  0  0  0  0  0  0  0  0  0  0
   -0.3798    1.6338    0.0000 C   0  0  0  0  0  0  0  0  0  0  0  0
   -1.8155    1.6409    0.0000 C   0  0  0  0  0  0  0  0  0  0  0  0
    0.3379    0.3978    0.0000 N   0  0  0  0  0  0  0  0  0  0  0  0
    1.0539   -0.0122    0.0000 C   0  0  0  0  0  0  0  0  0  0  0  0
    1.7765    1.2355    0.0000 O   0  0  0  0  0  0  0  0  0  0  0  0
    1.0539   -0.8374    0.0000 C   0  0  0  0  0  0  0  0  0  0  0  0
    1.7765    0.4017    0.0000 C   0  0  0  0  0  0  0  0  0  0  0  0
    2.4881   -0.0099    0.0000 N   0  0  0  0  0  0  0  0  0  0  0  0
    3.2088    0.4052    0.0000 C   0  0  0  0  0  0  0  0  0  0  0  0
    3.9193   -0.8279    0.0000 O   0  0  0  0  0  0  0  0  0  0  0  0
    3.9193   -0.0058    0.0000 C   0  0  0  0  0  0  0  0  0  0  0  0
    3.2088    1.2403    0.0000 C   0  0  0  0  0  0  0  0  0  0  0  0
    3.9191    1.6514    0.0000 C   0  0  0  0  0  0  0  0  0  0  0  0
    3.9191    2.4867    0.0000 O   0  0  0  0  0  0  0  0  0  0  0  0
    4.6335    1.2403    0.0000 O   0  0  0  0  0  0  0  0  0  0  0  0
    4.6446    0.4138    0.0000 C   0  0  0  0  0  0  0  0  0  0  0  0
    5.3548    0.0028    0.0000 F   0  0  0  0  0  0  0  0  0  0  0  0
   -1.8141   -0.8510    0.0000 C   0  0  0  0  0  0  0  0  0  0  0  0
   -2.5291   -1.2624    0.0000 O   0  0  0  0  0  0  0  0  0  0  0  0
   -1.0934   -1.2664    0.0000 O   0  0  0  0  0  0  0  0  0  0  0  0
   -3.2397   -0.8512    0.0000 C   0  0  0  0  0  0  0  0  0  0  0  0
   -3.9608   -1.2669    0.0000 C   0  0  0  0  0  0  0  0  0  0  0  0
   -4.6560   -0.8701    0.0000 C   0  0  0  0  0  0  0  0  0  0  0  0
   -5.3548   -1.2732    0.0000 C   0  0  0  0  0  0  0  0  0  0  0  0
   -5.3519   -2.0848    0.0000 C   0  0  0  0  0  0  0  0  0  0  0  0
   -4.6456   -2.4867    0.0000 C   0  0  0  0  0  0  0  0  0  0  0  0
   -3.9470   -2.0760    0.0000 C   0  0  0  0  0  0  0  0  0  0  0  0
  2  1  1  1
  1 23  1  0
  2  4  1  0
  2  5  1  0
  4  8  1  0
  4  3  2  0
  5  6  1  0
  5  7  1  0
  8  9  1  0
  9 12  1  0
  9 11  1  6
 12 13  1  0
 12 10  2  0
 13 14  1  0
 14 16  1  0
 14 17  1  1
 16 15  2  0
 16 21  1  0
 17 18  1  0
 18 19  2  0
 18 20  1  0
 21 22  1  0
 23 24  1  0
 23 25  2  0
 24 26  1  0
 26 27  1  0
 27 28  2  0
 28 29  1  0
 29 30  2  0
 30 31  1  0
 31 32  2  0
 32 27  1  0
M  END
>  <DRUGBANK_ID>  (1) 
DB07744

>  <COMMON_NAME>  (1) 
Z-Val-Ala-Asp fluoromethyl ketone

>  <CAS_NUMBER>  (1) 
161401-82-7

>  <SYNONYMS>  (1) 
N-[(Benzyloxy)carbonyl]-L-valyl-N-[(2S)-1-carboxy-4-fluoro-3-oxo-2-butanyl]-L-alaninamide; Z-VAD-FMK

$$$$
