1515
     RDKit          2D

 21 23  0  0  1  0  0  0  0  0999 V2000
    4.5079   -0.8211    0.0000 O   0  0  0  0  0  0  0  0  0  0  0  0
    5.5344   -2.1032    0.0000 O   0  0  0  0  0  0  0  0  0  0  0  0
    6.9321   -1.8061    0.0000 O   0  0  0  0  0  0  0  0  0  0  0  0
    3.7934    0.4164    0.0000 O   0  0  0  0  0  0  0  0  0  0  0  0
    6.8483    1.8890    0.0000 N   0  0  0  0  0  0  0  0  0  0  0  0
    7.2425    0.2815    0.0000 C   0  0  0  0  0  0  0  0  0  0  0  0
    7.4560    1.0784    0.0000 C   0  0  0  0  0  0  0  0  0  0  0  0
    5.9761   -0.7442    0.0000 C   0  0  0  0  0  0  0  0  0  0  0  0
    8.7539   -0.3446    0.0000 C   0  0  0  0  0  0  0  0  0  0  0  0
    8.9674    0.4523    0.0000 C   0  0  0  0  0  0  0  0  0  0  0  0
    5.3086    0.4119    0.0000 C   0  0  0  0  0  0  0  0  0  0  0  0
    5.2223   -0.4086    0.0000 C   0  0  0  0  0  0  0  0  0  0  0  0
    6.4358    2.6035    0.0000 C   0  0  0  0  0  0  0  0  0  0  0  0
    6.1476   -1.5511    0.0000 C   0  0  0  0  0  0  0  0  0  0  0  0
    3.7934   -0.4086    0.0000 C   0  0  0  0  0  0  0  0  0  0  0  0
    3.0790   -0.8211    0.0000 C   0  0  0  0  0  0  0  0  0  0  0  0
    3.0790   -1.6461    0.0000 C   0  0  0  0  0  0  0  0  0  0  0  0
    2.3644   -0.4086    0.0000 C   0  0  0  0  0  0  0  0  0  0  0  0
    2.3644   -2.0586    0.0000 C   0  0  0  0  0  0  0  0  0  0  0  0
    1.6500   -0.8211    0.0000 C   0  0  0  0  0  0  0  0  0  0  0  0
    1.6500   -1.6461    0.0000 C   0  0  0  0  0  0  0  0  0  0  0  0
  1 15  1  0
  2 14  1  0
  3 14  2  0
  4 15  2  0
  5  6  1  0
  5  7  1  0
  5 13  1  0
  6  8  1  0
  6  9  1  6
  7 10  1  1
  7 11  1  0
  8 12  1  0
  8 14  1  1
  9 10  1  0
 11 12  1  0
 12  1  1  1
 15 16  1  0
 16 17  2  0
 16 18  1  0
 17 19  1  0
 18 20  2  0
 19 21  2  0
 20 21  1  0
M  END
>  <DRUGBANK_ID>  (1) 
DB01515

>  <COMMON_NAME>  (1) 
Benzoylecgonine

>  <CAS_NUMBER>  (1) 
519-09-5

>  <UNII>  (1) 
5353I8I6YS

>  <SYNONYMS>  (1) 
(-)-benzoylecgonine; (1R,2R,3S,5S)-8-methyl-3-[(phenylcarbonyl)oxy]-8-azabicyclo[3.2.1]octane-2-carboxylic acid; 3-(Benzoyloxy)-8-methyl-8-azabicyclo[3.2.1]octane-2-carboxylic acid; Ecgonine benzoate; O-benzoyl-(-)-ecgonine; O-benzoylecgonine

$$$$
