
     RDKit          2D

 22 25  0  0  1  0  0  0  0  0999 V2000
   -1.0472   -0.5196    0.0000 C   0  0  0  0  0  0  0  0  0  0  0  0
   -1.0472   -1.3447    0.0000 C   0  0  0  0  0  0  0  0  0  0  0  0
   -1.7618   -0.1070    0.0000 C   0  0  0  0  0  0  0  0  0  0  0  0
   -1.7618   -1.7571    0.0000 C   0  0  0  0  0  0  0  0  0  0  0  0
   -2.4762   -0.5196    0.0000 C   0  0  0  0  0  0  0  0  0  0  0  0
   -2.4762   -1.3447    0.0000 C   0  0  0  0  0  0  0  0  0  0  0  0
   -0.3326   -0.1070    0.0000 C   0  0  0  0  0  0  0  0  0  0  0  0
    0.3816   -0.5197    0.0000 C   0  0  0  0  0  0  0  0  0  0  0  0
   -0.3328   -1.7571    0.0000 C   0  0  0  0  0  0  0  0  0  0  0  0
    0.3816   -1.3447    0.0000 C   0  0  0  0  0  0  0  0  0  0  0  0
   -0.3326    0.7179    0.0000 C   0  0  0  0  0  0  0  0  0  0  0  0
    0.3818    1.1302    0.0000 C   0  0  0  0  0  0  0  0  0  0  0  0
    1.0961   -0.1073    0.0000 C   0  0  0  0  0  0  0  0  0  0  0  0
    1.0962    0.7177    0.0000 C   0  0  0  0  0  0  0  0  0  0  0  0
    1.8808   -0.3622    0.0000 C   0  0  0  0  0  0  0  0  0  0  0  0
    2.3658    0.3050    0.0000 C   0  0  0  0  0  0  0  0  0  0  0  0
    1.8809    0.9725    0.0000 C   0  0  0  0  0  0  0  0  0  0  0  0
   -3.1908   -1.7571    0.0000 O   0  0  0  0  0  0  0  0  0  0  0  0
    3.1908    0.3048    0.0000 O   0  0  0  0  0  0  0  0  0  0  0  0
    2.1356   -1.1469    0.0000 O   0  0  0  0  0  0  0  0  0  0  0  0
    2.1361    1.7571    0.0000 O   0  0  0  0  0  0  0  0  0  0  0  0
    1.1051    1.5830    0.0000 C   0  0  0  0  0  0  0  0  0  0  0  0
  2  1  1  0
  3  1  2  0
  4  2  2  0
  5  3  1  0
  6  4  1  0
  6  5  2  0
  6 18  1  0
  7  1  1  0
  8  7  1  0
  9  2  1  0
  8 10  1  6
 10  9  1  0
  7 11  1  1
 12 11  1  0
 13  8  1  0
 14 12  1  0
 14 13  1  0
 14 22  1  1
 13 15  1  1
 15 20  1  6
 16 15  1  0
 16 19  1  6
 17 14  1  0
 17 16  1  0
 17 21  1  1
M  END
>  <DRUGBANK_ID>  (1) 
DB12235

>  <COMMON_NAME>  (1) 
Estetrol

>  <CAS_NUMBER>  (1) 
15183-37-6

>  <UNII>  (1) 
ENB39R14VF

>  <SYNONYMS>  (1) 
15α-hydroxyestriol; Estétrol; Estetrol; Estetrolum; Oestetrol

$$$$
