
     RDKit          2D

 41 45  0  0  0  0  0  0  0  0999 V2000
    0.4651   -2.2629    0.0000 C   0  0  0  0  0  0  0  0  0  0  0  0
    1.1796   -2.6754    0.0000 C   0  0  0  0  0  0  0  0  0  0  0  0
    0.4651   -1.4379    0.0000 C   0  0  0  0  0  0  0  0  0  0  0  0
    1.1796   -1.0254    0.0000 C   0  0  0  0  0  0  0  0  0  0  0  0
    1.8940   -2.2629    0.0000 C   0  0  0  0  0  0  0  0  0  0  0  0
    1.8940   -1.4379    0.0000 C   0  0  0  0  0  0  0  0  0  0  0  0
   -1.9925    2.9371    0.0000 C   0  0  0  0  0  0  0  0  0  0  0  0
   -1.4405    2.3240    0.0000 C   0  0  0  0  0  0  0  0  0  0  0  0
   -2.7996    2.7655    0.0000 C   0  0  0  0  0  0  0  0  0  0  0  0
   -3.0545    1.9809    0.0000 C   0  0  0  0  0  0  0  0  0  0  0  0
   -2.5024    1.3678    0.0000 C   0  0  0  0  0  0  0  0  0  0  0  0
    0.7254    2.0540    0.0000 C   0  0  0  0  0  0  0  0  0  0  0  0
    1.2775    1.4408    0.0000 C   0  0  0  0  0  0  0  0  0  0  0  0
    2.3816    0.2146    0.0000 C   0  0  0  0  0  0  0  0  0  0  0  0
    1.5746    0.0431    0.0000 C   0  0  0  0  0  0  0  0  0  0  0  0
    2.6365    0.9993    0.0000 C   0  0  0  0  0  0  0  0  0  0  0  0
    1.0226    0.6562    0.0000 C   0  0  0  0  0  0  0  0  0  0  0  0
    3.6985    1.9554    0.0000 C   0  0  0  0  0  0  0  0  0  0  0  0
    0.9804    2.8385    0.0000 O   0  0  0  0  0  0  0  0  0  0  0  0
   -0.0815    1.8824    0.0000 N   0  0  0  0  0  0  0  0  0  0  0  0
    2.0844    1.6123    0.0000 C   0  0  0  0  0  0  0  0  0  0  0  0
    3.4435    1.1708    0.0000 O   0  0  0  0  0  0  0  0  0  0  0  0
    2.6787   -1.1830    0.0000 C   0  0  0  0  0  0  0  0  0  0  0  0
    2.9336   -0.3984    0.0000 C   0  0  0  0  0  0  0  0  0  0  0  0
    2.6787   -2.5179    0.0000 N   0  0  0  0  0  0  0  0  0  0  0  0
    2.9336   -3.3025    0.0000 C   0  0  0  0  0  0  0  0  0  0  0  0
   -0.2493   -1.0254    0.0000 N   0  0  0  0  0  0  0  0  0  0  0  0
   -0.9638   -1.4379    0.0000 C   0  0  0  0  0  0  0  0  0  0  0  0
   -1.6783   -1.0254    0.0000 O   0  0  0  0  0  0  0  0  0  0  0  0
   -2.3928   -1.4379    0.0000 C   0  0  0  0  0  0  0  0  0  0  0  0
   -3.1465   -1.1025    0.0000 C   0  0  0  0  0  0  0  0  0  0  0  0
   -3.6985   -1.7155    0.0000 C   0  0  0  0  0  0  0  0  0  0  0  0
   -3.2860   -2.4300    0.0000 C   0  0  0  0  0  0  0  0  0  0  0  0
    3.1636   -1.8504    0.0000 C   0  0  0  0  0  0  0  0  0  0  0  0
   -0.9638   -2.2629    0.0000 O   0  0  0  0  0  0  0  0  0  0  0  0
   -2.4790   -2.2585    0.0000 C   0  0  0  0  0  0  0  0  0  0  0  0
   -1.6954    1.5393    0.0000 C   0  0  0  0  0  0  0  0  0  0  0  0
   -1.1433    0.9262    0.0000 C   0  0  0  0  0  0  0  0  0  0  0  0
   -0.6335    2.4955    0.0000 S   0  0  0  0  0  0  0  0  0  0  0  0
   -0.8050    3.3025    0.0000 O   0  0  0  0  0  0  0  0  0  0  0  0
   -0.0204    3.0475    0.0000 O   0  0  0  0  0  0  0  0  0  0  0  0
  2  1  2  0
  3  1  1  0
  4  3  2  0
  5  2  1  0
  6  5  2  0
  6  4  1  0
  6 23  1  0
  8  7  2  0
  9  7  1  0
 10  9  2  0
 11 10  1  0
 11 37  2  0
 12 20  1  0
 13 12  1  0
 13 21  1  0
 15 14  2  0
 16 14  1  0
 16 21  2  0
 17 13  2  0
 17 15  1  0
 18 22  1  0
 19 12  2  0
 20 39  1  0
 22 16  1  0
 24 14  1  0
 24 23  1  0
 25  5  1  0
 26 25  1  0
 27  3  1  0
 28 27  1  0
 29 28  1  0
 30 29  1  0
 31 30  1  0
 32 31  1  0
 33 32  1  0
 33 36  1  0
 34 23  2  0
 34 25  1  0
 35 28  2  0
 36 30  1  0
 37  8  1  0
 37 38  1  0
 39  8  1  0
 40 39  2  0
 41 39  2  0
M  END
>  <DRUGBANK_ID>  (1) 
DB00549

>  <SECONDARY_ACCESSION_NUMBERS>  (1) 
APRD00377

>  <COMMON_NAME>  (1) 
Zafirlukast

>  <CAS_NUMBER>  (1) 
107753-78-6

>  <UNII>  (1) 
XZ629S5L50

>  <SYNONYMS>  (1) 
4-(5-cyclopentyloxycarbonylamino-1-methyl-1H-indol-3-ylmethyl)-3-methoxy-N-o-tolylsulfonylbenzamide; cyclopentyl 3-(2-methoxy-4-((o-tolylsulfonyl)carbamoyl)benzyl)-1-methylindole-5-carbamate; Zafirlukast

$$$$
