
     RDKit          2D

 29 32  0  0  0  0  0  0  0  0999 V2000
   -3.2576   -1.1501    0.0000 C   0  0  0  0  0  0  0  0  0  0  0  0
   -3.2576   -1.9772    0.0000 C   0  0  0  0  0  0  0  0  0  0  0  0
   -2.5452   -0.7340    0.0000 C   0  0  0  0  0  0  0  0  0  0  0  0
   -1.8282   -1.1501    0.0000 C   0  0  0  0  0  0  0  0  0  0  0  0
   -1.8317   -1.9772    0.0000 C   0  0  0  0  0  0  0  0  0  0  0  0
   -1.1211   -2.3915    0.0000 C   0  0  0  0  0  0  0  0  0  0  0  0
   -0.4023   -1.9832    0.0000 C   0  0  0  0  0  0  0  0  0  0  0  0
   -1.1141   -0.7372    0.0000 C   0  0  0  0  0  0  0  0  0  0  0  0
   -0.3974   -1.1597    0.0000 C   0  0  0  0  0  0  0  0  0  0  0  0
   -0.3839    0.5011    0.0000 C   0  0  0  0  0  0  0  0  0  0  0  0
   -1.1104    0.0925    0.0000 C   0  0  0  0  0  0  0  0  0  0  0  0
    0.3327    0.0784    0.0000 C   0  0  0  0  0  0  0  0  0  0  0  0
    0.3184   -0.7504    0.0000 C   0  0  0  0  0  0  0  0  0  0  0  0
    1.1025   -1.0202    0.0000 C   0  0  0  0  0  0  0  0  0  0  0  0
    1.6015   -0.3578    0.0000 C   0  0  0  0  0  0  0  0  0  0  0  0
    1.1256    0.3211    0.0000 C   0  0  0  0  0  0  0  0  0  0  0  0
   -3.9700   -2.3884    0.0000 O   0  0  0  0  0  0  0  0  0  0  0  0
   -2.5447   -2.3793    0.0000 C   0  0  0  0  0  0  0  0  0  0  0  0
   -1.8364   -0.3273    0.0000 C   0  0  0  0  0  0  0  0  0  0  0  0
   -1.8196    0.5093    0.0000 O   0  0  0  0  0  0  0  0  0  0  0  0
    0.3254    0.9020    0.0000 C   0  0  0  0  0  0  0  0  0  0  0  0
    1.1205    1.1441    0.0000 C   0  0  0  0  0  0  0  0  0  0  0  0
    1.8302    1.5599    0.0000 C   0  0  0  0  0  0  0  0  0  0  0  0
    0.4055    1.5510    0.0000 O   0  0  0  0  0  0  0  0  0  0  0  0
    2.5453    1.1532    0.0000 O   0  0  0  0  0  0  0  0  0  0  0  0
    3.2550    1.5689    0.0000 C   0  0  0  0  0  0  0  0  0  0  0  0
    3.9700    1.1620    0.0000 C   0  0  0  0  0  0  0  0  0  0  0  0
    3.2498    2.3915    0.0000 O   0  0  0  0  0  0  0  0  0  0  0  0
    1.9157    0.5363    0.0000 O   0  0  0  0  0  0  0  0  0  0  0  0
  1  2  1  0
  1  3  1  0
  2 17  2  0
  2 18  1  0
  4  3  1  0
  4 19  1  1
  4  5  1  0
  4  8  1  0
  5 18  2  0
  5  6  1  0
  6  7  1  0
  9  7  1  6
  8  9  1  0
  8 11  1  1
  9 13  1  0
 10 11  1  0
 11 20  2  0
 12 21  1  1
 12 10  1  0
 12 13  1  0
 13 14  1  1
 14 15  1  0
 15 16  1  0
 16 12  1  0
 16 22  1  0
 16 29  1  6
 22 23  1  0
 22 24  2  0
 23 25  1  0
 25 26  1  0
 26 27  1  0
 26 28  2  0
M  END
>  <DRUGBANK_ID>  (1) 
DB01380

>  <COMMON_NAME>  (1) 
Cortisone acetate

>  <CAS_NUMBER>  (1) 
50-04-4

>  <UNII>  (1) 
883WKN7W8X

>  <SYNONYMS>  (1) 
Cortisone 21-acetate; Cortisone acetate; Cortone acetate

$$$$
