
     RDKit          2D

 31 31  0  0  0  0  0  0  0  0999 V2000
    6.4302  -11.9625    0.0000 C   0  0  0  0  0  0  0  0  0  0  0  0
    7.1447  -11.5500    0.0000 C   0  0  0  0  0  0  0  0  0  0  0  0
    7.8592  -11.9625    0.0000 C   0  0  0  0  0  0  0  0  0  0  0  0
    8.5737  -11.5500    0.0000 C   0  0  0  0  0  0  0  0  0  0  0  0
    9.2881  -11.9625    0.0000 C   0  0  0  0  0  0  0  0  0  0  0  0
   10.0026  -11.5500    0.0000 C   0  0  0  0  0  0  0  0  0  0  0  0
   10.7171  -11.9625    0.0000 C   0  0  0  0  0  0  0  0  0  0  0  0
   11.4315  -11.5500    0.0000 C   0  0  0  0  0  0  0  0  0  0  0  0
   12.1460  -11.9625    0.0000 C   0  0  0  0  0  0  0  0  0  0  0  0
   12.8605  -11.5500    0.0000 C   0  0  0  0  0  0  0  0  0  0  0  0
   13.5749  -11.9625    0.0000 C   0  0  0  0  0  0  0  0  0  0  0  0
   14.2894  -11.5500    0.0000 C   0  0  0  0  0  0  0  0  0  0  0  0
   15.0039  -11.9625    0.0000 C   0  0  0  0  0  0  0  0  0  0  0  0
   15.7184  -11.5500    0.0000 C   0  0  0  0  0  0  0  0  0  0  0  0
   16.4328  -11.9625    0.0000 C   0  0  0  0  0  0  0  0  0  0  0  0
   17.1473  -11.5500    0.0000 C   0  0  0  0  0  0  0  0  0  0  0  0
   17.8618  -11.9625    0.0000 C   0  0  0  0  0  0  0  0  0  0  0  0
   18.5762  -11.5500    0.0000 C   0  0  0  0  0  0  0  0  0  0  0  0
   19.2907  -11.9625    0.0000 O   0  0  0  0  0  0  0  0  0  0  0  0
   20.0052  -11.5500    0.0000 P   0  0  0  0  0  0  0  0  0  0  0  0
   20.4177  -12.2645    0.0000 O   0  0  0  0  0  0  0  0  0  0  0  0
   19.5927  -10.8355    0.0000 O   0  0  0  0  0  0  0  0  0  0  0  0
   20.7197  -11.1375    0.0000 O   0  0  0  0  0  0  0  0  0  0  0  0
   21.4341  -11.5500    0.0000 C   0  0  0  0  0  0  0  0  0  0  0  0
   22.1486  -11.1375    0.0000 C   0  0  0  0  0  0  0  0  0  0  0  0
   22.8631  -11.5500    0.0000 C   0  0  0  0  0  0  0  0  0  0  0  0
   22.8631  -12.3750    0.0000 N   0  0  0  0  0  0  0  0  0  0  0  0
   22.1486  -12.7875    0.0000 C   0  0  0  0  0  0  0  0  0  0  0  0
   21.4341  -12.3750    0.0000 C   0  0  0  0  0  0  0  0  0  0  0  0
   23.6876  -12.4038    0.0000 C   0  0  0  0  0  0  0  0  0  0  0  0
   23.3003  -13.0746    0.0000 C   0  0  0  0  0  0  0  0  0  0  0  0
  1  2  1  0
  2  3  1  0
  3  4  1  0
  4  5  1  0
  5  6  1  0
  6  7  1  0
  7  8  1  0
  8  9  1  0
  9 10  1  0
 10 11  1  0
 11 12  1  0
 12 13  1  0
 13 14  1  0
 14 15  1  0
 15 16  1  0
 16 17  1  0
 17 18  1  0
 18 19  1  0
 19 20  1  0
 20 21  2  0
 20 22  1  0
 20 23  1  0
 23 24  1  0
 24 25  1  0
 24 29  1  0
 25 26  1  0
 26 27  1  0
 27 28  1  0
 27 30  1  0
 27 31  1  0
 28 29  1  0
M  CHG  2  22  -1  27   1
M  END
>  <DRUGBANK_ID>  (1) 
DB06641

>  <COMMON_NAME>  (1) 
Perifosine

>  <CAS_NUMBER>  (1) 
157716-52-4

>  <UNII>  (1) 
2GWV496552

>  <SYNONYMS>  (1) 
Perifosine

$$$$
