
     RDKit          2D

 30 34  0  0  1  0  0  0  0  0999 V2000
    6.1368   -6.1875    0.0000 C   0  0  0  0  0  0  0  0  0  0  0  0
    5.4223   -6.6000    0.0000 C   0  0  0  0  0  0  0  0  0  0  0  0
    5.4223   -7.4250    0.0000 C   0  0  0  0  0  0  0  0  0  0  0  0
    6.1368   -7.8375    0.0000 C   0  0  0  0  0  0  0  0  0  0  0  0
    6.1368   -8.6625    0.0000 C   0  0  0  0  0  0  0  0  0  0  0  0
    6.8513   -9.0750    0.0000 C   0  0  0  0  0  0  0  0  0  0  0  0
    6.8513   -9.9000    0.0000 C   0  0  0  0  0  0  0  0  0  0  0  0
    6.1368  -10.3125    0.0000 C   0  0  0  0  0  0  0  0  0  0  0  0
    5.4223   -9.9000    0.0000 C   0  0  0  0  0  0  0  0  0  0  0  0
    5.4223   -9.0750    0.0000 C   0  0  0  0  0  0  0  0  0  0  0  0
    4.7079   -8.6625    0.0000 C   0  0  0  0  0  0  0  0  0  0  0  0
    3.9934   -9.0750    0.0000 O   0  0  0  0  0  0  0  0  0  0  0  0
    4.7079   -7.8375    0.0000 N   0  0  0  0  0  0  0  0  0  0  0  0
    3.9934   -7.4250    0.0000 C   0  0  0  0  0  0  0  0  0  0  0  0
    3.2789   -7.8375    0.0000 C   0  0  0  0  0  0  0  0  0  0  0  0
    2.5645   -7.4250    0.0000 C   0  0  0  0  0  0  0  0  0  0  0  0
    2.5645   -6.6000    0.0000 C   0  0  0  0  0  0  0  0  0  0  0  0
    3.2789   -6.1875    0.0000 C   0  0  0  0  0  0  0  0  0  0  0  0
    3.9934   -6.6000    0.0000 C   0  0  0  0  0  0  0  0  0  0  0  0
    4.7079  -10.3125    0.0000 Cl  0  0  0  0  0  0  0  0  0  0  0  0
    4.7079   -6.1875    0.0000 N   0  0  0  0  0  0  0  0  0  0  0  0
    4.7079   -5.3625    0.0000 C   0  0  0  0  0  0  0  0  0  0  0  0
    3.9934   -4.9500    0.0000 C   0  0  0  0  0  0  0  0  0  0  0  0
    3.9934   -4.1250    0.0000 C   0  0  0  0  0  0  0  0  0  0  0  0
    3.2088   -3.8701    0.0000 N   0  0  0  0  0  0  0  0  0  0  0  0
    2.7239   -4.5375    0.0000 C   0  0  0  0  0  0  0  0  0  0  0  0
    3.2088   -5.2049    0.0000 N   0  0  0  0  0  0  0  0  0  0  0  0
    4.7079   -3.7125    0.0000 N   0  0  0  0  0  0  0  0  0  0  0  0
    5.4223   -4.1250    0.0000 C   0  0  0  0  0  0  0  0  0  0  0  0
    5.4223   -4.9500    0.0000 N   0  0  0  0  0  0  0  0  0  0  0  0
  2  1  1  1
  2  3  1  0
  2 21  1  0
  3  4  2  0
  3 13  1  0
  4  5  1  0
  5  6  2  0
  5 10  1  0
  6  7  1  0
  7  8  2  0
  8  9  1  0
  9 10  2  0
  9 20  1  0
 10 11  1  0
 11 12  2  0
 11 13  1  0
 13 14  1  0
 14 15  2  0
 14 19  1  0
 15 16  1  0
 16 17  2  0
 17 18  1  0
 18 19  2  0
 21 22  1  0
 22 23  1  0
 22 30  2  0
 23 24  2  0
 23 27  1  0
 24 25  1  0
 24 28  1  0
 25 26  1  0
 26 27  2  0
 28 29  2  0
 29 30  1  0
M  END
>  <DRUGBANK_ID>  (1) 
DB11952

>  <COMMON_NAME>  (1) 
Duvelisib

>  <CAS_NUMBER>  (1) 
1201438-56-3

>  <UNII>  (1) 
610V23S0JI

>  <SYNONYMS>  (1) 
Duvelisib

$$$$
