
     RDKit          2D

 22 22  0  0  0  0  0  0  0  0999 V2000
   -2.5006   -1.1759    0.0000 F   0  0  0  0  0  0  0  0  0  0  0  0
   -0.3572   -0.7635    0.0000 O   0  0  0  0  0  0  0  0  0  0  0  0
   -2.5006    0.4739    0.0000 O   0  0  0  0  0  0  0  0  0  0  0  0
   -0.6591   -1.8904    0.0000 O   0  0  0  0  0  0  0  0  0  0  0  0
    0.3572    1.2989    0.0000 O   0  0  0  0  0  0  0  0  0  0  0  0
    1.0717   -0.7635    0.0000 O   0  0  0  0  0  0  0  0  0  0  0  0
   -1.0717   -2.6050    0.0000 O   0  0  0  0  0  0  0  0  0  0  0  0
    2.5006    0.0614    0.0000 O   0  0  0  0  0  0  0  0  0  0  0  0
   -2.3092   -1.8904    0.0000 O   0  0  0  0  0  0  0  0  0  0  0  0
   -2.5006    1.2989    0.0000 O   0  0  0  0  0  0  0  0  0  0  0  0
   -1.0717    1.2989    0.0000 N   0  0  0  0  0  0  0  0  0  0  0  0
   -1.0717    0.4739    0.0000 C   0  0  0  0  0  0  0  0  0  0  0  0
   -0.3572    0.0614    0.0000 C   0  0  0  0  0  0  0  0  0  0  0  0
   -1.7861    0.0614    0.0000 C   0  0  0  0  0  0  0  0  0  0  0  0
   -1.7861   -0.7635    0.0000 C   0  0  0  0  0  0  0  0  0  0  0  0
   -1.0717   -1.1759    0.0000 C   0  0  0  0  0  0  0  0  0  0  0  0
    0.3572    0.4739    0.0000 C   0  0  0  0  0  0  0  0  0  0  0  0
    1.0717    0.0614    0.0000 C   0  0  0  0  0  0  0  0  0  0  0  0
   -1.4841   -1.8904    0.0000 C   0  0  0  0  0  0  0  0  0  0  0  0
    1.7861    0.4739    0.0000 C   0  0  0  0  0  0  0  0  0  0  0  0
   -1.7861    1.7113    0.0000 C   0  0  0  0  0  0  0  0  0  0  0  0
   -1.7861    2.5364    0.0000 C   0  0  0  0  0  0  0  0  0  0  0  0
 13  2  1  6
  2 16  1  0
  7 19  1  0
  8 20  1  0
  9 19  2  0
 10 21  2  0
 11 21  1  0
 12 11  1  1
 12 13  1  0
 12 14  1  0
 13 17  1  0
 14  3  1  6
 14 15  1  0
 15  1  1  6
 15 16  1  0
 16  4  1  1
 16 19  1  0
 17  5  1  6
 17 18  1  0
 18  6  1  1
 18 20  1  0
 21 22  1  0
M  END
>  <DRUGBANK_ID>  (1) 
DB04211

>  <SECONDARY_ACCESSION_NUMBERS>  (1) 
EXPT01499

>  <COMMON_NAME>  (1) 
5-(acetylamino)-3,5-dideoxy-3-fluoro-D-erythro-alpha-L-manno-non-2-ulopyranosonic acid

$$$$
