
     RDKit          2D

 32 34  0  0  1  0  0  0  0  0999 V2000
   -4.5586   -5.7545    0.0000 C   0  0  0  0  0  0  0  0  0  0  0  0
   -3.7381   -5.8408    0.0000 C   0  0  0  0  0  0  0  0  0  0  0  0
   -3.1860   -5.2277    0.0000 C   0  0  0  0  0  0  0  0  0  0  0  0
   -2.4324   -5.5632    0.0000 C   0  0  0  0  0  0  0  0  0  0  0  0
   -2.5186   -6.3837    0.0000 S   0  0  0  0  0  0  0  0  0  0  0  0
   -3.3256   -6.5553    0.0000 C   0  0  0  0  0  0  0  0  0  0  0  0
   -3.6611   -7.3089    0.0000 C   0  0  0  0  0  0  0  0  0  0  0  0
   -4.4816   -7.3952    0.0000 C   0  0  0  0  0  0  0  0  0  0  0  0
   -4.8172   -8.1488    0.0000 C   0  0  0  0  0  0  0  0  0  0  0  0
   -4.3323   -8.8163    0.0000 C   0  0  0  0  0  0  0  0  0  0  0  0
   -4.6678   -9.5700    0.0000 C   0  0  0  0  0  0  0  0  0  0  0  0
   -4.1829  -10.2374    0.0000 C   0  0  0  0  0  0  0  0  0  0  0  0
   -3.3624  -10.1512    0.0000 O   0  0  0  0  0  0  0  0  0  0  0  0
   -4.5184  -10.9911    0.0000 N   0  0  0  0  0  0  0  0  0  0  0  0
   -5.3389  -11.0773    0.0000 C   0  0  0  0  0  0  0  0  0  0  0  0
   -5.8239  -10.4099    0.0000 N   0  0  0  0  0  0  0  0  0  0  0  0
   -5.4883   -9.6562    0.0000 C   0  0  0  0  0  0  0  0  0  0  0  0
   -5.9732   -8.9888    0.0000 N   0  0  0  0  0  0  0  0  0  0  0  0
   -5.6377   -8.2351    0.0000 C   0  0  0  0  0  0  0  0  0  0  0  0
   -5.6745  -11.8310    0.0000 N   0  0  0  0  0  0  0  0  0  0  0  0
   -1.7179   -5.1507    0.0000 C   0  0  0  0  0  0  0  0  0  0  0  0
   -1.7179   -4.3257    0.0000 O   0  0  0  0  0  0  0  0  0  0  0  0
   -1.0034   -5.5632    0.0000 N   0  0  0  0  0  0  0  0  0  0  0  0
   -0.2890   -5.1507    0.0000 C   0  0  0  0  0  0  0  0  0  0  0  0
    0.4255   -5.5632    0.0000 C   0  0  0  0  0  0  0  0  0  0  0  0
    1.1400   -5.1507    0.0000 C   0  0  0  0  0  0  0  0  0  0  0  0
    1.8545   -5.5632    0.0000 C   0  0  0  0  0  0  0  0  0  0  0  0
    2.5689   -5.1507    0.0000 O   0  0  0  0  0  0  0  0  0  0  0  0
    1.8545   -6.3882    0.0000 O   0  0  0  0  0  0  0  0  0  0  0  0
   -0.2890   -4.3257    0.0000 C   0  0  0  0  0  0  0  0  0  0  0  0
    0.4255   -3.9132    0.0000 O   0  0  0  0  0  0  0  0  0  0  0  0
   -1.0034   -3.9132    0.0000 O   0  0  0  0  0  0  0  0  0  0  0  0
  1  2  1  0
  2  3  1  0
  2  6  2  0
  3  4  2  0
  4  5  1  0
  4 21  1  0
  5  6  1  0
  6  7  1  0
  7  8  1  0
  9  8  1  1
  9 10  1  0
  9 19  1  0
 10 11  1  0
 11 12  1  0
 11 17  2  0
 12 13  2  0
 12 14  1  0
 14 15  1  0
 15 16  2  0
 15 20  1  0
 16 17  1  0
 17 18  1  0
 18 19  1  0
 21 22  2  0
 21 23  1  0
 24 23  1  0
 24 25  1  6
 24 30  1  0
 25 26  1  0
 26 27  1  0
 27 28  2  0
 27 29  1  0
 30 31  2  0
 30 32  1  0
M  END
>  <DRUGBANK_ID>  (1) 
DB12757

>  <COMMON_NAME>  (1) 
Pelitrexol

>  <CAS_NUMBER>  (1) 
446022-33-9

>  <UNII>  (1) 
DHT6E8M4KP

>  <SYNONYMS>  (1) 
Pelitrexol

$$$$
