
     RDKit          2D

 28 30  0  0  1  0  0  0  0  0999 V2000
    2.1665   -1.4675    0.0000 C   0  0  0  0  0  0  0  0  0  0  0  0
    1.3819   -1.7224    0.0000 N   0  0  0  0  0  0  0  0  0  0  0  0
    1.1270   -2.5070    0.0000 C   0  0  0  0  0  0  0  0  0  0  0  0
    1.6119   -3.1745    0.0000 O   0  0  0  0  0  0  0  0  0  0  0  0
    0.3020   -2.5070    0.0000 N   0  0  0  0  0  0  0  0  0  0  0  0
    0.0470   -1.7224    0.0000 C   0  0  0  0  0  0  0  0  0  0  0  0
   -0.7376   -1.4675    0.0000 O   0  0  0  0  0  0  0  0  0  0  0  0
    0.7145   -1.2375    0.0000 C   0  0  0  0  0  0  0  0  0  0  0  0
    0.3095   -0.5187    0.0000 C   0  0  0  0  0  0  0  0  0  0  0  0
   -0.5155   -0.5101    0.0000 O   0  0  0  0  0  0  0  0  0  0  0  0
    1.1195   -0.5187    0.0000 C   0  0  0  0  0  0  0  0  0  0  0  0
    0.6995    0.1914    0.0000 C   0  0  0  0  0  0  0  0  0  0  0  0
    1.1045    0.9101    0.0000 C   0  0  0  0  0  0  0  0  0  0  0  0
    1.9295    0.9188    0.0000 C   0  0  0  0  0  0  0  0  0  0  0  0
    2.3494    0.2086    0.0000 C   0  0  0  0  0  0  0  0  0  0  0  0
    1.9444   -0.5101    0.0000 C   0  0  0  0  0  0  0  0  0  0  0  0
   -0.1830   -3.1745    0.0000 C   0  0  0  0  0  0  0  0  0  0  0  0
    0.1526   -3.9282    0.0000 C   0  0  0  0  0  0  0  0  0  0  0  0
   -0.3323   -4.5956    0.0000 C   0  0  0  0  0  0  0  0  0  0  0  0
   -1.1528   -4.5094    0.0000 C   0  0  0  0  0  0  0  0  0  0  0  0
   -1.4884   -3.7557    0.0000 C   0  0  0  0  0  0  0  0  0  0  0  0
   -1.0034   -3.0882    0.0000 C   0  0  0  0  0  0  0  0  0  0  0  0
   -2.3088   -3.6695    0.0000 C   0  0  0  0  0  0  0  0  0  0  0  0
   -3.1293   -3.5832    0.0000 F   0  0  0  0  0  0  0  0  0  0  0  0
   -2.2226   -2.8490    0.0000 F   0  0  0  0  0  0  0  0  0  0  0  0
   -2.3951   -4.4899    0.0000 F   0  0  0  0  0  0  0  0  0  0  0  0
   -1.6377   -5.1768    0.0000 C   0  0  0  0  0  0  0  0  0  0  0  0
   -2.1226   -5.8442    0.0000 N   0  0  0  0  0  0  0  0  0  0  0  0
  1  2  1  0
  2  3  1  0
  2  8  1  0
  3  4  2  0
  3  5  1  0
  5  6  1  0
  5 17  1  0
  6  7  2  0
  6  8  1  0
  8  9  1  6
  8 11  1  0
  9 10  1  0
 11 12  2  0
 11 16  1  0
 12 13  1  0
 13 14  2  0
 14 15  1  0
 15 16  2  0
 17 18  2  0
 17 22  1  0
 18 19  1  0
 19 20  2  0
 20 21  1  0
 20 27  1  0
 21 22  2  0
 21 23  1  0
 23 24  1  0
 23 25  1  0
 23 26  1  0
 27 28  3  0
M  END
>  <DRUGBANK_ID>  (1) 
DB12461

>  <COMMON_NAME>  (1) 
GLPG-0492

>  <CAS_NUMBER>  (1) 
1215085-92-9

>  <UNII>  (1) 
8O59X1ACZT

$$$$
