
     RDKit          2D

 13 15  0  0  1  0  0  0  0  0999 V2000
    2.1615   -1.5225    0.0000 N   0  0  0  0  0  0  0  0  0  0  0  0
    3.4310   -1.1100    0.0000 C   0  0  0  0  0  0  0  0  0  0  0  0
    3.4310   -1.9350    0.0000 C   0  0  0  0  0  0  0  0  0  0  0  0
    4.1460   -1.5225    0.0000 C   0  0  0  0  0  0  0  0  0  0  0  0
    2.6464   -0.8551    0.0000 C   0  0  0  0  0  0  0  0  0  0  0  0
    2.6464   -2.1900    0.0000 C   0  0  0  0  0  0  0  0  0  0  0  0
    3.4310   -0.2850    0.0000 C   0  0  0  0  0  0  0  0  0  0  0  0
    4.1455    0.1275    0.0000 C   0  0  0  0  0  0  0  0  0  0  0  0
    2.7166    0.1275    0.0000 C   0  0  0  0  0  0  0  0  0  0  0  0
    4.1455    0.9525    0.0000 C   0  0  0  0  0  0  0  0  0  0  0  0
    2.7166    0.9525    0.0000 C   0  0  0  0  0  0  0  0  0  0  0  0
    3.4310    1.3650    0.0000 C   0  0  0  0  0  0  0  0  0  0  0  0
    3.4310    2.1900    0.0000 C   0  0  0  0  0  0  0  0  0  0  0  0
  1  5  1  0
  1  6  1  0
  2  3  1  0
  2  4  1  0
  2  5  1  0
  2  7  1  0
  3  4  1  0
  3  6  1  0
  7  8  2  0
  7  9  1  0
  8 10  1  0
  9 11  2  0
 10 12  2  0
 11 12  1  0
 12 13  1  0
M  END
>  <DRUGBANK_ID>  (1) 
DB04889

>  <COMMON_NAME>  (1) 
Bicifadine

>  <CAS_NUMBER>  (1) 
71195-57-8

>  <UNII>  (1) 
B0SV3N7J3H

>  <SYNONYMS>  (1) 
Bicifadine

$$$$
