
     RDKit          2D

 21 23  0  0  1  0  0  0  0  0999 V2000
   -0.2630    0.3294    0.0000 C   0  0  0  0  0  0  0  0  0  0  0  0
   -0.0794    1.1337    0.0000 C   0  0  0  0  0  0  0  0  0  0  0  0
    0.6638    1.4917    0.0000 C   0  0  0  0  0  0  0  0  0  0  0  0
    1.4071    1.1337    0.0000 C   0  0  0  0  0  0  0  0  0  0  0  0
    2.0521    1.6481    0.0000 C   0  0  0  0  0  0  0  0  0  0  0  0
    1.5907    0.3294    0.0000 C   0  0  0  0  0  0  0  0  0  0  0  0
    2.3631    0.0395    0.0000 C   0  0  0  0  0  0  0  0  0  0  0  0
    2.3260   -0.7845    0.0000 C   0  0  0  0  0  0  0  0  0  0  0  0
    1.5308   -1.0040    0.0000 C   0  0  0  0  0  0  0  0  0  0  0  0
    1.8322   -1.7720    0.0000 C   0  0  0  0  0  0  0  0  0  0  0  0
    0.7985   -1.3840    0.0000 O   0  0  0  0  0  0  0  0  0  0  0  0
    1.0763   -0.3155    0.0000 C   0  0  0  0  0  0  0  0  0  0  0  0
    0.2513   -0.3155    0.0000 C   0  0  0  0  0  0  0  0  0  0  0  0
   -0.2031   -1.0040    0.0000 O   0  0  0  0  0  0  0  0  0  0  0  0
   -0.9984   -0.7845    0.0000 C   0  0  0  0  0  0  0  0  0  0  0  0
   -1.6434   -1.2989    0.0000 O   0  0  0  0  0  0  0  0  0  0  0  0
   -1.0354    0.0395    0.0000 C   0  0  0  0  0  0  0  0  0  0  0  0
   -1.7239    0.4940    0.0000 C   0  0  0  0  0  0  0  0  0  0  0  0
   -1.6746    1.3175    0.0000 N   0  0  0  0  0  0  0  0  0  0  0  0
   -2.3631    1.7720    0.0000 C   0  0  0  0  0  0  0  0  0  0  0  0
   -0.9367    1.6866    0.0000 C   0  0  0  0  0  0  0  0  0  0  0  0
  1  2  1  6
  1 13  1  0
  1 17  1  0
  2  3  1  0
  3  4  1  0
  4  5  1  0
  4  6  2  0
  6  7  1  0
  7  8  1  0
  9  8  1  0
  9 10  1  6
  9 11  1  0
 12  9  1  0
 12  6  1  6
 13 12  1  0
 13 14  1  1
 14 15  1  0
 15 16  2  0
 17 15  1  0
 17 18  1  1
 18 19  1  0
 19 20  1  0
 19 21  1  0
M  END
>  <DRUGBANK_ID>  (1) 
DB17111

>  <COMMON_NAME>  (1) 
Dimethylaminomicheliolide

>  <CAS_NUMBER>  (1) 
1403357-81-2

>  <UNII>  (1) 
580BNQ45EO

>  <SYNONYMS>  (1) 
11.BETA.,13-DIHYDRO-13-(DIMETHYLAMINO)MICHELIOLIDE; AZULENO(4,5-B)FURAN-2(3H)-ONE, 3-((DIMETHYLAMINO)METHYL)-3A,4,5,7,8,9,9A,9B-OCTAHYDRO-9-HYDROXY-6,9-DIMETHYL-, (3R,3AS,9R,9AS,9BS)-

$$$$
