
     RDKit          2D

 21 21  0  0  1  0  0  0  0  0999 V2000
    4.6652   -5.0357    0.0000 C   0  0  0  0  0  0  0  0  0  0  0  0
    5.3797   -4.6232    0.0000 C   0  0  0  0  0  0  0  0  0  0  0  0
    6.0942   -5.0357    0.0000 C   0  0  0  0  0  0  0  0  0  0  0  0
    6.8086   -4.6232    0.0000 C   0  0  0  0  0  0  0  0  0  0  0  0
    7.5231   -5.0357    0.0000 C   0  0  0  0  0  0  0  0  0  0  0  0
    8.2376   -4.6232    0.0000 C   0  0  0  0  0  0  0  0  0  0  0  0
    8.9521   -5.0357    0.0000 C   0  0  0  0  0  0  0  0  0  0  0  0
    8.9521   -5.8607    0.0000 C   0  0  0  0  0  0  0  0  0  0  0  0
    9.6665   -4.6232    0.0000 C   0  0  0  0  0  0  0  0  0  0  0  0
   10.3810   -5.0357    0.0000 C   0  0  0  0  0  0  0  0  0  0  0  0
   11.0955   -4.6232    0.0000 C   0  0  0  0  0  0  0  0  0  0  0  0
   11.8099   -5.0357    0.0000 C   0  0  0  0  0  0  0  0  0  0  0  0
   12.5244   -4.6232    0.0000 C   0  0  0  0  0  0  0  0  0  0  0  0
   12.5244   -3.7982    0.0000 O   0  0  0  0  0  0  0  0  0  0  0  0
   13.2389   -5.0357    0.0000 N   0  0  0  0  0  0  0  0  0  0  0  0
   13.9926   -4.7001    0.0000 C   0  0  0  0  0  0  0  0  0  0  0  0
   14.5446   -5.3132    0.0000 C   0  0  0  0  0  0  0  0  0  0  0  0
   14.1321   -6.0277    0.0000 C   0  0  0  0  0  0  0  0  0  0  0  0
   13.3251   -5.8562    0.0000 C   0  0  0  0  0  0  0  0  0  0  0  0
   12.7120   -6.4082    0.0000 O   0  0  0  0  0  0  0  0  0  0  0  0
    7.5231   -5.8607    0.0000 O   0  0  0  0  0  0  0  0  0  0  0  0
  1  2  1  0
  2  3  1  0
  3  4  1  0
  4  5  1  0
  5  6  1  0
  5 21  1  6
  6  7  2  0
  7  8  1  0
  7  9  1  0
  9 10  2  0
 10 11  1  0
 11 12  2  0
 12 13  1  0
 13 14  2  0
 13 15  1  0
 15 16  1  0
 15 19  1  0
 16 17  1  0
 17 18  1  0
 18 19  1  0
 19 20  2  0
M  END
>  <DRUGBANK_ID>  (1) 
DB13459

>  <COMMON_NAME>  (1) 
Pecilocin

>  <CAS_NUMBER>  (1) 
19504-77-9

>  <UNII>  (1) 
TSA7W27MF8

>  <SYNONYMS>  (1) 
Pecilocin

$$$$
