1CX
     RDKit          2D

 24 25  0  0  0  0  0  0  0  0999 V2000
    0.7947    0.1249    0.0000 N   0  0  0  0  0  0  0  0  0  0  0  0
    0.0802    1.3624    0.0000 C   0  0  0  0  0  0  0  0  0  0  0  0
    0.0802    2.1874    0.0000 C   0  0  0  0  0  0  0  0  0  0  0  0
    0.7947    2.5999    0.0000 C   0  0  0  0  0  0  0  0  0  0  0  0
    0.0802   -1.1126    0.0000 C   0  0  0  0  0  0  0  0  0  0  0  0
   -0.6343   -1.5251    0.0000 C   0  0  0  0  0  0  0  0  0  0  0  0
   -1.3487   -0.2876    0.0000 C   0  0  0  0  0  0  0  0  0  0  0  0
    0.7947   -1.5251    0.0000 C   0  0  0  0  0  0  0  0  0  0  0  0
    3.6526   -1.5251    0.0000 C   0  0  0  0  0  0  0  0  0  0  0  0
    1.5091    2.1874    0.0000 C   0  0  0  0  0  0  0  0  0  0  0  0
    1.5091    1.3624    0.0000 C   0  0  0  0  0  0  0  0  0  0  0  0
    0.7947    0.9499    0.0000 C   0  0  0  0  0  0  0  0  0  0  0  0
    0.7947    3.4249    0.0000 I   0  0  0  0  0  0  0  0  0  0  0  0
   -1.3487   -1.1126    0.0000 C   0  0  0  0  0  0  0  0  0  0  0  0
   -0.6343    0.1249    0.0000 C   0  0  0  0  0  0  0  0  0  0  0  0
    0.0802   -0.2876    0.0000 C   0  0  0  0  0  0  0  0  0  0  0  0
   -2.0632    0.1249    0.0000 F   0  0  0  0  0  0  0  0  0  0  0  0
   -0.6343    0.9499    0.0000 F   0  0  0  0  0  0  0  0  0  0  0  0
    2.2236    0.9499    0.0000 F   0  0  0  0  0  0  0  0  0  0  0  0
    0.7947   -2.3501    0.0000 O   0  0  0  0  0  0  0  0  0  0  0  0
    1.5091   -1.1126    0.0000 N   0  0  0  0  0  0  0  0  0  0  0  0
    2.2236   -1.5251    0.0000 O   0  0  0  0  0  0  0  0  0  0  0  0
    2.9381   -1.1126    0.0000 C   0  0  0  0  0  0  0  0  0  0  0  0
    4.3670   -1.1126    0.0000 O   0  0  0  0  0  0  0  0  0  0  0  0
  1 12  1  0
  1 16  2  0
  2  3  2  0
  2 12  1  0
  3  4  1  0
  4 10  2  0
  4 13  1  0
  5  6  2  0
  5  8  1  0
  5 16  1  0
  6 14  1  0
  7 14  2  0
  7 15  1  0
  7 17  1  0
  8 20  2  0
  8 21  1  0
  9 23  1  0
  9 24  1  0
 10 11  1  0
 11 12  2  0
 11 19  1  0
 15 16  1  0
 15 18  1  1
 21 22  1  0
 22 23  1  0
M  END
>  <DRUGBANK_ID>  (1) 
DB06892

>  <COMMON_NAME>  (1) 
(5S)-4,5-difluoro-6-[(2-fluoro-4-iodophenyl)imino]-N-(2-hydroxyethoxy)cyclohexa-1,3-diene-1-carboxamide

$$$$
