
     RDKit          2D

 21 23  0  0  0  0  0  0  0  0999 V2000
   -3.0587    0.8084    0.0000 C   0  0  0  0  0  0  0  0  0  0  0  0
    3.3522    1.1104    0.0000 C   0  0  0  0  0  0  0  0  0  0  0  0
    3.3522    1.9354    0.0000 C   0  0  0  0  0  0  0  0  0  0  0  0
    2.6378    0.6979    0.0000 C   0  0  0  0  0  0  0  0  0  0  0  0
    2.6378    2.3479    0.0000 C   0  0  0  0  0  0  0  0  0  0  0  0
   -1.4087    0.8084    0.0000 C   0  0  0  0  0  0  0  0  0  0  0  0
   -1.4087    2.2374    0.0000 C   0  0  0  0  0  0  0  0  0  0  0  0
   -0.5837    0.8084    0.0000 C   0  0  0  0  0  0  0  0  0  0  0  0
   -0.5837    2.2374    0.0000 C   0  0  0  0  0  0  0  0  0  0  0  0
    1.1387    0.8555    0.0000 C   0  0  0  0  0  0  0  0  0  0  0  0
   -2.6462    1.5229    0.0000 C   0  0  0  0  0  0  0  0  0  0  0  0
   -1.8212    1.5229    0.0000 C   0  0  0  0  0  0  0  0  0  0  0  0
    1.9233    1.1104    0.0000 C   0  0  0  0  0  0  0  0  0  0  0  0
   -0.1712    1.5229    0.0000 C   0  0  0  0  0  0  0  0  0  0  0  0
    1.9233    1.9354    0.0000 C   0  0  0  0  0  0  0  0  0  0  0  0
    1.1387    2.1903    0.0000 C   0  0  0  0  0  0  0  0  0  0  0  0
   -3.0587    2.2374    0.0000 C   0  0  0  0  0  0  0  0  0  0  0  0
    0.6537    1.5229    0.0000 N   0  0  0  0  0  0  0  0  0  0  0  0
    0.8837    2.9750    0.0000 O   0  0  0  0  0  0  0  0  0  0  0  0
   -3.8837    2.2374    0.0000 O   0  0  0  0  0  0  0  0  0  0  0  0
   -2.6462    2.9518    0.0000 O   0  0  0  0  0  0  0  0  0  0  0  0
  3  2  2  0
  4  2  1  0
  5  3  1  0
  8  6  2  0
  9  7  1  0
 11  1  1  0
 12  6  1  0
 12  7  2  0
 12 11  1  0
 13  4  2  0
 13 10  1  0
 14  8  1  0
 14  9  2  0
 15  5  2  0
 15 13  1  0
 16 15  1  0
 17 11  1  0
 18 10  1  0
 18 14  1  0
 18 16  1  0
 19 16  2  0
 20 17  2  0
 21 17  1  0
M  END
>  <DRUGBANK_ID>  (1) 
DB08951

>  <COMMON_NAME>  (1) 
Indoprofen

>  <CAS_NUMBER>  (1) 
31842-01-0

>  <UNII>  (1) 
CPE46ZU14N

>  <SYNONYMS>  (1) 
Indoprofen; indoprofeno

$$$$
