
     RDKit          2D

 24 24  0  0  1  0  0  0  0  0999 V2000
    1.7085    1.5460    0.0000 P   0  0  0  0  0  0  0  0  0  0  0  0
    1.7048    0.7219    0.0000 O   0  0  0  0  0  0  0  0  0  0  0  0
    0.8882    1.5422    0.0000 O   0  0  0  0  0  0  0  0  0  0  0  0
    1.7048    2.3662    0.0000 O   0  0  0  0  0  0  0  0  0  0  0  0
    2.5288    1.5460    0.0000 O   0  0  0  0  0  0  0  0  0  0  0  0
    0.3440    0.0529    0.0000 C   0  0  0  0  0  0  0  0  0  0  0  0
    0.3440   -0.7786    0.0000 C   0  0  0  0  0  0  0  0  0  0  0  0
   -0.3780    0.4612    0.0000 C   0  0  0  0  0  0  0  0  0  0  0  0
   -0.3780   -1.1982    0.0000 C   0  0  0  0  0  0  0  0  0  0  0  0
    1.0584   -1.1907    0.0000 O   0  0  0  0  0  0  0  0  0  0  0  0
   -1.0886    0.0529    0.0000 C   0  0  0  0  0  0  0  0  0  0  0  0
   -0.3780    1.2852    0.0000 O   0  0  0  0  0  0  0  0  0  0  0  0
   -1.0886   -0.7786    0.0000 C   0  0  0  0  0  0  0  0  0  0  0  0
   -0.3780   -2.0222    0.0000 O   0  0  0  0  0  0  0  0  0  0  0  0
    1.8748   -1.1870    0.0000 P   0  0  0  0  0  0  0  0  0  0  0  0
   -1.7993    0.4612    0.0000 O   0  0  0  0  0  0  0  0  0  0  0  0
   -1.8030   -1.1870    0.0000 O   0  0  0  0  0  0  0  0  0  0  0  0
    2.6989   -1.1870    0.0000 O   0  0  0  0  0  0  0  0  0  0  0  0
    1.8748   -0.3628    0.0000 O   0  0  0  0  0  0  0  0  0  0  0  0
    1.8748   -2.0071    0.0000 O   0  0  0  0  0  0  0  0  0  0  0  0
   -2.6233    0.4687    0.0000 P   0  0  0  0  0  0  0  0  0  0  0  0
   -3.4436    0.4687    0.0000 O   0  0  0  0  0  0  0  0  0  0  0  0
   -2.6196    1.2890    0.0000 O   0  0  0  0  0  0  0  0  0  0  0  0
   -2.6271   -0.3553    0.0000 O   0  0  0  0  0  0  0  0  0  0  0  0
  1  2  1  0
  1  3  1  0
  1  4  1  0
  1  5  2  0
  6  2  1  1
  6  7  1  0
  6  8  1  0
  7  9  1  0
  7 10  1  6
  8 11  1  0
  8 12  1  6
  9 13  1  0
  9 14  1  1
 10 15  1  0
 11 16  1  1
 11 13  1  0
 13 17  1  1
 15 18  1  0
 15 19  1  0
 15 20  2  0
 16 21  1  0
 21 22  1  0
 21 23  1  0
 21 24  2  0
M  END
>  <DRUGBANK_ID>  (1) 
DB03401

>  <SECONDARY_ACCESSION_NUMBERS>  (1) 
EXPT01811

>  <COMMON_NAME>  (1) 
1D-myo-inositol 1,4,5-trisphosphate

>  <CAS_NUMBER>  (1) 
85166-31-0

>  <UNII>  (1) 
MU34XVK5NR

>  <SYNONYMS>  (1) 
1,4,5-Insp3; D-myo-Inositol 1,4,5-trisphosphate; D-myo-Inositol-1,4,5-triphosphate; Inositol 1,4,5-trisphosphate; Ins(1,4,5)P3; InsP3; IP3

$$$$
