
     RDKit          2D

 23 24  0  0  0  0  0  0  0  0999 V2000
   -1.4534    0.7750    0.0000 C   0  0  0  0  0  0  0  0  0  0  0  0
   -1.5967   -0.0375    0.0000 N   0  0  0  0  0  0  0  0  0  0  0  0
   -1.4534   -0.8499    0.0000 C   0  0  0  0  0  0  0  0  0  0  0  0
   -2.0854   -1.3802    0.0000 C   0  0  0  0  0  0  0  0  0  0  0  0
   -2.8606   -1.0981    0.0000 O   0  0  0  0  0  0  0  0  0  0  0  0
   -3.0039   -0.2856    0.0000 C   0  0  0  0  0  0  0  0  0  0  0  0
   -2.3719    0.2447    0.0000 C   0  0  0  0  0  0  0  0  0  0  0  0
   -0.7717   -0.0375    0.0000 C   0  0  0  0  0  0  0  0  0  0  0  0
   -0.3592    0.6770    0.0000 C   0  0  0  0  0  0  0  0  0  0  0  0
    0.4658    0.6770    0.0000 C   0  0  0  0  0  0  0  0  0  0  0  0
    1.2908    0.6770    0.0000 C   0  0  0  0  0  0  0  0  0  0  0  0
    1.7033    1.3915    0.0000 C   0  0  0  0  0  0  0  0  0  0  0  0
    2.5283    1.3915    0.0000 C   0  0  0  0  0  0  0  0  0  0  0  0
    2.9408    0.6770    0.0000 C   0  0  0  0  0  0  0  0  0  0  0  0
    2.5283   -0.0375    0.0000 C   0  0  0  0  0  0  0  0  0  0  0  0
    1.7033   -0.0375    0.0000 C   0  0  0  0  0  0  0  0  0  0  0  0
    0.4658   -0.1480    0.0000 C   0  0  0  0  0  0  0  0  0  0  0  0
    1.1333   -0.6329    0.0000 C   0  0  0  0  0  0  0  0  0  0  0  0
    0.8783   -1.4175    0.0000 C   0  0  0  0  0  0  0  0  0  0  0  0
    0.0533   -1.4175    0.0000 C   0  0  0  0  0  0  0  0  0  0  0  0
   -0.2016   -0.6329    0.0000 S   0  0  0  0  0  0  0  0  0  0  0  0
    0.4658    1.5020    0.0000 O   0  0  0  0  0  0  0  0  0  0  0  0
    5.1801    0.0000    0.0000 I   0  0  0  0  0  0  0  0  0  0  0  0
  1  2  1  0
  2  3  1  0
  2  7  1  0
  2  8  1  0
  3  4  1  0
  4  5  1  0
  5  6  1  0
  6  7  1  0
  8  9  1  0
  9 10  1  0
 10 11  1  0
 10 17  1  0
 10 22  1  0
 11 12  2  0
 11 16  1  0
 12 13  1  0
 13 14  2  0
 14 15  1  0
 15 16  2  0
 17 18  2  0
 17 21  1  0
 18 19  1  0
 19 20  2  0
 20 21  1  0
M  CHG  2   2   1  23  -1
M  END
>  <DRUGBANK_ID>  (1) 
DB13666

>  <COMMON_NAME>  (1) 
Tiemonium iodide

>  <CAS_NUMBER>  (1) 
144-12-7

>  <UNII>  (1) 
FZ2LZ7U304

>  <SYNONYMS>  (1) 
Tiemonium iodide

$$$$
