
     RDKit          2D

 36 39  0  0  0  0  0  0  0  0999 V2000
   -0.1060    0.2846    0.0000 C   0  0  0  0  0  0  0  0  0  0  0  0
    0.4448   -0.3294    0.0000 C   0  0  0  0  0  0  0  0  0  0  0  0
    1.2521   -0.1593    0.0000 C   0  0  0  0  0  0  0  0  0  0  0  0
    1.5085    0.6248    0.0000 Se  0  0  0  0  0  2  0  0  0  0  0  0
    2.3158    0.7949    0.0000 C   0  0  0  0  0  0  0  0  0  0  0  0
    2.5720    1.5791    0.0000 C   0  0  0  0  0  0  0  0  0  0  0  0
    2.0211    2.1932    0.0000 O   0  0  0  0  0  0  0  0  0  0  0  0
    3.3793    1.7493    0.0000 N   0  0  0  0  0  0  0  0  0  0  0  0
    3.6356    2.5335    0.0000 C   0  0  0  0  0  0  0  0  0  0  0  0
    4.4429    2.7036    0.0000 C   0  0  0  0  0  0  0  0  0  0  0  0
    4.6993    3.4878    0.0000 S   0  0  0  0  0  0  0  0  0  0  0  0
    4.9555    4.2720    0.0000 O   0  0  0  0  0  0  0  0  0  0  0  0
    5.4834    3.2316    0.0000 O   0  0  0  0  0  0  0  0  0  0  0  0
    3.9151    3.7442    0.0000 O   0  0  0  0  0  0  0  0  0  0  0  0
    0.1885   -1.1137    0.0000 C   0  0  0  0  0  0  0  0  0  0  0  0
    0.6700   -1.7775    0.0000 C   0  0  0  0  0  0  0  0  0  0  0  0
    0.1885   -2.4414    0.0000 C   0  0  0  0  0  0  0  0  0  0  0  0
   -0.5920   -2.1901    0.0000 C   0  0  0  0  0  0  0  0  0  0  0  0
   -1.3065   -2.6026    0.0000 C   0  0  0  0  0  0  0  0  0  0  0  0
   -1.2932   -3.4618    0.0000 C   0  0  0  0  0  0  0  0  0  0  0  0
   -0.5740   -3.8660    0.0000 O   0  0  0  0  0  0  0  0  0  0  0  0
   -2.0342   -3.8972    0.0000 C   0  0  0  0  0  0  0  0  0  0  0  0
   -2.7784   -3.4675    0.0000 C   0  0  0  0  0  0  0  0  0  0  0  0
   -3.5502   -3.9211    0.0000 C   0  0  0  0  0  0  0  0  0  0  0  0
   -4.3253   -3.4736    0.0000 C   0  0  0  0  0  0  0  0  0  0  0  0
   -5.0415   -3.8833    0.0000 O   0  0  0  0  0  0  0  0  0  0  0  0
   -4.3185   -2.5784    0.0000 C   0  0  0  0  0  0  0  0  0  0  0  0
   -3.5365   -2.1428    0.0000 C   0  0  0  0  0  0  0  0  0  0  0  0
   -2.7717   -2.6082    0.0000 C   0  0  0  0  0  0  0  0  0  0  0  0
   -2.7654   -1.7832    0.0000 C   0  0  0  0  0  0  0  0  0  0  0  0
   -2.0210   -2.1901    0.0000 C   0  0  0  0  0  0  0  0  0  0  0  0
   -2.0210   -1.3650    0.0000 C   0  0  0  0  0  0  0  0  0  0  0  0
   -1.3065   -0.9525    0.0000 C   0  0  0  0  0  0  0  0  0  0  0  0
   -1.3065   -0.1275    0.0000 O   0  0  0  0  0  0  0  0  0  0  0  0
   -0.5920   -1.3650    0.0000 C   0  0  0  0  0  0  0  0  0  0  0  0
   -0.5920   -0.5400    0.0000 C   0  0  0  0  0  0  0  0  0  0  0  0
  2  1  1  6
  2  3  1  0
  2 15  1  0
  3  4  1  0
  4  5  1  0
  5  6  1  0
  6  7  2  0
  6  8  1  0
  8  9  1  0
  9 10  1  0
 10 11  1  0
 11 12  1  0
 11 13  2  0
 11 14  2  0
 15 16  1  1
 15 35  1  0
 16 17  1  0
 18 17  1  1
 18 19  1  0
 18 35  1  0
 19 20  1  6
 19 31  1  0
 20 21  1  6
 20 22  1  0
 23 22  1  6
 23 24  1  0
 23 29  1  0
 24 25  1  0
 25 26  1  6
 25 27  1  0
 27 28  1  0
 28 29  1  0
 29 30  1  1
 29 31  1  0
 31 32  1  1
 32 33  1  0
 33 34  1  6
 33 35  1  0
 35 36  1  1
M  END
>  <DRUGBANK_ID>  (1) 
DB15973

>  <COMMON_NAME>  (1) 
Tauroselcholic acid

>  <CAS_NUMBER>  (1) 
75018-71-2

>  <UNII>  (1) 
H6630PU5ZJ

>  <SYNONYMS>  (1) 
SeHCAT; Tauroselcholic acid

$$$$
