2TH
     RDKit          2D

 22 25  0  0  0  0  0  0  0  0999 V2000
   -0.0677    1.6756    0.0000 O   0  0  0  0  0  0  0  0  0  0  0  0
   -0.3226    0.8910    0.0000 C   0  0  0  0  0  0  0  0  0  0  0  0
   -1.1073    0.6360    0.0000 C   0  0  0  0  0  0  0  0  0  0  0  0
   -1.1073   -0.1890    0.0000 C   0  0  0  0  0  0  0  0  0  0  0  0
   -1.8217   -0.6015    0.0000 C   0  0  0  0  0  0  0  0  0  0  0  0
   -2.5362   -0.1890    0.0000 C   0  0  0  0  0  0  0  0  0  0  0  0
   -2.5362    0.6360    0.0000 C   0  0  0  0  0  0  0  0  0  0  0  0
   -1.8217    1.0485    0.0000 C   0  0  0  0  0  0  0  0  0  0  0  0
   -0.3226   -0.4439    0.0000 C   0  0  0  0  0  0  0  0  0  0  0  0
    0.1623    0.2235    0.0000 C   0  0  0  0  0  0  0  0  0  0  0  0
    0.9873    0.2235    0.0000 N   0  0  0  0  0  0  0  0  0  0  0  0
    1.3998   -0.4910    0.0000 C   0  0  0  0  0  0  0  0  0  0  0  0
    0.9873   -1.2054    0.0000 O   0  0  0  0  0  0  0  0  0  0  0  0
    2.2248   -0.4910    0.0000 C   0  0  0  0  0  0  0  0  0  0  0  0
    2.7097   -1.1584    0.0000 C   0  0  0  0  0  0  0  0  0  0  0  0
    3.4943   -0.9035    0.0000 C   0  0  0  0  0  0  0  0  0  0  0  0
    3.4943   -0.0785    0.0000 C   0  0  0  0  0  0  0  0  0  0  0  0
    4.2790    0.1765    0.0000 S   0  0  0  0  0  0  0  0  0  0  0  0
    4.7639   -0.4910    0.0000 C   0  0  0  0  0  0  0  0  0  0  0  0
    4.2790   -1.1584    0.0000 C   0  0  0  0  0  0  0  0  0  0  0  0
    5.5889   -0.4910    0.0000 Cl  0  0  0  0  0  0  0  0  0  0  0  0
    2.7097    0.1765    0.0000 N   0  0  0  0  0  0  0  0  0  0  0  0
  2  1  1  1
  2  3  1  0
  2 10  1  0
  3  4  2  0
  3  8  1  0
  4  5  1  0
  4  9  1  0
  5  6  2  0
  6  7  1  0
  7  8  2  0
  9 10  1  0
 10 11  1  6
 11 12  1  0
 12 13  2  0
 12 14  1  0
 14 15  2  0
 14 22  1  0
 15 16  1  0
 16 17  2  0
 16 20  1  0
 17 18  1  0
 17 22  1  0
 18 19  1  0
 19 20  2  0
 19 21  1  0
M  END
>  <DRUGBANK_ID>  (1) 
DB06986

>  <COMMON_NAME>  (1) 
2-CHLORO-N-[(1R,2R)-1-HYDROXY-2,3-DIHYDRO-1H-INDEN-2-YL]-6H-THIENO[2,3-B]PYRROLE-5-CARBOXAMIDE

$$$$
