
     RDKit          2D

  7  7  0  0  1  0  0  0  0  0999 V2000
   -0.1467    2.3518    0.0000 N   0  0  0  0  0  0  0  0  0  0  0  0
    0.5678    1.9393    0.0000 C   0  0  0  0  0  0  0  0  0  0  0  0
    0.5678    1.1143    0.0000 C   0  0  0  0  0  0  0  0  0  0  0  0
    1.2352    0.6294    0.0000 C   0  0  0  0  0  0  0  0  0  0  0  0
    0.9803   -0.1553    0.0000 C   0  0  0  0  0  0  0  0  0  0  0  0
    0.1553   -0.1553    0.0000 C   0  0  0  0  0  0  0  0  0  0  0  0
   -0.0997    0.6294    0.0000 N   0  0  0  0  0  0  0  0  0  0  0  0
  1  2  1  0
  3  2  1  6
  3  4  1  0
  3  7  1  0
  4  5  1  0
  5  6  1  0
  6  7  1  0
M  END
>  <DRUGBANK_ID>  (1) 
DB03253

>  <SECONDARY_ACCESSION_NUMBERS>  (1) 
EXPT02476

>  <COMMON_NAME>  (1) 
(2s)-Pyrrolidin-2-Ylmethylamine

$$$$
