
     RDKit          2D

 29 31  0  0  0  0  0  0  0  0999 V2000
   -2.5005   -0.2062    0.0000 C   0  0  0  0  0  0  0  0  0  0  0  0
   -3.2150    0.2062    0.0000 C   0  0  0  0  0  0  0  0  0  0  0  0
   -3.9295   -0.2062    0.0000 C   0  0  0  0  0  0  0  0  0  0  0  0
   -3.9295   -1.0312    0.0000 C   0  0  0  0  0  0  0  0  0  0  0  0
   -3.2150   -1.4437    0.0000 C   0  0  0  0  0  0  0  0  0  0  0  0
   -2.5006   -1.0312    0.0000 C   0  0  0  0  0  0  0  0  0  0  0  0
   -1.7862    0.2062    0.0000 C   0  0  0  0  0  0  0  0  0  0  0  0
   -1.0716   -0.2062    0.0000 C   0  0  0  0  0  0  0  0  0  0  0  0
   -1.0716   -1.0312    0.0000 C   0  0  0  0  0  0  0  0  0  0  0  0
   -1.7862   -1.4437    0.0000 N   0  0  0  0  0  0  0  0  0  0  0  0
   -0.3571    0.2062    0.0000 C   0  0  0  0  0  0  0  0  0  0  0  0
    0.3573   -0.2062    0.0000 N   0  0  0  0  0  0  0  0  0  0  0  0
    1.0717    0.2062    0.0000 C   0  0  0  0  0  0  0  0  0  0  0  0
    0.3573   -1.0312    0.0000 C   0  0  0  0  0  0  0  0  0  0  0  0
    1.7862   -0.2062    0.0000 C   0  0  0  0  0  0  0  0  0  0  0  0
    2.5007    0.2062    0.0000 C   0  0  0  0  0  0  0  0  0  0  0  0
    2.5007    1.0312    0.0000 C   0  0  0  0  0  0  0  0  0  0  0  0
    1.7862    1.4437    0.0000 C   0  0  0  0  0  0  0  0  0  0  0  0
    1.0717    1.0312    0.0000 C   0  0  0  0  0  0  0  0  0  0  0  0
    3.2151    1.4437    0.0000 C   0  0  0  0  0  0  0  0  0  0  0  0
    3.2151    2.2687    0.0000 F   0  0  0  0  0  0  0  0  0  0  0  0
    3.9296    1.0312    0.0000 F   0  0  0  0  0  0  0  0  0  0  0  0
    3.9296    1.8562    0.0000 F   0  0  0  0  0  0  0  0  0  0  0  0
   -0.3571    1.0312    0.0000 O   0  0  0  0  0  0  0  0  0  0  0  0
   -0.3571   -1.4437    0.0000 O   0  0  0  0  0  0  0  0  0  0  0  0
   -1.7862    1.0312    0.0000 O   0  0  0  0  0  0  0  0  0  0  0  0
   -3.2150    1.0312    0.0000 O   0  0  0  0  0  0  0  0  0  0  0  0
   -3.9295    1.4437    0.0000 C   0  0  0  0  0  0  0  0  0  0  0  0
   -1.7862   -2.2687    0.0000 C   0  0  0  0  0  0  0  0  0  0  0  0
  1  2  2  0
  1  7  1  0
  2  3  1  0
  2 27  1  0
  3  4  2  0
  4  5  1  0
  5  6  2  0
  6  1  1  0
  7  8  2  0
  7 26  1  0
  8  9  1  0
  8 11  1  0
  9 10  1  0
  9 25  2  0
 10  6  1  0
 10 29  1  0
 11 12  1  0
 11 24  2  0
 12 13  1  0
 12 14  1  0
 13 15  2  0
 13 19  1  0
 15 16  1  0
 16 17  2  0
 17 18  1  0
 17 20  1  0
 18 19  2  0
 20 21  1  0
 20 22  1  0
 20 23  1  0
 27 28  1  0
M  END
>  <DRUGBANK_ID>  (1) 
DB05861

>  <COMMON_NAME>  (1) 
Tasquinimod

>  <CAS_NUMBER>  (1) 
254964-60-8

>  <UNII>  (1) 
756U07KN1R

>  <SYNONYMS>  (1) 
TASQ; Tasquinimod

$$$$
