
     RDKit          2D

 18 17  0  0  0  0  0  0  0  0999 V2000
   -2.3650   -0.2062    0.0000 O   0  0  0  0  0  0  0  0  0  0  0  0
    0.4930   -1.0312    0.0000 O   0  0  0  0  0  0  0  0  0  0  0  0
   -1.6505    1.0312    0.0000 O   0  0  0  0  0  0  0  0  0  0  0  0
    2.6365    1.0312    0.0000 O   0  0  0  0  0  0  0  0  0  0  0  0
   -0.9360   -0.2062    0.0000 N   0  0  0  0  0  0  0  0  0  0  0  0
    1.2075    0.2062    0.0000 N   0  0  0  0  0  0  0  0  0  0  0  0
    3.3511   -0.2062    0.0000 N   0  0  0  0  0  0  0  0  0  0  0  0
   -3.0795    0.2062    0.0000 C   0  0  0  0  0  0  0  0  0  0  0  0
   -0.2214    0.2062    0.0000 C   0  0  0  0  0  0  0  0  0  0  0  0
   -3.7940    0.6188    0.0000 C   0  0  0  0  0  0  0  0  0  0  0  0
   -3.4921   -0.5082    0.0000 C   0  0  0  0  0  0  0  0  0  0  0  0
   -2.6671    0.9207    0.0000 C   0  0  0  0  0  0  0  0  0  0  0  0
    1.9220   -0.2062    0.0000 C   0  0  0  0  0  0  0  0  0  0  0  0
    0.4930   -0.2062    0.0000 C   0  0  0  0  0  0  0  0  0  0  0  0
   -0.2214    1.0312    0.0000 C   0  0  0  0  0  0  0  0  0  0  0  0
   -1.6505    0.2062    0.0000 C   0  0  0  0  0  0  0  0  0  0  0  0
    1.9220   -1.0312    0.0000 C   0  0  0  0  0  0  0  0  0  0  0  0
    2.6365    0.2062    0.0000 C   0  0  0  0  0  0  0  0  0  0  0  0
  1  8  1  0
  1 16  1  0
  2 14  2  0
  3 16  2  0
  4 18  2  0
  5 16  1  0
  6 14  1  0
  7 18  1  0
  8 10  1  0
  8 11  1  0
  8 12  1  0
  9  5  1  0
  9 14  1  0
  9 15  1  1
 13  6  1  0
 13 17  1  6
 13 18  1  0
M  END
>  <DRUGBANK_ID>  (1) 
DB03757

>  <SECONDARY_ACCESSION_NUMBERS>  (1) 
EXPT00619

>  <COMMON_NAME>  (1) 
N-{[(2-Methyl-2-propanyl)oxy]carbonyl}-L-alanyl-L-alaninamide

>  <CAS_NUMBER>  (1) 
41036-24-2

>  <SYNONYMS>  (1) 
(Tert-butyloxycarbonyl)-alanyl-alanyl-amine

$$$$
