
     RDKit          2D

 22 23  0  0  1  0  0  0  0  0999 V2000
   -1.5056    0.2572    0.0000 C   0  0  0  0  0  0  0  0  0  0  0  0
    1.6689    1.9642    0.0000 C   0  0  0  0  0  0  0  0  0  0  0  0
   -0.7209    0.5122    0.0000 C   0  0  0  0  0  0  0  0  0  0  0  0
    1.2564    3.2338    0.0000 C   0  0  0  0  0  0  0  0  0  0  0  0
   -0.0535    0.0273    0.0000 C   0  0  0  0  0  0  0  0  0  0  0  0
    0.6139    0.5122    0.0000 C   0  0  0  0  0  0  0  0  0  0  0  0
    1.2564    4.0588    0.0000 C   0  0  0  0  0  0  0  0  0  0  0  0
    0.5890    2.7489    0.0000 C   0  0  0  0  0  0  0  0  0  0  0  0
    0.3590    1.2968    0.0000 C   0  0  0  0  0  0  0  0  0  0  0  0
    1.9709    4.4713    0.0000 N   0  0  0  0  0  0  0  0  0  0  0  0
    1.9239    2.7489    0.0000 N   0  0  0  0  0  0  0  0  0  0  0  0
    0.8439    1.9642    0.0000 N   0  0  0  0  0  0  0  0  0  0  0  0
   -0.0535   -0.7977    0.0000 O   0  0  0  0  0  0  0  0  0  0  0  0
    1.3986    0.2572    0.0000 O   0  0  0  0  0  0  0  0  0  0  0  0
    0.5420    4.4713    0.0000 O   0  0  0  0  0  0  0  0  0  0  0  0
   -0.1956    3.0038    0.0000 O   0  0  0  0  0  0  0  0  0  0  0  0
   -3.6879    0.2994    0.0000 O   0  0  0  0  0  0  0  0  0  0  0  0
   -3.1582    1.3390    0.0000 O   0  0  0  0  0  0  0  0  0  0  0  0
   -2.6483   -0.2303    0.0000 O   0  0  0  0  0  0  0  0  0  0  0  0
   -2.1187    0.8093    0.0000 O   0  0  0  0  0  0  0  0  0  0  0  0
   -0.4660    1.2968    0.0000 O   0  0  0  0  0  0  0  0  0  0  0  0
   -2.9033    0.5543    0.0000 P   0  0  0  0  0  0  0  0  0  0  0  0
  3  1  1  1
  5  3  1  0
  5 13  1  6
  6  5  1  0
  6 14  1  6
  7  4  1  0
  8  4  2  0
  9  6  1  0
  9 12  1  1
 10  7  1  0
 11  2  2  0
 11  4  1  0
 12  2  1  0
 12  8  1  0
 15  7  2  0
 16  8  1  0
 20  1  1  0
 21  3  1  0
 21  9  1  0
 22 17  1  0
 22 18  1  0
 22 19  2  0
 22 20  1  0
M  CHG  2  16  -1  17  -1
M  END
>  <DRUGBANK_ID>  (1) 
DB01945

>  <SECONDARY_ACCESSION_NUMBERS>  (1) 
EXPT02272

>  <COMMON_NAME>  (1) 
4-Carbamoyl-1-Beta-D-Ribofuranosyl-Imidazolium-5-Olate-5'-Phosphate

$$$$
