ATE
     RDKit          2D

 20 23  0  0  0  0  0  0  0  0999 V2000
    3.2286    0.4743    0.0000 O   0  0  0  0  0  0  0  0  0  0  0  0
    2.4165    0.3291    0.0000 C   0  0  0  0  0  0  0  0  0  0  0  0
    2.1362   -0.4468    0.0000 C   0  0  0  0  0  0  0  0  0  0  0  0
    1.3241   -0.5920    0.0000 C   0  0  0  0  0  0  0  0  0  0  0  0
    1.8847    0.9598    0.0000 C   0  0  0  0  0  0  0  0  0  0  0  0
    1.0725    0.8146    0.0000 C   0  0  0  0  0  0  0  0  0  0  0  0
    0.5407    1.4453    0.0000 C   0  0  0  0  0  0  0  0  0  0  0  0
    0.7922    0.0387    0.0000 C   0  0  0  0  0  0  0  0  0  0  0  0
    0.5119   -0.7372    0.0000 C   0  0  0  0  0  0  0  0  0  0  0  0
   -0.0199   -0.1065    0.0000 C   0  0  0  0  0  0  0  0  0  0  0  0
   -0.3002   -0.8824    0.0000 C   0  0  0  0  0  0  0  0  0  0  0  0
   -0.5517    0.5242    0.0000 C   0  0  0  0  0  0  0  0  0  0  0  0
   -0.2714    1.3001    0.0000 C   0  0  0  0  0  0  0  0  0  0  0  0
   -1.3638    0.3790    0.0000 C   0  0  0  0  0  0  0  0  0  0  0  0
   -2.0151    0.8853    0.0000 C   0  0  0  0  0  0  0  0  0  0  0  0
   -1.6441   -0.3969    0.0000 C   0  0  0  0  0  0  0  0  0  0  0  0
   -1.1123   -1.0277    0.0000 C   0  0  0  0  0  0  0  0  0  0  0  0
   -2.0040   -1.1393    0.0000 C   0  0  0  0  0  0  0  0  0  0  0  0
   -2.4687   -0.3701    0.0000 C   0  0  0  0  0  0  0  0  0  0  0  0
   -2.6980    0.4223    0.0000 C   0  0  0  0  0  0  0  0  0  0  0  0
  2  1  1  6
  2  3  1  0
  2  5  1  0
  3  4  1  0
  4  8  1  0
  6  5  1  1
  6  7  1  0
  6  8  1  0
  7 13  1  0
  8  9  1  1
  8 10  1  0
 10 11  1  1
 10 12  1  0
 11 17  1  0
 12 13  1  6
 12 14  1  0
 14 15  1  1
 14 16  1  0
 15 20  1  0
 16 17  1  0
 16 18  1  1
 16 19  1  0
 19 20  2  0
M  END
>  <DRUGBANK_ID>  (1) 
DB01889

>  <SECONDARY_ACCESSION_NUMBERS>  (1) 
EXPT00580

>  <COMMON_NAME>  (1) 
16,17-Androstene-3-Ol

>  <CAS_NUMBER>  (1) 
7148-51-8

>  <UNII>  (1) 
48K9VAM062

$$$$
