
     RDKit          2D

 40 44  0  0  0  0  0  0  0  0999 V2000
   -2.6466    0.4800    0.0000 C   0  0  0  0  0  0  0  0  0  0  0  0
   -2.4533    1.2835    0.0000 C   0  0  0  0  0  0  0  0  0  0  0  0
   -1.7007    1.6383    0.0000 N   0  0  0  0  0  0  0  0  0  0  0  0
   -2.1338   -0.1752    0.0000 C   0  0  0  0  0  0  0  0  0  0  0  0
   -0.9555    1.2753    0.0000 C   0  0  0  0  0  0  0  0  0  0  0  0
   -1.3022   -0.1819    0.0000 C   0  0  0  0  0  0  0  0  0  0  0  0
   -0.7808    0.4650    0.0000 C   0  0  0  0  0  0  0  0  0  0  0  0
   -4.7881    0.0592    0.0000 C   0  0  0  0  0  0  0  0  0  0  0  0
   -4.7893   -0.7677    0.0000 C   0  0  0  0  0  0  0  0  0  0  0  0
   -4.0748   -1.1804    0.0000 C   0  0  0  0  0  0  0  0  0  0  0  0
   -3.3588   -0.7672    0.0000 C   0  0  0  0  0  0  0  0  0  0  0  0
   -3.3616    0.0628    0.0000 C   0  0  0  0  0  0  0  0  0  0  0  0
   -4.0766    0.4716    0.0000 C   0  0  0  0  0  0  0  0  0  0  0  0
   -4.0750   -2.0049    0.0000 F   0  0  0  0  0  0  0  0  0  0  0  0
   -2.6440   -1.1784    0.0000 F   0  0  0  0  0  0  0  0  0  0  0  0
   -0.0691    0.0488    0.0000 N   0  0  0  0  0  0  0  0  0  0  0  0
    0.6469    0.4576    0.0000 C   0  0  0  0  0  0  0  0  0  0  0  0
    1.3589    0.0420    0.0000 N   0  0  0  0  0  0  0  0  0  0  0  0
    0.6508    1.2822    0.0000 O   0  0  0  0  0  0  0  0  0  0  0  0
    1.3495   -0.7829    0.0000 C   0  0  0  0  0  0  0  0  0  0  0  0
    2.0574   -1.1984    0.0000 C   0  0  0  0  0  0  0  0  0  0  0  0
    2.7759   -0.7932    0.0000 C   0  0  0  0  0  0  0  0  0  0  0  0
    2.7818    0.0323    0.0000 C   0  0  0  0  0  0  0  0  0  0  0  0
    2.0693    0.4524    0.0000 C   0  0  0  0  0  0  0  0  0  0  0  0
    3.4865   -1.2115    0.0000 N   0  0  0  0  0  0  0  0  0  0  0  0
   -0.3066    1.7840    0.0000 O   0  0  0  0  0  0  0  0  0  0  0  0
   -1.6954    2.4628    0.0000 C   0  0  0  0  0  0  0  0  0  0  0  0
   -0.9787    2.8705    0.0000 C   0  0  0  0  0  0  0  0  0  0  0  0
   -0.2683    3.2907    0.0000 F   0  0  0  0  0  0  0  0  0  0  0  0
   -1.3969    3.5905    0.0000 F   0  0  0  0  0  0  0  0  0  0  0  0
   -0.2683    2.4619    0.0000 F   0  0  0  0  0  0  0  0  0  0  0  0
    4.7893   -1.4969    0.0000 N   0  0  0  0  0  0  0  0  0  0  0  0
    4.2428   -0.8795    0.0000 C   0  0  0  0  0  0  0  0  0  0  0  0
    4.3710   -2.2075    0.0000 C   0  0  0  0  0  0  0  0  0  0  0  0
    3.5700   -2.0285    0.0000 C   0  0  0  0  0  0  0  0  0  0  0  0
    3.0164   -2.6320    0.0000 C   0  0  0  0  0  0  0  0  0  0  0  0
    3.2628   -3.4147    0.0000 C   0  0  0  0  0  0  0  0  0  0  0  0
    4.0676   -3.5904    0.0000 C   0  0  0  0  0  0  0  0  0  0  0  0
    4.6175   -2.9856    0.0000 N   0  0  0  0  0  0  0  0  0  0  0  0
    4.4198   -0.0743    0.0000 O   0  0  0  0  0  0  0  0  0  0  0  0
  1  2  1  0
  1 12  1  1
  1  4  1  0
  2  3  1  0
  3 27  1  0
  3  5  1  0
  4  6  1  0
  5 26  2  0
  5  7  1  0
  6  7  1  0
  7 16  1  6
  8  9  2  0
  9 10  1  0
 10 11  2  0
 10 14  1  0
 11 12  1  0
 11 15  1  0
 12 13  2  0
 13  8  1  0
 16 17  1  0
 17 18  1  0
 17 19  2  0
 18 20  1  0
 18 24  1  0
 20 21  1  0
 21 22  1  0
 22 23  1  0
 22 25  1  0
 23 24  1  0
 25 35  1  0
 27 28  1  0
 28 29  1  0
 28 30  1  0
 28 31  1  0
 32 33  1  0
 33 25  1  0
 33 40  2  0
 34 32  1  0
 34 35  2  0
 35 36  1  0
 36 37  2  0
 37 38  1  0
 38 39  2  0
 39 34  1  0
M  END
>  <DRUGBANK_ID>  (1) 
DB12228

>  <SECONDARY_ACCESSION_NUMBERS>  (1) 
DB05760

>  <COMMON_NAME>  (1) 
Telcagepant

>  <CAS_NUMBER>  (1) 
781649-09-0

>  <UNII>  (1) 
D42O649ALL

>  <SYNONYMS>  (1) 
Telcagepant

$$$$
