
     RDKit          2D

 20 19  0  0  1  0  0  0  0  0999 V2000
   -2.0485   -0.2755    0.0000 C   0  0  0  0  0  0  0  0  0  0  0  0
   -2.6005    0.3376    0.0000 C   0  0  0  0  0  0  0  0  0  0  0  0
   -2.1880    1.0521    0.0000 S   0  0  0  0  0  0  0  0  0  0  0  0
   -1.3810    0.8805    0.0000 S   0  0  0  0  0  0  0  0  0  0  0  0
   -1.2948    0.0600    0.0000 C   0  0  0  0  0  0  0  0  0  0  0  0
   -0.5803   -0.3525    0.0000 C   0  0  0  0  0  0  0  0  0  0  0  0
    0.1342    0.0600    0.0000 C   0  0  0  0  0  0  0  0  0  0  0  0
    0.8486   -0.3525    0.0000 C   0  0  0  0  0  0  0  0  0  0  0  0
    1.5631    0.0600    0.0000 C   0  0  0  0  0  0  0  0  0  0  0  0
    2.2776   -0.3525    0.0000 C   0  0  0  0  0  0  0  0  0  0  0  0
    2.9920    0.0600    0.0000 O   0  0  0  0  0  0  0  0  0  0  0  0
    2.2776   -1.1775    0.0000 O   0  0  0  0  0  0  0  0  0  0  0  0
    5.5922   -0.4779    0.0000 C   0  0  0  0  0  0  0  0  0  0  0  0
    6.3067   -0.0654    0.0000 C   0  0  0  0  0  0  0  0  0  0  0  0
    7.0212    0.3471    0.0000 C   0  0  0  0  0  0  0  0  0  0  0  0
    7.0212    1.1721    0.0000 O   0  0  0  0  0  0  0  0  0  0  0  0
    6.7192   -0.7798    0.0000 C   0  0  0  0  0  0  0  0  0  0  0  0
    7.5442   -0.7798    0.0000 O   0  0  0  0  0  0  0  0  0  0  0  0
    5.8942    0.6491    0.0000 N   0  0  0  0  0  0  0  0  0  0  0  0
    4.8778   -0.0654    0.0000 O   0  0  0  0  0  0  0  0  0  0  0  0
  1  2  1  0
  1  5  1  0
  2  3  1  0
  3  4  1  0
  4  5  1  0
  5  6  1  6
  6  7  1  0
  7  8  1  0
  8  9  1  0
  9 10  1  0
 10 11  2  0
 10 12  1  0
 13 14  1  0
 13 20  1  0
 14 15  1  0
 14 17  1  0
 14 19  1  0
 15 16  1  0
 17 18  1  0
M  END
>  <DRUGBANK_ID>  (1) 
DB06253

>  <COMMON_NAME>  (1) 
Thioctic acid tromethamine

>  <CAS_NUMBER>  (1) 
137314-40-0

>  <UNII>  (1) 
HK7B1AJA3Q

>  <SYNONYMS>  (1) 
(R)-5-(1,2-dithiolaln-3-yl)-pentanoic acid tromethamine; Thioctic acid tromethamine

$$$$
