
     RDKit          2D

 40 44  0  0  0  0  0  0  0  0999 V2000
    1.4890    0.4332    0.0000 C   0  0  0  0  0  0  0  0  0  0  0  0
    0.7463    0.8457    0.0000 C   0  0  0  0  0  0  0  0  0  0  0  0
    0.0450    0.4332    0.0000 C   0  0  0  0  0  0  0  0  0  0  0  0
    0.0450   -0.3918    0.0000 C   0  0  0  0  0  0  0  0  0  0  0  0
    0.7463   -0.8044    0.0000 C   0  0  0  0  0  0  0  0  0  0  0  0
    1.4890   -0.3918    0.0000 C   0  0  0  0  0  0  0  0  0  0  0  0
   -0.6563    0.8044    0.0000 N   0  0  0  0  0  0  0  0  0  0  0  0
   -1.3164    0.3506    0.0000 C   0  0  0  0  0  0  0  0  0  0  0  0
   -2.0590    0.7219    0.0000 C   0  0  0  0  0  0  0  0  0  0  0  0
   -1.3164   -0.4744    0.0000 C   0  0  0  0  0  0  0  0  0  0  0  0
   -2.0177   -0.8869    0.0000 C   0  0  0  0  0  0  0  0  0  0  0  0
   -2.0177   -1.7120    0.0000 C   0  0  0  0  0  0  0  0  0  0  0  0
   -1.3164   -2.1246    0.0000 C   0  0  0  0  0  0  0  0  0  0  0  0
   -0.5738   -1.7120    0.0000 C   0  0  0  0  0  0  0  0  0  0  0  0
   -0.5738   -0.8869    0.0000 C   0  0  0  0  0  0  0  0  0  0  0  0
   -2.1827    1.5470    0.0000 C   0  0  0  0  0  0  0  0  0  0  0  0
   -3.0078    1.7120    0.0000 N   0  0  0  0  0  0  0  0  0  0  0  0
   -3.4204    0.9695    0.0000 C   0  0  0  0  0  0  0  0  0  0  0  0
   -2.8428    0.3506    0.0000 C   0  0  0  0  0  0  0  0  0  0  0  0
   -1.6052    2.1246    0.0000 O   0  0  0  0  0  0  0  0  0  0  0  0
   -4.2042    0.7632    0.0000 C   0  0  0  0  0  0  0  0  0  0  0  0
   -4.4518   -0.0206    0.0000 C   0  0  0  0  0  0  0  0  0  0  0  0
   -3.8743   -0.6393    0.0000 C   0  0  0  0  0  0  0  0  0  0  0  0
   -3.0492   -0.4332    0.0000 C   0  0  0  0  0  0  0  0  0  0  0  0
    2.2905   -0.8698    0.0000 N   0  0  0  0  0  0  0  0  0  0  0  0
    3.0096   -0.4680    0.0000 C   0  0  0  0  0  0  0  0  0  0  0  0
    2.2789   -1.6937    0.0000 C   0  0  0  0  0  0  0  0  0  0  0  0
    3.0209    0.3341    0.0000 O   0  0  0  0  0  0  0  0  0  0  0  0
    3.7256   -0.8945    0.0000 C   0  0  0  0  0  0  0  0  0  0  0  0
    4.4528   -0.4881    0.0000 N   0  0  0  0  0  0  0  0  0  0  0  0
    4.4638    0.3179    0.0000 C   0  0  0  0  0  0  0  0  0  0  0  0
    5.1827    0.7199    0.0000 C   0  0  0  0  0  0  0  0  0  0  0  0
    5.8905    0.2982    0.0000 N   0  0  0  0  0  0  0  0  0  0  0  0
    5.8794   -0.5076    0.0000 C   0  0  0  0  0  0  0  0  0  0  0  0
    5.1604   -0.9097    0.0000 C   0  0  0  0  0  0  0  0  0  0  0  0
    6.6180    0.7052    0.0000 C   0  0  0  0  0  0  0  0  0  0  0  0
   -5.2553   -0.2023    0.0000 C   0  0  0  0  0  0  0  0  0  0  0  0
   -5.4997   -0.9891    0.0000 O   0  0  0  0  0  0  0  0  0  0  0  0
   -5.8145    0.4024    0.0000 O   0  0  0  0  0  0  0  0  0  0  0  0
   -6.6180    0.2208    0.0000 C   0  0  0  0  0  0  0  0  0  0  0  0
  1  2  2  0
  2  3  1  0
  3  4  2  0
  3  7  1  0
  4  5  1  0
  5  6  2  0
  6  1  1  0
  6 25  1  0
  7  8  1  0
  8  9  2  0
  8 10  1  0
  9 16  1  0
  9 19  1  0
 10 11  2  0
 10 15  1  0
 11 12  1  0
 12 13  2  0
 13 14  1  0
 14 15  2  0
 16 17  1  0
 16 20  2  0
 17 18  1  0
 18 19  2  0
 18 21  1  0
 19 24  1  0
 21 22  2  0
 22 23  1  0
 22 37  1  0
 23 24  2  0
 25 26  1  0
 25 27  1  0
 26 28  2  0
 26 29  1  0
 29 30  1  0
 30 31  1  0
 30 35  1  0
 31 32  1  0
 32 33  1  0
 33 34  1  0
 33 36  1  0
 34 35  1  0
 38 37  2  0
 39 37  1  0
 40 39  1  0
M  END
>  <DRUGBANK_ID>  (1) 
DB09079

>  <COMMON_NAME>  (1) 
Nintedanib

>  <CAS_NUMBER>  (1) 
656247-17-5

>  <UNII>  (1) 
G6HRD2P839

>  <SYNONYMS>  (1) 
methyl (3Z)-3-[(4-{methyl[(4-methylpiperazin-1-yl)acetyl]amino}anilino)(phenyl)methylidene]-2-oxo-2,3-dihydro-1H-indole-6-carboxylate; Nintedanib

$$$$
