
     RDKit          2D

 30 34  0  0  0  0  0  0  0  0999 V2000
    1.9748   -2.7872    0.0000 N   0  0  0  0  0  0  0  0  0  0  0  0
    2.6893   -2.3747    0.0000 C   0  0  0  0  0  0  0  0  0  0  0  0
    2.6893   -1.5497    0.0000 N   0  0  0  0  0  0  0  0  0  0  0  0
    1.9748   -1.1372    0.0000 C   0  0  0  0  0  0  0  0  0  0  0  0
    1.2604   -1.5497    0.0000 C   0  0  0  0  0  0  0  0  0  0  0  0
    0.5459   -1.1372    0.0000 C   0  0  0  0  0  0  0  0  0  0  0  0
   -0.1685   -1.5497    0.0000 C   0  0  0  0  0  0  0  0  0  0  0  0
   -0.1685   -2.3747    0.0000 C   0  0  0  0  0  0  0  0  0  0  0  0
    0.5459   -2.7872    0.0000 C   0  0  0  0  0  0  0  0  0  0  0  0
    1.2604   -2.3747    0.0000 C   0  0  0  0  0  0  0  0  0  0  0  0
    1.9748   -0.3122    0.0000 N   0  0  0  0  0  0  0  0  0  0  0  0
    1.3074    0.1726    0.0000 C   0  0  0  0  0  0  0  0  0  0  0  0
    1.5624    0.9572    0.0000 C   0  0  0  0  0  0  0  0  0  0  0  0
    2.3873    0.9572    0.0000 C   0  0  0  0  0  0  0  0  0  0  0  0
    2.6423    0.1726    0.0000 C   0  0  0  0  0  0  0  0  0  0  0  0
    1.0775    1.6247    0.0000 O   0  0  0  0  0  0  0  0  0  0  0  0
   -0.2279    2.2059    0.0000 N   0  0  0  0  0  0  0  0  0  0  0  0
    0.2570    1.5385    0.0000 C   0  0  0  0  0  0  0  0  0  0  0  0
   -0.0785    0.7848    0.0000 C   0  0  0  0  0  0  0  0  0  0  0  0
   -0.8989    0.6985    0.0000 N   0  0  0  0  0  0  0  0  0  0  0  0
   -1.3839    1.3660    0.0000 C   0  0  0  0  0  0  0  0  0  0  0  0
   -2.2043    1.2797    0.0000 C   0  0  0  0  0  0  0  0  0  0  0  0
   -2.6893    1.9472    0.0000 C   0  0  0  0  0  0  0  0  0  0  0  0
   -2.3538    2.7009    0.0000 C   0  0  0  0  0  0  0  0  0  0  0  0
   -1.5333    2.7871    0.0000 C   0  0  0  0  0  0  0  0  0  0  0  0
   -1.0484    2.1197    0.0000 C   0  0  0  0  0  0  0  0  0  0  0  0
   -0.8829   -2.7872    0.0000 O   0  0  0  0  0  0  0  0  0  0  0  0
   -1.5974   -2.3747    0.0000 C   0  0  0  0  0  0  0  0  0  0  0  0
   -0.8829   -1.1372    0.0000 O   0  0  0  0  0  0  0  0  0  0  0  0
   -1.5974   -1.5497    0.0000 C   0  0  0  0  0  0  0  0  0  0  0  0
  1  2  2  0
  1 10  1  0
  2  3  1  0
  3  4  2  0
  4  5  1  0
  4 11  1  0
  5  6  1  0
  5 10  2  0
  6  7  2  0
  7  8  1  0
  7 29  1  0
  8  9  2  0
  8 27  1  0
  9 10  1  0
 11 12  1  0
 11 15  1  0
 12 13  1  0
 13 14  1  0
 13 16  1  6
 14 15  1  0
 16 18  1  0
 17 18  2  0
 17 26  1  0
 18 19  1  0
 19 20  2  0
 20 21  1  0
 21 22  1  0
 21 26  2  0
 22 23  2  0
 23 24  1  0
 24 25  2  0
 25 26  1  0
 27 28  1  0
 29 30  1  0
M  END
>  <DRUGBANK_ID>  (1) 
DB08391

>  <COMMON_NAME>  (1) 
PQ-10

>  <CAS_NUMBER>  (1) 
927691-21-2

>  <UNII>  (1) 
63643I762J

$$$$
