ABI
     RDKit          2D

 12 13  0  0  0  0  0  0  0  0999 V2000
    0.3102    0.0076    0.0000 C   0  0  0  0  0  0  0  0  0  0  0  0
    0.3102   -0.8174    0.0000 C   0  0  0  0  0  0  0  0  0  0  0  0
   -0.4043   -1.2299    0.0000 C   0  0  0  0  0  0  0  0  0  0  0  0
   -1.1187   -0.8174    0.0000 C   0  0  0  0  0  0  0  0  0  0  0  0
   -1.1187    0.0076    0.0000 C   0  0  0  0  0  0  0  0  0  0  0  0
   -0.4043    0.4201    0.0000 C   0  0  0  0  0  0  0  0  0  0  0  0
    1.0247    0.4201    0.0000 C   0  0  0  0  0  0  0  0  0  0  0  0
   -2.3883   -0.4049    0.0000 C   0  0  0  0  0  0  0  0  0  0  0  0
    1.0247    1.2451    0.0000 N   0  0  0  0  0  0  0  0  0  0  0  0
    1.7392    0.0076    0.0000 N   0  0  0  0  0  0  0  0  0  0  0  0
   -1.9033   -1.0723    0.0000 N   0  0  0  0  0  0  0  0  0  0  0  0
   -1.9033    0.2626    0.0000 N   0  0  0  0  0  0  0  0  0  0  0  0
  1  2  2  0
  1  6  1  0
  1  7  1  0
  2  3  1  0
  3  4  2  0
  4  5  1  0
  4 11  1  0
  5  6  2  0
  5 12  1  0
  7  9  1  0
  7 10  2  0
  8 11  2  0
  8 12  1  0
M  CHG  1  10   1
M  END
>  <DRUGBANK_ID>  (1) 
DB01939

>  <SECONDARY_ACCESSION_NUMBERS>  (1) 
EXPT00397

>  <COMMON_NAME>  (1) 
5-Amidino-Benzimidazole

$$$$
