STB
     RDKit          2D

 20 20  0  0  0  0  0  0  0  0999 V2000
   -1.6091   -0.0981    0.0000 C   0  0  0  0  0  0  0  0  0  0  0  0
   -2.3236   -0.5106    0.0000 C   0  0  0  0  0  0  0  0  0  0  0  0
   -3.0381   -0.0981    0.0000 C   0  0  0  0  0  0  0  0  0  0  0  0
   -3.0381    0.7269    0.0000 C   0  0  0  0  0  0  0  0  0  0  0  0
   -2.3236    1.1394    0.0000 C   0  0  0  0  0  0  0  0  0  0  0  0
   -1.6091    0.7269    0.0000 C   0  0  0  0  0  0  0  0  0  0  0  0
   -0.8947   -0.5106    0.0000 C   0  0  0  0  0  0  0  0  0  0  0  0
   -0.8947   -1.3356    0.0000 O   0  0  0  0  0  0  0  0  0  0  0  0
   -0.1802   -0.0981    0.0000 N   0  0  0  0  0  0  0  0  0  0  0  0
    0.5343   -0.5106    0.0000 C   0  0  0  0  0  0  0  0  0  0  0  0
    1.2488   -0.0981    0.0000 C   0  0  0  0  0  0  0  0  0  0  0  0
    1.9632   -0.5106    0.0000 C   0  0  0  0  0  0  0  0  0  0  0  0
    2.6777   -0.0981    0.0000 C   0  0  0  0  0  0  0  0  0  0  0  0
    3.3922   -0.5106    0.0000 N   0  0  0  0  0  0  0  0  0  0  0  0
    4.1066   -0.0981    0.0000 C   0  0  0  0  0  0  0  0  0  0  0  0
    4.8211   -0.5106    0.0000 S   0  0  0  0  0  0  0  0  0  0  0  0
   -3.7525    1.1394    0.0000 S   0  0  0  0  0  0  0  0  0  0  0  0
   -4.4670    1.5519    0.0000 O   0  0  0  0  0  0  0  0  0  0  0  0
   -3.3400    1.8539    0.0000 O   0  0  0  0  0  0  0  0  0  0  0  0
   -4.1650    0.4249    0.0000 N   0  0  0  0  0  0  0  0  0  0  0  0
  1  2  2  0
  1  6  1  0
  1  7  1  0
  2  3  1  0
  3  4  2  0
  4  5  1  0
  4 17  1  0
  5  6  2  0
  7  8  2  0
  7  9  1  0
  9 10  1  0
 10 11  1  0
 11 12  1  0
 12 13  1  0
 13 14  1  0
 14 15  1  0
 15 16  1  0
 17 18  2  0
 17 19  2  0
 17 20  1  0
M  END
>  <DRUGBANK_ID>  (1) 
DB04002

>  <SECONDARY_ACCESSION_NUMBERS>  (1) 
EXPT02964

>  <COMMON_NAME>  (1) 
4-Sulfonamide-[4-(Thiomethylaminobutane)]Benzamide

$$$$
