
     RDKit          2D

 27 30  0  0  0  0  0  0  0  0999 V2000
   -3.6980   -1.0179    0.0000 C   0  0  0  0  0  0  0  0  0  0  0  0
   -3.6991   -1.8430    0.0000 C   0  0  0  0  0  0  0  0  0  0  0  0
   -2.9863   -2.2548    0.0000 C   0  0  0  0  0  0  0  0  0  0  0  0
   -2.9881   -0.6063    0.0000 C   0  0  0  0  0  0  0  0  0  0  0  0
   -2.2746   -1.0142    0.0000 C   0  0  0  0  0  0  0  0  0  0  0  0
   -2.2712   -1.8405    0.0000 C   0  0  0  0  0  0  0  0  0  0  0  0
   -1.5577   -2.2485    0.0000 C   0  0  0  0  0  0  0  0  0  0  0  0
   -0.8432   -1.8346    0.0000 C   0  0  0  0  0  0  0  0  0  0  0  0
   -1.5645   -0.5960    0.0000 C   0  0  0  0  0  0  0  0  0  0  0  0
   -0.8473   -1.0121    0.0000 C   0  0  0  0  0  0  0  0  0  0  0  0
   -0.8452    0.6434    0.0000 C   0  0  0  0  0  0  0  0  0  0  0  0
   -1.5666    0.2310    0.0000 C   0  0  0  0  0  0  0  0  0  0  0  0
   -0.1279    0.2272    0.0000 C   0  0  0  0  0  0  0  0  0  0  0  0
   -0.1354   -0.5979    0.0000 C   0  0  0  0  0  0  0  0  0  0  0  0
    0.6469   -0.8598    0.0000 C   0  0  0  0  0  0  0  0  0  0  0  0
    1.1378   -0.1967    0.0000 C   0  0  0  0  0  0  0  0  0  0  0  0
    0.6590    0.4752    0.0000 C   0  0  0  0  0  0  0  0  0  0  0  0
   -0.1351    1.0515    0.0000 C   0  0  0  0  0  0  0  0  0  0  0  0
    0.9937    1.4119    0.0000 O   0  0  0  0  0  0  0  0  0  0  0  0
   -4.4120   -2.2539    0.0000 O   0  0  0  0  0  0  0  0  0  0  0  0
    1.8118    1.5025    0.0000 C   0  0  0  0  0  0  0  0  0  0  0  0
    2.2937    0.8377    0.0000 C   0  0  0  0  0  0  0  0  0  0  0  0
    2.1449    2.2548    0.0000 O   0  0  0  0  0  0  0  0  0  0  0  0
    3.1120    0.9283    0.0000 C   0  0  0  0  0  0  0  0  0  0  0  0
    3.5938    0.2634    0.0000 C   0  0  0  0  0  0  0  0  0  0  0  0
    3.2553   -0.4865    0.0000 O   0  0  0  0  0  0  0  0  0  0  0  0
    4.4120    0.3540    0.0000 O   0  0  0  0  0  0  0  0  0  0  0  0
  1  2  2  0
  2 20  1  0
  2  3  1  0
  3  6  2  0
  4  1  1  0
  5  9  1  0
  5  4  2  0
  5  6  1  0
  6  7  1  0
  7  8  1  0
 10  8  1  6
  9 10  1  0
  9 12  1  1
 10 14  1  0
 11 12  1  0
 13 18  1  1
 13 11  1  0
 13 14  1  0
 14 15  1  1
 15 16  1  0
 16 17  1  0
 17 13  1  0
 17 19  1  1
 19 21  1  0
 21 22  1  0
 21 23  2  0
 22 24  1  0
 24 25  1  0
 25 26  2  0
 25 27  1  0
M  END
>  <DRUGBANK_ID>  (1) 
DB07891

>  <COMMON_NAME>  (1) 
Estradiol hemisuccinate

>  <CAS_NUMBER>  (1) 
7698-93-3

>  <UNII>  (1) 
VQV5064VG6

>  <SYNONYMS>  (1) 
17beta-Estradiol hemisuccinate; beta-Estradiol-17-beta-hemisuccinate; beta-Estradiol-17beta-hemisuccinate

$$$$
