
     RDKit          2D

 31 33  0  0  0  0  0  0  0  0999 V2000
   -3.8665    3.2727    0.0000 C   0  0  0  0  0  0  0  0  0  0  0  0
   -4.2790    2.5583    0.0000 C   0  0  0  0  0  0  0  0  0  0  0  0
   -3.8665    1.8438    0.0000 C   0  0  0  0  0  0  0  0  0  0  0  0
   -3.0415    1.8438    0.0000 C   0  0  0  0  0  0  0  0  0  0  0  0
   -2.6290    2.5583    0.0000 C   0  0  0  0  0  0  0  0  0  0  0  0
   -3.0415    3.2727    0.0000 C   0  0  0  0  0  0  0  0  0  0  0  0
   -4.2790    3.9873    0.0000 O   0  0  0  0  0  0  0  0  0  0  0  0
   -4.2790    1.1293    0.0000 O   0  0  0  0  0  0  0  0  0  0  0  0
   -1.8040    2.5583    0.0000 C   0  0  0  0  0  0  0  0  0  0  0  0
   -1.0896    2.1459    0.0000 C   0  0  0  0  0  0  0  0  0  0  0  0
    0.4094   -0.1715    0.0000 C   0  0  0  0  0  0  0  0  0  0  0  0
    0.8943    0.4958    0.0000 C   0  0  0  0  0  0  0  0  0  0  0  0
    0.4094    1.1632    0.0000 C   0  0  0  0  0  0  0  0  0  0  0  0
   -0.3751    0.9083    0.0000 C   0  0  0  0  0  0  0  0  0  0  0  0
   -1.0896    1.3208    0.0000 C   0  0  0  0  0  0  0  0  0  0  0  0
   -1.8040    0.9083    0.0000 C   0  0  0  0  0  0  0  0  0  0  0  0
   -1.8040    0.0833    0.0000 C   0  0  0  0  0  0  0  0  0  0  0  0
   -1.0896   -0.3291    0.0000 C   0  0  0  0  0  0  0  0  0  0  0  0
   -0.3751    0.0833    0.0000 C   0  0  0  0  0  0  0  0  0  0  0  0
   -0.2889   -0.7371    0.0000 C   0  0  0  0  0  0  0  0  0  0  0  0
    0.6644   -0.9562    0.0000 C   0  0  0  0  0  0  0  0  0  0  0  0
    1.4613   -1.1697    0.0000 C   0  0  0  0  0  0  0  0  0  0  0  0
    1.6748   -1.9666    0.0000 C   0  0  0  0  0  0  0  0  0  0  0  0
    2.4717   -2.1801    0.0000 C   0  0  0  0  0  0  0  0  0  0  0  0
    2.6852   -2.9770    0.0000 C   0  0  0  0  0  0  0  0  0  0  0  0
    3.4821   -3.1905    0.0000 C   0  0  0  0  0  0  0  0  0  0  0  0
    3.2686   -3.9874    0.0000 C   0  0  0  0  0  0  0  0  0  0  0  0
    4.2790   -3.4040    0.0000 C   0  0  0  0  0  0  0  0  0  0  0  0
    0.1124   -1.5692    0.0000 C   0  0  0  0  0  0  0  0  0  0  0  0
    3.6956   -2.3936    0.0000 O   0  0  0  0  0  0  0  0  0  0  0  0
   -2.6290    1.1293    0.0000 C   0  0  0  0  0  0  0  0  0  0  0  0
  1  2  1  0
  1  6  1  0
  1  7  1  6
  2  3  1  0
  3  4  1  0
  3  8  1  1
  4  5  1  0
  4 31  2  0
  5  6  1  0
  5  9  2  0
  9 10  1  0
 10 15  2  0
 11 12  1  6
 11 19  1  0
 11 21  1  0
 12 13  1  0
 14 13  1  6
 14 15  1  0
 14 19  1  0
 15 16  1  0
 16 17  1  0
 17 18  1  0
 18 19  1  0
 19 20  1  6
 21 22  1  0
 21 29  1  1
 22 23  1  0
 23 24  1  0
 24 25  1  0
 25 26  1  0
 26 27  1  0
 26 28  1  0
 26 30  1  0
M  END
>  <DRUGBANK_ID>  (1) 
DB15557

>  <COMMON_NAME>  (1) 
24-Homo-1,25-dihydroxyvitamin D3

>  <CAS_NUMBER>  (1) 
103656-40-2

>  <UNII>  (1) 
F35KTH803S

>  <SYNONYMS>  (1) 
24-Homo-calcitriol

$$$$
