
     RDKit          2D

 26 28  0  0  0  0  0  0  0  0999 V2000
   -4.3730    1.6454    0.0000 O   0  0  0  0  0  0  0  0  0  0  0  0
   -5.1800    1.8170    0.0000 N   0  0  0  0  0  0  0  0  0  0  0  0
   -5.5925    1.1025    0.0000 C   0  0  0  0  0  0  0  0  0  0  0  0
   -6.4130    1.0163    0.0000 C   0  0  0  0  0  0  0  0  0  0  0  0
   -5.0404    0.4894    0.0000 C   0  0  0  0  0  0  0  0  0  0  0  0
   -4.2868    0.8250    0.0000 C   0  0  0  0  0  0  0  0  0  0  0  0
   -3.5723    0.4125    0.0000 C   0  0  0  0  0  0  0  0  0  0  0  0
   -2.8578    0.8250    0.0000 C   0  0  0  0  0  0  0  0  0  0  0  0
   -2.1433    0.4125    0.0000 C   0  0  0  0  0  0  0  0  0  0  0  0
   -1.4289    0.8250    0.0000 C   0  0  0  0  0  0  0  0  0  0  0  0
   -0.7144    0.4125    0.0000 C   0  0  0  0  0  0  0  0  0  0  0  0
    0.0000    0.8250    0.0000 C   0  0  0  0  0  0  0  0  0  0  0  0
    0.7144    0.4125    0.0000 C   0  0  0  0  0  0  0  0  0  0  0  0
    1.4289    0.8250    0.0000 O   0  0  0  0  0  0  0  0  0  0  0  0
    2.1434    0.4125    0.0000 C   0  0  0  0  0  0  0  0  0  0  0  0
    2.8578    0.8250    0.0000 C   0  0  0  0  0  0  0  0  0  0  0  0
    3.5723    0.4125    0.0000 C   0  0  0  0  0  0  0  0  0  0  0  0
    3.5723   -0.4124    0.0000 C   0  0  0  0  0  0  0  0  0  0  0  0
    2.8578   -0.8249    0.0000 C   0  0  0  0  0  0  0  0  0  0  0  0
    2.1434   -0.4124    0.0000 C   0  0  0  0  0  0  0  0  0  0  0  0
    4.2868   -0.8249    0.0000 C   0  0  0  0  0  0  0  0  0  0  0  0
    5.0405   -0.4894    0.0000 N   0  0  0  0  0  0  0  0  0  0  0  0
    5.5925   -1.1025    0.0000 C   0  0  0  0  0  0  0  0  0  0  0  0
    6.4130   -1.0162    0.0000 C   0  0  0  0  0  0  0  0  0  0  0  0
    5.1800   -1.8170    0.0000 C   0  0  0  0  0  0  0  0  0  0  0  0
    4.3730   -1.6454    0.0000 O   0  0  0  0  0  0  0  0  0  0  0  0
  2  1  1  0
  3  2  2  0
  3  4  1  0
  3  5  1  0
  5  6  2  0
  6  1  1  0
  7  6  1  0
  7  8  1  0
  8  9  1  0
  9 10  1  0
 10 11  1  0
 11 12  1  0
 12 13  1  0
 13 14  1  0
 15 14  1  0
 15 16  2  0
 15 20  1  0
 16 17  1  0
 17 18  2  0
 18 19  1  0
 19 20  2  0
 21 18  1  0
 21 22  2  0
 21 26  1  0
 23 22  1  0
 23 24  1  6
 23 25  1  0
 25 26  1  0
M  END
>  <DRUGBANK_ID>  (1) 
DB08727

>  <COMMON_NAME>  (1) 
3-Methyl-5-(7-{4-[(4R)-4-methyl-4,5-dihydro-1,3-oxazol-2-yl]phenoxy}heptyl)-1,2-oxazole

>  <CAS_NUMBER>  (1) 
98524-87-9

$$$$
