
     RDKit          2D

 16 16  0  0  0  0  0  0  0  0999 V2000
   -0.8899    1.2376    0.0000 O   0  0  0  0  0  0  0  0  0  0  0  0
    0.5470   -1.2422    0.0000 O   0  0  0  0  0  0  0  0  0  0  0  0
   -2.3175   -1.2375    0.0000 O   0  0  0  0  0  0  0  0  0  0  0  0
   -1.6038    0.0000    0.0000 N   0  0  0  0  0  0  0  0  0  0  0  0
   -0.8899   -1.2375    0.0000 N   0  0  0  0  0  0  0  0  0  0  0  0
   -0.1761    0.0000    0.0000 C   0  0  0  0  0  0  0  0  0  0  0  0
   -0.1761   -0.8250    0.0000 C   0  0  0  0  0  0  0  0  0  0  0  0
   -0.8899    0.4125    0.0000 C   0  0  0  0  0  0  0  0  0  0  0  0
    0.6629    0.0000    0.0000 C   0  0  0  0  0  0  0  0  0  0  0  0
   -0.1807    0.8250    0.0000 C   0  0  0  0  0  0  0  0  0  0  0  0
   -1.6038   -0.8250    0.0000 C   0  0  0  0  0  0  0  0  0  0  0  0
    1.0707    0.7138    0.0000 C   0  0  0  0  0  0  0  0  0  0  0  0
    1.0753   -0.7138    0.0000 C   0  0  0  0  0  0  0  0  0  0  0  0
    0.5470    1.2422    0.0000 C   0  0  0  0  0  0  0  0  0  0  0  0
    1.9004    0.7138    0.0000 C   0  0  0  0  0  0  0  0  0  0  0  0
    2.3175   -0.0092    0.0000 C   0  0  0  0  0  0  0  0  0  0  0  0
  1  8  2  0
  2  7  2  0
  3 11  2  0
  4  8  1  0
  4 11  1  0
  5  7  1  0
  5 11  1  0
  6  7  1  0
  6  8  1  0
  6  9  1  0
  6 10  1  0
  9 12  1  0
  9 13  1  0
 10 14  2  0
 12 15  1  0
 15 16  1  0
M  END
>  <DRUGBANK_ID>  (1) 
DB13770

>  <COMMON_NAME>  (1) 
Vinylbital

>  <CAS_NUMBER>  (1) 
2430-49-1

>  <UNII>  (1) 
3W58ITX06Q

>  <SYNONYMS>  (1) 
Vinilbital; Vinylbital; Vinylbitalum

$$$$
