
     RDKit          2D

  9  4  0  0  0  0  0  0  0  0999 V2000
   -0.5598    0.1105    0.0000 C   0  0  0  0  0  0  0  0  0  0  0  0
   -0.9723    0.8250    0.0000 C   0  0  0  0  0  0  0  0  0  0  0  0
    0.2651    0.1105    0.0000 N   0  0  0  0  0  0  0  0  0  0  0  0
   -0.5598    1.5394    0.0000 O   0  0  0  0  0  0  0  0  0  0  0  0
   -1.7973    0.8250    0.0000 O   0  0  0  0  0  0  0  0  0  0  0  0
   -2.6223    0.8250    0.0000 Al  0  0  0  0  0 15  0  0  0  0  0  0
    2.6223    0.7059    0.0000 O   0  0  0  0  0  0  0  0  0  0  0  0
   -1.0410   -1.5394    0.0000 O   0  0  0  0  0  0  0  0  0  0  0  0
    1.3160   -1.5394    0.0000 O   0  0  0  0  0  0  0  0  0  0  0  0
  2  1  1  0
  3  1  1  0
  4  2  2  0
  5  2  1  0
M  CHG  4   5  -1   6   3   7  -1   8  -1
M  END
>  <DRUGBANK_ID>  (1) 
DB13626

>  <COMMON_NAME>  (1) 
Aluminium glycinate

>  <CAS_NUMBER>  (1) 
41354-48-7

>  <UNII>  (1) 
DO250MG0W6

>  <SYNONYMS>  (1) 
Aluminio glicinato; Aluminum glycinate; Dihydroxyaluminum aminoacetate

$$$$
