NCF
     RDKit          2D

 21 22  0  0  0  0  0  0  0  0999 V2000
   -1.8696    0.4620    0.0000 S   0  0  0  0  0  0  0  0  0  0  0  0
   -2.2821    1.1765    0.0000 C   0  0  0  0  0  0  0  0  0  0  0  0
   -1.8696    1.8910    0.0000 C   0  0  0  0  0  0  0  0  0  0  0  0
   -1.0446    1.8910    0.0000 C   0  0  0  0  0  0  0  0  0  0  0  0
   -0.6321    2.6054    0.0000 C   0  0  0  0  0  0  0  0  0  0  0  0
   -1.0446    3.3199    0.0000 O   0  0  0  0  0  0  0  0  0  0  0  0
    0.1929    2.6054    0.0000 O   0  0  0  0  0  0  0  0  0  0  0  0
   -0.6321    1.1765    0.0000 N   0  0  0  0  0  0  0  0  0  0  0  0
   -1.0446    0.4620    0.0000 C   0  0  0  0  0  0  0  0  0  0  0  0
   -0.6321   -0.2525    0.0000 C   0  0  0  0  0  0  0  0  0  0  0  0
   -1.0446   -0.9669    0.0000 C   0  0  0  0  0  0  0  0  0  0  0  0
   -1.8696   -0.9669    0.0000 O   0  0  0  0  0  0  0  0  0  0  0  0
    0.1929   -0.2525    0.0000 N   0  0  0  0  0  0  0  0  0  0  0  0
    0.6054   -0.9669    0.0000 C   0  0  0  0  0  0  0  0  0  0  0  0
    0.1929   -1.6814    0.0000 O   0  0  0  0  0  0  0  0  0  0  0  0
    1.4304   -0.9669    0.0000 C   0  0  0  0  0  0  0  0  0  0  0  0
    1.8429   -1.6814    0.0000 C   0  0  0  0  0  0  0  0  0  0  0  0
    2.6634   -1.7676    0.0000 C   0  0  0  0  0  0  0  0  0  0  0  0
    2.8349   -2.5746    0.0000 C   0  0  0  0  0  0  0  0  0  0  0  0
    2.1204   -2.9871    0.0000 C   0  0  0  0  0  0  0  0  0  0  0  0
    1.5073   -2.4351    0.0000 S   0  0  0  0  0  0  0  0  0  0  0  0
  1  2  1  0
  1  9  1  0
  2  3  1  0
  3  4  1  0
  4  5  1  0
  4  8  2  0
  5  6  1  0
  5  7  2  0
  9  8  1  1
  9 10  1  0
 10 11  1  6
 10 13  1  0
 11 12  2  0
 13 14  1  0
 14 15  2  0
 14 16  1  0
 16 17  1  0
 17 18  2  0
 17 21  1  0
 18 19  1  0
 19 20  2  0
 20 21  1  0
M  END
>  <DRUGBANK_ID>  (1) 
DB04742

>  <COMMON_NAME>  (1) 
(2R)-2-{(1R)-2-oxo-1-[(2-thienylacetyl)amino]ethyl}-5,6-dihydro-2h-1,3-thiazine-4-carboxylic acid

$$$$
