
     RDKit          2D

  9  8  0  0  0  0  0  0  0  0999 V2000
    0.0000   -0.1826    0.0000 C   0  0  0  0  0  0  0  0  0  0  0  0
   -0.7154    0.2283    0.0000 C   0  0  0  0  0  0  0  0  0  0  0  0
    0.7154    0.2283    0.0000 C   0  0  0  0  0  0  0  0  0  0  0  0
   -1.4345   -0.1826    0.0000 C   0  0  0  0  0  0  0  0  0  0  0  0
    1.4345   -0.1826    0.0000 C   0  0  0  0  0  0  0  0  0  0  0  0
   -2.1499    0.2283    0.0000 C   0  0  0  0  0  0  0  0  0  0  0  0
    2.1499    0.2283    0.0000 C   0  0  0  0  0  0  0  0  0  0  0  0
   -2.8653   -0.1826    0.0000 C   0  0  0  0  0  0  0  0  0  0  0  0
    2.8653   -0.1826    0.0000 O   0  0  0  0  0  0  0  0  0  0  0  0
  1  2  1  0
  1  3  1  0
  2  4  1  0
  3  5  1  0
  4  6  1  0
  5  7  1  0
  6  8  1  0
  7  9  1  0
M  END
>  <DRUGBANK_ID>  (1) 
DB12452

>  <COMMON_NAME>  (1) 
Caprylic alcohol

>  <CAS_NUMBER>  (1) 
111-87-5

>  <UNII>  (1) 
NV1779205D

>  <SYNONYMS>  (1) 
1-Octanol

$$$$
