
     RDKit          2D

 26 28  0  0  1  0  0  0  0  0999 V2000
    2.0930    1.6502    0.0000 O   0  0  0  0  0  0  0  0  0  0  0  0
    7.1606    1.9017    0.0000 N   0  0  0  0  0  0  0  0  0  0  0  0
    4.2365    2.0627    0.0000 N   0  0  0  0  0  0  0  0  0  0  0  0
    5.6655    2.0627    0.0000 N   0  0  0  0  0  0  0  0  0  0  0  0
    7.1606    0.5738    0.0000 N   0  0  0  0  0  0  0  0  0  0  0  0
    4.9509    0.8252    0.0000 N   0  0  0  0  0  0  0  0  0  0  0  0
    5.6655   -0.4123    0.0000 N   0  0  0  0  0  0  0  0  0  0  0  0
    7.4169    2.6858    0.0000 C   0  0  0  0  0  0  0  0  0  0  0  0
    3.5220    1.6502    0.0000 C   0  0  0  0  0  0  0  0  0  0  0  0
    6.3799    1.6502    0.0000 C   0  0  0  0  0  0  0  0  0  0  0  0
    6.3799    0.8252    0.0000 C   0  0  0  0  0  0  0  0  0  0  0  0
    3.5220    0.8252    0.0000 C   0  0  0  0  0  0  0  0  0  0  0  0
    5.6655    0.4127    0.0000 C   0  0  0  0  0  0  0  0  0  0  0  0
    4.9509    1.6502    0.0000 C   0  0  0  0  0  0  0  0  0  0  0  0
    7.6421    1.2377    0.0000 C   0  0  0  0  0  0  0  0  0  0  0  0
    8.2242    2.8560    0.0000 C   0  0  0  0  0  0  0  0  0  0  0  0
    6.8659    3.2999    0.0000 C   0  0  0  0  0  0  0  0  0  0  0  0
    2.8075    2.0627    0.0000 C   0  0  0  0  0  0  0  0  0  0  0  0
    2.8075    0.4127    0.0000 C   0  0  0  0  0  0  0  0  0  0  0  0
    4.9509   -0.8249    0.0000 C   0  0  0  0  0  0  0  0  0  0  0  0
    4.9509   -1.6499    0.0000 C   0  0  0  0  0  0  0  0  0  0  0  0
    5.6655   -2.0624    0.0000 C   0  0  0  0  0  0  0  0  0  0  0  0
    4.2365   -2.0624    0.0000 C   0  0  0  0  0  0  0  0  0  0  0  0
    5.6655   -2.8874    0.0000 C   0  0  0  0  0  0  0  0  0  0  0  0
    4.2365   -2.8874    0.0000 C   0  0  0  0  0  0  0  0  0  0  0  0
    4.9509   -3.2999    0.0000 C   0  0  0  0  0  0  0  0  0  0  0  0
  1 18  1  0
  2  8  1  0
  2 10  1  0
  2 15  1  0
  3 14  1  0
  4 10  2  0
  4 14  1  0
  5 11  1  0
  5 15  2  0
  6 13  1  0
  6 14  2  0
  7 13  1  0
  7 20  1  0
  8 16  1  0
  8 17  1  0
  9  3  1  0
  9 12  1  6
  9 18  1  0
 10 11  1  0
 11 13  2  0
 12 19  1  0
 20 21  1  0
 21 22  2  0
 21 23  1  0
 22 24  1  0
 23 25  2  0
 24 26  2  0
 25 26  1  0
M  END
>  <DRUGBANK_ID>  (1) 
DB06195

>  <COMMON_NAME>  (1) 
Seliciclib

>  <CAS_NUMBER>  (1) 
186692-46-6

>  <UNII>  (1) 
0ES1C2KQ94

>  <SYNONYMS>  (1) 
2-(R)-(1-ethyl-2-hydroxyethylamino)-6-benzylamino-9-isopropylpurine; R-roscovitine; Seliciclib

$$$$
