2BE
     RDKit          2D

 22 23  0  0  0  0  0  0  0  0999 V2000
    1.8111    0.1874    0.0000 C   0  0  0  0  0  0  0  0  0  0  0  0
    2.5256   -0.2251    0.0000 C   0  0  0  0  0  0  0  0  0  0  0  0
    2.5256   -1.0501    0.0000 C   0  0  0  0  0  0  0  0  0  0  0  0
    3.2401   -1.4626    0.0000 Cl  0  0  0  0  0  0  0  0  0  0  0  0
    1.8111   -1.4626    0.0000 C   0  0  0  0  0  0  0  0  0  0  0  0
    1.0967   -1.0501    0.0000 C   0  0  0  0  0  0  0  0  0  0  0  0
    1.0967   -0.2251    0.0000 C   0  0  0  0  0  0  0  0  0  0  0  0
    0.3822    0.1874    0.0000 C   0  0  0  0  0  0  0  0  0  0  0  0
    0.3822    1.0124    0.0000 O   0  0  0  0  0  0  0  0  0  0  0  0
   -0.3323   -0.2251    0.0000 N   0  0  0  0  0  0  0  0  0  0  0  0
   -1.0468    0.1874    0.0000 N   0  0  0  0  0  0  0  0  0  0  0  0
   -1.7612   -0.2251    0.0000 C   0  0  0  0  0  0  0  0  0  0  0  0
   -2.4757    0.1874    0.0000 C   0  0  0  0  0  0  0  0  0  0  0  0
   -3.1902   -0.2251    0.0000 C   0  0  0  0  0  0  0  0  0  0  0  0
   -3.9046    0.1874    0.0000 C   0  0  0  0  0  0  0  0  0  0  0  0
   -4.6191   -0.2251    0.0000 Br  0  0  0  0  0  0  0  0  0  0  0  0
   -3.9046    1.0124    0.0000 C   0  0  0  0  0  0  0  0  0  0  0  0
   -4.6191    1.4249    0.0000 O   0  0  0  0  0  0  0  0  0  0  0  0
   -3.1902    1.4249    0.0000 C   0  0  0  0  0  0  0  0  0  0  0  0
   -3.1902    2.2499    0.0000 Br  0  0  0  0  0  0  0  0  0  0  0  0
   -2.4757    1.0124    0.0000 C   0  0  0  0  0  0  0  0  0  0  0  0
   -1.7612    1.4249    0.0000 O   0  0  0  0  0  0  0  0  0  0  0  0
  1  2  2  0
  1  7  1  0
  2  3  1  0
  3  4  1  0
  3  5  2  0
  5  6  1  0
  6  7  2  0
  7  8  1  0
  8  9  2  0
  8 10  1  0
 10 11  1  0
 11 12  2  0
 12 13  1  0
 13 14  2  0
 13 21  1  0
 14 15  1  0
 15 16  1  0
 15 17  2  0
 17 18  1  0
 17 19  1  0
 19 20  1  0
 19 21  2  0
 21 22  1  0
M  END
>  <DRUGBANK_ID>  (1) 
DB06950

>  <COMMON_NAME>  (1) 
4-chloro-N'-[(1E)-(3,5-dibromo-2,4-dihydroxyphenyl)methylidene]benzohydrazide

$$$$
