692
     RDKit          2D

 14 15  0  0  0  0  0  0  0  0999 V2000
    2.0869    0.2528    0.0000 C   0  0  0  0  0  0  0  0  0  0  0  0
    1.3724    0.6653    0.0000 N   0  0  0  0  0  0  0  0  0  0  0  0
    0.6580    0.2528    0.0000 C   0  0  0  0  0  0  0  0  0  0  0  0
   -0.0565    0.6653    0.0000 C   0  0  0  0  0  0  0  0  0  0  0  0
   -0.0565    1.4903    0.0000 C   0  0  0  0  0  0  0  0  0  0  0  0
   -0.7710    1.9028    0.0000 C   0  0  0  0  0  0  0  0  0  0  0  0
   -1.4855    1.4903    0.0000 C   0  0  0  0  0  0  0  0  0  0  0  0
   -1.4855    0.6653    0.0000 C   0  0  0  0  0  0  0  0  0  0  0  0
   -0.7710    0.2528    0.0000 C   0  0  0  0  0  0  0  0  0  0  0  0
   -0.7710   -0.5722    0.0000 C   0  0  0  0  0  0  0  0  0  0  0  0
   -1.4384   -1.0571    0.0000 C   0  0  0  0  0  0  0  0  0  0  0  0
   -1.1835   -1.8418    0.0000 C   0  0  0  0  0  0  0  0  0  0  0  0
   -0.3585   -1.8418    0.0000 C   0  0  0  0  0  0  0  0  0  0  0  0
   -0.1035   -1.0571    0.0000 S   0  0  0  0  0  0  0  0  0  0  0  0
  1  2  1  0
  2  3  1  0
  3  4  1  0
  4  9  2  0
  5  4  1  0
  5  6  2  0
  6  7  1  0
  7  8  2  0
  9  8  1  0
  9 10  1  0
 10 14  1  0
 11 10  2  0
 11 12  1  0
 12 13  2  0
 14 13  1  0
M  END
>  <DRUGBANK_ID>  (1) 
DB07196

>  <COMMON_NAME>  (1) 
N-methyl-1-(2-thiophen-2-ylphenyl)methanamine

>  <UNII>  (1) 
JXK7BCF78O

$$$$
