
     RDKit          2D

  7  6  0  0  0  0  0  0  0  0999 V2000
    0.6124    0.2357    0.0000 C   0  0  0  0  0  0  0  0  0  0  0  0
   -0.1021   -0.1768    0.0000 C   0  0  0  0  0  0  0  0  0  0  0  0
   -0.8165    0.2357    0.0000 C   0  0  0  0  0  0  0  0  0  0  0  0
    1.3269   -0.1768    0.0000 O   0  0  0  0  0  0  0  0  0  0  0  0
    0.6124    1.0607    0.0000 O   0  0  0  0  0  0  0  0  0  0  0  0
   -0.1021   -1.0018    0.0000 N   0  0  0  0  0  0  0  0  0  0  0  0
   -1.5310   -0.1768    0.0000 S   0  0  0  0  0  0  0  0  0  0  0  0
  2  1  1  0
  2  6  1  1
  3  2  1  0
  4  1  1  0
  5  1  2  0
  7  3  1  0
M  END
>  <DRUGBANK_ID>  (1) 
DB00151

>  <SECONDARY_ACCESSION_NUMBERS>  (1) 
NUTR00018; DB04443; DB09485

>  <COMMON_NAME>  (1) 
Cysteine

>  <CAS_NUMBER>  (1) 
52-90-4

>  <UNII>  (1) 
K848JZ4886

>  <SYNONYMS>  (1) 
(2R)-2-amino-3-mercaptopropanoic acid; (2R)-2-amino-3-sulfanylpropanoic acid; (R)-2-Amino-3-mercaptopropanoic acid; Cisteina; Cisteinum; Cys; Cysteine; Cysteinum; Free Cysteine; L-2-Amino-3-mercaptopropionic acid; L-Cys; L-Cystein; L-cysteine; L-Zystein

$$$$
