
     RDKit          2D

 32 36  0  0  0  0  0  0  0  0999 V2000
   -4.7472   -1.6731    0.0000 C   0  0  0  0  0  0  0  0  0  0  0  0
   -4.7472   -0.8365    0.0000 C   0  0  0  0  0  0  0  0  0  0  0  0
   -4.0362   -0.4183    0.0000 C   0  0  0  0  0  0  0  0  0  0  0  0
   -3.2833   -0.8365    0.0000 C   0  0  0  0  0  0  0  0  0  0  0  0
   -3.2833   -1.6731    0.0000 C   0  0  0  0  0  0  0  0  0  0  0  0
   -4.0362   -2.0913    0.0000 C   0  0  0  0  0  0  0  0  0  0  0  0
   -2.5723   -0.4183    0.0000 C   0  0  0  0  0  0  0  0  0  0  0  0
   -1.8612   -0.8365    0.0000 N   0  0  0  0  0  0  0  0  0  0  0  0
   -1.8612   -1.6731    0.0000 N   0  0  0  0  0  0  0  0  0  0  0  0
   -2.5723   -2.0913    0.0000 C   0  0  0  0  0  0  0  0  0  0  0  0
   -2.5723   -2.9278    0.0000 O   0  0  0  0  0  0  0  0  0  0  0  0
   -2.5723    0.4183    0.0000 C   0  0  0  0  0  0  0  0  0  0  0  0
   -1.8612    0.8365    0.0000 C   0  0  0  0  0  0  0  0  0  0  0  0
   -1.8612    1.6731    0.0000 C   0  0  0  0  0  0  0  0  0  0  0  0
   -1.1084    2.0912    0.0000 C   0  0  0  0  0  0  0  0  0  0  0  0
   -0.3973    1.6731    0.0000 C   0  0  0  0  0  0  0  0  0  0  0  0
   -0.3973    0.8365    0.0000 C   0  0  0  0  0  0  0  0  0  0  0  0
   -1.1084    0.4183    0.0000 C   0  0  0  0  0  0  0  0  0  0  0  0
    0.3136    2.0912    0.0000 F   0  0  0  0  0  0  0  0  0  0  0  0
    0.3136    0.4183    0.0000 C   0  0  0  0  0  0  0  0  0  0  0  0
    1.0246    0.8365    0.0000 N   0  0  0  0  0  0  0  0  0  0  0  0
    0.3136   -0.4183    0.0000 O   0  0  0  0  0  0  0  0  0  0  0  0
    1.0246    1.6731    0.0000 C   0  0  0  0  0  0  0  0  0  0  0  0
    1.7775    2.0912    0.0000 C   0  0  0  0  0  0  0  0  0  0  0  0
    2.4885    1.6731    0.0000 N   0  0  0  0  0  0  0  0  0  0  0  0
    2.4885    0.8365    0.0000 C   0  0  0  0  0  0  0  0  0  0  0  0
    1.7775    0.4183    0.0000 C   0  0  0  0  0  0  0  0  0  0  0  0
    3.1996    2.0912    0.0000 C   0  0  0  0  0  0  0  0  0  0  0  0
    3.9106    1.6731    0.0000 C   0  0  0  0  0  0  0  0  0  0  0  0
    3.1996    2.9278    0.0000 O   0  0  0  0  0  0  0  0  0  0  0  0
    4.7472    1.6731    0.0000 C   0  0  0  0  0  0  0  0  0  0  0  0
    4.3289    0.9620    0.0000 C   0  0  0  0  0  0  0  0  0  0  0  0
  1  2  2  0
  1  6  1  0
  2  3  1  0
  3  4  2  0
  4  5  1  0
  4  7  1  0
  5  6  2  0
  5 10  1  0
  7  8  2  0
  7 12  1  0
  8  9  1  0
  9 10  1  0
 10 11  2  0
 12 13  1  0
 13 14  2  0
 13 18  1  0
 14 15  1  0
 15 16  2  0
 16 17  1  0
 16 19  1  0
 17 18  2  0
 17 20  1  0
 20 21  1  0
 20 22  2  0
 21 23  1  0
 21 27  1  0
 23 24  1  0
 24 25  1  0
 25 26  1  0
 25 28  1  0
 26 27  1  0
 28 29  1  0
 28 30  2  0
 29 31  1  0
 31 32  1  0
 32 29  1  0
M  END
>  <DRUGBANK_ID>  (1) 
DB09074

>  <SECONDARY_ACCESSION_NUMBERS>  (1) 
DB05940

>  <COMMON_NAME>  (1) 
Olaparib

>  <CAS_NUMBER>  (1) 
763113-22-0

>  <UNII>  (1) 
WOH1JD9AR8

>  <SYNONYMS>  (1) 
4-(3-{[4-(cyclopropylcarbonyl)piperazin-1-yl]carbonyl}-4-fluorobenzyl)phthalazin-1(2H)-one; Olaparib

$$$$
