N5B
     RDKit          2D

 17 19  0  0  0  0  0  0  0  0999 V2000
    1.1651   -1.2417    0.0000 C   0  0  0  0  0  0  0  0  0  0  0  0
    1.1651   -2.0667    0.0000 C   0  0  0  0  0  0  0  0  0  0  0  0
    0.4977   -0.7568    0.0000 C   0  0  0  0  0  0  0  0  0  0  0  0
    1.8326   -0.7568    0.0000 N   0  0  0  0  0  0  0  0  0  0  0  0
    1.5776   -2.7812    0.0000 C   0  0  0  0  0  0  0  0  0  0  0  0
    0.7526   -2.7812    0.0000 C   0  0  0  0  0  0  0  0  0  0  0  0
    0.7526    0.0278    0.0000 C   0  0  0  0  0  0  0  0  0  0  0  0
    1.5776    0.0278    0.0000 N   0  0  0  0  0  0  0  0  0  0  0  0
    0.2677    0.6953    0.0000 N   0  0  0  0  0  0  0  0  0  0  0  0
   -0.5528    0.6090    0.0000 C   0  0  0  0  0  0  0  0  0  0  0  0
   -1.0377    1.2765    0.0000 C   0  0  0  0  0  0  0  0  0  0  0  0
   -0.8883   -0.1446    0.0000 O   0  0  0  0  0  0  0  0  0  0  0  0
   -1.8582    1.1902    0.0000 C   0  0  0  0  0  0  0  0  0  0  0  0
   -0.7021    2.0302    0.0000 C   0  0  0  0  0  0  0  0  0  0  0  0
   -2.3431    1.8577    0.0000 C   0  0  0  0  0  0  0  0  0  0  0  0
   -1.1871    2.6976    0.0000 C   0  0  0  0  0  0  0  0  0  0  0  0
   -2.0075    2.6114    0.0000 C   0  0  0  0  0  0  0  0  0  0  0  0
  1  2  1  0
  1  3  1  0
  1  4  2  0
  2  5  1  0
  2  6  1  0
  3  7  2  0
  4  8  1  0
  5  6  1  0
  7  8  1  0
  7  9  1  0
  9 10  1  0
 10 11  1  0
 10 12  2  0
 11 13  2  0
 11 14  1  0
 13 15  1  0
 14 16  2  0
 15 17  2  0
 16 17  1  0
M  END
>  <DRUGBANK_ID>  (1) 
DB02647

>  <SECONDARY_ACCESSION_NUMBERS>  (1) 
EXPT02278

>  <COMMON_NAME>  (1) 
N-(5-Cyclopropyl-1h-Pyrazol-3-Yl)Benzamide

$$$$
