
     RDKit          2D

 37 40  0  0  1  0  0  0  0  0999 V2000
    2.9646    8.0652    0.0000 C   0  0  0  0  0  0  0  0  0  0  0  0
    2.9646    7.2402    0.0000 C   0  0  0  0  0  0  0  0  0  0  0  0
    3.6791    6.8277    0.0000 C   0  0  0  0  0  0  0  0  0  0  0  0
    4.3935    7.2402    0.0000 O   0  0  0  0  0  0  0  0  0  0  0  0
    2.2501    6.8277    0.0000 N   0  0  0  0  0  0  0  0  0  0  0  0
    1.5356    7.2402    0.0000 C   0  0  0  0  0  0  0  0  0  0  0  0
    0.8212    6.8277    0.0000 C   0  0  0  0  0  0  0  0  0  0  0  0
    0.1067    7.2402    0.0000 C   0  0  0  0  0  0  0  0  0  0  0  0
    0.1067    8.0652    0.0000 C   0  0  0  0  0  0  0  0  0  0  0  0
    0.8212    8.4777    0.0000 C   0  0  0  0  0  0  0  0  0  0  0  0
    1.5356    8.0652    0.0000 N   0  0  0  0  0  0  0  0  0  0  0  0
    0.8212    9.3027    0.0000 N   0  0  0  0  0  0  0  0  0  0  0  0
    0.1067    9.7152    0.0000 C   0  0  0  0  0  0  0  0  0  0  0  0
    0.1067   10.5402    0.0000 C   0  0  0  0  0  0  0  0  0  0  0  0
    0.8212   10.9527    0.0000 O   0  0  0  0  0  0  0  0  0  0  0  0
    1.5356   10.5402    0.0000 C   0  0  0  0  0  0  0  0  0  0  0  0
    1.5356    9.7152    0.0000 C   0  0  0  0  0  0  0  0  0  0  0  0
   -0.6078    6.8277    0.0000 C   0  0  0  0  0  0  0  0  0  0  0  0
   -0.6078    6.0027    0.0000 C   0  0  0  0  0  0  0  0  0  0  0  0
   -1.3222    5.5902    0.0000 C   0  0  0  0  0  0  0  0  0  0  0  0
   -1.3222    4.7652    0.0000 N   0  0  0  0  0  0  0  0  0  0  0  0
   -2.0367    4.3527    0.0000 C   0  0  0  0  0  0  0  0  0  0  0  0
   -2.7512    4.7652    0.0000 O   0  0  0  0  0  0  0  0  0  0  0  0
   -2.0367    3.5277    0.0000 N   0  0  0  0  0  0  0  0  0  0  0  0
   -1.3693    3.0428    0.0000 C   0  0  0  0  0  0  0  0  0  0  0  0
   -1.6242    2.2581    0.0000 C   0  0  0  0  0  0  0  0  0  0  0  0
   -2.4492    2.2581    0.0000 C   0  0  0  0  0  0  0  0  0  0  0  0
   -2.9341    1.5907    0.0000 C   0  0  0  0  0  0  0  0  0  0  0  0
   -2.5986    0.8370    0.0000 C   0  0  0  0  0  0  0  0  0  0  0  0
   -2.2630    0.0833    0.0000 F   0  0  0  0  0  0  0  0  0  0  0  0
   -3.3522    0.5015    0.0000 F   0  0  0  0  0  0  0  0  0  0  0  0
   -1.8449    1.1726    0.0000 F   0  0  0  0  0  0  0  0  0  0  0  0
   -2.7041    3.0428    0.0000 C   0  0  0  0  0  0  0  0  0  0  0  0
   -2.0367    6.0027    0.0000 C   0  0  0  0  0  0  0  0  0  0  0  0
   -2.0367    6.8277    0.0000 C   0  0  0  0  0  0  0  0  0  0  0  0
   -1.3222    7.2402    0.0000 C   0  0  0  0  0  0  0  0  0  0  0  0
   -1.3222    8.0652    0.0000 C   0  0  0  0  0  0  0  0  0  0  0  0
  2  1  1  6
  2  3  1  0
  2  5  1  0
  3  4  1  0
  5  6  1  0
  6  7  2  0
  6 11  1  0
  7  8  1  0
  8  9  2  0
  8 18  1  0
  9 10  1  0
 10 11  2  0
 10 12  1  0
 12 13  1  0
 12 17  1  0
 13 14  1  0
 14 15  1  0
 15 16  1  0
 16 17  1  0
 18 19  2  0
 18 36  1  0
 19 20  1  0
 20 21  1  0
 20 34  2  0
 21 22  1  0
 22 23  2  0
 22 24  1  0
 24 25  1  0
 24 33  1  0
 25 26  1  0
 27 26  1  0
 27 28  1  1
 27 33  1  0
 28 29  1  0
 29 30  1  0
 29 31  1  0
 29 32  1  0
 34 35  1  0
 35 36  2  0
 36 37  1  0
M  END
>  <DRUGBANK_ID>  (1) 
DB17582

>  <COMMON_NAME>  (1) 
Exarafenib

>  <CAS_NUMBER>  (1) 
2639957-39-2

>  <UNII>  (1) 
2VPX8HL8AB

>  <SYNONYMS>  (1) 
KIN-2787 free base

$$$$
