
     RDKit          2D

  8  7  0  0  0  0  0  0  0  0999 V2000
   -1.1270   -1.6501    0.0000 Cl  0  0  0  0  0  0  0  0  0  0  0  0
   -0.4125   -1.2376    0.0000 N   0  0  0  0  0  0  0  0  0  0  0  0
   -0.4125   -0.4125    0.0000 C   0  0  0  0  0  0  0  0  0  0  0  0
    0.3019    0.0000    0.0000 C   0  0  0  0  0  0  0  0  0  0  0  0
    0.3019    0.8251    0.0000 S   0  0  0  0  0  0  0  0  0  0  0  0
    0.3019    1.6501    0.0000 O   0  0  0  0  0  0  0  0  0  0  0  0
    1.1270    0.8251    0.0000 O   0  0  0  0  0  0  0  0  0  0  0  0
   -0.5230    0.8251    0.0000 O   0  0  0  0  0  0  0  0  0  0  0  0
  1  2  1  0
  2  3  1  0
  3  4  1  0
  4  5  1  0
  5  6  1  0
  5  7  2  0
  5  8  2  0
M  END
>  <DRUGBANK_ID>  (1) 
DB06633

>  <COMMON_NAME>  (1) 
N-chlorotaurine

>  <CAS_NUMBER>  (1) 
51036-13-6

>  <SYNONYMS>  (1) 
N-chlorotaurine; N-monochlorotaurine; NCT; Taurine chloramine; Taurine monochloramine; Taurochloramine

$$$$
