
     RDKit          2D

 25 27  0  0  0  0  0  0  0  0999 V2000
   -3.6575   -2.1199    0.0000 O   0  0  0  0  0  0  0  0  0  0  0  0
   -4.4422   -1.8650    0.0000 N   0  0  0  0  0  0  0  0  0  0  0  0
   -4.4422   -1.0400    0.0000 C   0  0  0  0  0  0  0  0  0  0  0  0
   -3.6575   -0.7851    0.0000 C   0  0  0  0  0  0  0  0  0  0  0  0
   -3.1725   -1.4525    0.0000 C   0  0  0  0  0  0  0  0  0  0  0  0
   -5.1096   -0.5550    0.0000 C   0  0  0  0  0  0  0  0  0  0  0  0
   -2.3476   -1.4525    0.0000 C   0  0  0  0  0  0  0  0  0  0  0  0
   -1.9350   -0.7380    0.0000 C   0  0  0  0  0  0  0  0  0  0  0  0
   -1.1100   -0.7380    0.0000 C   0  0  0  0  0  0  0  0  0  0  0  0
   -0.6975   -0.0235    0.0000 C   0  0  0  0  0  0  0  0  0  0  0  0
    0.1274   -0.0235    0.0000 C   0  0  0  0  0  0  0  0  0  0  0  0
    0.5399    0.6909    0.0000 O   0  0  0  0  0  0  0  0  0  0  0  0
    1.3650    0.6909    0.0000 C   0  0  0  0  0  0  0  0  0  0  0  0
    1.7775    1.4054    0.0000 C   0  0  0  0  0  0  0  0  0  0  0  0
    2.6025    1.4054    0.0000 C   0  0  0  0  0  0  0  0  0  0  0  0
    3.0150    0.6909    0.0000 C   0  0  0  0  0  0  0  0  0  0  0  0
    2.6025   -0.0235    0.0000 C   0  0  0  0  0  0  0  0  0  0  0  0
    1.7775   -0.0235    0.0000 C   0  0  0  0  0  0  0  0  0  0  0  0
    4.3249    0.0235    0.0000 O   0  0  0  0  0  0  0  0  0  0  0  0
    3.8401    0.6909    0.0000 C   0  0  0  0  0  0  0  0  0  0  0  0
    4.3249    1.3584    0.0000 N   0  0  0  0  0  0  0  0  0  0  0  0
    5.1096    1.1034    0.0000 C   0  0  0  0  0  0  0  0  0  0  0  0
    5.1096    0.2784    0.0000 C   0  0  0  0  0  0  0  0  0  0  0  0
    1.3650   -0.7380    0.0000 Cl  0  0  0  0  0  0  0  0  0  0  0  0
    1.3650    2.1199    0.0000 Cl  0  0  0  0  0  0  0  0  0  0  0  0
  1  2  1  0
  1  5  1  0
  2  3  2  0
  3  4  1  0
  3  6  1  0
  4  5  2  0
  5  7  1  0
  7  8  1  0
  8  9  1  0
  9 10  1  0
 10 11  1  0
 11 12  1  0
 12 13  1  0
 13 14  2  0
 13 18  1  0
 14 15  1  0
 14 25  1  0
 15 16  2  0
 16 17  1  0
 16 20  1  0
 17 18  2  0
 18 24  1  0
 19 20  1  0
 19 23  1  0
 20 21  2  0
 21 22  1  0
 22 23  1  0
M  END
>  <DRUGBANK_ID>  (1) 
DB08723

>  <COMMON_NAME>  (1) 
WIN-54954

>  <CAS_NUMBER>  (1) 
107355-45-3

>  <UNII>  (1) 
IY9RJD7JGI

$$$$
