
     RDKit          2D

 28 30  0  0  0  0  0  0  0  0999 V2000
    8.1150   -7.7359    0.0000 O   0  0  0  0  0  0  0  0  0  0  0  0
    8.8295   -8.1484    0.0000 C   0  0  0  0  0  0  0  0  0  0  0  0
    9.5440   -7.7359    0.0000 C   0  0  0  0  0  0  0  0  0  0  0  0
   10.2584   -8.1484    0.0000 O   0  0  0  0  0  0  0  0  0  0  0  0
   10.9729   -7.7359    0.0000 C   0  0  0  0  0  0  0  0  0  0  0  0
   11.6874   -8.1484    0.0000 C   0  0  0  0  0  0  0  0  0  0  0  0
   12.4019   -7.7359    0.0000 O   0  0  0  0  0  0  0  0  0  0  0  0
   13.1163   -8.1484    0.0000 C   0  0  0  0  0  0  0  0  0  0  0  0
   13.8308   -7.7359    0.0000 C   0  0  0  0  0  0  0  0  0  0  0  0
   14.5453   -8.1484    0.0000 O   0  0  0  0  0  0  0  0  0  0  0  0
   15.2597   -7.7359    0.0000 C   0  0  0  0  0  0  0  0  0  0  0  0
   15.9742   -8.1484    0.0000 C   0  0  0  0  0  0  0  0  0  0  0  0
   16.6887   -7.7359    0.0000 O   0  0  0  0  0  0  0  0  0  0  0  0
   17.4032   -8.1484    0.0000 C   0  0  0  0  0  0  0  0  0  0  0  0
   18.1176   -7.7359    0.0000 C   0  0  0  0  0  0  0  0  0  0  0  0
   18.8321   -8.1484    0.0000 C   0  0  0  0  0  0  0  0  0  0  0  0
   18.8321   -8.9734    0.0000 C   0  0  0  0  0  0  0  0  0  0  0  0
   18.1176   -9.3859    0.0000 C   0  0  0  0  0  0  0  0  0  0  0  0
   17.4032   -8.9734    0.0000 C   0  0  0  0  0  0  0  0  0  0  0  0
   19.5466   -9.3859    0.0000 C   0  0  0  0  0  0  0  0  0  0  0  0
   20.3002   -9.0504    0.0000 N   0  0  0  0  0  0  0  0  0  0  0  0
   20.8523   -9.6635    0.0000 C   0  0  0  0  0  0  0  0  0  0  0  0
   21.6773   -9.6635    0.0000 C   0  0  0  0  0  0  0  0  0  0  0  0
   22.0898  -10.3780    0.0000 C   0  0  0  0  0  0  0  0  0  0  0  0
   21.6773  -11.0924    0.0000 C   0  0  0  0  0  0  0  0  0  0  0  0
   20.8523  -11.0924    0.0000 C   0  0  0  0  0  0  0  0  0  0  0  0
   20.4398  -10.3780    0.0000 C   0  0  0  0  0  0  0  0  0  0  0  0
   19.6328  -10.2064    0.0000 S   0  0  0  0  0  0  0  0  0  0  0  0
  1  2  1  0
  2  3  1  0
  3  4  1  0
  4  5  1  0
  5  6  1  0
  6  7  1  0
  7  8  1  0
  8  9  1  0
  9 10  1  0
 10 11  1  0
 11 12  1  0
 12 13  1  0
 13 14  1  0
 14 15  2  0
 14 19  1  0
 15 16  1  0
 16 17  2  0
 17 18  1  0
 17 20  1  0
 18 19  2  0
 20 21  2  0
 20 28  1  0
 21 22  1  0
 22 23  2  0
 22 27  1  0
 23 24  1  0
 24 25  2  0
 25 26  1  0
 26 27  2  0
 27 28  1  0
M  END
>  <DRUGBANK_ID>  (1) 
DB18103

>  <COMMON_NAME>  (1) 
SPG302

>  <CAS_NUMBER>  (1) 
2274723-90-7

>  <UNII>  (1) 
CMJ4GT6MRD

>  <SYNONYMS>  (1) 
2-(2-(2-(2-(4-benzothiazol-2-y1-phenoxy)-ethoxy)-ethoxy)-ethoxy)-ethanol; Ethanol, 2-(2-(2-(2-(4-(2-benzothiazolyl)phenoxy)ethoxy)ethoxy)ethoxy)-

$$$$
