
     RDKit          2D

 18 19  0  0  0  0  0  0  0  0999 V2000
    1.0716    1.0312    0.0000 O   0  0  0  0  0  0  0  0  0  0  0  0
    0.3572   -0.2062    0.0000 N   0  0  0  0  0  0  0  0  0  0  0  0
   -0.3572    0.2062    0.0000 N   0  0  0  0  0  0  0  0  0  0  0  0
    1.7861   -0.2062    0.0000 C   0  0  0  0  0  0  0  0  0  0  0  0
    1.0716    0.2062    0.0000 C   0  0  0  0  0  0  0  0  0  0  0  0
   -1.7861    0.2062    0.0000 C   0  0  0  0  0  0  0  0  0  0  0  0
   -1.0717   -0.2062    0.0000 C   0  0  0  0  0  0  0  0  0  0  0  0
    2.5006    0.2062    0.0000 C   0  0  0  0  0  0  0  0  0  0  0  0
    1.7861   -1.0312    0.0000 C   0  0  0  0  0  0  0  0  0  0  0  0
   -2.5006   -0.2062    0.0000 C   0  0  0  0  0  0  0  0  0  0  0  0
   -1.7861    1.0312    0.0000 C   0  0  0  0  0  0  0  0  0  0  0  0
    3.2151   -0.2062    0.0000 C   0  0  0  0  0  0  0  0  0  0  0  0
    2.5006   -1.4437    0.0000 C   0  0  0  0  0  0  0  0  0  0  0  0
   -3.2151    0.2062    0.0000 C   0  0  0  0  0  0  0  0  0  0  0  0
   -2.5006    1.4437    0.0000 C   0  0  0  0  0  0  0  0  0  0  0  0
    3.2151   -1.0312    0.0000 C   0  0  0  0  0  0  0  0  0  0  0  0
   -1.0717   -1.0312    0.0000 C   0  0  0  0  0  0  0  0  0  0  0  0
   -3.2151    1.0312    0.0000 C   0  0  0  0  0  0  0  0  0  0  0  0
  1  5  2  0
  2  3  1  0
  2  5  1  0
  3  7  1  0
  4  5  1  0
  4  8  2  0
  4  9  1  0
  6  7  1  0
  6 10  2  0
  6 11  1  0
  7 17  1  0
  8 12  1  0
  9 13  2  0
 10 14  1  0
 11 15  2  0
 12 16  2  0
 13 16  1  0
 14 18  2  0
 15 18  1  0
M  END
>  <DRUGBANK_ID>  (1) 
DB09246

>  <COMMON_NAME>  (1) 
Benmoxin

>  <CAS_NUMBER>  (1) 
7654-03-7

>  <UNII>  (1) 
XC9FY2SGBG

>  <SYNONYMS>  (1) 
Benmoxin; Mebamoxine

$$$$
