580
     RDKit          2D

 22 25  0  0  0  0  0  0  0  0999 V2000
    0.5974   -0.0950    0.0000 C   0  0  0  0  0  0  0  0  0  0  0  0
    0.1125   -0.7624    0.0000 C   0  0  0  0  0  0  0  0  0  0  0  0
    0.5974   -1.4299    0.0000 N   0  0  0  0  0  0  0  0  0  0  0  0
    1.3820   -1.1749    0.0000 N   0  0  0  0  0  0  0  0  0  0  0  0
    1.3820   -0.3499    0.0000 C   0  0  0  0  0  0  0  0  0  0  0  0
    2.1666   -1.4299    0.0000 C   0  0  0  0  0  0  0  0  0  0  0  0
    2.6516   -0.7624    0.0000 C   0  0  0  0  0  0  0  0  0  0  0  0
    2.1666   -0.0950    0.0000 C   0  0  0  0  0  0  0  0  0  0  0  0
   -0.7125   -0.7624    0.0000 C   0  0  0  0  0  0  0  0  0  0  0  0
    0.3424    0.6896    0.0000 C   0  0  0  0  0  0  0  0  0  0  0  0
   -0.4645    0.8611    0.0000 C   0  0  0  0  0  0  0  0  0  0  0  0
   -0.7195    1.6458    0.0000 C   0  0  0  0  0  0  0  0  0  0  0  0
   -0.1674    2.2589    0.0000 C   0  0  0  0  0  0  0  0  0  0  0  0
    0.6395    2.0873    0.0000 C   0  0  0  0  0  0  0  0  0  0  0  0
    0.8945    1.3027    0.0000 C   0  0  0  0  0  0  0  0  0  0  0  0
   -1.1250   -1.4769    0.0000 C   0  0  0  0  0  0  0  0  0  0  0  0
   -1.9500   -1.4769    0.0000 C   0  0  0  0  0  0  0  0  0  0  0  0
   -2.3625   -0.7624    0.0000 C   0  0  0  0  0  0  0  0  0  0  0  0
   -1.9500   -0.0480    0.0000 C   0  0  0  0  0  0  0  0  0  0  0  0
   -1.1250   -0.0480    0.0000 N   0  0  0  0  0  0  0  0  0  0  0  0
   -0.4224    3.0435    0.0000 F   0  0  0  0  0  0  0  0  0  0  0  0
   -2.3625    0.6665    0.0000 C   0  0  0  0  0  0  0  0  0  0  0  0
  1  2  1  0
  1  5  2  0
  1 10  1  0
  2  3  2  0
  2  9  1  0
  3  4  1  0
  4  5  1  0
  4  6  1  0
  5  8  1  0
  6  7  1  0
  7  8  1  0
  9 16  2  0
  9 20  1  0
 10 11  2  0
 10 15  1  0
 11 12  1  0
 12 13  2  0
 13 14  1  0
 13 21  1  0
 14 15  2  0
 16 17  1  0
 17 18  2  0
 18 19  1  0
 19 20  2  0
 19 22  1  0
M  END
>  <DRUGBANK_ID>  (1) 
DB04480

>  <SECONDARY_ACCESSION_NUMBERS>  (1) 
EXPT00236

>  <COMMON_NAME>  (1) 
3-(4-Fluorophenyl)-2-(6-Methylpyridin-2-Yl)-5,6-Dihydro-4h-Pyrrolo[1,2-B]Pyrazole

$$$$
