
     RDKit          2D

 30 33  0  0  0  0  0  0  0  0999 V2000
   -1.8820    0.7032    0.0000 F   0  0  0  0  0  0  0  0  0  0  0  0
    1.0390    1.1591    0.0000 O   0  0  0  0  0  0  0  0  0  0  0  0
   -1.6017    1.4791    0.0000 O   0  0  0  0  0  0  0  0  0  0  0  0
    2.1910    1.2573    0.0000 O   0  0  0  0  0  0  0  0  0  0  0  0
    3.2546   -0.0039    0.0000 O   0  0  0  0  0  0  0  0  0  0  0  0
   -4.5986   -0.5083    0.0000 O   0  0  0  0  0  0  0  0  0  0  0  0
    4.5986   -0.4894    0.0000 O   0  0  0  0  0  0  0  0  0  0  0  0
   -1.3501    0.0726    0.0000 C   0  0  0  0  0  0  0  0  0  0  0  0
    0.2740    0.3630    0.0000 C   0  0  0  0  0  0  0  0  0  0  0  0
   -0.8183   -0.5581    0.0000 C   0  0  0  0  0  0  0  0  0  0  0  0
   -0.0062   -0.4129    0.0000 C   0  0  0  0  0  0  0  0  0  0  0  0
   -2.1623   -0.0726    0.0000 C   0  0  0  0  0  0  0  0  0  0  0  0
    1.0986    0.3362    0.0000 C   0  0  0  0  0  0  0  0  0  0  0  0
   -1.0698    0.8485    0.0000 C   0  0  0  0  0  0  0  0  0  0  0  0
   -0.2577    0.9937    0.0000 C   0  0  0  0  0  0  0  0  0  0  0  0
   -2.4426   -0.8485    0.0000 C   0  0  0  0  0  0  0  0  0  0  0  0
    0.6450   -0.9191    0.0000 C   0  0  0  0  0  0  0  0  0  0  0  0
    1.3279   -0.4563    0.0000 C   0  0  0  0  0  0  0  0  0  0  0  0
   -1.0986   -1.3339    0.0000 C   0  0  0  0  0  0  0  0  0  0  0  0
    1.9107    0.4814    0.0000 C   0  0  0  0  0  0  0  0  0  0  0  0
   -2.6941    0.5580    0.0000 C   0  0  0  0  0  0  0  0  0  0  0  0
   -1.9107   -1.4791    0.0000 C   0  0  0  0  0  0  0  0  0  0  0  0
    0.6339    1.1054    0.0000 C   0  0  0  0  0  0  0  0  0  0  0  0
   -2.3916    0.7199    0.0000 C   0  0  0  0  0  0  0  0  0  0  0  0
   -3.2547   -0.9937    0.0000 C   0  0  0  0  0  0  0  0  0  0  0  0
   -3.5062    0.4129    0.0000 C   0  0  0  0  0  0  0  0  0  0  0  0
   -3.7865   -0.3630    0.0000 C   0  0  0  0  0  0  0  0  0  0  0  0
    2.4425   -0.1492    0.0000 C   0  0  0  0  0  0  0  0  0  0  0  0
    3.7864   -0.6348    0.0000 C   0  0  0  0  0  0  0  0  0  0  0  0
    3.5061   -1.4107    0.0000 C   0  0  0  0  0  0  0  0  0  0  0  0
  4 20  2  0
  5 28  1  0
  5 29  1  0
  6 27  2  0
  7 29  2  0
  8  1  1  6
  8 10  1  0
  8 12  1  0
  8 14  1  0
  9 11  1  0
  9 13  1  0
  9 15  1  0
  9 23  1  1
 10 11  1  0
 10 19  1  6
 11 17  1  1
 12 16  1  0
 12 21  1  0
 12 24  1  1
 13  2  1  6
 13 18  1  0
 13 20  1  0
 14  3  1  1
 14 15  1  0
 16 22  1  0
 16 25  2  0
 17 18  1  0
 19 22  1  0
 20 28  1  0
 21 26  2  0
 25 27  1  0
 26 27  1  0
 29 30  1  0
M  END
>  <DRUGBANK_ID>  (1) 
DB14640

>  <SECONDARY_ACCESSION_NUMBERS>  (1) 
DBSALT001685

>  <COMMON_NAME>  (1) 
Isoflupredone acetate

>  <CAS_NUMBER>  (1) 
338-98-7

>  <UNII>  (1) 
55P9TUL75S

>  <SYNONYMS>  (1) 
Isoflupredone 21-acetate; Isoflupredone acetate

$$$$
