
     RDKit          2D

 24 25  0  0  0  0  0  0  0  0999 V2000
   -0.0000    9.6536    0.0000 C   0  0  0  0  0  0  0  0  0  0  0  0
   -0.0000    8.8286    0.0000 N   0  0  0  0  0  0  0  0  0  0  0  0
   -0.7145    8.4161    0.0000 C   0  0  0  0  0  0  0  0  0  0  0  0
    0.7145    8.4161    0.0000 C   0  0  0  0  0  0  0  0  0  0  0  0
    0.7145    7.5911    0.0000 C   0  0  0  0  0  0  0  0  0  0  0  0
    1.4289    7.1786    0.0000 C   0  0  0  0  0  0  0  0  0  0  0  0
    1.4289    6.3536    0.0000 C   0  0  0  0  0  0  0  0  0  0  0  0
    0.7145    5.9411    0.0000 C   0  0  0  0  0  0  0  0  0  0  0  0
   -0.0000    6.3536    0.0000 C   0  0  0  0  0  0  0  0  0  0  0  0
   -0.0000    7.1786    0.0000 C   0  0  0  0  0  0  0  0  0  0  0  0
    0.7145    5.1161    0.0000 S   0  0  0  0  0  0  0  0  0  0  0  0
   -0.1105    5.1161    0.0000 O   0  0  0  0  0  0  0  0  0  0  0  0
    1.5395    5.1161    0.0000 O   0  0  0  0  0  0  0  0  0  0  0  0
    0.7145    4.2911    0.0000 N   0  0  0  0  0  0  0  0  0  0  0  0
    1.3819    3.8062    0.0000 C   0  0  0  0  0  0  0  0  0  0  0  0
    1.1270    3.0215    0.0000 C   0  0  0  0  0  0  0  0  0  0  0  0
    0.3020    3.0215    0.0000 C   0  0  0  0  0  0  0  0  0  0  0  0
    0.0470    3.8062    0.0000 C   0  0  0  0  0  0  0  0  0  0  0  0
   -0.1830    2.3541    0.0000 C   0  0  0  0  0  0  0  0  0  0  0  0
   -1.0034    2.4403    0.0000 C   0  0  0  0  0  0  0  0  0  0  0  0
   -1.4884    1.7729    0.0000 C   0  0  0  0  0  0  0  0  0  0  0  0
   -1.1528    1.0192    0.0000 O   0  0  0  0  0  0  0  0  0  0  0  0
   -2.3088    1.8591    0.0000 N   0  0  0  0  0  0  0  0  0  0  0  0
   -2.7938    1.1917    0.0000 O   0  0  0  0  0  0  0  0  0  0  0  0
  1  2  1  0
  2  3  1  0
  2  4  1  0
  4  5  1  0
  5  6  2  0
  5 10  1  0
  6  7  1  0
  7  8  2  0
  8  9  1  0
  8 11  1  0
  9 10  2  0
 11 12  2  0
 11 13  2  0
 11 14  1  0
 14 15  1  0
 14 18  1  0
 15 16  2  0
 16 17  1  0
 17 18  2  0
 17 19  1  0
 19 20  2  0
 20 21  1  0
 21 22  2  0
 21 23  1  0
 23 24  1  0
M  END
>  <DRUGBANK_ID>  (1) 
DB12392

>  <COMMON_NAME>  (1) 
Resminostat

>  <CAS_NUMBER>  (1) 
864814-88-0

>  <UNII>  (1) 
1578EUB98L

>  <SYNONYMS>  (1) 
Resminostat

$$$$
