TRL
     RDKit          2D

 29 29  0  0  0  0  0  0  0  0999 V2000
   -2.7903    0.5858    0.0000 O   0  0  0  0  0  0  0  0  0  0  0  0
   -2.0057    0.3309    0.0000 C   0  0  0  0  0  0  0  0  0  0  0  0
   -1.8342   -0.4761    0.0000 C   0  0  0  0  0  0  0  0  0  0  0  0
   -2.4473   -1.0282    0.0000 C   0  0  0  0  0  0  0  0  0  0  0  0
   -3.2319   -0.7732    0.0000 C   0  0  0  0  0  0  0  0  0  0  0  0
   -1.0496   -0.7311    0.0000 C   0  0  0  0  0  0  0  0  0  0  0  0
   -0.3821   -0.2461    0.0000 N   0  0  0  0  0  0  0  0  0  0  0  0
    0.2853   -0.7311    0.0000 C   0  0  0  0  0  0  0  0  0  0  0  0
    0.0304   -1.5157    0.0000 C   0  0  0  0  0  0  0  0  0  0  0  0
   -0.7946   -1.5157    0.0000 C   0  0  0  0  0  0  0  0  0  0  0  0
   -1.2795   -2.1831    0.0000 N   0  0  0  0  0  0  0  0  0  0  0  0
   -0.9440   -2.9368    0.0000 S   0  0  0  0  0  0  0  0  0  0  0  0
   -0.6084   -3.6905    0.0000 O   0  0  0  0  0  0  0  0  0  0  0  0
   -0.1903   -2.6012    0.0000 O   0  0  0  0  0  0  0  0  0  0  0  0
   -1.6977   -3.2724    0.0000 C   0  0  0  0  0  0  0  0  0  0  0  0
   -0.3821    0.5789    0.0000 C   0  0  0  0  0  0  0  0  0  0  0  0
   -1.0966    0.9914    0.0000 O   0  0  0  0  0  0  0  0  0  0  0  0
    0.3324    0.9914    0.0000 C   0  0  0  0  0  0  0  0  0  0  0  0
    0.3324    1.8164    0.0000 C   0  0  0  0  0  0  0  0  0  0  0  0
   -0.3821    2.2289    0.0000 C   0  0  0  0  0  0  0  0  0  0  0  0
    1.0468    2.2289    0.0000 C   0  0  0  0  0  0  0  0  0  0  0  0
    1.0468    0.5789    0.0000 N   0  0  0  0  0  0  0  0  0  0  0  0
    1.7613    0.9914    0.0000 C   0  0  0  0  0  0  0  0  0  0  0  0
    1.7613    1.8164    0.0000 O   0  0  0  0  0  0  0  0  0  0  0  0
    2.4758    0.5789    0.0000 O   0  0  0  0  0  0  0  0  0  0  0  0
    3.1902    0.9914    0.0000 C   0  0  0  0  0  0  0  0  0  0  0  0
    3.9047    1.4039    0.0000 C   0  0  0  0  0  0  0  0  0  0  0  0
    3.6027    0.2769    0.0000 C   0  0  0  0  0  0  0  0  0  0  0  0
    2.7777    1.7058    0.0000 C   0  0  0  0  0  0  0  0  0  0  0  0
  1  2  2  0
  3  2  1  6
  3  4  1  0
  4  5  1  0
  6  3  1  0
  6  7  1  1
  6 10  1  0
  7  8  1  0
  7 16  1  0
  8  9  1  0
  9 10  1  0
 10 11  1  6
 11 12  1  0
 12 13  2  0
 12 14  2  0
 12 15  1  0
 16 17  2  0
 16 18  1  0
 18 19  1  0
 18 22  1  6
 19 20  1  0
 19 21  1  0
 22 23  1  0
 23 24  2  0
 23 25  1  0
 25 26  1  0
 26 27  1  0
 26 28  1  0
 26 29  1  0
M  END
>  <DRUGBANK_ID>  (1) 
DB08644

>  <COMMON_NAME>  (1) 
{1-[2-(1-FORMYL-PROPYL)-3-METHANESULFONYLAMINO-PYRROLIDINE-1-CARBONYL]-2-METHYL-PROPYL}-CARBAMIC ACID TERT-BUTYL ESTER

$$$$
