
     RDKit          2D

 12 12  0  0  0  0  0  0  0  0999 V2000
    3.6020    1.1118    0.0000 N   0  0  0  0  0  0  0  0  0  0  0  0
    2.4751   -0.8403    0.0000 C   0  0  0  0  0  0  0  0  0  0  0  0
    3.9041   -0.8403    0.0000 C   0  0  0  0  0  0  0  0  0  0  0  0
    3.1895    0.3972    0.0000 C   0  0  0  0  0  0  0  0  0  0  0  0
    3.1895   -1.2528    0.0000 C   0  0  0  0  0  0  0  0  0  0  0  0
    2.4751   -0.0153    0.0000 C   0  0  0  0  0  0  0  0  0  0  0  0
    3.9041   -0.0153    0.0000 C   0  0  0  0  0  0  0  0  0  0  0  0
    2.0625   -1.5547    0.0000 C   0  0  0  0  0  0  0  0  0  0  0  0
    1.6500   -0.8403    0.0000 C   0  0  0  0  0  0  0  0  0  0  0  0
    4.3166   -1.5547    0.0000 C   0  0  0  0  0  0  0  0  0  0  0  0
    4.7291   -0.8403    0.0000 C   0  0  0  0  0  0  0  0  0  0  0  0
    2.7770    1.1118    0.0000 C   0  0  0  0  0  0  0  0  0  0  0  0
  1  4  1  0
  2  5  1  0
  2  6  1  0
  2  8  1  0
  2  9  1  0
  3  5  1  0
  3  7  1  0
  3 10  1  0
  3 11  1  0
  4  6  1  0
  4  7  1  0
  4 12  1  0
M  END
>  <DRUGBANK_ID>  (1) 
DB04926

>  <COMMON_NAME>  (1) 
Neramexane

>  <CAS_NUMBER>  (1) 
219810-59-0

>  <UNII>  (1) 
856DX0KJ84

>  <SYNONYMS>  (1) 
Neramexane

$$$$
