
     RDKit          2D

 37 40  0  0  1  0  0  0  0  0999 V2000
   12.3382   -8.0488    0.0000 C   0  0  0  0  0  0  0  0  0  0  0  0
    9.4842   -8.0571    0.0000 C   0  0  0  0  0  0  0  0  0  0  0  0
   11.6322   -8.4687    0.0000 C   0  0  0  0  0  0  0  0  0  0  0  0
   10.2071   -8.4690    0.0000 C   0  0  0  0  0  0  0  0  0  0  0  0
   10.9175   -8.0564    0.0000 C   0  0  0  0  0  0  0  0  0  0  0  0
   13.0570   -8.4537    0.0000 N   0  0  0  0  0  0  0  0  0  0  0  0
   15.8854   -6.7615    0.0000 C   0  0  0  0  0  0  0  0  0  0  0  0
    8.7824   -8.4819    0.0000 O   0  0  0  0  0  0  0  0  0  0  0  0
    8.0591   -8.0574    0.0000 C   0  0  0  0  0  0  0  0  0  0  0  0
   15.1875   -7.1810    0.0000 C   0  0  0  0  0  0  0  0  0  0  0  0
   12.3299   -7.2238    0.0000 O   0  0  0  0  0  0  0  0  0  0  0  0
    9.4883   -7.2319    0.0000 O   0  0  0  0  0  0  0  0  0  0  0  0
   16.6124   -7.1661    0.0000 O   0  0  0  0  0  0  0  0  0  0  0  0
   14.4610   -6.7890    0.0000 C   0  0  0  0  0  0  0  0  0  0  0  0
   15.1877   -8.0064    0.0000 C   0  0  0  0  0  0  0  0  0  0  0  0
   13.7757   -8.0333    0.0000 C   0  0  0  0  0  0  0  0  0  0  0  0
   15.8811   -5.9364    0.0000 O   0  0  0  0  0  0  0  0  0  0  0  0
   13.7631   -7.2085    0.0000 C   0  0  0  0  0  0  0  0  0  0  0  0
   14.4820   -8.4388    0.0000 C   0  0  0  0  0  0  0  0  0  0  0  0
   10.2124   -9.2936    0.0000 C   0  0  0  0  0  0  0  0  0  0  0  0
   10.9616   -8.9435    0.0000 C   0  0  0  0  0  0  0  0  0  0  0  0
   12.3067   -8.9435    0.0000 C   0  0  0  0  0  0  0  0  0  0  0  0
    9.4947   -9.7105    0.0000 O   0  0  0  0  0  0  0  0  0  0  0  0
    7.3516   -9.3121    0.0000 O   0  0  0  0  0  0  0  0  0  0  0  0
    8.0663   -9.7198    0.0000 C   0  0  0  0  0  0  0  0  0  0  0  0
    8.7799   -9.3029    0.0000 C   0  0  0  0  0  0  0  0  0  0  0  0
    6.6423   -9.7290    0.0000 C   0  0  0  0  0  0  0  0  0  0  0  0
   11.2116   -9.7305    0.0000 C   0  0  0  0  0  0  0  0  0  0  0  0
   12.0361   -9.7305    0.0000 C   0  0  0  0  0  0  0  0  0  0  0  0
    8.0591   -7.2324    0.0000 C   0  0  0  0  0  0  0  0  0  0  0  0
    7.3446   -6.8199    0.0000 C   0  0  0  0  0  0  0  0  0  0  0  0
    7.3446   -8.4699    0.0000 C   0  0  0  0  0  0  0  0  0  0  0  0
    6.6301   -7.2324    0.0000 C   0  0  0  0  0  0  0  0  0  0  0  0
    6.6301   -8.0574    0.0000 C   0  0  0  0  0  0  0  0  0  0  0  0
    5.8455   -6.9775    0.0000 C   0  0  0  0  0  0  0  0  0  0  0  0
    5.3606   -7.6449    0.0000 C   0  0  0  0  0  0  0  0  0  0  0  0
    5.8454   -8.3124    0.0000 C   0  0  0  0  0  0  0  0  0  0  0  0
  2  4  1  0
  3  1  1  0
  4  5  1  1
  4 20  1  0
  5  3  1  0
  6  1  1  0
  8  2  1  0
  9  8  1  0
  9 30  2  0
 10  7  1  1
 10 15  1  0
 10 14  1  0
 11  1  2  0
 12  2  2  0
 13  7  1  0
 14 18  1  0
 15 19  1  0
 16  6  1  1
 17  7  2  0
 18 16  1  0
 19 16  1  0
 21  3  1  0
 22  3  1  0
 23 20  1  0
 24 25  1  0
 25 26  1  0
 26 23  1  0
 27 24  1  0
 28 21  1  0
 28 29  1  0
 29 22  1  0
 31 30  1  0
 32  9  1  0
 33 31  2  0
 34 32  2  0
 34 33  1  0
 35 33  1  0
 36 35  1  0
 37 34  1  0
 37 36  1  0
M  END
>  <DRUGBANK_ID>  (1) 
DB00616

>  <SECONDARY_ACCESSION_NUMBERS>  (1) 
APRD00027

>  <COMMON_NAME>  (1) 
Candoxatril

>  <CAS_NUMBER>  (1) 
123122-55-4

>  <UNII>  (1) 
ACP75508EE

>  <SYNONYMS>  (1) 
[4(S)-cis]-4-[[[1-[3-[(2,3-dihydro-1H-Indeb5-yl)oxy]-2-[(2-methoxyethoxy)methyl]-3-oxopropyl]cyclopentyl]carbonyl]amino]cyclohexanecarboxylic acid; 4-({1-[(S)-2-(indan-5-yloxycarbonyl)-3-(2-methoxy-ethoxy)-propyl]-cyclopentanecarbonyl}-amino)-cyclohexanecarboxylic acid; Candoxatril

$$$$
