3DE
     RDKit          2D

 18 19  0  0  0  0  0  0  0  0999 V2000
    1.1583    0.9018    0.0000 C   0  0  0  0  0  0  0  0  0  0  0  0
    1.8728    1.3143    0.0000 O   0  0  0  0  0  0  0  0  0  0  0  0
    1.8728    2.1393    0.0000 C   0  0  0  0  0  0  0  0  0  0  0  0
    2.5873    2.5518    0.0000 C   0  0  0  0  0  0  0  0  0  0  0  0
    1.1583    0.0768    0.0000 C   0  0  0  0  0  0  0  0  0  0  0  0
    1.8258   -0.4081    0.0000 C   0  0  0  0  0  0  0  0  0  0  0  0
    1.5708   -1.1927    0.0000 N   0  0  0  0  0  0  0  0  0  0  0  0
    2.6104   -0.1532    0.0000 C   0  0  0  0  0  0  0  0  0  0  0  0
    0.4909   -0.4081    0.0000 C   0  0  0  0  0  0  0  0  0  0  0  0
   -0.2937   -0.1532    0.0000 C   0  0  0  0  0  0  0  0  0  0  0  0
    0.7458   -1.1927    0.0000 N   0  0  0  0  0  0  0  0  0  0  0  0
    0.2609   -1.8602    0.0000 C   0  0  0  0  0  0  0  0  0  0  0  0
    0.5965   -2.6138    0.0000 C   0  0  0  0  0  0  0  0  0  0  0  0
    0.1115   -3.2813    0.0000 C   0  0  0  0  0  0  0  0  0  0  0  0
   -0.7089   -3.1950    0.0000 C   0  0  0  0  0  0  0  0  0  0  0  0
   -1.0445   -2.4414    0.0000 C   0  0  0  0  0  0  0  0  0  0  0  0
   -0.5596   -1.7739    0.0000 C   0  0  0  0  0  0  0  0  0  0  0  0
    0.4438    1.3143    0.0000 O   0  0  0  0  0  0  0  0  0  0  0  0
  1  2  1  0
  1  5  1  0
  1 18  2  0
  2  3  1  0
  3  4  1  0
  5  6  1  0
  5  9  2  0
  6  7  2  0
  6  8  1  0
  7 11  1  0
  9 10  1  0
  9 11  1  0
 11 12  1  0
 12 13  2  0
 12 17  1  0
 13 14  1  0
 14 15  2  0
 15 16  1  0
 16 17  2  0
M  CHG  1   7   1
M  END
>  <DRUGBANK_ID>  (1) 
DB07051

>  <COMMON_NAME>  (1) 
3,5-DIMETHYL-1-PHENYL-1H-PYRAZOLE-4-CARBOXYLIC ACID ETHYL ESTER

$$$$
