
     RDKit          2D

 28 29  0  0  0  0  0  0  0  0999 V2000
    0.2887   -1.6572    0.0000 C   0  0  0  0  0  0  0  0  0  0  0  0
    0.2887   -2.4822    0.0000 C   0  0  0  0  0  0  0  0  0  0  0  0
    1.0031   -2.8947    0.0000 C   0  0  0  0  0  0  0  0  0  0  0  0
    1.7176   -2.4822    0.0000 C   0  0  0  0  0  0  0  0  0  0  0  0
    1.7176   -1.6573    0.0000 C   0  0  0  0  0  0  0  0  0  0  0  0
    1.0032   -1.2448    0.0000 C   0  0  0  0  0  0  0  0  0  0  0  0
    2.4321   -1.2448    0.0000 C   0  0  0  0  0  0  0  0  0  0  0  0
    2.4322   -0.4198    0.0000 C   0  0  0  0  0  0  0  0  0  0  0  0
    1.7177   -0.0073    0.0000 C   0  0  0  0  0  0  0  0  0  0  0  0
    3.1467   -0.0074    0.0000 N   0  0  0  0  0  0  0  0  0  0  0  0
    3.1467    0.8175    0.0000 C   0  0  0  0  0  0  0  0  0  0  0  0
   -2.4322   -0.2558    0.0000 C   0  0  0  0  0  0  0  0  0  0  0  0
   -2.4322    0.5691    0.0000 N   0  0  0  0  0  0  0  0  0  0  0  0
   -1.7177    0.9816    0.0000 C   0  0  0  0  0  0  0  0  0  0  0  0
   -1.0033    0.5691    0.0000 C   0  0  0  0  0  0  0  0  0  0  0  0
   -1.0033   -0.2558    0.0000 C   0  0  0  0  0  0  0  0  0  0  0  0
   -1.7178   -0.6682    0.0000 N   0  0  0  0  0  0  0  0  0  0  0  0
   -3.1467   -0.6682    0.0000 O   0  0  0  0  0  0  0  0  0  0  0  0
   -0.2889   -0.6684    0.0000 O   0  0  0  0  0  0  0  0  0  0  0  0
   -1.7177    1.8066    0.0000 O   0  0  0  0  0  0  0  0  0  0  0  0
   -0.7211    1.3443    0.0000 C   0  0  0  0  0  0  0  0  0  0  0  0
   -0.1908    0.4258    0.0000 C   0  0  0  0  0  0  0  0  0  0  0  0
    0.0912   -0.3494    0.0000 C   0  0  0  0  0  0  0  0  0  0  0  0
    0.0913    1.4875    0.0000 C   0  0  0  0  0  0  0  0  0  0  0  0
    0.3735    2.2627    0.0000 C   0  0  0  0  0  0  0  0  0  0  0  0
   -0.1566    2.8947    0.0000 C   0  0  0  0  0  0  0  0  0  0  0  0
   -0.9691    2.7515    0.0000 C   0  0  0  0  0  0  0  0  0  0  0  0
   -1.2513    1.9763    0.0000 C   0  0  0  0  0  0  0  0  0  0  0  0
  1  2  1  0
  1  6  1  0
  2  3  1  0
  3  4  1  0
  4  5  1  0
  5  6  1  0
  5  7  1  0
  7  8  1  0
  8  9  1  6
  8 10  1  0
 10 11  1  0
 12 17  1  0
 12 18  2  0
 12 13  1  0
 13 14  1  0
 14 15  1  0
 14 20  2  0
 15 16  1  0
 15 21  1  0
 15 22  1  0
 16 17  1  0
 16 19  2  0
 21 24  2  0
 22 23  1  0
 24 25  1  0
 25 26  2  0
 26 27  1  0
 27 28  2  0
 28 21  1  0
M  END
>  <DRUGBANK_ID>  (1) 
DB09001

>  <COMMON_NAME>  (1) 
Barbexaclone

>  <CAS_NUMBER>  (1) 
4388-82-3

>  <UNII>  (1) 
291GX1YB65

>  <SYNONYMS>  (1) 
Barbexaclon; Barbexaclona; Barbexaclone; Barbexaclonum

$$$$
