676
     RDKit          2D

 16 17  0  0  0  0  0  0  0  0999 V2000
    3.0791    0.2063    0.0000 O   0  0  0  0  0  0  0  0  0  0  0  0
    1.6500    0.2063    0.0000 O   0  0  0  0  0  0  0  0  0  0  0  0
    3.7935    1.4438    0.0000 C   0  0  0  0  0  0  0  0  0  0  0  0
    3.0791    1.0313    0.0000 C   0  0  0  0  0  0  0  0  0  0  0  0
    2.3645   -1.0313    0.0000 C   0  0  0  0  0  0  0  0  0  0  0  0
    3.7935    2.2688    0.0000 C   0  0  0  0  0  0  0  0  0  0  0  0
    4.5080    1.0313    0.0000 C   0  0  0  0  0  0  0  0  0  0  0  0
    2.3645   -0.2063    0.0000 C   0  0  0  0  0  0  0  0  0  0  0  0
    4.5080    2.6813    0.0000 C   0  0  0  0  0  0  0  0  0  0  0  0
    5.2224    1.4438    0.0000 C   0  0  0  0  0  0  0  0  0  0  0  0
    3.0791   -1.4438    0.0000 C   0  0  0  0  0  0  0  0  0  0  0  0
    1.6500   -1.4438    0.0000 C   0  0  0  0  0  0  0  0  0  0  0  0
    5.2224    2.2688    0.0000 C   0  0  0  0  0  0  0  0  0  0  0  0
    3.0791   -2.2688    0.0000 C   0  0  0  0  0  0  0  0  0  0  0  0
    1.6500   -2.2688    0.0000 C   0  0  0  0  0  0  0  0  0  0  0  0
    2.3645   -2.6813    0.0000 C   0  0  0  0  0  0  0  0  0  0  0  0
  1  4  1  0
  1  8  1  0
  2  8  2  0
  3  4  1  0
  3  6  2  0
  3  7  1  0
  5  8  1  0
  5 11  2  0
  5 12  1  0
  6  9  1  0
  7 10  2  0
  9 13  2  0
 10 13  1  0
 11 14  1  0
 12 15  2  0
 14 16  2  0
 15 16  1  0
M  END
>  <DRUGBANK_ID>  (1) 
DB00676

>  <SECONDARY_ACCESSION_NUMBERS>  (1) 
APRD00821; EXPT00792; DB02775

>  <COMMON_NAME>  (1) 
Benzyl benzoate

>  <CAS_NUMBER>  (1) 
120-51-4

>  <UNII>  (1) 
N863NB338G

>  <SYNONYMS>  (1) 
Acarobenzyl; Benylate; Benzevan; Benzoate de benzyle; BenzoesÃ¤urebenzylester; Benzoic acid phenylmethylester; Benzoic acid, benzyl ester; Benzoic acid, phenylmethyl ester; Benzyl benzoat; Benzyl benzoate; Benzylis benzoas; Phenylmethyl benzoate

$$$$
