
     RDKit          2D

 35 36  0  0  1  0  0  0  0  0999 V2000
    4.2868   -9.9000    0.0000 C   0  0  0  0  0  0  0  0  0  0  0  0
    5.0013  -10.3125    0.0000 C   0  0  0  0  0  0  0  0  0  0  0  0
    5.7158   -9.9000    0.0000 C   0  0  0  0  0  0  0  0  0  0  0  0
    6.4302  -10.3125    0.0000 C   0  0  0  0  0  0  0  0  0  0  0  0
    7.1447   -9.9000    0.0000 C   0  0  0  0  0  0  0  0  0  0  0  0
    7.8592  -10.3125    0.0000 C   0  0  0  0  0  0  0  0  0  0  0  0
    8.5737   -9.9000    0.0000 C   0  0  0  0  0  0  0  0  0  0  0  0
    9.2881  -10.3125    0.0000 C   0  0  0  0  0  0  0  0  0  0  0  0
   10.0026   -9.9000    0.0000 C   0  0  0  0  0  0  0  0  0  0  0  0
   10.7171  -10.3125    0.0000 C   0  0  0  0  0  0  0  0  0  0  0  0
   11.4315   -9.9000    0.0000 C   0  0  0  0  0  0  0  0  0  0  0  0
   12.1460  -10.3125    0.0000 C   0  0  0  0  0  0  0  0  0  0  0  0
   12.8605   -9.9000    0.0000 C   0  0  0  0  0  0  0  0  0  0  0  0
   13.5749  -10.3125    0.0000 C   0  0  0  0  0  0  0  0  0  0  0  0
   14.2894   -9.9000    0.0000 C   0  0  0  0  0  0  0  0  0  0  0  0
   15.0039  -10.3125    0.0000 C   0  0  0  0  0  0  0  0  0  0  0  0
   15.0039  -11.1375    0.0000 O   0  0  0  0  0  0  0  0  0  0  0  0
   15.7184   -9.9000    0.0000 N   0  0  0  0  0  0  0  0  0  0  0  0
   16.4328  -10.3125    0.0000 C   0  0  0  0  0  0  0  0  0  0  0  0
   17.1473   -9.9000    0.0000 C   0  0  0  0  0  0  0  0  0  0  0  0
   17.8618  -10.3125    0.0000 C   0  0  0  0  0  0  0  0  0  0  0  0
   17.8618  -11.1375    0.0000 N   0  0  0  0  0  0  0  0  0  0  0  0
   17.1473  -11.5500    0.0000 C   0  0  0  0  0  0  0  0  0  0  0  0
   17.1473  -12.3750    0.0000 O   0  0  0  0  0  0  0  0  0  0  0  0
   16.4328  -11.1375    0.0000 N   0  0  0  0  0  0  0  0  0  0  0  0
   18.5762  -11.5500    0.0000 C   0  0  0  0  0  0  0  0  0  0  0  0
   19.3299  -11.2144    0.0000 C   0  0  0  0  0  0  0  0  0  0  0  0
   19.8820  -11.8275    0.0000 C   0  0  0  0  0  0  0  0  0  0  0  0
   19.4695  -12.5420    0.0000 C   0  0  0  0  0  0  0  0  0  0  0  0
   18.6625  -12.3705    0.0000 O   0  0  0  0  0  0  0  0  0  0  0  0
   19.8050  -13.2957    0.0000 C   0  0  0  0  0  0  0  0  0  0  0  0
   20.6255  -13.3819    0.0000 O   0  0  0  0  0  0  0  0  0  0  0  0
   20.7024  -11.7413    0.0000 O   0  0  0  0  0  0  0  0  0  0  0  0
   19.5014  -10.4075    0.0000 C   0  0  0  0  0  0  0  0  0  0  0  0
   19.6730   -9.6005    0.0000 N   0  0  0  0  0  0  0  0  0  0  0  0
  1  2  1  0
  2  3  1  0
  3  4  1  0
  4  5  1  0
  5  6  1  0
  6  7  1  0
  7  8  1  0
  8  9  1  0
  9 10  1  0
 10 11  1  0
 11 12  1  0
 12 13  1  0
 13 14  1  0
 14 15  1  0
 15 16  1  0
 16 17  2  0
 16 18  1  0
 18 19  1  0
 19 20  1  0
 19 25  2  0
 20 21  2  0
 21 22  1  0
 22 23  1  0
 23 24  2  0
 23 25  1  0
 26 22  1  1
 26 27  1  0
 26 30  1  0
 27 28  1  0
 27 34  1  1
 28 29  1  0
 28 33  1  6
 29 30  1  0
 29 31  1  1
 31 32  1  0
 34 35  3  0
M  END
>  <DRUGBANK_ID>  (1) 
DB06365

>  <COMMON_NAME>  (1) 
Sapacitabine

>  <CAS_NUMBER>  (1) 
151823-14-2

>  <UNII>  (1) 
W335P73C3L

>  <SYNONYMS>  (1) 
1-(2-C-cyano-2-deoxy- ÃŸ-D-arabino-pentafuranosyl)-N4-palmitoylcytosine; Sapacitabine

$$$$
