
     RDKit          2D

 12 11  0  0  0  0  0  0  0  0999 V2000
   -0.6039    0.8250    0.0000 C   0  0  0  0  0  0  0  0  0  0  0  0
   -0.3020   -0.3020    0.0000 C   0  0  0  0  0  0  0  0  0  0  0  0
    0.5230    1.1270    0.0000 C   0  0  0  0  0  0  0  0  0  0  0  0
    1.5395    0.4125    0.0000 C   0  0  0  0  0  0  0  0  0  0  0  0
    0.8250    0.0000    0.0000 C   0  0  0  0  0  0  0  0  0  0  0  0
    2.2539   -0.0000    0.0000 C   0  0  0  0  0  0  0  0  0  0  0  0
    0.8250   -0.8250    0.0000 C   0  0  0  0  0  0  0  0  0  0  0  0
    2.9684    0.4125    0.0000 O   0  0  0  0  0  0  0  0  0  0  0  0
    2.2539   -0.8250    0.0000 O   0  0  0  0  0  0  0  0  0  0  0  0
    0.1105   -1.2375    0.0000 O   0  0  0  0  0  0  0  0  0  0  0  0
    1.5395   -1.2375    0.0000 O   0  0  0  0  0  0  0  0  0  0  0  0
    0.1105    0.4125    0.0000 Si  0  0  0  0  0  4  0  0  0  0  0  0
  5  4  1  0
  6  4  1  0
  7  5  1  0
  8  6  2  0
  9  6  1  0
 10  7  2  0
 11  7  1  0
 12  1  1  0
 12  2  1  0
 12  3  1  0
 12  5  1  0
M  END
>  <DRUGBANK_ID>  (1) 
DB03452

>  <SECONDARY_ACCESSION_NUMBERS>  (1) 
EXPT02910

>  <COMMON_NAME>  (1) 
3-Trimethylsilylsuccinic Acid

$$$$
