TPX
     RDKit          2D

 21 21  0  0  0  0  0  0  0  0999 V2000
    2.2704    0.5351    0.0000 C   0  0  0  0  0  0  0  0  0  0  0  0
    2.2704   -0.2899    0.0000 C   0  0  0  0  0  0  0  0  0  0  0  0
    1.5559   -0.7024    0.0000 C   0  0  0  0  0  0  0  0  0  0  0  0
    1.5559   -1.5274    0.0000 C   0  0  0  0  0  0  0  0  0  0  0  0
    2.9848   -0.7024    0.0000 C   0  0  0  0  0  0  0  0  0  0  0  0
    3.6993   -0.2899    0.0000 C   0  0  0  0  0  0  0  0  0  0  0  0
    2.9848    0.9476    0.0000 O   0  0  0  0  0  0  0  0  0  0  0  0
    0.8414   -1.9399    0.0000 O   0  0  0  0  0  0  0  0  0  0  0  0
    2.2704   -1.9399    0.0000 O   0  0  0  0  0  0  0  0  0  0  0  0
    0.8414   -0.2899    0.0000 C   0  0  0  0  0  0  0  0  0  0  0  0
    0.1270   -0.7024    0.0000 N   0  0  0  0  0  0  0  0  0  0  0  0
   -0.1750    0.4246    0.0000 O   0  0  0  0  0  0  0  0  0  0  0  0
   -1.0000   -1.0043    0.0000 O   0  0  0  0  0  0  0  0  0  0  0  0
   -0.5875   -0.2899    0.0000 S   0  0  0  0  0  0  0  0  0  0  0  0
   -1.3020    0.1226    0.0000 C   0  0  0  0  0  0  0  0  0  0  0  0
   -2.0165   -0.2899    0.0000 C   0  0  0  0  0  0  0  0  0  0  0  0
   -1.3020    0.9476    0.0000 C   0  0  0  0  0  0  0  0  0  0  0  0
   -2.7309    0.1226    0.0000 C   0  0  0  0  0  0  0  0  0  0  0  0
   -2.0165    1.3601    0.0000 C   0  0  0  0  0  0  0  0  0  0  0  0
   -2.7309    0.9476    0.0000 C   0  0  0  0  0  0  0  0  0  0  0  0
   -3.4454    1.3601    0.0000 C   0  0  0  0  0  0  0  0  0  0  0  0
  2  1  1  1
  1  7  2  0
  2  3  1  0
  2  5  1  0
  3  4  1  0
  3 10  1  6
  4  8  1  0
  4  9  2  0
  5  6  1  0
 10 11  1  0
 11 14  1  0
 12 14  2  0
 13 14  2  0
 14 15  1  0
 15 16  2  0
 15 17  1  0
 16 18  1  0
 17 19  2  0
 18 20  2  0
 19 20  1  0
 20 21  1  0
M  END
>  <DRUGBANK_ID>  (1) 
DB08640

>  <COMMON_NAME>  (1) 
(2S,3S)-3-FORMYL-2-({[(4-METHYLPHENYL)SULFONYL]AMINO}METHYL)PENTANOIC ACID

$$$$
