b-D-Glucose.mol
     RDKit          2D

 12 12  0  0  0  0  0  0  0  0999 V2000
    1.4289    0.8250    0.0000 O   0  0  0  0  0  0  0  0  0  0  0  0
    0.7145    0.4125    0.0000 C   0  0  0  0  0  0  0  0  0  0  0  0
    0.7145   -0.4125    0.0000 C   0  0  0  0  0  0  0  0  0  0  0  0
    1.4289   -0.8250    0.0000 O   0  0  0  0  0  0  0  0  0  0  0  0
    0.0000   -0.8250    0.0000 C   0  0  0  0  0  0  0  0  0  0  0  0
    0.0000   -1.6500    0.0000 O   0  0  0  0  0  0  0  0  0  0  0  0
   -0.7145   -0.4125    0.0000 C   0  0  0  0  0  0  0  0  0  0  0  0
   -1.4289   -0.8250    0.0000 O   0  0  0  0  0  0  0  0  0  0  0  0
   -0.7145    0.4125    0.0000 C   0  0  0  0  0  0  0  0  0  0  0  0
    0.0000    0.8250    0.0000 O   0  0  0  0  0  0  0  0  0  0  0  0
   -1.4289    0.8250    0.0000 C   0  0  0  0  0  0  0  0  0  0  0  0
   -1.4289    1.6500    0.0000 O   0  0  0  0  0  0  0  0  0  0  0  0
  2  1  1  1
  2  3  1  0
  2 10  1  0
  3  4  1  6
  3  5  1  0
  5  6  1  1
  5  7  1  0
  7  8  1  6
  7  9  1  0
  9 10  1  0
  9 11  1  1
 11 12  1  0
M  END
>  <DRUGBANK_ID>  (1) 
DB02379

>  <SECONDARY_ACCESSION_NUMBERS>  (1) 
EXPT00685; EXPT00455; EXPT01603

>  <COMMON_NAME>  (1) 
Beta-D-Glucose

>  <CAS_NUMBER>  (1) 
492-61-5

>  <UNII>  (1) 
J4R00M814D

>  <SYNONYMS>  (1) 
beta-D-glucopyranose; Beta-D-glucose anhydrous; Beta-D-glucose, anhydrous; Glucoside; Î²-D-glucose

$$$$
