
     RDKit          2D

 33 36  0  0  0  0  0  0  0  0999 V2000
   -0.4432    1.6438    0.0000 C   0  0  0  0  0  0  0  0  0  0  0  0
   -0.4432    0.8188    0.0000 C   0  0  0  0  0  0  0  0  0  0  0  0
   -1.1575    2.0625    0.0000 N   0  0  0  0  0  0  0  0  0  0  0  0
   -1.1575    0.4125    0.0000 N   0  0  0  0  0  0  0  0  0  0  0  0
   -1.8717    0.8188    0.0000 C   0  0  0  0  0  0  0  0  0  0  0  0
   -1.8717    1.6438    0.0000 C   0  0  0  0  0  0  0  0  0  0  0  0
    0.2709    2.0625    0.0000 N   0  0  0  0  0  0  0  0  0  0  0  0
    0.3571   -0.4125    0.0000 O   0  0  0  0  0  0  0  0  0  0  0  0
    1.1575   -0.5849    0.0000 N   0  0  0  0  0  0  0  0  0  0  0  0
    1.5761    0.1292    0.0000 C   0  0  0  0  0  0  0  0  0  0  0  0
    1.0220    0.7449    0.0000 C   0  0  0  0  0  0  0  0  0  0  0  0
    0.2709    0.4125    0.0000 C   0  0  0  0  0  0  0  0  0  0  0  0
    2.3889    0.2154    0.0000 C   0  0  0  0  0  0  0  0  0  0  0  0
    2.7337    0.9666    0.0000 C   0  0  0  0  0  0  0  0  0  0  0  0
    3.5464    1.0528    0.0000 C   0  0  0  0  0  0  0  0  0  0  0  0
    4.0266    0.3878    0.0000 C   0  0  0  0  0  0  0  0  0  0  0  0
    3.6942   -0.3632    0.0000 C   0  0  0  0  0  0  0  0  0  0  0  0
    2.8814   -0.4494    0.0000 C   0  0  0  0  0  0  0  0  0  0  0  0
    4.8517    0.4740    0.0000 C   0  0  0  0  0  0  0  0  0  0  0  0
    5.3319   -0.1908    0.0000 N   0  0  0  0  0  0  0  0  0  0  0  0
    6.1570   -0.1046    0.0000 C   0  0  0  0  0  0  0  0  0  0  0  0
   -2.5859    0.4125    0.0000 C   0  0  0  0  0  0  0  0  0  0  0  0
   -2.5859   -0.4125    0.0000 C   0  0  0  0  0  0  0  0  0  0  0  0
   -3.3001   -0.8312    0.0000 C   0  0  0  0  0  0  0  0  0  0  0  0
   -4.0143   -0.4125    0.0000 C   0  0  0  0  0  0  0  0  0  0  0  0
   -4.0143    0.4125    0.0000 C   0  0  0  0  0  0  0  0  0  0  0  0
   -3.3001    0.8188    0.0000 C   0  0  0  0  0  0  0  0  0  0  0  0
   -4.7285   -0.8312    0.0000 S   0  0  0  0  0  0  0  0  0  0  0  0
   -5.1472   -0.1170    0.0000 O   0  0  0  0  0  0  0  0  0  0  0  0
   -4.3222   -1.5454    0.0000 O   0  0  0  0  0  0  0  0  0  0  0  0
   -5.4428   -1.2375    0.0000 C   0  0  0  0  0  0  0  0  0  0  0  0
   -6.1570   -0.8312    0.0000 C   0  0  0  0  0  0  0  0  0  0  0  0
   -5.4428   -2.0625    0.0000 C   0  0  0  0  0  0  0  0  0  0  0  0
  1  2  2  0
  1  3  1  0
  1  7  1  0
  2  4  1  0
  2 12  1  0
  3  6  2  0
  4  5  2  0
  5  6  1  0
  5 22  1  0
  8  9  1  0
  8 12  1  0
  9 10  2  0
 10 11  1  0
 10 13  1  0
 11 12  2  0
 13 14  2  0
 13 18  1  0
 14 15  1  0
 15 16  2  0
 16 17  1  0
 16 19  1  0
 17 18  2  0
 19 20  1  0
 20 21  1  0
 22 23  2  0
 22 27  1  0
 23 24  1  0
 24 25  2  0
 25 26  1  0
 25 28  1  0
 26 27  2  0
 28 29  2  0
 28 30  2  0
 28 31  1  0
 31 32  1  0
 31 33  1  0
M  END
>  <DRUGBANK_ID>  (1) 
DB11794

>  <SECONDARY_ACCESSION_NUMBERS>  (1) 
DB13922

>  <COMMON_NAME>  (1) 
Berzosertib

>  <CAS_NUMBER>  (1) 
1232416-25-9

>  <UNII>  (1) 
L423PRV3V3

>  <SYNONYMS>  (1) 
Berzosertib

$$$$
