
     RDKit          2D

 14 14  0  0  0  0  0  0  0  0999 V2000
   -0.3572    0.6972    0.0000 O   0  0  0  0  0  0  0  0  0  0  0  0
   -0.3572   -1.7780    0.0000 O   0  0  0  0  0  0  0  0  0  0  0  0
   -1.7863   -0.9529    0.0000 O   0  0  0  0  0  0  0  0  0  0  0  0
    1.0717   -0.9529    0.0000 O   0  0  0  0  0  0  0  0  0  0  0  0
   -1.7863    1.5222    0.0000 O   0  0  0  0  0  0  0  0  0  0  0  0
    1.7863    0.2846    0.0000 O   0  0  0  0  0  0  0  0  0  0  0  0
    1.0717    1.5222    0.0000 N   0  0  0  0  0  0  0  0  0  0  0  0
   -0.3572   -0.9529    0.0000 C   0  0  0  0  0  0  0  0  0  0  0  0
   -1.0717   -0.5403    0.0000 C   0  0  0  0  0  0  0  0  0  0  0  0
    0.3572   -0.5403    0.0000 C   0  0  0  0  0  0  0  0  0  0  0  0
   -1.0717    0.2846    0.0000 C   0  0  0  0  0  0  0  0  0  0  0  0
    0.3572    0.2846    0.0000 C   0  0  0  0  0  0  0  0  0  0  0  0
   -1.7863    0.6972    0.0000 C   0  0  0  0  0  0  0  0  0  0  0  0
    1.0717    0.6972    0.0000 C   0  0  0  0  0  0  0  0  0  0  0  0
  1 11  1  0
  1 12  1  0
  5 13  1  0
  6 14  2  0
  7 14  1  0
  8  2  1  1
  8  9  1  0
  8 10  1  0
  9  3  1  6
  9 11  1  0
 10  4  1  6
 10 12  1  0
 11 13  1  1
 12 14  1  6
M  END
>  <DRUGBANK_ID>  (1) 
DB02720

>  <SECONDARY_ACCESSION_NUMBERS>  (1) 
EXPT01605

>  <COMMON_NAME>  (1) 
alpha-D-glucopyranosyl-2-carboxylic acid amide

>  <CAS_NUMBER>  (1) 
58825-13-1

$$$$
