
     RDKit          2D

 30 34  0  0  0  0  0  0  0  0999 V2000
    1.8684    0.0986    0.0000 C   0  0  0  0  0  0  0  0  0  0  0  0
    2.6707    0.3774    0.0000 C   0  0  0  0  0  0  0  0  0  0  0  0
   -0.2638   -1.9264    0.0000 C   0  0  0  0  0  0  0  0  0  0  0  0
    1.8684   -0.6907    0.0000 C   0  0  0  0  0  0  0  0  0  0  0  0
    1.1390   -1.0768    0.0000 C   0  0  0  0  0  0  0  0  0  0  0  0
    0.4525   -0.6907    0.0000 C   0  0  0  0  0  0  0  0  0  0  0  0
   -0.2638   -1.1026    0.0000 C   0  0  0  0  0  0  0  0  0  0  0  0
   -0.9846   -2.3253    0.0000 C   0  0  0  0  0  0  0  0  0  0  0  0
    3.6747    0.9052    0.0000 C   0  0  0  0  0  0  0  0  0  0  0  0
    0.4525   -2.3339    0.0000 C   0  0  0  0  0  0  0  0  0  0  0  0
   -1.7054   -1.9264    0.0000 C   0  0  0  0  0  0  0  0  0  0  0  0
    1.1519    0.5191    0.0000 C   0  0  0  0  0  0  0  0  0  0  0  0
    1.1519   -1.9264    0.0000 C   0  0  0  0  0  0  0  0  0  0  0  0
    2.7222    1.3814    0.0000 O   0  0  0  0  0  0  0  0  0  0  0  0
    0.4396    0.0986    0.0000 C   0  0  0  0  0  0  0  0  0  0  0  0
    2.7222   -0.9224    0.0000 C   0  0  0  0  0  0  0  0  0  0  0  0
    4.4726    1.2913    0.0000 C   0  0  0  0  0  0  0  0  0  0  0  0
   -0.9846   -0.6864    0.0000 C   0  0  0  0  0  0  0  0  0  0  0  0
    1.7955    1.5617    0.0000 C   0  0  0  0  0  0  0  0  0  0  0  0
    3.1426   -0.3303    0.0000 C   0  0  0  0  0  0  0  0  0  0  0  0
   -2.4433   -2.3339    0.0000 O   0  0  0  0  0  0  0  0  0  0  0  0
    1.0747    1.0468    0.0000 O   0  0  0  0  0  0  0  0  0  0  0  0
   -1.7054   -1.1026    0.0000 C   0  0  0  0  0  0  0  0  0  0  0  0
    1.8684    0.8923    0.0000 C   0  0  0  0  0  0  0  0  0  0  0  0
   -3.1598   -1.9006    0.0000 C   0  0  0  0  0  0  0  0  0  0  0  0
    1.6282    2.3339    0.0000 C   0  0  0  0  0  0  0  0  0  0  0  0
   -3.9450   -2.2352    0.0000 C   0  0  0  0  0  0  0  0  0  0  0  0
   -3.2113   -1.0854    0.0000 C   0  0  0  0  0  0  0  0  0  0  0  0
   -4.4726   -1.6046    0.0000 C   0  0  0  0  0  0  0  0  0  0  0  0
   -4.0350   -0.9052    0.0000 C   0  0  0  0  0  0  0  0  0  0  0  0
  1 24  1  1
  2  1  1  0
  2  9  1  6
  2 14  1  0
  3  7  1  0
  4  1  1  0
  5  4  1  0
  5  6  1  0
  6 15  1  1
  7  6  1  0
  8  3  1  0
  8 11  2  0
 10 13  1  0
 10  3  2  0
 11 23  1  0
 12  1  1  0
  5 13  1  6
 15 12  1  0
  4 16  1  1
 17  9  3  0
  7 18  1  6
 19 14  1  0
 20  2  1  0
 20 16  1  0
 21 11  1  0
 22 19  2  0
 23 18  1  0
 25 21  1  0
 26 19  1  0
 27 25  1  0
 28 25  1  0
 29 27  1  0
 29 30  1  0
 30 28  1  0
M  END
>  <DRUGBANK_ID>  (1) 
DB14679

>  <COMMON_NAME>  (1) 
Quingestanol acetate

>  <CAS_NUMBER>  (1) 
3000-39-3

>  <UNII>  (1) 
M33GGZ63KG

>  <SYNONYMS>  (1) 
Norethindrone acetate 3-cyclopentyl enol ether; Quingestanol acetate

$$$$
