
     RDKit          2D

 33 33  0  0  0  0  0  0  0  0999 V2000
    1.7861   -0.4125    0.0000 S   0  0  0  0  0  0  0  0  0  0  0  0
    2.5006    0.8250    0.0000 O   0  0  0  0  0  0  0  0  0  0  0  0
   -0.3571   -2.4750    0.0000 O   0  0  0  0  0  0  0  0  0  0  0  0
    0.3572   -2.8875    0.0000 O   0  0  0  0  0  0  0  0  0  0  0  0
   -3.9295   -1.2375    0.0000 O   0  0  0  0  0  0  0  0  0  0  0  0
    3.2151   -0.4125    0.0000 O   0  0  0  0  0  0  0  0  0  0  0  0
   -3.2150   -2.4750    0.0000 O   0  0  0  0  0  0  0  0  0  0  0  0
    2.5006   -4.9500    0.0000 O   0  0  0  0  0  0  0  0  0  0  0  0
    3.2151   -3.7125    0.0000 O   0  0  0  0  0  0  0  0  0  0  0  0
    3.9295    4.9500    0.0000 O   0  0  0  0  0  0  0  0  0  0  0  0
    2.5006    4.9500    0.0000 O   0  0  0  0  0  0  0  0  0  0  0  0
    0.3572   -1.2375    0.0000 N   0  0  0  0  0  0  0  0  0  0  0  0
    1.7861   -2.8875    0.0000 N   0  0  0  0  0  0  0  0  0  0  0  0
   -2.5006   -0.4125    0.0000 N   0  0  0  0  0  0  0  0  0  0  0  0
    3.2151    4.5375    0.0000 N   0  0  0  0  0  0  0  0  0  0  0  0
    1.0717   -1.6500    0.0000 C   0  0  0  0  0  0  0  0  0  0  0  0
   -1.7861   -1.6500    0.0000 C   0  0  0  0  0  0  0  0  0  0  0  0
   -1.0717   -1.2375    0.0000 C   0  0  0  0  0  0  0  0  0  0  0  0
    1.7861   -1.2375    0.0000 C   0  0  0  0  0  0  0  0  0  0  0  0
   -2.5006   -1.2375    0.0000 C   0  0  0  0  0  0  0  0  0  0  0  0
   -0.3571   -1.6500    0.0000 C   0  0  0  0  0  0  0  0  0  0  0  0
    1.0717   -2.4750    0.0000 C   0  0  0  0  0  0  0  0  0  0  0  0
   -3.2150   -1.6500    0.0000 C   0  0  0  0  0  0  0  0  0  0  0  0
    2.5006    0.0000    0.0000 C   0  0  0  0  0  0  0  0  0  0  0  0
    1.7861   -3.7125    0.0000 C   0  0  0  0  0  0  0  0  0  0  0  0
    3.2151    1.2375    0.0000 C   0  0  0  0  0  0  0  0  0  0  0  0
    3.2151    2.0625    0.0000 C   0  0  0  0  0  0  0  0  0  0  0  0
    2.5006    2.4750    0.0000 C   0  0  0  0  0  0  0  0  0  0  0  0
    3.9295    2.4750    0.0000 C   0  0  0  0  0  0  0  0  0  0  0  0
    2.5006   -4.1250    0.0000 C   0  0  0  0  0  0  0  0  0  0  0  0
    2.5006    3.3000    0.0000 C   0  0  0  0  0  0  0  0  0  0  0  0
    3.9295    3.3000    0.0000 C   0  0  0  0  0  0  0  0  0  0  0  0
    3.2151    3.7125    0.0000 C   0  0  0  0  0  0  0  0  0  0  0  0
  1 19  1  0
  1 24  1  0
  2 24  1  0
  2 26  1  0
  3 21  2  0
  4 22  2  0
  5 23  1  0
  6 24  1  0
  7 23  2  0
  8 30  1  0
  9 30  2  0
 10 15  1  0
 11 15  2  0
 12 21  1  0
 13 22  1  0
 13 25  1  0
 15 33  1  0
 16 12  1  0
 16 19  1  1
 16 22  1  0
 17 18  1  0
 17 20  1  0
 18 21  1  0
 20 14  1  1
 20 23  1  0
 25 30  1  0
 26 27  1  0
 27 28  2  0
 27 29  1  0
 28 31  1  0
 29 32  2  0
 31 33  2  0
 32 33  1  0
M  CHG  2  10  -1  15   1
M  END
>  <DRUGBANK_ID>  (1) 
DB03130

>  <SECONDARY_ACCESSION_NUMBERS>  (1) 
EXPT01625

>  <COMMON_NAME>  (1) 
S-P-Nitrobenzyloxycarbonylglutathione

$$$$
