
     RDKit          2D

 27 29  0  0  0  0  0  0  0  0999 V2000
   -0.3491    1.4145    0.0000 C   0  0  0  0  0  0  0  0  0  0  0  0
   -0.5849    0.6191    0.0000 C   0  0  0  0  0  0  0  0  0  0  0  0
    0.4740    1.4379    0.0000 C   0  0  0  0  0  0  0  0  0  0  0  0
    0.7508    0.6623    0.0000 N   0  0  0  0  0  0  0  0  0  0  0  0
    0.0985    0.1595    0.0000 N   0  0  0  0  0  0  0  0  0  0  0  0
    0.0810   -0.6652    0.0000 C   0  0  0  0  0  0  0  0  0  0  0  0
    0.9377    2.1158    0.0000 C   0  0  0  0  0  0  0  0  0  0  0  0
    1.7607    2.1352    0.0000 C   0  0  0  0  0  0  0  0  0  0  0  0
   -1.2992    0.2064    0.0000 C   0  0  0  0  0  0  0  0  0  0  0  0
   -2.0139    0.6185    0.0000 C   0  0  0  0  0  0  0  0  0  0  0  0
   -1.2989   -0.6186    0.0000 C   0  0  0  0  0  0  0  0  0  0  0  0
   -2.0133   -1.0314    0.0000 C   0  0  0  0  0  0  0  0  0  0  0  0
   -2.7280   -0.6192    0.0000 C   0  0  0  0  0  0  0  0  0  0  0  0
   -2.7283    0.2057    0.0000 C   0  0  0  0  0  0  0  0  0  0  0  0
    3.3781    2.0589    0.0000 C   0  0  0  0  0  0  0  0  0  0  0  0
   -3.4234   -1.0208    0.0000 Cl  0  0  0  0  0  0  0  0  0  0  0  0
    2.1944    2.8429    0.0000 C   0  0  0  0  0  0  0  0  0  0  0  0
    3.0175    2.8429    0.0000 N   0  0  0  0  0  0  0  0  0  0  0  0
    1.7968    3.5528    0.0000 O   0  0  0  0  0  0  0  0  0  0  0  0
    3.4234    3.5458    0.0000 O   0  0  0  0  0  0  0  0  0  0  0  0
   -0.6334   -1.0777    0.0000 C   0  0  0  0  0  0  0  0  0  0  0  0
   -0.6334   -1.9027    0.0000 C   0  0  0  0  0  0  0  0  0  0  0  0
    0.0810   -2.3152    0.0000 C   0  0  0  0  0  0  0  0  0  0  0  0
    0.7955   -1.9027    0.0000 C   0  0  0  0  0  0  0  0  0  0  0  0
    0.7955   -1.0777    0.0000 C   0  0  0  0  0  0  0  0  0  0  0  0
    0.0810   -3.1403    0.0000 O   0  0  0  0  0  0  0  0  0  0  0  0
    0.7955   -3.5528    0.0000 C   0  0  0  0  0  0  0  0  0  0  0  0
  1  2  2  0
  1  3  1  0
  2  5  1  0
  2  9  1  0
  3  4  2  0
  3  7  1  0
  4  5  1  0
  5  6  1  0
  6 21  2  0
  6 25  1  0
  7  8  1  0
  8 17  1  0
  9 10  2  0
  9 11  1  0
 10 14  1  0
 11 12  2  0
 12 13  1  0
 13 14  2  0
 13 16  1  0
 17 18  1  0
 17 19  2  0
 18 20  1  0
 18 15  1  0
 21 22  1  0
 22 23  2  0
 23 24  1  0
 23 26  1  0
 24 25  2  0
 26 27  1  0
M  END
>  <DRUGBANK_ID>  (1) 
DB11466

>  <COMMON_NAME>  (1) 
Tepoxalin

>  <CAS_NUMBER>  (1) 
103475-41-8

>  <UNII>  (1) 
TZ4OX61974

>  <SYNONYMS>  (1) 
5-(p-Chlorophenyl)-1-(p-methoxyphenyl)-N-methylpyrazole-3-propionohydroxamic acid; Tepoxalin; Tepoxalina; Tepoxaline; Tepoxaliume

$$$$
