IM9
     RDKit          2D

 32 35  0  0  0  0  0  0  0  0999 V2000
    1.8487   13.0607    0.0000 C   0  0  0  0  0  0  0  0  0  0  0  0
    1.1343   12.6482    0.0000 C   0  0  0  0  0  0  0  0  0  0  0  0
    0.4198   13.0607    0.0000 C   0  0  0  0  0  0  0  0  0  0  0  0
    1.1343   11.8232    0.0000 N   0  0  0  0  0  0  0  0  0  0  0  0
    1.8017   11.3383    0.0000 C   0  0  0  0  0  0  0  0  0  0  0  0
    2.5863   11.5932    0.0000 C   0  0  0  0  0  0  0  0  0  0  0  0
    1.5468   10.5537    0.0000 N   0  0  0  0  0  0  0  0  0  0  0  0
    0.7218   10.5537    0.0000 C   0  0  0  0  0  0  0  0  0  0  0  0
    0.4668   11.3383    0.0000 C   0  0  0  0  0  0  0  0  0  0  0  0
   -0.3178   11.5932    0.0000 C   0  0  0  0  0  0  0  0  0  0  0  0
   -0.9309   11.0412    0.0000 C   0  0  0  0  0  0  0  0  0  0  0  0
   -1.7155   11.2961    0.0000 C   0  0  0  0  0  0  0  0  0  0  0  0
   -1.8870   12.1031    0.0000 N   0  0  0  0  0  0  0  0  0  0  0  0
   -1.2739   12.6551    0.0000 C   0  0  0  0  0  0  0  0  0  0  0  0
   -1.4455   13.4621    0.0000 N   0  0  0  0  0  0  0  0  0  0  0  0
   -0.8324   14.0141    0.0000 C   0  0  0  0  0  0  0  0  0  0  0  0
   -1.0039   14.8211    0.0000 C   0  0  0  0  0  0  0  0  0  0  0  0
   -0.3908   15.3731    0.0000 C   0  0  0  0  0  0  0  0  0  0  0  0
    0.3938   15.1182    0.0000 C   0  0  0  0  0  0  0  0  0  0  0  0
    0.5653   14.3112    0.0000 C   0  0  0  0  0  0  0  0  0  0  0  0
   -0.0477   13.7592    0.0000 C   0  0  0  0  0  0  0  0  0  0  0  0
    1.0069   15.6702    0.0000 N   0  0  0  0  0  0  0  0  0  0  0  0
    0.8354   16.4772    0.0000 C   0  0  0  0  0  0  0  0  0  0  0  0
    1.4485   17.0292    0.0000 C   0  0  0  0  0  0  0  0  0  0  0  0
    2.2331   16.7743    0.0000 N   0  0  0  0  0  0  0  0  0  0  0  0
    2.4046   15.9673    0.0000 C   0  0  0  0  0  0  0  0  0  0  0  0
    1.7915   15.4153    0.0000 C   0  0  0  0  0  0  0  0  0  0  0  0
    2.8462   17.3263    0.0000 C   0  0  0  0  0  0  0  0  0  0  0  0
    2.6747   18.1333    0.0000 O   0  0  0  0  0  0  0  0  0  0  0  0
    3.6308   17.0714    0.0000 C   0  0  0  0  0  0  0  0  0  0  0  0
    4.2439   17.6234    0.0000 O   0  0  0  0  0  0  0  0  0  0  0  0
   -0.4893   12.4002    0.0000 N   0  0  0  0  0  0  0  0  0  0  0  0
  1  2  1  0
  2  3  1  0
  2  4  1  0
  4  5  1  0
  4  9  1  0
  5  6  1  0
  5  7  2  0
  7  8  1  0
  8  9  2  0
  9 10  1  0
 10 11  2  0
 10 32  1  0
 11 12  1  0
 12 13  2  0
 13 14  1  0
 14 15  1  0
 14 32  2  0
 15 16  1  0
 16 17  2  0
 16 21  1  0
 17 18  1  0
 18 19  2  0
 19 20  1  0
 19 22  1  0
 20 21  2  0
 22 23  1  0
 22 27  1  0
 23 24  1  0
 24 25  1  0
 25 26  1  0
 25 28  1  0
 26 27  1  0
 28 29  2  0
 28 30  1  0
 30 31  1  0
M  END
>  <DRUGBANK_ID>  (1) 
DB07982

>  <COMMON_NAME>  (1) 
2-{4-[4-({4-[2-methyl-1-(1-methylethyl)-1H-imidazol-5-yl]pyrimidin-2-yl}amino)phenyl]piperazin-1-yl}-2-oxoethanol

$$$$
