
     RDKit          2D

 25 27  0  0  0  0  0  0  0  0999 V2000
    0.3561   -1.8077    0.0000 C   0  0  0  0  0  0  0  0  0  0  0  0
    1.0732   -1.3958    0.0000 C   0  0  0  0  0  0  0  0  0  0  0  0
    1.0697   -0.5688    0.0000 C   0  0  0  0  0  0  0  0  0  0  0  0
    0.3525   -0.1556    0.0000 C   0  0  0  0  0  0  0  0  0  0  0  0
   -0.3611   -1.3946    0.0000 C   0  0  0  0  0  0  0  0  0  0  0  0
   -0.3611   -0.5696    0.0000 C   0  0  0  0  0  0  0  0  0  0  0  0
   -1.0715   -0.1666    0.0000 C   0  0  0  0  0  0  0  0  0  0  0  0
   -1.7855   -0.5794    0.0000 C   0  0  0  0  0  0  0  0  0  0  0  0
   -1.7798   -1.4029    0.0000 C   0  0  0  0  0  0  0  0  0  0  0  0
   -1.0632   -1.8094    0.0000 C   0  0  0  0  0  0  0  0  0  0  0  0
   -2.4946   -1.8224    0.0000 O   0  0  0  0  0  0  0  0  0  0  0  0
   -1.7010   -2.3179    0.0000 C   0  0  0  0  0  0  0  0  0  0  0  0
   -0.5485   -2.4423    0.0000 C   0  0  0  0  0  0  0  0  0  0  0  0
   -0.3683    0.2510    0.0000 C   0  0  0  0  0  0  0  0  0  0  0  0
    0.3566    0.6709    0.0000 C   0  0  0  0  0  0  0  0  0  0  0  0
    1.6908    2.4567    0.0000 C   0  0  0  0  0  0  0  0  0  0  0  0
    1.3648    3.2149    0.0000 O   0  0  0  0  0  0  0  0  0  0  0  0
    0.5412    3.1427    0.0000 C   0  0  0  0  0  0  0  0  0  0  0  0
    0.3553    2.3374    0.0000 C   0  0  0  0  0  0  0  0  0  0  0  0
    1.0720    1.9116    0.0000 C   0  0  0  0  0  0  0  0  0  0  0  0
    1.0697    1.0848    0.0000 C   0  0  0  0  0  0  0  0  0  0  0  0
   -0.4058    2.0123    0.0000 O   0  0  0  0  0  0  0  0  0  0  0  0
    2.4946    2.2696    0.0000 O   0  0  0  0  0  0  0  0  0  0  0  0
    1.7909   -0.1561    0.0000 C   0  0  0  0  0  0  0  0  0  0  0  0
   -0.8434   -3.2149    0.0000 O   0  0  0  0  0  0  0  0  0  0  0  0
  1  2  1  0
  2  3  1  0
  3  4  1  0
  3 24  2  0
  4  6  1  0
  4 15  1  6
  5  1  1  6
  5 10  1  0
  5  6  1  0
  6 14  1  6
  6  7  1  0
  7  8  1  0
  8  9  1  0
  9 10  1  0
  9 11  1  6
 10 13  1  0
 10 12  1  1
 13 25  1  0
 15 21  1  0
 16 17  1  0
 16 23  2  0
 17 18  1  0
 18 19  1  0
 19 20  1  0
 19 22  1  6
 20 16  1  0
 20 21  2  0
M  END
>  <DRUGBANK_ID>  (1) 
DB05767

>  <COMMON_NAME>  (1) 
Andrographolide

>  <CAS_NUMBER>  (1) 
5508-58-7

>  <UNII>  (1) 
410105JHGR

>  <SYNONYMS>  (1) 
3α,14,15,18-tetrahydroxy-5b,9bH,10a-labda-8(20),12-dien-16-oic acid γ-Lactone

$$$$
