CR3
     RDKit          2D

 25 28  0  0  0  0  0  0  0  0999 V2000
    2.8151   -0.6363    0.0000 C   0  0  0  0  0  0  0  0  0  0  0  0
    2.8151   -1.4613    0.0000 C   0  0  0  0  0  0  0  0  0  0  0  0
    2.1007   -1.8738    0.0000 C   0  0  0  0  0  0  0  0  0  0  0  0
    1.3862   -1.4613    0.0000 C   0  0  0  0  0  0  0  0  0  0  0  0
    1.3862   -0.6363    0.0000 C   0  0  0  0  0  0  0  0  0  0  0  0
    2.1007   -0.2238    0.0000 C   0  0  0  0  0  0  0  0  0  0  0  0
    3.5296   -0.2238    0.0000 C   0  0  0  0  0  0  0  0  0  0  0  0
    4.2441   -0.6363    0.0000 N   0  0  0  0  0  0  0  0  0  0  0  0
    3.5296    0.6012    0.0000 N   0  0  0  0  0  0  0  0  0  0  0  0
    0.6016   -1.7162    0.0000 N   0  0  0  0  0  0  0  0  0  0  0  0
    0.6016   -0.3814    0.0000 C   0  0  0  0  0  0  0  0  0  0  0  0
    0.1166   -1.0488    0.0000 C   0  0  0  0  0  0  0  0  0  0  0  0
   -0.7084   -1.0488    0.0000 C   0  0  0  0  0  0  0  0  0  0  0  0
   -1.1209   -1.7633    0.0000 C   0  0  0  0  0  0  0  0  0  0  0  0
   -1.9459   -1.7633    0.0000 C   0  0  0  0  0  0  0  0  0  0  0  0
   -2.3584   -1.0488    0.0000 C   0  0  0  0  0  0  0  0  0  0  0  0
   -1.9459   -0.3343    0.0000 C   0  0  0  0  0  0  0  0  0  0  0  0
   -2.3584    0.3801    0.0000 O   0  0  0  0  0  0  0  0  0  0  0  0
   -1.1209   -0.3343    0.0000 C   0  0  0  0  0  0  0  0  0  0  0  0
   -0.7084    0.3801    0.0000 O   0  0  0  0  0  0  0  0  0  0  0  0
   -1.1254    1.1808    0.0000 C   0  0  0  0  0  0  0  0  0  0  0  0
   -1.9459    1.0946    0.0000 C   0  0  0  0  0  0  0  0  0  0  0  0
   -2.2814    1.8483    0.0000 C   0  0  0  0  0  0  0  0  0  0  0  0
   -1.6683    2.4003    0.0000 C   0  0  0  0  0  0  0  0  0  0  0  0
   -0.9538    1.9878    0.0000 C   0  0  0  0  0  0  0  0  0  0  0  0
  1  2  2  0
  1  6  1  0
  1  7  1  0
  2  3  1  0
  3  4  2  0
  4  5  1  0
  4 10  1  0
  5  6  2  0
  5 11  1  0
  7  8  1  0
  7  9  2  0
 10 12  1  0
 11 12  2  0
 12 13  1  0
 13 14  2  0
 13 19  1  0
 14 15  1  0
 15 16  2  0
 16 17  1  0
 17 18  1  0
 17 19  2  0
 18 22  1  0
 19 20  1  0
 21 22  1  0
 21 25  1  0
 22 23  1  0
 23 24  1  0
 24 25  1  0
M  CHG  2   9   1  20  -1
M  END
>  <DRUGBANK_ID>  (1) 
DB03173

>  <SECONDARY_ACCESSION_NUMBERS>  (1) 
EXPT01012

>  <COMMON_NAME>  (1) 
CRA_10433

$$$$
