
     RDKit          2D

 33 38  0  0  0  0  0  0  0  0999 V2000
   -0.6549    2.6013    0.0000 C   0  0  0  0  0  0  0  0  0  0  0  0
    0.0128    3.0856    0.0000 N   0  0  0  0  0  0  0  0  0  0  0  0
   -0.4007    1.8164    0.0000 C   0  0  0  0  0  0  0  0  0  0  0  0
    0.6799    2.6002    0.0000 C   0  0  0  0  0  0  0  0  0  0  0  0
    0.4243    1.8157    0.0000 C   0  0  0  0  0  0  0  0  0  0  0  0
   -1.2399    2.9974    0.0000 O   0  0  0  0  0  0  0  0  0  0  0  0
    1.3046    2.9178    0.0000 O   0  0  0  0  0  0  0  0  0  0  0  0
    0.9087    1.1479    0.0000 C   0  0  0  0  0  0  0  0  0  0  0  0
    1.7337    1.1473    0.0000 C   0  0  0  0  0  0  0  0  0  0  0  0
    0.6531    0.3634    0.0000 C   0  0  0  0  0  0  0  0  0  0  0  0
    1.9880    0.3625    0.0000 C   0  0  0  0  0  0  0  0  0  0  0  0
    1.3203   -0.1219    0.0000 N   0  0  0  0  0  0  0  0  0  0  0  0
   -0.8862    1.1495    0.0000 C   0  0  0  0  0  0  0  0  0  0  0  0
   -0.5513    0.3954    0.0000 N   0  0  0  0  0  0  0  0  0  0  0  0
   -1.7066    1.2363    0.0000 C   0  0  0  0  0  0  0  0  0  0  0  0
   -1.0368   -0.2715    0.0000 C   0  0  0  0  0  0  0  0  0  0  0  0
   -2.1921    0.5694    0.0000 C   0  0  0  0  0  0  0  0  0  0  0  0
   -1.8572   -0.1845    0.0000 N   0  0  0  0  0  0  0  0  0  0  0  0
    2.2862    1.7599    0.0000 C   0  0  0  0  0  0  0  0  0  0  0  0
    3.0930    1.5876    0.0000 C   0  0  0  0  0  0  0  0  0  0  0  0
    2.7947    0.1903    0.0000 C   0  0  0  0  0  0  0  0  0  0  0  0
    3.3473    0.8029    0.0000 C   0  0  0  0  0  0  0  0  0  0  0  0
   -2.0415    1.9903    0.0000 C   0  0  0  0  0  0  0  0  0  0  0  0
   -2.8619    2.0771    0.0000 C   0  0  0  0  0  0  0  0  0  0  0  0
   -3.0124    0.6563    0.0000 C   0  0  0  0  0  0  0  0  0  0  0  0
   -3.3473    1.4102    0.0000 C   0  0  0  0  0  0  0  0  0  0  0  0
   -0.7019   -1.0254    0.0000 N   0  0  0  0  0  0  0  0  0  0  0  0
    0.1183   -1.1124    0.0000 C   0  0  0  0  0  0  0  0  0  0  0  0
   -1.1875   -1.6925    0.0000 C   0  0  0  0  0  0  0  0  0  0  0  0
    0.4531   -1.8664    0.0000 C   0  0  0  0  0  0  0  0  0  0  0  0
   -0.8526   -2.4464    0.0000 C   0  0  0  0  0  0  0  0  0  0  0  0
   -0.0323   -2.5334    0.0000 N   0  0  0  0  0  0  0  0  0  0  0  0
    0.3404   -3.0856    0.0000 C   0  0  0  0  0  0  0  0  0  0  0  0
  1  6  2  0
  2  1  1  0
  3  1  1  0
  3 13  1  0
  4  2  1  0
  4  7  2  0
  5  3  2  0
  5  4  1  0
  5  8  1  0
  9  8  1  0
 10  8  2  0
 11  9  2  0
 12 10  1  0
 12 11  1  0
 14 13  2  0
 15 13  1  0
 16 14  1  0
 16 27  1  0
 17 15  2  0
 18 16  2  0
 18 17  1  0
 19  9  1  0
 20 19  2  0
 21 11  1  0
 22 20  1  0
 22 21  2  0
 23 15  1  0
 24 23  2  0
 25 17  1  0
 26 24  1  0
 26 25  2  0
 28 27  1  0
 29 27  1  0
 30 28  1  0
 31 29  1  0
 32 30  1  0
 32 31  1  0
 32 33  1  0
M  END
>  <DRUGBANK_ID>  (1) 
DB12369

>  <COMMON_NAME>  (1) 
Sotrastaurin

>  <CAS_NUMBER>  (1) 
425637-18-9

>  <UNII>  (1) 
7I279E1NZ8

>  <SYNONYMS>  (1) 
Sotrastaurin; Sotrastaurina; Sotrastaurinum

$$$$
