
     RDKit          2D

 28 31  0  0  0  0  0  0  0  0999 V2000
   -2.4545   -1.1551    0.0000 C   0  0  0  0  0  0  0  0  0  0  0  0
   -2.4545   -1.9802    0.0000 C   0  0  0  0  0  0  0  0  0  0  0  0
   -1.7533   -2.3515    0.0000 C   0  0  0  0  0  0  0  0  0  0  0  0
   -1.0519   -1.9802    0.0000 C   0  0  0  0  0  0  0  0  0  0  0  0
   -1.0519   -1.1551    0.0000 C   0  0  0  0  0  0  0  0  0  0  0  0
   -1.7533   -0.7426    0.0000 C   0  0  0  0  0  0  0  0  0  0  0  0
   -0.3506   -2.3515    0.0000 C   0  0  0  0  0  0  0  0  0  0  0  0
    0.3918   -1.9802    0.0000 C   0  0  0  0  0  0  0  0  0  0  0  0
    0.3918   -1.1551    0.0000 C   0  0  0  0  0  0  0  0  0  0  0  0
   -0.3506   -0.7426    0.0000 C   0  0  0  0  0  0  0  0  0  0  0  0
    1.0932   -0.7426    0.0000 C   0  0  0  0  0  0  0  0  0  0  0  0
    1.0932    0.0824    0.0000 C   0  0  0  0  0  0  0  0  0  0  0  0
    0.3918    0.4949    0.0000 C   0  0  0  0  0  0  0  0  0  0  0  0
   -0.3506    0.0824    0.0000 C   0  0  0  0  0  0  0  0  0  0  0  0
    1.8358   -0.9900    0.0000 C   0  0  0  0  0  0  0  0  0  0  0  0
    2.3308   -0.3300    0.0000 C   0  0  0  0  0  0  0  0  0  0  0  0
    1.8358    0.3299    0.0000 C   0  0  0  0  0  0  0  0  0  0  0  0
   -3.1559   -2.3515    0.0000 O   0  0  0  0  0  0  0  0  0  0  0  0
   -1.0519   -0.3300    0.0000 C   0  0  0  0  0  0  0  0  0  0  0  0
   -1.0519    0.4949    0.0000 O   0  0  0  0  0  0  0  0  0  0  0  0
    1.0932    0.9076    0.0000 C   0  0  0  0  0  0  0  0  0  0  0  0
    3.1559   -0.3300    0.0000 C   0  0  0  0  0  0  0  0  0  0  0  0
    1.8358    1.1550    0.0000 C   0  0  0  0  0  0  0  0  0  0  0  0
    1.1212    1.5676    0.0000 C   0  0  0  0  0  0  0  0  0  0  0  0
    2.5503    1.5676    0.0000 O   0  0  0  0  0  0  0  0  0  0  0  0
    2.5503    0.7425    0.0000 O   0  0  0  0  0  0  0  0  0  0  0  0
    1.1212    2.3926    0.0000 O   0  0  0  0  0  0  0  0  0  0  0  0
    1.1064   -2.3927    0.0000 Cl  0  0  0  0  0  0  0  0  0  0  0  0
  1  2  1  0
  1  6  2  0
  2  3  1  0
  2 18  2  0
  3  4  2  0
  4  5  1  0
  4  7  1  0
  5  6  1  0
  5 10  1  0
  5 19  1  1
  7  8  1  0
  9  8  1  6
  8 28  1  6
  9 10  1  0
  9 11  1  0
 10 14  1  1
 11 12  1  0
 11 15  1  1
 12 13  1  0
 12 17  1  0
 12 21  1  1
 13 14  1  0
 14 20  1  1
 15 16  1  0
 16 17  1  0
 16 22  1  6
 17 23  1  0
 17 26  1  6
 23 24  1  0
 23 25  2  0
 24 27  1  0
M  END
>  <DRUGBANK_ID>  (1) 
DB00240

>  <SECONDARY_ACCESSION_NUMBERS>  (1) 
APRD00783

>  <COMMON_NAME>  (1) 
Alclometasone

>  <CAS_NUMBER>  (1) 
67452-97-5

>  <UNII>  (1) 
136H45TB7B

>  <SYNONYMS>  (1) 
(7alpha,11beta,16alpha)-7-chloro-11,17,21-trihydroxy-16-methylpregna-1,4-diene-3,20-dione; 7α-Chloro-16α-methylprednisolone; Alclometasone

$$$$
