B29
     RDKit          2D

 30 33  0  0  0  0  0  0  0  0999 V2000
    3.0459   -0.1642    0.0000 C   0  0  0  0  0  0  0  0  0  0  0  0
    3.5979   -0.7773    0.0000 C   0  0  0  0  0  0  0  0  0  0  0  0
    4.4049   -0.6058    0.0000 C   0  0  0  0  0  0  0  0  0  0  0  0
    4.6598    0.1788    0.0000 C   0  0  0  0  0  0  0  0  0  0  0  0
    4.1078    0.7919    0.0000 C   0  0  0  0  0  0  0  0  0  0  0  0
    3.3008    0.6204    0.0000 C   0  0  0  0  0  0  0  0  0  0  0  0
    2.6334    1.1053    0.0000 O   0  0  0  0  0  0  0  0  0  0  0  0
    1.9660    0.6204    0.0000 C   0  0  0  0  0  0  0  0  0  0  0  0
    2.2209   -0.1642    0.0000 C   0  0  0  0  0  0  0  0  0  0  0  0
    1.6689   -0.7773    0.0000 C   0  0  0  0  0  0  0  0  0  0  0  0
    0.8619   -0.6058    0.0000 C   0  0  0  0  0  0  0  0  0  0  0  0
    0.6070    0.1788    0.0000 C   0  0  0  0  0  0  0  0  0  0  0  0
    1.1590    0.7919    0.0000 C   0  0  0  0  0  0  0  0  0  0  0  0
    0.9040    1.5766    0.0000 C   0  0  0  0  0  0  0  0  0  0  0  0
    1.4561    2.1897    0.0000 C   0  0  0  0  0  0  0  0  0  0  0  0
    0.0971    1.7481    0.0000 C   0  0  0  0  0  0  0  0  0  0  0  0
   -0.1579    2.5327    0.0000 C   0  0  0  0  0  0  0  0  0  0  0  0
    0.3942    3.1458    0.0000 C   0  0  0  0  0  0  0  0  0  0  0  0
    1.2011    2.9743    0.0000 C   0  0  0  0  0  0  0  0  0  0  0  0
    1.7532    3.5874    0.0000 C   0  0  0  0  0  0  0  0  0  0  0  0
    1.4982    4.3720    0.0000 C   0  0  0  0  0  0  0  0  0  0  0  0
    2.2829    4.6269    0.0000 P   0  0  0  0  0  0  0  0  0  0  0  0
    3.0675    4.8819    0.0000 O   0  0  0  0  0  0  0  0  0  0  0  0
    2.0279    5.4116    0.0000 O   0  0  0  0  0  0  0  0  0  0  0  0
    2.5378    3.8423    0.0000 O   0  0  0  0  0  0  0  0  0  0  0  0
    0.7136    4.1171    0.0000 P   0  0  0  0  0  0  0  0  0  0  0  0
    0.4587    4.9017    0.0000 O   0  0  0  0  0  0  0  0  0  0  0  0
   -0.0710    3.8621    0.0000 O   0  0  0  0  0  0  0  0  0  0  0  0
    0.9686    3.3324    0.0000 O   0  0  0  0  0  0  0  0  0  0  0  0
    1.2433    5.1566    0.0000 O   0  0  0  0  0  0  0  0  0  0  0  0
  1  6  1  0
  1  2  2  0
  1  9  1  0
  2  3  1  0
  3  4  2  0
  4  5  1  0
  5  6  2  0
  6  7  1  0
  7  8  1  0
  8  9  2  0
  8 13  1  0
  9 10  1  0
 10 11  2  0
 11 12  1  0
 12 13  2  0
 13 14  1  0
 14 16  1  0
 14 15  2  0
 15 19  1  0
 16 17  2  0
 17 18  1  0
 18 19  2  0
 19 20  1  0
 20 21  1  0
 21 22  1  0
 21 26  1  0
 21 30  1  0
 22 23  2  0
 22 25  1  0
 22 24  1  0
 26 27  2  0
 26 28  1  0
 26 29  1  0
M  END
>  <DRUGBANK_ID>  (1) 
DB07410

>  <COMMON_NAME>  (1) 
[2-(3-DIBENZOFURAN-4-YL-PHENYL)-1-HYDROXY-1-PHOSPHONO-ETHYL]-PHOSPHONIC ACID

$$$$
