
     RDKit          2D

 33 38  0  0  1  0  0  0  0  0999 V2000
    0.0853    0.0135    0.0000 C   0  0  0  0  0  0  0  0  0  0  0  0
   -0.5821   -0.4714    0.0000 C   0  0  0  0  0  0  0  0  0  0  0  0
   -0.4959   -1.2919    0.0000 C   0  0  0  0  0  0  0  0  0  0  0  0
   -1.1634   -1.7768    0.0000 O   0  0  0  0  0  0  0  0  0  0  0  0
    0.2578   -1.6275    0.0000 N   0  0  0  0  0  0  0  0  0  0  0  0
    0.9252   -1.1425    0.0000 C   0  0  0  0  0  0  0  0  0  0  0  0
    0.8390   -0.3220    0.0000 C   0  0  0  0  0  0  0  0  0  0  0  0
    1.7651    0.0135    0.0000 N   0  0  0  0  0  0  0  0  0  0  0  0
    2.4326   -0.4714    0.0000 C   0  0  0  0  0  0  0  0  0  0  0  0
    2.3463   -1.2919    0.0000 C   0  0  0  0  0  0  0  0  0  0  0  0
    3.0138   -1.7768    0.0000 O   0  0  0  0  0  0  0  0  0  0  0  0
    1.5926   -1.6275    0.0000 N   0  0  0  0  0  0  0  0  0  0  0  0
    1.3377   -2.4121    0.0000 C   0  0  0  0  0  0  0  0  0  0  0  0
    0.5127   -2.4121    0.0000 C   0  0  0  0  0  0  0  0  0  0  0  0
    1.8226   -3.0795    0.0000 C   0  0  0  0  0  0  0  0  0  0  0  0
    1.4871   -3.8332    0.0000 N   0  0  0  0  0  0  0  0  0  0  0  0
    1.9720   -4.5006    0.0000 C   0  0  0  0  0  0  0  0  0  0  0  0
    1.6364   -5.2543    0.0000 C   0  0  0  0  0  0  0  0  0  0  0  0
    0.8160   -5.3405    0.0000 C   0  0  0  0  0  0  0  0  0  0  0  0
    0.3310   -4.6731    0.0000 C   0  0  0  0  0  0  0  0  0  0  0  0
    0.6666   -3.9194    0.0000 C   0  0  0  0  0  0  0  0  0  0  0  0
    0.4804   -6.0942    0.0000 N   0  0  0  0  0  0  0  0  0  0  0  0
   -0.3401   -6.1804    0.0000 C   0  0  0  0  0  0  0  0  0  0  0  0
   -0.6756   -6.9341    0.0000 C   0  0  0  0  0  0  0  0  0  0  0  0
   -1.4961   -7.0204    0.0000 C   0  0  0  0  0  0  0  0  0  0  0  0
   -1.8317   -7.7740    0.0000 C   0  0  0  0  0  0  0  0  0  0  0  0
   -1.3468   -8.4415    0.0000 C   0  0  0  0  0  0  0  0  0  0  0  0
   -0.5263   -8.3552    0.0000 C   0  0  0  0  0  0  0  0  0  0  0  0
   -0.1907   -7.6016    0.0000 N   0  0  0  0  0  0  0  0  0  0  0  0
   -1.6823   -9.1951    0.0000 O   0  0  0  0  0  0  0  0  0  0  0  0
   -2.5028   -9.2814    0.0000 C   0  0  0  0  0  0  0  0  0  0  0  0
   -2.9877   -8.6139    0.0000 C   0  0  0  0  0  0  0  0  0  0  0  0
   -2.6522   -7.8603    0.0000 C   0  0  0  0  0  0  0  0  0  0  0  0
  1  2  2  0
  1  7  1  0
  2  3  1  0
  3  4  2  0
  3  5  1  0
  5  6  1  0
  5 14  1  0
  6  7  2  0
  6 12  1  0
  7  8  1  0
  8  9  2  0
  9 10  1  0
 10 11  2  0
 10 12  1  0
 12 13  1  0
 13 14  1  0
 13 15  1  6
 15 16  1  0
 16 17  1  0
 16 21  1  0
 17 18  1  0
 18 19  1  0
 19 20  1  0
 19 22  1  0
 20 21  1  0
 22 23  1  0
 23 24  1  0
 24 25  2  0
 24 29  1  0
 25 26  1  0
 26 27  2  0
 26 33  1  0
 27 28  1  0
 27 30  1  0
 28 29  2  0
 30 31  1  0
 31 32  1  0
 32 33  1  0
M  END
>  <DRUGBANK_ID>  (1) 
DB12134

>  <COMMON_NAME>  (1) 
Gepotidacin

>  <CAS_NUMBER>  (1) 
1075236-89-3

>  <UNII>  (1) 
DVF0PR037D

>  <SYNONYMS>  (1) 
Gepotidacin

$$$$
