
     RDKit          2D

 37 41  0  0  0  0  0  0  0  0999 V2000
    3.9934    5.7750    0.0000 C   0  0  0  0  0  0  0  0  0  0  0  0
    3.2789    6.1875    0.0000 C   0  0  0  0  0  0  0  0  0  0  0  0
    3.2789    7.0125    0.0000 C   0  0  0  0  0  0  0  0  0  0  0  0
    2.5645    5.7750    0.0000 O   0  0  0  0  0  0  0  0  0  0  0  0
    1.8500    6.1875    0.0000 C   0  0  0  0  0  0  0  0  0  0  0  0
    1.8500    7.0125    0.0000 C   0  0  0  0  0  0  0  0  0  0  0  0
    1.1355    7.4250    0.0000 C   0  0  0  0  0  0  0  0  0  0  0  0
    0.4210    7.0125    0.0000 C   0  0  0  0  0  0  0  0  0  0  0  0
    0.4210    6.1875    0.0000 C   0  0  0  0  0  0  0  0  0  0  0  0
    1.1355    5.7750    0.0000 C   0  0  0  0  0  0  0  0  0  0  0  0
    1.1355    4.9500    0.0000 C   0  0  0  0  0  0  0  0  0  0  0  0
    0.4210    4.5375    0.0000 N   0  0  0  0  0  0  0  0  0  0  0  0
   -0.2934    4.9500    0.0000 C   0  0  0  0  0  0  0  0  0  0  0  0
   -0.2934    5.7750    0.0000 N   0  0  0  0  0  0  0  0  0  0  0  0
    1.8500    4.5375    0.0000 N   0  0  0  0  0  0  0  0  0  0  0  0
    1.8500    3.7125    0.0000 C   0  0  0  0  0  0  0  0  0  0  0  0
    2.5645    3.3000    0.0000 C   0  0  0  0  0  0  0  0  0  0  0  0
    2.5645    2.4750    0.0000 C   0  0  0  0  0  0  0  0  0  0  0  0
    1.8500    2.0625    0.0000 N   0  0  0  0  0  0  0  0  0  0  0  0
    1.1355    2.4750    0.0000 C   0  0  0  0  0  0  0  0  0  0  0  0
    1.1355    3.3000    0.0000 C   0  0  0  0  0  0  0  0  0  0  0  0
    0.3509    3.5549    0.0000 O   0  0  0  0  0  0  0  0  0  0  0  0
   -0.1340    2.8875    0.0000 C   0  0  0  0  0  0  0  0  0  0  0  0
    0.3509    2.2201    0.0000 O   0  0  0  0  0  0  0  0  0  0  0  0
    3.2789    3.7125    0.0000 Cl  0  0  0  0  0  0  0  0  0  0  0  0
    1.1355    8.2500    0.0000 O   0  0  0  0  0  0  0  0  0  0  0  0
    1.8500    8.6625    0.0000 C   0  0  0  0  0  0  0  0  0  0  0  0
    1.8500    9.4875    0.0000 C   0  0  0  0  0  0  0  0  0  0  0  0
    2.5645    9.9000    0.0000 N   0  0  0  0  0  0  0  0  0  0  0  0
    2.5645   10.7250    0.0000 C   0  0  0  0  0  0  0  0  0  0  0  0
    3.2789   11.1375    0.0000 C   0  0  0  0  0  0  0  0  0  0  0  0
    3.9934   10.7250    0.0000 N   0  0  0  0  0  0  0  0  0  0  0  0
    3.9934    9.9000    0.0000 C   0  0  0  0  0  0  0  0  0  0  0  0
    3.2789    9.4875    0.0000 C   0  0  0  0  0  0  0  0  0  0  0  0
    4.7079   11.1375    0.0000 C   0  0  0  0  0  0  0  0  0  0  0  0
    4.7079   11.9625    0.0000 O   0  0  0  0  0  0  0  0  0  0  0  0
    5.4223   10.7250    0.0000 C   0  0  0  0  0  0  0  0  0  0  0  0
  1  2  1  0
  2  3  1  0
  2  4  1  0
  4  5  1  0
  5  6  2  0
  5 10  1  0
  6  7  1  0
  7  8  2  0
  7 26  1  0
  8  9  1  0
  9 10  2  0
  9 14  1  0
 10 11  1  0
 11 12  2  0
 11 15  1  0
 12 13  1  0
 13 14  2  0
 15 16  1  0
 16 17  2  0
 16 21  1  0
 17 18  1  0
 17 25  1  0
 18 19  2  0
 19 20  1  0
 20 21  2  0
 20 24  1  0
 21 22  1  0
 22 23  1  0
 23 24  1  0
 26 27  1  0
 27 28  1  0
 28 29  1  0
 29 30  1  0
 29 34  1  0
 30 31  1  0
 31 32  1  0
 32 33  1  0
 32 35  1  0
 33 34  1  0
 35 36  2  0
 35 37  1  0
M  END
>  <DRUGBANK_ID>  (1) 
DB13088

>  <COMMON_NAME>  (1) 
AZD-0424

>  <CAS_NUMBER>  (1) 
692054-06-1

>  <UNII>  (1) 
642PS51324

$$$$
