SU1
     RDKit          2D

 22 24  0  0  0  0  0  0  0  0999 V2000
    0.7922   -1.0894    0.0000 N   0  0  0  0  0  0  0  0  0  0  0  0
    0.3072   -0.4220    0.0000 C   0  0  0  0  0  0  0  0  0  0  0  0
   -0.5178   -0.4220    0.0000 O   0  0  0  0  0  0  0  0  0  0  0  0
    0.7922    0.2455    0.0000 C   0  0  0  0  0  0  0  0  0  0  0  0
    2.2913    0.4030    0.0000 C   0  0  0  0  0  0  0  0  0  0  0  0
    3.0057   -0.0095    0.0000 C   0  0  0  0  0  0  0  0  0  0  0  0
    3.0057   -0.8345    0.0000 C   0  0  0  0  0  0  0  0  0  0  0  0
    2.2913   -1.2470    0.0000 C   0  0  0  0  0  0  0  0  0  0  0  0
    1.5768   -0.8345    0.0000 C   0  0  0  0  0  0  0  0  0  0  0  0
    1.5768   -0.0095    0.0000 C   0  0  0  0  0  0  0  0  0  0  0  0
    0.5372    1.0301    0.0000 C   0  0  0  0  0  0  0  0  0  0  0  0
   -0.6053    1.9553    0.0000 N   0  0  0  0  0  0  0  0  0  0  0  0
   -0.2697    1.2016    0.0000 C   0  0  0  0  0  0  0  0  0  0  0  0
   -0.8828    0.6496    0.0000 C   0  0  0  0  0  0  0  0  0  0  0  0
   -1.5973    1.0621    0.0000 C   0  0  0  0  0  0  0  0  0  0  0  0
   -1.4258    1.8691    0.0000 C   0  0  0  0  0  0  0  0  0  0  0  0
   -2.3510    0.7265    0.0000 C   0  0  0  0  0  0  0  0  0  0  0  0
   -0.7966   -0.1709    0.0000 C   0  0  0  0  0  0  0  0  0  0  0  0
   -1.4640   -0.6558    0.0000 C   0  0  0  0  0  0  0  0  0  0  0  0
   -1.3778   -1.4763    0.0000 C   0  0  0  0  0  0  0  0  0  0  0  0
   -2.0452   -1.9612    0.0000 O   0  0  0  0  0  0  0  0  0  0  0  0
   -0.6241   -1.8119    0.0000 O   0  0  0  0  0  0  0  0  0  0  0  0
  1  2  1  0
  1  9  1  0
  2  3  2  0
  2  4  1  0
  4 10  1  0
  4 11  2  0
  5  6  1  0
  5 10  2  0
  6  7  2  0
  7  8  1  0
  8  9  2  0
  9 10  1  0
 11 13  1  0
 12 13  1  0
 12 16  1  0
 13 14  2  0
 14 15  1  0
 14 18  1  0
 15 16  2  0
 15 17  1  0
 18 19  1  0
 19 20  1  0
 20 21  2  0
 20 22  1  0
M  END
>  <DRUGBANK_ID>  (1) 
DB08577

>  <COMMON_NAME>  (1) 
3-[(3-(2-CARBOXYETHYL)-4-METHYLPYRROL-2-YL)METHYLENE]-2-INDOLINONE

$$$$
