
     RDKit          2D

 31 32  0  0  1  0  0  0  0  0999 V2000
   -0.2169    0.6674    0.0000 C   0  0  0  0  0  0  0  0  0  0  0  0
    0.5678    0.4125    0.0000 C   0  0  0  0  0  0  0  0  0  0  0  0
    0.5678   -0.4125    0.0000 C   0  0  0  0  0  0  0  0  0  0  0  0
   -0.7018    0.0000    0.0000 C   0  0  0  0  0  0  0  0  0  0  0  0
   -0.2169   -0.6674    0.0000 C   0  0  0  0  0  0  0  0  0  0  0  0
    1.2822   -0.8250    0.0000 C   0  0  0  0  0  0  0  0  0  0  0  0
    1.9967    0.4125    0.0000 C   0  0  0  0  0  0  0  0  0  0  0  0
    1.2822    0.8250    0.0000 C   0  0  0  0  0  0  0  0  0  0  0  0
   -0.4718    1.4521    0.0000 O   0  0  0  0  0  0  0  0  0  0  0  0
   -0.4718   -1.4521    0.0000 O   0  0  0  0  0  0  0  0  0  0  0  0
    3.4256    2.0625    0.0000 C   0  0  0  0  0  0  0  0  0  0  0  0
    2.7112    1.6500    0.0000 C   0  0  0  0  0  0  0  0  0  0  0  0
    4.8546    2.0625    0.0000 C   0  0  0  0  0  0  0  0  0  0  0  0
    4.1401    1.6500    0.0000 C   0  0  0  0  0  0  0  0  0  0  0  0
    6.2835    2.0625    0.0000 C   0  0  0  0  0  0  0  0  0  0  0  0
    5.5691    1.6500    0.0000 O   0  0  0  0  0  0  0  0  0  0  0  0
    6.9980    1.6500    0.0000 C   0  0  0  0  0  0  0  0  0  0  0  0
    4.8546    2.8875    0.0000 O   0  0  0  0  0  0  0  0  0  0  0  0
    6.2835    2.8875    0.0000 C   0  0  0  0  0  0  0  0  0  0  0  0
    1.9967   -0.4125    0.0000 C   0  0  0  0  0  0  0  0  0  0  0  0
    2.7112   -0.8250    0.0000 C   0  0  0  0  0  0  0  0  0  0  0  0
    2.7112   -1.6500    0.0000 O   0  0  0  0  0  0  0  0  0  0  0  0
    4.1401   -0.8250    0.0000 C   0  0  0  0  0  0  0  0  0  0  0  0
    4.8546   -0.4125    0.0000 C   0  0  0  0  0  0  0  0  0  0  0  0
    5.5691   -0.8250    0.0000 C   0  0  0  0  0  0  0  0  0  0  0  0
    6.2835   -0.4125    0.0000 C   0  0  0  0  0  0  0  0  0  0  0  0
    6.2835    0.4125    0.0000 C   0  0  0  0  0  0  0  0  0  0  0  0
    5.5691    0.8250    0.0000 C   0  0  0  0  0  0  0  0  0  0  0  0
    3.4256   -0.4125    0.0000 C   0  0  0  0  0  0  0  0  0  0  0  0
    2.7112    0.8250    0.0000 C   0  0  0  0  0  0  0  0  0  0  0  0
    4.8546    0.4125    0.0000 C   0  0  0  0  0  0  0  0  0  0  0  0
  1  9  1  6
  1  4  1  0
  2  1  1  0
  2  8  1  6
  3  2  1  0
  3  6  1  1
  3  5  1  0
  4  5  1  0
  5 10  1  6
  6 20  1  0
  7  8  1  0
  7 30  2  0
 11 12  1  0
 11 14  1  0
 13 14  1  0
 13 16  1  0
 13 18  2  0
 15 16  1  0
 15 17  1  0
 15 19  1  0
 20 21  1  0
 21 29  1  0
 21 22  1  6
 23 24  1  0
 24 25  2  0
 24 31  1  0
 25 26  1  0
 26 27  2  0
 27 28  1  0
 28 31  2  0
 29 23  1  0
 30 12  1  0
M  END
>  <DRUGBANK_ID>  (1) 
DB00654

>  <SECONDARY_ACCESSION_NUMBERS>  (1) 
APRD01065

>  <COMMON_NAME>  (1) 
Latanoprost

>  <CAS_NUMBER>  (1) 
130209-82-4

>  <UNII>  (1) 
6Z5B6HVF6O

>  <SYNONYMS>  (1) 
isopropyl (Z)-7-((1R,2R,3R,5S)-3,5-dihydroxy-2-((3R)-3-hydroxy-5-phenylpentyl)cyclopentyl)-5-heptenoate; Latanoprost; Latanoprostum; propan-2-yl (5Z)-7-{(1R,2R,3R,5S)-3,5-dihydroxy-2-[(3R)-3-hydroxy-5-phenylpentyl]cyclopentyl}hept-5-enoate

$$$$
