
     RDKit          2D

  9  9  0  0  0  0  0  0  0  0999 V2000
   -1.7299   -0.1529    0.0000 N   0  0  0  0  0  0  0  0  0  0  0  0
   -2.1422    0.5651    0.0000 C   0  0  0  0  0  0  0  0  0  0  0  0
   -2.5545   -0.1529    0.0000 C   0  0  0  0  0  0  0  0  0  0  0  0
   -1.0152   -0.5651    0.0000 C   0  0  0  0  0  0  0  0  0  0  0  0
    0.4105   -0.5651    0.0000 N   0  0  0  0  0  0  0  0  0  0  0  0
    2.5545   -0.1493    0.0000 N   0  0  0  0  0  0  0  0  0  0  0  0
   -0.3006   -0.1529    0.0000 C   0  0  0  0  0  0  0  0  0  0  0  0
    1.1252   -0.1529    0.0000 C   0  0  0  0  0  0  0  0  0  0  0  0
    1.8364   -0.5651    0.0000 C   0  0  0  0  0  0  0  0  0  0  0  0
  2  1  1  0
  3  1  1  0
  3  2  1  0
  4  1  1  0
  5  7  1  0
  6  9  1  0
  7  4  1  0
  8  5  1  0
  9  8  1  0
M  END
>  <DRUGBANK_ID>  (1) 
DB15643

>  <COMMON_NAME>  (1) 
N-(2-Aminoethyl)-1-aziridineethanamine

>  <CAS_NUMBER>  (1) 
23435-23-6

>  <UNII>  (1) 
K93WMR7E2S

>  <SYNONYMS>  (1) 
N-(2-((2-Aminoethyl)amino)ethyl)aziridine; N-(2-aminoethyl)-1 aziridine-ethanamine

$$$$
