
     RDKit          2D

 12 13  0  0  0  0  0  0  0  0999 V2000
    0.4534   -0.5108    0.0000 C   0  0  0  0  0  0  0  0  0  0  0  0
    0.4383    0.3140    0.0000 C   0  0  0  0  0  0  0  0  0  0  0  0
   -0.2595   -0.9482    0.0000 N   0  0  0  0  0  0  0  0  0  0  0  0
   -1.0031    0.2641    0.0000 N   0  0  0  0  0  0  0  0  0  0  0  0
    1.2212    0.5978    0.0000 N   0  0  0  0  0  0  0  0  0  0  0  0
   -0.2899    0.7015    0.0000 C   0  0  0  0  0  0  0  0  0  0  0  0
   -0.9879   -0.5606    0.0000 C   0  0  0  0  0  0  0  0  0  0  0  0
    1.2342   -0.7435    0.0000 N   0  0  0  0  0  0  0  0  0  0  0  0
    1.7010   -0.0646    0.0000 C   0  0  0  0  0  0  0  0  0  0  0  0
   -0.3052    1.5263    0.0000 O   0  0  0  0  0  0  0  0  0  0  0  0
   -1.7010   -0.9981    0.0000 N   0  0  0  0  0  0  0  0  0  0  0  0
    1.5180   -1.5263    0.0000 C   0  0  0  0  0  0  0  0  0  0  0  0
  2  1  2  0
  3  1  1  0
  4  7  1  0
  5  2  1  0
  5  9  2  0
  6  2  1  0
  6  4  1  0
  7  3  2  0
  8  1  1  0
  9  8  1  0
 10  6  2  0
 11  7  1  0
 12  8  1  0
M  END
>  <DRUGBANK_ID>  (1) 
DB02489

>  <SECONDARY_ACCESSION_NUMBERS>  (1) 
EXPT00360

>  <COMMON_NAME>  (1) 
9-Methylguanine

>  <CAS_NUMBER>  (1) 
5502-78-3

>  <UNII>  (1) 
397W61ZHWY

$$$$
