
     RDKit          2D

 18 19  0  0  0  0  0  0  0  0999 V2000
   -0.2689    0.3254    0.0000 C   0  0  0  0  0  0  0  0  0  0  0  0
    0.1435    1.0399    0.0000 C   0  0  0  0  0  0  0  0  0  0  0  0
   -0.2689    1.7544    0.0000 O   0  0  0  0  0  0  0  0  0  0  0  0
    0.9685    1.0399    0.0000 C   0  0  0  0  0  0  0  0  0  0  0  0
    1.3810    1.7544    0.0000 O   0  0  0  0  0  0  0  0  0  0  0  0
    1.3810    0.3254    0.0000 C   0  0  0  0  0  0  0  0  0  0  0  0
    2.2060    0.3254    0.0000 O   0  0  0  0  0  0  0  0  0  0  0  0
    0.9685   -0.3890    0.0000 C   0  0  0  0  0  0  0  0  0  0  0  0
    1.3810   -1.1034    0.0000 C   0  0  0  0  0  0  0  0  0  0  0  0
    0.9685   -1.8179    0.0000 O   0  0  0  0  0  0  0  0  0  0  0  0
    0.1435   -0.3890    0.0000 O   0  0  0  0  0  0  0  0  0  0  0  0
   -0.7538   -0.3419    0.0000 N   0  0  0  0  0  0  0  0  0  0  0  0
   -1.5386   -0.0870    0.0000 C   0  0  0  0  0  0  0  0  0  0  0  0
   -2.2060   -0.5719    0.0000 O   0  0  0  0  0  0  0  0  0  0  0  0
   -1.5386    0.7379    0.0000 N   0  0  0  0  0  0  0  0  0  0  0  0
   -0.7538    0.9929    0.0000 C   0  0  0  0  0  0  0  0  0  0  0  0
   -0.7538    1.8179    0.0000 O   0  0  0  0  0  0  0  0  0  0  0  0
   -2.2060    1.2228    0.0000 C   0  0  0  0  0  0  0  0  0  0  0  0
  1  2  1  0
  1 11  1  0
  1 12  1  1
  1 16  1  0
  2  3  1  6
  2  4  1  0
  4  5  1  1
  4  6  1  0
  6  7  1  6
  6  8  1  0
  8  9  1  1
  8 11  1  0
  9 10  1  0
 13 12  1  0
 13 14  2  0
 13 15  1  0
 16 15  1  0
 16 17  2  0
 18 15  1  0
M  END
>  <DRUGBANK_ID>  (1) 
DB03479

>  <SECONDARY_ACCESSION_NUMBERS>  (1) 
EXPT01600

>  <COMMON_NAME>  (1) 
8,9,10-trihydroxy-7-hydroxymethyl-3-methyl-6-oxa-1,3-diaza-spiro[4.5]decane-2,4-dione

$$$$
