
     RDKit          2D

 11 10  0  0  0  0  0  0  0  0999 V2000
   -2.1436   -0.2062    0.0000 C   0  0  0  0  0  0  0  0  0  0  0  0
   -1.4290   -0.6187    0.0000 C   0  0  0  0  0  0  0  0  0  0  0  0
    0.7145   -0.2062    0.0000 C   0  0  0  0  0  0  0  0  0  0  0  0
    0.0000   -0.6187    0.0000 C   0  0  0  0  0  0  0  0  0  0  0  0
    1.4290   -0.6187    0.0000 C   0  0  0  0  0  0  0  0  0  0  0  0
   -0.7145   -0.2062    0.0000 C   0  0  0  0  0  0  0  0  0  0  0  0
    2.1436   -0.2062    0.0000 C   0  0  0  0  0  0  0  0  0  0  0  0
    2.8582   -0.6187    0.0000 O   0  0  0  0  0  0  0  0  0  0  0  0
   -2.8582   -0.6187    0.0000 C   0  0  0  0  0  0  0  0  0  0  0  0
    0.7144    0.6187    0.0000 C   0  0  0  0  0  0  0  0  0  0  0  0
   -2.1436    0.6187    0.0000 C   0  0  0  0  0  0  0  0  0  0  0  0
  1 11  1  0
  1  9  1  0
  2  1  2  3
  3 10  1  0
  3  4  1  0
  3  5  2  0
  4  6  1  0
  5  7  1  0
  6  2  1  0
  7  8  1  0
M  END
>  <DRUGBANK_ID>  (1) 
DB14183

>  <COMMON_NAME>  (1) 
Geraniol

>  <CAS_NUMBER>  (1) 
106-24-1

>  <UNII>  (1) 
L837108USY

>  <SYNONYMS>  (1) 
(2E)-3,7-dimethylocta-2,6-dien-1-ol; (E)-3,7-Dimethyl-2,6-octadien-1-ol; (E)-Geraniol; (E)-Nerol; 2-trans-3,7-Dimethyl-2,6-octadien-1-ol; 2,6-Octadien-1-ol, 3,7-dimethyl-, (E)-; 2,6-Octadien-1-ol, 3,7-dimethyl-, trans-; 3,7-Dimethyl-2,6-octadien-1-ol, (E)-; 3,7-Dimethyl-trans-2,6-octadien-1-ol; geranyl alcohol; Lemonol; t-geraniol

$$$$
