
     RDKit          2D

 11 11  0  0  0  0  0  0  0  0999 V2000
    0.3562   -0.2000    0.0000 C   0  0  0  0  0  0  0  0  0  0  0  0
   -0.3562   -0.6375    0.0000 C   0  0  0  0  0  0  0  0  0  0  0  0
   -1.0687   -0.2000    0.0000 C   0  0  0  0  0  0  0  0  0  0  0  0
   -1.0687    0.6125    0.0000 C   0  0  0  0  0  0  0  0  0  0  0  0
   -0.3562    1.0500    0.0000 C   0  0  0  0  0  0  0  0  0  0  0  0
    0.3562    0.6125    0.0000 C   0  0  0  0  0  0  0  0  0  0  0  0
    1.0687   -0.6000    0.0000 O   0  0  0  0  0  0  0  0  0  0  0  0
   -0.3562    1.8751    0.0000 C   0  0  0  0  0  0  0  0  0  0  0  0
    0.3562   -1.8751    0.0000 C   0  0  0  0  0  0  0  0  0  0  0  0
   -0.3562   -1.4625    0.0000 C   0  0  0  0  0  0  0  0  0  0  0  0
   -1.0687   -1.8751    0.0000 C   0  0  0  0  0  0  0  0  0  0  0  0
  1  7  1  6
  2  1  1  0
  2 10  1  1
  3  2  1  0
  4  3  1  0
  5  4  1  0
  5  8  1  6
  6  1  1  0
  6  5  1  0
 10  9  1  0
 11 10  1  0
M  END
>  <DRUGBANK_ID>  (1) 
DB11344

>  <COMMON_NAME>  (1) 
(+)-menthol

>  <CAS_NUMBER>  (1) 
15356-60-2

>  <UNII>  (1) 
C6B1OE8P3W

>  <SYNONYMS>  (1) 
(+)-(1S,2R,5S)-menthol; (+)-(1S,3S,4R)-menthol; (1S,2R,5S)-(+)-menthol; (1S,2R,5S)-menthol; D-menthol

$$$$
