
     RDKit          2D

 22 23  0  0  0  0  0  0  0  0999 V2000
    5.9369   -2.9035    0.0000 Cl  0  0  0  0  0  0  0  0  0  0  0  0
    7.3659    0.3965    0.0000 S   0  0  0  0  0  0  0  0  0  0  0  0
    4.5079   -2.0785    0.0000 O   0  0  0  0  0  0  0  0  0  0  0  0
    7.0639    2.9035    0.0000 O   0  0  0  0  0  0  0  0  0  0  0  0
    5.9369    0.3965    0.0000 N   0  0  0  0  0  0  0  0  0  0  0  0
    5.9369   -0.4285    0.0000 C   0  0  0  0  0  0  0  0  0  0  0  0
    6.6514    1.6340    0.0000 C   0  0  0  0  0  0  0  0  0  0  0  0
    5.2224   -1.6660    0.0000 C   0  0  0  0  0  0  0  0  0  0  0  0
    5.2224   -0.8410    0.0000 C   0  0  0  0  0  0  0  0  0  0  0  0
    7.3188    2.1190    0.0000 C   0  0  0  0  0  0  0  0  0  0  0  0
    6.6514    0.8090    0.0000 C   0  0  0  0  0  0  0  0  0  0  0  0
    6.6514   -0.8410    0.0000 C   0  0  0  0  0  0  0  0  0  0  0  0
    3.7935   -1.6660    0.0000 C   0  0  0  0  0  0  0  0  0  0  0  0
    5.9369   -2.0785    0.0000 C   0  0  0  0  0  0  0  0  0  0  0  0
    6.6514   -1.6660    0.0000 C   0  0  0  0  0  0  0  0  0  0  0  0
    5.9840    2.1190    0.0000 C   0  0  0  0  0  0  0  0  0  0  0  0
    3.0790   -2.0785    0.0000 C   0  0  0  0  0  0  0  0  0  0  0  0
    2.3645   -1.6660    0.0000 C   0  0  0  0  0  0  0  0  0  0  0  0
    8.1035    1.8640    0.0000 C   0  0  0  0  0  0  0  0  0  0  0  0
    6.2389    2.9035    0.0000 C   0  0  0  0  0  0  0  0  0  0  0  0
    1.6500   -2.0785    0.0000 C   0  0  0  0  0  0  0  0  0  0  0  0
    2.3645   -0.8410    0.0000 C   0  0  0  0  0  0  0  0  0  0  0  0
  1 14  1  0
  2 11  2  0
  3  8  1  0
  3 13  1  0
  4 10  1  0
  4 20  1  0
  5  6  1  0
  5 11  1  0
  6  9  1  0
  6 12  2  0
  7 10  2  0
  7 11  1  0
  7 16  1  0
  8  9  2  0
  8 14  1  0
 10 19  1  0
 12 15  1  0
 13 17  1  0
 14 15  2  0
 16 20  2  0
 17 18  2  3
 18 21  1  0
 18 22  1  0
M  END
>  <DRUGBANK_ID>  (1) 
DB05871

>  <SECONDARY_ACCESSION_NUMBERS>  (1) 
DB08679

>  <COMMON_NAME>  (1) 
UC-781

>  <CAS_NUMBER>  (1) 
178870-32-1

>  <UNII>  (1) 
L7K247H29H

$$$$
