MVB
     RDKit          2D

 22 24  0  0  0  0  0  0  0  0999 V2000
   -1.9420    3.0097    0.0000 O   0  0  0  0  0  0  0  0  0  0  0  0
    0.2014    2.5972    0.0000 C   0  0  0  0  0  0  0  0  0  0  0  0
    0.9159    3.0097    0.0000 O   0  0  0  0  0  0  0  0  0  0  0  0
    0.2014    1.7722    0.0000 O   0  0  0  0  0  0  0  0  0  0  0  0
    1.6303    0.1222    0.0000 O   0  0  0  0  0  0  0  0  0  0  0  0
   -0.5131    1.3597    0.0000 C   0  0  0  0  0  0  0  0  0  0  0  0
   -1.2275    1.7722    0.0000 C   0  0  0  0  0  0  0  0  0  0  0  0
   -1.2275    2.5972    0.0000 C   0  0  0  0  0  0  0  0  0  0  0  0
   -0.5131    3.0097    0.0000 C   0  0  0  0  0  0  0  0  0  0  0  0
   -1.2275   -0.7028    0.0000 C   0  0  0  0  0  0  0  0  0  0  0  0
   -0.5131    0.5347    0.0000 C   0  0  0  0  0  0  0  0  0  0  0  0
    0.2014    0.1222    0.0000 C   0  0  0  0  0  0  0  0  0  0  0  0
    0.2014   -0.7028    0.0000 C   0  0  0  0  0  0  0  0  0  0  0  0
   -0.5131   -1.1153    0.0000 C   0  0  0  0  0  0  0  0  0  0  0  0
   -0.5131   -1.9403    0.0000 C   0  0  0  0  0  0  0  0  0  0  0  0
    0.2014   -2.3528    0.0000 C   0  0  0  0  0  0  0  0  0  0  0  0
    0.9159   -1.9403    0.0000 C   0  0  0  0  0  0  0  0  0  0  0  0
    0.9159   -1.1153    0.0000 C   0  0  0  0  0  0  0  0  0  0  0  0
    1.6303   -0.7028    0.0000 C   0  0  0  0  0  0  0  0  0  0  0  0
    2.3448   -1.1153    0.0000 C   0  0  0  0  0  0  0  0  0  0  0  0
    2.3448   -1.9403    0.0000 C   0  0  0  0  0  0  0  0  0  0  0  0
    1.6303   -2.3528    0.0000 C   0  0  0  0  0  0  0  0  0  0  0  0
  2  3  2  0
  2  4  1  0
  2  9  1  0
  4  6  1  0
  6  7  1  0
  6 11  1  1
  7  8  1  0
  8  1  1  1
  8  9  1  0
 11 12  1  0
 13 12  1  6
 13 14  1  0
 13 18  1  0
 14 10  1  6
 14 15  1  0
 15 16  2  0
 16 17  1  0
 18 17  1  1
 17 22  2  0
 18 19  1  0
 19  5  1  1
 19 20  1  0
 20 21  1  0
 21 22  1  0
M  END
>  <DRUGBANK_ID>  (1) 
DB08224

>  <COMMON_NAME>  (1) 
(1S,7S,8S,8AR)-1,2,3,7,8,8A-HEXAHYDRO-7-METHYL-8-[2-[(2R,4R)-TETRAHYDRO-4-HY DROXY-6-OXO-2H-PYRAN-2-YL]ETHYL]-1-NAPHTHALENOL

$$$$
