
     RDKit          2D

 20 19  0  0  1  0  0  0  0  0999 V2000
    2.2836    2.1434    0.0000 C   0  0  0  0  0  0  0  0  0  0  0  0
    9.4283    0.4934    0.0000 C   0  0  0  0  0  0  0  0  0  0  0  0
    8.6033    1.3184    0.0000 C   0  0  0  0  0  0  0  0  0  0  0  0
   10.2533    1.3184    0.0000 C   0  0  0  0  0  0  0  0  0  0  0  0
    2.9980    2.5559    0.0000 C   0  0  0  0  0  0  0  0  0  0  0  0
    3.7125    2.1434    0.0000 C   0  0  0  0  0  0  0  0  0  0  0  0
    4.4270    2.5559    0.0000 C   0  0  0  0  0  0  0  0  0  0  0  0
    5.1414    2.1434    0.0000 C   0  0  0  0  0  0  0  0  0  0  0  0
    5.8559    2.5559    0.0000 C   0  0  0  0  0  0  0  0  0  0  0  0
    6.5704    2.1434    0.0000 C   0  0  0  0  0  0  0  0  0  0  0  0
    8.7138    3.3809    0.0000 C   0  0  0  0  0  0  0  0  0  0  0  0
    9.4283    2.1434    0.0000 C   0  0  0  0  0  0  0  0  0  0  0  0
    8.7138    2.5559    0.0000 C   0  0  0  0  0  0  0  0  0  0  0  0
    9.4283    3.7934    0.0000 C   0  0  0  0  0  0  0  0  0  0  0  0
    7.2849    2.5559    0.0000 C   0  0  0  0  0  0  0  0  0  0  0  0
    9.4283    1.3184    0.0000 N   0  0  0  0  0  0  0  0  0  0  0  0
    9.4283    4.6184    0.0000 O   0  0  0  0  0  0  0  0  0  0  0  0
   10.1427    3.3809    0.0000 O   0  0  0  0  0  0  0  0  0  0  0  0
    7.2849    3.3809    0.0000 O   0  0  0  0  0  0  0  0  0  0  0  0
    7.9993    2.1434    0.0000 O   0  0  0  0  0  0  0  0  0  0  0  0
  5  1  1  0
  6  5  1  0
  7  6  1  0
  8  7  1  0
  9  8  1  0
 10  9  1  0
 13 11  1  6
 13 12  1  0
 13 20  1  0
 14 11  1  0
 15 10  1  0
 16  2  1  0
 16  3  1  0
 16  4  1  0
 16 12  1  0
 17 14  2  0
 18 14  1  0
 19 15  2  0
 20 15  1  0
M  CHG  1  16   1
M  END
>  <DRUGBANK_ID>  (1) 
DB03832

>  <SECONDARY_ACCESSION_NUMBERS>  (1) 
EXPT02414

>  <COMMON_NAME>  (1) 
3-Carboxy-N,N,N-Trimethyl-2-(Octanoyloxy)Propan-1-Aminium

$$$$
