885
     RDKit          2D

 20 21  0  0  0  0  0  0  0  0999 V2000
    2.8793   -0.7742    0.0000 C   0  0  0  0  0  0  0  0  0  0  0  0
    2.2662   -0.2222    0.0000 C   0  0  0  0  0  0  0  0  0  0  0  0
    1.4815   -0.4771    0.0000 C   0  0  0  0  0  0  0  0  0  0  0  0
    0.8685    0.0749    0.0000 C   0  0  0  0  0  0  0  0  0  0  0  0
    1.0400    0.8819    0.0000 C   0  0  0  0  0  0  0  0  0  0  0  0
    1.8246    1.1368    0.0000 C   0  0  0  0  0  0  0  0  0  0  0  0
    2.4377    0.5848    0.0000 C   0  0  0  0  0  0  0  0  0  0  0  0
    3.2223    0.8397    0.0000 Cl  0  0  0  0  0  0  0  0  0  0  0  0
    0.4269    1.4339    0.0000 N   0  0  0  0  0  0  0  0  0  0  0  0
    0.0838   -0.1800    0.0000 S   0  0  0  0  0  0  0  0  0  0  0  0
   -0.1711    0.6046    0.0000 O   0  0  0  0  0  0  0  0  0  0  0  0
    0.3388   -0.9647    0.0000 O   0  0  0  0  0  0  0  0  0  0  0  0
   -0.7008   -0.4350    0.0000 N   0  0  0  0  0  0  0  0  0  0  0  0
   -0.9557   -1.2196    0.0000 C   0  0  0  0  0  0  0  0  0  0  0  0
   -1.7807   -1.2196    0.0000 C   0  0  0  0  0  0  0  0  0  0  0  0
   -2.0357   -0.4350    0.0000 C   0  0  0  0  0  0  0  0  0  0  0  0
   -1.3682    0.0499    0.0000 C   0  0  0  0  0  0  0  0  0  0  0  0
   -1.3682    0.8749    0.0000 C   0  0  0  0  0  0  0  0  0  0  0  0
   -2.0827    1.2874    0.0000 O   0  0  0  0  0  0  0  0  0  0  0  0
   -0.6538    1.2874    0.0000 O   0  0  0  0  0  0  0  0  0  0  0  0
  1  2  1  0
  2  3  2  0
  2  7  1  0
  3  4  1  0
  4  5  2  0
  4 10  1  0
  5  6  1  0
  5  9  1  0
  6  7  2  0
  7  8  1  0
 10 11  2  0
 10 12  2  0
 10 13  1  0
 13 14  1  0
 13 17  1  0
 14 15  1  0
 15 16  1  0
 16 17  1  0
 17 18  1  1
 18 19  1  0
 18 20  2  0
M  END
>  <DRUGBANK_ID>  (1) 
DB07273

>  <COMMON_NAME>  (1) 
1-[(2-AMINO-4-CHLORO-5-METHYLPHENYL)SULFONYL]-L-PROLINE

$$$$
