I0G
     RDKit          2D

 21 24  0  0  0  0  0  0  0  0999 V2000
    0.2635   -3.7888    0.0000 C   0  0  0  0  0  0  0  0  0  0  0  0
   -0.5611   -3.7631    0.0000 C   0  0  0  0  0  0  0  0  0  0  0  0
   -0.9957   -4.4643    0.0000 C   0  0  0  0  0  0  0  0  0  0  0  0
   -1.8203   -4.4386    0.0000 C   0  0  0  0  0  0  0  0  0  0  0  0
   -2.2103   -3.7115    0.0000 C   0  0  0  0  0  0  0  0  0  0  0  0
    1.5673   -1.6851    0.0000 C   0  0  0  0  0  0  0  0  0  0  0  0
    0.7873   -0.2311    0.0000 C   0  0  0  0  0  0  0  0  0  0  0  0
    0.3527   -0.9323    0.0000 C   0  0  0  0  0  0  0  0  0  0  0  0
    1.5599   -4.1070    0.0000 C   0  0  0  0  0  0  0  0  0  0  0  0
    1.4993   -3.2842    0.0000 C   0  0  0  0  0  0  0  0  0  0  0  0
    0.6981   -3.0876    0.0000 C   0  0  0  0  0  0  0  0  0  0  0  0
   -2.2549   -5.1398    0.0000 O   0  0  0  0  0  0  0  0  0  0  0  0
   -1.7757   -3.0103    0.0000 C   0  0  0  0  0  0  0  0  0  0  0  0
   -0.9511   -3.0361    0.0000 C   0  0  0  0  0  0  0  0  0  0  0  0
   -0.5165   -2.3348    0.0000 O   0  0  0  0  0  0  0  0  0  0  0  0
    0.3081   -2.3606    0.0000 C   0  0  0  0  0  0  0  0  0  0  0  0
    0.7427   -1.6594    0.0000 C   0  0  0  0  0  0  0  0  0  0  0  0
    2.0019   -0.9839    0.0000 C   0  0  0  0  0  0  0  0  0  0  0  0
    1.6119   -0.2569    0.0000 C   0  0  0  0  0  0  0  0  0  0  0  0
    2.0465    0.4444    0.0000 O   0  0  0  0  0  0  0  0  0  0  0  0
    0.7961   -4.4189    0.0000 C   0  0  0  0  0  0  0  0  0  0  0  0
  1 21  1  1
  1  2  1  0
  1 11  1  0
  2  3  2  0
  2 14  1  0
  3  4  1  0
  4 12  1  0
  4  5  2  0
  5 13  1  0
  6 17  2  0
  6 18  1  0
  7  8  2  0
  7 19  1  0
  8 17  1  0
  9 21  1  0
  9 10  1  0
 11 10  1  1
 11 16  1  0
 13 14  2  0
 14 15  1  0
 15 16  1  0
 16 17  1  1
 18 19  2  0
 19 20  1  0
M  END
>  <DRUGBANK_ID>  (1) 
DB07933

>  <SECONDARY_ACCESSION_NUMBERS>  (1) 
DB12801

>  <COMMON_NAME>  (1) 
Erteberel

>  <CAS_NUMBER>  (1) 
533884-09-2

>  <UNII>  (1) 
2ZUL6758TZ

>  <SYNONYMS>  (1) 
(3aS,4R,9bR)-4-(4-Hydroxyphenyl)-1,2,3,3a,4,9b-hexahydrocyclopenta(c)(1) benzopyran-8-ol; Erteberel

$$$$
