
     RDKit          2D

  4  3  0  0  0  0  0  0  0  0999 V2000
    1.2375    0.7145    0.0000 O   0  0  0  0  0  0  0  0  0  0  0  0
    0.8250    0.0000    0.0000 As  0  0  0  0  0  3  0  0  0  0  0  0
    1.2375   -0.7145    0.0000 O   0  0  0  0  0  0  0  0  0  0  0  0
    0.0000    0.0000    0.0000 O   0  0  0  0  0  0  0  0  0  0  0  0
  1  2  1  0
  2  3  1  0
  2  4  1  0
M  END
>  <DRUGBANK_ID>  (1) 
DB04456

>  <SECONDARY_ACCESSION_NUMBERS>  (1) 
EXPT03008

>  <COMMON_NAME>  (1) 
Arsenous acid

>  <CAS_NUMBER>  (1) 
13464-58-9

>  <UNII>  (1) 
935XD1L5K2

>  <SYNONYMS>  (1) 
arsenic trihydroxide; arsenous acid; arsorous acid; trihydroxyarsenite(III)

$$$$
