
     RDKit          2D

 28 31  0  0  0  0  0  0  0  0999 V2000
    4.0668    2.3479    0.0000 C   0  0  0  0  0  0  0  0  0  0  0  0
    3.3523    1.9354    0.0000 C   0  0  0  0  0  0  0  0  0  0  0  0
    3.3523    1.1104    0.0000 C   0  0  0  0  0  0  0  0  0  0  0  0
    2.6378    0.6979    0.0000 C   0  0  0  0  0  0  0  0  0  0  0  0
    2.6378   -0.1271    0.0000 C   0  0  0  0  0  0  0  0  0  0  0  0
    1.9233    1.1104    0.0000 C   0  0  0  0  0  0  0  0  0  0  0  0
    1.1387    0.8555    0.0000 C   0  0  0  0  0  0  0  0  0  0  0  0
    0.6538    1.5229    0.0000 N   0  0  0  0  0  0  0  0  0  0  0  0
    1.1387    2.1904    0.0000 C   0  0  0  0  0  0  0  0  0  0  0  0
    1.9233    1.9354    0.0000 C   0  0  0  0  0  0  0  0  0  0  0  0
    2.6378    2.3479    0.0000 N   0  0  0  0  0  0  0  0  0  0  0  0
   -0.1712    1.5229    0.0000 C   0  0  0  0  0  0  0  0  0  0  0  0
   -0.5837    2.2374    0.0000 O   0  0  0  0  0  0  0  0  0  0  0  0
   -0.5837    0.8085    0.0000 C   0  0  0  0  0  0  0  0  0  0  0  0
   -1.4087    0.8085    0.0000 C   0  0  0  0  0  0  0  0  0  0  0  0
   -1.9921    0.2251    0.0000 C   0  0  0  0  0  0  0  0  0  0  0  0
   -2.5754    0.8085    0.0000 N   0  0  0  0  0  0  0  0  0  0  0  0
   -1.9921    1.3918    0.0000 C   0  0  0  0  0  0  0  0  0  0  0  0
   -3.4004    0.8085    0.0000 C   0  0  0  0  0  0  0  0  0  0  0  0
   -3.8129    0.0940    0.0000 C   0  0  0  0  0  0  0  0  0  0  0  0
   -4.6379    0.0940    0.0000 C   0  0  0  0  0  0  0  0  0  0  0  0
   -5.0504    0.8085    0.0000 N   0  0  0  0  0  0  0  0  0  0  0  0
   -4.6379    1.5229    0.0000 C   0  0  0  0  0  0  0  0  0  0  0  0
   -3.8129    1.5229    0.0000 C   0  0  0  0  0  0  0  0  0  0  0  0
   -5.0504    2.2374    0.0000 C   0  0  0  0  0  0  0  0  0  0  0  0
   -5.4629    2.9519    0.0000 F   0  0  0  0  0  0  0  0  0  0  0  0
   -4.3360    2.6499    0.0000 F   0  0  0  0  0  0  0  0  0  0  0  0
   -5.7649    1.8249    0.0000 F   0  0  0  0  0  0  0  0  0  0  0  0
  1  2  1  0
  2  3  2  0
  2 11  1  0
  3  4  1  0
  4  5  1  0
  4  6  2  0
  6  7  1  0
  6 10  1  0
  7  8  1  0
  8  9  1  0
  8 12  1  0
  9 10  1  0
 10 11  2  0
 12 13  2  0
 12 14  1  0
 14 15  1  0
 15 16  1  0
 15 18  1  0
 16 17  1  0
 17 18  1  0
 17 19  1  0
 19 20  2  0
 19 24  1  0
 20 21  1  0
 21 22  2  0
 22 23  1  0
 23 24  2  0
 23 25  1  0
 25 26  1  0
 25 27  1  0
 25 28  1  0
M  END
>  <DRUGBANK_ID>  (1) 
DB18706

>  <COMMON_NAME>  (1) 
Emraclidine

>  <CAS_NUMBER>  (1) 
2170722-84-4

>  <UNII>  (1) 
J241Y80EEO

>  <SYNONYMS>  (1) 
CVL-231; Emraclidine; Ethanone, 1-(5,7-dihydro-2,4-dimethyl-6h-pyrrolo(3,4-b)pyridin-6-yl)-2-(1-(2-(trifluoromethyl)-4-pyridinyl)-3-azetidinyl)-

$$$$
