
     RDKit          2D

 19 21  0  0  1  0  0  0  0  0999 V2000
   16.2146  -10.8079    0.0000 C   0  0  0  0  0  0  0  0  0  0  0  0
   17.0396  -10.8079    0.0000 C   0  0  0  0  0  0  0  0  0  0  0  0
   17.2944  -10.0232    0.0000 C   0  0  0  0  0  0  0  0  0  0  0  0
   16.6270   -9.5385    0.0000 N   0  0  0  0  0  0  0  0  0  0  0  0
   15.9597  -10.0232    0.0000 C   0  0  0  0  0  0  0  0  0  0  0  0
   15.7297  -11.4752    0.0000 O   0  0  0  0  0  0  0  0  0  0  0  0
   17.5244  -11.4752    0.0000 O   0  0  0  0  0  0  0  0  0  0  0  0
   15.1822   -9.7707    0.0000 C   0  0  0  0  0  0  0  0  0  0  0  0
   18.0720   -9.7707    0.0000 C   0  0  0  0  0  0  0  0  0  0  0  0
   14.5669  -10.3246    0.0000 O   0  0  0  0  0  0  0  0  0  0  0  0
   18.6974  -10.3130    0.0000 C   0  0  0  0  0  0  0  0  0  0  0  0
   19.4066   -9.8868    0.0000 C   0  0  0  0  0  0  0  0  0  0  0  0
   19.2203   -9.0806    0.0000 N   0  0  0  0  0  0  0  0  0  0  0  0
   18.3961   -9.0086    0.0000 C   0  0  0  0  0  0  0  0  0  0  0  0
   18.7120  -11.1379    0.0000 N   0  0  0  0  0  0  0  0  0  0  0  0
   19.4334  -11.5377    0.0000 C   0  0  0  0  0  0  0  0  0  0  0  0
   20.1426  -11.1115    0.0000 N   0  0  0  0  0  0  0  0  0  0  0  0
   20.1281  -10.2867    0.0000 C   0  0  0  0  0  0  0  0  0  0  0  0
   20.8417   -9.8578    0.0000 O   0  0  0  0  0  0  0  0  0  0  0  0
  1  2  1  0
  1  5  1  0
  1  6  1  6
  2  3  1  0
  2  7  1  6
  3  4  1  0
  3  9  1  1
  4  5  1  0
  5  8  1  1
  8 10  1  0
  9 11  1  0
  9 14  2  0
 11 12  2  0
 11 15  1  0
 12 13  1  0
 12 18  1  0
 13 14  1  0
 15 16  2  0
 16 17  1  0
 17 18  1  0
 18 19  2  0
M  END
>  <DRUGBANK_ID>  (1) 
DB06185

>  <SECONDARY_ACCESSION_NUMBERS>  (1) 
DB03743

>  <COMMON_NAME>  (1) 
Forodesine

>  <CAS_NUMBER>  (1) 
209799-67-7

>  <UNII>  (1) 
426X066ELK

>  <SYNONYMS>  (1) 
(1S)-1,4-dideoxy-4-imino-(9-deazahypoxanthin-9-yl)-D-ribitol; 1,4-Dideoxy-4-aza-1-(S)-(9-deazahypoxanthin-9-yl)-D-ribitol; Forodesine; Immucillin H; Immucillin-H

$$$$
