X99
     RDKit          2D

 29 32  0  0  0  0  0  0  0  0999 V2000
    0.1998    0.1513    0.0000 C   0  0  0  0  0  0  0  0  0  0  0  0
   -0.2127    0.8658    0.0000 O   0  0  0  0  0  0  0  0  0  0  0  0
    1.0248    0.1513    0.0000 C   0  0  0  0  0  0  0  0  0  0  0  0
    1.4373    0.8658    0.0000 C   0  0  0  0  0  0  0  0  0  0  0  0
    2.2623    0.8658    0.0000 N   0  0  0  0  0  0  0  0  0  0  0  0
    2.7472    0.1983    0.0000 C   0  0  0  0  0  0  0  0  0  0  0  0
    2.7472    1.5332    0.0000 C   0  0  0  0  0  0  0  0  0  0  0  0
    2.4923   -0.5863    0.0000 O   0  0  0  0  0  0  0  0  0  0  0  0
    2.4923    2.3178    0.0000 O   0  0  0  0  0  0  0  0  0  0  0  0
    3.5318    0.4533    0.0000 C   0  0  0  0  0  0  0  0  0  0  0  0
    4.2463    0.0408    0.0000 C   0  0  0  0  0  0  0  0  0  0  0  0
    4.9608    0.4533    0.0000 C   0  0  0  0  0  0  0  0  0  0  0  0
    4.9608    1.2783    0.0000 C   0  0  0  0  0  0  0  0  0  0  0  0
    4.2463    1.6908    0.0000 C   0  0  0  0  0  0  0  0  0  0  0  0
    3.5318    1.2783    0.0000 C   0  0  0  0  0  0  0  0  0  0  0  0
   -0.2127   -0.5632    0.0000 N   0  0  0  0  0  0  0  0  0  0  0  0
    0.1229   -1.3169    0.0000 C   0  0  0  0  0  0  0  0  0  0  0  0
   -1.0332   -0.6494    0.0000 C   0  0  0  0  0  0  0  0  0  0  0  0
   -1.2047   -1.4564    0.0000 C   0  0  0  0  0  0  0  0  0  0  0  0
   -0.4902   -1.8689    0.0000 C   0  0  0  0  0  0  0  0  0  0  0  0
   -1.5852   -0.0363    0.0000 C   0  0  0  0  0  0  0  0  0  0  0  0
   -1.3303    0.7483    0.0000 O   0  0  0  0  0  0  0  0  0  0  0  0
   -0.8179   -2.6260    0.0000 F   0  0  0  0  0  0  0  0  0  0  0  0
   -0.0123   -2.5414    0.0000 F   0  0  0  0  0  0  0  0  0  0  0  0
   -2.3922   -0.2078    0.0000 N   0  0  0  0  0  0  0  0  0  0  0  0
   -2.7277   -0.9615    0.0000 C   0  0  0  0  0  0  0  0  0  0  0  0
   -3.0053    0.3442    0.0000 C   0  0  0  0  0  0  0  0  0  0  0  0
   -3.7198   -0.0683    0.0000 C   0  0  0  0  0  0  0  0  0  0  0  0
   -3.5482   -0.8753    0.0000 C   0  0  0  0  0  0  0  0  0  0  0  0
  1  3  1  0
  1 16  1  0
  2  1  2  0
  4  3  1  0
  4  5  1  0
  5  6  1  0
  5  7  1  0
  6 10  1  0
  7 15  1  0
  8  6  2  0
  9  7  2  0
 10 15  2  0
 10 11  1  0
 11 12  2  0
 12 13  1  0
 14 13  2  0
 15 14  1  0
 16 17  1  0
 18 16  1  0
 18 19  1  0
 18 21  1  1
 19 20  1  0
 20 17  1  0
 20 23  1  0
 21 22  2  0
 21 25  1  0
 24 20  1  0
 25 26  1  0
 25 27  1  0
 26 29  1  0
 27 28  1  0
 28 29  1  0
M  END
>  <DRUGBANK_ID>  (1) 
DB08739

>  <COMMON_NAME>  (1) 
2-{3-[(2S)-4,4-difluoro-2-(pyrrolidin-1-ylcarbonyl)pyrrolidin-1-yl]-3-oxopropyl}-isoindole-1,3(2H)-dione

$$$$
