
     RDKit          2D

 13 13  0  0  0  0  0  0  0  0999 V2000
    1.4289    0.0000    0.0000 C   0  0  0  0  0  0  0  0  0  0  0  0
    1.4289    0.8250    0.0000 C   0  0  0  0  0  0  0  0  0  0  0  0
    0.0000    0.0000    0.0000 C   0  0  0  0  0  0  0  0  0  0  0  0
    0.7144   -0.4125    0.0000 C   0  0  0  0  0  0  0  0  0  0  0  0
    0.7144    1.2375    0.0000 C   0  0  0  0  0  0  0  0  0  0  0  0
    0.0000    0.8250    0.0000 C   0  0  0  0  0  0  0  0  0  0  0  0
    0.7144   -1.2375    0.0000 C   0  0  0  0  0  0  0  0  0  0  0  0
    0.7144    2.0625    0.0000 I   0  0  0  0  0  0  0  0  0  0  0  0
    1.4289   -1.6500    0.0000 N   0  0  0  0  0  0  0  0  0  0  0  0
   -0.7144    1.2375    0.0000 N   0  0  0  0  0  0  0  0  0  0  0  0
    0.0000   -1.6500    0.0000 O   0  0  0  0  0  0  0  0  0  0  0  0
   -0.7144    2.0625    0.0000 O   0  0  0  0  0  0  0  0  0  0  0  0
   -1.4289    0.8250    0.0000 O   0  0  0  0  0  0  0  0  0  0  0  0
  2  1  2  0
  4  1  1  0
  4  3  2  0
  5  2  1  0
  6  3  1  0
  6  5  2  0
  7  4  1  0
  8  5  1  0
  9  7  1  0
 10  6  1  0
 11  7  2  0
 12 10  2  0
 13 10  1  0
M  CHG  2  10   1  13  -1
M  END
>  <DRUGBANK_ID>  (1) 
DB13877

>  <SECONDARY_ACCESSION_NUMBERS>  (1) 
DB05975

>  <COMMON_NAME>  (1) 
Iniparib

>  <CAS_NUMBER>  (1) 
160003-66-7

>  <UNII>  (1) 
2ZWI7KHK8F

>  <SYNONYMS>  (1) 
4-iodo-3-nitrobenzamide; Iniparib

$$$$
