
     RDKit          2D

 36 38  0  0  0  0  0  0  0  0999 V2000
   -4.6718   -2.0074    0.0000 C   0  0  0  0  0  0  0  0  0  0  0  0
   -5.3862   -1.5949    0.0000 C   0  0  0  0  0  0  0  0  0  0  0  0
   -5.3862   -0.7699    0.0000 C   0  0  0  0  0  0  0  0  0  0  0  0
   -3.9573   -1.5949    0.0000 C   0  0  0  0  0  0  0  0  0  0  0  0
   -3.9573   -0.7699    0.0000 C   0  0  0  0  0  0  0  0  0  0  0  0
   -4.6718   -0.3574    0.0000 C   0  0  0  0  0  0  0  0  0  0  0  0
   -3.2428   -0.3574    0.0000 C   0  0  0  0  0  0  0  0  0  0  0  0
   -2.5284   -0.7699    0.0000 C   0  0  0  0  0  0  0  0  0  0  0  0
   -1.8139   -0.3574    0.0000 N   0  0  0  0  0  0  0  0  0  0  0  0
   -1.0994   -0.7699    0.0000 C   0  0  0  0  0  0  0  0  0  0  0  0
   -1.0994   -1.5949    0.0000 C   0  0  0  0  0  0  0  0  0  0  0  0
   -1.8139   -2.0074    0.0000 C   0  0  0  0  0  0  0  0  0  0  0  0
   -2.5284   -1.5949    0.0000 C   0  0  0  0  0  0  0  0  0  0  0  0
   -1.8414    0.3849    0.0000 C   0  0  0  0  0  0  0  0  0  0  0  0
   -1.0994    0.8799    0.0000 O   0  0  0  0  0  0  0  0  0  0  0  0
   -0.3294    0.3574    0.0000 C   0  0  0  0  0  0  0  0  0  0  0  0
    0.3849    0.7699    0.0000 N   0  0  0  0  0  0  0  0  0  0  0  0
    0.3849    1.5949    0.0000 C   0  0  0  0  0  0  0  0  0  0  0  0
    1.0994    2.0074    0.0000 C   0  0  0  0  0  0  0  0  0  0  0  0
    1.0994    0.3574    0.0000 C   0  0  0  0  0  0  0  0  0  0  0  0
    1.8139    0.7699    0.0000 C   0  0  0  0  0  0  0  0  0  0  0  0
    1.8139    1.5949    0.0000 C   0  0  0  0  0  0  0  0  0  0  0  0
    2.5284    0.3574    0.0000 C   0  0  0  0  0  0  0  0  0  0  0  0
    3.2428    0.7699    0.0000 N   0  0  0  0  0  0  0  0  0  0  0  0
    3.9573    0.3574    0.0000 C   0  0  0  0  0  0  0  0  0  0  0  0
    4.6718    0.7699    0.0000 C   0  0  0  0  0  0  0  0  0  0  0  0
    2.5284   -0.4674    0.0000 O   0  0  0  0  0  0  0  0  0  0  0  0
   -3.2703    0.4399    0.0000 C   0  0  0  0  0  0  0  0  0  0  0  0
   -2.8573    1.1274    0.0000 O   0  0  0  0  0  0  0  0  0  0  0  0
   -2.8843    1.8974    0.0000 C   0  0  0  0  0  0  0  0  0  0  0  0
   -4.0403    0.7969    0.0000 O   0  0  0  0  0  0  0  0  0  0  0  0
   -2.5559    0.7974    0.0000 O   0  0  0  0  0  0  0  0  0  0  0  0
    4.6718    1.5949    0.0000 O   0  0  0  0  0  0  0  0  0  0  0  0
    5.3862    0.3574    0.0000 O   0  0  0  0  0  0  0  0  0  0  0  0
    3.9573   -0.4674    0.0000 C   0  0  0  0  0  0  0  0  0  0  0  0
    4.6718   -0.8799    0.0000 O   0  0  0  0  0  0  0  0  0  0  0  0
  1  2  2  0
  1  4  1  0
  2  3  1  0
  4  5  2  0
  5  6  1  0
  5  7  1  0
  6  3  2  0
  7  8  1  0
  7 28  1  1
  8  9  1  0
  9 10  1  0
  9 14  1  0
 10 11  1  0
 11 12  1  0
 12 13  1  0
  8 13  1  6
 14 15  1  0
 14 32  2  0
 15 16  1  0
 16 17  1  0
 17 18  2  0
 17 20  1  0
 18 19  1  0
 20 21  2  0
 21 22  1  0
 21 23  1  0
 22 19  2  0
 23 24  1  0
 23 27  2  0
 24 25  1  0
 25 26  1  0
 25 35  1  6
 26 33  2  0
 26 34  1  0
 28 29  1  0
 28 31  2  0
 29 30  1  0
 35 36  1  0
M  CHG  2  17   1  34  -1
M  END
>  <DRUGBANK_ID>  (1) 
DB16629

>  <COMMON_NAME>  (1) 
Serdexmethylphenidate

>  <CAS_NUMBER>  (1) 
1996626-29-9

>  <UNII>  (1) 
0H8KZ470DW

>  <SYNONYMS>  (1) 
Serdexmethylphenidate

$$$$
