
     RDKit          2D

 17 17  0  0  0  0  0  0  0  0999 V2000
   -1.0717   -2.6812    0.0000 Cl  0  0  0  0  0  0  0  0  0  0  0  0
   -0.3571    2.6812    0.0000 O   0  0  0  0  0  0  0  0  0  0  0  0
    0.4678    1.8562    0.0000 O   0  0  0  0  0  0  0  0  0  0  0  0
   -1.1821    1.8562    0.0000 O   0  0  0  0  0  0  0  0  0  0  0  0
    1.0717    1.8562    0.0000 O   0  0  0  0  0  0  0  0  0  0  0  0
    0.3572    0.6187    0.0000 N   0  0  0  0  0  0  0  0  0  0  0  0
   -0.3571    1.0312    0.0000 C   0  0  0  0  0  0  0  0  0  0  0  0
   -1.0717    0.6187    0.0000 C   0  0  0  0  0  0  0  0  0  0  0  0
   -1.0717   -0.2062    0.0000 C   0  0  0  0  0  0  0  0  0  0  0  0
   -0.3571   -0.6187    0.0000 C   0  0  0  0  0  0  0  0  0  0  0  0
   -1.7861   -0.6187    0.0000 C   0  0  0  0  0  0  0  0  0  0  0  0
    1.0717    1.0312    0.0000 C   0  0  0  0  0  0  0  0  0  0  0  0
   -0.3571   -1.4437    0.0000 C   0  0  0  0  0  0  0  0  0  0  0  0
   -1.7861   -1.4437    0.0000 C   0  0  0  0  0  0  0  0  0  0  0  0
   -1.0717   -1.8562    0.0000 C   0  0  0  0  0  0  0  0  0  0  0  0
    1.7861    0.6187    0.0000 C   0  0  0  0  0  0  0  0  0  0  0  0
   -0.3571    1.8562    0.0000 B   0  0  0  0  0  0  0  0  0  0  0  0
  1 15  1  0
  2 17  1  0
  3 17  1  0
  4 17  1  0
  5 12  2  0
  6 12  1  0
  7  6  1  0
  7  8  1  1
  7 17  1  0
  8  9  1  0
  9 10  2  0
  9 11  1  0
 10 13  1  0
 11 14  2  0
 12 16  1  0
 13 15  2  0
 14 15  1  0
M  CHG  1  17  -1
M  END
>  <DRUGBANK_ID>  (1) 
DB08693

>  <COMMON_NAME>  (1) 
L-1-(4-chlorophenyl)-2-(acetamido)ethane boronic acid

$$$$
