
     RDKit          2D

  9  8  0  0  0  0  0  0  0  0999 V2000
    0.0006   -0.0112    0.0000 N   0  0  0  0  0  0  0  0  0  0  0  0
    0.4165   -0.6933    0.0000 C   0  0  0  0  0  0  0  0  0  0  0  0
   -0.6906   -0.4059    0.0000 C   0  0  0  0  0  0  0  0  0  0  0  0
   -0.4072    0.6747    0.0000 C   0  0  0  0  0  0  0  0  0  0  0  0
    0.6866    0.3768    0.0000 C   0  0  0  0  0  0  0  0  0  0  0  0
    1.2335   -0.6933    0.0000 C   0  0  0  0  0  0  0  0  0  0  0  0
   -0.6906   -1.2309    0.0000 C   0  0  0  0  0  0  0  0  0  0  0  0
   -1.2335    0.6642    0.0000 C   0  0  0  0  0  0  0  0  0  0  0  0
    0.6919    1.2309    0.0000 C   0  0  0  0  0  0  0  0  0  0  0  0
  1  2  1  0
  1  3  1  0
  1  4  1  0
  1  5  1  0
  2  6  1  0
  3  7  1  0
  4  8  1  0
  5  9  1  0
M  CHG  1   1   1
M  END
>  <DRUGBANK_ID>  (1) 
DB08837

>  <COMMON_NAME>  (1) 
Tetraethylammonium

>  <CAS_NUMBER>  (1) 
66-40-0

>  <UNII>  (1) 
5AV7G7EIEE

$$$$
