
     RDKit          2D

 36 39  0  0  1  0  0  0  0  0999 V2000
    0.0000   -0.0000    0.0000 C   0  0  0  0  0  0  0  0  0  0  0  0
    0.7145   -0.4125    0.0000 C   0  0  0  0  0  0  0  0  0  0  0  0
    1.4289   -0.0000    0.0000 O   0  0  0  0  0  0  0  0  0  0  0  0
    0.7145   -1.2375    0.0000 C   0  0  0  0  0  0  0  0  0  0  0  0
    1.3819   -1.7224    0.0000 N   0  0  0  0  0  0  0  0  0  0  0  0
    1.1270   -2.5070    0.0000 C   0  0  0  0  0  0  0  0  0  0  0  0
    1.6119   -3.1745    0.0000 C   0  0  0  0  0  0  0  0  0  0  0  0
    2.4324   -3.0882    0.0000 N   0  0  0  0  0  0  0  0  0  0  0  0
    2.8449   -2.3738    0.0000 N   0  0  0  0  0  0  0  0  0  0  0  0
    3.6518   -2.5453    0.0000 C   0  0  0  0  0  0  0  0  0  0  0  0
    3.7381   -3.3658    0.0000 N   0  0  0  0  0  0  0  0  0  0  0  0
    4.4526   -3.7783    0.0000 C   0  0  0  0  0  0  0  0  0  0  0  0
    4.4526   -4.6033    0.0000 C   0  0  0  0  0  0  0  0  0  0  0  0
    5.1670   -5.0158    0.0000 O   0  0  0  0  0  0  0  0  0  0  0  0
    3.7381   -5.0158    0.0000 C   0  0  0  0  0  0  0  0  0  0  0  0
    3.3256   -4.3013    0.0000 F   0  0  0  0  0  0  0  0  0  0  0  0
    4.1506   -5.7303    0.0000 F   0  0  0  0  0  0  0  0  0  0  0  0
    3.0236   -5.4283    0.0000 F   0  0  0  0  0  0  0  0  0  0  0  0
    2.9844   -3.7013    0.0000 C   0  0  0  0  0  0  0  0  0  0  0  0
    2.8129   -4.5083    0.0000 O   0  0  0  0  0  0  0  0  0  0  0  0
    4.2649   -1.9933    0.0000 C   0  0  0  0  0  0  0  0  0  0  0  0
    4.0934   -1.1863    0.0000 C   0  0  0  0  0  0  0  0  0  0  0  0
    4.7065   -0.6343    0.0000 C   0  0  0  0  0  0  0  0  0  0  0  0
    5.4911   -0.8892    0.0000 C   0  0  0  0  0  0  0  0  0  0  0  0
    6.1042   -0.3372    0.0000 Cl  0  0  0  0  0  0  0  0  0  0  0  0
    5.6627   -1.6962    0.0000 C   0  0  0  0  0  0  0  0  0  0  0  0
    5.0496   -2.2482    0.0000 C   0  0  0  0  0  0  0  0  0  0  0  0
    0.3020   -2.5070    0.0000 N   0  0  0  0  0  0  0  0  0  0  0  0
    0.0470   -1.7224    0.0000 N   0  0  0  0  0  0  0  0  0  0  0  0
   -0.7376   -1.4675    0.0000 C   0  0  0  0  0  0  0  0  0  0  0  0
   -1.3507   -2.0195    0.0000 C   0  0  0  0  0  0  0  0  0  0  0  0
   -2.1353   -1.7646    0.0000 C   0  0  0  0  0  0  0  0  0  0  0  0
   -2.7484   -2.3166    0.0000 Cl  0  0  0  0  0  0  0  0  0  0  0  0
   -2.3068   -0.9576    0.0000 C   0  0  0  0  0  0  0  0  0  0  0  0
   -1.6937   -0.4056    0.0000 C   0  0  0  0  0  0  0  0  0  0  0  0
   -0.9091   -0.6605    0.0000 C   0  0  0  0  0  0  0  0  0  0  0  0
  2  1  1  6
  2  3  1  0
  2  4  1  0
  4  5  2  0
  4 29  1  0
  5  6  1  0
  6  7  1  0
  6 28  2  0
  7  8  1  0
  8  9  1  0
  8 19  1  0
  9 10  2  0
 10 11  1  0
 10 21  1  0
 11 12  1  0
 11 19  1  0
 13 12  1  0
 13 14  1  6
 13 15  1  0
 15 16  1  0
 15 17  1  0
 15 18  1  0
 19 20  2  0
 21 22  2  0
 21 27  1  0
 22 23  1  0
 23 24  2  0
 24 25  1  0
 24 26  1  0
 26 27  2  0
 28 29  1  0
 29 30  1  0
 30 31  2  0
 30 36  1  0
 31 32  1  0
 32 33  1  0
 32 34  2  0
 34 35  1  0
 35 36  2  0
M  END
>  <DRUGBANK_ID>  (1) 
DB16279

>  <COMMON_NAME>  (1) 
Pecavaptan

>  <CAS_NUMBER>  (1) 
1914998-56-3

>  <UNII>  (1) 
44Q500OSL4

>  <SYNONYMS>  (1) 
Pecavaptan

$$$$
