
     RDKit          2D

 20 21  0  0  1  0  0  0  0  0999 V2000
   -0.8093   -0.8021    0.0000 C   0  0  0  0  0  0  0  0  0  0  0  0
    0.0155   -0.8021    0.0000 C   0  0  0  0  0  0  0  0  0  0  0  0
    0.2722   -0.0181    0.0000 C   0  0  0  0  0  0  0  0  0  0  0  0
   -0.3968    0.4685    0.0000 O   0  0  0  0  0  0  0  0  0  0  0  0
   -1.0620   -0.0181    0.0000 C   0  0  0  0  0  0  0  0  0  0  0  0
   -1.4800    0.7018    0.0000 C   0  0  0  0  0  0  0  0  0  0  0  0
   -2.3049    0.6996    0.0000 O   0  0  0  0  0  0  0  0  0  0  0  0
   -1.7800   -0.4229    0.0000 N   0  0  0  0  0  0  0  0  0  0  0  0
   -2.4966   -0.8313    0.0000 N   0  0  0  0  0  0  0  0  0  0  0  0
   -3.2133   -1.2395    0.0000 N   0  0  0  0  0  0  0  0  0  0  0  0
   -1.2950   -1.4688    0.0000 O   0  0  0  0  0  0  0  0  0  0  0  0
    0.4995   -1.4700    0.0000 F   0  0  0  0  0  0  0  0  0  0  0  0
    1.0578    0.2356    0.0000 N   0  0  0  0  0  0  0  0  0  0  0  0
    1.7674   -0.1788    0.0000 C   0  0  0  0  0  0  0  0  0  0  0  0
    2.4830    0.2242    0.0000 N   0  0  0  0  0  0  0  0  0  0  0  0
    2.4941    1.0494    0.0000 C   0  0  0  0  0  0  0  0  0  0  0  0
    1.7833    1.4700    0.0000 C   0  0  0  0  0  0  0  0  0  0  0  0
    1.0615    1.0652    0.0000 C   0  0  0  0  0  0  0  0  0  0  0  0
    1.7609   -1.0037    0.0000 O   0  0  0  0  0  0  0  0  0  0  0  0
    3.2133    1.4533    0.0000 N   0  0  0  0  0  0  0  0  0  0  0  0
  1 11  1  6
  1  2  1  0
  2 12  1  1
  2  3  1  0
  3 13  1  1
  3  4  1  0
  4  5  1  0
  5  1  1  0
  5  6  1  1
  5  8  1  0
  6  7  1  0
  8  9  2  0
  9 10  2  0
 13 14  1  0
 13 18  1  0
 14 15  1  0
 14 19  2  0
 15 16  2  0
 16 17  1  0
 16 20  1  0
 17 18  2  0
M  CHG  2   9   1  10  -1
M  END
>  <DRUGBANK_ID>  (1) 
DB16407

>  <COMMON_NAME>  (1) 
Azvudine

>  <CAS_NUMBER>  (1) 
1011529-10-4

>  <UNII>  (1) 
IJ2XP0ID0K

>  <SYNONYMS>  (1) 
Azvudine

$$$$
