
     RDKit          2D

 37 40  0  0  0  0  0  0  0  0999 V2000
    2.4732   -1.9017    0.0000 O   0  0  0  0  0  0  0  0  0  0  0  0
    3.2765   -1.7238    0.0000 C   0  0  0  0  0  0  0  0  0  0  0  0
    3.5239   -0.9365    0.0000 O   0  0  0  0  0  0  0  0  0  0  0  0
    2.9681   -0.3317    0.0000 C   0  0  0  0  0  0  0  0  0  0  0  0
    2.1636   -0.5149    0.0000 C   0  0  0  0  0  0  0  0  0  0  0  0
    1.6075    0.0985    0.0000 C   0  0  0  0  0  0  0  0  0  0  0  0
    1.8563    0.8868    0.0000 C   0  0  0  0  0  0  0  0  0  0  0  0
    1.3002    1.4958    0.0000 N   0  0  0  0  0  0  0  0  0  0  0  0
    0.5003    1.3190    0.0000 C   0  0  0  0  0  0  0  0  0  0  0  0
    0.2488    0.5302    0.0000 C   0  0  0  0  0  0  0  0  0  0  0  0
   -0.5605    0.3639    0.0000 C   0  0  0  0  0  0  0  0  0  0  0  0
   -0.8121   -0.4189    0.0000 N   0  0  0  0  0  0  0  0  0  0  0  0
   -1.5998   -0.6779    0.0000 C   0  0  0  0  0  0  0  0  0  0  0  0
   -2.3155   -0.2607    0.0000 C   0  0  0  0  0  0  0  0  0  0  0  0
   -3.0312   -0.6779    0.0000 C   0  0  0  0  0  0  0  0  0  0  0  0
   -3.3144    0.0968    0.0000 C   0  0  0  0  0  0  0  0  0  0  0  0
   -3.8369   -0.8210    0.0000 C   0  0  0  0  0  0  0  0  0  0  0  0
   -3.0312   -1.5036    0.0000 C   0  0  0  0  0  0  0  0  0  0  0  0
   -2.3155   -1.9118    0.0000 C   0  0  0  0  0  0  0  0  0  0  0  0
   -2.3155   -2.7342    0.0000 O   0  0  0  0  0  0  0  0  0  0  0  0
   -1.5998   -1.5054    0.0000 C   0  0  0  0  0  0  0  0  0  0  0  0
   -0.8121   -1.7600    0.0000 C   0  0  0  0  0  0  0  0  0  0  0  0
   -0.5606   -2.5432    0.0000 C   0  0  0  0  0  0  0  0  0  0  0  0
    0.2224   -2.2870    0.0000 F   0  0  0  0  0  0  0  0  0  0  0  0
   -1.3389   -2.7993    0.0000 F   0  0  0  0  0  0  0  0  0  0  0  0
   -0.3044   -3.3264    0.0000 F   0  0  0  0  0  0  0  0  0  0  0  0
   -0.3260   -1.0893    0.0000 N   0  0  0  0  0  0  0  0  0  0  0  0
   -1.1136    0.9763    0.0000 C   0  0  0  0  0  0  0  0  0  0  0  0
   -0.8619    1.7591    0.0000 C   0  0  0  0  0  0  0  0  0  0  0  0
   -0.0573    1.9312    0.0000 C   0  0  0  0  0  0  0  0  0  0  0  0
    0.1932    2.7160    0.0000 C   0  0  0  0  0  0  0  0  0  0  0  0
    0.9982    2.8907    0.0000 N   0  0  0  0  0  0  0  0  0  0  0  0
   -0.3613    3.3264    0.0000 O   0  0  0  0  0  0  0  0  0  0  0  0
    2.6612    1.0614    0.0000 C   0  0  0  0  0  0  0  0  0  0  0  0
    3.2170    0.4566    0.0000 C   0  0  0  0  0  0  0  0  0  0  0  0
    3.8369   -2.3285    0.0000 C   0  0  0  0  0  0  0  0  0  0  0  0
    3.5893   -3.1113    0.0000 N   0  0  0  0  0  0  0  0  0  0  0  0
  2  1  2  0
  2  3  1  0
  2 36  1  0
  4  3  1  6
  4  5  1  0
  4 35  1  0
  6  5  1  0
  7  6  1  0
  7  8  1  1
  9  8  1  0
  9 10  2  0
  9 30  1  0
 11 10  1  0
 12 11  1  0
 12 27  1  0
 13 12  1  0
 13 14  1  0
 15 14  1  0
 16 15  1  0
 17 15  1  0
 18 15  1  0
 19 18  1  0
 20 19  2  0
 21 19  1  0
 21 22  1  0
 21 13  2  0
 23 22  1  0
 24 23  1  0
 25 23  1  0
 26 23  1  0
 27 22  2  0
 28 11  2  0
 29 28  1  0
 30 29  2  0
 31 30  1  0
 31 32  1  0
 31 33  2  0
 34  7  1  0
 35 34  1  0
 37 36  1  0
M  END
>  <DRUGBANK_ID>  (1) 
DB06070

>  <COMMON_NAME>  (1) 
SNX-5422

>  <CAS_NUMBER>  (1) 
908115-27-5

>  <UNII>  (1) 
BF52J69Q8T

$$$$
