STC
     RDKit          2D

 19 20  0  0  0  0  0  0  0  0999 V2000
    0.4600    0.5956    0.0000 N   0  0  0  0  0  0  0  0  0  0  0  0
   -0.2545    1.0081    0.0000 C   0  0  0  0  0  0  0  0  0  0  0  0
   -0.9690    0.5956    0.0000 C   0  0  0  0  0  0  0  0  0  0  0  0
   -0.2545    1.8331    0.0000 C   0  0  0  0  0  0  0  0  0  0  0  0
   -1.6835    1.0081    0.0000 C   0  0  0  0  0  0  0  0  0  0  0  0
   -0.9690    2.2456    0.0000 C   0  0  0  0  0  0  0  0  0  0  0  0
   -1.6835    1.8331    0.0000 C   0  0  0  0  0  0  0  0  0  0  0  0
   -2.3979    2.2456    0.0000 Cl  0  0  0  0  0  0  0  0  0  0  0  0
    0.4600   -0.2294    0.0000 S   0  0  0  0  0  0  0  0  0  0  0  0
    0.4600   -1.0544    0.0000 C   0  0  0  0  0  0  0  0  0  0  0  0
   -0.3650   -0.2294    0.0000 O   0  0  0  0  0  0  0  0  0  0  0  0
    1.2850   -0.2294    0.0000 O   0  0  0  0  0  0  0  0  0  0  0  0
    1.1274   -1.5393    0.0000 C   0  0  0  0  0  0  0  0  0  0  0  0
   -0.2075   -1.5393    0.0000 C   0  0  0  0  0  0  0  0  0  0  0  0
    0.8725   -2.3240    0.0000 S   0  0  0  0  0  0  0  0  0  0  0  0
    1.9120   -1.2844    0.0000 C   0  0  0  0  0  0  0  0  0  0  0  0
    0.0475   -2.3240    0.0000 C   0  0  0  0  0  0  0  0  0  0  0  0
    2.0835   -0.4774    0.0000 O   0  0  0  0  0  0  0  0  0  0  0  0
    2.5251   -1.8364    0.0000 O   0  0  0  0  0  0  0  0  0  0  0  0
  1  2  1  0
  1  9  1  0
  2  3  2  0
  2  4  1  0
  3  5  1  0
  4  6  2  0
  5  7  2  0
  6  7  1  0
  7  8  1  0
  9 10  1  0
  9 11  2  0
  9 12  2  0
 10 13  2  0
 10 14  1  0
 13 15  1  0
 13 16  1  0
 14 17  2  0
 15 17  1  0
 16 18  1  0
 16 19  2  0
M  END
>  <DRUGBANK_ID>  (1) 
DB08573

>  <COMMON_NAME>  (1) 
3-[(4-CHLOROANILINO)SULFONYL]THIOPHENE-2-CARBOXYLIC ACID

>  <UNII>  (1) 
YPG9JNK4RX

$$$$
