
     RDKit          2D

 41 46  0  0  1  0  0  0  0  0999 V2000
   -2.9917    1.4573    0.0000 C   0  0  0  0  0  0  0  0  0  0  0  0
   -3.1349    0.6448    0.0000 C   0  0  0  0  0  0  0  0  0  0  0  0
   -2.5029    0.1145    0.0000 O   0  0  0  0  0  0  0  0  0  0  0  0
   -2.6462   -0.6979    0.0000 C   0  0  0  0  0  0  0  0  0  0  0  0
   -2.5029   -1.5104    0.0000 C   0  0  0  0  0  0  0  0  0  0  0  0
   -3.1349   -2.0407    0.0000 C   0  0  0  0  0  0  0  0  0  0  0  0
   -3.9102   -1.7585    0.0000 N   0  0  0  0  0  0  0  0  0  0  0  0
   -4.0534   -0.9461    0.0000 C   0  0  0  0  0  0  0  0  0  0  0  0
   -3.4214   -0.4158    0.0000 C   0  0  0  0  0  0  0  0  0  0  0  0
   -4.5422   -2.2888    0.0000 C   0  0  0  0  0  0  0  0  0  0  0  0
   -5.3174   -2.0067    0.0000 C   0  0  0  0  0  0  0  0  0  0  0  0
   -4.3989   -3.1013    0.0000 C   0  0  0  0  0  0  0  0  0  0  0  0
   -1.8212   -0.6979    0.0000 C   0  0  0  0  0  0  0  0  0  0  0  0
   -1.4087    0.0165    0.0000 C   0  0  0  0  0  0  0  0  0  0  0  0
   -0.5837    0.0165    0.0000 C   0  0  0  0  0  0  0  0  0  0  0  0
   -0.1712   -0.6979    0.0000 C   0  0  0  0  0  0  0  0  0  0  0  0
   -0.5837   -1.4124    0.0000 N   0  0  0  0  0  0  0  0  0  0  0  0
   -1.4087   -1.4124    0.0000 C   0  0  0  0  0  0  0  0  0  0  0  0
    0.6538   -0.6979    0.0000 C   0  0  0  0  0  0  0  0  0  0  0  0
    1.1387   -0.0305    0.0000 C   0  0  0  0  0  0  0  0  0  0  0  0
    1.9233   -0.2854    0.0000 C   0  0  0  0  0  0  0  0  0  0  0  0
    2.6378    0.1271    0.0000 C   0  0  0  0  0  0  0  0  0  0  0  0
    3.3523   -0.2854    0.0000 C   0  0  0  0  0  0  0  0  0  0  0  0
    3.3523   -1.1104    0.0000 C   0  0  0  0  0  0  0  0  0  0  0  0
    2.6378   -1.5229    0.0000 N   0  0  0  0  0  0  0  0  0  0  0  0
    1.9233   -1.1104    0.0000 N   0  0  0  0  0  0  0  0  0  0  0  0
    1.1387   -1.3654    0.0000 C   0  0  0  0  0  0  0  0  0  0  0  0
    2.6378    0.9521    0.0000 N   0  0  0  0  0  0  0  0  0  0  0  0
    1.9233    1.3646    0.0000 C   0  0  0  0  0  0  0  0  0  0  0  0
    1.9233    2.1896    0.0000 C   0  0  0  0  0  0  0  0  0  0  0  0
    2.6378    2.6021    0.0000 N   0  0  0  0  0  0  0  0  0  0  0  0
    3.3523    2.1896    0.0000 C   0  0  0  0  0  0  0  0  0  0  0  0
    3.3523    1.3646    0.0000 C   0  0  0  0  0  0  0  0  0  0  0  0
    2.6378    3.4271    0.0000 C   0  0  0  0  0  0  0  0  0  0  0  0
    3.3523    3.8396    0.0000 O   0  0  0  0  0  0  0  0  0  0  0  0
    1.9233    3.8396    0.0000 O   0  0  0  0  0  0  0  0  0  0  0  0
    1.9233    4.6646    0.0000 C   0  0  0  0  0  0  0  0  0  0  0  0
    1.2559    5.1495    0.0000 C   0  0  0  0  0  0  0  0  0  0  0  0
    1.5108    5.9341    0.0000 C   0  0  0  0  0  0  0  0  0  0  0  0
    2.3358    5.9341    0.0000 O   0  0  0  0  0  0  0  0  0  0  0  0
    2.5908    5.1495    0.0000 C   0  0  0  0  0  0  0  0  0  0  0  0
  1  2  1  0
  2  3  1  0
  3  4  1  0
  4  5  1  0
  4  9  1  0
  4 13  1  0
  5  6  1  0
  6  7  1  0
  7  8  1  0
  7 10  1  0
  8  9  1  0
 10 11  1  0
 10 12  1  0
 13 14  2  0
 13 18  1  0
 14 15  1  0
 15 16  2  0
 16 17  1  0
 16 19  1  0
 17 18  2  0
 19 20  1  0
 19 27  2  0
 20 21  2  0
 21 22  1  0
 21 26  1  0
 22 23  2  0
 22 28  1  0
 23 24  1  0
 24 25  2  0
 25 26  1  0
 26 27  1  0
 28 29  1  0
 28 33  1  0
 29 30  1  0
 30 31  1  0
 31 32  1  0
 31 34  1  0
 32 33  1  0
 34 35  2  0
 34 36  1  0
 37 36  1  6
 37 38  1  0
 37 41  1  0
 38 39  1  0
 39 40  1  0
 40 41  1  0
M  END
>  <DRUGBANK_ID>  (1) 
DB18064

>  <COMMON_NAME>  (1) 
Fidrisertib

>  <CAS_NUMBER>  (1) 
2141955-96-4

>  <UNII>  (1) 
KF4ZI0CJ7M

>  <SYNONYMS>  (1) 
(r)-tetrahydrofuran-3-yl 4-(6-(5-(4-ethoxy-1-isopropylpiperidin-4-yl)pyridin-2-yl)pyrrolo(1,2-b)pyridazin-4-yl)piperazine-1-carboxylate; 1-piperazinecarboxylic acid, 4-(6-(5-(4-ethoxy-1-(1-methylethyl)-4-piperidinyl)-2-pyridinyl)pyrrolo(1,2-b)pyridazin-4-yl)-, (3r)-tetrahydro-3-furanyl ester

$$$$
