
     RDKit          2D

 30 32  0  0  1  0  0  0  0  0999 V2000
    1.7530   -5.1133    0.0000 C   0  0  0  0  0  0  0  0  0  0  0  0
    2.4674   -4.7008    0.0000 C   0  0  0  0  0  0  0  0  0  0  0  0
    2.4674   -3.8758    0.0000 C   0  0  0  0  0  0  0  0  0  0  0  0
    3.1819   -3.4633    0.0000 C   0  0  0  0  0  0  0  0  0  0  0  0
    3.1819   -2.6383    0.0000 C   0  0  0  0  0  0  0  0  0  0  0  0
    3.8494   -2.1534    0.0000 C   0  0  0  0  0  0  0  0  0  0  0  0
    3.5944   -1.3688    0.0000 C   0  0  0  0  0  0  0  0  0  0  0  0
    2.7694   -1.3688    0.0000 C   0  0  0  0  0  0  0  0  0  0  0  0
    2.5145   -2.1534    0.0000 O   0  0  0  0  0  0  0  0  0  0  0  0
    2.2845   -0.7013    0.0000 C   0  0  0  0  0  0  0  0  0  0  0  0
    3.8964   -3.8758    0.0000 N   0  0  0  0  0  0  0  0  0  0  0  0
    3.8964   -4.7008    0.0000 C   0  0  0  0  0  0  0  0  0  0  0  0
    4.4798   -5.2842    0.0000 C   0  0  0  0  0  0  0  0  0  0  0  0
    3.8964   -5.8676    0.0000 C   0  0  0  0  0  0  0  0  0  0  0  0
    3.8964   -6.6926    0.0000 O   0  0  0  0  0  0  0  0  0  0  0  0
    3.3130   -5.2842    0.0000 C   0  0  0  0  0  0  0  0  0  0  0  0
    2.4880   -5.2842    0.0000 O   0  0  0  0  0  0  0  0  0  0  0  0
    5.3048   -5.2842    0.0000 N   0  0  0  0  0  0  0  0  0  0  0  0
    5.7173   -5.9987    0.0000 C   0  0  0  0  0  0  0  0  0  0  0  0
    6.5423   -5.9987    0.0000 C   0  0  0  0  0  0  0  0  0  0  0  0
    6.9547   -6.7131    0.0000 C   0  0  0  0  0  0  0  0  0  0  0  0
    6.5423   -7.4276    0.0000 C   0  0  0  0  0  0  0  0  0  0  0  0
    5.7173   -7.4276    0.0000 C   0  0  0  0  0  0  0  0  0  0  0  0
    5.3048   -6.7131    0.0000 C   0  0  0  0  0  0  0  0  0  0  0  0
    4.4798   -6.7131    0.0000 O   0  0  0  0  0  0  0  0  0  0  0  0
    5.3048   -8.1420    0.0000 C   0  0  0  0  0  0  0  0  0  0  0  0
    5.7173   -8.8565    0.0000 O   0  0  0  0  0  0  0  0  0  0  0  0
    4.4798   -8.1420    0.0000 N   0  0  0  0  0  0  0  0  0  0  0  0
    4.0673   -8.8565    0.0000 C   0  0  0  0  0  0  0  0  0  0  0  0
    4.0673   -7.4276    0.0000 C   0  0  0  0  0  0  0  0  0  0  0  0
  1  2  1  0
  2  3  1  0
  4  3  1  6
  4  5  1  0
  4 11  1  0
  5  6  2  0
  5  9  1  0
  6  7  1  0
  7  8  2  0
  8  9  1  0
  8 10  1  0
 11 12  1  0
 12 13  2  0
 12 16  1  0
 13 14  1  0
 13 18  1  0
 14 15  2  0
 14 16  1  0
 16 17  2  0
 18 19  1  0
 19 20  2  0
 19 24  1  0
 20 21  1  0
 21 22  2  0
 22 23  1  0
 23 24  2  0
 23 26  1  0
 24 25  1  0
 26 27  2  0
 26 28  1  0
 28 29  1  0
 28 30  1  0
M  END
>  <DRUGBANK_ID>  (1) 
DB11711

>  <COMMON_NAME>  (1) 
Navarixin

>  <CAS_NUMBER>  (1) 
473727-83-2

>  <UNII>  (1) 
4GMU5HUX5I

>  <SYNONYMS>  (1) 
Navarixin; Navarixin anhydrous

$$$$
