
     RDKit          2D

 19 19  0  0  0  0  0  0  0  0999 V2000
   -0.7137   -0.0136    0.0000 C   0  0  0  0  0  0  0  0  0  0  0  0
   -1.4241   -0.4324    0.0000 C   0  0  0  0  0  0  0  0  0  0  0  0
   -0.7241    0.8099    0.0000 C   0  0  0  0  0  0  0  0  0  0  0  0
    0.0069   -0.4118    0.0000 O   0  0  0  0  0  0  0  0  0  0  0  0
   -2.1863   -0.0309    0.0000 C   0  0  0  0  0  0  0  0  0  0  0  0
   -1.4448    1.2183    0.0000 C   0  0  0  0  0  0  0  0  0  0  0  0
    0.7174    0.0069    0.0000 C   0  0  0  0  0  0  0  0  0  0  0  0
   -2.1518    0.7962    0.0000 C   0  0  0  0  0  0  0  0  0  0  0  0
    1.4381   -0.3947    0.0000 C   0  0  0  0  0  0  0  0  0  0  0  0
   -2.8658    1.2115    0.0000 C   0  0  0  0  0  0  0  0  0  0  0  0
    2.1485    0.0241    0.0000 C   0  0  0  0  0  0  0  0  0  0  0  0
    1.4483   -1.2183    0.0000 O   0  0  0  0  0  0  0  0  0  0  0  0
   -3.5796    0.7962    0.0000 C   0  0  0  0  0  0  0  0  0  0  0  0
    2.8624   -0.3775    0.0000 N   0  0  0  0  0  0  0  0  0  0  0  0
   -4.2935    1.2115    0.0000 N   0  0  0  0  0  0  0  0  0  0  0  0
   -3.5796   -0.0309    0.0000 O   0  0  0  0  0  0  0  0  0  0  0  0
    3.5729    0.0447    0.0000 C   0  0  0  0  0  0  0  0  0  0  0  0
    4.2935   -0.3569    0.0000 C   0  0  0  0  0  0  0  0  0  0  0  0
    3.5626    0.8683    0.0000 C   0  0  0  0  0  0  0  0  0  0  0  0
  1  2  2  0
  1  3  1  0
  1  4  1  0
  2  5  1  0
  3  6  2  0
  4  7  1  0
  5  8  2  0
  6  8  1  0
  7  9  1  0
  8 10  1  0
  9 11  1  0
  9 12  1  1
 10 13  1  0
 11 14  1  0
 13 15  1  0
 13 16  2  0
 14 17  1  0
 17 18  1  0
 17 19  1  0
M  END
>  <DRUGBANK_ID>  (1) 
DB06987

>  <COMMON_NAME>  (1) 
(R)-Atenolol

>  <CAS_NUMBER>  (1) 
56715-13-0

>  <UNII>  (1) 
YG132I00WY

>  <SYNONYMS>  (1) 
(+)-Atenolol; (R)-(+)-Atenolol

$$$$
