
     RDKit          2D

 26 27  0  0  0  0  0  0  0  0999 V2000
    6.4302    2.8875    0.0000 C   0  0  0  0  0  0  0  0  0  0  0  0
    5.7158    1.6500    0.0000 C   0  0  0  0  0  0  0  0  0  0  0  0
    3.5724    5.3625    0.0000 C   0  0  0  0  0  0  0  0  0  0  0  0
    5.0013    5.3625    0.0000 C   0  0  0  0  0  0  0  0  0  0  0  0
    5.7158    3.3000    0.0000 C   0  0  0  0  0  0  0  0  0  0  0  0
    5.0013    2.0625    0.0000 C   0  0  0  0  0  0  0  0  0  0  0  0
    3.5724    4.5375    0.0000 C   0  0  0  0  0  0  0  0  0  0  0  0
    5.0013    4.5375    0.0000 C   0  0  0  0  0  0  0  0  0  0  0  0
    6.4302    0.4125    0.0000 C   0  0  0  0  0  0  0  0  0  0  0  0
    6.4302   -0.4125    0.0000 C   0  0  0  0  0  0  0  0  0  0  0  0
    7.1447    1.6500    0.0000 C   0  0  0  0  0  0  0  0  0  0  0  0
    6.4302    2.0625    0.0000 C   0  0  0  0  0  0  0  0  0  0  0  0
    4.2868    5.7750    0.0000 C   0  0  0  0  0  0  0  0  0  0  0  0
    5.0013    2.8875    0.0000 C   0  0  0  0  0  0  0  0  0  0  0  0
    4.2868    4.1250    0.0000 C   0  0  0  0  0  0  0  0  0  0  0  0
    7.8592   -0.4125    0.0000 C   0  0  0  0  0  0  0  0  0  0  0  0
    7.8592    0.4125    0.0000 C   0  0  0  0  0  0  0  0  0  0  0  0
    8.5737   -0.8250    0.0000 Cl  0  0  0  0  0  0  0  0  0  0  0  0
    7.1447   -0.8250    0.0000 Cl  0  0  0  0  0  0  0  0  0  0  0  0
    7.1447    0.8250    0.0000 N   0  0  0  0  0  0  0  0  0  0  0  0
    4.2868    6.6000    0.0000 N   0  0  0  0  0  0  0  0  0  0  0  0
    5.7158   -0.8250    0.0000 O   0  0  0  0  0  0  0  0  0  0  0  0
    8.5737    0.8250    0.0000 O   0  0  0  0  0  0  0  0  0  0  0  0
    3.5724    7.0125    0.0000 O   0  0  0  0  0  0  0  0  0  0  0  0
    5.0013    7.0125    0.0000 O   0  0  0  0  0  0  0  0  0  0  0  0
    4.2868    3.3000    0.0000 O   0  0  0  0  0  0  0  0  0  0  0  0
  5  1  2  0
  6  2  1  0
  7  3  2  0
  8  4  1  0
 10  9  1  0
 12  1  1  0
 12  2  2  0
 12 11  1  0
 13  3  1  0
 13  4  2  0
 14  5  1  0
 14  6  2  0
 15  7  1  0
 15  8  2  0
 17 16  1  0
 18 16  1  0
 19 16  1  0
 20  9  1  0
 20 11  1  0
 20 17  1  0
 21 13  1  0
 22 10  1  0
 23 17  2  0
 24 21  1  0
 25 21  2  0
 26 14  1  0
 26 15  1  0
M  CHG  2  21   1  24  -1
M  END
>  <DRUGBANK_ID>  (1) 
DB13512

>  <COMMON_NAME>  (1) 
Clefamide

>  <CAS_NUMBER>  (1) 
3576-64-5

>  <UNII>  (1) 
4AZ2V8K4EK

>  <SYNONYMS>  (1) 
Clefamide

$$$$
