658
     RDKit          2D

  9  8  0  0  1  0  0  0  0  0999 V2000
    0.1473    0.8043    0.0000 Cl  0  0  0  0  0  0  0  0  0  0  0  0
    1.9889    1.5189    0.0000 O   0  0  0  0  0  0  0  0  0  0  0  0
    0.4430    3.6804    0.0000 N   0  0  0  0  0  0  0  0  0  0  0  0
    1.5764    0.8043    0.0000 C   0  0  0  0  0  0  0  0  0  0  0  0
    2.4014    0.8043    0.0000 C   0  0  0  0  0  0  0  0  0  0  0  0
    0.8619    0.3918    0.0000 C   0  0  0  0  0  0  0  0  0  0  0  0
    1.1575    4.0929    0.0000 C   0  0  0  0  0  0  0  0  0  0  0  0
    1.8720    3.6804    0.0000 C   0  0  0  0  0  0  0  0  0  0  0  0
    2.5864    4.0929    0.0000 C   0  0  0  0  0  0  0  0  0  0  0  0
  1  6  1  0
  2  4  1  0
  2  5  1  0
  3  7  1  0
  4  5  1  0
  4  6  1  0
  7  8  1  0
  8  9  2  0
M  END
>  <DRUGBANK_ID>  (1) 
DB00658

>  <SECONDARY_ACCESSION_NUMBERS>  (1) 
APRD01226

>  <COMMON_NAME>  (1) 
Sevelamer

>  <CAS_NUMBER>  (1) 
52757-95-6

>  <UNII>  (1) 
941N5DUU5C

>  <SYNONYMS>  (1) 
Sevelamer; Sévélamer; Sevelamero; Sevelamerum

$$$$
