
     RDKit          2D

 34 39  0  0  1  0  0  0  0  0999 V2000
    4.1636   -2.1329    0.0000 C   0  0  0  0  0  0  0  0  0  0  0  0
    3.4050   -2.4572    0.0000 N   0  0  0  0  0  0  0  0  0  0  0  0
    3.3680   -3.2813    0.0000 C   0  0  0  0  0  0  0  0  0  0  0  0
    4.1217   -3.6169    0.0000 C   0  0  0  0  0  0  0  0  0  0  0  0
    4.2079   -4.4374    0.0000 C   0  0  0  0  0  0  0  0  0  0  0  0
    3.5405   -4.9223    0.0000 C   0  0  0  0  0  0  0  0  0  0  0  0
    2.7868   -4.5867    0.0000 C   0  0  0  0  0  0  0  0  0  0  0  0
    2.7006   -3.7663    0.0000 C   0  0  0  0  0  0  0  0  0  0  0  0
    1.9053   -3.5468    0.0000 C   0  0  0  0  0  0  0  0  0  0  0  0
    1.5810   -2.7882    0.0000 N   0  0  0  0  0  0  0  0  0  0  0  0
    1.9720   -2.0617    0.0000 C   0  0  0  0  0  0  0  0  0  0  0  0
    2.7837   -1.9144    0.0000 C   0  0  0  0  0  0  0  0  0  0  0  0
    3.0032   -1.1191    0.0000 O   0  0  0  0  0  0  0  0  0  0  0  0
    1.4871   -1.3942    0.0000 N   0  0  0  0  0  0  0  0  0  0  0  0
    1.8226   -0.6406    0.0000 C   0  0  0  0  0  0  0  0  0  0  0  0
    2.6431   -0.5543    0.0000 O   0  0  0  0  0  0  0  0  0  0  0  0
    1.3377    0.0269    0.0000 C   0  0  0  0  0  0  0  0  0  0  0  0
    0.5127    0.0269    0.0000 C   0  0  0  0  0  0  0  0  0  0  0  0
    0.2578    0.8115    0.0000 C   0  0  0  0  0  0  0  0  0  0  0  0
   -0.4959    1.1470    0.0000 C   0  0  0  0  0  0  0  0  0  0  0  0
   -0.5821    1.9675    0.0000 C   0  0  0  0  0  0  0  0  0  0  0  0
    0.0853    2.4525    0.0000 C   0  0  0  0  0  0  0  0  0  0  0  0
    0.8390    2.1169    0.0000 C   0  0  0  0  0  0  0  0  0  0  0  0
    0.9252    1.2964    0.0000 C   0  0  0  0  0  0  0  0  0  0  0  0
    1.5926    0.8115    0.0000 N   0  0  0  0  0  0  0  0  0  0  0  0
    2.3463    1.1470    0.0000 C   0  0  0  0  0  0  0  0  0  0  0  0
    2.4326    1.9675    0.0000 C   0  0  0  0  0  0  0  0  0  0  0  0
    1.7651    2.4525    0.0000 C   0  0  0  0  0  0  0  0  0  0  0  0
    1.3625   -4.1681    0.0000 C   0  0  0  0  0  0  0  0  0  0  0  0
    1.6291   -4.9488    0.0000 C   0  0  0  0  0  0  0  0  0  0  0  0
    1.0863   -5.5701    0.0000 C   0  0  0  0  0  0  0  0  0  0  0  0
    0.2769   -5.4106    0.0000 C   0  0  0  0  0  0  0  0  0  0  0  0
    0.0102   -4.6299    0.0000 C   0  0  0  0  0  0  0  0  0  0  0  0
    0.5530   -4.0086    0.0000 C   0  0  0  0  0  0  0  0  0  0  0  0
  1  2  1  0
  2  3  1  0
  2 12  1  0
  3  4  2  0
  3  8  1  0
  4  5  1  0
  5  6  2  0
  6  7  1  0
  7  8  2  0
  8  9  1  0
  9 10  2  0
  9 29  1  0
 10 11  1  0
 11 12  1  0
 11 14  1  6
 12 13  2  0
 14 15  1  0
 15 16  2  0
 15 17  1  0
 17 18  2  0
 17 25  1  0
 18 19  1  0
 19 20  2  0
 19 24  1  0
 20 21  1  0
 21 22  2  0
 22 23  1  0
 23 24  2  0
 23 28  1  0
 24 25  1  0
 25 26  1  0
 26 27  1  0
 27 28  1  0
 29 30  2  0
 29 34  1  0
 30 31  1  0
 31 32  2  0
 32 33  1  0
 33 34  2  0
M  END
>  <DRUGBANK_ID>  (1) 
DB06435

>  <COMMON_NAME>  (1) 
Tarazepide

>  <CAS_NUMBER>  (1) 
141374-81-4

>  <UNII>  (1) 
RK2972YZ2U

>  <SYNONYMS>  (1) 
Tarazepide

$$$$
