
     RDKit          2D

 11 11  0  0  0  0  0  0  0  0999 V2000
   -1.4289    2.4750    0.0000 C   0  0  0  0  0  0  0  0  0  0  0  0
    0.7145   -0.4125    0.0000 C   0  0  0  0  0  0  0  0  0  0  0  0
    1.4289    0.0000    0.0000 C   0  0  0  0  0  0  0  0  0  0  0  0
    0.0000    0.0000    0.0000 C   0  0  0  0  0  0  0  0  0  0  0  0
    1.4289    0.8250    0.0000 C   0  0  0  0  0  0  0  0  0  0  0  0
    0.0000    0.8250    0.0000 C   0  0  0  0  0  0  0  0  0  0  0  0
    0.7145    1.2375    0.0000 C   0  0  0  0  0  0  0  0  0  0  0  0
   -0.7145    1.2375    0.0000 C   0  0  0  0  0  0  0  0  0  0  0  0
    0.7145    2.0625    0.0000 O   0  0  0  0  0  0  0  0  0  0  0  0
   -1.4289    0.8250    0.0000 O   0  0  0  0  0  0  0  0  0  0  0  0
   -0.7145    2.0625    0.0000 O   0  0  0  0  0  0  0  0  0  0  0  0
  3  2  2  0
  4  2  1  0
  5  3  1  0
  6  4  2  0
  7  5  2  0
  7  6  1  0
  8  6  1  0
  9  7  1  0
 10  8  2  0
 11  1  1  0
 11  8  1  0
M  END
>  <DRUGBANK_ID>  (1) 
DB09543

>  <COMMON_NAME>  (1) 
Methyl salicylate

>  <CAS_NUMBER>  (1) 
119-36-8

>  <UNII>  (1) 
LAV5U5022Y

>  <SYNONYMS>  (1) 
2-(Methoxycarbonyl)phenol; 2-Carbomethoxyphenol; 2-Hydroxybenzoic acid methyl ester; Betula oil; Gaultheria oil; Methyl 2-hydroxybenzoate; Methyl o-hydroxybenzoate; Methyl salicylate; Natural wintergreen oil; Oil of wintergreen; Spicewood Oil; Sweet birch oil; Teaberry oil

$$$$
