
     RDKit          2D

 25 24  0  0  0  0  0  0  0  0999 V2000
   -2.8594   -0.0019    0.0000 C   0  0  0  0  0  0  0  0  0  0  0  0
   -2.8594   -0.8271    0.0000 C   0  0  0  0  0  0  0  0  0  0  0  0
   -3.5741    0.4105    0.0000 C   0  0  0  0  0  0  0  0  0  0  0  0
   -3.5741   -1.2396    0.0000 C   0  0  0  0  0  0  0  0  0  0  0  0
   -4.2887   -0.0019    0.0000 C   0  0  0  0  0  0  0  0  0  0  0  0
   -4.2887   -0.8271    0.0000 C   0  0  0  0  0  0  0  0  0  0  0  0
   -2.1448    0.4105    0.0000 C   0  0  0  0  0  0  0  0  0  0  0  0
   -1.4302   -0.0020    0.0000 C   0  0  0  0  0  0  0  0  0  0  0  0
   -2.1449   -1.2396    0.0000 C   0  0  0  0  0  0  0  0  0  0  0  0
   -1.4302   -0.8271    0.0000 C   0  0  0  0  0  0  0  0  0  0  0  0
   -0.7157    0.4104    0.0000 C   0  0  0  0  0  0  0  0  0  0  0  0
   -0.0012   -0.0021    0.0000 C   0  0  0  0  0  0  0  0  0  0  0  0
   -0.7158   -1.2396    0.0000 C   0  0  0  0  0  0  0  0  0  0  0  0
   -0.0013   -0.8272    0.0000 C   0  0  0  0  0  0  0  0  0  0  0  0
    0.7133    0.4101    0.0000 C   0  0  0  0  0  0  0  0  0  0  0  0
    1.4276   -0.0024    0.0000 C   0  0  0  0  0  0  0  0  0  0  0  0
    0.7130   -1.2397    0.0000 C   0  0  0  0  0  0  0  0  0  0  0  0
    1.4275   -0.8274    0.0000 C   0  0  0  0  0  0  0  0  0  0  0  0
    2.1421    0.4097    0.0000 C   0  0  0  0  0  0  0  0  0  0  0  0
    2.8565   -0.0027    0.0000 C   0  0  0  0  0  0  0  0  0  0  0  0
    2.1418   -1.2399    0.0000 C   0  0  0  0  0  0  0  0  0  0  0  0
    2.8563   -0.8276    0.0000 C   0  0  0  0  0  0  0  0  0  0  0  0
    3.5723    0.4147    0.0000 C   0  0  0  0  0  0  0  0  0  0  0  0
    4.2887    0.0054    0.0000 O   0  0  0  0  0  0  0  0  0  0  0  0
    3.5686    1.2399    0.0000 O   0  0  0  0  0  0  0  0  0  0  0  0
  3  1  1  0
  4  2  1  0
  5  3  1  0
  6  4  1  0
  6  5  1  0
  7  1  1  0
  8  7  1  0
  9  2  1  0
 10  9  1  0
 11  8  1  0
 12 11  1  0
 13 10  1  0
 14 13  1  0
 15 12  1  0
 16 15  1  0
 17 14  1  0
 18 17  1  0
 19 16  1  0
 20 19  1  0
 20 23  1  0
 21 18  1  0
 22 21  1  0
 23 24  1  0
 23 25  2  0
M  END
>  <DRUGBANK_ID>  (1) 
DB03500

>  <SECONDARY_ACCESSION_NUMBERS>  (1) 
EXPT01377

>  <COMMON_NAME>  (1) 
Tricosanoic acid

>  <CAS_NUMBER>  (1) 
2433-96-7

>  <UNII>  (1) 
MUC9A0MS6V

>  <SYNONYMS>  (1) 
n-Tricosanoic acid

$$$$
