
     RDKit          2D

 35 40  0  0  1  0  0  0  0  0999 V2000
    1.8226   -0.6406    0.0000 O   0  0  0  0  0  0  0  0  0  0  0  0
    1.3377    0.0269    0.0000 C   0  0  0  0  0  0  0  0  0  0  0  0
    0.5127    0.0269    0.0000 N   0  0  0  0  0  0  0  0  0  0  0  0
    0.0278   -0.6406    0.0000 C   0  0  0  0  0  0  0  0  0  0  0  0
    0.3633   -1.3942    0.0000 C   0  0  0  0  0  0  0  0  0  0  0  0
   -0.1216   -2.0617    0.0000 C   0  0  0  0  0  0  0  0  0  0  0  0
   -0.9421   -1.9754    0.0000 C   0  0  0  0  0  0  0  0  0  0  0  0
   -1.4270   -2.6429    0.0000 O   0  0  0  0  0  0  0  0  0  0  0  0
   -1.2776   -1.2218    0.0000 N   0  0  0  0  0  0  0  0  0  0  0  0
   -0.7927   -0.5543    0.0000 C   0  0  0  0  0  0  0  0  0  0  0  0
   -1.1283    0.1993    0.0000 O   0  0  0  0  0  0  0  0  0  0  0  0
    0.2578    0.8115    0.0000 C   0  0  0  0  0  0  0  0  0  0  0  0
   -0.4959    1.1470    0.0000 C   0  0  0  0  0  0  0  0  0  0  0  0
   -0.5821    1.9675    0.0000 C   0  0  0  0  0  0  0  0  0  0  0  0
    0.0853    2.4525    0.0000 C   0  0  0  0  0  0  0  0  0  0  0  0
   -0.0009    3.2729    0.0000 C   0  0  0  0  0  0  0  0  0  0  0  0
    0.6665    3.7579    0.0000 C   0  0  0  0  0  0  0  0  0  0  0  0
    0.5803    4.5783    0.0000 C   0  0  0  0  0  0  0  0  0  0  0  0
    1.2477    5.0633    0.0000 C   0  0  0  0  0  0  0  0  0  0  0  0
    2.0014    4.7277    0.0000 C   0  0  0  0  0  0  0  0  0  0  0  0
    2.6688    5.2126    0.0000 C   0  0  0  0  0  0  0  0  0  0  0  0
    3.4225    4.8771    0.0000 N   0  0  0  0  0  0  0  0  0  0  0  0
    4.0899    5.3620    0.0000 C   0  0  0  0  0  0  0  0  0  0  0  0
    4.8436    5.0264    0.0000 C   0  0  0  0  0  0  0  0  0  0  0  0
    4.9298    4.2060    0.0000 O   0  0  0  0  0  0  0  0  0  0  0  0
    4.2624    3.7210    0.0000 C   0  0  0  0  0  0  0  0  0  0  0  0
    3.5087    4.0566    0.0000 C   0  0  0  0  0  0  0  0  0  0  0  0
    2.0876    3.9072    0.0000 C   0  0  0  0  0  0  0  0  0  0  0  0
    1.4202    3.4223    0.0000 C   0  0  0  0  0  0  0  0  0  0  0  0
    0.8390    2.1169    0.0000 C   0  0  0  0  0  0  0  0  0  0  0  0
    1.7651    2.4525    0.0000 C   0  0  0  0  0  0  0  0  0  0  0  0
    2.4326    1.9675    0.0000 C   0  0  0  0  0  0  0  0  0  0  0  0
    2.3463    1.1470    0.0000 C   0  0  0  0  0  0  0  0  0  0  0  0
    1.5926    0.8115    0.0000 C   0  0  0  0  0  0  0  0  0  0  0  0
    0.9252    1.2964    0.0000 C   0  0  0  0  0  0  0  0  0  0  0  0
  1  2  2  0
  2  3  1  0
  2 34  1  0
  3 12  1  0
  4  3  1  1
  4  5  1  0
  4 10  1  0
  5  6  1  0
  6  7  1  0
  7  8  2  0
  7  9  1  0
  9 10  1  0
 10 11  2  0
 12 13  2  0
 12 35  1  0
 13 14  1  0
 14 15  2  0
 15 16  1  0
 15 30  1  0
 16 17  1  0
 17 18  2  0
 17 29  1  0
 18 19  1  0
 19 20  2  0
 20 21  1  0
 20 28  1  0
 21 22  1  0
 22 23  1  0
 22 27  1  0
 23 24  1  0
 24 25  1  0
 25 26  1  0
 26 27  1  0
 28 29  2  0
 30 31  1  0
 30 35  2  0
 31 32  2  0
 32 33  1  0
 33 34  2  0
 34 35  1  0
M  END
>  <DRUGBANK_ID>  (1) 
DB18400

>  <COMMON_NAME>  (1) 
Cemsidomide

>  <CAS_NUMBER>  (1) 
2504235-67-8

>  <UNII>  (1) 
D86MF5H9WJ

>  <SYNONYMS>  (1) 
(3s)-3-(6-((4-(morpholin-4-ylmethyl)phenyl)methyl)-2-oxobenzo(cd)indol-1-yl)piperidine-2,6-dione; 2,6-piperidinedione, 3-(6-((4-(4-morpholinylmethyl)phenyl)methyl)-2-oxobenz(cd)indol-1(2h)-yl)-, (3s)-

$$$$
