
     RDKit          2D

 40 44  0  0  0  0  0  0  0  0999 V2000
   -4.1568   -1.7861    0.0000 N   0  0  0  0  0  0  0  0  0  0  0  0
   -4.5693   -1.0717    0.0000 C   0  0  0  0  0  0  0  0  0  0  0  0
   -3.3318   -1.7861    0.0000 C   0  0  0  0  0  0  0  0  0  0  0  0
   -2.9193   -1.0717    0.0000 C   0  0  0  0  0  0  0  0  0  0  0  0
   -2.9193   -2.5006    0.0000 C   0  0  0  0  0  0  0  0  0  0  0  0
   -2.0943   -1.0717    0.0000 N   0  0  0  0  0  0  0  0  0  0  0  0
   -3.3318   -0.3572    0.0000 C   0  0  0  0  0  0  0  0  0  0  0  0
   -4.1568   -0.3572    0.0000 C   0  0  0  0  0  0  0  0  0  0  0  0
   -1.6818   -0.3572    0.0000 C   0  0  0  0  0  0  0  0  0  0  0  0
   -0.8568   -0.3572    0.0000 C   0  0  0  0  0  0  0  0  0  0  0  0
   -0.4443    0.3572    0.0000 C   0  0  0  0  0  0  0  0  0  0  0  0
    0.3806    0.3572    0.0000 C   0  0  0  0  0  0  0  0  0  0  0  0
    0.7931   -0.3572    0.0000 C   0  0  0  0  0  0  0  0  0  0  0  0
    1.6181   -0.3572    0.0000 C   0  0  0  0  0  0  0  0  0  0  0  0
    1.2056    0.3572    0.0000 C   0  0  0  0  0  0  0  0  0  0  0  0
    1.6181    1.0717    0.0000 C   0  0  0  0  0  0  0  0  0  0  0  0
    2.4431    1.0717    0.0000 C   0  0  0  0  0  0  0  0  0  0  0  0
    2.8556    1.7861    0.0000 C   0  0  0  0  0  0  0  0  0  0  0  0
    2.4431    2.5006    0.0000 C   0  0  0  0  0  0  0  0  0  0  0  0
    1.6181    2.5006    0.0000 C   0  0  0  0  0  0  0  0  0  0  0  0
    1.2056    1.7861    0.0000 C   0  0  0  0  0  0  0  0  0  0  0  0
    2.0306    0.3572    0.0000 C   0  0  0  0  0  0  0  0  0  0  0  0
    2.8556    0.3572    0.0000 C   0  0  0  0  0  0  0  0  0  0  0  0
    3.9001    0.1730    0.0000 O   0  0  0  0  0  0  0  0  0  0  0  0
    3.2681   -0.3572    0.0000 C   0  0  0  0  0  0  0  0  0  0  0  0
    2.8556   -1.0717    0.0000 C   0  0  0  0  0  0  0  0  0  0  0  0
    2.0306   -1.0717    0.0000 C   0  0  0  0  0  0  0  0  0  0  0  0
    1.6181   -1.7861    0.0000 C   0  0  0  0  0  0  0  0  0  0  0  0
    0.7931   -1.7861    0.0000 C   0  0  0  0  0  0  0  0  0  0  0  0
    0.3806   -1.0717    0.0000 C   0  0  0  0  0  0  0  0  0  0  0  0
   -0.4443   -1.0717    0.0000 C   0  0  0  0  0  0  0  0  0  0  0  0
   -2.0943    0.3572    0.0000 O   0  0  0  0  0  0  0  0  0  0  0  0
    3.7569    0.9855    0.0000 P   0  0  0  0  0  0  0  0  0  0  0  0
    3.6136    1.7979    0.0000 O   0  0  0  0  0  0  0  0  0  0  0  0
    4.5693    1.1287    0.0000 O   0  0  0  0  0  0  0  0  0  0  0  0
    2.9444    0.8422    0.0000 O   0  0  0  0  0  0  0  0  0  0  0  0
    3.9001   -0.8875    0.0000 C   0  0  0  0  0  0  0  0  0  0  0  0
    4.5321   -1.4178    0.0000 F   0  0  0  0  0  0  0  0  0  0  0  0
    3.3698   -1.5195    0.0000 F   0  0  0  0  0  0  0  0  0  0  0  0
    4.4304   -0.2555    0.0000 F   0  0  0  0  0  0  0  0  0  0  0  0
  1  2  2  0
  1  3  1  0
  2  8  1  0
  3  4  2  0
  4  6  1  0
  5  3  1  0
  6  9  1  0
  7  4  1  0
  8  7  2  0
  9 32  2  0
 10  9  1  0
 10 31  1  0
 11 10  2  0
 11 12  1  0
 13 12  2  0
 13 14  1  0
 14 15  1  1
 16 15  1  0
 17 16  2  0
 17 18  1  0
 18 19  2  0
 19 20  1  0
 20 21  2  0
 21 16  1  0
 22 23  1  0
 22 14  1  0
 24 33  1  0
 25 24  1  1
 25 26  1  0
 25 23  1  0
 25 37  1  0
 27 14  1  0
 27 26  1  1
 28 29  1  0
 28 27  1  0
 29 30  1  0
 30 13  1  0
 31 30  2  0
 33 34  2  0
 35 33  1  0
 36 33  1  0
 37 38  1  0
 37 39  1  0
 37 40  1  0
M  END
>  <DRUGBANK_ID>  (1) 
DB12198

>  <COMMON_NAME>  (1) 
Fosdagrocorat

>  <CAS_NUMBER>  (1) 
1044535-58-1

>  <UNII>  (1) 
HPI19004QS

>  <SYNONYMS>  (1) 
Fosdagrocorat

$$$$
