CQP
     RDKit          2D

 29 32  0  0  0  0  0  0  0  0999 V2000
    1.7224   -5.3556    0.0000 Cl  0  0  0  0  0  0  0  0  0  0  0  0
    1.2375   -4.6882    0.0000 C   0  0  0  0  0  0  0  0  0  0  0  0
    0.4170   -4.7744    0.0000 C   0  0  0  0  0  0  0  0  0  0  0  0
   -0.0679   -4.1070    0.0000 C   0  0  0  0  0  0  0  0  0  0  0  0
    0.2677   -3.3533    0.0000 C   0  0  0  0  0  0  0  0  0  0  0  0
   -0.2173   -2.6859    0.0000 C   0  0  0  0  0  0  0  0  0  0  0  0
    0.1183   -1.9322    0.0000 O   0  0  0  0  0  0  0  0  0  0  0  0
   -0.3666   -1.2648    0.0000 C   0  0  0  0  0  0  0  0  0  0  0  0
   -1.1916   -1.2648    0.0000 C   0  0  0  0  0  0  0  0  0  0  0  0
   -1.4466   -0.4801    0.0000 N   0  0  0  0  0  0  0  0  0  0  0  0
   -0.7791    0.0048    0.0000 C   0  0  0  0  0  0  0  0  0  0  0  0
   -0.7791    0.8298    0.0000 C   0  0  0  0  0  0  0  0  0  0  0  0
   -0.0647    1.2423    0.0000 N   0  0  0  0  0  0  0  0  0  0  0  0
   -0.0647    2.0673    0.0000 S   0  0  0  0  0  0  0  0  0  0  0  0
    0.7603    2.0673    0.0000 O   0  0  0  0  0  0  0  0  0  0  0  0
   -0.8897    2.0673    0.0000 O   0  0  0  0  0  0  0  0  0  0  0  0
   -0.0647    2.8923    0.0000 C   0  0  0  0  0  0  0  0  0  0  0  0
   -0.7791    3.3048    0.0000 C   0  0  0  0  0  0  0  0  0  0  0  0
   -0.7791    4.1298    0.0000 C   0  0  0  0  0  0  0  0  0  0  0  0
   -0.0647    4.5423    0.0000 C   0  0  0  0  0  0  0  0  0  0  0  0
    0.6498    4.1298    0.0000 C   0  0  0  0  0  0  0  0  0  0  0  0
    1.3643    4.5423    0.0000 C   0  0  0  0  0  0  0  0  0  0  0  0
    2.0788    4.1298    0.0000 N   0  0  0  0  0  0  0  0  0  0  0  0
    2.0788    3.3048    0.0000 C   0  0  0  0  0  0  0  0  0  0  0  0
    1.3643    2.8923    0.0000 C   0  0  0  0  0  0  0  0  0  0  0  0
    0.6498    3.3048    0.0000 C   0  0  0  0  0  0  0  0  0  0  0  0
    1.0881   -3.2671    0.0000 C   0  0  0  0  0  0  0  0  0  0  0  0
   -0.1117   -0.4801    0.0000 C   0  0  0  0  0  0  0  0  0  0  0  0
    1.5731   -3.9345    0.0000 C   0  0  0  0  0  0  0  0  0  0  0  0
  1  2  1  0
  2  3  2  0
  2 29  1  0
  3  4  1  0
  4  5  2  0
  5  6  1  0
  5 27  1  0
  6  7  1  0
  8  7  1  1
  8  9  1  0
  8 28  1  0
  9 10  1  0
 10 11  1  0
 11 12  1  6
 11 28  1  0
 12 13  1  0
 13 14  1  0
 14 15  2  0
 14 16  2  0
 14 17  1  0
 17 18  2  0
 17 26  1  0
 18 19  1  0
 19 20  2  0
 20 21  1  0
 21 22  1  0
 21 26  2  0
 22 23  2  0
 23 24  1  0
 24 25  2  0
 25 26  1  0
 27 29  2  0
M  END
>  <DRUGBANK_ID>  (1) 
DB07583

>  <COMMON_NAME>  (1) 
(4R,2S)-5'-(4-(4-CHLOROBENZYLOXY)PYRROLIDIN-2-YLMETHANESULFONYL)ISOQUINOLINE

$$$$
