
     RDKit          2D

 22 23  0  0  0  0  0  0  0  0999 V2000
    1.8636   -0.3583    0.0000 C   0  0  0  0  0  0  0  0  0  0  0  0
   -1.8519    0.3661    0.0000 C   0  0  0  0  0  0  0  0  0  0  0  0
   -2.6737    0.3738    0.0000 C   0  0  0  0  0  0  0  0  0  0  0  0
   -3.0904   -0.3388    0.0000 C   0  0  0  0  0  0  0  0  0  0  0  0
   -1.4313    1.0749    0.0000 O   0  0  0  0  0  0  0  0  0  0  0  0
    2.2803    0.3622    0.0000 C   0  0  0  0  0  0  0  0  0  0  0  0
    1.8636    1.0749    0.0000 O   0  0  0  0  0  0  0  0  0  0  0  0
    1.0417   -0.3583    0.0000 O   0  0  0  0  0  0  0  0  0  0  0  0
   -1.4429   -0.3505    0.0000 C   0  0  0  0  0  0  0  0  0  0  0  0
   -2.6815   -1.0593    0.0000 C   0  0  0  0  0  0  0  0  0  0  0  0
   -0.6056    1.0749    0.0000 C   0  0  0  0  0  0  0  0  0  0  0  0
    1.0417    1.0749    0.0000 C   0  0  0  0  0  0  0  0  0  0  0  0
   -3.0787    1.0905    0.0000 Cl  0  0  0  0  0  0  0  0  0  0  0  0
    2.2803   -1.0710    0.0000 O   0  0  0  0  0  0  0  0  0  0  0  0
   -1.8519   -1.0593    0.0000 C   0  0  0  0  0  0  0  0  0  0  0  0
   -3.1021   -1.7720    0.0000 Cl  0  0  0  0  0  0  0  0  0  0  0  0
   -0.1967    1.7876    0.0000 C   0  0  0  0  0  0  0  0  0  0  0  0
    0.6250    0.3622    0.0000 C   0  0  0  0  0  0  0  0  0  0  0  0
   -0.1927    0.3622    0.0000 C   0  0  0  0  0  0  0  0  0  0  0  0
    0.6250    1.7876    0.0000 C   0  0  0  0  0  0  0  0  0  0  0  0
    3.1021    0.3622    0.0000 C   0  0  0  0  0  0  0  0  0  0  0  0
    1.8636   -1.7876    0.0000 C   0  0  0  0  0  0  0  0  0  0  0  0
  2  5  1  0
  3  2  2  0
  4  3  1  0
  4 10  2  0
  5 11  1  0
  6  1  1  0
  7  6  1  0
  8  1  2  0
  9  2  1  0
 10 15  1  0
 11 17  1  0
 12  7  1  0
 13  3  1  0
 14  1  1  0
 15  9  2  0
 16 10  1  0
 17 20  2  0
 18 12  2  0
 19 18  1  0
 19 11  2  0
 20 12  1  0
 21  6  1  0
 22 14  1  0
M  END
>  <DRUGBANK_ID>  (1) 
DB13918

>  <COMMON_NAME>  (1) 
Diclofop-methyl

>  <CAS_NUMBER>  (1) 
51338-27-3

>  <UNII>  (1) 
9T8QCB25UO

>  <SYNONYMS>  (1) 
Dichlorfop-methyl; Diclofop methyl; Diclosan; Hoegrass; Hoelon; Illoxan; Methyldiclofop

$$$$
