
     RDKit          2D

 13 13  0  0  0  0  0  0  0  0999 V2000
   -1.1083    0.0000    0.0000 C   0  0  0  0  0  0  0  0  0  0  0  0
   -0.3554   -0.4183    0.0000 C   0  0  0  0  0  0  0  0  0  0  0  0
   -1.8194   -0.4183    0.0000 C   0  0  0  0  0  0  0  0  0  0  0  0
   -1.1083    0.8365    0.0000 C   0  0  0  0  0  0  0  0  0  0  0  0
    0.3555    0.0000    0.0000 N   0  0  0  0  0  0  0  0  0  0  0  0
   -0.3554   -1.2547    0.0000 O   0  0  0  0  0  0  0  0  0  0  0  0
   -2.5304    0.0000    0.0000 C   0  0  0  0  0  0  0  0  0  0  0  0
   -1.8194    1.2547    0.0000 C   0  0  0  0  0  0  0  0  0  0  0  0
    1.0666   -0.4183    0.0000 N   0  0  0  0  0  0  0  0  0  0  0  0
   -2.5304    0.8365    0.0000 N   0  0  0  0  0  0  0  0  0  0  0  0
    1.8195    0.0000    0.0000 C   0  0  0  0  0  0  0  0  0  0  0  0
    2.5304   -0.4183    0.0000 C   0  0  0  0  0  0  0  0  0  0  0  0
    1.8195    0.8365    0.0000 C   0  0  0  0  0  0  0  0  0  0  0  0
  1  4  2  0
  1  2  1  0
  1  3  1  0
  2  5  1  0
  2  6  2  0
  3  7  2  0
  4  8  1  0
  5  9  1  0
  7 10  1  0
  8 10  2  0
  9 11  1  0
 11 12  1  0
 11 13  1  0
M  END
>  <DRUGBANK_ID>  (1) 
DB04818

>  <COMMON_NAME>  (1) 
Iproniazid

>  <CAS_NUMBER>  (1) 
54-92-2

>  <UNII>  (1) 
D892HFI3XA

>  <SYNONYMS>  (1) 
Iproniazid; Iproniazida; Iproniazide; Iproniazidum

$$$$
