SS4
     RDKit          2D

 28 31  0  0  0  0  0  0  0  0999 V2000
   -3.3702    2.5103    0.0000 N   0  0  0  0  0  0  0  0  0  0  0  0
    1.4717    1.6853    0.0000 N   0  0  0  0  0  0  0  0  0  0  0  0
   -2.1006    2.9228    0.0000 C   0  0  0  0  0  0  0  0  0  0  0  0
   -1.3861    3.3353    0.0000 C   0  0  0  0  0  0  0  0  0  0  0  0
   -0.6717    2.9228    0.0000 C   0  0  0  0  0  0  0  0  0  0  0  0
   -2.8852    1.8428    0.0000 C   0  0  0  0  0  0  0  0  0  0  0  0
   -1.3861   -3.2647    0.0000 C   0  0  0  0  0  0  0  0  0  0  0  0
   -0.6717   -4.5022    0.0000 C   0  0  0  0  0  0  0  0  0  0  0  0
   -3.1402    1.0582    0.0000 C   0  0  0  0  0  0  0  0  0  0  0  0
   -0.6717   -2.8522    0.0000 C   0  0  0  0  0  0  0  0  0  0  0  0
    0.0428    1.6853    0.0000 C   0  0  0  0  0  0  0  0  0  0  0  0
    0.0428    0.8603    0.0000 C   0  0  0  0  0  0  0  0  0  0  0  0
    0.7573    0.4478    0.0000 C   0  0  0  0  0  0  0  0  0  0  0  0
    0.0428   -0.7897    0.0000 C   0  0  0  0  0  0  0  0  0  0  0  0
   -0.6717    2.0978    0.0000 C   0  0  0  0  0  0  0  0  0  0  0  0
   -1.3861    1.6853    0.0000 C   0  0  0  0  0  0  0  0  0  0  0  0
   -2.1006    2.0978    0.0000 C   0  0  0  0  0  0  0  0  0  0  0  0
   -2.8852    3.1777    0.0000 N   0  0  0  0  0  0  0  0  0  0  0  0
   -1.3861   -4.0897    0.0000 C   0  0  0  0  0  0  0  0  0  0  0  0
    0.0428   -3.2647    0.0000 C   0  0  0  0  0  0  0  0  0  0  0  0
    1.4717    0.8603    0.0000 C   0  0  0  0  0  0  0  0  0  0  0  0
    0.7573    2.0978    0.0000 C   0  0  0  0  0  0  0  0  0  0  0  0
    0.0428   -4.0897    0.0000 C   0  0  0  0  0  0  0  0  0  0  0  0
    0.7573   -0.3772    0.0000 O   0  0  0  0  0  0  0  0  0  0  0  0
    0.0428   -1.6147    0.0000 C   0  0  0  0  0  0  0  0  0  0  0  0
   -0.6717   -2.0272    0.0000 C   0  0  0  0  0  0  0  0  0  0  0  0
    0.7573   -2.0272    0.0000 N   0  0  0  0  0  0  0  0  0  0  0  0
   -0.6717   -5.3272    0.0000 Br  0  0  0  0  0  0  0  0  0  0  0  0
  1  6  2  0
  1 18  1  0
  2 21  2  0
  2 22  1  0
  3  4  1  0
  3 17  2  0
  3 18  1  0
  4  5  2  0
  5 15  1  0
  6  9  1  0
  6 17  1  0
  7 10  2  0
  7 19  1  0
  8 19  2  0
  8 23  1  0
  8 28  1  0
 10 20  1  0
 10 26  1  0
 11 12  1  0
 11 15  1  0
 11 22  2  0
 12 13  2  0
 13 21  1  0
 13 24  1  0
 14 24  1  0
 14 25  1  0
 15 16  2  0
 16 17  1  0
 20 23  2  0
 25 26  1  0
 25 27  1  1
M  END
>  <DRUGBANK_ID>  (1) 
DB08569

>  <COMMON_NAME>  (1) 
3-PYRIDIN-4-YL-2,4-DIHYDRO-INDENO[1,2-.C.] PYRAZOLE

$$$$
