
     RDKit          2D

 36 41  0  0  1  0  0  0  0  0999 V2000
    3.4566    2.1433    0.0000 C   0  0  0  0  0  0  0  0  0  0  0  0
    3.8691    2.8578    0.0000 C   0  0  0  0  0  0  0  0  0  0  0  0
    4.6941    2.8578    0.0000 C   0  0  0  0  0  0  0  0  0  0  0  0
    5.1066    2.1433    0.0000 C   0  0  0  0  0  0  0  0  0  0  0  0
    4.6941    1.4288    0.0000 C   0  0  0  0  0  0  0  0  0  0  0  0
    3.8691    1.4288    0.0000 C   0  0  0  0  0  0  0  0  0  0  0  0
    3.4566    0.7144    0.0000 C   0  0  0  0  0  0  0  0  0  0  0  0
    3.8691   -0.0001    0.0000 N   0  0  0  0  0  0  0  0  0  0  0  0
    3.4566   -0.7146    0.0000 C   0  0  0  0  0  0  0  0  0  0  0  0
    2.6316   -0.7146    0.0000 N   0  0  0  0  0  0  0  0  0  0  0  0
    2.0215   -0.1243    0.0000 C   0  0  0  0  0  0  0  0  0  0  0  0
    2.6316    0.7144    0.0000 N   0  0  0  0  0  0  0  0  0  0  0  0
    1.3941   -0.0001    0.0000 N   0  0  0  0  0  0  0  0  0  0  0  0
    1.1624    0.9268    0.0000 C   0  0  0  0  0  0  0  0  0  0  0  0
    0.5174    0.4124    0.0000 C   0  0  0  0  0  0  0  0  0  0  0  0
    0.5174   -0.4126    0.0000 C   0  0  0  0  0  0  0  0  0  0  0  0
    1.1624   -0.9270    0.0000 C   0  0  0  0  0  0  0  0  0  0  0  0
    1.9667   -0.7434    0.0000 C   0  0  0  0  0  0  0  0  0  0  0  0
    2.3247   -0.0001    0.0000 O   0  0  0  0  0  0  0  0  0  0  0  0
    1.9667    0.7432    0.0000 C   0  0  0  0  0  0  0  0  0  0  0  0
    3.8691   -1.4290    0.0000 N   0  0  0  0  0  0  0  0  0  0  0  0
    4.6941   -1.4290    0.0000 C   0  0  0  0  0  0  0  0  0  0  0  0
    5.1066   -2.1435    0.0000 C   0  0  0  0  0  0  0  0  0  0  0  0
    4.6941   -2.8580    0.0000 O   0  0  0  0  0  0  0  0  0  0  0  0
    3.8691   -2.8580    0.0000 C   0  0  0  0  0  0  0  0  0  0  0  0
    3.4566   -2.1435    0.0000 C   0  0  0  0  0  0  0  0  0  0  0  0
    5.1066    3.5723    0.0000 N   0  0  0  0  0  0  0  0  0  0  0  0
    5.9316    3.5723    0.0000 C   0  0  0  0  0  0  0  0  0  0  0  0
    6.3441    2.8578    0.0000 O   0  0  0  0  0  0  0  0  0  0  0  0
    6.3441    4.2867    0.0000 N   0  0  0  0  0  0  0  0  0  0  0  0
    7.1691    4.2867    0.0000 C   0  0  0  0  0  0  0  0  0  0  0  0
    7.5816    5.0012    0.0000 C   0  0  0  0  0  0  0  0  0  0  0  0
    8.4066    5.0012    0.0000 C   0  0  0  0  0  0  0  0  0  0  0  0
    8.8191    4.2867    0.0000 N   0  0  0  0  0  0  0  0  0  0  0  0
    8.4066    3.5723    0.0000 C   0  0  0  0  0  0  0  0  0  0  0  0
    7.5816    3.5723    0.0000 C   0  0  0  0  0  0  0  0  0  0  0  0
  1  2  2  0
  1  6  1  0
  2  3  1  0
  3  4  2  0
  3 27  1  0
  4  5  1  0
  5  6  2  0
  6  7  1  0
  7  8  2  0
  7 12  1  0
  8  9  1  0
  9 10  2  0
  9 21  1  0
 10 11  1  0
 11 12  2  0
 11 13  1  0
 14 13  1  0
 14 15  1  6
 14 20  1  0
 15 16  1  0
 17 16  1  6
 17 13  1  0
 17 18  1  0
 18 19  1  0
 19 20  1  0
 21 22  1  0
 21 26  1  0
 22 23  1  0
 23 24  1  0
 24 25  1  0
 25 26  1  0
 27 28  1  0
 28 29  2  0
 28 30  1  0
 30 31  1  0
 31 32  2  0
 31 36  1  0
 32 33  1  0
 33 34  2  0
 34 35  1  0
 35 36  2  0
M  END
>  <DRUGBANK_ID>  (1) 
DB13109

>  <COMMON_NAME>  (1) 
PKI-179

>  <CAS_NUMBER>  (1) 
1197160-28-3

>  <UNII>  (1) 
CNN7Y60164

$$$$
