
     RDKit          2D

 24 27  0  0  0  0  0  0  0  0999 V2000
    2.8089   -0.6188    0.0000 O   0  0  0  0  0  0  0  0  0  0  0  0
    2.8089    0.2061    0.0000 P   0  0  0  0  0  0  0  0  0  0  0  0
    2.0944    0.6186    0.0000 O   0  0  0  0  0  0  0  0  0  0  0  0
    1.3799    0.2061    0.0000 C   0  0  0  0  0  0  0  0  0  0  0  0
    1.3799   -0.6188    0.0000 C   0  0  0  0  0  0  0  0  0  0  0  0
    2.0944   -1.0313    0.0000 C   0  0  0  0  0  0  0  0  0  0  0  0
    0.6654   -1.0312    0.0000 O   0  0  0  0  0  0  0  0  0  0  0  0
   -0.0490   -0.6187    0.0000 C   0  0  0  0  0  0  0  0  0  0  0  0
   -0.0489    0.2062    0.0000 C   0  0  0  0  0  0  0  0  0  0  0  0
    0.6655    0.6187    0.0000 C   0  0  0  0  0  0  0  0  0  0  0  0
    1.1958    1.2507    0.0000 O   0  0  0  0  0  0  0  0  0  0  0  0
    0.1352    1.2507    0.0000 O   0  0  0  0  0  0  0  0  0  0  0  0
   -0.7634    0.6187    0.0000 N   0  0  0  0  0  0  0  0  0  0  0  0
   -1.4779    0.2063    0.0000 C   0  0  0  0  0  0  0  0  0  0  0  0
   -1.4779   -0.6186    0.0000 C   0  0  0  0  0  0  0  0  0  0  0  0
   -0.7634   -1.0312    0.0000 N   0  0  0  0  0  0  0  0  0  0  0  0
   -2.1924   -1.0311    0.0000 N   0  0  0  0  0  0  0  0  0  0  0  0
   -2.9068   -0.6186    0.0000 C   0  0  0  0  0  0  0  0  0  0  0  0
   -2.9068    0.2063    0.0000 N   0  0  0  0  0  0  0  0  0  0  0  0
   -2.1923    0.6188    0.0000 C   0  0  0  0  0  0  0  0  0  0  0  0
   -2.1923    1.4438    0.0000 O   0  0  0  0  0  0  0  0  0  0  0  0
   -3.6213   -1.0311    0.0000 N   0  0  0  0  0  0  0  0  0  0  0  0
    3.6213    0.0629    0.0000 O   0  0  0  0  0  0  0  0  0  0  0  0
    3.0911    0.9814    0.0000 O   0  0  0  0  0  0  0  0  0  0  0  0
  1  2  1  0
  1  6  1  0
  2  3  1  0
  2 23  1  0
  2 24  2  0
  4  3  1  1
  4  5  1  0
  4 10  1  0
  5  6  1  1
  5  7  1  0
  8  7  1  0
  8 16  1  1
  9  8  1  0
  9 13  1  1
 10  9  1  0
 10 11  1  0
 10 12  1  0
 13 14  1  0
 14 15  2  0
 14 20  1  0
 15 16  1  0
 15 17  1  0
 18 17  1  0
 18 22  1  0
 19 18  2  0
 20 19  1  0
 20 21  2  0
M  END
>  <DRUGBANK_ID>  (1) 
DB16628

>  <COMMON_NAME>  (1) 
Fosdenopterin

>  <CAS_NUMBER>  (1) 
150829-29-1

>  <UNII>  (1) 
4X7K2681Y7

>  <SYNONYMS>  (1) 
C(PMP); CPMP; Cyclic pyranopterin monophosphate; Fosdenopterin

$$$$
