007
     RDKit          2D

 13 14  0  0  0  0  0  0  0  0999 V2000
    0.9648    0.2262    0.0000 C   0  0  0  0  0  0  0  0  0  0  0  0
    1.6322   -0.2587    0.0000 C   0  0  0  0  0  0  0  0  0  0  0  0
    0.2973   -0.2587    0.0000 C   0  0  0  0  0  0  0  0  0  0  0  0
    1.3773   -1.0434    0.0000 C   0  0  0  0  0  0  0  0  0  0  0  0
    0.5523   -1.0434    0.0000 C   0  0  0  0  0  0  0  0  0  0  0  0
   -0.2611    0.3486    0.0000 C   0  0  0  0  0  0  0  0  0  0  0  0
   -1.0662    0.1686    0.0000 C   0  0  0  0  0  0  0  0  0  0  0  0
   -0.0144    1.1358    0.0000 C   0  0  0  0  0  0  0  0  0  0  0  0
   -1.6247    0.7759    0.0000 C   0  0  0  0  0  0  0  0  0  0  0  0
   -0.5728    1.7431    0.0000 C   0  0  0  0  0  0  0  0  0  0  0  0
   -1.3780    1.5631    0.0000 C   0  0  0  0  0  0  0  0  0  0  0  0
   -0.5114   -0.4218    0.0000 C   0  0  0  0  0  0  0  0  0  0  0  0
   -0.7745   -1.2037    0.0000 N   0  0  0  0  0  0  0  0  0  0  0  0
  1  2  1  0
  1  3  1  0
  2  4  1  0
  3  5  1  0
  3  6  1  0
  3 12  1  0
  4  5  1  0
  6  7  2  0
  6  8  1  0
  7  9  1  0
  8 10  2  0
  9 11  2  0
 10 11  1  0
 12 13  1  0
M  END
>  <DRUGBANK_ID>  (1) 
DB04577

>  <COMMON_NAME>  (1) 
1-(1-phenylcyclopentyl)methylamine

>  <CAS_NUMBER>  (1) 
17511-89-6

>  <UNII>  (1) 
03L0BL8FBI

>  <SYNONYMS>  (1) 
1-(1-phenylcyclopentyl)methanamine; 1-Phenylcyclopentanemethylamine; C-(1-Phenyl-cyclopentyl)-methylamine

$$$$
