
     RDKit          2D

 28 31  0  0  1  0  0  0  0  0999 V2000
    7.2792    0.0584    0.0000 N   0  0  0  0  0  0  0  0  0  0  0  0
    6.4735    0.2354    0.0000 C   0  0  0  0  0  0  0  0  0  0  0  0
    5.9172   -0.3739    0.0000 N   0  0  0  0  0  0  0  0  0  0  0  0
    5.1115   -0.1968    0.0000 C   0  0  0  0  0  0  0  0  0  0  0  0
    4.8619    0.5896    0.0000 C   0  0  0  0  0  0  0  0  0  0  0  0
    4.0561    0.7666    0.0000 N   0  0  0  0  0  0  0  0  0  0  0  0
    3.4999    0.1573    0.0000 C   0  0  0  0  0  0  0  0  0  0  0  0
    3.7495   -0.6290    0.0000 C   0  0  0  0  0  0  0  0  0  0  0  0
    4.5552   -0.8061    0.0000 N   0  0  0  0  0  0  0  0  0  0  0  0
    3.1932   -1.2383    0.0000 O   0  0  0  0  0  0  0  0  0  0  0  0
    2.3875   -1.0613    0.0000 C   0  0  0  0  0  0  0  0  0  0  0  0
    1.8312   -1.6706    0.0000 C   0  0  0  0  0  0  0  0  0  0  0  0
    1.0255   -1.4935    0.0000 O   0  0  0  0  0  0  0  0  0  0  0  0
    0.4692   -2.1028    0.0000 P   0  0  0  0  0  0  0  0  0  0  0  0
   -0.0870   -2.7121    0.0000 O   0  0  0  0  0  0  0  0  0  0  0  0
   -0.1401   -1.5466    0.0000 O   0  0  0  0  0  0  0  0  0  0  0  0
    1.0785   -2.6590    0.0000 O   0  0  0  0  0  0  0  0  0  0  0  0
    2.1379   -0.2749    0.0000 C   0  0  0  0  0  0  0  0  0  0  0  0
    2.6941    0.3344    0.0000 C   0  0  0  0  0  0  0  0  0  0  0  0
    2.2865    1.0516    0.0000 S   0  0  0  0  0  0  0  0  0  0  0  0
    1.4784    0.8856    0.0000 Mo  0  0  0  0  0  7  0  0  0  0  0  0
    1.6974    1.6811    0.0000 S   0  0  0  0  0  0  0  0  0  0  0  0
    0.8691    1.4419    0.0000 O   0  0  0  0  0  0  0  0  0  0  0  0
    0.7062    0.5953    0.0000 O   0  0  0  0  0  0  0  0  0  0  0  0
    1.3865    0.0658    0.0000 S   0  0  0  0  0  0  0  0  0  0  0  0
    5.4181    1.1989    0.0000 C   0  0  0  0  0  0  0  0  0  0  0  0
    5.1686    1.9852    0.0000 O   0  0  0  0  0  0  0  0  0  0  0  0
    6.2239    1.0218    0.0000 N   0  0  0  0  0  0  0  0  0  0  0  0
  1  2  1  0
  2  3  2  0
  2 28  1  0
  3  4  1  0
  4  5  2  0
  4  9  1  0
  5  6  1  0
  5 26  1  0
  7  6  1  6
  7  8  1  0
  7 19  1  0
  8  9  1  6
  8 10  1  0
 10 11  1  0
 11 12  1  1
 11 18  1  0
 12 13  1  0
 13 14  1  0
 14 15  1  0
 14 16  1  0
 14 17  2  0
 18 19  2  0
 18 25  1  0
 19 20  1  0
 20 21  1  0
 21 22  1  0
 21 23  2  0
 21 24  2  0
 21 25  1  0
 26 27  2  0
 26 28  1  0
M  END
>  <DRUGBANK_ID>  (1) 
DB03983

>  <SECONDARY_ACCESSION_NUMBERS>  (1) 
EXPT02249

>  <COMMON_NAME>  (1) 
{[2-Amino-4-oxo-6,7-di(sulfanyl-ÎºS)-3,5,5a,8,9a,10-hexahydro-4H-pyrano[3,2-g]pteridin-8-yl]methyl dihydrogenato(2-) phosphate}(dioxo)sulfanylmolybdenum

>  <SYNONYMS>  (1) 
(Molybdopterin-S,S)-dioxo-thio-molybdenum(V)

$$$$
