
     RDKit          2D

 11  9  0  0  1  0  0  0  0  0999 V2000
   -2.2149    0.2888    0.0000 C   0  0  0  0  0  0  0  0  0  0  0  0
   -1.5004   -0.1238    0.0000 S   0  0  0  0  0  0  0  0  0  0  0  0
   -1.5004   -0.9487    0.0000 C   0  0  0  0  0  0  0  0  0  0  0  0
   -0.7859    0.2887    0.0000 C   0  0  0  0  0  0  0  0  0  0  0  0
   -0.0714   -0.1238    0.0000 C   0  0  0  0  0  0  0  0  0  0  0  0
    0.6430    0.2887    0.0000 C   0  0  0  0  0  0  0  0  0  0  0  0
    1.3575   -0.1238    0.0000 C   0  0  0  0  0  0  0  0  0  0  0  0
    2.0720    0.2887    0.0000 O   0  0  0  0  0  0  0  0  0  0  0  0
    1.3575   -0.9488    0.0000 O   0  0  0  0  0  0  0  0  0  0  0  0
    0.6430    1.1137    0.0000 N   0  0  0  0  0  0  0  0  0  0  0  0
    4.4291    0.0000    0.0000 Cl  0  0  0  0  0  0  0  0  0  0  0  0
  1  2  1  0
  2  3  1  0
  2  4  1  0
  4  5  1  0
  5  6  1  0
  6  7  1  0
  6 10  1  6
  7  8  2  0
  7  9  1  0
M  CHG  2   2   1  11  -1
M  END
>  <DRUGBANK_ID>  (1) 
DB13250

>  <COMMON_NAME>  (1) 
Methylmethionine chloride

>  <CAS_NUMBER>  (1) 
1115-84-0

>  <UNII>  (1) 
G9CUR2204U

>  <SYNONYMS>  (1) 
Methiosulfonium chloride

$$$$
