6IA
     RDKit          2D

 28 30  0  0  0  0  0  0  0  0999 V2000
   -6.3926    0.8573    0.0000 O   0  0  0  0  0  0  0  0  0  0  0  0
   -5.6389    0.5217    0.0000 P   0  0  0  0  0  0  0  0  0  0  0  0
   -5.9745   -0.2319    0.0000 O   0  0  0  0  0  0  0  0  0  0  0  0
   -5.3034    1.2754    0.0000 O   0  0  0  0  0  0  0  0  0  0  0  0
   -4.8852    0.1862    0.0000 O   0  0  0  0  0  0  0  0  0  0  0  0
   -4.2178    0.6711    0.0000 C   0  0  0  0  0  0  0  0  0  0  0  0
   -3.4641    0.3355    0.0000 C   0  0  0  0  0  0  0  0  0  0  0  0
   -2.7497    0.7480    0.0000 O   0  0  0  0  0  0  0  0  0  0  0  0
   -3.2926   -0.4714    0.0000 C   0  0  0  0  0  0  0  0  0  0  0  0
   -3.8446   -1.0845    0.0000 O   0  0  0  0  0  0  0  0  0  0  0  0
   -2.4721   -0.5577    0.0000 C   0  0  0  0  0  0  0  0  0  0  0  0
   -2.0596   -1.2721    0.0000 O   0  0  0  0  0  0  0  0  0  0  0  0
   -2.1366    0.1960    0.0000 C   0  0  0  0  0  0  0  0  0  0  0  0
   -1.3296    0.3675    0.0000 N   0  0  0  0  0  0  0  0  0  0  0  0
   -0.9940    1.1212    0.0000 C   0  0  0  0  0  0  0  0  0  0  0  0
   -0.1736    1.0350    0.0000 N   0  0  0  0  0  0  0  0  0  0  0  0
   -0.0020    0.2280    0.0000 C   0  0  0  0  0  0  0  0  0  0  0  0
    0.7124   -0.1845    0.0000 C   0  0  0  0  0  0  0  0  0  0  0  0
    1.4269    0.2280    0.0000 N   0  0  0  0  0  0  0  0  0  0  0  0
    0.7124   -1.0095    0.0000 N   0  0  0  0  0  0  0  0  0  0  0  0
   -0.0020   -1.4220    0.0000 C   0  0  0  0  0  0  0  0  0  0  0  0
   -0.7165   -1.0095    0.0000 N   0  0  0  0  0  0  0  0  0  0  0  0
   -0.7165   -0.1845    0.0000 C   0  0  0  0  0  0  0  0  0  0  0  0
    2.1414   -0.1845    0.0000 C   0  0  0  0  0  0  0  0  0  0  0  0
    2.8559    0.2280    0.0000 C   0  0  0  0  0  0  0  0  0  0  0  0
    3.5703   -0.1845    0.0000 C   0  0  0  0  0  0  0  0  0  0  0  0
    4.2848    0.2280    0.0000 C   0  0  0  0  0  0  0  0  0  0  0  0
    3.5703   -1.0095    0.0000 C   0  0  0  0  0  0  0  0  0  0  0  0
  1  2  1  0
  2  3  2  0
  2  4  1  0
  2  5  1  0
  5  6  1  0
  7  6  1  1
  7  8  1  0
  7  9  1  0
  8 13  1  0
  9 10  1  6
  9 11  1  0
 11 12  1  6
 11 13  1  0
 13 14  1  1
 14 15  1  0
 14 23  1  0
 15 16  2  0
 16 17  1  0
 17 18  1  0
 17 23  2  0
 18 19  1  0
 18 20  2  0
 19 24  1  0
 20 21  1  0
 21 22  2  0
 22 23  1  0
 24 25  1  0
 25 26  1  0
 26 27  1  0
 26 28  1  0
M  END
>  <DRUGBANK_ID>  (1) 
DB07205

>  <COMMON_NAME>  (1) 
N6-ISOPENTENYL-ADENOSINE-5'-MONOPHOSPHATE

$$$$
