IBM
     RDKit          2D

 16 17  0  0  0  0  0  0  0  0999 V2000
   -1.7156   -0.1296    0.0000 N   0  0  0  0  0  0  0  0  0  0  0  0
   -2.2005   -0.7970    0.0000 C   0  0  0  0  0  0  0  0  0  0  0  0
   -1.7156   -1.4644    0.0000 N   0  0  0  0  0  0  0  0  0  0  0  0
   -0.9310   -1.2095    0.0000 C   0  0  0  0  0  0  0  0  0  0  0  0
   -0.9310   -0.3845    0.0000 C   0  0  0  0  0  0  0  0  0  0  0  0
   -0.2165    0.0280    0.0000 N   0  0  0  0  0  0  0  0  0  0  0  0
    0.4980   -0.3845    0.0000 C   0  0  0  0  0  0  0  0  0  0  0  0
    0.4980   -1.2095    0.0000 N   0  0  0  0  0  0  0  0  0  0  0  0
   -0.2165   -1.6220    0.0000 C   0  0  0  0  0  0  0  0  0  0  0  0
   -0.2165   -2.4470    0.0000 O   0  0  0  0  0  0  0  0  0  0  0  0
    1.2125    0.0280    0.0000 O   0  0  0  0  0  0  0  0  0  0  0  0
    1.2125   -1.6220    0.0000 C   0  0  0  0  0  0  0  0  0  0  0  0
   -0.2165    0.8530    0.0000 C   0  0  0  0  0  0  0  0  0  0  0  0
    0.4980    1.2655    0.0000 C   0  0  0  0  0  0  0  0  0  0  0  0
    0.4980    2.0905    0.0000 C   0  0  0  0  0  0  0  0  0  0  0  0
    1.2125    0.8530    0.0000 C   0  0  0  0  0  0  0  0  0  0  0  0
  1  2  1  0
  1  5  1  0
  2  3  2  0
  3  4  1  0
  4  5  2  0
  4  9  1  0
  5  6  1  0
  6  7  1  0
  6 13  1  0
  7  8  1  0
  7 11  2  0
  8  9  1  0
  8 12  1  0
  9 10  2  0
 13 14  1  0
 14 15  1  0
 14 16  1  0
M  END
>  <DRUGBANK_ID>  (1) 
DB07954

>  <COMMON_NAME>  (1) 
3-isobutyl-1-methyl-7H-xanthine

>  <CAS_NUMBER>  (1) 
28822-58-4

>  <UNII>  (1) 
TBT296U68M

>  <SYNONYMS>  (1) 
1-methyl-3-(2-methylpropyl)-7H-purine-2,6-dione; 1-methyl-3-isobutylxanthine; 3-isobutyl-1-methyl-3,7-dihydro-1H-purine-2,6-dione; 3-isobutyl-1-methylxanthine; 3-Isobutyl-1-methyxanthine; IBMX

$$$$
