
     RDKit          2D

 29 30  0  0  0  0  0  0  0  0999 V2000
   -0.9971   -0.4507    0.0000 C   0  0  0  0  0  0  0  0  0  0  0  0
   -0.9983   -1.2757    0.0000 O   0  0  0  0  0  0  0  0  0  0  0  0
   -0.2819   -0.0392    0.0000 N   0  0  0  0  0  0  0  0  0  0  0  0
    0.4319   -0.4527    0.0000 C   0  0  0  0  0  0  0  0  0  0  0  0
    1.1469   -0.0413    0.0000 C   0  0  0  0  0  0  0  0  0  0  0  0
    0.4307   -1.2777    0.0000 C   0  0  0  0  0  0  0  0  0  0  0  0
    1.1446   -1.6913    0.0000 C   0  0  0  0  0  0  0  0  0  0  0  0
    1.8608   -0.4548    0.0000 N   0  0  0  0  0  0  0  0  0  0  0  0
    1.1481    0.7836    0.0000 O   0  0  0  0  0  0  0  0  0  0  0  0
    2.5759   -0.0433    0.0000 C   0  0  0  0  0  0  0  0  0  0  0  0
    3.2898   -0.4569    0.0000 C   0  0  0  0  0  0  0  0  0  0  0  0
    4.0048   -0.0454    0.0000 O   0  0  0  0  0  0  0  0  0  0  0  0
    2.5771    0.7816    0.0000 C   0  0  0  0  0  0  0  0  0  0  0  0
    3.2924    1.1933    0.0000 C   0  0  0  0  0  0  0  0  0  0  0  0
    4.0685    0.9206    0.0000 C   0  0  0  0  0  0  0  0  0  0  0  0
    4.5682    1.5771    0.0000 C   0  0  0  0  0  0  0  0  0  0  0  0
    4.0982    2.2552    0.0000 N   0  0  0  0  0  0  0  0  0  0  0  0
    3.3082    2.0177    0.0000 C   0  0  0  0  0  0  0  0  0  0  0  0
    2.6508    2.5163    0.0000 O   0  0  0  0  0  0  0  0  0  0  0  0
   -1.7109   -0.0370    0.0000 O   0  0  0  0  0  0  0  0  0  0  0  0
   -2.4260   -0.4486    0.0000 C   0  0  0  0  0  0  0  0  0  0  0  0
   -3.1399   -0.0351    0.0000 C   0  0  0  0  0  0  0  0  0  0  0  0
   -3.1408    0.7888    0.0000 C   0  0  0  0  0  0  0  0  0  0  0  0
   -3.8538    1.2024    0.0000 C   0  0  0  0  0  0  0  0  0  0  0  0
   -4.5667    0.7909    0.0000 C   0  0  0  0  0  0  0  0  0  0  0  0
   -4.5682   -0.0383    0.0000 C   0  0  0  0  0  0  0  0  0  0  0  0
   -3.8548   -0.4481    0.0000 C   0  0  0  0  0  0  0  0  0  0  0  0
    1.1434   -2.5163    0.0000 C   0  0  0  0  0  0  0  0  0  0  0  0
    1.8596   -1.2798    0.0000 C   0  0  0  0  0  0  0  0  0  0  0  0
  1  2  2  0
  1  3  1  0
  1 20  1  0
  3  4  1  0
  4  5  1  0
  4  6  1  6
  5  8  1  0
  5  9  2  0
  6  7  1  0
  7 28  1  0
  7 29  1  0
  8 10  1  0
 10 11  1  1
 10 13  1  0
 11 12  2  0
 13 14  1  0
 14 15  1  0
 15 16  1  0
 16 17  1  0
 17 18  1  0
 18 14  1  0
 18 19  2  0
 20 21  1  0
 21 22  1  0
 22 23  2  0
 23 24  1  0
 24 25  2  0
 25 26  1  0
 26 27  2  0
 27 22  1  0
M  END
>  <DRUGBANK_ID>  (1) 
DB15797

>  <COMMON_NAME>  (1) 
GC-373

>  <UNII>  (1) 
W9SVW656LQ

$$$$
