
     RDKit          2D

  8  7  0  0  1  0  0  0  0  0999 V2000
   -0.1914    0.7145    0.0000 N   0  0  0  0  0  0  0  0  0  0  0  0
    0.5230    1.1270    0.0000 C   0  0  0  0  0  0  0  0  0  0  0  0
    1.2375    0.7145    0.0000 C   0  0  0  0  0  0  0  0  0  0  0  0
    1.9520    1.1270    0.0000 C   0  0  0  0  0  0  0  0  0  0  0  0
    1.9520    1.9520    0.0000 N   0  0  0  0  0  0  0  0  0  0  0  0
    2.6664    0.7145    0.0000 C   0  0  0  0  0  0  0  0  0  0  0  0
    3.3809    1.1270    0.0000 O   0  0  0  0  0  0  0  0  0  0  0  0
    2.6664   -0.1105    0.0000 O   0  0  0  0  0  0  0  0  0  0  0  0
  1  2  1  0
  2  3  1  0
  3  4  1  0
  4  5  1  6
  4  6  1  0
  6  7  1  0
  6  8  2  0
M  END
>  <DRUGBANK_ID>  (1) 
DB03817

>  <SECONDARY_ACCESSION_NUMBERS>  (1) 
EXPT01102

>  <COMMON_NAME>  (1) 
L-2,4-diaminobutyric acid

>  <CAS_NUMBER>  (1) 
1758-80-1

>  <UNII>  (1) 
61HPH2F0W7

>  <SYNONYMS>  (1) 
(S)-2,4-Diaminobutanoic acid; alpha,gamma-Diaminobutyrate; Dbu; L-2,4-Diaminobutanoate; L-2,4-diaminobutanoic acid; L-2,4-Diaminobutyrate; L-Dbu; L-diaminobutyric acid

$$$$
