
     RDKit          2D

  9  9  0  0  0  0  0  0  0  0999 V2000
    1.4294    0.0021    0.0000 O   0  0  0  0  0  0  0  0  0  0  0  0
    0.7118    0.4150    0.0000 C   0  0  0  0  0  0  0  0  0  0  0  0
    0.7115    1.2357    0.0000 O   0  0  0  0  0  0  0  0  0  0  0  0
   -0.0021    0.0018    0.0000 C   0  0  0  0  0  0  0  0  0  0  0  0
   -0.7199    0.4143    0.0000 C   0  0  0  0  0  0  0  0  0  0  0  0
   -1.4294    0.0018    0.0000 N   0  0  0  0  0  0  0  0  0  0  0  0
   -1.4294   -0.8232    0.0000 C   0  0  0  0  0  0  0  0  0  0  0  0
   -0.7199   -1.2357    0.0000 C   0  0  0  0  0  0  0  0  0  0  0  0
   -0.0021   -0.8232    0.0000 C   0  0  0  0  0  0  0  0  0  0  0  0
  1  2  1  0
  2  3  2  0
  2  4  1  0
  4  5  1  0
  5  6  1  0
  6  7  1  0
  7  8  1  0
  8  9  1  0
  9  4  1  0
M  END
>  <DRUGBANK_ID>  (1) 
DB08849

>  <COMMON_NAME>  (1) 
Nipecotic acid

>  <CAS_NUMBER>  (1) 
498-95-3

>  <UNII>  (1) 
1U1QTN40SY

$$$$
