
     RDKit          2D

 13 14  0  0  0  0  0  0  0  0999 V2000
   -2.1414    0.4133    0.0000 N   0  0  0  0  0  0  0  0  0  0  0  0
   -1.4262    0.0021    0.0000 C   0  0  0  0  0  0  0  0  0  0  0  0
   -1.4262   -0.8245    0.0000 C   0  0  0  0  0  0  0  0  0  0  0  0
   -0.7152   -1.2356    0.0000 C   0  0  0  0  0  0  0  0  0  0  0  0
    0.0000   -0.8245    0.0000 C   0  0  0  0  0  0  0  0  0  0  0  0
    0.0000    0.0021    0.0000 C   0  0  0  0  0  0  0  0  0  0  0  0
   -0.7152    0.4133    0.0000 C   0  0  0  0  0  0  0  0  0  0  0  0
    0.7152    0.4133    0.0000 C   0  0  0  0  0  0  0  0  0  0  0  0
    0.7152    1.2356    0.0000 O   0  0  0  0  0  0  0  0  0  0  0  0
    1.4261    0.0021    0.0000 N   0  0  0  0  0  0  0  0  0  0  0  0
    1.4261   -0.8245    0.0000 C   0  0  0  0  0  0  0  0  0  0  0  0
    0.7152   -1.2356    0.0000 N   0  0  0  0  0  0  0  0  0  0  0  0
    2.1414   -1.2356    0.0000 N   0  0  0  0  0  0  0  0  0  0  0  0
  1  2  1  0
  2  3  2  0
  2  7  1  0
  3  4  1  0
  4  5  2  0
  5  6  1  0
  5 12  1  0
  6  7  2  0
  6  8  1  0
  8  9  1  0
  8 10  2  0
 10 11  1  0
 11 12  2  0
 11 13  1  0
M  END
>  <DRUGBANK_ID>  (1) 
DB03505

>  <SECONDARY_ACCESSION_NUMBERS>  (1) 
EXPT01267

>  <COMMON_NAME>  (1) 
2,6-diaminoquinazolin-4-ol

>  <CAS_NUMBER>  (1) 
53745-23-6

$$$$
