
     RDKit          2D

 34 39  0  0  0  0  0  0  0  0999 V2000
   -4.9312   -3.0545    0.0000 C   0  0  0  0  0  0  0  0  0  0  0  0
   -5.6457   -1.8170    0.0000 C   0  0  0  0  0  0  0  0  0  0  0  0
    6.8513   -1.6500    0.0000 C   0  0  0  0  0  0  0  0  0  0  0  0
   -3.5022   -0.5795    0.0000 C   0  0  0  0  0  0  0  0  0  0  0  0
   -2.7878   -1.8170    0.0000 C   0  0  0  0  0  0  0  0  0  0  0  0
    0.0574    1.1270    0.0000 C   0  0  0  0  0  0  0  0  0  0  0  0
   -4.2167   -0.9920    0.0000 C   0  0  0  0  0  0  0  0  0  0  0  0
   -3.5022   -2.2295    0.0000 C   0  0  0  0  0  0  0  0  0  0  0  0
    3.9934    0.8250    0.0000 C   0  0  0  0  0  0  0  0  0  0  0  0
   -0.7676    1.1270    0.0000 C   0  0  0  0  0  0  0  0  0  0  0  0
    3.2789    1.2375    0.0000 C   0  0  0  0  0  0  0  0  0  0  0  0
    6.1368   -0.4125    0.0000 C   0  0  0  0  0  0  0  0  0  0  0  0
    5.4223   -1.6500    0.0000 C   0  0  0  0  0  0  0  0  0  0  0  0
    5.4223   -0.0000    0.0000 C   0  0  0  0  0  0  0  0  0  0  0  0
    4.7079   -1.2375    0.0000 C   0  0  0  0  0  0  0  0  0  0  0  0
    0.0574   -0.3020    0.0000 C   0  0  0  0  0  0  0  0  0  0  0  0
    3.2789   -0.4125    0.0000 C   0  0  0  0  0  0  0  0  0  0  0  0
   -2.7878   -0.9920    0.0000 C   0  0  0  0  0  0  0  0  0  0  0  0
    0.4699    0.4125    0.0000 C   0  0  0  0  0  0  0  0  0  0  0  0
   -4.2167   -1.8170    0.0000 C   0  0  0  0  0  0  0  0  0  0  0  0
    3.9934    0.0000    0.0000 C   0  0  0  0  0  0  0  0  0  0  0  0
   -1.1801    0.4125    0.0000 C   0  0  0  0  0  0  0  0  0  0  0  0
    2.5645    0.8250    0.0000 C   0  0  0  0  0  0  0  0  0  0  0  0
   -0.7676   -0.3020    0.0000 C   0  0  0  0  0  0  0  0  0  0  0  0
    2.5645    0.0000    0.0000 C   0  0  0  0  0  0  0  0  0  0  0  0
   -2.0733   -0.5795    0.0000 C   0  0  0  0  0  0  0  0  0  0  0  0
    1.2949    0.4125    0.0000 C   0  0  0  0  0  0  0  0  0  0  0  0
   -1.9871    0.2410    0.0000 N   0  0  0  0  0  0  0  0  0  0  0  0
    1.7798    1.0799    0.0000 N   0  0  0  0  0  0  0  0  0  0  0  0
   -1.3196   -0.9151    0.0000 N   0  0  0  0  0  0  0  0  0  0  0  0
    1.7798   -0.2549    0.0000 N   0  0  0  0  0  0  0  0  0  0  0  0
   -4.9312   -2.2295    0.0000 N   0  0  0  0  0  0  0  0  0  0  0  0
    6.1368   -1.2375    0.0000 N   0  0  0  0  0  0  0  0  0  0  0  0
    4.7079   -0.4125    0.0000 N   0  0  0  0  0  0  0  0  0  0  0  0
  7  4  2  0
  8  5  1  0
 10  6  2  0
 11  9  2  0
 14 12  1  0
 15 13  1  0
 18  4  1  0
 18  5  2  0
 19  6  1  0
 19 16  2  0
 20  7  1  0
 20  8  2  0
 21  9  1  0
 21 17  2  0
 22 10  1  0
 23 11  1  0
 24 16  1  0
 24 22  2  0
 25 17  1  0
 25 23  2  0
 26 18  1  0
 27 19  1  0
 28 22  1  0
 28 26  1  0
 29 23  1  0
 29 27  2  0
 30 24  1  0
 30 26  2  0
 31 25  1  0
 31 27  1  0
 32  1  1  0
 32  2  1  0
 32 20  1  0
 33  3  1  0
 33 12  1  0
 33 13  1  0
 34 14  1  0
 34 15  1  0
 34 21  1  0
M  END
>  <DRUGBANK_ID>  (1) 
DB04011

>  <SECONDARY_ACCESSION_NUMBERS>  (1) 
EXPT00636

>  <COMMON_NAME>  (1) 
2'-(4-Dimethylaminophenyl)-5-(4-Methyl-1-Piperazinyl)-2,5'-Bi-Benzimidazole

$$$$
