
     RDKit          2D

  8  7  0  0  1  0  0  0  0  0999 V2000
    0.5230    1.1270    0.0000 C   0  0  0  0  0  0  0  0  0  0  0  0
    1.2375    0.7145    0.0000 C   0  0  0  0  0  0  0  0  0  0  0  0
    1.9520    1.1270    0.0000 C   0  0  0  0  0  0  0  0  0  0  0  0
    2.6664    0.7145    0.0000 P   0  0  0  0  0  0  0  0  0  0  0  0
    3.3809    1.1270    0.0000 O   0  0  0  0  0  0  0  0  0  0  0  0
    2.6664   -0.1105    0.0000 O   0  0  0  0  0  0  0  0  0  0  0  0
    1.2375   -0.1105    0.0000 F   0  0  0  0  0  0  0  0  0  0  0  0
   -0.1914    0.7145    0.0000 N   0  0  0  0  0  0  0  0  0  0  0  0
  1  2  1  0
  1  8  1  0
  2  3  1  0
  2  7  1  6
  3  4  1  0
  4  5  2  0
  4  6  1  0
M  END
>  <DRUGBANK_ID>  (1) 
DB11920

>  <COMMON_NAME>  (1) 
Lesogaberan

>  <CAS_NUMBER>  (1) 
344413-67-8

>  <UNII>  (1) 
4D6Q6HGC7Z

>  <SYNONYMS>  (1) 
Lesogaberan

$$$$
