
     RDKit          2D

 33 35  0  0  0  0  0  0  0  0999 V2000
   -1.2957    1.6251    0.0000 C   0  0  0  0  0  0  0  0  0  0  0  0
   -2.7267   -1.6817    0.0000 C   0  0  0  0  0  0  0  0  0  0  0  0
   -2.0112   -2.0940    0.0000 C   0  0  0  0  0  0  0  0  0  0  0  0
   -1.2957    0.7924    0.0000 C   0  0  0  0  0  0  0  0  0  0  0  0
   -0.5276    1.8839    0.0000 C   0  0  0  0  0  0  0  0  0  0  0  0
   -2.7267   -0.8490    0.0000 C   0  0  0  0  0  0  0  0  0  0  0  0
   -2.0112   -2.9187    0.0000 C   0  0  0  0  0  0  0  0  0  0  0  0
   -2.0112    0.3881    0.0000 C   0  0  0  0  0  0  0  0  0  0  0  0
   -2.0112   -0.4366    0.0000 C   0  0  0  0  0  0  0  0  0  0  0  0
   -0.5316    0.5579    0.0000 C   0  0  0  0  0  0  0  0  0  0  0  0
   -0.0424    1.2249    0.0000 C   0  0  0  0  0  0  0  0  0  0  0  0
   -2.7267   -3.3351    0.0000 C   0  0  0  0  0  0  0  0  0  0  0  0
   -3.4423   -2.0940    0.0000 C   0  0  0  0  0  0  0  0  0  0  0  0
   -3.4423   -2.9107    0.0000 C   0  0  0  0  0  0  0  0  0  0  0  0
   -1.3442   -1.6736    0.0000 C   0  0  0  0  0  0  0  0  0  0  0  0
    1.6392    2.0132    0.0000 C   0  0  0  0  0  0  0  0  0  0  0  0
    0.8429    1.9404    0.0000 C   0  0  0  0  0  0  0  0  0  0  0  0
    2.0516    1.3381    0.0000 C   0  0  0  0  0  0  0  0  0  0  0  0
    2.9126    1.3947    0.0000 C   0  0  0  0  0  0  0  0  0  0  0  0
    0.5477    2.7045    0.0000 C   0  0  0  0  0  0  0  0  0  0  0  0
   -0.2770    2.6722    0.0000 C   0  0  0  0  0  0  0  0  0  0  0  0
   -2.0112    2.0374    0.0000 C   0  0  0  0  0  0  0  0  0  0  0  0
   -1.3037   -3.3351    0.0000 O   0  0  0  0  0  0  0  0  0  0  0  0
   -1.2188    2.4417    0.0000 C   0  0  0  0  0  0  0  0  0  0  0  0
    3.6929    1.9162    0.0000 O   0  0  0  0  0  0  0  0  0  0  0  0
   -4.1659   -3.3311    0.0000 O   0  0  0  0  0  0  0  0  0  0  0  0
   -2.7267    0.7924    0.0000 C   0  0  0  0  0  0  0  0  0  0  0  0
   -2.7267    1.6251    0.0000 C   0  0  0  0  0  0  0  0  0  0  0  0
    3.3654    0.7155    0.0000 C   0  0  0  0  0  0  0  0  0  0  0  0
    3.0016    2.1870    0.0000 C   0  0  0  0  0  0  0  0  0  0  0  0
   -0.7742    3.3351    0.0000 C   0  0  0  0  0  0  0  0  0  0  0  0
    2.4154    2.7772    0.0000 C   0  0  0  0  0  0  0  0  0  0  0  0
    4.1659    0.9096    0.0000 C   0  0  0  0  0  0  0  0  0  0  0  0
  1 24  1  1
  2  6  2  0
  3  2  1  0
  4  1  1  0
  5  1  1  0
  5 11  1  1
  6  9  1  0
  7  3  1  0
  7 23  1  1
  7 12  1  0
  8  4  1  0
  8 27  1  0
  9  8  2  0
  4 10  1  1
 10 11  1  0
 12 14  1  0
 13  2  1  0
 14 13  1  0
 14 26  1  6
 15  3  2  0
 16 17  1  0
 17 20  2  0
 18 16  2  0
 19 18  1  0
 20 21  1  0
 21  5  1  0
 21 31  1  6
 22  1  1  0
 25 19  1  0
 27 28  1  0
 28 22  1  0
 29 19  1  0
 30 19  1  0
 32 30  1  0
 33 29  1  0
M  END
>  <DRUGBANK_ID>  (1) 
DB04258

>  <SECONDARY_ACCESSION_NUMBERS>  (1) 
EXPT01322

>  <COMMON_NAME>  (1) 
Seocalcitol

>  <CAS_NUMBER>  (1) 
134404-52-7

>  <UNII>  (1) 
Q0OZ0D9223

>  <SYNONYMS>  (1) 
(5Z,7E,22E,24E)-(1S,3R)-26,27-dimethyl-24a-homo-9,10-seco-5,7,10(19),22,24-cholestapentaene-1,3,25-triol; Seocalcitol

$$$$
