
     RDKit          2D

 18 18  0  0  0  0  0  0  0  0999 V2000
   -3.2151    0.4677    0.0000 C   0  0  0  0  0  0  0  0  0  0  0  0
   -2.5006    0.0552    0.0000 C   0  0  0  0  0  0  0  0  0  0  0  0
   -1.7861    0.4677    0.0000 C   0  0  0  0  0  0  0  0  0  0  0  0
   -1.0717    0.0552    0.0000 C   0  0  0  0  0  0  0  0  0  0  0  0
   -0.3572    0.4677    0.0000 N   0  0  0  0  0  0  0  0  0  0  0  0
    0.3572    0.0552    0.0000 C   0  0  0  0  0  0  0  0  0  0  0  0
    1.0717    0.4677    0.0000 C   0  0  0  0  0  0  0  0  0  0  0  0
    1.7861    0.0552    0.0000 C   0  0  0  0  0  0  0  0  0  0  0  0
    2.5006    0.4677    0.0000 C   0  0  0  0  0  0  0  0  0  0  0  0
    3.2151    0.8802    0.0000 F   0  0  0  0  0  0  0  0  0  0  0  0
    2.9131   -0.2467    0.0000 F   0  0  0  0  0  0  0  0  0  0  0  0
    2.0881    1.1822    0.0000 F   0  0  0  0  0  0  0  0  0  0  0  0
    1.7861   -0.7697    0.0000 C   0  0  0  0  0  0  0  0  0  0  0  0
    1.0717   -1.1822    0.0000 C   0  0  0  0  0  0  0  0  0  0  0  0
    0.3572   -0.7697    0.0000 C   0  0  0  0  0  0  0  0  0  0  0  0
    2.5006   -1.1822    0.0000 Cl  0  0  0  0  0  0  0  0  0  0  0  0
   -1.0717   -0.7697    0.0000 O   0  0  0  0  0  0  0  0  0  0  0  0
   -2.5006   -0.7697    0.0000 O   0  0  0  0  0  0  0  0  0  0  0  0
  1  2  1  0
  2  3  1  0
  2 18  2  0
  3  4  1  0
  4  5  1  0
  4 17  2  0
  5  6  1  0
  6  7  2  0
  6 15  1  0
  7  8  1  0
  8  9  1  0
  8 13  2  0
  9 10  1  0
  9 11  1  0
  9 12  1  0
 13 14  1  0
 13 16  1  0
 14 15  2  0
M  END
>  <DRUGBANK_ID>  (1) 
DB16759

>  <COMMON_NAME>  (1) 
Fasentin

>  <CAS_NUMBER>  (1) 
392721-37-8

$$$$
