ZPR
     RDKit          2D

 24 26  0  0  0  0  0  0  0  0999 V2000
    2.3695    0.7968    0.0000 C   0  0  0  0  0  0  0  0  0  0  0  0
    3.0840    1.2093    0.0000 O   0  0  0  0  0  0  0  0  0  0  0  0
    2.3695   -0.0282    0.0000 C   0  0  0  0  0  0  0  0  0  0  0  0
    3.0369   -0.5132    0.0000 C   0  0  0  0  0  0  0  0  0  0  0  0
    2.7820   -1.2978    0.0000 C   0  0  0  0  0  0  0  0  0  0  0  0
    1.9570   -1.2978    0.0000 C   0  0  0  0  0  0  0  0  0  0  0  0
    1.7021   -0.5132    0.0000 N   0  0  0  0  0  0  0  0  0  0  0  0
    0.9174   -0.2582    0.0000 C   0  0  0  0  0  0  0  0  0  0  0  0
    0.7459    0.5487    0.0000 O   0  0  0  0  0  0  0  0  0  0  0  0
    0.3044   -0.8103    0.0000 C   0  0  0  0  0  0  0  0  0  0  0  0
    0.3906   -1.6307    0.0000 C   0  0  0  0  0  0  0  0  0  0  0  0
   -0.3631   -1.9663    0.0000 C   0  0  0  0  0  0  0  0  0  0  0  0
   -0.9151   -1.3532    0.0000 C   0  0  0  0  0  0  0  0  0  0  0  0
   -0.5026   -0.6387    0.0000 N   0  0  0  0  0  0  0  0  0  0  0  0
   -0.8382    0.1149    0.0000 C   0  0  0  0  0  0  0  0  0  0  0  0
   -1.6587    0.2012    0.0000 O   0  0  0  0  0  0  0  0  0  0  0  0
   -0.3533    0.7824    0.0000 O   0  0  0  0  0  0  0  0  0  0  0  0
   -0.6888    1.5361    0.0000 C   0  0  0  0  0  0  0  0  0  0  0  0
   -1.5093    1.6223    0.0000 C   0  0  0  0  0  0  0  0  0  0  0  0
   -1.9942    0.9549    0.0000 C   0  0  0  0  0  0  0  0  0  0  0  0
   -2.8147    1.0411    0.0000 C   0  0  0  0  0  0  0  0  0  0  0  0
   -3.1503    1.7948    0.0000 C   0  0  0  0  0  0  0  0  0  0  0  0
   -2.6653    2.4622    0.0000 C   0  0  0  0  0  0  0  0  0  0  0  0
   -1.8449    2.3760    0.0000 C   0  0  0  0  0  0  0  0  0  0  0  0
  1  2  2  0
  3  1  1  6
  3  4  1  0
  3  7  1  0
  4  5  1  0
  5  6  1  0
  6  7  1  0
  7  8  1  0
  8  9  2  0
 10  8  1  6
 10 11  1  0
 10 14  1  0
 11 12  1  0
 12 13  1  0
 13 14  1  0
 14 15  1  0
 15 16  2  0
 15 17  1  0
 17 18  1  0
 18 19  1  0
 19 20  2  0
 19 24  1  0
 20 21  1  0
 21 22  2  0
 22 23  1  0
 23 24  2  0
M  END
>  <DRUGBANK_ID>  (1) 
DB03535

>  <SECONDARY_ACCESSION_NUMBERS>  (1) 
EXPT03293

>  <COMMON_NAME>  (1) 
Z-Pro-Prolinal

>  <UNII>  (1) 
4YM8D0GKX6

$$$$
