
     RDKit          2D

 28 31  0  0  1  0  0  0  0  0999 V2000
    1.8036   -0.1138    0.0000 C   0  0  0  0  0  0  0  0  0  0  0  0
    0.3045   -1.0964    0.0000 C   0  0  0  0  0  0  0  0  0  0  0  0
    1.8036    1.2211    0.0000 C   0  0  0  0  0  0  0  0  0  0  0  0
    0.3045    1.3786    0.0000 C   0  0  0  0  0  0  0  0  0  0  0  0
    2.2885    0.5536    0.0000 C   0  0  0  0  0  0  0  0  0  0  0  0
   -1.1245   -0.2714    0.0000 C   0  0  0  0  0  0  0  0  0  0  0  0
   -0.4100    0.9661    0.0000 C   0  0  0  0  0  0  0  0  0  0  0  0
   -0.4100   -1.5089    0.0000 C   0  0  0  0  0  0  0  0  0  0  0  0
   -1.1245   -1.0964    0.0000 C   0  0  0  0  0  0  0  0  0  0  0  0
   -1.8390    0.1411    0.0000 C   0  0  0  0  0  0  0  0  0  0  0  0
   -1.8390   -1.5089    0.0000 C   0  0  0  0  0  0  0  0  0  0  0  0
   -2.5534   -0.2714    0.0000 C   0  0  0  0  0  0  0  0  0  0  0  0
    0.3045   -0.2714    0.0000 C   0  0  0  0  0  0  0  0  0  0  0  0
   -0.4100    0.1411    0.0000 C   0  0  0  0  0  0  0  0  0  0  0  0
    1.0189    0.9661    0.0000 C   0  0  0  0  0  0  0  0  0  0  0  0
    1.0189    1.7911    0.0000 C   0  0  0  0  0  0  0  0  0  0  0  0
    1.0189    0.1411    0.0000 C   0  0  0  0  0  0  0  0  0  0  0  0
   -3.2679   -1.5089    0.0000 O   0  0  0  0  0  0  0  0  0  0  0  0
   -2.5534   -1.0964    0.0000 C   0  0  0  0  0  0  0  0  0  0  0  0
   -1.1245    0.5536    0.0000 C   0  0  0  0  0  0  0  0  0  0  0  0
    2.5181    1.6336    0.0000 O   0  0  0  0  0  0  0  0  0  0  0  0
    1.8036    2.0461    0.0000 C   0  0  0  0  0  0  0  0  0  0  0  0
    1.2202    2.6295    0.0000 C   0  0  0  0  0  0  0  0  0  0  0  0
    2.5181    2.4586    0.0000 O   0  0  0  0  0  0  0  0  0  0  0  0
   -0.4100   -2.3339    0.0000 C   0  0  0  0  0  0  0  0  0  0  0  0
    3.2326    1.2211    0.0000 C   0  0  0  0  0  0  0  0  0  0  0  0
    3.9470    1.6336    0.0000 C   0  0  0  0  0  0  0  0  0  0  0  0
    3.2326    0.3961    0.0000 O   0  0  0  0  0  0  0  0  0  0  0  0
  2  8  1  0
  3  5  1  0
  3 21  1  6
  3 22  1  0
  4  7  1  0
  5  1  1  0
  6  9  1  0
  6 10  1  0
  6 20  1  1
  8  9  1  0
  8 25  1  6
  9 11  2  0
 10 12  1  0
 11 19  1  0
 12 19  1  0
 13 14  1  0
 13  2  1  6
 14  6  1  0
 14  7  1  1
 15  3  1  0
 15  4  1  0
 15 16  1  1
 17 13  1  0
 17 15  1  0
 17  1  1  1
 19 18  2  0
 21 26  1  0
 22 23  1  0
 22 24  2  0
 26 27  1  0
 26 28  2  0
M  END
>  <DRUGBANK_ID>  (1) 
DB00603

>  <SECONDARY_ACCESSION_NUMBERS>  (1) 
APRD00627

>  <COMMON_NAME>  (1) 
Medroxyprogesterone acetate

>  <CAS_NUMBER>  (1) 
71-58-9

>  <UNII>  (1) 
C2QI4IOI2G

>  <SYNONYMS>  (1) 
(6α)-17-(Acetyloxy)-6-methylpreg-4-ene-3,20-dione; 17-Acetoxy-6α-methylprogesterone; 17α-hydroxy-6α-methylprogesterone acetate; 6-alpha-Methyl-17-alpha-acetoxyprogesterone; 6-alpha-Methyl-17-alpha-hydroxyprogesterone acetate; 6α-Methyl-17-acetoxy progesterone; 6α-Methyl-17α-hydroxyprogesterone acetate; 6α-Methyl-4-pregnene-3,20-dion-17α-ol acetate; Medroxyacetate progesterone; Medroxyprogesterone 17-acetate; Medroxyprogesterone acetate; Methylacetoxyprogesterone; Metigestrona; MPA

$$$$
