
     RDKit          2D

 29 31  0  0  0  0  0  0  0  0999 V2000
   -3.9295    1.8009    0.0000 O   0  0  0  0  0  0  0  0  0  0  0  0
   -3.2151    1.3884    0.0000 C   0  0  0  0  0  0  0  0  0  0  0  0
   -2.5006    1.8009    0.0000 C   0  0  0  0  0  0  0  0  0  0  0  0
   -2.5006    2.6259    0.0000 O   0  0  0  0  0  0  0  0  0  0  0  0
   -1.7861    1.3884    0.0000 C   0  0  0  0  0  0  0  0  0  0  0  0
   -1.0717    1.8009    0.0000 O   0  0  0  0  0  0  0  0  0  0  0  0
   -0.3572    1.3884    0.0000 C   0  0  0  0  0  0  0  0  0  0  0  0
   -0.3572    0.5634    0.0000 O   0  0  0  0  0  0  0  0  0  0  0  0
    0.3572    1.8009    0.0000 C   0  0  0  0  0  0  0  0  0  0  0  0
    0.3572    2.6259    0.0000 C   0  0  0  0  0  0  0  0  0  0  0  0
    1.0717    3.0384    0.0000 C   0  0  0  0  0  0  0  0  0  0  0  0
    1.7861    2.6259    0.0000 C   0  0  0  0  0  0  0  0  0  0  0  0
    1.7861    1.8009    0.0000 C   0  0  0  0  0  0  0  0  0  0  0  0
    1.0717    1.3884    0.0000 C   0  0  0  0  0  0  0  0  0  0  0  0
    1.0717    0.5634    0.0000 N   0  0  0  0  0  0  0  0  0  0  0  0
    1.7861    0.1509    0.0000 C   0  0  0  0  0  0  0  0  0  0  0  0
    2.5006    0.5634    0.0000 C   0  0  0  0  0  0  0  0  0  0  0  0
    3.2151    0.1509    0.0000 C   0  0  0  0  0  0  0  0  0  0  0  0
    3.2151   -0.6740    0.0000 N   0  0  0  0  0  0  0  0  0  0  0  0
    2.5006   -1.0865    0.0000 C   0  0  0  0  0  0  0  0  0  0  0  0
    2.5006   -1.9115    0.0000 C   0  0  0  0  0  0  0  0  0  0  0  0
    1.7861   -2.3240    0.0000 C   0  0  0  0  0  0  0  0  0  0  0  0
    1.0717   -1.9115    0.0000 C   0  0  0  0  0  0  0  0  0  0  0  0
    1.0717   -1.0865    0.0000 C   0  0  0  0  0  0  0  0  0  0  0  0
    1.7861   -0.6740    0.0000 C   0  0  0  0  0  0  0  0  0  0  0  0
    3.2151   -2.3240    0.0000 C   0  0  0  0  0  0  0  0  0  0  0  0
    3.9295   -2.7365    0.0000 F   0  0  0  0  0  0  0  0  0  0  0  0
    2.8026   -3.0384    0.0000 F   0  0  0  0  0  0  0  0  0  0  0  0
    3.6276   -1.6095    0.0000 F   0  0  0  0  0  0  0  0  0  0  0  0
  1  2  1  0
  2  3  1  0
  3  4  1  0
  3  5  1  0
  5  6  1  0
  6  7  1  0
  7  8  2  0
  7  9  1  0
  9 10  2  0
  9 14  1  0
 10 11  1  0
 11 12  2  0
 12 13  1  0
 13 14  2  0
 14 15  1  0
 15 16  1  0
 16 17  2  0
 16 25  1  0
 17 18  1  0
 18 19  2  0
 19 20  1  0
 20 21  1  0
 20 25  2  0
 21 22  2  0
 21 26  1  0
 22 23  1  0
 23 24  2  0
 24 25  1  0
 26 27  1  0
 26 28  1  0
 26 29  1  0
M  END
>  <DRUGBANK_ID>  (1) 
DB08976

>  <COMMON_NAME>  (1) 
Floctafenine

>  <CAS_NUMBER>  (1) 
23779-99-9

>  <UNII>  (1) 
O04HVX6A9Q

>  <SYNONYMS>  (1) 
Floctafenina; Floctafenine; Floctafeninum

$$$$
