
     RDKit          2D

 28 29  0  0  0  0  0  0  0  0999 V2000
    1.4534   -0.7827    0.0000 C   0  0  0  0  0  0  0  0  0  0  0  0
    1.4534   -1.6077    0.0000 N   0  0  0  0  0  0  0  0  0  0  0  0
    0.7389   -2.0202    0.0000 C   0  0  0  0  0  0  0  0  0  0  0  0
    0.0244   -1.6077    0.0000 C   0  0  0  0  0  0  0  0  0  0  0  0
    0.0244   -0.7827    0.0000 O   0  0  0  0  0  0  0  0  0  0  0  0
   -0.6900   -2.0202    0.0000 N   0  0  0  0  0  0  0  0  0  0  0  0
   -1.4045   -1.6077    0.0000 C   0  0  0  0  0  0  0  0  0  0  0  0
   -1.4907   -0.7872    0.0000 N   0  0  0  0  0  0  0  0  0  0  0  0
   -2.2977   -0.6157    0.0000 C   0  0  0  0  0  0  0  0  0  0  0  0
   -2.7102   -1.3301    0.0000 C   0  0  0  0  0  0  0  0  0  0  0  0
   -2.1582   -1.9432    0.0000 S   0  0  0  0  0  0  0  0  0  0  0  0
   -3.5352   -1.3301    0.0000 C   0  0  0  0  0  0  0  0  0  0  0  0
   -3.9477   -0.6157    0.0000 C   0  0  0  0  0  0  0  0  0  0  0  0
   -4.7727   -0.6157    0.0000 O   0  0  0  0  0  0  0  0  0  0  0  0
   -5.1852    0.0988    0.0000 C   0  0  0  0  0  0  0  0  0  0  0  0
   -5.5977    0.8133    0.0000 F   0  0  0  0  0  0  0  0  0  0  0  0
   -5.8997   -0.3137    0.0000 F   0  0  0  0  0  0  0  0  0  0  0  0
   -4.4707    0.5113    0.0000 F   0  0  0  0  0  0  0  0  0  0  0  0
   -3.5352    0.0988    0.0000 C   0  0  0  0  0  0  0  0  0  0  0  0
   -2.7102    0.0988    0.0000 C   0  0  0  0  0  0  0  0  0  0  0  0
    2.1678   -2.0202    0.0000 C   0  0  0  0  0  0  0  0  0  0  0  0
    2.1678   -2.8452    0.0000 O   0  0  0  0  0  0  0  0  0  0  0  0
    2.8823   -1.6077    0.0000 C   0  0  0  0  0  0  0  0  0  0  0  0
    3.5968   -2.0202    0.0000 N   0  0  0  0  0  0  0  0  0  0  0  0
    4.3113   -1.6077    0.0000 C   0  0  0  0  0  0  0  0  0  0  0  0
    4.3113   -0.7827    0.0000 O   0  0  0  0  0  0  0  0  0  0  0  0
    5.0257   -2.0202    0.0000 C   0  0  0  0  0  0  0  0  0  0  0  0
    5.7402   -1.6077    0.0000 N   0  0  0  0  0  0  0  0  0  0  0  0
  1  2  1  0
  2  3  1  0
  2 21  1  0
  3  4  1  0
  4  5  2  0
  4  6  1  0
  6  7  1  0
  7  8  2  0
  7 11  1  0
  8  9  1  0
  9 10  2  0
  9 20  1  0
 10 11  1  0
 10 12  1  0
 12 13  2  0
 13 14  1  0
 13 19  1  0
 14 15  1  0
 15 16  1  0
 15 17  1  0
 15 18  1  0
 19 20  2  0
 21 22  2  0
 21 23  1  0
 23 24  1  0
 24 25  1  0
 25 26  2  0
 25 27  1  0
 27 28  1  0
M  END
>  <DRUGBANK_ID>  (1) 
DB15079

>  <COMMON_NAME>  (1) 
Troriluzole

>  <CAS_NUMBER>  (1) 
1926203-09-9

>  <UNII>  (1) 
S7H48S6K7H

>  <SYNONYMS>  (1) 
Troriluzole

$$$$
