
     RDKit          2D

 43 45  0  0  1  0  0  0  0  0999 V2000
    4.5080   -4.3480    0.0000 F   0  0  0  0  0  0  0  0  0  0  0  0
    6.6746    2.8947    0.0000 O   0  0  0  0  0  0  0  0  0  0  0  0
    5.9370    0.6021    0.0000 O   0  0  0  0  0  0  0  0  0  0  0  0
    6.6515    0.1896    0.0000 O   0  0  0  0  0  0  0  0  0  0  0  0
    2.3645    2.6646    0.0000 O   0  0  0  0  0  0  0  0  0  0  0  0
    8.7949   -1.8730    0.0000 O   0  0  0  0  0  0  0  0  0  0  0  0
    1.6500    1.4271    0.0000 O   0  0  0  0  0  0  0  0  0  0  0  0
   10.8152   -0.3579    0.0000 O   0  0  0  0  0  0  0  0  0  0  0  0
    5.6350    3.9342    0.0000 N   0  0  0  0  0  0  0  0  0  0  0  0
    4.5080    0.6021    0.0000 N   0  0  0  0  0  0  0  0  0  0  0  0
    8.0804   -0.6354    0.0000 N   0  0  0  0  0  0  0  0  0  0  0  0
   10.2631   -0.9710    0.0000 N   0  0  0  0  0  0  0  0  0  0  0  0
    5.2224    2.6646    0.0000 C   0  0  0  0  0  0  0  0  0  0  0  0
    5.2224    1.8396    0.0000 C   0  0  0  0  0  0  0  0  0  0  0  0
    4.5550    3.1496    0.0000 C   0  0  0  0  0  0  0  0  0  0  0  0
    4.5080    1.4271    0.0000 C   0  0  0  0  0  0  0  0  0  0  0  0
    4.8099    3.9342    0.0000 C   0  0  0  0  0  0  0  0  0  0  0  0
    5.8899    3.1496    0.0000 C   0  0  0  0  0  0  0  0  0  0  0  0
    5.2224   -0.6354    0.0000 C   0  0  0  0  0  0  0  0  0  0  0  0
    5.9370   -1.0479    0.0000 C   0  0  0  0  0  0  0  0  0  0  0  0
    5.2224    0.1896    0.0000 C   0  0  0  0  0  0  0  0  0  0  0  0
    7.3659   -1.0479    0.0000 C   0  0  0  0  0  0  0  0  0  0  0  0
    4.5080   -1.0479    0.0000 C   0  0  0  0  0  0  0  0  0  0  0  0
    7.3659   -1.8730    0.0000 C   0  0  0  0  0  0  0  0  0  0  0  0
    6.6515   -0.6354    0.0000 C   0  0  0  0  0  0  0  0  0  0  0  0
    3.7935    1.8396    0.0000 C   0  0  0  0  0  0  0  0  0  0  0  0
    4.5080   -1.8730    0.0000 C   0  0  0  0  0  0  0  0  0  0  0  0
    6.6515   -2.2855    0.0000 C   0  0  0  0  0  0  0  0  0  0  0  0
    8.0804   -2.2855    0.0000 C   0  0  0  0  0  0  0  0  0  0  0  0
    3.0791    1.4271    0.0000 C   0  0  0  0  0  0  0  0  0  0  0  0
    5.2224   -2.2855    0.0000 C   0  0  0  0  0  0  0  0  0  0  0  0
    3.7935   -2.2855    0.0000 C   0  0  0  0  0  0  0  0  0  0  0  0
    8.7949   -1.0479    0.0000 C   0  0  0  0  0  0  0  0  0  0  0  0
    2.3645    1.8396    0.0000 C   0  0  0  0  0  0  0  0  0  0  0  0
    5.2224   -3.1105    0.0000 C   0  0  0  0  0  0  0  0  0  0  0  0
    3.7935   -3.1105    0.0000 C   0  0  0  0  0  0  0  0  0  0  0  0
    9.5094   -0.6354    0.0000 C   0  0  0  0  0  0  0  0  0  0  0  0
    4.5080   -3.5230    0.0000 C   0  0  0  0  0  0  0  0  0  0  0  0
    9.5956    0.1851    0.0000 C   0  0  0  0  0  0  0  0  0  0  0  0
   10.4027    0.3566    0.0000 C   0  0  0  0  0  0  0  0  0  0  0  0
    1.6500    3.0772    0.0000 C   0  0  0  0  0  0  0  0  0  0  0  0
   10.7382    1.1103    0.0000 C   0  0  0  0  0  0  0  0  0  0  0  0
    1.6500    3.9022    0.0000 C   0  0  0  0  0  0  0  0  0  0  0  0
  1 38  1  0
  2 18  2  0
  3 21  2  0
  4 25  2  0
  5 34  1  0
  5 41  1  0
  6 33  2  0
  7 34  2  0
  8 12  1  0
  8 40  1  0
  9 17  1  0
  9 18  1  0
 10 21  1  0
 11 33  1  0
 12 37  2  0
 13 14  1  6
 13 15  1  0
 13 18  1  0
 16 14  1  6
 15 17  1  0
 16 10  1  0
 16 26  1  0
 19 20  1  1
 19 21  1  0
 19 23  1  0
 20 25  1  0
 22 11  1  1
 22 24  1  0
 22 25  1  0
 23 27  1  0
 24 28  1  0
 24 29  1  0
 26 30  2  0
 27 31  2  0
 27 32  1  0
 30 34  1  0
 31 35  1  0
 32 36  2  0
 33 37  1  0
 35 38  2  0
 36 38  1  0
 37 39  1  0
 39 40  2  0
 40 42  1  0
 41 43  1  0
M  END
>  <DRUGBANK_ID>  (1) 
DB05102

>  <COMMON_NAME>  (1) 
Rupintrivir

>  <CAS_NUMBER>  (1) 
223537-30-2

>  <UNII>  (1) 
RGE5K1Q5QW

>  <SYNONYMS>  (1) 
Rupintrivir

$$$$
