
     RDKit          2D

 33 37  0  0  1  0  0  0  0  0999 V2000
    1.3895   -1.8497    0.0000 C   0  0  0  0  0  0  0  0  0  0  0  0
    1.7494   -2.5921    0.0000 C   0  0  0  0  0  0  0  0  0  0  0  0
    2.2812   -1.9614    0.0000 C   0  0  0  0  0  0  0  0  0  0  0  0
    3.0934   -2.1066    0.0000 C   0  0  0  0  0  0  0  0  0  0  0  0
    3.3737   -2.8825    0.0000 C   0  0  0  0  0  0  0  0  0  0  0  0
    4.1858   -3.0277    0.0000 C   0  0  0  0  0  0  0  0  0  0  0  0
    4.7176   -2.3970    0.0000 C   0  0  0  0  0  0  0  0  0  0  0  0
    5.5297   -2.5422    0.0000 C   0  0  0  0  0  0  0  0  0  0  0  0
    5.8100   -3.3182    0.0000 C   0  0  0  0  0  0  0  0  0  0  0  0
    6.6221   -3.4634    0.0000 O   0  0  0  0  0  0  0  0  0  0  0  0
    5.2782   -3.9489    0.0000 C   0  0  0  0  0  0  0  0  0  0  0  0
    4.4661   -3.8037    0.0000 C   0  0  0  0  0  0  0  0  0  0  0  0
    3.9343   -4.4344    0.0000 C   0  0  0  0  0  0  0  0  0  0  0  0
    3.1221   -4.2891    0.0000 C   0  0  0  0  0  0  0  0  0  0  0  0
    2.8418   -3.5132    0.0000 C   0  0  0  0  0  0  0  0  0  0  0  0
    2.0297   -3.3680    0.0000 C   0  0  0  0  0  0  0  0  0  0  0  0
    1.3784   -3.8744    0.0000 C   0  0  0  0  0  0  0  0  0  0  0  0
    0.6955   -3.4114    0.0000 C   0  0  0  0  0  0  0  0  0  0  0  0
    0.9249   -2.6189    0.0000 C   0  0  0  0  0  0  0  0  0  0  0  0
    0.1640   -2.3000    0.0000 C   0  0  0  0  0  0  0  0  0  0  0  0
   -0.4926   -2.7995    0.0000 C   0  0  0  0  0  0  0  0  0  0  0  0
   -1.2535   -2.4806    0.0000 C   0  0  0  0  0  0  0  0  0  0  0  0
   -1.9101   -2.9801    0.0000 O   0  0  0  0  0  0  0  0  0  0  0  0
    0.8035   -1.8029    0.0000 O   0  0  0  0  0  0  0  0  0  0  0  0
    3.6252   -1.4759    0.0000 C   0  0  0  0  0  0  0  0  0  0  0  0
    3.3449   -0.7000    0.0000 C   0  0  0  0  0  0  0  0  0  0  0  0
    3.8767   -0.0692    0.0000 C   0  0  0  0  0  0  0  0  0  0  0  0
    4.6888   -0.2145    0.0000 C   0  0  0  0  0  0  0  0  0  0  0  0
    4.9691   -0.9904    0.0000 C   0  0  0  0  0  0  0  0  0  0  0  0
    4.4373   -1.6211    0.0000 C   0  0  0  0  0  0  0  0  0  0  0  0
    5.2206    0.4162    0.0000 N   0  0  0  0  0  0  0  0  0  0  0  0
    6.0328    0.2710    0.0000 C   0  0  0  0  0  0  0  0  0  0  0  0
    4.9403    1.1922    0.0000 C   0  0  0  0  0  0  0  0  0  0  0  0
  2  1  1  1
  2  3  1  0
  2 16  1  0
  2 19  1  0
  3  4  1  0
  4  5  1  0
  4 25  1  6
  5  6  2  0
  5 15  1  0
  6  7  1  0
  6 12  1  0
  7  8  1  0
  8  9  1  0
  9 10  2  0
  9 11  1  0
 11 12  2  0
 12 13  1  0
 13 14  1  0
 15 14  1  1
 15 16  1  0
 16 17  1  6
 17 18  1  0
 18 19  1  0
 19 20  1  0
 19 24  1  1
 20 21  1  0
 21 22  1  0
 22 23  1  0
 25 26  2  0
 25 30  1  0
 26 27  1  0
 27 28  2  0
 28 29  1  0
 28 31  1  0
 29 30  2  0
 31 32  1  0
 31 33  1  0
M  END
>  <DRUGBANK_ID>  (1) 
DB12637

>  <COMMON_NAME>  (1) 
Onapristone

>  <CAS_NUMBER>  (1) 
96346-61-1

>  <UNII>  (1) 
H6H7G23O3N

>  <SYNONYMS>  (1) 
Onapristone

$$$$
