
     RDKit          2D

 20 19  0  0  0  0  0  0  0  0999 V2000
   -2.4601   -0.8249    0.0000 C   0  0  0  0  0  0  0  0  0  0  0  0
   -1.8001   -0.4124    0.0000 C   0  0  0  0  0  0  0  0  0  0  0  0
   -1.0577   -0.8249    0.0000 C   0  0  0  0  0  0  0  0  0  0  0  0
   -0.3563   -0.4124    0.0000 C   0  0  0  0  0  0  0  0  0  0  0  0
   -3.2025   -0.4124    0.0000 C   0  0  0  0  0  0  0  0  0  0  0  0
   -3.9101   -0.8366    0.0000 C   0  0  0  0  0  0  0  0  0  0  0  0
    0.3581   -0.8249    0.0000 C   0  0  0  0  0  0  0  0  0  0  0  0
    1.0726   -0.4124    0.0000 C   0  0  0  0  0  0  0  0  0  0  0  0
    1.7870   -0.8249    0.0000 C   0  0  0  0  0  0  0  0  0  0  0  0
    2.5015   -0.4124    0.0000 C   0  0  0  0  0  0  0  0  0  0  0  0
    3.2161   -0.8249    0.0000 C   0  0  0  0  0  0  0  0  0  0  0  0
    3.9304   -0.4124    0.0000 C   0  0  0  0  0  0  0  0  0  0  0  0
    4.6449   -0.8249    0.0000 O   0  0  0  0  0  0  0  0  0  0  0  0
    3.9304    0.4126    0.0000 O   0  0  0  0  0  0  0  0  0  0  0  0
   -4.6313   -0.4359    0.0000 C   0  0  0  0  0  0  0  0  0  0  0  0
   -4.6449    0.3889    0.0000 C   0  0  0  0  0  0  0  0  0  0  0  0
   -3.9372    0.8131    0.0000 C   0  0  0  0  0  0  0  0  0  0  0  0
   -3.2161    0.4124    0.0000 C   0  0  0  0  0  0  0  0  0  0  0  0
   -2.5086    0.8366    0.0000 C   0  0  0  0  0  0  0  0  0  0  0  0
   -1.7874    0.4359    0.0000 C   0  0  0  0  0  0  0  0  0  0  0  0
  1  2  1  0
  1  5  2  0
  2  3  1  0
  3  4  1  0
  4  7  1  0
  5  6  1  0
  6 15  2  0
  7  8  1  0
  8  9  1  0
  9 10  1  0
 10 11  1  0
 11 12  1  0
 12 13  1  0
 12 14  2  0
 15 16  1  0
 16 17  1  0
 17 18  1  0
 18 19  1  0
 19 20  1  0
M  END
>  <DRUGBANK_ID>  (1) 
DB04746

>  <COMMON_NAME>  (1) 
(10E,12Z)-octadecadienoic acid

>  <CAS_NUMBER>  (1) 
2420-56-6

>  <UNII>  (1) 
N151ZM4M27

>  <SYNONYMS>  (1) 
(10E,12Z)-octadeca-10,12-dienoic acid; (E,Z)-octadeca-10,12-dienoic acid; 10-trans-12-cis-CLA; 10-trans-12-cis-conjugated linoleic acid; 10-trans-12-cis-linoleic acid; 10-trans-12-cis-octadecadienoic acid; 10,12-trans,cis-octadecanoic acid; C18:2, n-6,8 cis,trans

$$$$
