S06
     RDKit          2D

 25 28  0  0  0  0  0  0  0  0999 V2000
   -1.8382    0.0370    0.0000 C   0  0  0  0  0  0  0  0  0  0  0  0
   -2.5057   -0.4479    0.0000 C   0  0  0  0  0  0  0  0  0  0  0  0
   -3.2593   -0.1124    0.0000 C   0  0  0  0  0  0  0  0  0  0  0  0
   -3.9268   -0.5973    0.0000 C   0  0  0  0  0  0  0  0  0  0  0  0
   -3.8405   -1.4178    0.0000 C   0  0  0  0  0  0  0  0  0  0  0  0
   -3.0869   -1.7533    0.0000 C   0  0  0  0  0  0  0  0  0  0  0  0
   -2.4194   -1.2684    0.0000 C   0  0  0  0  0  0  0  0  0  0  0  0
   -1.6658   -1.6040    0.0000 C   0  0  0  0  0  0  0  0  0  0  0  0
   -0.9983   -1.1191    0.0000 C   0  0  0  0  0  0  0  0  0  0  0  0
   -1.0846   -0.2986    0.0000 C   0  0  0  0  0  0  0  0  0  0  0  0
   -0.4171    0.1863    0.0000 C   0  0  0  0  0  0  0  0  0  0  0  0
    0.3675   -0.0686    0.0000 C   0  0  0  0  0  0  0  0  0  0  0  0
   -0.4171    1.0113    0.0000 N   0  0  0  0  0  0  0  0  0  0  0  0
    0.3675    1.2663    0.0000 O   0  0  0  0  0  0  0  0  0  0  0  0
    0.8524    0.5988    0.0000 C   0  0  0  0  0  0  0  0  0  0  0  0
    1.2649    1.3133    0.0000 O   0  0  0  0  0  0  0  0  0  0  0  0
    2.0899    1.3133    0.0000 C   0  0  0  0  0  0  0  0  0  0  0  0
    2.5024    2.0278    0.0000 C   0  0  0  0  0  0  0  0  0  0  0  0
    2.0899    2.7423    0.0000 O   0  0  0  0  0  0  0  0  0  0  0  0
    2.5024    0.5988    0.0000 C   0  0  0  0  0  0  0  0  0  0  0  0
    3.3274    0.5988    0.0000 O   0  0  0  0  0  0  0  0  0  0  0  0
    2.0899   -0.1156    0.0000 C   0  0  0  0  0  0  0  0  0  0  0  0
    2.5024   -0.8301    0.0000 O   0  0  0  0  0  0  0  0  0  0  0  0
    1.2649   -0.1156    0.0000 C   0  0  0  0  0  0  0  0  0  0  0  0
    0.8524   -0.8301    0.0000 O   0  0  0  0  0  0  0  0  0  0  0  0
  1 10  2  0
  1  2  1  0
  2  7  2  0
  3  2  1  0
  3  4  2  0
  4  5  1  0
  5  6  2  0
  7  8  1  0
  7  6  1  0
  9  8  2  0
 10  9  1  0
 11 10  1  1
 12 11  1  0
 13 11  1  0
 14 13  1  0
 15 16  1  0
 15 14  1  0
 15 12  1  6
 17 18  1  6
 17 16  1  0
 19 18  1  0
 20 17  1  0
 20 21  1  1
 22 20  1  0
 22 24  1  0
 22 23  1  6
 24 15  1  0
 24 25  1  1
M  END
>  <DRUGBANK_ID>  (1) 
DB08500

>  <COMMON_NAME>  (1) 
(3S,5R,7R,8S,9S,10R)-7-(hydroxymethyl)-3-(2-naphthyl)-1,6-dioxa-2-azaspiro[4.5]decane-8,9,10-triol

$$$$
