
     RDKit          2D

 39 41  0  0  0  0  0  0  0  0999 V2000
   -2.8313   -1.8466    0.0000 O   0  0  0  0  0  0  0  0  0  0  0  0
   -2.0357   -1.4413    0.0000 C   0  0  0  0  0  0  0  0  0  0  0  0
   -2.8177   -0.2125    0.0000 C   0  0  0  0  0  0  0  0  0  0  0  0
   -2.0939   -0.6177    0.0000 C   0  0  0  0  0  0  0  0  0  0  0  0
   -2.8167    0.6217    0.0000 C   0  0  0  0  0  0  0  0  0  0  0  0
   -2.0974    1.0344    0.0000 C   0  0  0  0  0  0  0  0  0  0  0  0
   -1.3826    0.6223    0.0000 C   0  0  0  0  0  0  0  0  0  0  0  0
   -0.6675    1.0287    0.0000 C   0  0  0  0  0  0  0  0  0  0  0  0
   -0.4367    1.8118    0.0000 C   0  0  0  0  0  0  0  0  0  0  0  0
    0.3795    1.8479    0.0000 S   0  0  0  0  0  0  0  0  0  0  0  0
   -0.0163    0.5724    0.0000 N   0  0  0  0  0  0  0  0  0  0  0  0
   -1.3938   -0.2220    0.0000 C   0  0  0  0  0  0  0  0  0  0  0  0
   -6.3690   -1.4373    0.0000 C   0  0  0  0  0  0  0  0  0  0  0  0
   -5.6661   -1.8517    0.0000 C   0  0  0  0  0  0  0  0  0  0  0  0
   -4.9387   -1.4548    0.0000 C   0  0  0  0  0  0  0  0  0  0  0  0
   -4.2299   -1.8624    0.0000 C   0  0  0  0  0  0  0  0  0  0  0  0
   -3.5165   -1.4372    0.0000 C   0  0  0  0  0  0  0  0  0  0  0  0
    2.8151   -0.1978    0.0000 C   0  0  0  0  0  0  0  0  0  0  0  0
    3.5235   -0.5851    0.0000 C   0  0  0  0  0  0  0  0  0  0  0  0
    2.8040    0.6382    0.0000 C   0  0  0  0  0  0  0  0  0  0  0  0
    2.1769    1.0216    0.0000 C   0  0  0  0  0  0  0  0  0  0  0  0
    1.3690    0.6604    0.0000 N   0  0  0  0  0  0  0  0  0  0  0  0
    2.2128    1.8624    0.0000 O   0  0  0  0  0  0  0  0  0  0  0  0
    3.5201    1.0562    0.0000 C   0  0  0  0  0  0  0  0  0  0  0  0
    4.2386    0.6305    0.0000 C   0  0  0  0  0  0  0  0  0  0  0  0
    4.2393   -0.1783    0.0000 C   0  0  0  0  0  0  0  0  0  0  0  0
    5.6546   -0.1877    0.0000 C   0  0  0  0  0  0  0  0  0  0  0  0
    4.9405   -0.5982    0.0000 C   0  0  0  0  0  0  0  0  0  0  0  0
    0.6620    1.0520    0.0000 C   0  0  0  0  0  0  0  0  0  0  0  0
   -0.6840   -0.6425    0.0000 O   0  0  0  0  0  0  0  0  0  0  0  0
    0.0304   -0.2300    0.0000 C   0  0  0  0  0  0  0  0  0  0  0  0
   -7.0835   -1.8499    0.0000 C   0  0  0  0  0  0  0  0  0  0  0  0
    6.3683   -0.6017    0.0000 C   0  0  0  0  0  0  0  0  0  0  0  0
    5.6561    0.6372    0.0000 C   0  0  0  0  0  0  0  0  0  0  0  0
    7.0835   -0.1904    0.0000 O   0  0  0  0  0  0  0  0  0  0  0  0
    6.3683   -1.4266    0.0000 O   0  0  0  0  0  0  0  0  0  0  0  0
    4.9552    1.0392    0.0000 Cl  0  0  0  0  0  0  0  0  0  0  0  0
    3.5305   -1.4101    0.0000 Cl  0  0  0  0  0  0  0  0  0  0  0  0
   -1.3175   -1.8473    0.0000 C   0  0  0  0  0  0  0  0  0  0  0  0
  1  2  1  0
  2  4  1  0
  2 39  1  6
  3  4  2  0
  3  5  1  0
  4 12  1  0
  5  6  2  0
  6  7  1  0
  7  8  1  0
  8  9  2  0
  8 11  1  0
  9 10  1  0
 11 29  2  0
 12  7  2  0
 12 30  1  0
 13 14  1  0
 13 32  1  0
 14 15  1  0
 16 17  1  0
 16 15  1  0
 17  1  1  0
 18 19  2  0
 19 26  1  0
 19 38  1  0
 20 18  1  0
 20 24  2  0
 21 20  1  0
 21 22  1  0
 23 21  2  0
 24 25  1  0
 25 37  1  0
 26 25  2  0
 26 28  1  0
 27 33  1  0
 27 34  1  0
 28 27  2  0
 29 10  1  0
 29 22  1  0
 30 31  1  0
 33 35  1  0
 33 36  2  0
M  END
>  <DRUGBANK_ID>  (1) 
DB13125

>  <COMMON_NAME>  (1) 
Lusutrombopag

>  <CAS_NUMBER>  (1) 
1110766-97-6

>  <UNII>  (1) 
6LL5JFU42F

>  <SYNONYMS>  (1) 
Lusutrombopag

$$$$
