207
     RDKit          2D

 18 20  0  0  0  0  0  0  0  0999 V2000
    1.3330   -1.4179    0.0000 N   0  0  0  0  0  0  0  0  0  0  0  0
    1.3330   -2.2429    0.0000 C   0  0  0  0  0  0  0  0  0  0  0  0
    0.6186   -2.6554    0.0000 C   0  0  0  0  0  0  0  0  0  0  0  0
   -0.0959   -2.2429    0.0000 C   0  0  0  0  0  0  0  0  0  0  0  0
   -0.0959   -1.4179    0.0000 C   0  0  0  0  0  0  0  0  0  0  0  0
    0.6186   -1.0054    0.0000 C   0  0  0  0  0  0  0  0  0  0  0  0
    0.6186   -0.1804    0.0000 O   0  0  0  0  0  0  0  0  0  0  0  0
   -0.0959    0.2321    0.0000 C   0  0  0  0  0  0  0  0  0  0  0  0
   -0.8805   -1.1630    0.0000 N   0  0  0  0  0  0  0  0  0  0  0  0
   -1.3655   -1.8304    0.0000 C   0  0  0  0  0  0  0  0  0  0  0  0
   -0.8805   -2.4979    0.0000 N   0  0  0  0  0  0  0  0  0  0  0  0
    2.0475   -2.6554    0.0000 N   0  0  0  0  0  0  0  0  0  0  0  0
   -0.0959    1.0571    0.0000 C   0  0  0  0  0  0  0  0  0  0  0  0
   -0.8104    1.4696    0.0000 C   0  0  0  0  0  0  0  0  0  0  0  0
   -0.8104    2.2946    0.0000 C   0  0  0  0  0  0  0  0  0  0  0  0
   -0.0959    2.7071    0.0000 C   0  0  0  0  0  0  0  0  0  0  0  0
    0.6186    2.2946    0.0000 C   0  0  0  0  0  0  0  0  0  0  0  0
    0.6186    1.4696    0.0000 C   0  0  0  0  0  0  0  0  0  0  0  0
  1  2  2  0
  1  6  1  0
  2  3  1  0
  2 12  1  0
  3  4  2  0
  4  5  1  0
  4 11  1  0
  5  6  2  0
  5  9  1  0
  6  7  1  0
  7  8  1  0
  8 13  1  0
  9 10  2  0
 10 11  1  0
 13 14  1  0
 13 18  1  0
 14 15  1  0
 15 16  1  0
 16 17  1  0
 17 18  1  0
M  END
>  <DRUGBANK_ID>  (1) 
DB02603

>  <SECONDARY_ACCESSION_NUMBERS>  (1) 
EXPT00086

>  <COMMON_NAME>  (1) 
1-Amino-6-Cyclohex-3-Enylmethyloxypurine

$$$$
