C11
     RDKit          2D

 18 17  0  0  0  0  0  0  0  0999 V2000
    1.5099    0.2459    0.0000 C   0  0  0  0  0  0  0  0  0  0  0  0
    0.7954   -0.1666    0.0000 C   0  0  0  0  0  0  0  0  0  0  0  0
    0.0809    0.2459    0.0000 C   0  0  0  0  0  0  0  0  0  0  0  0
   -0.6336   -0.1666    0.0000 C   0  0  0  0  0  0  0  0  0  0  0  0
   -1.3482    0.2459    0.0000 C   0  0  0  0  0  0  0  0  0  0  0  0
   -2.0627   -0.1666    0.0000 C   0  0  0  0  0  0  0  0  0  0  0  0
   -2.7772    0.2459    0.0000 C   0  0  0  0  0  0  0  0  0  0  0  0
   -3.4918   -0.1666    0.0000 C   0  0  0  0  0  0  0  0  0  0  0  0
   -4.2063    0.2459    0.0000 C   0  0  0  0  0  0  0  0  0  0  0  0
   -4.9208   -0.1666    0.0000 C   0  0  0  0  0  0  0  0  0  0  0  0
   -5.6353    0.2459    0.0000 C   0  0  0  0  0  0  0  0  0  0  0  0
    2.2245   -0.1666    0.0000 P   0  0  0  0  0  0  0  0  0  0  0  0
    2.2245   -0.9917    0.0000 O   0  0  0  0  0  0  0  0  0  0  0  0
    2.9389    0.2459    0.0000 O   0  0  0  0  0  0  0  0  0  0  0  0
    3.6535   -0.1666    0.0000 C   0  0  0  0  0  0  0  0  0  0  0  0
    4.3680    0.2459    0.0000 C   0  0  0  0  0  0  0  0  0  0  0  0
    5.0826   -0.1666    0.0000 C   0  0  0  0  0  0  0  0  0  0  0  0
    5.7970    0.2459    0.0000 C   0  0  0  0  0  0  0  0  0  0  0  0
  1  2  1  0
 12  1  1  6
  2  3  1  0
  3  4  1  0
  4  5  1  0
  5  6  1  0
  6  7  1  0
  7  8  1  0
  8  9  1  0
  9 10  1  0
 10 11  1  0
 12 13  2  0
 12 14  1  0
 14 15  1  0
 15 16  1  0
 16 17  1  0
 17 18  1  0
M  END
>  <DRUGBANK_ID>  (1) 
DB02457

>  <SECONDARY_ACCESSION_NUMBERS>  (1) 
EXPT00797

>  <COMMON_NAME>  (1) 
Undecyl-Phosphinic Acid Butyl Ester

$$$$
