
     RDKit          2D

 14 15  0  0  1  0  0  0  0  0999 V2000
    1.3556   -0.1271    0.0000 C   0  0  0  0  0  0  0  0  0  0  0  0
    1.3556    0.6979    0.0000 C   0  0  0  0  0  0  0  0  0  0  0  0
    2.0701    1.1104    0.0000 C   0  0  0  0  0  0  0  0  0  0  0  0
    2.0701    1.9354    0.0000 C   0  0  0  0  0  0  0  0  0  0  0  0
    1.3556    2.3479    0.0000 C   0  0  0  0  0  0  0  0  0  0  0  0
    0.6411    1.9354    0.0000 C   0  0  0  0  0  0  0  0  0  0  0  0
   -0.1435    2.1904    0.0000 N   0  0  0  0  0  0  0  0  0  0  0  0
   -0.6284    1.5229    0.0000 N   0  0  0  0  0  0  0  0  0  0  0  0
   -0.1435    0.8555    0.0000 N   0  0  0  0  0  0  0  0  0  0  0  0
    0.6411    1.1104    0.0000 N   0  0  0  0  0  0  0  0  0  0  0  0
    0.6411   -0.5396    0.0000 O   0  0  0  0  0  0  0  0  0  0  0  0
    2.7845    0.6979    0.0000 O   0  0  0  0  0  0  0  0  0  0  0  0
    2.7845    2.3479    0.0000 O   0  0  0  0  0  0  0  0  0  0  0  0
    1.3556    3.1729    0.0000 O   0  0  0  0  0  0  0  0  0  0  0  0
  2  1  1  1
  3  2  1  0
  3 12  1  6
  4  3  1  0
  4 13  1  1
  5  4  1  0
  5 14  1  6
  6  5  1  0
  7  6  2  0
  8  7  1  0
  9  8  2  0
 10  2  1  0
 10  6  1  0
 10  9  1  0
 11  1  1  0
M  END
>  <DRUGBANK_ID>  (1) 
DB02471

>  <SECONDARY_ACCESSION_NUMBERS>  (1) 
EXPT02395

>  <COMMON_NAME>  (1) 
Nojirimycine Tetrazole

$$$$
