
     RDKit          2D

 10 11  0  0  0  0  0  0  0  0999 V2000
   -0.8643   -1.0799    0.0000 C   0  0  0  0  0  0  0  0  0  0  0  0
   -1.3492   -0.4125    0.0000 C   0  0  0  0  0  0  0  0  0  0  0  0
   -0.8643    0.2550    0.0000 N   0  0  0  0  0  0  0  0  0  0  0  0
   -0.0797    0.0000    0.0000 C   0  0  0  0  0  0  0  0  0  0  0  0
    0.6347    0.4125    0.0000 C   0  0  0  0  0  0  0  0  0  0  0  0
    0.6347    1.2374    0.0000 O   0  0  0  0  0  0  0  0  0  0  0  0
    1.3492    0.0000    0.0000 N   0  0  0  0  0  0  0  0  0  0  0  0
    1.3492   -0.8250    0.0000 C   0  0  0  0  0  0  0  0  0  0  0  0
    0.6347   -1.2374    0.0000 N   0  0  0  0  0  0  0  0  0  0  0  0
   -0.0797   -0.8250    0.0000 C   0  0  0  0  0  0  0  0  0  0  0  0
  2  1  2  0
  2  3  1  0
  4  3  1  0
  4  5  1  0
  5  6  2  0
  5  7  1  0
  8  7  1  0
  8  9  2  0
 10  1  1  0
 10  4  2  0
 10  9  1  0
M  END
>  <DRUGBANK_ID>  (1) 
DB04095

>  <SECONDARY_ACCESSION_NUMBERS>  (1) 
EXPT00359

>  <COMMON_NAME>  (1) 
9-Deazahypoxanthine

$$$$
