
     RDKit          2D

 31 34  0  0  0  0  0  0  0  0999 V2000
   -2.6848    1.4409    0.0000 C   0  0  0  0  0  0  0  0  0  0  0  0
   -3.2151    0.8089    0.0000 C   0  0  0  0  0  0  0  0  0  0  0  0
   -3.9296    0.3964    0.0000 C   0  0  0  0  0  0  0  0  0  0  0  0
   -3.9296   -0.4285    0.0000 C   0  0  0  0  0  0  0  0  0  0  0  0
   -3.2151   -0.8410    0.0000 C   0  0  0  0  0  0  0  0  0  0  0  0
   -2.5006   -0.4285    0.0000 C   0  0  0  0  0  0  0  0  0  0  0  0
   -2.5006    0.3964    0.0000 C   0  0  0  0  0  0  0  0  0  0  0  0
   -1.7861    0.8089    0.0000 C   0  0  0  0  0  0  0  0  0  0  0  0
   -1.0716    0.3964    0.0000 C   0  0  0  0  0  0  0  0  0  0  0  0
   -1.0716   -0.4285    0.0000 C   0  0  0  0  0  0  0  0  0  0  0  0
   -1.7861   -0.8410    0.0000 C   0  0  0  0  0  0  0  0  0  0  0  0
   -0.3572   -0.8410    0.0000 C   0  0  0  0  0  0  0  0  0  0  0  0
    0.3573   -0.4285    0.0000 C   0  0  0  0  0  0  0  0  0  0  0  0
    1.0717   -0.8410    0.0000 C   0  0  0  0  0  0  0  0  0  0  0  0
    1.7861   -0.4285    0.0000 C   0  0  0  0  0  0  0  0  0  0  0  0
    2.5006   -0.8410    0.0000 C   0  0  0  0  0  0  0  0  0  0  0  0
    2.5006   -1.6660    0.0000 C   0  0  0  0  0  0  0  0  0  0  0  0
    1.7861   -2.0785    0.0000 C   0  0  0  0  0  0  0  0  0  0  0  0
    1.0717   -1.6660    0.0000 C   0  0  0  0  0  0  0  0  0  0  0  0
    3.2151   -2.0785    0.0000 C   0  0  0  0  0  0  0  0  0  0  0  0
    3.9296   -1.6660    0.0000 O   0  0  0  0  0  0  0  0  0  0  0  0
    3.2151   -2.9035    0.0000 O   0  0  0  0  0  0  0  0  0  0  0  0
   -0.3572    0.8089    0.0000 C   0  0  0  0  0  0  0  0  0  0  0  0
   -0.3572    1.6339    0.0000 N   0  0  0  0  0  0  0  0  0  0  0  0
   -1.0247    2.1189    0.0000 C   0  0  0  0  0  0  0  0  0  0  0  0
   -0.7697    2.9035    0.0000 C   0  0  0  0  0  0  0  0  0  0  0  0
    0.0553    2.9035    0.0000 C   0  0  0  0  0  0  0  0  0  0  0  0
    0.3102    2.1189    0.0000 N   0  0  0  0  0  0  0  0  0  0  0  0
   -2.8278   -1.5694    0.0000 C   0  0  0  0  0  0  0  0  0  0  0  0
   -3.6024   -1.5694    0.0000 C   0  0  0  0  0  0  0  0  0  0  0  0
   -3.7454    1.4409    0.0000 C   0  0  0  0  0  0  0  0  0  0  0  0
  1  2  1  0
  2  3  1  0
  2  7  1  0
  2 31  1  0
  3  4  1  0
  4  5  1  0
  5  6  1  0
  5 29  1  0
  5 30  1  0
  6  7  2  0
  6 11  1  0
  7  8  1  0
  8  9  2  0
  9 10  1  0
  9 23  1  0
 10 11  2  0
 10 12  1  0
 12 13  2  0
 13 14  1  0
 14 15  2  0
 14 19  1  0
 15 16  1  0
 16 17  2  0
 17 18  1  0
 17 20  1  0
 18 19  2  0
 20 21  2  0
 20 22  1  0
 23 24  1  0
 24 25  1  0
 24 28  1  0
 25 26  2  0
 26 27  1  0
 27 28  2  0
M  END
>  <DRUGBANK_ID>  (1) 
DB05467

>  <SECONDARY_ACCESSION_NUMBERS>  (1) 
DB12320; DB16749

>  <COMMON_NAME>  (1) 
Palovarotene

>  <CAS_NUMBER>  (1) 
410528-02-8

>  <UNII>  (1) 
28K6I5M16G

>  <SYNONYMS>  (1) 
Palovarotene

$$$$
