FL8
     RDKit          2D

 22 24  0  0  0  0  0  0  0  0999 V2000
   -1.7062   -2.5920    0.0000 Br  0  0  0  0  0  0  0  0  0  0  0  0
   -3.1351   -0.1170    0.0000 Br  0  0  0  0  0  0  0  0  0  0  0  0
    0.4372   -0.5295    0.0000 O   0  0  0  0  0  0  0  0  0  0  0  0
   -0.2773   -0.1170    0.0000 C   0  0  0  0  0  0  0  0  0  0  0  0
   -0.2773    0.7080    0.0000 C   0  0  0  0  0  0  0  0  0  0  0  0
    0.4372    1.1205    0.0000 C   0  0  0  0  0  0  0  0  0  0  0  0
    1.1517    0.7080    0.0000 C   0  0  0  0  0  0  0  0  0  0  0  0
    1.8662    1.1205    0.0000 C   0  0  0  0  0  0  0  0  0  0  0  0
    2.5806    0.7080    0.0000 C   0  0  0  0  0  0  0  0  0  0  0  0
    2.5806   -0.1170    0.0000 C   0  0  0  0  0  0  0  0  0  0  0  0
    1.8662   -0.5295    0.0000 C   0  0  0  0  0  0  0  0  0  0  0  0
    1.1517   -0.1170    0.0000 C   0  0  0  0  0  0  0  0  0  0  0  0
   -0.9917   -0.5295    0.0000 C   0  0  0  0  0  0  0  0  0  0  0  0
   -0.9917   -1.3545    0.0000 C   0  0  0  0  0  0  0  0  0  0  0  0
   -1.7062   -1.7670    0.0000 C   0  0  0  0  0  0  0  0  0  0  0  0
   -2.4207   -1.3545    0.0000 C   0  0  0  0  0  0  0  0  0  0  0  0
   -2.4207   -0.5295    0.0000 C   0  0  0  0  0  0  0  0  0  0  0  0
   -1.7062   -0.1170    0.0000 C   0  0  0  0  0  0  0  0  0  0  0  0
   -3.1351   -1.7670    0.0000 O   0  0  0  0  0  0  0  0  0  0  0  0
   -0.9917    1.1205    0.0000 C   0  0  0  0  0  0  0  0  0  0  0  0
    0.4372    1.9455    0.0000 O   0  0  0  0  0  0  0  0  0  0  0  0
    3.2951    1.1205    0.0000 O   0  0  0  0  0  0  0  0  0  0  0  0
  1 15  1  0
  2 17  1  0
  3  4  1  0
  3 12  1  0
  4  5  2  0
  4 13  1  0
  5  6  1  0
  5 20  1  0
  6  7  1  0
  6 21  2  0
  7  8  1  0
  7 12  2  0
  8  9  2  0
  9 10  1  0
  9 22  1  0
 10 11  2  0
 11 12  1  0
 13 14  2  0
 13 18  1  0
 14 15  1  0
 15 16  2  0
 16 17  1  0
 16 19  1  0
 17 18  2  0
M  END
>  <DRUGBANK_ID>  (1) 
DB01838

>  <SECONDARY_ACCESSION_NUMBERS>  (1) 
EXPT01439

>  <COMMON_NAME>  (1) 
6,4'-Dihydroxy-3-Methyl-3',5'-Dibromoflavone

>  <UNII>  (1) 
41L058NWH3

$$$$
