
     RDKit          2D

 20 22  0  0  0  0  0  0  0  0999 V2000
   -2.5006   -0.4125    0.0000 C   0  0  0  0  0  0  0  0  0  0  0  0
   -1.0717   -0.4125    0.0000 C   0  0  0  0  0  0  0  0  0  0  0  0
   -1.0717    0.4125    0.0000 C   0  0  0  0  0  0  0  0  0  0  0  0
   -0.3572    0.8250    0.0000 C   0  0  0  0  0  0  0  0  0  0  0  0
   -0.3572    1.6500    0.0000 O   0  0  0  0  0  0  0  0  0  0  0  0
    0.3572    0.4125    0.0000 C   0  0  0  0  0  0  0  0  0  0  0  0
    0.3572   -0.4125    0.0000 C   0  0  0  0  0  0  0  0  0  0  0  0
   -0.3572   -0.8250    0.0000 C   0  0  0  0  0  0  0  0  0  0  0  0
   -0.3572   -1.6500    0.0000 O   0  0  0  0  0  0  0  0  0  0  0  0
    1.7861   -0.4125    0.0000 C   0  0  0  0  0  0  0  0  0  0  0  0
   -2.5006    0.4125    0.0000 C   0  0  0  0  0  0  0  0  0  0  0  0
    1.0716    0.8250    0.0000 C   0  0  0  0  0  0  0  0  0  0  0  0
    1.0716    1.6500    0.0000 O   0  0  0  0  0  0  0  0  0  0  0  0
    1.0716   -0.8250    0.0000 C   0  0  0  0  0  0  0  0  0  0  0  0
   -1.7861   -0.8250    0.0000 C   0  0  0  0  0  0  0  0  0  0  0  0
   -1.7861   -1.6500    0.0000 O   0  0  0  0  0  0  0  0  0  0  0  0
    1.7861    0.4125    0.0000 C   0  0  0  0  0  0  0  0  0  0  0  0
    2.5006    0.8250    0.0000 O   0  0  0  0  0  0  0  0  0  0  0  0
   -1.7861    0.8250    0.0000 C   0  0  0  0  0  0  0  0  0  0  0  0
   -1.7861    1.6500    0.0000 O   0  0  0  0  0  0  0  0  0  0  0  0
  1 15  2  0
  1 11  1  0
  2  3  2  0
  2  8  1  0
  3 19  1  0
  3  4  1  0
  4  5  2  0
  4  6  1  0
  6  7  2  0
  6 12  1  0
  7 14  1  0
  7  8  1  0
  8  9  2  0
 10 17  1  0
 12 13  1  0
 14 10  2  0
 15  2  1  0
 15 16  1  0
 17 12  2  0
 17 18  1  0
 19 11  2  0
 19 20  1  0
M  END
>  <DRUGBANK_ID>  (1) 
DB08660

>  <COMMON_NAME>  (1) 
Quinalizarin

>  <CAS_NUMBER>  (1) 
81-61-8

>  <UNII>  (1) 
6D43C3LYSG

>  <SYNONYMS>  (1) 
1,2,5,8-tetrahydroxyanthracene-9,10-dione; 1,4,5,6-tetrahydroxyanthraquinone; Alizarinbordeaux; Alizarine Bordeaux B

$$$$
