7X7
     RDKit          2D

 30 34  0  0  0  0  0  0  0  0999 V2000
    9.7457    1.2681    0.0000 Cl  0  0  0  0  0  0  0  0  0  0  0  0
    9.0313    0.8556    0.0000 C   0  0  0  0  0  0  0  0  0  0  0  0
    9.0313    0.0306    0.0000 C   0  0  0  0  0  0  0  0  0  0  0  0
    8.3168   -0.3819    0.0000 C   0  0  0  0  0  0  0  0  0  0  0  0
    7.6023    0.0306    0.0000 C   0  0  0  0  0  0  0  0  0  0  0  0
    6.8177   -0.2243    0.0000 O   0  0  0  0  0  0  0  0  0  0  0  0
    6.3328    0.4431    0.0000 C   0  0  0  0  0  0  0  0  0  0  0  0
    6.8177    1.1105    0.0000 O   0  0  0  0  0  0  0  0  0  0  0  0
    7.6023    0.8556    0.0000 C   0  0  0  0  0  0  0  0  0  0  0  0
    8.3168    1.2681    0.0000 C   0  0  0  0  0  0  0  0  0  0  0  0
    8.3168    2.0931    0.0000 N   0  0  0  0  0  0  0  0  0  0  0  0
    7.6023    2.5056    0.0000 C   0  0  0  0  0  0  0  0  0  0  0  0
    6.8879    2.0931    0.0000 C   0  0  0  0  0  0  0  0  0  0  0  0
    6.1734    2.5056    0.0000 C   0  0  0  0  0  0  0  0  0  0  0  0
    6.1734    3.3306    0.0000 N   0  0  0  0  0  0  0  0  0  0  0  0
    6.8879    3.7431    0.0000 C   0  0  0  0  0  0  0  0  0  0  0  0
    6.8879    4.5681    0.0000 N   0  0  0  0  0  0  0  0  0  0  0  0
    6.1734    4.9806    0.0000 C   0  0  0  0  0  0  0  0  0  0  0  0
    5.4589    4.5681    0.0000 C   0  0  0  0  0  0  0  0  0  0  0  0
    4.7444    4.9806    0.0000 C   0  0  0  0  0  0  0  0  0  0  0  0
    4.7444    5.8056    0.0000 C   0  0  0  0  0  0  0  0  0  0  0  0
    5.4589    6.2181    0.0000 C   0  0  0  0  0  0  0  0  0  0  0  0
    6.1734    5.8056    0.0000 C   0  0  0  0  0  0  0  0  0  0  0  0
    5.4589    7.0431    0.0000 N   0  0  0  0  0  0  0  0  0  0  0  0
    4.7444    7.4556    0.0000 C   0  0  0  0  0  0  0  0  0  0  0  0
    4.7444    8.2806    0.0000 C   0  0  0  0  0  0  0  0  0  0  0  0
    5.4589    8.6931    0.0000 O   0  0  0  0  0  0  0  0  0  0  0  0
    6.1734    8.2806    0.0000 C   0  0  0  0  0  0  0  0  0  0  0  0
    6.1734    7.4556    0.0000 C   0  0  0  0  0  0  0  0  0  0  0  0
    7.6023    3.3306    0.0000 N   0  0  0  0  0  0  0  0  0  0  0  0
  1  2  1  0
  2  3  2  0
  2 10  1  0
  3  4  1  0
  4  5  2  0
  5  6  1  0
  5  9  1  0
  6  7  1  0
  7  8  1  0
  8  9  1  0
  9 10  2  0
 10 11  1  0
 11 12  1  0
 12 13  2  0
 12 30  1  0
 13 14  1  0
 14 15  2  0
 15 16  1  0
 16 17  1  0
 16 30  2  0
 17 18  1  0
 18 19  2  0
 18 23  1  0
 19 20  1  0
 20 21  2  0
 21 22  1  0
 22 23  2  0
 22 24  1  0
 24 25  1  0
 24 29  1  0
 25 26  1  0
 26 27  1  0
 27 28  1  0
 28 29  1  0
M  END
>  <DRUGBANK_ID>  (1) 
DB07255

>  <COMMON_NAME>  (1) 
N'-(5-CHLORO-1,3-BENZODIOXOL-4-YL)-N-(3-MORPHOLIN-4-YLPHENYL)PYRIMIDINE-2,4-DIAMINE

$$$$
