
     RDKit          2D

 24 25  0  0  1  0  0  0  0  0999 V2000
   -7.1729    2.4186    0.0000 C   0  0  0  0  0  0  0  0  0  0  0  0
   -6.8374    1.6649    0.0000 C   0  0  0  0  0  0  0  0  0  0  0  0
   -6.0169    1.5787    0.0000 C   0  0  0  0  0  0  0  0  0  0  0  0
   -5.6813    0.8250    0.0000 N   0  0  0  0  0  0  0  0  0  0  0  0
   -4.8608    0.7388    0.0000 C   0  0  0  0  0  0  0  0  0  0  0  0
   -4.3088    1.3519    0.0000 O   0  0  0  0  0  0  0  0  0  0  0  0
   -3.5551    1.0163    0.0000 C   0  0  0  0  0  0  0  0  0  0  0  0
   -2.8407    1.4288    0.0000 C   0  0  0  0  0  0  0  0  0  0  0  0
   -2.1262    1.0163    0.0000 O   0  0  0  0  0  0  0  0  0  0  0  0
   -1.4117    1.4288    0.0000 P   0  0  0  0  0  0  0  0  0  0  0  0
   -1.8242    2.1433    0.0000 O   0  0  0  0  0  0  0  0  0  0  0  0
   -0.9992    0.7143    0.0000 O   0  0  0  0  0  0  0  0  0  0  0  0
   -0.6972    1.8413    0.0000 O   0  0  0  0  0  0  0  0  0  0  0  0
    0.0172    1.4288    0.0000 P   0  0  0  0  0  0  0  0  0  0  0  0
    0.7317    1.0163    0.0000 O   0  0  0  0  0  0  0  0  0  0  0  0
    0.4297    2.1433    0.0000 O   0  0  0  0  0  0  0  0  0  0  0  0
   -0.3953    0.7143    0.0000 O   0  0  0  0  0  0  0  0  0  0  0  0
   -3.6414    0.1958    0.0000 C   0  0  0  0  0  0  0  0  0  0  0  0
   -4.4483    0.0243    0.0000 C   0  0  0  0  0  0  0  0  0  0  0  0
   -6.1662    0.1576    0.0000 C   0  0  0  0  0  0  0  0  0  0  0  0
   -5.8307   -0.5961    0.0000 O   0  0  0  0  0  0  0  0  0  0  0  0
   -6.9867    0.2438    0.0000 N   0  0  0  0  0  0  0  0  0  0  0  0
   -7.3223    0.9975    0.0000 C   0  0  0  0  0  0  0  0  0  0  0  0
   -8.1428    1.0837    0.0000 O   0  0  0  0  0  0  0  0  0  0  0  0
  1  2  1  0
  2  3  2  0
  2 23  1  0
  3  4  1  0
  4 20  1  0
  5  4  1  6
  5  6  1  0
  5 19  1  0
  6  7  1  0
  7  8  1  6
  7 18  1  0
  8  9  1  0
 10  9  1  0
 10 11  1  0
 10 12  2  0
 10 13  1  0
 13 14  1  0
 14 15  1  0
 14 16  1  0
 14 17  2  0
 18 19  2  0
 20 21  2  0
 20 22  1  0
 22 23  1  0
 23 24  2  0
M  END
>  <DRUGBANK_ID>  (1) 
DB02569

>  <SECONDARY_ACCESSION_NUMBERS>  (1) 
EXPT01096

>  <COMMON_NAME>  (1) 
2',3'-Dehydro-2',3'-Deoxy-Thymidine 5'-Diphosphate

$$$$
