3G3
     RDKit          2D

 18 20  0  0  0  0  0  0  0  0999 V2000
    0.4029    1.6121    0.0000 O   0  0  0  0  0  0  0  0  0  0  0  0
    0.6578    0.8275    0.0000 C   0  0  0  0  0  0  0  0  0  0  0  0
    1.4424    0.5726    0.0000 C   0  0  0  0  0  0  0  0  0  0  0  0
    2.1569    0.9851    0.0000 C   0  0  0  0  0  0  0  0  0  0  0  0
    2.8714    0.5726    0.0000 C   0  0  0  0  0  0  0  0  0  0  0  0
    2.8714   -0.2524    0.0000 C   0  0  0  0  0  0  0  0  0  0  0  0
    2.1569   -0.6649    0.0000 C   0  0  0  0  0  0  0  0  0  0  0  0
    1.4424   -0.2524    0.0000 C   0  0  0  0  0  0  0  0  0  0  0  0
    0.1729    0.1601    0.0000 N   0  0  0  0  0  0  0  0  0  0  0  0
    0.6578   -0.5074    0.0000 C   0  0  0  0  0  0  0  0  0  0  0  0
    0.4029   -1.2920    0.0000 O   0  0  0  0  0  0  0  0  0  0  0  0
   -0.6521    0.1601    0.0000 C   0  0  0  0  0  0  0  0  0  0  0  0
   -1.0646   -0.5544    0.0000 C   0  0  0  0  0  0  0  0  0  0  0  0
   -1.8896   -0.5544    0.0000 C   0  0  0  0  0  0  0  0  0  0  0  0
   -2.3745   -1.2219    0.0000 N   0  0  0  0  0  0  0  0  0  0  0  0
   -3.1592   -0.9669    0.0000 N   0  0  0  0  0  0  0  0  0  0  0  0
   -3.1592   -0.1419    0.0000 N   0  0  0  0  0  0  0  0  0  0  0  0
   -2.3745    0.1130    0.0000 N   0  0  0  0  0  0  0  0  0  0  0  0
  1  2  2  0
  2  3  1  0
  2  9  1  0
  3  4  2  0
  3  8  1  0
  4  5  1  0
  5  6  2  0
  6  7  1  0
  7  8  2  0
  8 10  1  0
  9 10  1  0
  9 12  1  0
 10 11  2  0
 12 13  1  0
 13 14  1  0
 14 15  2  0
 14 18  1  0
 15 16  1  0
 16 17  2  0
 17 18  1  0
M  END
>  <DRUGBANK_ID>  (1) 
DB07055

>  <COMMON_NAME>  (1) 
2-[2-(1H-tetrazol-5-yl)ethyl]-1H-isoindole-1,3(2H)-dione

$$$$
