
     RDKit          2D

 34 31  0  0  0  0  0  0  0  0999 V2000
   -9.9984   -0.7341    0.0000 C   0  0  0  0  0  0  0  0  0  0  0  0
   -9.3203   -0.2643    0.0000 C   0  0  0  0  0  0  0  0  0  0  0  0
   -8.5743   -0.6167    0.0000 C   0  0  0  0  0  0  0  0  0  0  0  0
   -7.8962   -0.1468    0.0000 C   0  0  0  0  0  0  0  0  0  0  0  0
   -7.1502   -0.4992    0.0000 C   0  0  0  0  0  0  0  0  0  0  0  0
   -6.4721   -0.0294    0.0000 C   0  0  0  0  0  0  0  0  0  0  0  0
   -5.7261   -0.3817    0.0000 C   0  0  0  0  0  0  0  0  0  0  0  0
   -5.0479    0.0881    0.0000 C   0  0  0  0  0  0  0  0  0  0  0  0
   -4.3020   -0.2643    0.0000 C   0  0  0  0  0  0  0  0  0  0  0  0
   -3.6238    0.2056    0.0000 C   0  0  0  0  0  0  0  0  0  0  0  0
   -2.8779   -0.1468    0.0000 C   0  0  0  0  0  0  0  0  0  0  0  0
   -2.1997    0.3230    0.0000 C   0  0  0  0  0  0  0  0  0  0  0  0
   -1.4538   -0.0294    0.0000 C   0  0  0  0  0  0  0  0  0  0  0  0
   -0.7756    0.4405    0.0000 C   0  0  0  0  0  0  0  0  0  0  0  0
   -0.0297    0.0881    0.0000 C   0  0  0  0  0  0  0  0  0  0  0  0
    0.6485    0.5579    0.0000 C   0  0  0  0  0  0  0  0  0  0  0  0
    1.3944    0.2056    0.0000 C   0  0  0  0  0  0  0  0  0  0  0  0
    2.0726    0.6754    0.0000 C   0  0  0  0  0  0  0  0  0  0  0  0
    2.8185    0.3230    0.0000 N   0  0  0  0  0  0  0  0  0  0  0  0
    3.4967    0.7928    0.0000 C   0  0  0  0  0  0  0  0  0  0  0  0
    4.2426    0.4405    0.0000 C   0  0  0  0  0  0  0  0  0  0  0  0
    4.9208    0.9103    0.0000 C   0  0  0  0  0  0  0  0  0  0  0  0
    5.6668    0.5579    0.0000 N   0  0  0  0  0  0  0  0  0  0  0  0
    6.3449    1.0278    0.0000 C   0  0  0  0  0  0  0  0  0  0  0  0
    7.0909    0.6754    0.0000 C   0  0  0  0  0  0  0  0  0  0  0  0
    7.7690    1.1452    0.0000 O   0  0  0  0  0  0  0  0  0  0  0  0
    5.7346   -0.2643    0.0000 C   0  0  0  0  0  0  0  0  0  0  0  0
    6.4805   -0.6167    0.0000 C   0  0  0  0  0  0  0  0  0  0  0  0
    6.5483   -1.4389    0.0000 O   0  0  0  0  0  0  0  0  0  0  0  0
    2.8864   -0.4992    0.0000 C   0  0  0  0  0  0  0  0  0  0  0  0
    3.6323   -0.8516    0.0000 C   0  0  0  0  0  0  0  0  0  0  0  0
    3.7001   -1.6738    0.0000 O   0  0  0  0  0  0  0  0  0  0  0  0
    9.6547    0.0000    0.0000 F   0  0  0  0  0  0  0  0  0  0  0  0
    0.0000   -3.3238    0.0000 F   0  0  0  0  0  0  0  0  0  0  0  0
  1  2  1  0
  2  3  1  0
  3  4  1  0
  4  5  1  0
  5  6  1  0
  6  7  1  0
  7  8  1  0
  8  9  1  0
  9 10  1  0
 10 11  1  0
 11 12  1  0
 12 13  1  0
 13 14  1  0
 14 15  1  0
 15 16  1  0
 16 17  1  0
 17 18  1  0
 18 19  1  0
 19 20  1  0
 19 30  1  0
 20 21  1  0
 21 22  1  0
 22 23  1  0
 23 24  1  0
 23 27  1  0
 24 25  1  0
 25 26  1  0
 27 28  1  0
 28 29  1  0
 30 31  1  0
 31 32  1  0
M  END
>  <DRUGBANK_ID>  (1) 
DB13290

>  <COMMON_NAME>  (1) 
Olaflur

>  <CAS_NUMBER>  (1) 
6818-37-7

>  <UNII>  (1) 
8NY9L8837D

>  <SYNONYMS>  (1) 
Olaflur

$$$$
