
     RDKit          2D

 24 28  0  0  1  0  0  0  0  0999 V2000
   -1.0016   -0.8867    0.0000 C   0  0  0  0  0  0  0  0  0  0  0  0
   -1.5056   -0.2336    0.0000 C   0  0  0  0  0  0  0  0  0  0  0  0
   -2.2825   -0.5111    0.0000 N   0  0  0  0  0  0  0  0  0  0  0  0
   -2.2587   -1.3358    0.0000 C   0  0  0  0  0  0  0  0  0  0  0  0
   -1.4670   -1.5679    0.0000 C   0  0  0  0  0  0  0  0  0  0  0  0
   -1.2722   -2.3696    0.0000 C   0  0  0  0  0  0  0  0  0  0  0  0
   -1.8691   -2.9391    0.0000 C   0  0  0  0  0  0  0  0  0  0  0  0
   -2.6608   -2.7070    0.0000 C   0  0  0  0  0  0  0  0  0  0  0  0
   -2.8556   -1.9053    0.0000 N   0  0  0  0  0  0  0  0  0  0  0  0
   -1.6743   -3.7408    0.0000 C   0  0  0  0  0  0  0  0  0  0  0  0
   -2.2712   -4.3103    0.0000 O   0  0  0  0  0  0  0  0  0  0  0  0
   -0.8827   -3.9729    0.0000 N   0  0  0  0  0  0  0  0  0  0  0  0
   -0.4806   -2.6017    0.0000 N   0  0  0  0  0  0  0  0  0  0  0  0
    0.1163   -2.0322    0.0000 C   0  0  0  0  0  0  0  0  0  0  0  0
    0.8517   -1.6585    0.0000 C   0  0  0  0  0  0  0  0  0  0  0  0
    0.8517   -0.9111    0.0000 C   0  0  0  0  0  0  0  0  0  0  0  0
    1.3012   -0.1208    0.0000 C   0  0  0  0  0  0  0  0  0  0  0  0
    0.5657   -0.4945    0.0000 C   0  0  0  0  0  0  0  0  0  0  0  0
    0.5657   -1.2419    0.0000 C   0  0  0  0  0  0  0  0  0  0  0  0
    1.3012   -1.6156    0.0000 C   0  0  0  0  0  0  0  0  0  0  0  0
    2.0368   -1.2419    0.0000 C   0  0  0  0  0  0  0  0  0  0  0  0
    1.5873   -2.0322    0.0000 C   0  0  0  0  0  0  0  0  0  0  0  0
    2.0368   -0.4945    0.0000 C   0  0  0  0  0  0  0  0  0  0  0  0
    2.8344   -1.4529    0.0000 O   0  0  0  0  0  0  0  0  0  0  0  0
  1  2  2  0
  1  5  1  0
  2  3  1  0
  3  4  1  0
  4  5  2  0
  4  9  1  0
  5  6  1  0
  6  7  2  0
  6 13  1  0
  7  8  1  0
  7 10  1  0
  8  9  2  0
 10 11  2  0
 10 12  1  0
 14 13  1  1
 14 15  1  0
 14 19  1  0
 15 22  1  6
 15 16  1  0
 16 17  1  0
 17 23  1  0
 17 18  1  0
 19 18  1  1
 19 20  1  0
 20 21  1  0
 21 22  1  0
 21 23  1  0
 21 24  1  1
M  END
>  <DRUGBANK_ID>  (1) 
DB11708

>  <COMMON_NAME>  (1) 
Peficitinib

>  <CAS_NUMBER>  (1) 
944118-01-8

>  <UNII>  (1) 
HPH1166CKX

>  <SYNONYMS>  (1) 
Peficitinib

$$$$
