
     RDKit          2D

 23 25  0  0  0  0  0  0  0  0999 V2000
   -3.5045    1.7625    0.0000 C   0  0  0  0  0  0  0  0  0  0  0  0
   -4.2189    1.3500    0.0000 C   0  0  0  0  0  0  0  0  0  0  0  0
   -4.2189    0.5249    0.0000 C   0  0  0  0  0  0  0  0  0  0  0  0
   -3.5045    0.1124    0.0000 C   0  0  0  0  0  0  0  0  0  0  0  0
   -2.7900    0.5249    0.0000 C   0  0  0  0  0  0  0  0  0  0  0  0
   -2.7900    1.3500    0.0000 C   0  0  0  0  0  0  0  0  0  0  0  0
   -2.0754    0.1124    0.0000 C   0  0  0  0  0  0  0  0  0  0  0  0
   -1.3610    0.5250    0.0000 N   0  0  0  0  0  0  0  0  0  0  0  0
   -1.3609    1.3500    0.0000 N   0  0  0  0  0  0  0  0  0  0  0  0
   -2.0755    1.7625    0.0000 C   0  0  0  0  0  0  0  0  0  0  0  0
   -0.6465    0.1125    0.0000 C   0  0  0  0  0  0  0  0  0  0  0  0
    0.0678    0.5250    0.0000 C   0  0  0  0  0  0  0  0  0  0  0  0
    0.7823    0.1125    0.0000 N   0  0  0  0  0  0  0  0  0  0  0  0
    1.4968    0.5250    0.0000 C   0  0  0  0  0  0  0  0  0  0  0  0
    0.7823   -0.7124    0.0000 C   0  0  0  0  0  0  0  0  0  0  0  0
   -2.0753   -0.7125    0.0000 O   0  0  0  0  0  0  0  0  0  0  0  0
   -2.0755    2.5875    0.0000 C   0  0  0  0  0  0  0  0  0  0  0  0
   -1.3610    3.0000    0.0000 C   0  0  0  0  0  0  0  0  0  0  0  0
   -0.6466    2.5875    0.0000 C   0  0  0  0  0  0  0  0  0  0  0  0
    0.0679    3.0001    0.0000 C   0  0  0  0  0  0  0  0  0  0  0  0
    0.0679    3.8250    0.0000 C   0  0  0  0  0  0  0  0  0  0  0  0
   -0.6464    4.2376    0.0000 C   0  0  0  0  0  0  0  0  0  0  0  0
   -1.3610    3.8250    0.0000 C   0  0  0  0  0  0  0  0  0  0  0  0
  1  2  2  0
  2  3  1  0
  3  4  2  0
  4  5  1  0
  5  6  2  0
  5  7  1  0
  6  1  1  0
  6 10  1  0
  7  8  1  0
  7 16  2  0
  8  9  1  0
  8 11  1  0
  9 10  2  0
 10 17  1  0
 11 12  1  0
 12 13  1  0
 13 14  1  0
 13 15  1  0
 17 18  1  0
 18 19  2  0
 19 20  1  0
 20 21  2  0
 21 22  1  0
 22 23  2  0
 23 18  1  0
M  END
>  <DRUGBANK_ID>  (1) 
DB13349

>  <COMMON_NAME>  (1) 
Talastine

>  <CAS_NUMBER>  (1) 
16188-61-7

>  <UNII>  (1) 
49AB2PA48B

>  <SYNONYMS>  (1) 
Talastine

$$$$
