
     RDKit          2D

 17 17  0  0  0  0  0  0  0  0999 V2000
    3.2556    0.5684    0.0000 N   0  0  0  0  0  0  0  0  0  0  0  0
    3.9085    0.0939    0.0000 C   0  0  0  0  0  0  0  0  0  0  0  0
    3.6590   -0.6736    0.0000 N   0  0  0  0  0  0  0  0  0  0  0  0
    2.6026    0.0938    0.0000 C   0  0  0  0  0  0  0  0  0  0  0  0
    2.8519   -0.6736    0.0000 C   0  0  0  0  0  0  0  0  0  0  0  0
    2.2254   -1.1903    0.0000 C   0  0  0  0  0  0  0  0  0  0  0  0
    1.3568   -0.6829    0.0000 S   0  0  0  0  0  0  0  0  0  0  0  0
    0.4653   -1.1365    0.0000 C   0  0  0  0  0  0  0  0  0  0  0  0
   -0.3725   -0.6369    0.0000 C   0  0  0  0  0  0  0  0  0  0  0  0
   -1.1643   -1.0903    0.0000 N   0  0  0  0  0  0  0  0  0  0  0  0
   -2.0098   -0.6369    0.0000 C   0  0  0  0  0  0  0  0  0  0  0  0
   -2.9707   -1.0903    0.0000 N   0  0  0  0  0  0  0  0  0  0  0  0
   -3.9085   -0.6598    0.0000 C   0  0  0  0  0  0  0  0  0  0  0  0
   -2.0098    0.2779    0.0000 N   0  0  0  0  0  0  0  0  0  0  0  0
   -1.2196    0.7340    0.0000 C   0  0  0  0  0  0  0  0  0  0  0  0
   -0.4295    1.1903    0.0000 N   0  0  0  0  0  0  0  0  0  0  0  0
    1.8104    0.3240    0.0000 C   0  0  0  0  0  0  0  0  0  0  0  0
  2  1  1  0
  3  2  2  0
  4  1  1  0
  5  3  1  0
  5  4  2  0
  6  5  1  0
  7  6  1  0
  8  7  1  0
  9  8  1  0
 10  9  1  0
 11 10  1  0
 12 11  1  0
 13 12  1  0
 14 11  2  0
 14 15  1  0
 16 15  3  0
 17  4  1  0
M  END
>  <DRUGBANK_ID>  (1) 
DB00501

>  <SECONDARY_ACCESSION_NUMBERS>  (1) 
APRD00568

>  <COMMON_NAME>  (1) 
Cimetidine

>  <CAS_NUMBER>  (1) 
51481-61-9

>  <UNII>  (1) 
80061L1WGD

>  <SYNONYMS>  (1) 
1-Cyano-2-methyl-3-(2-(((5-methyl-4-imidazolyl)methyl)thio)ethyl)guanidine; 2-cyano-1-methyl-3-(2-(((5-methylimidazol-4-yl)methyl)thio)ethyl)guanidine; Cimetidin; Cimetidina; Cim√©tidine; Cimetidine; Cimetidinum; N-cyano-N'-methyl-N''-(2-([(5-methyl-1H-imidazol-4-yl)methyl]sulfanyl)ethyl)guanidine; N''-cyano-N-methyl-N'-(2-{[(5-methyl-1H-imidazol-4-yl)methyl]thio}ethyl)guanidine

$$$$
