
     RDKit          2D

 23 22  0  0  0  0  0  0  0  0999 V2000
    5.0015   -0.2062    0.0000 C   0  0  0  0  0  0  0  0  0  0  0  0
    4.2870   -0.6187    0.0000 C   0  0  0  0  0  0  0  0  0  0  0  0
    5.0015    0.6187    0.0000 O   0  0  0  0  0  0  0  0  0  0  0  0
    3.5725   -0.2062    0.0000 C   0  0  0  0  0  0  0  0  0  0  0  0
    2.8580   -0.6187    0.0000 C   0  0  0  0  0  0  0  0  0  0  0  0
    2.1435   -0.2062    0.0000 C   0  0  0  0  0  0  0  0  0  0  0  0
    1.4290   -0.6187    0.0000 C   0  0  0  0  0  0  0  0  0  0  0  0
    0.7145   -0.2062    0.0000 C   0  0  0  0  0  0  0  0  0  0  0  0
    0.0000   -0.6187    0.0000 C   0  0  0  0  0  0  0  0  0  0  0  0
   -0.7144   -0.2062    0.0000 C   0  0  0  0  0  0  0  0  0  0  0  0
   -1.4290   -0.6187    0.0000 C   0  0  0  0  0  0  0  0  0  0  0  0
   -2.1435   -0.2062    0.0000 C   0  0  0  0  0  0  0  0  0  0  0  0
   -2.8580   -0.6187    0.0000 C   0  0  0  0  0  0  0  0  0  0  0  0
   -3.5725   -0.2062    0.0000 C   0  0  0  0  0  0  0  0  0  0  0  0
   -4.2870   -0.6187    0.0000 C   0  0  0  0  0  0  0  0  0  0  0  0
   -5.0015   -0.2062    0.0000 C   0  0  0  0  0  0  0  0  0  0  0  0
   -5.7160   -0.6187    0.0000 C   0  0  0  0  0  0  0  0  0  0  0  0
   -6.4305   -0.2062    0.0000 C   0  0  0  0  0  0  0  0  0  0  0  0
   -7.1450   -0.6187    0.0000 C   0  0  0  0  0  0  0  0  0  0  0  0
    5.7160   -0.6187    0.0000 O   0  0  0  0  0  0  0  0  0  0  0  0
    6.4305    0.6187    0.0000 O   0  0  0  0  0  0  0  0  0  0  0  0
    6.4305   -0.2062    0.0000 Al  0  0  0  0  0  3  0  0  0  0  0  0
    7.1450   -0.6187    0.0000 O   0  0  0  0  0  0  0  0  0  0  0  0
  1  2  1  0
  1  3  2  0
  1 20  1  0
  2  4  1  0
  4  5  1  0
  5  6  1  0
  6  7  1  0
  7  8  1  0
  8  9  1  0
  9 10  1  0
 10 11  1  0
 12 11  1  0
 13 12  1  0
 14 13  1  0
 15 14  1  0
 16 15  1  0
 17 16  1  0
 18 17  1  0
 19 18  1  0
 20 22  1  0
 22 21  1  0
 22 23  1  0
M  END
>  <DRUGBANK_ID>  (1) 
DB01375

>  <COMMON_NAME>  (1) 
Aluminium monostearate

>  <CAS_NUMBER>  (1) 
7047-84-9

>  <UNII>  (1) 
P9BC99461E

>  <SYNONYMS>  (1) 
Aluminium, dihydroxide stearate; Aluminum monostearate; Aluminum stearate 300; Dibasic aluminium stearate; Dibasic aluminum stearate; Dihydroxy(stearato)aluminium; Dihydroxy(stearato)aluminum; Dihydroxyaluminum stearate

$$$$
