
     RDKit          2D

 26 29  0  0  0  0  0  0  0  0999 V2000
   -3.9125    0.7004    0.0000 C   0  0  0  0  0  0  0  0  0  0  0  0
   -3.1981    0.2879    0.0000 C   0  0  0  0  0  0  0  0  0  0  0  0
   -2.4836    0.7004    0.0000 C   0  0  0  0  0  0  0  0  0  0  0  0
   -1.7691    0.2879    0.0000 N   0  0  0  0  0  0  0  0  0  0  0  0
   -1.7691   -0.5371    0.0000 C   0  0  0  0  0  0  0  0  0  0  0  0
   -2.4836   -0.9496    0.0000 C   0  0  0  0  0  0  0  0  0  0  0  0
   -3.1981   -0.5371    0.0000 C   0  0  0  0  0  0  0  0  0  0  0  0
   -3.8112   -1.0892    0.0000 N   0  0  0  0  0  0  0  0  0  0  0  0
   -3.4756   -1.8428    0.0000 C   0  0  0  0  0  0  0  0  0  0  0  0
   -2.6551   -1.7566    0.0000 C   0  0  0  0  0  0  0  0  0  0  0  0
   -2.1702   -2.4240    0.0000 C   0  0  0  0  0  0  0  0  0  0  0  0
   -1.3497   -2.3378    0.0000 C   0  0  0  0  0  0  0  0  0  0  0  0
   -0.8648   -3.0052    0.0000 C   0  0  0  0  0  0  0  0  0  0  0  0
   -1.2004   -3.7589    0.0000 C   0  0  0  0  0  0  0  0  0  0  0  0
   -2.0208   -3.8451    0.0000 C   0  0  0  0  0  0  0  0  0  0  0  0
   -2.5058   -3.1777    0.0000 C   0  0  0  0  0  0  0  0  0  0  0  0
   -3.3262   -3.2639    0.0000 C   0  0  0  0  0  0  0  0  0  0  0  0
   -3.8112   -2.5965    0.0000 C   0  0  0  0  0  0  0  0  0  0  0  0
   -0.7154   -4.4263    0.0000 O   0  0  0  0  0  0  0  0  0  0  0  0
   -1.0547   -0.9496    0.0000 N   0  0  0  0  0  0  0  0  0  0  0  0
   -0.3402   -0.5371    0.0000 C   0  0  0  0  0  0  0  0  0  0  0  0
    0.3743   -0.9496    0.0000 C   0  0  0  0  0  0  0  0  0  0  0  0
    1.0888   -0.5371    0.0000 C   0  0  0  0  0  0  0  0  0  0  0  0
    1.8032   -0.9496    0.0000 N   0  0  0  0  0  0  0  0  0  0  0  0
    2.5177   -0.5371    0.0000 C   0  0  0  0  0  0  0  0  0  0  0  0
    1.8032   -1.7746    0.0000 C   0  0  0  0  0  0  0  0  0  0  0  0
  1  2  1  0
  2  3  2  0
  2  7  1  0
  3  4  1  0
  4  5  2  0
  5  6  1  0
  5 20  1  0
  6  7  2  0
  6 10  1  0
  7  8  1  0
  8  9  1  0
  9 10  2  0
  9 18  1  0
 10 11  1  0
 11 12  2  0
 11 16  1  0
 12 13  1  0
 13 14  2  0
 14 15  1  0
 14 19  1  0
 15 16  2  0
 16 17  1  0
 17 18  2  0
 20 21  1  0
 21 22  1  0
 22 23  1  0
 23 24  1  0
 24 25  1  0
 24 26  1  0
M  END
>  <DRUGBANK_ID>  (1) 
DB12868

>  <COMMON_NAME>  (1) 
Intoplicine

>  <CAS_NUMBER>  (1) 
125974-72-3

>  <UNII>  (1) 
FB2CIN6HMI

>  <SYNONYMS>  (1) 
Intoplicine

$$$$
