
     RDKit          2D

 24 27  0  0  1  0  0  0  0  0999 V2000
    2.8747    6.2597    0.0000 C   0  0  0  0  0  0  0  0  0  0  0  0
   -0.3702    5.5899    0.0000 C   0  0  0  0  0  0  0  0  0  0  0  0
    5.1626    5.6083    0.0000 C   0  0  0  0  0  0  0  0  0  0  0  0
    4.0066    6.2757    0.0000 C   0  0  0  0  0  0  0  0  0  0  0  0
    5.9472    6.9673    0.0000 C   0  0  0  0  0  0  0  0  0  0  0  0
    4.7912    7.6347    0.0000 C   0  0  0  0  0  0  0  0  0  0  0  0
    2.6197    5.4750    0.0000 C   0  0  0  0  0  0  0  0  0  0  0  0
    0.4267    5.8035    0.0000 C   0  0  0  0  0  0  0  0  0  0  0  0
    4.3421    5.5221    0.0000 C   0  0  0  0  0  0  0  0  0  0  0  0
    1.0101    5.2201    0.0000 C   0  0  0  0  0  0  0  0  0  0  0  0
    1.8351    5.2201    0.0000 C   0  0  0  0  0  0  0  0  0  0  0  0
    2.6197    4.1402    0.0000 C   0  0  0  0  0  0  0  0  0  0  0  0
    3.1046    4.8076    0.0000 C   0  0  0  0  0  0  0  0  0  0  0  0
    1.0101    4.3951    0.0000 C   0  0  0  0  0  0  0  0  0  0  0  0
    2.8747    3.3555    0.0000 C   0  0  0  0  0  0  0  0  0  0  0  0
    5.6117    7.7210    0.0000 N   0  0  0  0  0  0  0  0  0  0  0  0
    5.3342    6.4153    0.0000 N   0  0  0  0  0  0  0  0  0  0  0  0
    4.6197    6.8278    0.0000 N   0  0  0  0  0  0  0  0  0  0  0  0
    1.8351    4.3951    0.0000 N   0  0  0  0  0  0  0  0  0  0  0  0
    0.6403    6.6003    0.0000 O   0  0  0  0  0  0  0  0  0  0  0  0
    0.4267    3.8117    0.0000 O   0  0  0  0  0  0  0  0  0  0  0  0
    2.3226    2.7424    0.0000 O   0  0  0  0  0  0  0  0  0  0  0  0
    3.6816    3.1840    0.0000 O   0  0  0  0  0  0  0  0  0  0  0  0
    3.9296    4.8076    0.0000 S   0  0  0  0  0  0  0  0  0  0  0  0
  7  1  1  1
  8  2  1  1
  8 20  1  0
  9  3  1  0
  9  4  1  0
 10  8  1  0
 11  7  1  0
 11 10  1  0
 13  7  1  0
 13 12  2  0
 10 14  1  6
 15 12  1  0
 16  5  2  0
 16  6  1  0
 17  3  1  0
 17  5  1  0
 18  4  1  0
 18  6  2  0
 18 17  1  0
 11 19  1  1
 19 12  1  0
 19 14  1  0
 21 14  2  0
 22 15  2  0
 23 15  1  0
 24  9  1  0
 24 13  1  0
M  CHG  2  18   1  23  -1
M  END
>  <DRUGBANK_ID>  (1) 
DB13028

>  <COMMON_NAME>  (1) 
Biapenem

>  <CAS_NUMBER>  (1) 
120410-24-4

>  <UNII>  (1) 
YR5U3L9ZH1

>  <SYNONYMS>  (1) 
Biapenem

$$$$
