
     RDKit          2D

 25 25  0  0  0  0  0  0  0  0999 V2000
   -2.2225    0.4234    0.0000 C   0  0  0  0  0  0  0  0  0  0  0  0
   -2.2260   -0.4063    0.0000 C   0  0  0  0  0  0  0  0  0  0  0  0
   -3.0113    0.6773    0.0000 C   0  0  0  0  0  0  0  0  0  0  0  0
   -1.5092    0.8385    0.0000 C   0  0  0  0  0  0  0  0  0  0  0  0
   -3.0011   -0.6602    0.0000 C   0  0  0  0  0  0  0  0  0  0  0  0
   -1.5092   -0.8146    0.0000 C   0  0  0  0  0  0  0  0  0  0  0  0
   -3.4950    0.0051    0.0000 C   0  0  0  0  0  0  0  0  0  0  0  0
   -3.2686    1.4593    0.0000 O   0  0  0  0  0  0  0  0  0  0  0  0
   -0.7956    0.4234    0.0000 C   0  0  0  0  0  0  0  0  0  0  0  0
   -3.2481   -1.4457    0.0000 O   0  0  0  0  0  0  0  0  0  0  0  0
   -0.7956   -0.4063    0.0000 C   0  0  0  0  0  0  0  0  0  0  0  0
   -0.0788    0.8385    0.0000 C   0  0  0  0  0  0  0  0  0  0  0  0
   -0.0788   -0.8146    0.0000 C   0  0  0  0  0  0  0  0  0  0  0  0
    0.6310    0.4234    0.0000 C   0  0  0  0  0  0  0  0  0  0  0  0
    0.6345   -0.4063    0.0000 C   0  0  0  0  0  0  0  0  0  0  0  0
   -0.0788   -1.6412    0.0000 O   0  0  0  0  0  0  0  0  0  0  0  0
    1.3478    0.8385    0.0000 C   0  0  0  0  0  0  0  0  0  0  0  0
    1.3478   -0.8146    0.0000 C   0  0  0  0  0  0  0  0  0  0  0  0
    2.0647    0.4234    0.0000 C   0  0  0  0  0  0  0  0  0  0  0  0
    2.0647   -0.4063    0.0000 C   0  0  0  0  0  0  0  0  0  0  0  0
    2.7781    0.8385    0.0000 C   0  0  0  0  0  0  0  0  0  0  0  0
    2.7781   -0.8146    0.0000 C   0  0  0  0  0  0  0  0  0  0  0  0
    3.4915    0.4201    0.0000 O   0  0  0  0  0  0  0  0  0  0  0  0
    2.7919    1.6412    0.0000 O   0  0  0  0  0  0  0  0  0  0  0  0
    3.4950   -0.4063    0.0000 C   0  0  0  0  0  0  0  0  0  0  0  0
  1  2  1  0
  1  3  1  0
  1  4  1  6
  2  5  1  0
  2  6  1  1
  3  7  1  0
  3  8  2  0
  4  9  1  0
  5 10  1  6
  5  7  1  0
  6 11  2  0
  9 12  1  0
 11 13  1  0
 12 14  1  0
 13 15  1  0
 13 16  1  6
 14 17  1  0
 15 18  1  0
 17 19  1  0
 18 20  1  0
 19 21  1  0
 20 22  1  0
 21 23  1  0
 21 24  2  0
 22 25  1  0
M  END
>  <DRUGBANK_ID>  (1) 
DB00770

>  <SECONDARY_ACCESSION_NUMBERS>  (1) 
APRD00785

>  <COMMON_NAME>  (1) 
Alprostadil

>  <CAS_NUMBER>  (1) 
745-65-3

>  <UNII>  (1) 
F5TD010360

>  <SYNONYMS>  (1) 
(11α,13E,15S)-11,15-dihydroxy-9-oxoprost-13-en-1-oic acid; (13E)-(15S)-11alpha,15-Dihydroxy-9-oxoprost-13-enoate; 11α,15α-dihydroxy-9-oxo-13-trans-prostenoic acid; Alprostadil; Alprostadilum; PGE-1; PGE1; Prostaglandin E1

$$$$
