
     RDKit          2D

 11 11  0  0  0  0  0  0  0  0999 V2000
   -0.7145    2.0625    0.0000 C   0  0  0  0  0  0  0  0  0  0  0  0
    1.4289    0.0000    0.0000 C   0  0  0  0  0  0  0  0  0  0  0  0
    1.4289    0.8250    0.0000 C   0  0  0  0  0  0  0  0  0  0  0  0
    0.0000    0.0000    0.0000 C   0  0  0  0  0  0  0  0  0  0  0  0
    0.7145   -1.2375    0.0000 C   0  0  0  0  0  0  0  0  0  0  0  0
    0.7145   -0.4125    0.0000 C   0  0  0  0  0  0  0  0  0  0  0  0
    0.7145    1.2375    0.0000 C   0  0  0  0  0  0  0  0  0  0  0  0
    0.0000    0.8250    0.0000 C   0  0  0  0  0  0  0  0  0  0  0  0
    1.4289   -1.6500    0.0000 O   0  0  0  0  0  0  0  0  0  0  0  0
    0.7145    2.0625    0.0000 O   0  0  0  0  0  0  0  0  0  0  0  0
   -0.7145    1.2375    0.0000 O   0  0  0  0  0  0  0  0  0  0  0  0
  3  2  2  0
  6  2  1  0
  6  4  2  0
  6  5  1  0
  7  3  1  0
  8  4  1  0
  8  7  2  0
  9  5  1  0
 10  7  1  0
 11  1  1  0
 11  8  1  0
M  END
>  <DRUGBANK_ID>  (1) 
DB12087

>  <COMMON_NAME>  (1) 
Vanillyl alcohol

>  <CAS_NUMBER>  (1) 
498-00-0

>  <UNII>  (1) 
X7EA1JUA6M

$$$$
