SNB
     RDKit          2D

 20 22  0  0  0  0  0  0  0  0999 V2000
   -1.5371    0.1863    0.0000 Cl  0  0  0  0  0  0  0  0  0  0  0  0
   -0.8226    0.5988    0.0000 C   0  0  0  0  0  0  0  0  0  0  0  0
   -0.8226    1.4238    0.0000 C   0  0  0  0  0  0  0  0  0  0  0  0
   -1.5371    1.8363    0.0000 O   0  0  0  0  0  0  0  0  0  0  0  0
   -1.5371    2.6613    0.0000 C   0  0  0  0  0  0  0  0  0  0  0  0
   -0.1082    0.1863    0.0000 C   0  0  0  0  0  0  0  0  0  0  0  0
    0.6063    0.5988    0.0000 C   0  0  0  0  0  0  0  0  0  0  0  0
    0.6063    1.4238    0.0000 C   0  0  0  0  0  0  0  0  0  0  0  0
   -0.1082    1.8363    0.0000 C   0  0  0  0  0  0  0  0  0  0  0  0
    1.3208    0.1863    0.0000 C   0  0  0  0  0  0  0  0  0  0  0  0
    2.0352    0.5988    0.0000 N   0  0  0  0  0  0  0  0  0  0  0  0
    2.0352    1.4238    0.0000 C   0  0  0  0  0  0  0  0  0  0  0  0
    1.3208    1.8363    0.0000 C   0  0  0  0  0  0  0  0  0  0  0  0
    1.3208   -0.6387    0.0000 C   0  0  0  0  0  0  0  0  0  0  0  0
    2.0352   -1.0512    0.0000 C   0  0  0  0  0  0  0  0  0  0  0  0
    2.0352   -1.8762    0.0000 C   0  0  0  0  0  0  0  0  0  0  0  0
    2.7497   -2.2887    0.0000 Br  0  0  0  0  0  0  0  0  0  0  0  0
    1.3208   -2.2887    0.0000 C   0  0  0  0  0  0  0  0  0  0  0  0
    0.6063   -1.8762    0.0000 C   0  0  0  0  0  0  0  0  0  0  0  0
    0.6063   -1.0512    0.0000 C   0  0  0  0  0  0  0  0  0  0  0  0
  1  2  1  0
  2  3  2  0
  2  6  1  0
  3  4  1  0
  3  9  1  0
  4  5  1  0
  6  7  2  0
  7  8  1  0
  7 10  1  0
  8  9  2  0
  8 13  1  0
 10 11  2  0
 10 14  1  0
 11 12  1  0
 12 13  1  0
 14 15  2  0
 14 20  1  0
 15 16  1  0
 16 17  1  0
 16 18  2  0
 18 19  1  0
 19 20  2  0
M  END
>  <DRUGBANK_ID>  (1) 
DB08555

>  <COMMON_NAME>  (1) 
1-(3-bromophenyl)-7-chloro-6-methoxy-3,4-dihydroisoquinoline

$$$$
