448
     RDKit          2D

 29 31  0  0  0  0  0  0  0  0999 V2000
   -4.9182   -1.2531    0.0000 F   0  0  0  0  0  0  0  0  0  0  0  0
   -4.2037   -0.8406    0.0000 C   0  0  0  0  0  0  0  0  0  0  0  0
   -3.4892   -1.2531    0.0000 C   0  0  0  0  0  0  0  0  0  0  0  0
   -2.7748   -0.8406    0.0000 C   0  0  0  0  0  0  0  0  0  0  0  0
   -2.0603   -1.2531    0.0000 F   0  0  0  0  0  0  0  0  0  0  0  0
   -4.2037   -0.0156    0.0000 C   0  0  0  0  0  0  0  0  0  0  0  0
   -4.9182    0.3969    0.0000 F   0  0  0  0  0  0  0  0  0  0  0  0
   -3.4892    0.3969    0.0000 C   0  0  0  0  0  0  0  0  0  0  0  0
   -2.7748   -0.0156    0.0000 C   0  0  0  0  0  0  0  0  0  0  0  0
   -2.0603    0.3969    0.0000 C   0  0  0  0  0  0  0  0  0  0  0  0
   -1.3458   -0.0156    0.0000 C   0  0  0  0  0  0  0  0  0  0  0  0
   -1.3458   -0.8406    0.0000 N   0  0  0  0  0  0  0  0  0  0  0  0
   -0.6314    0.3969    0.0000 C   0  0  0  0  0  0  0  0  0  0  0  0
    0.0831   -0.0156    0.0000 C   0  0  0  0  0  0  0  0  0  0  0  0
    0.0831   -0.8406    0.0000 O   0  0  0  0  0  0  0  0  0  0  0  0
    0.7976    0.3969    0.0000 N   0  0  0  0  0  0  0  0  0  0  0  0
    0.7976    1.2219    0.0000 C   0  0  0  0  0  0  0  0  0  0  0  0
    1.5121    1.6344    0.0000 C   0  0  0  0  0  0  0  0  0  0  0  0
    1.5121   -0.0156    0.0000 C   0  0  0  0  0  0  0  0  0  0  0  0
    1.5121   -0.8406    0.0000 C   0  0  0  0  0  0  0  0  0  0  0  0
    2.2265    0.3969    0.0000 C   0  0  0  0  0  0  0  0  0  0  0  0
    2.2265    1.2219    0.0000 N   0  0  0  0  0  0  0  0  0  0  0  0
    3.0112    1.4768    0.0000 N   0  0  0  0  0  0  0  0  0  0  0  0
    3.0112    0.1420    0.0000 N   0  0  0  0  0  0  0  0  0  0  0  0
    3.4961    0.8094    0.0000 C   0  0  0  0  0  0  0  0  0  0  0  0
    4.3211    0.8094    0.0000 C   0  0  0  0  0  0  0  0  0  0  0  0
    5.1461    0.8094    0.0000 F   0  0  0  0  0  0  0  0  0  0  0  0
    4.3211   -0.0156    0.0000 F   0  0  0  0  0  0  0  0  0  0  0  0
    4.3211    1.6344    0.0000 F   0  0  0  0  0  0  0  0  0  0  0  0
  1  2  1  0
  2  6  2  0
  2  3  1  0
  3  4  2  0
  4  9  1  0
  4  5  1  0
  6  7  1  0
  6  8  1  0
  8  9  2  0
  9 10  1  0
 10 11  1  0
 11 12  1  6
 11 13  1  0
 13 14  1  0
 14 15  2  0
 14 16  1  0
 16 17  1  0
 16 19  1  0
 17 18  1  0
 18 22  1  0
 19 21  1  0
 19 20  1  1
 21 22  1  0
 21 24  2  0
 22 23  1  0
 23 25  2  0
 24 25  1  0
 25 26  1  0
 26 28  1  0
 26 29  1  0
 26 27  1  0
M  END
>  <DRUGBANK_ID>  (1) 
DB07081

>  <COMMON_NAME>  (1) 
(2R)-4-[(8R)-8-METHYL-2-(TRIFLUOROMETHYL)-5,6-DIHYDRO[1,2,4]TRIAZOLO[1,5-A]PYRAZIN-7(8H)-YL]-4-OXO-1-(2,4,5-TRIFLUOROPHENYL)BUTAN-2-AMINE

$$$$
