
     RDKit          2D

 36 40  0  0  0  0  0  0  0  0999 V2000
   -1.7342   -2.4625    0.0000 C   0  0  0  0  0  0  0  0  0  0  0  0
   -2.1443   -1.7467    0.0000 C   0  0  0  0  0  0  0  0  0  0  0  0
   -2.5591   -2.4597    0.0000 C   0  0  0  0  0  0  0  0  0  0  0  0
   -2.8559   -0.5078    0.0000 C   0  0  0  0  0  0  0  0  0  0  0  0
   -2.8559   -1.3366    0.0000 C   0  0  0  0  0  0  0  0  0  0  0  0
   -2.1405   -0.0894    0.0000 C   0  0  0  0  0  0  0  0  0  0  0  0
   -1.4254   -0.5078    0.0000 C   0  0  0  0  0  0  0  0  0  0  0  0
   -1.4244   -1.3366    0.0000 C   0  0  0  0  0  0  0  0  0  0  0  0
   -0.7102   -1.7476    0.0000 C   0  0  0  0  0  0  0  0  0  0  0  0
    0.0075   -1.3348    0.0000 C   0  0  0  0  0  0  0  0  0  0  0  0
   -0.7123   -0.0903    0.0000 C   0  0  0  0  0  0  0  0  0  0  0  0
    0.0022   -0.5083    0.0000 C   0  0  0  0  0  0  0  0  0  0  0  0
    0.0099    1.1443    0.0000 C   0  0  0  0  0  0  0  0  0  0  0  0
   -0.7115    0.7351    0.0000 C   0  0  0  0  0  0  0  0  0  0  0  0
    0.7246    0.7262    0.0000 C   0  0  0  0  0  0  0  0  0  0  0  0
    0.7140   -0.0974    0.0000 C   0  0  0  0  0  0  0  0  0  0  0  0
    1.4181   -0.5160    0.0000 C   0  0  0  0  0  0  0  0  0  0  0  0
    2.1372   -0.1157    0.0000 C   0  0  0  0  0  0  0  0  0  0  0  0
    1.4393    1.1312    0.0000 C   0  0  0  0  0  0  0  0  0  0  0  0
    2.1447    0.7070    0.0000 C   0  0  0  0  0  0  0  0  0  0  0  0
    2.8607    1.1036    0.0000 C   0  0  0  0  0  0  0  0  0  0  0  0
    2.8777    1.9260    0.0000 C   0  0  0  0  0  0  0  0  0  0  0  0
    2.1723    2.3502    0.0000 C   0  0  0  0  0  0  0  0  0  0  0  0
    1.4499    1.9521    0.0000 C   0  0  0  0  0  0  0  0  0  0  0  0
   -1.4328    0.3208    0.0000 C   0  0  0  0  0  0  0  0  0  0  0  0
   -3.5748   -0.0956    0.0000 O   0  0  0  0  0  0  0  0  0  0  0  0
   -3.5730   -1.7519    0.0000 O   0  0  0  0  0  0  0  0  0  0  0  0
   -2.1469   -3.1787    0.0000 O   0  0  0  0  0  0  0  0  0  0  0  0
   -0.7102   -2.5764    0.0000 O   0  0  0  0  0  0  0  0  0  0  0  0
   -0.0056    0.3208    0.0000 C   0  0  0  0  0  0  0  0  0  0  0  0
    0.7059   -0.9222    0.0000 C   0  0  0  0  0  0  0  0  0  0  0  0
    2.1879    3.1787    0.0000 C   0  0  0  0  0  0  0  0  0  0  0  0
    0.7391    2.3782    0.0000 C   0  0  0  0  0  0  0  0  0  0  0  0
    2.8570    0.2957    0.0000 C   0  0  0  0  0  0  0  0  0  0  0  0
    2.8570   -0.5328    0.0000 O   0  0  0  0  0  0  0  0  0  0  0  0
    3.5748    0.7099    0.0000 O   0  0  0  0  0  0  0  0  0  0  0  0
  2  1  1  1
  2  3  1  0
  2  8  1  0
  3 28  1  0
  4  5  1  0
  4  6  1  0
  4 26  1  6
  5  2  1  0
  5 27  1  1
  7  6  1  0
  7 11  1  0
  7 25  1  1
  7  8  1  0
  8  9  1  1
  9 10  1  0
  9 29  1  1
 10 12  1  0
 11 12  1  0
 11 14  1  1
 12 16  1  0
 12 30  1  1
 13 14  1  0
 15 13  2  0
 19 15  1  6
 15 16  1  0
 16 17  1  0
 16 31  1  6
 17 18  1  0
 18 20  1  0
 19 20  1  0
 19 24  1  0
 20 34  1  1
 20 21  1  0
 21 22  1  0
 22 23  1  0
 23 24  1  0
 23 32  1  6
 24 33  1  1
 34 35  1  0
 34 36  2  0
M  END
>  <DRUGBANK_ID>  (1) 
DB14037

>  <COMMON_NAME>  (1) 
Madecassic acid

>  <CAS_NUMBER>  (1) 
18449-41-7

>  <UNII>  (1) 
M7O1N24J82

>  <SYNONYMS>  (1) 
6Î²-hydroxyasiatic acid; Brahmic acid

$$$$
