
     RDKit          2D

  9  7  0  0  0  0  0  0  0  0999 V2000
    0.0000    0.2062    0.0000 C   0  0  0  0  0  0  0  0  0  0  0  0
   -0.7145   -0.2062    0.0000 C   0  0  0  0  0  0  0  0  0  0  0  0
    0.7145   -0.2062    0.0000 C   0  0  0  0  0  0  0  0  0  0  0  0
   -1.4290    0.2062    0.0000 C   0  0  0  0  0  0  0  0  0  0  0  0
    0.7145   -1.0313    0.0000 O   0  0  0  0  0  0  0  0  0  0  0  0
    1.4290    0.2062    0.0000 O   0  0  0  0  0  0  0  0  0  0  0  0
   -2.1436   -0.2062    0.0000 O   0  0  0  0  0  0  0  0  0  0  0  0
   -1.4290    1.0313    0.0000 O   0  0  0  0  0  0  0  0  0  0  0  0
    2.1436    0.6188    0.0000 Fe  0  0  0  0  0 15  0  0  0  0  0  0
  2  1  1  0
  3  1  1  0
  4  2  1  0
  5  3  2  0
  6  3  1  0
  7  4  2  0
  8  4  1  0
M  CHG  3   6  -1   8  -1   9   2
M  END
>  <DRUGBANK_ID>  (1) 
DB14489

>  <SECONDARY_ACCESSION_NUMBERS>  (1) 
DBSALT000083

>  <COMMON_NAME>  (1) 
Ferrous succinate

>  <CAS_NUMBER>  (1) 
10030-90-7

>  <UNII>  (1) 
818ZYK7N91

>  <SYNONYMS>  (1) 
Iron succinate

$$$$
