
     RDKit          2D

 11 10  0  0  0  0  0  0  0  0999 V2000
   -1.4292   -0.0067    0.0000 C   0  0  0  0  0  0  0  0  0  0  0  0
   -0.7145   -0.4193    0.0000 O   0  0  0  0  0  0  0  0  0  0  0  0
   -2.1436   -0.4193    0.0000 C   0  0  0  0  0  0  0  0  0  0  0  0
   -1.4292    0.8183    0.0000 C   0  0  0  0  0  0  0  0  0  0  0  0
    0.0000   -0.0175    0.0000 P   0  0  0  0  0  0  0  0  0  0  0  0
    0.7144   -0.4193    0.0000 O   0  0  0  0  0  0  0  0  0  0  0  0
    0.0000    0.8183    0.0000 O   0  0  0  0  0  0  0  0  0  0  0  0
    1.4291   -0.0067    0.0000 C   0  0  0  0  0  0  0  0  0  0  0  0
    1.4291    0.8183    0.0000 C   0  0  0  0  0  0  0  0  0  0  0  0
    2.1436   -0.4193    0.0000 C   0  0  0  0  0  0  0  0  0  0  0  0
   -0.0135   -0.8183    0.0000 C   0  0  0  0  0  0  0  0  0  0  0  0
  1  2  1  0
  1  3  1  0
  1  4  1  0
  2  5  1  0
  5  6  1  0
  5  7  2  0
  5 11  1  0
  6  8  1  0
  8  9  1  0
  8 10  1  0
M  END
>  <DRUGBANK_ID>  (1) 
DB02127

>  <SECONDARY_ACCESSION_NUMBERS>  (1) 
EXPT01207

>  <COMMON_NAME>  (1) 
Diisopropyl methylphosphonate

>  <CAS_NUMBER>  (1) 
1445-75-6

>  <UNII>  (1) 
56V3OG5DC7

>  <SYNONYMS>  (1) 
Diisopropyl methanephosphonate; Diisopropyl methylphosphonate; DIMP; Methylphosphonic acid bis(1-methylethyl)ester

$$$$
