BIE
     RDKit          2D

 19 20  0  0  0  0  0  0  0  0999 V2000
    0.9657    1.1670    0.0000 O   0  0  0  0  0  0  0  0  0  0  0  0
    0.2513    0.7545    0.0000 C   0  0  0  0  0  0  0  0  0  0  0  0
    0.2513   -0.0705    0.0000 C   0  0  0  0  0  0  0  0  0  0  0  0
   -0.4632   -0.4830    0.0000 C   0  0  0  0  0  0  0  0  0  0  0  0
   -0.4632   -1.3080    0.0000 C   0  0  0  0  0  0  0  0  0  0  0  0
    0.9657   -0.4830    0.0000 C   0  0  0  0  0  0  0  0  0  0  0  0
    1.6802   -0.0705    0.0000 N   0  0  0  0  0  0  0  0  0  0  0  0
    1.6802    0.7545    0.0000 O   0  0  0  0  0  0  0  0  0  0  0  0
    2.3947   -0.4830    0.0000 O   0  0  0  0  0  0  0  0  0  0  0  0
    0.9657   -1.3080    0.0000 C   0  0  0  0  0  0  0  0  0  0  0  0
    1.6802   -1.7205    0.0000 O   0  0  0  0  0  0  0  0  0  0  0  0
    0.2513   -1.7205    0.0000 C   0  0  0  0  0  0  0  0  0  0  0  0
    0.2513   -2.5455    0.0000 O   0  0  0  0  0  0  0  0  0  0  0  0
   -0.4632    1.1670    0.0000 C   0  0  0  0  0  0  0  0  0  0  0  0
   -1.1777    0.7545    0.0000 C   0  0  0  0  0  0  0  0  0  0  0  0
   -0.4632    1.9920    0.0000 C   0  0  0  0  0  0  0  0  0  0  0  0
   -1.1777    2.4045    0.0000 C   0  0  0  0  0  0  0  0  0  0  0  0
   -1.8922    1.9920    0.0000 C   0  0  0  0  0  0  0  0  0  0  0  0
   -1.8922    1.1670    0.0000 C   0  0  0  0  0  0  0  0  0  0  0  0
  1  2  2  0
  2  3  1  0
  2 14  1  0
  3  4  2  0
  3  6  1  0
  4  5  1  0
  5 12  2  0
  6  7  1  0
  6 10  2  0
  7  8  2  0
  7  9  1  0
 10 11  1  0
 10 12  1  0
 12 13  1  0
 14 15  2  0
 14 16  1  0
 15 19  1  0
 16 17  2  0
 17 18  1  0
 18 19  2  0
M  CHG  2   7   1   9  -1
M  END
>  <DRUGBANK_ID>  (1) 
DB07462

>  <COMMON_NAME>  (1) 
(3,4-DIHYDROXY-2-NITROPHENYL)(PHENYL)METHANONE

$$$$
