
     RDKit          2D

 15 17  0  0  0  0  0  0  0  0999 V2000
    1.2949    0.4125    0.0000 C   0  0  0  0  0  0  0  0  0  0  0  0
    3.9934    0.8250    0.0000 C   0  0  0  0  0  0  0  0  0  0  0  0
    1.7798    1.0799    0.0000 C   0  0  0  0  0  0  0  0  0  0  0  0
    3.2789    1.2375    0.0000 C   0  0  0  0  0  0  0  0  0  0  0  0
    1.7798   -0.2549    0.0000 C   0  0  0  0  0  0  0  0  0  0  0  0
    3.9934    0.0000    0.0000 C   0  0  0  0  0  0  0  0  0  0  0  0
    4.8866   -2.6420    0.0000 C   0  0  0  0  0  0  0  0  0  0  0  0
    5.2991   -1.9275    0.0000 C   0  0  0  0  0  0  0  0  0  0  0  0
    2.5645    0.8250    0.0000 C   0  0  0  0  0  0  0  0  0  0  0  0
    2.5645    0.0000    0.0000 C   0  0  0  0  0  0  0  0  0  0  0  0
    3.2789   -0.4125    0.0000 C   0  0  0  0  0  0  0  0  0  0  0  0
    3.9934   -1.6500    0.0000 C   0  0  0  0  0  0  0  0  0  0  0  0
    4.0796   -2.4705    0.0000 N   0  0  0  0  0  0  0  0  0  0  0  0
    4.7471   -1.3144    0.0000 N   0  0  0  0  0  0  0  0  0  0  0  0
    3.2789   -1.2375    0.0000 N   0  0  0  0  0  0  0  0  0  0  0  0
  3  1  1  0
  4  2  1  0
  5  1  1  0
  6  2  2  0
  8  7  1  0
  9  3  1  0
  9  4  2  0
 10  5  1  0
 10  9  1  0
 11  6  1  0
 11 10  2  0
 13  7  1  0
 13 12  2  0
 14  8  1  0
 14 12  1  0
 15 11  1  0
 15 12  1  0
M  END
>  <DRUGBANK_ID>  (1) 
DB13827

>  <COMMON_NAME>  (1) 
Indanazoline

>  <CAS_NUMBER>  (1) 
40507-78-6

>  <UNII>  (1) 
L0U38EHD86

>  <SYNONYMS>  (1) 
Indanazoline

$$$$
