
     RDKit          2D

 10  4  0  0  0  0  0  0  0  0999 V2000
   -0.8228    0.0000    0.0000 O   0  0  0  0  0  0  0  0  0  0  0  0
    0.0021    0.0000    0.0000 P   0  0  0  0  0  0  0  0  0  0  0  0
   -0.0020    0.8250    0.0000 O   0  0  0  0  0  0  0  0  0  0  0  0
   -0.0020   -0.8250    0.0000 O   0  0  0  0  0  0  0  0  0  0  0  0
    0.8271    0.0000    0.0000 O   0  0  0  0  0  0  0  0  0  0  0  0
   -2.2437    0.0000    0.0000 K   0  0  0  0  0 15  0  0  0  0  0  0
    2.2437    0.0000    0.0000 O   0  0  0  0  0  0  0  0  0  0  0  0
   -1.7410    1.0714    0.0000 K   0  0  0  0  0 15  0  0  0  0  0  0
    1.5401    1.3169    0.0000 O   0  0  0  0  0  0  0  0  0  0  0  0
    1.8080   -1.2723    0.0000 O   0  0  0  0  0  0  0  0  0  0  0  0
  1  2  1  0
  2  5  1  0
  2  3  2  0
  2  4  1  0
M  CHG  4   1  -1   5  -1   6   1   8   1
M  END
>  <DRUGBANK_ID>  (1) 
DB16534

>  <COMMON_NAME>  (1) 
Potassium phosphate, dibasic, trihydrate

>  <CAS_NUMBER>  (1) 
16788-57-1

>  <UNII>  (1) 
RJK174X3TZ

>  <SYNONYMS>  (1) 
Dipotassium hydrogen phosphate trihydrate; Dipotassium monophosphate trihydrate

$$$$
