TGN
     RDKit          2D

 23 25  0  0  0  0  0  0  0  0999 V2000
    0.3512    0.9886    0.0000 C   0  0  0  0  0  0  0  0  0  0  0  0
   -0.5775    0.9731    0.0000 C   0  0  0  0  0  0  0  0  0  0  0  0
   -1.1382    1.4130    0.0000 N   0  0  0  0  0  0  0  0  0  0  0  0
   -1.5608    2.1215    0.0000 C   0  0  0  0  0  0  0  0  0  0  0  0
   -0.8981    0.2645    0.0000 C   0  0  0  0  0  0  0  0  0  0  0  0
   -1.5184   -0.1124    0.0000 C   0  0  0  0  0  0  0  0  0  0  0  0
   -0.9985    0.5998    0.0000 C   0  0  0  0  0  0  0  0  0  0  0  0
   -0.0268    0.5998    0.0000 C   0  0  0  0  0  0  0  0  0  0  0  0
    0.4894    0.1712    0.0000 C   0  0  0  0  0  0  0  0  0  0  0  0
    0.9012   -0.5436    0.0000 O   0  0  0  0  0  0  0  0  0  0  0  0
    0.4880   -1.2577    0.0000 P   0  0  0  0  0  0  0  0  0  0  0  0
   -0.2261   -0.8445    0.0000 O   0  0  0  0  0  0  0  0  0  0  0  0
    1.2021   -1.6708    0.0000 O   0  0  0  0  0  0  0  0  0  0  0  0
    0.0748   -1.9717    0.0000 C   0  0  0  0  0  0  0  0  0  0  0  0
    0.4866   -2.6866    0.0000 C   0  0  0  0  0  0  0  0  0  0  0  0
   -0.7502   -1.9709    0.0000 C   0  0  0  0  0  0  0  0  0  0  0  0
    0.0734   -3.4006    0.0000 C   0  0  0  0  0  0  0  0  0  0  0  0
   -0.7516   -3.3998    0.0000 C   0  0  0  0  0  0  0  0  0  0  0  0
   -1.1634   -2.6849    0.0000 C   0  0  0  0  0  0  0  0  0  0  0  0
    0.8784    1.6231    0.0000 C   0  0  0  0  0  0  0  0  0  0  0  0
    1.6915    1.4838    0.0000 O   0  0  0  0  0  0  0  0  0  0  0  0
    0.5924    2.3970    0.0000 O   0  0  0  0  0  0  0  0  0  0  0  0
    1.1198    3.0315    0.0000 C   0  0  0  0  0  0  0  0  0  0  0  0
  1  2  1  0
  1  9  1  0
  1 20  1  1
  2  3  1  0
  2  5  1  1
  3  4  1  0
  3  7  1  0
  5  6  1  0
  7  6  1  6
  7  8  1  0
  8  9  1  0
  9 10  1  1
 11 10  1  0
 11 12  2  0
 11 13  1  0
 11 14  1  0
 14 15  2  0
 14 16  1  0
 15 17  1  0
 16 19  2  0
 17 18  2  0
 18 19  1  0
 20 21  2  0
 20 22  1  0
 22 23  1  0
M  END
>  <DRUGBANK_ID>  (1) 
DB08618

>  <COMMON_NAME>  (1) 
3-(HYDROXY-PHENYL-PHOSPHINOYLOXY)-8-METHYL-8-AZA-BICYCLO[3.2.1]OCTANE-2-CARBOXYLIC ACID METHYL ESTER

$$$$
