
     RDKit          2D

 11 11  0  0  0  0  0  0  0  0999 V2000
    0.4221   -0.0108    0.0000 C   0  0  0  0  0  0  0  0  0  0  0  0
    0.0000   -0.7152    0.0000 C   0  0  0  0  0  0  0  0  0  0  0  0
   -0.0144    0.7226    0.0000 C   0  0  0  0  0  0  0  0  0  0  0  0
    1.2594   -0.0108    0.0000 C   0  0  0  0  0  0  0  0  0  0  0  0
   -0.8130   -0.7226    0.0000 C   0  0  0  0  0  0  0  0  0  0  0  0
   -0.8274    0.7201    0.0000 C   0  0  0  0  0  0  0  0  0  0  0  0
    1.6719   -0.7104    0.0000 C   0  0  0  0  0  0  0  0  0  0  0  0
   -1.2375   -0.0108    0.0000 C   0  0  0  0  0  0  0  0  0  0  0  0
    2.4969   -0.7104    0.0000 C   0  0  0  0  0  0  0  0  0  0  0  0
   -2.0771   -0.0108    0.0000 O   0  0  0  0  0  0  0  0  0  0  0  0
   -2.4969   -0.7226    0.0000 C   0  0  0  0  0  0  0  0  0  0  0  0
  1  2  2  0
  1  3  1  0
  1  4  1  0
  2  5  1  0
  3  6  2  0
  4  7  2  0
  5  8  2  0
  6  8  1  0
  7  9  1  0
  8 10  1  0
 10 11  1  0
M  END
>  <DRUGBANK_ID>  (1) 
DB15916

>  <COMMON_NAME>  (1) 
Anethole

>  <CAS_NUMBER>  (1) 
4180-23-8

>  <UNII>  (1) 
Q3JEK5DO4K

>  <SYNONYMS>  (1) 
(E)-Anethole; Anise camphor; Isoestragole; trans-Anethole

$$$$
