
     RDKit          2D

 24 28  0  0  0  0  0  0  0  0999 V2000
   -0.7594    0.8250    0.0000 C   0  0  0  0  0  0  0  0  0  0  0  0
   -1.4739    0.4125    0.0000 C   0  0  0  0  0  0  0  0  0  0  0  0
   -1.4738    2.0625    0.0000 C   0  0  0  0  0  0  0  0  0  0  0  0
   -2.1883    1.6501    0.0000 C   0  0  0  0  0  0  0  0  0  0  0  0
   -2.1883    0.8250    0.0000 C   0  0  0  0  0  0  0  0  0  0  0  0
   -0.7594    1.6500    0.0000 C   0  0  0  0  0  0  0  0  0  0  0  0
   -2.1883   -0.8250    0.0000 C   0  0  0  0  0  0  0  0  0  0  0  0
   -2.1883   -1.6501    0.0000 C   0  0  0  0  0  0  0  0  0  0  0  0
   -1.4738   -2.0625    0.0000 C   0  0  0  0  0  0  0  0  0  0  0  0
   -0.7594   -1.6500    0.0000 C   0  0  0  0  0  0  0  0  0  0  0  0
   -0.0449   -0.4125    0.0000 C   0  0  0  0  0  0  0  0  0  0  0  0
    0.6695   -0.8250    0.0000 N   0  0  0  0  0  0  0  0  0  0  0  0
   -0.7594   -0.8250    0.0000 C   0  0  0  0  0  0  0  0  0  0  0  0
   -0.0449   -1.2374    0.0000 O   0  0  0  0  0  0  0  0  0  0  0  0
   -0.0450    0.4125    0.0000 C   0  0  0  0  0  0  0  0  0  0  0  0
   -1.4739   -0.4125    0.0000 C   0  0  0  0  0  0  0  0  0  0  0  0
   -0.7594    0.0000    0.0000 C   0  0  0  0  0  0  0  0  0  0  0  0
    0.6840    0.0000    0.0000 C   0  0  0  0  0  0  0  0  0  0  0  0
   -2.9028   -2.0626    0.0000 O   0  0  0  0  0  0  0  0  0  0  0  0
   -2.7215    0.0410    0.0000 O   0  0  0  0  0  0  0  0  0  0  0  0
   -2.9028    2.0626    0.0000 O   0  0  0  0  0  0  0  0  0  0  0  0
    1.4945   -0.8250    0.0000 C   0  0  0  0  0  0  0  0  0  0  0  0
    2.0779   -1.4084    0.0000 C   0  0  0  0  0  0  0  0  0  0  0  0
    2.9029   -1.4084    0.0000 C   0  0  0  0  0  0  0  0  0  0  0  0
  1  6  2  0
  2  1  1  0
  3  4  2  0
  3  6  1  0
  4  5  1  0
  4 21  1  0
  5  2  2  0
  5 20  1  0
  7  8  1  0
  7 20  1  6
  8  9  1  0
  8 19  2  0
  9 10  1  0
 10 13  1  0
 11 12  1  0
 11 15  1  1
 12 18  1  0
 12 22  1  0
 13 11  1  0
 13 14  1  1
 15  1  1  0
 16  2  1  0
 16 13  1  0
 16  7  1  0
 16 17  1  1
 17 18  1  0
 22 23  1  0
 23 24  2  0
M  END
>  <DRUGBANK_ID>  (1) 
DB01183

>  <SECONDARY_ACCESSION_NUMBERS>  (1) 
APRD00025

>  <COMMON_NAME>  (1) 
Naloxone

>  <CAS_NUMBER>  (1) 
465-65-6

>  <UNII>  (1) 
36B82AMQ7N

>  <SYNONYMS>  (1) 
(−)-naloxone; 1-N-Allyl-14-hydroxynordihydromorphinone; 17-allyl-3,14-dihydroxy-4,5α-epoxymorphinan-6-one; Nalossone; Naloxona; Naloxone; Naloxonum

$$$$
