
     RDKit          2D

 16 16  0  0  1  0  0  0  0  0999 V2000
    0.0000    2.4750    0.0000 O   0  0  0  0  0  0  0  0  0  0  0  0
    0.7145    2.0625    0.0000 C   0  0  0  0  0  0  0  0  0  0  0  0
    0.7145    1.2375    0.0000 C   0  0  0  0  0  0  0  0  0  0  0  0
    1.4289    0.8250    0.0000 O   0  0  0  0  0  0  0  0  0  0  0  0
    1.4289   -0.0000    0.0000 C   0  0  0  0  0  0  0  0  0  0  0  0
    2.1434   -0.4125    0.0000 O   0  0  0  0  0  0  0  0  0  0  0  0
    2.8579   -0.0000    0.0000 P   0  0  0  0  0  0  0  0  0  0  0  0
    3.5724    0.4125    0.0000 O   0  0  0  0  0  0  0  0  0  0  0  0
    3.2704   -0.7145    0.0000 O   0  0  0  0  0  0  0  0  0  0  0  0
    2.4454    0.7145    0.0000 O   0  0  0  0  0  0  0  0  0  0  0  0
    0.7145   -0.4125    0.0000 C   0  0  0  0  0  0  0  0  0  0  0  0
    0.7145   -1.2375    0.0000 O   0  0  0  0  0  0  0  0  0  0  0  0
    0.0000    0.0000    0.0000 C   0  0  0  0  0  0  0  0  0  0  0  0
   -0.7145   -0.4125    0.0000 O   0  0  0  0  0  0  0  0  0  0  0  0
    0.0000    0.8250    0.0000 C   0  0  0  0  0  0  0  0  0  0  0  0
   -0.7145    1.2375    0.0000 O   0  0  0  0  0  0  0  0  0  0  0  0
  1  2  1  0
  3  2  1  1
  3  4  1  0
  5  4  1  0
  5  6  1  6
  6  7  1  0
  7  8  1  0
  7  9  1  0
  7 10  2  0
 11  5  1  0
 11 12  1  1
 11 13  1  0
 13 14  1  1
 13 15  1  0
 15  3  1  0
 15 16  1  6
M  END
>  <DRUGBANK_ID>  (1) 
DB17678

>  <COMMON_NAME>  (1) 
Alpha-D-mannose 1-phosphate

>  <CAS_NUMBER>  (1) 
15978-07-1

>  <UNII>  (1) 
KT83C2DH0W

>  <SYNONYMS>  (1) 
.alpha.-d-mannopyranose, 1-(dihydrogen phosphate); .alpha.-d-mannose 1-phosphate; Mannopyranose, 1-(dihydrogen phosphate), .alpha.-d-; Mannose 1-phosphate, .alpha.-d-

$$$$
