
     RDKit          2D

 26 28  0  0  1  0  0  0  0  0999 V2000
   -3.1507   -2.7163    0.0000 C   0  0  0  0  0  0  0  0  0  0  0  0
   -3.6239   -2.0405    0.0000 C   0  0  0  0  0  0  0  0  0  0  0  0
   -4.4458   -2.1124    0.0000 C   0  0  0  0  0  0  0  0  0  0  0  0
   -4.7944   -2.8601    0.0000 C   0  0  0  0  0  0  0  0  0  0  0  0
   -5.6163   -2.9320    0.0000 O   0  0  0  0  0  0  0  0  0  0  0  0
   -4.3212   -3.5359    0.0000 O   0  0  0  0  0  0  0  0  0  0  0  0
   -3.2753   -1.2928    0.0000 C   0  0  0  0  0  0  0  0  0  0  0  0
   -2.4534   -1.2209    0.0000 C   0  0  0  0  0  0  0  0  0  0  0  0
   -2.1047   -0.4732    0.0000 C   0  0  0  0  0  0  0  0  0  0  0  0
   -2.1766    0.3487    0.0000 C   0  0  0  0  0  0  0  0  0  0  0  0
   -1.4289    0.0000    0.0000 C   0  0  0  0  0  0  0  0  0  0  0  0
   -0.7970    0.5303    0.0000 C   0  0  0  0  0  0  0  0  0  0  0  0
   -0.7145   -0.4125    0.0000 C   0  0  0  0  0  0  0  0  0  0  0  0
   -0.7145   -1.2375    0.0000 C   0  0  0  0  0  0  0  0  0  0  0  0
    0.0000   -1.6500    0.0000 C   0  0  0  0  0  0  0  0  0  0  0  0
    0.7145   -1.2375    0.0000 C   0  0  0  0  0  0  0  0  0  0  0  0
    0.7145   -0.4125    0.0000 C   0  0  0  0  0  0  0  0  0  0  0  0
    0.0000   -0.0000    0.0000 C   0  0  0  0  0  0  0  0  0  0  0  0
    1.4289   -0.0000    0.0000 C   0  0  0  0  0  0  0  0  0  0  0  0
    2.1434   -0.4125    0.0000 C   0  0  0  0  0  0  0  0  0  0  0  0
    2.1434   -1.2375    0.0000 C   0  0  0  0  0  0  0  0  0  0  0  0
    1.4289   -1.6500    0.0000 C   0  0  0  0  0  0  0  0  0  0  0  0
    1.8163   -2.3784    0.0000 C   0  0  0  0  0  0  0  0  0  0  0  0
    1.0416   -2.3784    0.0000 C   0  0  0  0  0  0  0  0  0  0  0  0
    1.0416    0.7284    0.0000 C   0  0  0  0  0  0  0  0  0  0  0  0
    1.8163    0.7284    0.0000 C   0  0  0  0  0  0  0  0  0  0  0  0
  1  2  1  0
  2  3  2  0
  2  7  1  0
  3  4  1  0
  4  5  2  0
  4  6  1  0
  7  8  2  0
  9  8  1  6
  9 10  1  0
  9 11  1  0
 10 11  1  0
 11 12  1  1
 11 13  1  0
 13 14  2  0
 13 18  1  0
 14 15  1  0
 15 16  2  0
 16 17  1  0
 16 22  1  0
 17 18  2  0
 17 19  1  0
 19 20  1  0
 19 25  1  0
 19 26  1  0
 20 21  1  0
 21 22  1  0
 22 23  1  0
 22 24  1  0
M  END
>  <DRUGBANK_ID>  (1) 
DB11806

>  <COMMON_NAME>  (1) 
VTP-194204

>  <CAS_NUMBER>  (1) 
220619-73-8

>  <UNII>  (1) 
877M97Z38Y

$$$$
