UDT
     RDKit          2D

 14 13  0  0  0  0  0  0  0  0999 V2000
   -2.7046    0.3064    0.0000 C   0  0  0  0  0  0  0  0  0  0  0  0
   -1.9901   -0.1061    0.0000 C   0  0  0  0  0  0  0  0  0  0  0  0
   -1.2756    0.3064    0.0000 C   0  0  0  0  0  0  0  0  0  0  0  0
   -0.5611   -0.1061    0.0000 C   0  0  0  0  0  0  0  0  0  0  0  0
    0.1533    0.3064    0.0000 C   0  0  0  0  0  0  0  0  0  0  0  0
    0.8678   -0.1061    0.0000 C   0  0  0  0  0  0  0  0  0  0  0  0
    1.5823    0.3064    0.0000 C   0  0  0  0  0  0  0  0  0  0  0  0
    2.2967   -0.1061    0.0000 C   0  0  0  0  0  0  0  0  0  0  0  0
    3.0112    0.3064    0.0000 C   0  0  0  0  0  0  0  0  0  0  0  0
    3.7257   -0.1061    0.0000 C   0  0  0  0  0  0  0  0  0  0  0  0
    4.4402    0.3064    0.0000 O   0  0  0  0  0  0  0  0  0  0  0  0
    5.1546   -0.1061    0.0000 C   0  0  0  0  0  0  0  0  0  0  0  0
    5.8691    0.3064    0.0000 O   0  0  0  0  0  0  0  0  0  0  0  0
    5.1546   -0.9311    0.0000 S   0  0  0  0  0  0  0  0  0  0  0  0
  1  2  1  0
  2  3  1  0
  3  4  1  0
  4  5  1  0
  5  6  1  0
  6  7  1  0
  7  8  1  0
  8  9  1  0
  9 10  1  0
 10 11  1  0
 11 12  1  0
 12 14  1  0
 12 13  2  0
M  END
>  <DRUGBANK_ID>  (1) 
DB08684

>  <COMMON_NAME>  (1) 
O-Decyl Hydrogen Thiocarbonate

$$$$
