MN8
     RDKit          2D

 21 23  0  0  0  0  0  0  0  0999 V2000
   -2.4092    0.0725    0.0000 C   0  0  0  0  0  0  0  0  0  0  0  0
   -2.8942    0.7399    0.0000 O   0  0  0  0  0  0  0  0  0  0  0  0
   -2.7448   -0.6812    0.0000 O   0  0  0  0  0  0  0  0  0  0  0  0
   -1.5888    0.1587    0.0000 C   0  0  0  0  0  0  0  0  0  0  0  0
   -1.1763    0.8732    0.0000 C   0  0  0  0  0  0  0  0  0  0  0  0
   -1.5118    1.6269    0.0000 C   0  0  0  0  0  0  0  0  0  0  0  0
   -1.0269    2.2943    0.0000 C   0  0  0  0  0  0  0  0  0  0  0  0
   -2.3323    1.7131    0.0000 C   0  0  0  0  0  0  0  0  0  0  0  0
   -0.3693    0.7017    0.0000 S   0  0  0  0  0  0  0  0  0  0  0  0
   -0.2831   -0.1188    0.0000 C   0  0  0  0  0  0  0  0  0  0  0  0
   -1.0367   -0.4544    0.0000 N   0  0  0  0  0  0  0  0  0  0  0  0
    0.4314   -0.5313    0.0000 C   0  0  0  0  0  0  0  0  0  0  0  0
    0.4314   -1.3563    0.0000 N   0  0  0  0  0  0  0  0  0  0  0  0
    1.1459   -1.7688    0.0000 C   0  0  0  0  0  0  0  0  0  0  0  0
    1.8604   -1.3563    0.0000 C   0  0  0  0  0  0  0  0  0  0  0  0
    1.8604   -0.5313    0.0000 C   0  0  0  0  0  0  0  0  0  0  0  0
    1.1459   -0.1188    0.0000 C   0  0  0  0  0  0  0  0  0  0  0  0
    2.5748   -0.1188    0.0000 C   0  0  0  0  0  0  0  0  0  0  0  0
    3.2893   -0.5313    0.0000 C   0  0  0  0  0  0  0  0  0  0  0  0
    3.2893   -1.3563    0.0000 C   0  0  0  0  0  0  0  0  0  0  0  0
    2.5748   -1.7688    0.0000 C   0  0  0  0  0  0  0  0  0  0  0  0
  1  2  2  0
  1  3  1  0
  1  4  1  0
  4  5  2  0
  4 11  1  0
  5  6  1  0
  5  9  1  0
  6  7  1  0
  6  8  1  0
  9 10  1  0
 10 11  2  0
 12 10  1  6
 12 13  1  0
 12 17  1  0
 13 14  1  0
 14 15  1  0
 15 16  2  0
 15 21  1  0
 16 17  1  0
 16 18  1  0
 18 19  2  0
 19 20  1  0
 20 21  2  0
M  END
>  <DRUGBANK_ID>  (1) 
DB08192

>  <COMMON_NAME>  (1) 
2-(4-CARCOXY-5-ISOPROPYLTHIAZOLYL)BENZOPIPERIDINE

$$$$
