
     RDKit          2D

 21 22  0  0  0  0  0  0  0  0999 V2000
   -0.6901    0.5203    0.0000 N   0  0  0  0  0  0  0  0  0  0  0  0
    0.0243    0.9328    0.0000 C   0  0  0  0  0  0  0  0  0  0  0  0
   -1.4046    0.9328    0.0000 C   0  0  0  0  0  0  0  0  0  0  0  0
    0.0243    1.7578    0.0000 N   0  0  0  0  0  0  0  0  0  0  0  0
   -0.6901    2.1703    0.0000 C   0  0  0  0  0  0  0  0  0  0  0  0
   -1.4046    1.7578    0.0000 C   0  0  0  0  0  0  0  0  0  0  0  0
   -0.6901   -0.3046    0.0000 C   0  0  0  0  0  0  0  0  0  0  0  0
   -1.3575   -0.7895    0.0000 O   0  0  0  0  0  0  0  0  0  0  0  0
   -0.0227   -0.7895    0.0000 C   0  0  0  0  0  0  0  0  0  0  0  0
   -1.1026   -1.5741    0.0000 C   0  0  0  0  0  0  0  0  0  0  0  0
   -0.2776   -1.5741    0.0000 C   0  0  0  0  0  0  0  0  0  0  0  0
    0.7619   -0.5346    0.0000 O   0  0  0  0  0  0  0  0  0  0  0  0
    0.7387    0.5203    0.0000 O   0  0  0  0  0  0  0  0  0  0  0  0
    0.2072   -2.2416    0.0000 O   0  0  0  0  0  0  0  0  0  0  0  0
   -0.6901    2.9953    0.0000 N   0  0  0  0  0  0  0  0  0  0  0  0
   -1.5875   -2.2416    0.0000 C   0  0  0  0  0  0  0  0  0  0  0  0
   -1.2520   -2.9953    0.0000 O   0  0  0  0  0  0  0  0  0  0  0  0
    1.0041   -2.0281    0.0000 P   0  0  0  0  0  0  0  0  0  0  0  0
    1.5875   -2.6114    0.0000 O   0  0  0  0  0  0  0  0  0  0  0  0
    1.2176   -1.2312    0.0000 O   0  0  0  0  0  0  0  0  0  0  0  0
    1.0041   -2.8531    0.0000 O   0  0  0  0  0  0  0  0  0  0  0  0
  1  2  1  0
  1  3  1  0
  2 13  2  0
  2  4  1  0
  3  6  2  0
  4  5  2  0
  5 15  1  0
  6  5  1  0
  7  1  1  1
  7  8  1  0
  7  9  1  0
  8 10  1  0
  9 11  1  0
  9 12  1  6
 10 16  1  1
 10 11  1  0
 11 14  1  6
 14 18  1  0
 16 17  1  0
 18 19  1  0
 18 20  2  0
 18 21  1  0
M  END
>  <DRUGBANK_ID>  (1) 
DB01961

>  <SECONDARY_ACCESSION_NUMBERS>  (1) 
EXPT00809

>  <COMMON_NAME>  (1) 
Cytidine 3'-monophosphate

>  <CAS_NUMBER>  (1) 
84-52-6

>  <UNII>  (1) 
6DZL5I6D4D

>  <SYNONYMS>  (1) 
3'-CMP; 3'-Cytidylic acid; Cytidine 3'-phosphate; Cytidine-3'-monophosphate

$$$$
