
     RDKit          2D

 13 13  0  0  0  0  0  0  0  0999 V2000
   -1.8096    0.4021    0.0000 C   0  0  0  0  0  0  0  0  0  0  0  0
   -1.0892    0.0000    0.0000 C   0  0  0  0  0  0  0  0  0  0  0  0
   -0.3686    0.4021    0.0000 C   0  0  0  0  0  0  0  0  0  0  0  0
   -1.8096    1.2399    0.0000 O   0  0  0  0  0  0  0  0  0  0  0  0
   -2.5133    0.0000    0.0000 O   0  0  0  0  0  0  0  0  0  0  0  0
    0.3518    0.0000    0.0000 C   0  0  0  0  0  0  0  0  0  0  0  0
    0.3518   -0.8210    0.0000 C   0  0  0  0  0  0  0  0  0  0  0  0
    1.0723    0.4189    0.0000 C   0  0  0  0  0  0  0  0  0  0  0  0
    1.0723   -1.2399    0.0000 C   0  0  0  0  0  0  0  0  0  0  0  0
    1.7760    0.0000    0.0000 C   0  0  0  0  0  0  0  0  0  0  0  0
    1.7928   -0.8210    0.0000 C   0  0  0  0  0  0  0  0  0  0  0  0
    2.5133   -1.2399    0.0000 O   0  0  0  0  0  0  0  0  0  0  0  0
   -1.0892   -0.8377    0.0000 O   0  0  0  0  0  0  0  0  0  0  0  0
  2  1  1  0
  3  2  1  0
  4  1  2  0
  5  1  1  0
  6  3  1  0
  7  6  2  0
  8  6  1  0
  9  7  1  0
 10  8  2  0
 11  9  2  0
 11 10  1  0
 12 11  1  0
 13  2  2  0
M  END
>  <DRUGBANK_ID>  (1) 
DB07718

>  <COMMON_NAME>  (1) 
4-Hydroxyphenylpyruvic acid

>  <CAS_NUMBER>  (1) 
156-39-8

>  <UNII>  (1) 
0YP1694WNQ

>  <SYNONYMS>  (1) 
(4-hydroxyphenyl)pyruvic acid; (p-hydroxyphenyl)pyruvic acid; p-Hydroxyphenylpyruvic acid

$$$$
