GC7
     RDKit          2D

 12 11  0  0  0  0  0  0  0  0999 V2000
   -3.6934    0.3043    0.0000 N   0  0  0  0  0  0  0  0  0  0  0  0
   -2.9788   -0.1082    0.0000 C   0  0  0  0  0  0  0  0  0  0  0  0
   -2.2643    0.3043    0.0000 C   0  0  0  0  0  0  0  0  0  0  0  0
   -1.5497   -0.1082    0.0000 C   0  0  0  0  0  0  0  0  0  0  0  0
   -0.8353    0.3043    0.0000 C   0  0  0  0  0  0  0  0  0  0  0  0
   -0.1207   -0.1082    0.0000 C   0  0  0  0  0  0  0  0  0  0  0  0
    0.5938    0.3043    0.0000 C   0  0  0  0  0  0  0  0  0  0  0  0
    1.3083   -0.1082    0.0000 C   0  0  0  0  0  0  0  0  0  0  0  0
    2.0229    0.3043    0.0000 N   0  0  0  0  0  0  0  0  0  0  0  0
    2.7374   -0.1082    0.0000 C   0  0  0  0  0  0  0  0  0  0  0  0
    3.4520    0.3043    0.0000 N   0  0  0  0  0  0  0  0  0  0  0  0
    2.7374   -0.9333    0.0000 N   0  0  0  0  0  0  0  0  0  0  0  0
  1  2  1  0
  2  3  1  0
  3  4  1  0
  4  5  1  0
  5  6  1  0
  6  7  1  0
  7  8  1  0
  8  9  1  0
  9 10  1  0
 10 11  1  0
 10 12  1  0
M  END
>  <DRUGBANK_ID>  (1) 
DB03639

>  <SECONDARY_ACCESSION_NUMBERS>  (1) 
EXPT01555

>  <COMMON_NAME>  (1) 
1-Guanidinium-7-Aminoheptane

$$$$
