
     RDKit          2D

 27 28  0  0  1  0  0  0  0  0999 V2000
    0.3020   -5.8559    0.0000 C   0  0  0  0  0  0  0  0  0  0  0  0
    0.7145   -5.1414    0.0000 C   0  0  0  0  0  0  0  0  0  0  0  0
    1.5395   -5.1414    0.0000 C   0  0  0  0  0  0  0  0  0  0  0  0
    1.9520   -4.4270    0.0000 C   0  0  0  0  0  0  0  0  0  0  0  0
    1.5395   -3.7125    0.0000 C   0  0  0  0  0  0  0  0  0  0  0  0
    0.7145   -3.7125    0.0000 C   0  0  0  0  0  0  0  0  0  0  0  0
    0.3020   -2.9980    0.0000 C   0  0  0  0  0  0  0  0  0  0  0  0
    2.7770   -4.4270    0.0000 C   0  0  0  0  0  0  0  0  0  0  0  0
    3.1895   -5.1414    0.0000 O   0  0  0  0  0  0  0  0  0  0  0  0
    3.1895   -3.7125    0.0000 N   0  0  0  0  0  0  0  0  0  0  0  0
    4.0145   -3.7125    0.0000 C   0  0  0  0  0  0  0  0  0  0  0  0
    4.4270   -2.9980    0.0000 C   0  0  0  0  0  0  0  0  0  0  0  0
    5.2520   -2.9980    0.0000 C   0  0  0  0  0  0  0  0  0  0  0  0
    5.6645   -3.7125    0.0000 N   0  0  0  0  0  0  0  0  0  0  0  0
    5.2520   -4.4270    0.0000 C   0  0  0  0  0  0  0  0  0  0  0  0
    5.6645   -5.1414    0.0000 O   0  0  0  0  0  0  0  0  0  0  0  0
    4.4270   -4.4270    0.0000 N   0  0  0  0  0  0  0  0  0  0  0  0
    6.4895   -3.7125    0.0000 C   0  0  0  0  0  0  0  0  0  0  0  0
    6.9744   -3.0451    0.0000 C   0  0  0  0  0  0  0  0  0  0  0  0
    7.7590   -3.3000    0.0000 C   0  0  0  0  0  0  0  0  0  0  0  0
    7.7590   -4.1250    0.0000 C   0  0  0  0  0  0  0  0  0  0  0  0
    6.9744   -4.3799    0.0000 O   0  0  0  0  0  0  0  0  0  0  0  0
    8.4265   -4.6099    0.0000 C   0  0  0  0  0  0  0  0  0  0  0  0
    9.1801   -4.2744    0.0000 O   0  0  0  0  0  0  0  0  0  0  0  0
    8.4265   -2.8151    0.0000 O   0  0  0  0  0  0  0  0  0  0  0  0
    6.3671   -2.4866    0.0000 F   0  0  0  0  0  0  0  0  0  0  0  0
    7.1375   -2.2363    0.0000 F   0  0  0  0  0  0  0  0  0  0  0  0
  1  2  1  0
  2  3  1  0
  3  4  1  0
  4  5  1  0
  4  8  1  0
  5  6  1  0
  6  7  1  0
  8  9  2  0
  8 10  1  0
 10 11  1  0
 11 12  1  0
 11 17  2  0
 12 13  2  0
 13 14  1  0
 14 15  1  0
 15 16  2  0
 15 17  1  0
 18 14  1  1
 18 19  1  0
 18 22  1  0
 19 20  1  0
 19 26  1  0
 19 27  1  0
 20 21  1  0
 20 25  1  6
 21 22  1  0
 21 23  1  1
 23 24  1  0
M  END
>  <DRUGBANK_ID>  (1) 
DB12906

>  <COMMON_NAME>  (1) 
LY-2334737

>  <CAS_NUMBER>  (1) 
892128-60-8

>  <UNII>  (1) 
YLR364XYSA

$$$$
