
     RDKit          2D

 34 37  0  0  1  0  0  0  0  0999 V2000
    8.2455    3.1613    0.0000 N   0  0  0  0  0  0  0  0  0  0  0  0
    7.4250    3.2475    0.0000 S   0  0  0  0  0  0  0  0  0  0  0  0
    7.5112    4.0680    0.0000 O   0  0  0  0  0  0  0  0  0  0  0  0
    7.3388    2.4270    0.0000 O   0  0  0  0  0  0  0  0  0  0  0  0
    6.6045    3.3337    0.0000 O   0  0  0  0  0  0  0  0  0  0  0  0
    6.1196    2.6663    0.0000 C   0  0  0  0  0  0  0  0  0  0  0  0
    5.2991    2.7525    0.0000 C   0  0  0  0  0  0  0  0  0  0  0  0
    4.7471    2.1394    0.0000 C   0  0  0  0  0  0  0  0  0  0  0  0
    3.9934    2.4750    0.0000 C   0  0  0  0  0  0  0  0  0  0  0  0
    3.2789    2.0625    0.0000 N   0  0  0  0  0  0  0  0  0  0  0  0
    3.2789    1.2375    0.0000 C   0  0  0  0  0  0  0  0  0  0  0  0
    3.9934    0.8250    0.0000 C   0  0  0  0  0  0  0  0  0  0  0  0
    3.9934    0.0000    0.0000 C   0  0  0  0  0  0  0  0  0  0  0  0
    3.2789   -0.4125    0.0000 N   0  0  0  0  0  0  0  0  0  0  0  0
    2.5645    0.0000    0.0000 C   0  0  0  0  0  0  0  0  0  0  0  0
    1.7798   -0.2549    0.0000 C   0  0  0  0  0  0  0  0  0  0  0  0
    1.2949    0.4125    0.0000 C   0  0  0  0  0  0  0  0  0  0  0  0
    1.7798    1.0799    0.0000 N   0  0  0  0  0  0  0  0  0  0  0  0
    2.5645    0.8250    0.0000 N   0  0  0  0  0  0  0  0  0  0  0  0
    0.4699    0.4125    0.0000 C   0  0  0  0  0  0  0  0  0  0  0  0
    0.0574   -0.3020    0.0000 C   0  0  0  0  0  0  0  0  0  0  0  0
   -0.7676   -0.3020    0.0000 C   0  0  0  0  0  0  0  0  0  0  0  0
   -1.1801    0.4125    0.0000 C   0  0  0  0  0  0  0  0  0  0  0  0
   -0.7676    1.1270    0.0000 C   0  0  0  0  0  0  0  0  0  0  0  0
   -1.1801    1.8414    0.0000 S   0  0  0  0  0  0  0  0  0  0  0  0
   -2.0051    1.8414    0.0000 C   0  0  0  0  0  0  0  0  0  0  0  0
   -2.8301    1.8414    0.0000 F   0  0  0  0  0  0  0  0  0  0  0  0
   -2.0051    2.6664    0.0000 F   0  0  0  0  0  0  0  0  0  0  0  0
   -2.0051    1.0164    0.0000 F   0  0  0  0  0  0  0  0  0  0  0  0
    0.0574    1.1270    0.0000 C   0  0  0  0  0  0  0  0  0  0  0  0
    4.0796    3.2955    0.0000 C   0  0  0  0  0  0  0  0  0  0  0  0
    3.4665    3.8475    0.0000 O   0  0  0  0  0  0  0  0  0  0  0  0
    4.8866    3.4670    0.0000 C   0  0  0  0  0  0  0  0  0  0  0  0
    5.2222    4.2207    0.0000 O   0  0  0  0  0  0  0  0  0  0  0  0
  1  2  1  0
  2  3  2  0
  2  4  2  0
  2  5  1  0
  5  6  1  0
  7  6  1  1
  7  8  1  0
  9  8  1  0
  9 10  1  1
 10 11  1  0
 11 12  2  0
 11 19  1  0
 12 13  1  0
 13 14  2  0
 14 15  1  0
 15 16  2  0
 15 19  1  0
 16 17  1  0
 17 18  2  0
 17 20  1  0
 18 19  1  0
 20 21  2  0
 20 30  1  0
 21 22  1  0
 22 23  2  0
 23 24  1  0
 24 25  1  0
 24 30  2  0
 25 26  1  0
 26 27  1  0
 26 28  1  0
 26 29  1  0
 31  9  1  0
 31 32  1  6
 31 33  1  0
 33  7  1  0
 33 34  1  6
M  END
>  <DRUGBANK_ID>  (1) 
DB15013

>  <COMMON_NAME>  (1) 
TAK-243

>  <CAS_NUMBER>  (1) 
1450833-55-2

>  <UNII>  (1) 
V9GGV0YCDI

$$$$
