
     RDKit          2D

 30 33  0  0  0  0  0  0  0  0999 V2000
    0.9911    1.6769    0.0000 S   0  0  0  0  0  0  0  0  0  0  0  0
   -1.1000    0.2212    0.0000 O   0  0  0  0  0  0  0  0  0  0  0  0
   -2.1364    2.0876    0.0000 O   0  0  0  0  0  0  0  0  0  0  0  0
   -3.1940    0.6374    0.0000 O   0  0  0  0  0  0  0  0  0  0  0  0
    0.3227    1.1931    0.0000 O   0  0  0  0  0  0  0  0  0  0  0  0
    2.4972    1.0032    0.0000 O   0  0  0  0  0  0  0  0  0  0  0  0
    0.5072    2.3452    0.0000 O   0  0  0  0  0  0  0  0  0  0  0  0
    1.4747    1.0086    0.0000 O   0  0  0  0  0  0  0  0  0  0  0  0
   -2.1414   -0.8165    0.0000 N   0  0  0  0  0  0  0  0  0  0  0  0
    3.8649    2.0513    0.0000 N   0  0  0  0  0  0  0  0  0  0  0  0
    1.6593    2.1607    0.0000 N   0  0  0  0  0  0  0  0  0  0  0  0
   -2.1414   -2.1444    0.0000 N   0  0  0  0  0  0  0  0  0  0  0  0
   -3.6365   -0.6554    0.0000 N   0  0  0  0  0  0  0  0  0  0  0  0
   -4.3510   -1.8929    0.0000 N   0  0  0  0  0  0  0  0  0  0  0  0
   -3.6365   -3.1304    0.0000 N   0  0  0  0  0  0  0  0  0  0  0  0
   -1.8828    1.3025    0.0000 C   0  0  0  0  0  0  0  0  0  0  0  0
   -2.3689    0.6359    0.0000 C   0  0  0  0  0  0  0  0  0  0  0  0
   -1.0986    1.0462    0.0000 C   0  0  0  0  0  0  0  0  0  0  0  0
   -1.8852   -0.0323    0.0000 C   0  0  0  0  0  0  0  0  0  0  0  0
   -0.4302    1.5300    0.0000 C   0  0  0  0  0  0  0  0  0  0  0  0
    3.0808    2.3076    0.0000 C   0  0  0  0  0  0  0  0  0  0  0  0
    3.0822    3.1327    0.0000 C   0  0  0  0  0  0  0  0  0  0  0  0
    3.8672    3.3862    0.0000 C   0  0  0  0  0  0  0  0  0  0  0  0
   -2.9220   -1.0679    0.0000 C   0  0  0  0  0  0  0  0  0  0  0  0
    4.3510    2.7179    0.0000 C   0  0  0  0  0  0  0  0  0  0  0  0
   -1.6598   -1.4803    0.0000 C   0  0  0  0  0  0  0  0  0  0  0  0
    2.4124    1.8239    0.0000 C   0  0  0  0  0  0  0  0  0  0  0  0
   -2.9220   -1.8929    0.0000 C   0  0  0  0  0  0  0  0  0  0  0  0
   -3.6365   -2.3054    0.0000 C   0  0  0  0  0  0  0  0  0  0  0  0
   -4.3510   -1.0679    0.0000 C   0  0  0  0  0  0  0  0  0  0  0  0
  1  5  1  0
  1  7  2  0
  1  8  2  0
  1 11  1  0
  2 18  1  0
  2 19  1  0
  5 20  1  0
  6 27  2  0
  9 24  1  0
  9 26  1  0
 10 21  1  0
 10 25  1  0
 11 27  1  0
 12 26  2  0
 12 28  1  0
 13 24  1  0
 13 30  2  0
 14 29  2  0
 14 30  1  0
 15 29  1  0
 16  3  1  6
 16 17  1  0
 16 18  1  0
 17  4  1  6
 17 19  1  0
 18 20  1  1
 19  9  1  1
 21 22  1  0
 21 27  1  6
 22 23  1  0
 23 25  1  0
 24 28  2  0
 28 29  1  0
M  END
>  <DRUGBANK_ID>  (1) 
DB02510

>  <SECONDARY_ACCESSION_NUMBERS>  (1) 
EXPT02481

>  <COMMON_NAME>  (1) 
5'-O-(L-Prolylsulfamoyl)adenosine

$$$$
