43A
     RDKit          2D

 25 28  0  0  0  0  0  0  0  0999 V2000
    3.0691   -1.2661    0.0000 C   0  0  0  0  0  0  0  0  0  0  0  0
    2.3546   -1.6786    0.0000 C   0  0  0  0  0  0  0  0  0  0  0  0
    1.6401   -1.2661    0.0000 C   0  0  0  0  0  0  0  0  0  0  0  0
    1.6401   -0.4411    0.0000 C   0  0  0  0  0  0  0  0  0  0  0  0
    2.3546   -0.0286    0.0000 C   0  0  0  0  0  0  0  0  0  0  0  0
    3.0691   -0.4411    0.0000 C   0  0  0  0  0  0  0  0  0  0  0  0
    3.7835   -1.6786    0.0000 O   0  0  0  0  0  0  0  0  0  0  0  0
    2.3546   -2.5036    0.0000 O   0  0  0  0  0  0  0  0  0  0  0  0
    1.6401   -2.9161    0.0000 C   0  0  0  0  0  0  0  0  0  0  0  0
    0.9256   -0.0286    0.0000 C   0  0  0  0  0  0  0  0  0  0  0  0
    0.2112   -0.4411    0.0000 C   0  0  0  0  0  0  0  0  0  0  0  0
   -0.5033   -0.0286    0.0000 C   0  0  0  0  0  0  0  0  0  0  0  0
   -0.5033    0.7964    0.0000 C   0  0  0  0  0  0  0  0  0  0  0  0
    0.2112    1.2089    0.0000 C   0  0  0  0  0  0  0  0  0  0  0  0
    0.9256    0.7964    0.0000 C   0  0  0  0  0  0  0  0  0  0  0  0
   -1.2879   -0.2835    0.0000 N   0  0  0  0  0  0  0  0  0  0  0  0
   -1.7728    0.3839    0.0000 C   0  0  0  0  0  0  0  0  0  0  0  0
   -1.2879    1.0514    0.0000 C   0  0  0  0  0  0  0  0  0  0  0  0
   -2.5978    0.3839    0.0000 O   0  0  0  0  0  0  0  0  0  0  0  0
   -1.5429    1.8360    0.0000 C   0  0  0  0  0  0  0  0  0  0  0  0
   -2.3498    2.0075    0.0000 C   0  0  0  0  0  0  0  0  0  0  0  0
   -2.9629    1.4555    0.0000 N   0  0  0  0  0  0  0  0  0  0  0  0
   -3.6774    1.8680    0.0000 C   0  0  0  0  0  0  0  0  0  0  0  0
   -3.5059    2.6750    0.0000 C   0  0  0  0  0  0  0  0  0  0  0  0
   -2.6854    2.7612    0.0000 C   0  0  0  0  0  0  0  0  0  0  0  0
  1  2  2  0
  1  6  1  0
  1  7  1  0
  2  3  1  0
  2  8  1  0
  3  4  2  0
  4  5  1  0
  4 10  1  0
  5  6  2  0
  8  9  1  0
 10 11  2  0
 10 15  1  0
 11 12  1  0
 12 13  2  0
 12 16  1  0
 13 14  1  0
 13 18  1  0
 14 15  2  0
 16 17  1  0
 17 18  1  0
 17 19  2  0
 18 20  2  0
 20 21  1  0
 21 22  1  0
 21 25  2  0
 22 23  1  0
 23 24  2  0
 24 25  1  0
M  END
>  <DRUGBANK_ID>  (1) 
DB07078

>  <COMMON_NAME>  (1) 
(3Z)-6-(4-HYDROXY-3-METHOXYPHENYL)-3-(1H-PYRROL-2-YLMETHYLENE)-1,3-DIHYDRO-2H-INDOL-2-ONE

$$$$
