
     RDKit          2D

 20 19  0  0  0  0  0  0  0  0999 V2000
   -5.7332   -0.1570    0.0000 C   0  0  0  0  0  0  0  0  0  0  0  0
   -5.7109    0.6597    0.0000 O   0  0  0  0  0  0  0  0  0  0  0  0
    0.0092   -0.1981    0.0000 C   0  0  0  0  0  0  0  0  0  0  0  0
    0.7190   -0.6186    0.0000 C   0  0  0  0  0  0  0  0  0  0  0  0
   -6.4617   -0.5667    0.0000 N   0  0  0  0  0  0  0  0  0  0  0  0
   -5.0243   -0.5740    0.0000 C   0  0  0  0  0  0  0  0  0  0  0  0
   -0.7183   -0.6112    0.0000 C   0  0  0  0  0  0  0  0  0  0  0  0
    1.4467   -0.2125    0.0000 C   0  0  0  0  0  0  0  0  0  0  0  0
   -4.2956   -0.1712    0.0000 C   0  0  0  0  0  0  0  0  0  0  0  0
   -1.4239   -0.1935    0.0000 C   0  0  0  0  0  0  0  0  0  0  0  0
    2.1524   -0.6303    0.0000 C   0  0  0  0  0  0  0  0  0  0  0  0
    5.7526   -0.2428    0.0000 C   0  0  0  0  0  0  0  0  0  0  0  0
    5.0241   -0.6454    0.0000 C   0  0  0  0  0  0  0  0  0  0  0  0
   -2.1525   -0.5961    0.0000 C   0  0  0  0  0  0  0  0  0  0  0  0
    2.8809   -0.2206    0.0000 C   0  0  0  0  0  0  0  0  0  0  0  0
    3.5900   -0.6374    0.0000 C   0  0  0  0  0  0  0  0  0  0  0  0
    4.3186   -0.2346    0.0000 C   0  0  0  0  0  0  0  0  0  0  0  0
   -3.5900   -0.5892    0.0000 C   0  0  0  0  0  0  0  0  0  0  0  0
   -2.8615   -0.1794    0.0000 C   0  0  0  0  0  0  0  0  0  0  0  0
    6.4617   -0.6597    0.0000 C   0  0  0  0  0  0  0  0  0  0  0  0
  2  1  2  0
  3  7  1  0
  4  3  2  0
  5  1  1  0
  6  1  1  0
  7 10  1  0
  8  4  1  0
  9  6  1  0
 10 14  1  0
 11  8  1  0
 12 13  1  0
 13 17  1  0
 14 19  1  0
 15 11  1  0
 16 15  1  0
 17 16  1  0
 18  9  1  0
 19 18  1  0
 20 12  1  0
M  END
>  <DRUGBANK_ID>  (1) 
DB03784

>  <SECONDARY_ACCESSION_NUMBERS>  (1) 
EXPT01336

>  <COMMON_NAME>  (1) 
Elaidamide

>  <CAS_NUMBER>  (1) 
4303-70-2

>  <UNII>  (1) 
GOU8K597IT

$$$$
