
     RDKit          2D

 19 20  0  0  0  0  0  0  0  0999 V2000
    0.5479   -0.8746    0.0000 S   0  0  0  0  0  0  0  0  0  0  0  0
   -1.5775   -1.0740    0.0000 O   0  0  0  0  0  0  0  0  0  0  0  0
    0.8158    0.5709    0.0000 N   0  0  0  0  0  0  0  0  0  0  0  0
   -0.5111   -0.0619    0.0000 N   0  0  0  0  0  0  0  0  0  0  0  0
    0.5002    1.3331    0.0000 C   0  0  0  0  0  0  0  0  0  0  0  0
   -0.3248    1.3331    0.0000 C   0  0  0  0  0  0  0  0  0  0  0  0
    1.0835    1.9164    0.0000 C   0  0  0  0  0  0  0  0  0  0  0  0
   -0.9082    1.9164    0.0000 C   0  0  0  0  0  0  0  0  0  0  0  0
    1.0835    2.7415    0.0000 C   0  0  0  0  0  0  0  0  0  0  0  0
   -0.9082    2.7415    0.0000 C   0  0  0  0  0  0  0  0  0  0  0  0
    0.5002    3.3248    0.0000 C   0  0  0  0  0  0  0  0  0  0  0  0
   -0.3248    3.3248    0.0000 C   0  0  0  0  0  0  0  0  0  0  0  0
   -0.1319   -1.3418    0.0000 C   0  0  0  0  0  0  0  0  0  0  0  0
    0.3136   -0.0835    0.0000 C   0  0  0  0  0  0  0  0  0  0  0  0
   -0.6342   -1.9964    0.0000 C   0  0  0  0  0  0  0  0  0  0  0  0
   -0.7865   -0.8397    0.0000 C   0  0  0  0  0  0  0  0  0  0  0  0
    0.3353   -2.0218    0.0000 C   0  0  0  0  0  0  0  0  0  0  0  0
   -0.3184   -2.7587    0.0000 C   0  0  0  0  0  0  0  0  0  0  0  0
   -0.8207   -3.4131    0.0000 C   0  0  0  0  0  0  0  0  0  0  0  0
  1 13  1  0
  1 14  1  0
  2 16  2  0
  3  5  1  0
  3 14  1  0
  4 14  2  0
  4 16  1  0
  5  6  1  0
  5  7  1  0
  6  8  1  0
  7  9  1  0
  8 10  1  0
  9 11  1  0
 10 12  1  0
 11 12  1  0
 13 15  1  0
 13 16  1  0
 13 17  1  6
 15 18  1  0
 18 19  1  0
M  END
>  <DRUGBANK_ID>  (1) 
DB07866

>  <COMMON_NAME>  (1) 
(5S)-2-(Cyclooctylamino)-5-methyl-5-propyl-1,3-thiazol-4(5H)-one

$$$$
