446202
     RDKit          2D

 37 41  0  0  1  0  0  0  0  0999 V2000
    6.9923    1.3623    0.0000 P   0  0  0  0  0  0  0  0  0  0  0  0
    4.9011   -0.0934    0.0000 O   0  0  0  0  0  0  0  0  0  0  0  0
    2.8073    0.3228    0.0000 O   0  0  0  0  0  0  0  0  0  0  0  0
    3.8648    1.7730    0.0000 O   0  0  0  0  0  0  0  0  0  0  0  0
    6.3240    0.8786    0.0000 O   0  0  0  0  0  0  0  0  0  0  0  0
    7.6606    1.8461    0.0000 O   0  0  0  0  0  0  0  0  0  0  0  0
    7.4761    0.6940    0.0000 O   0  0  0  0  0  0  0  0  0  0  0  0
    6.5085    2.0307    0.0000 O   0  0  0  0  0  0  0  0  0  0  0  0
    8.4985    0.6886    0.0000 O   0  0  0  0  0  0  0  0  0  0  0  0
    3.8598   -1.1312    0.0000 N   0  0  0  0  0  0  0  0  0  0  0  0
    3.8598   -2.4591    0.0000 N   0  0  0  0  0  0  0  0  0  0  0  0
    2.3646   -0.9701    0.0000 N   0  0  0  0  0  0  0  0  0  0  0  0
    1.6501   -2.2076    0.0000 N   0  0  0  0  0  0  0  0  0  0  0  0
    2.3646   -3.4452    0.0000 N   0  0  0  0  0  0  0  0  0  0  0  0
   11.2840    3.2142    0.0000 N   0  0  0  0  0  0  0  0  0  0  0  0
    8.9973    2.8137    0.0000 N   0  0  0  0  0  0  0  0  0  0  0  0
    3.6323    0.3214    0.0000 C   0  0  0  0  0  0  0  0  0  0  0  0
    4.1183    0.9879    0.0000 C   0  0  0  0  0  0  0  0  0  0  0  0
    4.1160   -0.3470    0.0000 C   0  0  0  0  0  0  0  0  0  0  0  0
    4.9025    0.7316    0.0000 C   0  0  0  0  0  0  0  0  0  0  0  0
    5.5709    1.2154    0.0000 C   0  0  0  0  0  0  0  0  0  0  0  0
    3.0790   -1.3826    0.0000 C   0  0  0  0  0  0  0  0  0  0  0  0
    4.3413   -1.7951    0.0000 C   0  0  0  0  0  0  0  0  0  0  0  0
    3.0790   -2.2076    0.0000 C   0  0  0  0  0  0  0  0  0  0  0  0
    2.3646   -2.6201    0.0000 C   0  0  0  0  0  0  0  0  0  0  0  0
    9.8352    1.6562    0.0000 C   0  0  0  0  0  0  0  0  0  0  0  0
    9.0821    1.9930    0.0000 C   0  0  0  0  0  0  0  0  0  0  0  0
   10.5035    2.1400    0.0000 C   0  0  0  0  0  0  0  0  0  0  0  0
    1.6501   -1.3826    0.0000 C   0  0  0  0  0  0  0  0  0  0  0  0
   11.2829    1.8845    0.0000 C   0  0  0  0  0  0  0  0  0  0  0  0
    8.4137    1.5092    0.0000 C   0  0  0  0  0  0  0  0  0  0  0  0
   11.7677    2.5519    0.0000 C   0  0  0  0  0  0  0  0  0  0  0  0
   10.5042    2.9601    0.0000 C   0  0  0  0  0  0  0  0  0  0  0  0
   11.6184    1.1308    0.0000 C   0  0  0  0  0  0  0  0  0  0  0  0
   12.5883    2.4657    0.0000 C   0  0  0  0  0  0  0  0  0  0  0  0
   12.4389    1.0445    0.0000 C   0  0  0  0  0  0  0  0  0  0  0  0
   12.9239    1.7120    0.0000 C   0  0  0  0  0  0  0  0  0  0  0  0
  1  5  1  0
  1  6  1  0
  1  7  1  0
  1  8  2  0
  2 19  1  0
  2 20  1  0
  5 21  1  0
  6 31  1  0
  9 31  2  0
 10 22  1  0
 10 23  1  0
 11 23  2  0
 11 24  1  0
 12 22  1  0
 12 29  2  0
 13 25  2  0
 13 29  1  0
 14 25  1  0
 15 32  1  0
 15 33  1  0
 17  3  1  6
 17 18  1  0
 17 19  1  0
 18  4  1  6
 18 20  1  0
 19 10  1  1
 20 21  1  1
 22 24  2  0
 24 25  1  0
 26 27  1  0
 26 28  1  0
 27 16  1  1
 27 31  1  0
 28 30  1  0
 28 33  2  0
 30 32  2  0
 30 34  1  0
 32 35  1  0
 34 36  2  0
 35 37  2  0
 36 37  1  0
M  END
>  <DRUGBANK_ID>  (1) 
DB01831

>  <SECONDARY_ACCESSION_NUMBERS>  (1) 
EXPT03138

>  <COMMON_NAME>  (1) 
Tryptophanyl-5'amp

$$$$
