Creatinine.mol
     RDKit          2D

  8  8  0  0  0  0  0  0  0  0999 V2000
    0.0711   -0.6674    0.0000 N   0  0  0  0  0  0  0  0  0  0  0  0
   -0.7136   -0.4125    0.0000 C   0  0  0  0  0  0  0  0  0  0  0  0
   -1.3810   -0.8974    0.0000 N   0  0  0  0  0  0  0  0  0  0  0  0
   -0.7136    0.4125    0.0000 N   0  0  0  0  0  0  0  0  0  0  0  0
   -1.3810    0.8974    0.0000 C   0  0  0  0  0  0  0  0  0  0  0  0
    0.0711    0.6674    0.0000 C   0  0  0  0  0  0  0  0  0  0  0  0
    0.5560    0.0000    0.0000 C   0  0  0  0  0  0  0  0  0  0  0  0
    1.3810    0.0000    0.0000 O   0  0  0  0  0  0  0  0  0  0  0  0
  1  2  1  0
  1  7  1  0
  2  3  2  0
  2  4  1  0
  4  5  1  0
  4  6  1  0
  6  7  1  0
  7  8  2  0
M  END
>  <DRUGBANK_ID>  (1) 
DB11846

>  <COMMON_NAME>  (1) 
Creatinine

>  <CAS_NUMBER>  (1) 
60-27-5

>  <UNII>  (1) 
AYI8EX34EU

>  <SYNONYMS>  (1) 
creatinina

$$$$
