S2D
     RDKit          2D

 14 14  0  0  0  0  0  0  0  0999 V2000
    0.0241    1.1776    0.0000 O   0  0  0  0  0  0  0  0  0  0  0  0
    0.0241    0.3526    0.0000 C   0  0  0  0  0  0  0  0  0  0  0  0
   -0.6904   -0.0599    0.0000 C   0  0  0  0  0  0  0  0  0  0  0  0
   -0.6904   -0.8849    0.0000 C   0  0  0  0  0  0  0  0  0  0  0  0
   -1.4048   -1.2974    0.0000 C   0  0  0  0  0  0  0  0  0  0  0  0
   -2.1193   -0.8849    0.0000 C   0  0  0  0  0  0  0  0  0  0  0  0
   -2.1193   -0.0599    0.0000 C   0  0  0  0  0  0  0  0  0  0  0  0
   -1.4048    0.3526    0.0000 C   0  0  0  0  0  0  0  0  0  0  0  0
    0.7386   -0.0599    0.0000 N   0  0  0  0  0  0  0  0  0  0  0  0
    1.4530    0.3526    0.0000 C   0  0  0  0  0  0  0  0  0  0  0  0
    1.4530    1.1776    0.0000 C   0  0  0  0  0  0  0  0  0  0  0  0
    2.1675   -0.0599    0.0000 C   0  0  0  0  0  0  0  0  0  0  0  0
    2.8820    0.3526    0.0000 O   0  0  0  0  0  0  0  0  0  0  0  0
    2.1675   -0.8849    0.0000 O   0  0  0  0  0  0  0  0  0  0  0  0
  1  2  2  0
  2  3  1  0
  2  9  1  0
  3  4  2  0
  3  8  1  0
  4  5  1  0
  5  6  2  0
  6  7  1  0
  7  8  2  0
  9 10  1  0
 10 11  1  6
 10 12  1  0
 12 13  2  0
 12 14  1  0
M  END
>  <DRUGBANK_ID>  (1) 
DB08508

>  <COMMON_NAME>  (1) 
N-BENZOYL-D-ALANINE

$$$$
