
     RDKit          2D

 16 16  0  0  1  0  0  0  0  0999 V2000
    3.2680   -0.0498    0.0000 C   0  0  0  0  0  0  0  0  0  0  0  0
    2.4555   -0.1930    0.0000 C   0  0  0  0  0  0  0  0  0  0  0  0
    1.9252    0.4390    0.0000 O   0  0  0  0  0  0  0  0  0  0  0  0
    2.2074    1.2142    0.0000 P   0  0  0  0  0  0  0  0  0  0  0  0
    1.3949    1.3575    0.0000 O   0  0  0  0  0  0  0  0  0  0  0  0
    3.0198    1.3575    0.0000 N   0  0  0  0  0  0  0  0  0  0  0  0
    3.5501    0.7255    0.0000 C   0  0  0  0  0  0  0  0  0  0  0  0
    4.3626    0.8688    0.0000 O   0  0  0  0  0  0  0  0  0  0  0  0
    4.8929    0.2368    0.0000 O   0  0  0  0  0  0  0  0  0  0  0  0
    2.2074    2.0392    0.0000 N   0  0  0  0  0  0  0  0  0  0  0  0
    1.4929    2.4517    0.0000 C   0  0  0  0  0  0  0  0  0  0  0  0
    1.4929    3.2767    0.0000 C   0  0  0  0  0  0  0  0  0  0  0  0
    0.7784    3.6892    0.0000 Cl  0  0  0  0  0  0  0  0  0  0  0  0
    2.9218    2.4517    0.0000 C   0  0  0  0  0  0  0  0  0  0  0  0
    2.9218    3.2767    0.0000 C   0  0  0  0  0  0  0  0  0  0  0  0
    3.6363    3.6892    0.0000 Cl  0  0  0  0  0  0  0  0  0  0  0  0
  1  2  1  0
  1  7  1  0
  2  3  1  0
  3  4  1  0
  4  5  2  0
  4  6  1  0
  4 10  1  0
  6  7  1  0
  7  8  1  6
  8  9  1  0
 10 11  1  0
 10 14  1  0
 11 12  1  0
 12 13  1  0
 14 15  1  0
 15 16  1  0
M  END
>  <DRUGBANK_ID>  (1) 
DB12727

>  <COMMON_NAME>  (1) 
Perfosfamide

>  <CAS_NUMBER>  (1) 
62435-42-1

>  <UNII>  (1) 
U880A4FUDA

>  <SYNONYMS>  (1) 
Perfosfamide

$$$$
