LDT
     RDKit          2D

 24 25  0  0  0  0  0  0  0  0999 V2000
   -1.3563    1.8851    0.0000 C   0  0  0  0  0  0  0  0  0  0  0  0
   -1.3563    0.2351    0.0000 C   0  0  0  0  0  0  0  0  0  0  0  0
   -0.6418    1.4726    0.0000 C   0  0  0  0  0  0  0  0  0  0  0  0
   -2.0707    1.4726    0.0000 C   0  0  0  0  0  0  0  0  0  0  0  0
   -2.0707    0.6476    0.0000 C   0  0  0  0  0  0  0  0  0  0  0  0
   -0.6418    0.6476    0.0000 C   0  0  0  0  0  0  0  0  0  0  0  0
    0.7871   -4.3024    0.0000 Br  0  0  0  0  0  0  0  0  0  0  0  0
   -2.7852    1.8851    0.0000 F   0  0  0  0  0  0  0  0  0  0  0  0
    0.0727    0.2351    0.0000 C   0  0  0  0  0  0  0  0  0  0  0  0
    0.7871   -1.0024    0.0000 C   0  0  0  0  0  0  0  0  0  0  0  0
   -0.6418   -1.8274    0.0000 F   0  0  0  0  0  0  0  0  0  0  0  0
    0.0727    1.8851    0.0000 O   0  0  0  0  0  0  0  0  0  0  0  0
    0.7871    0.6476    0.0000 S   0  0  0  0  0  0  0  0  0  0  0  0
    0.0727   -0.5899    0.0000 N   0  0  0  0  0  0  0  0  0  0  0  0
    0.0727    2.7101    0.0000 C   0  0  0  0  0  0  0  0  0  0  0  0
    0.7871   -1.8274    0.0000 C   0  0  0  0  0  0  0  0  0  0  0  0
    0.7871   -3.4774    0.0000 C   0  0  0  0  0  0  0  0  0  0  0  0
    1.5016   -2.2399    0.0000 C   0  0  0  0  0  0  0  0  0  0  0  0
    0.0727   -2.2399    0.0000 C   0  0  0  0  0  0  0  0  0  0  0  0
    0.0727   -3.0649    0.0000 C   0  0  0  0  0  0  0  0  0  0  0  0
    1.5016   -3.0649    0.0000 C   0  0  0  0  0  0  0  0  0  0  0  0
    0.7871    3.1226    0.0000 C   0  0  0  0  0  0  0  0  0  0  0  0
    0.7871    3.9476    0.0000 O   0  0  0  0  0  0  0  0  0  0  0  0
    1.5016    2.7101    0.0000 O   0  0  0  0  0  0  0  0  0  0  0  0
  1  3  2  0
  1  4  1  0
  2  5  1  0
  2  6  2  0
  3  6  1  0
  3 12  1  0
  4  5  2  0
  4  8  1  0
  6  9  1  0
  7 17  1  0
  9 13  2  0
  9 14  1  0
 10 14  1  0
 10 16  1  0
 11 19  1  0
 12 15  1  0
 15 22  1  0
 16 18  1  0
 16 19  2  0
 17 20  2  0
 17 21  1  0
 18 21  2  0
 19 20  1  0
 22 23  1  0
 22 24  2  0
M  END
>  <DRUGBANK_ID>  (1) 
DB08084

>  <COMMON_NAME>  (1) 
IDD594

$$$$
