TDZ
     RDKit          2D

 31 34  0  0  0  0  0  0  0  0999 V2000
    0.1775    0.8298    0.0000 C   0  0  0  0  0  0  0  0  0  0  0  0
    0.8920    1.2423    0.0000 C   0  0  0  0  0  0  0  0  0  0  0  0
    1.6064    0.8298    0.0000 C   0  0  0  0  0  0  0  0  0  0  0  0
    2.3209    1.2423    0.0000 C   0  0  0  0  0  0  0  0  0  0  0  0
    2.3209    2.0673    0.0000 C   0  0  0  0  0  0  0  0  0  0  0  0
    3.0354    0.8298    0.0000 C   0  0  0  0  0  0  0  0  0  0  0  0
    3.7499    1.2423    0.0000 O   0  0  0  0  0  0  0  0  0  0  0  0
    3.0354    0.0048    0.0000 C   0  0  0  0  0  0  0  0  0  0  0  0
    3.7499   -0.4077    0.0000 C   0  0  0  0  0  0  0  0  0  0  0  0
    2.3209   -0.4077    0.0000 C   0  0  0  0  0  0  0  0  0  0  0  0
    2.3209   -1.2327    0.0000 C   0  0  0  0  0  0  0  0  0  0  0  0
    1.6064    0.0048    0.0000 C   0  0  0  0  0  0  0  0  0  0  0  0
    0.8920   -0.4077    0.0000 O   0  0  0  0  0  0  0  0  0  0  0  0
    0.1775    0.0048    0.0000 C   0  0  0  0  0  0  0  0  0  0  0  0
   -0.2597   -0.6948    0.0000 C   0  0  0  0  0  0  0  0  0  0  0  0
   -0.6470   -0.0240    0.0000 C   0  0  0  0  0  0  0  0  0  0  0  0
   -1.0343   -0.7524    0.0000 O   0  0  0  0  0  0  0  0  0  0  0  0
   -1.8588   -0.7812    0.0000 C   0  0  0  0  0  0  0  0  0  0  0  0
   -2.2461   -1.5096    0.0000 C   0  0  0  0  0  0  0  0  0  0  0  0
   -3.0706   -1.5384    0.0000 C   0  0  0  0  0  0  0  0  0  0  0  0
   -2.2960   -0.0815    0.0000 C   0  0  0  0  0  0  0  0  0  0  0  0
   -3.1205   -0.1103    0.0000 C   0  0  0  0  0  0  0  0  0  0  0  0
   -3.5078   -0.8388    0.0000 C   0  0  0  0  0  0  0  0  0  0  0  0
   -4.3323   -0.8676    0.0000 C   0  0  0  0  0  0  0  0  0  0  0  0
   -4.7695   -0.1679    0.0000 C   0  0  0  0  0  0  0  0  0  0  0  0
   -5.5925   -0.1104    0.0000 S   0  0  0  0  0  0  0  0  0  0  0  0
   -5.7921    0.6901    0.0000 C   0  0  0  0  0  0  0  0  0  0  0  0
   -6.5570    0.9992    0.0000 O   0  0  0  0  0  0  0  0  0  0  0  0
   -5.0924    1.1273    0.0000 N   0  0  0  0  0  0  0  0  0  0  0  0
   -4.4604    0.5970    0.0000 C   0  0  0  0  0  0  0  0  0  0  0  0
   -3.6599    0.7966    0.0000 O   0  0  0  0  0  0  0  0  0  0  0  0
  1  2  1  0
  1 14  1  0
  2  3  1  0
  3  4  1  0
  3 12  2  0
  4  5  1  0
  4  6  2  0
  6  7  1  0
  6  8  1  0
  8 10  2  0
  8  9  1  0
 10 12  1  0
 10 11  1  0
 12 13  1  0
 13 14  1  0
 14 16  1  0
 14 15  1  6
 16 17  1  0
 17 18  1  0
 18 19  2  0
 18 21  1  0
 19 20  1  0
 20 23  2  0
 21 22  2  0
 22 23  1  0
 23 24  1  0
 25 24  1  1
 25 26  1  0
 25 30  1  0
 26 27  1  0
 27 28  2  0
 27 29  1  0
 29 30  1  0
 30 31  2  0
M  END
>  <DRUGBANK_ID>  (1) 
DB08607

>  <COMMON_NAME>  (1) 
(5R)-5-(4-{[(2R)-6-HYDROXY-2,5,7,8-TETRAMETHYL-3,4-DIHYDRO-2H-CHROMEN-2-YL]METHOXY}BENZYL)-1,3-THIAZOLIDINE-2,4-DIONE

>  <UNII>  (1) 
1A70L3TM4P

$$$$
