BJI
     RDKit          2D

 18 18  0  0  0  0  0  0  0  0999 V2000
   -0.3829    0.1278    0.0000 C   0  0  0  0  0  0  0  0  0  0  0  0
   -0.3829   -0.6972    0.0000 C   0  0  0  0  0  0  0  0  0  0  0  0
   -1.0973   -1.1097    0.0000 N   0  0  0  0  0  0  0  0  0  0  0  0
   -1.0973   -1.9347    0.0000 C   0  0  0  0  0  0  0  0  0  0  0  0
   -1.8118   -2.3472    0.0000 C   0  0  0  0  0  0  0  0  0  0  0  0
   -0.3829   -2.3472    0.0000 O   0  0  0  0  0  0  0  0  0  0  0  0
    1.0461    2.6028    0.0000 C   0  0  0  0  0  0  0  0  0  0  0  0
    0.3316    3.0153    0.0000 O   0  0  0  0  0  0  0  0  0  0  0  0
    1.7605    3.0153    0.0000 O   0  0  0  0  0  0  0  0  0  0  0  0
    0.3316   -1.1097    0.0000 B   0  0  0  0  0  0  0  0  0  0  0  0
    1.0461   -0.6972    0.0000 O   0  0  0  0  0  0  0  0  0  0  0  0
    1.0461    0.1278    0.0000 C   0  0  0  0  0  0  0  0  0  0  0  0
    0.3316    0.5403    0.0000 C   0  0  0  0  0  0  0  0  0  0  0  0
    1.7605    0.5403    0.0000 C   0  0  0  0  0  0  0  0  0  0  0  0
    0.3316    1.3653    0.0000 C   0  0  0  0  0  0  0  0  0  0  0  0
    1.7605    1.3653    0.0000 C   0  0  0  0  0  0  0  0  0  0  0  0
    1.0461    1.7778    0.0000 C   0  0  0  0  0  0  0  0  0  0  0  0
    0.3316   -1.9347    0.0000 O   0  0  0  0  0  0  0  0  0  0  0  0
  2  1  1  1
  1 13  1  0
  2  3  1  0
  2 10  1  0
  3  4  1  0
  4  5  1  0
  4  6  2  0
  7  8  1  0
  7  9  2  0
  7 17  1  0
 10 11  1  0
 10 18  1  0
 12 13  2  0
 12 14  1  0
 13 15  1  0
 14 16  2  0
 15 17  2  0
 16 17  1  0
M  END
>  <DRUGBANK_ID>  (1) 
DB02614

>  <SECONDARY_ACCESSION_NUMBERS>  (1) 
EXPT00712

>  <COMMON_NAME>  (1) 
1(R)-1-Acetamido-2-(3-Carboxyphenyl)Ethyl Boronic Acid

$$$$
