
     RDKit          2D

 25 27  0  0  0  0  0  0  0  0999 V2000
   -0.6078    3.5277    0.0000 C   0  0  0  0  0  0  0  0  0  0  0  0
   -2.0367    3.5277    0.0000 C   0  0  0  0  0  0  0  0  0  0  0  0
   -0.6078    4.3527    0.0000 C   0  0  0  0  0  0  0  0  0  0  0  0
   -2.0367    4.3527    0.0000 C   0  0  0  0  0  0  0  0  0  0  0  0
   -0.9097    1.0206    0.0000 C   0  0  0  0  0  0  0  0  0  0  0  0
   -0.6548    1.8053    0.0000 C   0  0  0  0  0  0  0  0  0  0  0  0
   -5.6573    1.2795    0.0000 C   0  0  0  0  0  0  0  0  0  0  0  0
   -4.8727    1.5344    0.0000 C   0  0  0  0  0  0  0  0  0  0  0  0
   -2.2197    0.3532    0.0000 C   0  0  0  0  0  0  0  0  0  0  0  0
   -1.3222    3.1152    0.0000 C   0  0  0  0  0  0  0  0  0  0  0  0
   -1.3222    4.7652    0.0000 C   0  0  0  0  0  0  0  0  0  0  0  0
   -1.7347    1.0206    0.0000 C   0  0  0  0  0  0  0  0  0  0  0  0
   -1.3222    2.2902    0.0000 C   0  0  0  0  0  0  0  0  0  0  0  0
   -3.0401    0.4394    0.0000 C   0  0  0  0  0  0  0  0  0  0  0  0
   -6.2704    1.8315    0.0000 C   0  0  0  0  0  0  0  0  0  0  0  0
   -3.4526    1.1539    0.0000 C   0  0  0  0  0  0  0  0  0  0  0  0
   -4.3458    0.1619    0.0000 C   0  0  0  0  0  0  0  0  0  0  0  0
   -1.3222    5.5902    0.0000 Cl  0  0  0  0  0  0  0  0  0  0  0  0
   -4.2596    0.9824    0.0000 N   0  0  0  0  0  0  0  0  0  0  0  0
   -7.0550    1.5766    0.0000 O   0  0  0  0  0  0  0  0  0  0  0  0
   -6.0989    2.6385    0.0000 O   0  0  0  0  0  0  0  0  0  0  0  0
   -3.1171    1.9076    0.0000 O   0  0  0  0  0  0  0  0  0  0  0  0
   -1.9897    1.8053    0.0000 O   0  0  0  0  0  0  0  0  0  0  0  0
   -5.0603   -0.2506    0.0000 S   0  0  0  0  0  0  0  0  0  0  0  0
   -3.5922   -0.1737    0.0000 S   0  0  0  0  0  0  0  0  0  0  0  0
  3  1  2  0
  4  2  1  0
  6  5  1  0
  8  7  1  0
 10  1  1  0
 10  2  2  0
 11  3  1  0
 11  4  2  0
 12  5  2  0
 12  9  1  0
 13  6  2  0
 13 10  1  0
 14  9  2  0
 15  7  1  0
 16 14  1  0
 18 11  1  0
 19  8  1  0
 19 16  1  0
 19 17  1  0
 20 15  2  0
 21 15  1  0
 22 16  2  0
 23 12  1  0
 23 13  1  0
 24 17  2  0
 25 14  1  0
 25 17  1  0
M  END
>  <DRUGBANK_ID>  (1) 
DB08177

>  <COMMON_NAME>  (1) 
(E)-3-(5((5-(4-CHLOROPHENYL)FURAN-2-YL)METHYLENE)-4-OXO-2-THIOXOTHIAZOLIDIN-3-YL)PROPANOIC ACID

$$$$
