PFD
     RDKit          2D

 29 31  0  0  0  0  0  0  0  0999 V2000
   -0.1299    4.9685    0.0000 F   0  0  0  0  0  0  0  0  0  0  0  0
    0.1523    4.1932    0.0000 C   0  0  0  0  0  0  0  0  0  0  0  0
    0.9648    4.0500    0.0000 C   0  0  0  0  0  0  0  0  0  0  0  0
    1.2469    3.2747    0.0000 C   0  0  0  0  0  0  0  0  0  0  0  0
   -0.3780    3.5612    0.0000 C   0  0  0  0  0  0  0  0  0  0  0  0
   -0.0958    2.7860    0.0000 C   0  0  0  0  0  0  0  0  0  0  0  0
    0.7166    2.6427    0.0000 C   0  0  0  0  0  0  0  0  0  0  0  0
    0.9988    1.8675    0.0000 O   0  0  0  0  0  0  0  0  0  0  0  0
    0.4685    1.2355    0.0000 C   0  0  0  0  0  0  0  0  0  0  0  0
    0.7507    0.4602    0.0000 C   0  0  0  0  0  0  0  0  0  0  0  0
    0.2204   -0.1717    0.0000 C   0  0  0  0  0  0  0  0  0  0  0  0
   -0.3440    1.3788    0.0000 C   0  0  0  0  0  0  0  0  0  0  0  0
   -0.8743    0.7468    0.0000 C   0  0  0  0  0  0  0  0  0  0  0  0
   -0.5921   -0.0285    0.0000 C   0  0  0  0  0  0  0  0  0  0  0  0
   -1.1224   -0.6605    0.0000 O   0  0  0  0  0  0  0  0  0  0  0  0
   -0.8402   -1.4357    0.0000 C   0  0  0  0  0  0  0  0  0  0  0  0
   -0.1258   -1.0232    0.0000 C   0  0  0  0  0  0  0  0  0  0  0  0
    0.5887   -1.4357    0.0000 C   0  0  0  0  0  0  0  0  0  0  0  0
    1.3032   -1.0232    0.0000 O   0  0  0  0  0  0  0  0  0  0  0  0
    2.0176   -1.4357    0.0000 C   0  0  0  0  0  0  0  0  0  0  0  0
    2.0176   -2.2607    0.0000 C   0  0  0  0  0  0  0  0  0  0  0  0
   -0.3099   -2.0677    0.0000 C   0  0  0  0  0  0  0  0  0  0  0  0
    0.5025   -1.9244    0.0000 O   0  0  0  0  0  0  0  0  0  0  0  0
   -0.5921   -2.8429    0.0000 N   0  0  0  0  0  0  0  0  0  0  0  0
   -1.4046   -2.9862    0.0000 C   0  0  0  0  0  0  0  0  0  0  0  0
   -1.6867   -3.7615    0.0000 O   0  0  0  0  0  0  0  0  0  0  0  0
   -1.9349   -2.3542    0.0000 N   0  0  0  0  0  0  0  0  0  0  0  0
   -1.6527   -1.5790    0.0000 C   0  0  0  0  0  0  0  0  0  0  0  0
   -2.1830   -0.9470    0.0000 O   0  0  0  0  0  0  0  0  0  0  0  0
  1  2  1  0
  2  3  2  0
  2  5  1  0
  3  4  1  0
  4  7  2  0
  5  6  2  0
  6  7  1  0
  7  8  1  0
  8  9  1  0
  9 10  2  0
  9 12  1  0
 10 11  1  0
 11 14  2  0
 12 13  2  0
 13 14  1  0
 14 15  1  0
 15 16  1  0
 16 17  1  0
 16 22  1  0
 16 28  1  0
 17 18  1  0
 18 19  1  0
 19 20  1  0
 20 21  1  0
 22 23  2  0
 22 24  1  0
 24 25  1  0
 25 26  2  0
 25 27  1  0
 27 28  1  0
 28 29  2  0
M  END
>  <DRUGBANK_ID>  (1) 
DB08388

>  <COMMON_NAME>  (1) 
5-(2-ETHOXYETHYL)-5-[4-(4-FLUOROPHENOXY)PHENOXY]PYRIMIDINE-2,4,6(1H,3H,5H)-TRIONE

$$$$
