
     RDKit          2D

 13 12  0  0  1  0  0  0  0  0999 V2000
    3.3809    1.1270    0.0000 C   0  0  0  0  0  0  0  0  0  0  0  0
    4.0954    0.7145    0.0000 C   0  0  0  0  0  0  0  0  0  0  0  0
    1.9520    1.1270    0.0000 C   0  0  0  0  0  0  0  0  0  0  0  0
    1.2375    0.7145    0.0000 C   0  0  0  0  0  0  0  0  0  0  0  0
    0.5230    1.1270    0.0000 C   0  0  0  0  0  0  0  0  0  0  0  0
    1.2375   -0.1105    0.0000 N   0  0  0  0  0  0  0  0  0  0  0  0
    5.5243    1.5395    0.0000 N   0  0  0  0  0  0  0  0  0  0  0  0
   -0.1914    0.7145    0.0000 O   0  0  0  0  0  0  0  0  0  0  0  0
    0.5230    1.9520    0.0000 O   0  0  0  0  0  0  0  0  0  0  0  0
    4.3974    1.8414    0.0000 O   0  0  0  0  0  0  0  0  0  0  0  0
    5.2224    0.4125    0.0000 O   0  0  0  0  0  0  0  0  0  0  0  0
    2.6664    0.7145    0.0000 S   0  0  0  0  0  0  0  0  0  0  0  0
    4.8099    1.1270    0.0000 S   0  0  0  0  0  0  0  0  0  0  0  0
  2  1  1  0
  4  3  1  0
  4  6  1  6
  5  4  1  0
  8  5  2  0
  9  5  1  0
 12  1  1  0
 12  3  1  0
 13  2  1  0
 13  7  1  0
 13 10  2  0
 13 11  2  0
M  END
>  <DRUGBANK_ID>  (1) 
DB02689

>  <SECONDARY_ACCESSION_NUMBERS>  (1) 
EXPT02875

>  <COMMON_NAME>  (1) 
S-{2-[Amino(Dihydroxy)-Lambda~4~-Sulfanyl]Ethyl}-D-Cysteine

$$$$
