219
     RDKit          2D

 20 21  0  0  0  0  0  0  0  0999 V2000
   -2.3169   -0.8775    0.0000 C   0  0  0  0  0  0  0  0  0  0  0  0
   -3.0314   -0.4650    0.0000 C   0  0  0  0  0  0  0  0  0  0  0  0
   -3.0314    0.3600    0.0000 C   0  0  0  0  0  0  0  0  0  0  0  0
   -2.3169    0.7725    0.0000 C   0  0  0  0  0  0  0  0  0  0  0  0
   -1.6024    0.3600    0.0000 C   0  0  0  0  0  0  0  0  0  0  0  0
   -1.6024   -0.4650    0.0000 C   0  0  0  0  0  0  0  0  0  0  0  0
   -2.3169    1.5975    0.0000 C   0  0  0  0  0  0  0  0  0  0  0  0
   -0.8879    0.7725    0.0000 O   0  0  0  0  0  0  0  0  0  0  0  0
   -0.1735    0.3600    0.0000 P   0  0  0  0  0  0  0  0  0  0  0  0
    0.5410   -0.0525    0.0000 O   0  0  0  0  0  0  0  0  0  0  0  0
   -0.5860   -0.3544    0.0000 O   0  0  0  0  0  0  0  0  0  0  0  0
    1.2555    0.3600    0.0000 C   0  0  0  0  0  0  0  0  0  0  0  0
   -1.6024    2.0100    0.0000 O   0  0  0  0  0  0  0  0  0  0  0  0
    0.2390    1.0745    0.0000 O   0  0  0  0  0  0  0  0  0  0  0  0
    1.9699   -0.0525    0.0000 C   0  0  0  0  0  0  0  0  0  0  0  0
    2.6844    0.3600    0.0000 C   0  0  0  0  0  0  0  0  0  0  0  0
    3.3989   -0.0525    0.0000 C   0  0  0  0  0  0  0  0  0  0  0  0
    3.3989   -0.8775    0.0000 C   0  0  0  0  0  0  0  0  0  0  0  0
    2.6844   -1.2900    0.0000 C   0  0  0  0  0  0  0  0  0  0  0  0
    1.9699   -0.8775    0.0000 C   0  0  0  0  0  0  0  0  0  0  0  0
  1  2  2  0
  1  6  1  0
  2  3  1  0
  3  4  2  0
  4  5  1  0
  4  7  1  0
  5  6  2  0
  5  8  1  0
  7 13  2  0
  9  8  1  0
  9 10  1  0
  9 11  2  0
  9 14  1  0
 10 12  1  0
 12 15  1  0
 15 16  1  0
 15 20  1  0
 16 17  1  0
 17 18  1  0
 18 19  1  0
 19 20  1  0
M  END
>  <DRUGBANK_ID>  (1) 
DB03114

>  <SECONDARY_ACCESSION_NUMBERS>  (1) 
EXPT00088

>  <COMMON_NAME>  (1) 
PAS219

$$$$
