B1L
     RDKit          2D

 27 29  0  0  0  0  0  0  0  0999 V2000
   -1.4414    3.4809    0.0000 O   0  0  0  0  0  0  0  0  0  0  0  0
   -1.4414    2.6559    0.0000 C   0  0  0  0  0  0  0  0  0  0  0  0
   -0.7269    2.2434    0.0000 C   0  0  0  0  0  0  0  0  0  0  0  0
   -0.7269    1.4184    0.0000 C   0  0  0  0  0  0  0  0  0  0  0  0
   -1.4414    1.0059    0.0000 C   0  0  0  0  0  0  0  0  0  0  0  0
   -2.1559    1.4184    0.0000 C   0  0  0  0  0  0  0  0  0  0  0  0
   -2.1559    2.2434    0.0000 C   0  0  0  0  0  0  0  0  0  0  0  0
   -1.4414    0.1809    0.0000 C   0  0  0  0  0  0  0  0  0  0  0  0
   -2.1559   -0.2316    0.0000 O   0  0  0  0  0  0  0  0  0  0  0  0
   -0.7269   -0.2316    0.0000 N   0  0  0  0  0  0  0  0  0  0  0  0
   -0.7269   -1.0566    0.0000 C   0  0  0  0  0  0  0  0  0  0  0  0
    0.0164   -1.4146    0.0000 C   0  0  0  0  0  0  0  0  0  0  0  0
    0.2000   -2.2189    0.0000 C   0  0  0  0  0  0  0  0  0  0  0  0
   -0.3144   -2.8639    0.0000 C   0  0  0  0  0  0  0  0  0  0  0  0
   -1.1394   -2.8639    0.0000 C   0  0  0  0  0  0  0  0  0  0  0  0
   -1.6538   -2.2189    0.0000 N   0  0  0  0  0  0  0  0  0  0  0  0
   -1.4702   -1.4146    0.0000 C   0  0  0  0  0  0  0  0  0  0  0  0
    0.6614   -0.9002    0.0000 O   0  0  0  0  0  0  0  0  0  0  0  0
    0.5384   -0.0844    0.0000 C   0  0  0  0  0  0  0  0  0  0  0  0
   -0.2295    0.2170    0.0000 O   0  0  0  0  0  0  0  0  0  0  0  0
    1.1834    0.4300    0.0000 C   0  0  0  0  0  0  0  0  0  0  0  0
    1.0605    1.2457    0.0000 C   0  0  0  0  0  0  0  0  0  0  0  0
    1.7055    1.7601    0.0000 C   0  0  0  0  0  0  0  0  0  0  0  0
    2.4735    1.4587    0.0000 C   0  0  0  0  0  0  0  0  0  0  0  0
    2.5964    0.6429    0.0000 C   0  0  0  0  0  0  0  0  0  0  0  0
    1.9514    0.1285    0.0000 C   0  0  0  0  0  0  0  0  0  0  0  0
    3.1185    1.9731    0.0000 O   0  0  0  0  0  0  0  0  0  0  0  0
  1  2  1  0
  2  3  2  0
  2  7  1  0
  3  4  1  0
  4  5  2  0
  5  6  1  0
  5  8  1  0
  6  7  2  0
  8  9  2  0
  8 10  1  0
 11 10  1  1
 11 12  1  0
 11 17  1  0
 12 13  1  0
 12 18  1  6
 13 14  1  0
 14 15  1  0
 15 16  1  0
 16 17  1  0
 18 19  1  0
 19 20  2  0
 19 21  1  0
 21 22  2  0
 21 26  1  0
 22 23  1  0
 23 24  2  0
 24 25  1  0
 24 27  1  0
 25 26  2  0
M  END
>  <DRUGBANK_ID>  (1) 
DB02611

>  <SECONDARY_ACCESSION_NUMBERS>  (1) 
EXPT00607

>  <COMMON_NAME>  (1) 
Balanol Analog 1

$$$$
