
     RDKit          2D

 27 29  0  0  0  0  0  0  0  0999 V2000
   -0.1015    0.1755    0.0000 C   0  0  0  0  0  0  0  0  0  0  0  0
    0.6129    0.5880    0.0000 C   0  0  0  0  0  0  0  0  0  0  0  0
   -0.8161    0.5882    0.0000 C   0  0  0  0  0  0  0  0  0  0  0  0
    0.6128    1.4131    0.0000 C   0  0  0  0  0  0  0  0  0  0  0  0
   -0.8161    1.4130    0.0000 C   0  0  0  0  0  0  0  0  0  0  0  0
   -0.1016    1.8256    0.0000 O   0  0  0  0  0  0  0  0  0  0  0  0
   -0.1016   -0.6494    0.0000 O   0  0  0  0  0  0  0  0  0  0  0  0
   -0.8162   -1.0618    0.0000 C   0  0  0  0  0  0  0  0  0  0  0  0
   -1.5307   -0.6493    0.0000 O   0  0  0  0  0  0  0  0  0  0  0  0
   -1.5306    1.8255    0.0000 C   0  0  0  0  0  0  0  0  0  0  0  0
   -2.2451    1.4130    0.0000 C   0  0  0  0  0  0  0  0  0  0  0  0
   -2.9595    0.1755    0.0000 C   0  0  0  0  0  0  0  0  0  0  0  0
   -2.2451   -1.0618    0.0000 C   0  0  0  0  0  0  0  0  0  0  0  0
   -2.9595   -0.6493    0.0000 C   0  0  0  0  0  0  0  0  0  0  0  0
   -0.8164   -1.8868    0.0000 C   0  0  0  0  0  0  0  0  0  0  0  0
   -2.2452   -1.8867    0.0000 C   0  0  0  0  0  0  0  0  0  0  0  0
   -1.5308   -2.2992    0.0000 C   0  0  0  0  0  0  0  0  0  0  0  0
    1.3965    1.6701    0.0000 C   0  0  0  0  0  0  0  0  0  0  0  0
    2.0645    1.1861    0.0000 C   0  0  0  0  0  0  0  0  0  0  0  0
    1.6503    2.4551    0.0000 N   0  0  0  0  0  0  0  0  0  0  0  0
    2.7313    1.6719    0.0000 S   0  0  0  0  0  0  0  0  0  0  0  0
    2.4754    2.4563    0.0000 C   0  0  0  0  0  0  0  0  0  0  0  0
    2.9595    3.1243    0.0000 O   0  0  0  0  0  0  0  0  0  0  0  0
   -1.5309   -3.1243    0.0000 C   0  0  0  0  0  0  0  0  0  0  0  0
    0.5935    2.2413    0.0000 O   0  0  0  0  0  0  0  0  0  0  0  0
   -2.2451    0.5880    0.0000 C   0  0  0  0  0  0  0  0  0  0  0  0
   -1.5306    0.1755    0.0000 C   0  0  0  0  0  0  0  0  0  0  0  0
  1  7  1  0
  1  2  1  6
  3  1  1  0
  4  2  1  0
  4 18  1  0
  4 25  1  6
  5  3  1  0
  5 10  1  1
  6  4  1  0
  6  5  1  0
  8  7  1  0
  8  9  2  0
 11 10  1  0
 12 26  1  0
 14 12  2  0
 14 13  1  0
 15  8  1  0
 16 13  1  0
 17 15  2  0
 17 16  1  0
 17 24  1  0
 18 19  1  1
 20 18  1  0
 21 19  1  0
 22 20  1  0
 22 21  1  0
 22 23  2  0
 26 11  1  0
 26 27  1  6
M  END
>  <DRUGBANK_ID>  (1) 
DB08080

>  <COMMON_NAME>  (1) 
Latrunculin B

>  <CAS_NUMBER>  (1) 
76343-94-7

>  <UNII>  (1) 
LW7U308U7U

>  <SYNONYMS>  (1) 
(+)-latrunculin B; LAT-B

$$$$
