LIY
     RDKit          2D

 31 34  0  0  0  0  0  0  0  0999 V2000
   -3.5227    2.0349    0.0000 N   0  0  0  0  0  0  0  0  0  0  0  0
   -2.8082    3.2724    0.0000 N   0  0  0  0  0  0  0  0  0  0  0  0
   -2.0937    2.0349    0.0000 C   0  0  0  0  0  0  0  0  0  0  0  0
   -1.3793    0.7974    0.0000 C   0  0  0  0  0  0  0  0  0  0  0  0
   -1.3793    3.2724    0.0000 C   0  0  0  0  0  0  0  0  0  0  0  0
   -0.6648    3.6849    0.0000 C   0  0  0  0  0  0  0  0  0  0  0  0
    0.0497    2.4474    0.0000 C   0  0  0  0  0  0  0  0  0  0  0  0
    0.7641    3.6849    0.0000 C   0  0  0  0  0  0  0  0  0  0  0  0
    1.4786    2.4474    0.0000 C   0  0  0  0  0  0  0  0  0  0  0  0
    1.4786    0.7974    0.0000 C   0  0  0  0  0  0  0  0  0  0  0  0
   -1.3793   -0.0276    0.0000 C   0  0  0  0  0  0  0  0  0  0  0  0
    2.1931    2.0349    0.0000 C   0  0  0  0  0  0  0  0  0  0  0  0
    2.1931    1.2099    0.0000 C   0  0  0  0  0  0  0  0  0  0  0  0
    3.6220    1.2099    0.0000 C   0  0  0  0  0  0  0  0  0  0  0  0
    2.9076    2.4474    0.0000 C   0  0  0  0  0  0  0  0  0  0  0  0
   -2.8082    2.4474    0.0000 C   0  0  0  0  0  0  0  0  0  0  0  0
   -2.0937    1.2099    0.0000 C   0  0  0  0  0  0  0  0  0  0  0  0
   -2.8082    0.7974    0.0000 N   0  0  0  0  0  0  0  0  0  0  0  0
   -3.5227    1.2099    0.0000 C   0  0  0  0  0  0  0  0  0  0  0  0
   -4.2372    0.7974    0.0000 N   0  0  0  0  0  0  0  0  0  0  0  0
   -1.3793    2.4474    0.0000 C   0  0  0  0  0  0  0  0  0  0  0  0
   -0.6648    2.0349    0.0000 C   0  0  0  0  0  0  0  0  0  0  0  0
    0.0497    3.2724    0.0000 C   0  0  0  0  0  0  0  0  0  0  0  0
    1.4786    3.2724    0.0000 C   0  0  0  0  0  0  0  0  0  0  0  0
    2.9076    0.7974    0.0000 C   0  0  0  0  0  0  0  0  0  0  0  0
    3.6220    2.0349    0.0000 C   0  0  0  0  0  0  0  0  0  0  0  0
    0.7641    2.0349    0.0000 N   0  0  0  0  0  0  0  0  0  0  0  0
    0.7641    1.2099    0.0000 C   0  0  0  0  0  0  0  0  0  0  0  0
    1.4786   -0.0276    0.0000 C   0  0  0  0  0  0  0  0  0  0  0  0
    2.1931   -0.4401    0.0000 O   0  0  0  0  0  0  0  0  0  0  0  0
    2.1931   -1.2651    0.0000 C   0  0  0  0  0  0  0  0  0  0  0  0
  1 16  2  0
  1 19  1  0
  2 16  1  0
  3 21  1  0
  3 16  1  0
  3 17  2  0
  4 17  1  0
  4 11  1  0
  5  6  2  0
  5 21  1  0
  6 23  1  0
  7 23  2  0
  7 27  1  0
  7 22  1  0
  8 24  1  0
  8 23  1  0
  9 12  1  1
  9 24  1  0
  9 27  1  0
 10 28  1  0
 10 29  1  0
 12 15  1  0
 12 13  2  0
 13 25  1  0
 14 26  1  0
 14 25  2  0
 15 26  2  0
 17 18  1  0
 18 19  2  0
 19 20  1  0
 21 22  2  0
 27 28  1  0
 29 30  1  0
 30 31  1  0
M  END
>  <DRUGBANK_ID>  (1) 
DB08099

>  <COMMON_NAME>  (1) 
6-ethyl-5-[(2S)-1-(3-methoxypropyl)-2-phenyl-1,2,3,4-tetrahydroquinolin-7-yl]pyrimidine-2,4-diamine

$$$$
