
     RDKit          2D

 18 18  0  0  0  0  0  0  0  0999 V2000
    1.9524   -2.0625    0.0000 Cl  0  0  0  0  0  0  0  0  0  0  0  0
    1.1274    1.2375    0.0000 F   0  0  0  0  0  0  0  0  0  0  0  0
    2.7774    1.2375    0.0000 F   0  0  0  0  0  0  0  0  0  0  0  0
    1.9524    2.0625    0.0000 F   0  0  0  0  0  0  0  0  0  0  0  0
    0.5234   -1.2375    0.0000 N   0  0  0  0  0  0  0  0  0  0  0  0
   -0.9054   -1.2375    0.0000 N   0  0  0  0  0  0  0  0  0  0  0  0
   -0.1910    0.0000    0.0000 N   0  0  0  0  0  0  0  0  0  0  0  0
   -2.3344   -1.2375    0.0000 N   0  0  0  0  0  0  0  0  0  0  0  0
   -1.6199    0.0000    0.0000 N   0  0  0  0  0  0  0  0  0  0  0  0
    1.9524    0.4125    0.0000 C   0  0  0  0  0  0  0  0  0  0  0  0
    1.2379    0.0000    0.0000 C   0  0  0  0  0  0  0  0  0  0  0  0
    1.2379   -0.8250    0.0000 C   0  0  0  0  0  0  0  0  0  0  0  0
    2.6668    0.0000    0.0000 C   0  0  0  0  0  0  0  0  0  0  0  0
    1.9524   -1.2375    0.0000 C   0  0  0  0  0  0  0  0  0  0  0  0
    2.6668   -0.8250    0.0000 C   0  0  0  0  0  0  0  0  0  0  0  0
    1.9524    1.2375    0.0000 C   0  0  0  0  0  0  0  0  0  0  0  0
   -0.1910   -0.8250    0.0000 C   0  0  0  0  0  0  0  0  0  0  0  0
   -1.6199   -0.8250    0.0000 C   0  0  0  0  0  0  0  0  0  0  0  0
  1 14  1  0
  2 16  1  0
  3 16  1  0
  4 16  1  0
  5 12  1  0
  5 17  2  0
  6 17  1  0
  6 18  2  0
  7 17  1  0
  8 18  1  0
  9 18  1  0
 10 11  2  0
 10 13  1  0
 10 16  1  0
 11 12  1  0
 12 14  2  0
 13 15  2  0
 14 15  1  0
M  END
>  <DRUGBANK_ID>  (1) 
DB08478

>  <COMMON_NAME>  (1) 
N-[2-Chloro-5-(trifluoromethyl)phenyl]imidodicarbonimidic diamide

>  <SYNONYMS>  (1) 
2-[2-Chloro-5-(trifluoromethyl)phenyl]-1-(diaminomethylene)guanidine

$$$$
