WAN
     RDKit          2D

 26 28  0  0  0  0  0  0  0  0999 V2000
   -3.7238    2.0487    0.0000 C   0  0  0  0  0  0  0  0  0  0  0  0
   -3.4688    1.2641    0.0000 C   0  0  0  0  0  0  0  0  0  0  0  0
   -2.6619    1.0926    0.0000 C   0  0  0  0  0  0  0  0  0  0  0  0
   -2.4069    0.3079    0.0000 C   0  0  0  0  0  0  0  0  0  0  0  0
   -1.6223    0.0530    0.0000 C   0  0  0  0  0  0  0  0  0  0  0  0
   -0.9078    0.4655    0.0000 N   0  0  0  0  0  0  0  0  0  0  0  0
   -2.8918   -0.3595    0.0000 N   0  0  0  0  0  0  0  0  0  0  0  0
   -2.4069   -1.0269    0.0000 N   0  0  0  0  0  0  0  0  0  0  0  0
   -2.6619   -1.8116    0.0000 C   0  0  0  0  0  0  0  0  0  0  0  0
   -1.6223   -0.7720    0.0000 C   0  0  0  0  0  0  0  0  0  0  0  0
   -0.9078   -1.1845    0.0000 C   0  0  0  0  0  0  0  0  0  0  0  0
   -0.9078   -2.0095    0.0000 O   0  0  0  0  0  0  0  0  0  0  0  0
   -0.1934   -0.7720    0.0000 N   0  0  0  0  0  0  0  0  0  0  0  0
   -0.1934    0.0530    0.0000 C   0  0  0  0  0  0  0  0  0  0  0  0
    0.5211    0.4655    0.0000 C   0  0  0  0  0  0  0  0  0  0  0  0
    0.6074    1.2860    0.0000 C   0  0  0  0  0  0  0  0  0  0  0  0
    1.4143    1.4575    0.0000 C   0  0  0  0  0  0  0  0  0  0  0  0
    1.7499    2.2112    0.0000 S   0  0  0  0  0  0  0  0  0  0  0  0
    2.0854    2.9649    0.0000 O   0  0  0  0  0  0  0  0  0  0  0  0
    2.5036    1.8756    0.0000 O   0  0  0  0  0  0  0  0  0  0  0  0
    0.9962    2.5467    0.0000 N   0  0  0  0  0  0  0  0  0  0  0  0
    1.8268    0.7430    0.0000 S   0  0  0  0  0  0  0  0  0  0  0  0
    1.2748    0.1299    0.0000 C   0  0  0  0  0  0  0  0  0  0  0  0
    1.4463   -0.6770    0.0000 O   0  0  0  0  0  0  0  0  0  0  0  0
    2.2309   -0.9320    0.0000 C   0  0  0  0  0  0  0  0  0  0  0  0
    2.4025   -1.7389    0.0000 C   0  0  0  0  0  0  0  0  0  0  0  0
  1  2  1  0
  2  3  1  0
  3  4  1  0
  4  5  1  0
  4  7  2  0
  5  6  1  0
  5 10  2  0
  6 14  2  0
  7  8  1  0
  8  9  1  0
  8 10  1  0
 10 11  1  0
 11 12  2  0
 11 13  1  0
 13 14  1  0
 14 15  1  0
 15 16  1  0
 15 23  2  0
 16 17  2  0
 17 18  1  0
 17 22  1  0
 18 19  2  0
 18 20  2  0
 18 21  1  0
 22 23  1  0
 23 24  1  0
 24 25  1  0
 25 26  1  0
M  END
>  <DRUGBANK_ID>  (1) 
DB08729

>  <COMMON_NAME>  (1) 
5-ethoxy-4-(1-methyl-7-oxo-3-propyl-6,7-dihydro-1H-pyrazolo[4,3-d]pyrimidin-5-yl)thiophene-2-sulfonamide

$$$$
