910
     RDKit          2D

 28 30  0  0  0  0  0  0  0  0999 V2000
    0.1476   -1.3016    0.0000 S   0  0  0  0  0  0  0  0  0  0  0  0
   -0.1074   -2.0862    0.0000 C   0  0  0  0  0  0  0  0  0  0  0  0
   -0.9324   -2.0862    0.0000 C   0  0  0  0  0  0  0  0  0  0  0  0
   -1.1873   -1.3016    0.0000 C   0  0  0  0  0  0  0  0  0  0  0  0
   -0.5199   -0.8167    0.0000 C   0  0  0  0  0  0  0  0  0  0  0  0
    0.3775   -2.7536    0.0000 C   0  0  0  0  0  0  0  0  0  0  0  0
    0.0420   -3.5073    0.0000 O   0  0  0  0  0  0  0  0  0  0  0  0
    1.1980   -2.6674    0.0000 O   0  0  0  0  0  0  0  0  0  0  0  0
   -0.5199    0.0083    0.0000 C   0  0  0  0  0  0  0  0  0  0  0  0
   -1.2343    0.4208    0.0000 C   0  0  0  0  0  0  0  0  0  0  0  0
   -1.2343    1.2458    0.0000 C   0  0  0  0  0  0  0  0  0  0  0  0
   -0.5199    1.6583    0.0000 C   0  0  0  0  0  0  0  0  0  0  0  0
    0.1946    1.2458    0.0000 C   0  0  0  0  0  0  0  0  0  0  0  0
    0.1946    0.4208    0.0000 C   0  0  0  0  0  0  0  0  0  0  0  0
   -1.9719   -1.0466    0.0000 Br  0  0  0  0  0  0  0  0  0  0  0  0
   -1.4173   -2.7536    0.0000 O   0  0  0  0  0  0  0  0  0  0  0  0
   -1.0817   -3.5073    0.0000 C   0  0  0  0  0  0  0  0  0  0  0  0
   -1.5667   -4.1748    0.0000 C   0  0  0  0  0  0  0  0  0  0  0  0
   -1.2311   -4.9284    0.0000 O   0  0  0  0  0  0  0  0  0  0  0  0
   -2.3871   -4.0885    0.0000 O   0  0  0  0  0  0  0  0  0  0  0  0
   -1.9488    1.6583    0.0000 N   0  0  0  0  0  0  0  0  0  0  0  0
   -1.9488    2.4833    0.0000 C   0  0  0  0  0  0  0  0  0  0  0  0
   -1.2343    2.8958    0.0000 C   0  0  0  0  0  0  0  0  0  0  0  0
   -1.2343    3.7208    0.0000 C   0  0  0  0  0  0  0  0  0  0  0  0
   -0.5199    4.1333    0.0000 C   0  0  0  0  0  0  0  0  0  0  0  0
    0.1946    3.7208    0.0000 C   0  0  0  0  0  0  0  0  0  0  0  0
    0.1946    2.8958    0.0000 C   0  0  0  0  0  0  0  0  0  0  0  0
   -0.5199    2.4833    0.0000 C   0  0  0  0  0  0  0  0  0  0  0  0
  1  2  1  0
  1  5  1  0
  2  3  2  0
  2  6  1  0
  3  4  1  0
  3 16  1  0
  4  5  2  0
  4 15  1  0
  5  9  1  0
  6  7  1  0
  6  8  2  0
  9 10  2  0
  9 14  1  0
 10 11  1  0
 11 12  2  0
 11 21  1  0
 12 13  1  0
 13 14  2  0
 16 17  1  0
 17 18  1  0
 18 19  1  0
 18 20  2  0
 21 22  1  0
 22 23  1  0
 23 24  2  0
 23 28  1  0
 24 25  1  0
 25 26  2  0
 26 27  1  0
 27 28  2  0
M  END
>  <DRUGBANK_ID>  (1) 
DB07289

>  <COMMON_NAME>  (1) 
5-[3-(BENZYLAMINO)PHENYL]-4-BROMO-3-(CARBOXYMETHOXY)THIOPHENE-2-CARBOXYLIC ACID

$$$$
