
     RDKit          2D

 14 14  0  0  0  0  0  0  0  0999 V2000
    0.3695   -0.4011    0.0000 C   0  0  0  0  0  0  0  0  0  0  0  0
   -0.3351    0.0114    0.0000 C   0  0  0  0  0  0  0  0  0  0  0  0
   -1.0742   -0.4125    0.0000 C   0  0  0  0  0  0  0  0  0  0  0  0
    0.3695   -1.2375    0.0000 O   0  0  0  0  0  0  0  0  0  0  0  0
    1.0915    0.0114    0.0000 N   0  0  0  0  0  0  0  0  0  0  0  0
   -1.8133   -0.0057    0.0000 C   0  0  0  0  0  0  0  0  0  0  0  0
    3.2400   -0.4011    0.0000 O   0  0  0  0  0  0  0  0  0  0  0  0
    1.8133   -0.4011    0.0000 C   0  0  0  0  0  0  0  0  0  0  0  0
    2.5294    0.0114    0.0000 C   0  0  0  0  0  0  0  0  0  0  0  0
   -2.5238   -0.4125    0.0000 C   0  0  0  0  0  0  0  0  0  0  0  0
   -1.8133    0.8193    0.0000 C   0  0  0  0  0  0  0  0  0  0  0  0
   -2.5181    1.2375    0.0000 C   0  0  0  0  0  0  0  0  0  0  0  0
   -3.2400   -0.0057    0.0000 C   0  0  0  0  0  0  0  0  0  0  0  0
   -3.2400    0.8078    0.0000 C   0  0  0  0  0  0  0  0  0  0  0  0
  2  1  1  0
  3  2  2  0
  4  1  2  0
  5  1  1  0
  6  3  1  0
  7  9  1  0
  8  5  1  0
  9  8  1  0
 10  6  2  0
 11  6  1  0
 12 11  2  0
 13 10  1  0
 14 12  1  0
 14 13  2  0
M  END
>  <DRUGBANK_ID>  (1) 
DB13297

>  <COMMON_NAME>  (1) 
Idrocilamide

>  <CAS_NUMBER>  (1) 
6961-46-2

>  <UNII>  (1) 
6C816LUB1O

>  <SYNONYMS>  (1) 
Idrocilamide; N-(2-hydroxyethyl)cinnamamide

$$$$
