LK3
     RDKit          2D

 29 30  0  0  0  0  0  0  0  0999 V2000
    1.3199    0.9804    0.0000 O   0  0  0  0  0  0  0  0  0  0  0  0
    0.9074    0.2659    0.0000 S   0  0  0  0  0  0  0  0  0  0  0  0
    0.4949   -0.4485    0.0000 O   0  0  0  0  0  0  0  0  0  0  0  0
    1.6218   -0.1466    0.0000 N   0  0  0  0  0  0  0  0  0  0  0  0
    2.3363    0.2659    0.0000 C   0  0  0  0  0  0  0  0  0  0  0  0
    2.3363    1.0909    0.0000 C   0  0  0  0  0  0  0  0  0  0  0  0
    3.0508    1.5034    0.0000 O   0  0  0  0  0  0  0  0  0  0  0  0
    1.6218    1.5034    0.0000 O   0  0  0  0  0  0  0  0  0  0  0  0
    3.0508   -0.1466    0.0000 C   0  0  0  0  0  0  0  0  0  0  0  0
    3.7652    0.2659    0.0000 C   0  0  0  0  0  0  0  0  0  0  0  0
    4.4797   -0.1466    0.0000 C   0  0  0  0  0  0  0  0  0  0  0  0
    5.1942    0.2659    0.0000 O   0  0  0  0  0  0  0  0  0  0  0  0
    4.4797   -0.9716    0.0000 O   0  0  0  0  0  0  0  0  0  0  0  0
    0.1929    0.6784    0.0000 C   0  0  0  0  0  0  0  0  0  0  0  0
   -0.5216    0.2659    0.0000 C   0  0  0  0  0  0  0  0  0  0  0  0
   -1.2361    0.6784    0.0000 C   0  0  0  0  0  0  0  0  0  0  0  0
   -1.2361    1.5034    0.0000 C   0  0  0  0  0  0  0  0  0  0  0  0
   -1.9505    1.9159    0.0000 C   0  0  0  0  0  0  0  0  0  0  0  0
   -1.9505    2.7409    0.0000 C   0  0  0  0  0  0  0  0  0  0  0  0
   -1.2361    3.1534    0.0000 C   0  0  0  0  0  0  0  0  0  0  0  0
   -0.5216    2.7409    0.0000 C   0  0  0  0  0  0  0  0  0  0  0  0
   -0.5216    1.9159    0.0000 C   0  0  0  0  0  0  0  0  0  0  0  0
    0.1929    1.5034    0.0000 C   0  0  0  0  0  0  0  0  0  0  0  0
   -2.6650    3.1534    0.0000 O   0  0  0  0  0  0  0  0  0  0  0  0
   -3.3795    2.7409    0.0000 C   0  0  0  0  0  0  0  0  0  0  0  0
   -4.0939    3.1534    0.0000 C   0  0  0  0  0  0  0  0  0  0  0  0
   -4.8084    2.7409    0.0000 C   0  0  0  0  0  0  0  0  0  0  0  0
   -5.5229    3.1534    0.0000 C   0  0  0  0  0  0  0  0  0  0  0  0
   -6.2374    2.7409    0.0000 C   0  0  0  0  0  0  0  0  0  0  0  0
  2  4  1  0
  2 14  1  0
  2  1  2  0
  3  2  2  0
  5  4  1  0
  5  6  1  0
  5  9  1  1
  6  7  1  0
  6  8  2  0
  9 10  1  0
 10 11  1  0
 11 12  2  0
 11 13  1  0
 14 15  2  0
 14 23  1  0
 15 16  1  0
 16 17  2  0
 17 18  1  0
 17 22  1  0
 18 19  2  0
 19 20  1  0
 19 24  1  0
 20 21  2  0
 21 22  1  0
 22 23  2  0
 24 25  1  0
 25 26  1  0
 26 27  1  0
 27 28  1  0
 28 29  1  0
M  END
>  <DRUGBANK_ID>  (1) 
DB08107

>  <COMMON_NAME>  (1) 
N-{[6-(PENTYLOXY)NAPHTHALEN-2-YL]SULFONYL}-D-GLUTAMIC ACID

$$$$
