
     RDKit          2D

 16 16  0  0  0  0  0  0  0  0999 V2000
   -0.2387    0.7568    0.0000 O   0  0  0  0  0  0  0  0  0  0  0  0
    0.4757    0.3443    0.0000 C   0  0  0  0  0  0  0  0  0  0  0  0
    0.4757   -0.4807    0.0000 C   0  0  0  0  0  0  0  0  0  0  0  0
    1.1902   -0.8932    0.0000 O   0  0  0  0  0  0  0  0  0  0  0  0
   -0.2387   -0.8932    0.0000 C   0  0  0  0  0  0  0  0  0  0  0  0
   -0.2387   -1.7182    0.0000 O   0  0  0  0  0  0  0  0  0  0  0  0
   -0.9532   -0.4807    0.0000 C   0  0  0  0  0  0  0  0  0  0  0  0
   -1.6677   -0.8932    0.0000 O   0  0  0  0  0  0  0  0  0  0  0  0
   -0.9532    0.3443    0.0000 C   0  0  0  0  0  0  0  0  0  0  0  0
   -1.6677    0.7568    0.0000 C   0  0  0  0  0  0  0  0  0  0  0  0
   -2.3822    0.3443    0.0000 O   0  0  0  0  0  0  0  0  0  0  0  0
    1.1902    0.7568    0.0000 O   0  0  0  0  0  0  0  0  0  0  0  0
    2.0152    1.5818    0.0000 O   0  0  0  0  0  0  0  0  0  0  0  0
    2.8402    0.7568    0.0000 O   0  0  0  0  0  0  0  0  0  0  0  0
    2.0152    0.7568    0.0000 P   0  0  0  0  0  0  0  0  0  0  0  0
    2.0152   -0.0682    0.0000 O   0  0  0  0  0  0  0  0  0  0  0  0
  1  9  1  0
  1  2  1  0
  2 12  1  0
  3  2  1  0
  3  4  1  1
  5  3  1  0
  5  6  1  1
  7  5  1  0
  7  8  1  6
  9  7  1  0
  9 10  1  1
 10 11  1  0
 12 15  1  0
 15 13  2  0
 15 14  1  0
 15 16  1  0
M  END
>  <DRUGBANK_ID>  (1) 
DB02867

>  <SECONDARY_ACCESSION_NUMBERS>  (1) 
EXPT02084

>  <COMMON_NAME>  (1) 
D-Mannose 1-phosphate

>  <CAS_NUMBER>  (1) 
27251-84-9

>  <SYNONYMS>  (1) 
D-Mannose 1-phosphate; D-mannose 1-phosphates; Mannose 1-phosphate

$$$$
