UC3
     RDKit          2D

 20 20  0  0  0  0  0  0  0  0999 V2000
    0.7579    1.2176    0.0000 C   0  0  0  0  0  0  0  0  0  0  0  0
    0.7579    0.3926    0.0000 S   0  0  0  0  0  0  0  0  0  0  0  0
    0.0435    1.6301    0.0000 N   0  0  0  0  0  0  0  0  0  0  0  0
   -0.6710    1.2176    0.0000 C   0  0  0  0  0  0  0  0  0  0  0  0
   -0.6710    0.3926    0.0000 C   0  0  0  0  0  0  0  0  0  0  0  0
   -1.3855   -0.0199    0.0000 C   0  0  0  0  0  0  0  0  0  0  0  0
   -2.1000    0.3926    0.0000 C   0  0  0  0  0  0  0  0  0  0  0  0
   -2.8144   -0.0199    0.0000 Cl  0  0  0  0  0  0  0  0  0  0  0  0
   -2.1000    1.2176    0.0000 C   0  0  0  0  0  0  0  0  0  0  0  0
   -1.3855    1.6301    0.0000 C   0  0  0  0  0  0  0  0  0  0  0  0
   -1.3855   -0.8449    0.0000 C   0  0  0  0  0  0  0  0  0  0  0  0
   -2.1000   -1.2574    0.0000 O   0  0  0  0  0  0  0  0  0  0  0  0
   -0.6710   -1.2574    0.0000 O   0  0  0  0  0  0  0  0  0  0  0  0
   -2.1000   -2.0824    0.0000 C   0  0  0  0  0  0  0  0  0  0  0  0
   -2.8144   -2.4949    0.0000 C   0  0  0  0  0  0  0  0  0  0  0  0
   -1.3855   -2.4949    0.0000 C   0  0  0  0  0  0  0  0  0  0  0  0
    1.4724    1.6301    0.0000 O   0  0  0  0  0  0  0  0  0  0  0  0
    2.1869    1.2176    0.0000 C   0  0  0  0  0  0  0  0  0  0  0  0
    2.9013    1.6301    0.0000 C   0  0  0  0  0  0  0  0  0  0  0  0
    2.1869    0.3926    0.0000 C   0  0  0  0  0  0  0  0  0  0  0  0
  1  2  2  0
  1  3  1  0
  1 17  1  0
  3  4  1  0
  4  5  2  0
  4 10  1  0
  5  6  1  0
  6  7  2  0
  6 11  1  0
  7  8  1  0
  7  9  1  0
  9 10  2  0
 11 12  1  0
 11 13  2  0
 12 14  1  0
 14 15  1  0
 14 16  1  0
 17 18  1  0
 18 19  1  0
 18 20  1  0
M  END
>  <DRUGBANK_ID>  (1) 
DB08681

>  <COMMON_NAME>  (1) 
1-METHYL ETHYL 2-CHLORO-5-[[[(1-METHYLETHOXY)THIOOXO]METHYL]AMINO]-BENZOATE

$$$$
