
     RDKit          2D

 29 32  0  0  0  0  0  0  0  0999 V2000
    3.3565   -1.2078    0.0000 N   0  0  0  0  0  0  0  0  0  0  0  0
    2.6419   -1.6203    0.0000 C   0  0  0  0  0  0  0  0  0  0  0  0
    2.6419   -2.4453    0.0000 N   0  0  0  0  0  0  0  0  0  0  0  0
    1.9275   -2.8578    0.0000 C   0  0  0  0  0  0  0  0  0  0  0  0
    1.9275   -3.6828    0.0000 O   0  0  0  0  0  0  0  0  0  0  0  0
    1.2129   -2.4453    0.0000 C   0  0  0  0  0  0  0  0  0  0  0  0
    0.4283   -2.7003    0.0000 N   0  0  0  0  0  0  0  0  0  0  0  0
   -0.0565   -2.0328    0.0000 N   0  0  0  0  0  0  0  0  0  0  0  0
    0.4283   -1.3654    0.0000 N   0  0  0  0  0  0  0  0  0  0  0  0
    1.2129   -1.6203    0.0000 C   0  0  0  0  0  0  0  0  0  0  0  0
    1.9275   -1.2078    0.0000 N   0  0  0  0  0  0  0  0  0  0  0  0
   -0.8815   -2.0328    0.0000 C   0  0  0  0  0  0  0  0  0  0  0  0
   -1.2940   -2.7473    0.0000 C   0  0  0  0  0  0  0  0  0  0  0  0
   -2.1190   -2.7473    0.0000 C   0  0  0  0  0  0  0  0  0  0  0  0
   -2.5315   -2.0328    0.0000 C   0  0  0  0  0  0  0  0  0  0  0  0
   -2.1190   -1.3184    0.0000 C   0  0  0  0  0  0  0  0  0  0  0  0
   -1.2940   -1.3184    0.0000 C   0  0  0  0  0  0  0  0  0  0  0  0
   -2.5315   -0.6039    0.0000 C   0  0  0  0  0  0  0  0  0  0  0  0
   -3.3565   -0.6039    0.0000 O   0  0  0  0  0  0  0  0  0  0  0  0
   -2.1190    0.1105    0.0000 N   0  0  0  0  0  0  0  0  0  0  0  0
   -2.5315    0.8249    0.0000 C   0  0  0  0  0  0  0  0  0  0  0  0
   -2.1190    1.5394    0.0000 C   0  0  0  0  0  0  0  0  0  0  0  0
   -2.5315    2.2539    0.0000 C   0  0  0  0  0  0  0  0  0  0  0  0
   -2.1190    2.9684    0.0000 C   0  0  0  0  0  0  0  0  0  0  0  0
   -2.5315    3.6828    0.0000 Cl  0  0  0  0  0  0  0  0  0  0  0  0
   -1.2940    2.9684    0.0000 C   0  0  0  0  0  0  0  0  0  0  0  0
   -0.8815    2.2539    0.0000 C   0  0  0  0  0  0  0  0  0  0  0  0
   -0.0565    2.2539    0.0000 Cl  0  0  0  0  0  0  0  0  0  0  0  0
   -1.2940    1.5394    0.0000 C   0  0  0  0  0  0  0  0  0  0  0  0
  2  1  1  0
  2  3  1  0
  2 11  2  0
  4  3  2  0
  4  5  1  0
  4  6  1  0
  6  7  2  0
  7  8  1  0
  8  9  1  0
 10  6  1  0
 10  9  2  0
 10 11  1  0
 12  8  1  0
 12 13  2  0
 12 17  1  0
 13 14  1  0
 14 15  2  0
 15 16  1  0
 16 17  2  0
 16 18  1  0
 18 19  2  0
 18 20  1  0
 21 20  1  0
 21 22  1  0
 22 23  2  0
 22 29  1  0
 23 24  1  0
 24 25  1  0
 24 26  2  0
 26 27  1  0
 27 28  1  0
 27 29  2  0
M  END
>  <DRUGBANK_ID>  (1) 
DB03571

>  <SECONDARY_ACCESSION_NUMBERS>  (1) 
EXPT00198

>  <COMMON_NAME>  (1) 
3-(5-amino-7-hydroxy-[1,2,3]triazolo[4,5-d]pyrimidin-2-yl)-N-(3,5-dichlorobenzyl)-benzamide

$$$$
