
     RDKit          2D

 13 12  0  0  0  0  0  0  0  0999 V2000
   -1.0110   -1.1887    0.0000 S   0  0  0  0  0  0  0  0  0  0  0  0
    2.1419   -0.0492    0.0000 S   0  0  0  0  0  0  0  0  0  0  0  0
   -0.7196    0.7689    0.0000 O   0  0  0  0  0  0  0  0  0  0  0  0
   -0.0042    1.1887    0.0000 O   0  0  0  0  0  0  0  0  0  0  0  0
    1.4266    1.1887    0.0000 O   0  0  0  0  0  0  0  0  0  0  0  0
   -0.0042   -0.4647    0.0000 N   0  0  0  0  0  0  0  0  0  0  0  0
   -1.4307   -0.4647    0.0000 C   0  0  0  0  0  0  0  0  0  0  0  0
   -0.7154   -0.0578    0.0000 C   0  0  0  0  0  0  0  0  0  0  0  0
    0.7111   -0.0536    0.0000 C   0  0  0  0  0  0  0  0  0  0  0  0
    0.7111    0.7732    0.0000 C   0  0  0  0  0  0  0  0  0  0  0  0
    1.4266   -0.4604    0.0000 C   0  0  0  0  0  0  0  0  0  0  0  0
   -2.1419   -0.0578    0.0000 C   0  0  0  0  0  0  0  0  0  0  0  0
   -1.8634   -1.1673    0.0000 C   0  0  0  0  0  0  0  0  0  0  0  0
  1  7  1  0
  2 11  1  0
  3  8  2  0
  4 10  2  0
  5 10  1  0
  6  8  1  0
  7  8  1  0
  7 12  1  0
  7 13  1  0
  9  6  1  0
  9 10  1  0
  9 11  1  6
M  END
>  <DRUGBANK_ID>  (1) 
DB12160

>  <COMMON_NAME>  (1) 
Bucillamine

>  <CAS_NUMBER>  (1) 
65002-17-7

>  <UNII>  (1) 
R80LRA5WTF

>  <SYNONYMS>  (1) 
Bucilamina; Bucillamine; Bucillaminum

$$$$
