
     RDKit          2D

 22 23  0  0  0  0  0  0  0  0999 V2000
   -2.5006   -2.6812    0.0000 C   0  0  0  0  0  0  0  0  0  0  0  0
    1.0717   -3.0937    0.0000 C   0  0  0  0  0  0  0  0  0  0  0  0
   -1.7861   -2.2687    0.0000 C   0  0  0  0  0  0  0  0  0  0  0  0
    1.0717   -2.2687    0.0000 C   0  0  0  0  0  0  0  0  0  0  0  0
   -0.3572    2.6812    0.0000 C   0  0  0  0  0  0  0  0  0  0  0  0
   -0.3572    1.8562    0.0000 C   0  0  0  0  0  0  0  0  0  0  0  0
    1.0717    0.2062    0.0000 C   0  0  0  0  0  0  0  0  0  0  0  0
    1.7861    0.6187    0.0000 C   0  0  0  0  0  0  0  0  0  0  0  0
   -1.0717   -1.8562    0.0000 C   0  0  0  0  0  0  0  0  0  0  0  0
    0.3572    3.0937    0.0000 C   0  0  0  0  0  0  0  0  0  0  0  0
   -0.3572    0.2062    0.0000 C   0  0  0  0  0  0  0  0  0  0  0  0
    0.3572    0.6187    0.0000 C   0  0  0  0  0  0  0  0  0  0  0  0
    0.3572    1.4437    0.0000 C   0  0  0  0  0  0  0  0  0  0  0  0
   -0.3572   -0.6187    0.0000 C   0  0  0  0  0  0  0  0  0  0  0  0
    1.7861    1.4437    0.0000 C   0  0  0  0  0  0  0  0  0  0  0  0
    1.0717    1.8562    0.0000 C   0  0  0  0  0  0  0  0  0  0  0  0
    0.3572   -1.0312    0.0000 C   0  0  0  0  0  0  0  0  0  0  0  0
   -1.0717   -1.0312    0.0000 N   0  0  0  0  0  0  0  0  0  0  0  0
    1.0717    2.6812    0.0000 N   0  0  0  0  0  0  0  0  0  0  0  0
    2.5006    1.8562    0.0000 O   0  0  0  0  0  0  0  0  0  0  0  0
    1.0717   -0.6187    0.0000 O   0  0  0  0  0  0  0  0  0  0  0  0
    0.3572   -1.8562    0.0000 O   0  0  0  0  0  0  0  0  0  0  0  0
  3  1  3  0
  4  2  1  0
  6  5  2  0
  8  7  2  0
  9  3  1  0
 10  5  1  0
 12  7  1  0
 12 11  1  0
 13  6  1  0
 13 12  2  0
 14 11  1  0
 15  8  1  0
 16 13  1  0
 16 15  2  0
 17 14  1  0
 18  9  1  0
 18 14  1  0
 19 10  2  0
 19 16  1  0
 20 15  1  0
 21 17  2  0
 22  4  1  0
 22 17  1  0
M  END
>  <DRUGBANK_ID>  (1) 
DB14701

>  <COMMON_NAME>  (1) 
Ethyl 8-hydroxy-alpha-(2-propynylamino)-5-quinolinepropanoate

>  <CAS_NUMBER>  (1) 
686723-15-9

>  <UNII>  (1) 
R333AH7MH1

>  <SYNONYMS>  (1) 
5-Quinolinepropanoic acid, 8-hydroxy-alpha-(2-propyn-1-ylamino)-, ethyl ester; Ethyl 8-hydroxy-alpha-(2-propynylamino)-5-quinolinepropanoate

$$$$
