
     RDKit          2D

 29 31  0  0  0  0  0  0  0  0999 V2000
   -0.5109    2.4047    0.0000 C   0  0  0  0  0  0  0  0  0  0  0  0
   -1.2254    1.9922    0.0000 N   0  0  0  0  0  0  0  0  0  0  0  0
   -0.5110    0.7547    0.0000 N   0  0  0  0  0  0  0  0  0  0  0  0
    0.2034    1.1672    0.0000 C   0  0  0  0  0  0  0  0  0  0  0  0
    0.2034    1.9922    0.0000 C   0  0  0  0  0  0  0  0  0  0  0  0
    1.4730    1.5795    0.0000 C   0  0  0  0  0  0  0  0  0  0  0  0
    0.9879    0.9122    0.0000 N   0  0  0  0  0  0  0  0  0  0  0  0
    1.2429    0.1273    0.0000 C   0  0  0  0  0  0  0  0  0  0  0  0
    0.7580   -0.5399    0.0000 O   0  0  0  0  0  0  0  0  0  0  0  0
    1.2429   -1.2075    0.0000 C   0  0  0  0  0  0  0  0  0  0  0  0
    2.0274   -0.9525    0.0000 C   0  0  0  0  0  0  0  0  0  0  0  0
    2.6949   -1.4375    0.0000 O   0  0  0  0  0  0  0  0  0  0  0  0
    2.0276   -0.1275    0.0000 C   0  0  0  0  0  0  0  0  0  0  0  0
    2.6949    0.3574    0.0000 O   0  0  0  0  0  0  0  0  0  0  0  0
    0.1629   -1.9922    0.0000 O   0  0  0  0  0  0  0  0  0  0  0  0
   -0.5515   -3.2296    0.0000 O   0  0  0  0  0  0  0  0  0  0  0  0
   -0.5515   -2.4047    0.0000 P   0  0  0  0  0  0  0  0  0  0  0  0
   -0.5515   -1.5796    0.0000 O   0  0  0  0  0  0  0  0  0  0  0  0
   -1.2659   -1.9922    0.0000 O   0  0  0  0  0  0  0  0  0  0  0  0
   -1.9804   -3.2296    0.0000 O   0  0  0  0  0  0  0  0  0  0  0  0
   -1.9804   -2.4047    0.0000 P   0  0  0  0  0  0  0  0  0  0  0  0
   -1.9804   -1.5599    0.0000 O   0  0  0  0  0  0  0  0  0  0  0  0
   -2.6949   -1.9922    0.0000 O   0  0  0  0  0  0  0  0  0  0  0  0
    0.9879   -1.9922    0.0000 C   0  0  0  0  0  0  0  0  0  0  0  0
   -1.2255    1.1672    0.0000 C   0  0  0  0  0  0  0  0  0  0  0  0
   -1.9400    0.7547    0.0000 N   0  0  0  0  0  0  0  0  0  0  0  0
   -0.5109    3.2297    0.0000 O   0  0  0  0  0  0  0  0  0  0  0  0
    0.9879    2.2470    0.0000 N   0  0  0  0  0  0  0  0  0  0  0  0
    1.2015    3.0439    0.0000 C   0  0  0  0  0  0  0  0  0  0  0  0
  1  2  1  0
  1  5  1  0
  2 25  1  0
  3  4  1  0
  4  5  2  0
  4  7  1  0
  5 28  1  0
  6  7  1  0
  8  7  1  1
  8  9  1  0
  8 13  1  0
  9 10  1  0
 10 24  1  1
 10 11  1  0
 11 12  1  6
 11 13  1  0
 13 14  1  6
 15 17  1  0
 17 16  2  0
 17 19  1  0
 17 18  1  0
 19 21  1  0
 21 20  2  0
 21 23  1  0
 21 22  1  0
 24 15  1  0
 25  3  2  0
 25 26  1  0
 27  1  2  0
 28  6  1  0
 28 29  1  0
M  END
>  <DRUGBANK_ID>  (1) 
DB01960

>  <SECONDARY_ACCESSION_NUMBERS>  (1) 
EXPT02090; EXPT02143

>  <COMMON_NAME>  (1) 
7-methyl-7,8-dihydroguanosine-5'-diphosphate

>  <CAS_NUMBER>  (1) 
104809-16-7

$$$$
