1AD
     RDKit          2D

 19 20  0  0  0  0  0  0  0  0999 V2000
    1.5466    0.3688    0.0000 C   0  0  0  0  0  0  0  0  0  0  0  0
    1.1341   -0.9008    0.0000 C   0  0  0  0  0  0  0  0  0  0  0  0
    0.0946    0.1388    0.0000 C   0  0  0  0  0  0  0  0  0  0  0  0
    2.2141   -0.1161    0.0000 C   0  0  0  0  0  0  0  0  0  0  0  0
    1.5466    1.1938    0.0000 C   0  0  0  0  0  0  0  0  0  0  0  0
    1.9591   -0.9008    0.0000 C   0  0  0  0  0  0  0  0  0  0  0  0
    0.6492   -1.5682    0.0000 C   0  0  0  0  0  0  0  0  0  0  0  0
   -0.5185   -0.4132    0.0000 C   0  0  0  0  0  0  0  0  0  0  0  0
    0.8792   -0.1161    0.0000 N   0  0  0  0  0  0  0  0  0  0  0  0
   -0.0770    0.9458    0.0000 O   0  0  0  0  0  0  0  0  0  0  0  0
    1.5466    2.0188    0.0000 C   0  0  0  0  0  0  0  0  0  0  0  0
    0.9848   -2.3219    0.0000 N   0  0  0  0  0  0  0  0  0  0  0  0
   -1.3031   -0.1583    0.0000 C   0  0  0  0  0  0  0  0  0  0  0  0
   -0.3470   -1.2202    0.0000 N   0  0  0  0  0  0  0  0  0  0  0  0
    1.5466    2.8438    0.0000 C   0  0  0  0  0  0  0  0  0  0  0  0
   -1.9706   -0.6432    0.0000 C   0  0  0  0  0  0  0  0  0  0  0  0
   -1.5581    0.6263    0.0000 C   0  0  0  0  0  0  0  0  0  0  0  0
   -2.6380   -0.1583    0.0000 C   0  0  0  0  0  0  0  0  0  0  0  0
   -2.3831    0.6263    0.0000 C   0  0  0  0  0  0  0  0  0  0  0  0
  1  4  1  0
  1  5  1  1
  1  9  1  0
  2  6  1  0
  2  7  1  1
  2  9  1  0
  3  8  1  0
  3  9  1  0
  3 10  2  0
  4  6  1  0
  5 11  3  0
  7 12  1  0
  8 13  1  0
  8 14  1  1
 11 15  1  0
 13 16  1  0
 13 17  1  0
 16 18  1  0
 17 19  1  0
 18 19  1  0
M  END
>  <DRUGBANK_ID>  (1) 
DB06880

>  <COMMON_NAME>  (1) 
(1S)-2-[(2S,5R)-2-(AMINOMETHYL)-5-PROP-1-YN-1-YLPYRROLIDIN-1-YL]-1-CYCLOPENTYL-2-OXOETHANAMINE

$$$$
