
     RDKit          2D

 23 25  0  0  0  0  0  0  0  0999 V2000
    0.7145   -4.5375    0.0000 C   0  0  0  0  0  0  0  0  0  0  0  0
    0.7145   -5.3625    0.0000 C   0  0  0  0  0  0  0  0  0  0  0  0
    1.3819   -5.8474    0.0000 N   0  0  0  0  0  0  0  0  0  0  0  0
    1.1270   -6.6320    0.0000 C   0  0  0  0  0  0  0  0  0  0  0  0
    0.3020   -6.6320    0.0000 C   0  0  0  0  0  0  0  0  0  0  0  0
    0.0470   -5.8474    0.0000 S   0  0  0  0  0  0  0  0  0  0  0  0
    1.6119   -7.2995    0.0000 C   0  0  0  0  0  0  0  0  0  0  0  0
    2.0968   -7.9669    0.0000 C   0  0  0  0  0  0  0  0  0  0  0  0
    2.5817   -8.6344    0.0000 C   0  0  0  0  0  0  0  0  0  0  0  0
    3.4022   -8.5481    0.0000 C   0  0  0  0  0  0  0  0  0  0  0  0
    3.8871   -9.2156    0.0000 C   0  0  0  0  0  0  0  0  0  0  0  0
    3.5516   -9.9692    0.0000 C   0  0  0  0  0  0  0  0  0  0  0  0
    2.7311  -10.0555    0.0000 N   0  0  0  0  0  0  0  0  0  0  0  0
    2.2462   -9.3880    0.0000 C   0  0  0  0  0  0  0  0  0  0  0  0
    4.0365  -10.6367    0.0000 C   0  0  0  0  0  0  0  0  0  0  0  0
    4.8570  -10.5504    0.0000 C   0  0  0  0  0  0  0  0  0  0  0  0
    5.3419  -11.2179    0.0000 C   0  0  0  0  0  0  0  0  0  0  0  0
    5.0064  -11.9716    0.0000 C   0  0  0  0  0  0  0  0  0  0  0  0
    4.1859  -12.0578    0.0000 C   0  0  0  0  0  0  0  0  0  0  0  0
    3.8503  -12.8115    0.0000 F   0  0  0  0  0  0  0  0  0  0  0  0
    3.7010  -11.3904    0.0000 C   0  0  0  0  0  0  0  0  0  0  0  0
    6.1624  -11.1316    0.0000 C   0  0  0  0  0  0  0  0  0  0  0  0
    6.9829  -11.0454    0.0000 N   0  0  0  0  0  0  0  0  0  0  0  0
  1  2  1  0
  2  3  2  0
  2  6  1  0
  3  4  1  0
  4  5  2  0
  4  7  1  0
  5  6  1  0
  7  8  3  0
  8  9  1  0
  9 10  2  0
  9 14  1  0
 10 11  1  0
 11 12  2  0
 12 13  1  0
 12 15  1  0
 13 14  2  0
 15 16  2  0
 15 21  1  0
 16 17  1  0
 17 18  2  0
 17 22  1  0
 18 19  1  0
 19 20  1  0
 19 21  2  0
 22 23  3  0
M  END
>  <DRUGBANK_ID>  (1) 
DB16943

>  <COMMON_NAME>  (1) 
STX-107

>  <CAS_NUMBER>  (1) 
935685-90-8

>  <UNII>  (1) 
O55CA1TU5D

>  <SYNONYMS>  (1) 
3-Fluoro-5-(5-((2-methylthiazol-4-yl)ethynyl)pyridin-2-yl)benzonitrile; 3-fluoro-5-[5-[2-(2-methyl-1,3-thiazol-4-yl)ethynyl]pyridin-2-yl]benzonitrile

$$$$
