
     RDKit          2D

 16 17  0  0  1  0  0  0  0  0999 V2000
    0.7144    0.9328    0.0000 C   0  0  0  0  0  0  0  0  0  0  0  0
   -0.8974   -2.2416    0.0000 C   0  0  0  0  0  0  0  0  0  0  0  0
    0.6674   -0.7895    0.0000 C   0  0  0  0  0  0  0  0  0  0  0  0
    0.7144    1.7578    0.0000 C   0  0  0  0  0  0  0  0  0  0  0  0
    0.0000   -0.3046    0.0000 C   0  0  0  0  0  0  0  0  0  0  0  0
   -0.4125   -1.5742    0.0000 C   0  0  0  0  0  0  0  0  0  0  0  0
    0.0000    2.1703    0.0000 C   0  0  0  0  0  0  0  0  0  0  0  0
   -0.7144    0.9328    0.0000 C   0  0  0  0  0  0  0  0  0  0  0  0
    1.4289    2.1703    0.0000 F   0  0  0  0  0  0  0  0  0  0  0  0
    0.0000    2.9953    0.0000 N   0  0  0  0  0  0  0  0  0  0  0  0
   -0.7144    1.7578    0.0000 N   0  0  0  0  0  0  0  0  0  0  0  0
    0.0000    0.5203    0.0000 N   0  0  0  0  0  0  0  0  0  0  0  0
   -0.5618   -2.9953    0.0000 O   0  0  0  0  0  0  0  0  0  0  0  0
   -1.4289    0.5203    0.0000 O   0  0  0  0  0  0  0  0  0  0  0  0
   -0.6674   -0.7895    0.0000 O   0  0  0  0  0  0  0  0  0  0  0  0
    0.4125   -1.5742    0.0000 S   0  0  0  0  0  0  0  0  0  0  0  0
  4  1  2  0
  5  3  1  0
  5 12  1  6
  5 15  1  0
  6  2  1  6
  6 15  1  0
  6 16  1  0
  7  4  1  0
  9  4  1  0
 10  7  2  0
 11  7  1  0
 11  8  2  0
 12  1  1  0
 12  8  1  0
 13  2  1  0
 14  8  1  0
 16  3  1  0
M  END
>  <DRUGBANK_ID>  (1) 
DB00879

>  <SECONDARY_ACCESSION_NUMBERS>  (1) 
APRD00226

>  <COMMON_NAME>  (1) 
Emtricitabine

>  <CAS_NUMBER>  (1) 
143491-57-0

>  <UNII>  (1) 
G70B4ETF4S

>  <SYNONYMS>  (1) 
(−)-(2R,5S)-5-fluoro-1-[2-(hydroxymethyl)-1,3-oxathiolan-5-yl]cytosine; (−)-2'-deoxy-5-fluoro-3'-thiacytidine; (−)-cis-4-amino-5-fluoro-1-(2-hydroxymethyl-1,3-oxathiolan-5-yl)-(1H)-pyrimidin-2-one; (−)-FTC; (−)-β-2',3'-dideoxy-5-fluoro-3'-thiacytidine; (2R-cis)-4-amino-5-fluoro-1-(2-(hydroxymethyl)-1,3-oxathiolan-5-yl)-2(1H)-pyrimidinone; 4-amino-5-fluoro-1-((2R,5S)-2-(hydroxymethyl)-1,3-oxathiolan-5-yl)pyrimidin-2(1H)-one; 4-Amino-5-fluoro-1-((2R,5S)-2-hydroxymethyl-[1,3]oxathiolan-5-yl)-1H-pyrimidin-2-one; 5-fluoro-1-((2R,5S)-2-(hydroxymethyl)-1,3-oxathiolan-5-yl)cytosine; Emtricitabin; Emtricitabina; Emtricitabine; Emtricitabinum

$$$$
