
     RDKit          2D

 12 12  0  0  1  0  0  0  0  0999 V2000
    1.4289   -0.0000    0.0000 C   0  0  0  0  0  0  0  0  0  0  0  0
    1.4289    0.8250    0.0000 C   0  0  0  0  0  0  0  0  0  0  0  0
    0.0000    0.8250    0.0000 C   0  0  0  0  0  0  0  0  0  0  0  0
    0.7145   -0.4125    0.0000 C   0  0  0  0  0  0  0  0  0  0  0  0
    0.0000   -0.0000    0.0000 C   0  0  0  0  0  0  0  0  0  0  0  0
    1.1018    1.9659    0.0000 C   0  0  0  0  0  0  0  0  0  0  0  0
    0.7145    1.2375    0.0000 C   0  0  0  0  0  0  0  0  0  0  0  0
    0.7145   -1.2375    0.0000 O   0  0  0  0  0  0  0  0  0  0  0  0
   -0.7145   -0.4125    0.0000 O   0  0  0  0  0  0  0  0  0  0  0  0
    0.6646    2.6656    0.0000 O   0  0  0  0  0  0  0  0  0  0  0  0
    1.9263    1.9947    0.0000 O   0  0  0  0  0  0  0  0  0  0  0  0
    0.3272    1.9659    0.0000 O   0  0  0  0  0  0  0  0  0  0  0  0
  2  1  2  0
  4  1  1  0
  4  8  1  1
  5  3  1  0
  5  4  1  0
  5  9  1  6
  7  2  1  0
  7  3  1  0
  7  6  1  0
  7 12  1  1
 10  6  2  0
 11  6  1  0
M  END
>  <DRUGBANK_ID>  (1) 
DB02801

>  <SECONDARY_ACCESSION_NUMBERS>  (1) 
EXPT01385

>  <COMMON_NAME>  (1) 
2,3-Anhydro-quinic acid

>  <CAS_NUMBER>  (1) 
227002-11-1

$$$$
