
     RDKit          2D

 39 44  0  0  0  0  0  0  0  0999 V2000
   -5.2300   -1.4124    0.0000 C   0  0  0  0  0  0  0  0  0  0  0  0
   -4.8175   -0.6979    0.0000 O   0  0  0  0  0  0  0  0  0  0  0  0
   -3.9925   -0.6979    0.0000 C   0  0  0  0  0  0  0  0  0  0  0  0
   -3.5076   -0.0305    0.0000 N   0  0  0  0  0  0  0  0  0  0  0  0
   -2.7230   -0.2854    0.0000 N   0  0  0  0  0  0  0  0  0  0  0  0
   -1.9384   -0.0305    0.0000 C   0  0  0  0  0  0  0  0  0  0  0  0
   -1.4534   -0.6979    0.0000 C   0  0  0  0  0  0  0  0  0  0  0  0
   -1.9384   -1.3654    0.0000 N   0  0  0  0  0  0  0  0  0  0  0  0
   -2.7230   -1.1104    0.0000 C   0  0  0  0  0  0  0  0  0  0  0  0
   -3.5076   -1.3654    0.0000 S   0  0  0  0  0  0  0  0  0  0  0  0
   -0.6284   -0.6979    0.0000 C   0  0  0  0  0  0  0  0  0  0  0  0
   -0.1435   -1.3654    0.0000 C   0  0  0  0  0  0  0  0  0  0  0  0
    0.6411   -1.1104    0.0000 C   0  0  0  0  0  0  0  0  0  0  0  0
    0.6411   -0.2854    0.0000 C   0  0  0  0  0  0  0  0  0  0  0  0
   -0.1435   -0.0305    0.0000 O   0  0  0  0  0  0  0  0  0  0  0  0
    1.3556    0.1271    0.0000 C   0  0  0  0  0  0  0  0  0  0  0  0
    2.0701   -0.2854    0.0000 C   0  0  0  0  0  0  0  0  0  0  0  0
    2.7845    0.1271    0.0000 O   0  0  0  0  0  0  0  0  0  0  0  0
    3.4990   -0.2854    0.0000 C   0  0  0  0  0  0  0  0  0  0  0  0
    2.0701   -1.1104    0.0000 C   0  0  0  0  0  0  0  0  0  0  0  0
    1.3556   -1.5229    0.0000 C   0  0  0  0  0  0  0  0  0  0  0  0
    1.3556   -2.3479    0.0000 O   0  0  0  0  0  0  0  0  0  0  0  0
    0.6411   -2.7604    0.0000 C   0  0  0  0  0  0  0  0  0  0  0  0
    0.6411   -3.5854    0.0000 C   0  0  0  0  0  0  0  0  0  0  0  0
    1.3086   -4.0704    0.0000 C   0  0  0  0  0  0  0  0  0  0  0  0
    1.0536   -4.8550    0.0000 S   0  0  0  0  0  0  0  0  0  0  0  0
    0.2286   -4.8550    0.0000 C   0  0  0  0  0  0  0  0  0  0  0  0
   -0.0263   -4.0704    0.0000 N   0  0  0  0  0  0  0  0  0  0  0  0
   -0.2563   -5.5224    0.0000 C   0  0  0  0  0  0  0  0  0  0  0  0
    0.0792   -6.2761    0.0000 C   0  0  0  0  0  0  0  0  0  0  0  0
   -0.4057   -6.9435    0.0000 C   0  0  0  0  0  0  0  0  0  0  0  0
   -1.2262   -6.8573    0.0000 C   0  0  0  0  0  0  0  0  0  0  0  0
   -1.5617   -6.1036    0.0000 C   0  0  0  0  0  0  0  0  0  0  0  0
   -1.0768   -5.4362    0.0000 C   0  0  0  0  0  0  0  0  0  0  0  0
   -1.7111   -7.5247    0.0000 C   0  0  0  0  0  0  0  0  0  0  0  0
   -2.5316   -7.4385    0.0000 O   0  0  0  0  0  0  0  0  0  0  0  0
   -1.3755   -8.2784    0.0000 N   0  0  0  0  0  0  0  0  0  0  0  0
   -0.5550   -8.3647    0.0000 C   0  0  0  0  0  0  0  0  0  0  0  0
   -1.8604   -8.9459    0.0000 C   0  0  0  0  0  0  0  0  0  0  0  0
  1  2  1  0
  2  3  1  0
  3  4  2  0
  3 10  1  0
  4  5  1  0
  5  6  1  0
  5  9  1  0
  6  7  2  0
  7  8  1  0
  7 11  1  0
  8  9  2  0
  9 10  1  0
 11 12  2  0
 11 15  1  0
 12 13  1  0
 13 14  2  0
 13 21  1  0
 14 15  1  0
 14 16  1  0
 16 17  2  0
 17 18  1  0
 17 20  1  0
 18 19  1  0
 20 21  2  0
 21 22  1  0
 22 23  1  0
 23 24  1  0
 24 25  2  0
 24 28  1  0
 25 26  1  0
 26 27  1  0
 27 28  2  0
 27 29  1  0
 29 30  2  0
 29 34  1  0
 30 31  1  0
 31 32  2  0
 32 33  1  0
 32 35  1  0
 33 34  2  0
 35 36  2  0
 35 37  1  0
 37 38  1  0
 37 39  1  0
M  END
>  <DRUGBANK_ID>  (1) 
DB14942

>  <COMMON_NAME>  (1) 
BMS-986141

>  <CAS_NUMBER>  (1) 
1478711-48-6

>  <UNII>  (1) 
W530IRZ40G

$$$$
