
     RDKit          2D

 17 16  0  0  1  0  0  0  0  0999 V2000
    3.2151   -0.4125    0.0000 C   0  0  0  0  0  0  0  0  0  0  0  0
   -3.2151   -0.8250    0.0000 C   0  0  0  0  0  0  0  0  0  0  0  0
   -1.0717    0.4125    0.0000 C   0  0  0  0  0  0  0  0  0  0  0  0
   -1.7861    0.8250    0.0000 C   0  0  0  0  0  0  0  0  0  0  0  0
    1.0717   -0.8250    0.0000 C   0  0  0  0  0  0  0  0  0  0  0  0
    2.5006   -0.8250    0.0000 C   0  0  0  0  0  0  0  0  0  0  0  0
   -2.5006   -0.4125    0.0000 C   0  0  0  0  0  0  0  0  0  0  0  0
    0.3572   -0.4125    0.0000 C   0  0  0  0  0  0  0  0  0  0  0  0
   -1.0717   -0.4125    0.0000 C   0  0  0  0  0  0  0  0  0  0  0  0
   -0.3572   -0.8250    0.0000 C   0  0  0  0  0  0  0  0  0  0  0  0
   -1.7861    1.6500    0.0000 O   0  0  0  0  0  0  0  0  0  0  0  0
    2.5006   -1.6500    0.0000 O   0  0  0  0  0  0  0  0  0  0  0  0
   -2.5006    0.4125    0.0000 O   0  0  0  0  0  0  0  0  0  0  0  0
    0.3572    0.4125    0.0000 O   0  0  0  0  0  0  0  0  0  0  0  0
   -0.3572   -1.6500    0.0000 O   0  0  0  0  0  0  0  0  0  0  0  0
    1.7861   -0.4125    0.0000 O   0  0  0  0  0  0  0  0  0  0  0  0
   -1.7861   -0.8250    0.0000 O   0  0  0  0  0  0  0  0  0  0  0  0
  4  3  1  0
  6  1  1  0
  7  2  1  0
  8  5  1  0
  8 14  1  6
  9  3  1  6
  9 17  1  0
 10  8  1  0
 10  9  1  0
 10 15  1  1
 11  4  2  0
 12  6  2  0
 13  7  2  0
 16  5  1  0
 16  6  1  0
 17  7  1  0
M  END
>  <DRUGBANK_ID>  (1) 
DB17192

>  <COMMON_NAME>  (1) 
WP-1122

>  <UNII>  (1) 
54EAA28C5Y

>  <SYNONYMS>  (1) 
3,6-di-O-acetyl-2-deoxy-D-glucopyranose; an acetic acid diester of 2-deoxy-D-glucose

$$$$
