
     RDKit          2D

 23 25  0  0  1  0  0  0  0  0999 V2000
   -0.4672    3.4789    0.0000 C   0  0  0  0  0  0  0  0  0  0  0  0
    0.3453    3.6222    0.0000 C   0  0  0  0  0  0  0  0  0  0  0  0
    0.6274    4.3974    0.0000 C   0  0  0  0  0  0  0  0  0  0  0  0
    1.4399    4.5407    0.0000 C   0  0  0  0  0  0  0  0  0  0  0  0
    1.9702    3.9087    0.0000 C   0  0  0  0  0  0  0  0  0  0  0  0
    1.6880    3.1335    0.0000 C   0  0  0  0  0  0  0  0  0  0  0  0
    0.8756    2.9902    0.0000 C   0  0  0  0  0  0  0  0  0  0  0  0
    2.2183    2.5015    0.0000 C   0  0  0  0  0  0  0  0  0  0  0  0
    2.7486    1.8695    0.0000 C   0  0  0  0  0  0  0  0  0  0  0  0
    3.2789    1.2375    0.0000 C   0  0  0  0  0  0  0  0  0  0  0  0
    3.9934    0.8250    0.0000 C   0  0  0  0  0  0  0  0  0  0  0  0
    3.9934    0.0000    0.0000 C   0  0  0  0  0  0  0  0  0  0  0  0
    3.2789   -0.4125    0.0000 C   0  0  0  0  0  0  0  0  0  0  0  0
    2.5645    0.0000    0.0000 C   0  0  0  0  0  0  0  0  0  0  0  0
    2.5645    0.8250    0.0000 C   0  0  0  0  0  0  0  0  0  0  0  0
    1.7798    1.0799    0.0000 C   0  0  0  0  0  0  0  0  0  0  0  0
    1.2949    0.4125    0.0000 C   0  0  0  0  0  0  0  0  0  0  0  0
    1.7798   -0.2549    0.0000 N   0  0  0  0  0  0  0  0  0  0  0  0
    1.5249   -1.0396    0.0000 C   0  0  0  0  0  0  0  0  0  0  0  0
    2.0769   -1.6527    0.0000 O   0  0  0  0  0  0  0  0  0  0  0  0
    0.7179   -1.2111    0.0000 O   0  0  0  0  0  0  0  0  0  0  0  0
    0.4630   -1.9957    0.0000 C   0  0  0  0  0  0  0  0  0  0  0  0
    3.8092    1.8695    0.0000 O   0  0  0  0  0  0  0  0  0  0  0  0
  1  2  1  0
  2  3  2  0
  2  7  1  0
  3  4  1  0
  4  5  2  0
  5  6  1  0
  6  7  2  0
  6  8  1  0
  8  9  3  0
 10  9  1  0
 10 11  1  0
 10 15  1  0
 10 23  1  1
 11 12  1  0
 12 13  1  0
 14 13  1  1
 14 15  1  0
 14 18  1  0
 15 16  1  1
 16 17  1  0
 17 18  1  0
 18 19  1  0
 19 20  2  0
 19 21  1  0
 21 22  1  0
M  END
>  <DRUGBANK_ID>  (1) 
DB13004

>  <COMMON_NAME>  (1) 
Mavoglurant

>  <CAS_NUMBER>  (1) 
543906-09-8

>  <UNII>  (1) 
GT0I9SV4F6

>  <SYNONYMS>  (1) 
Mavoglurant

$$$$
