
     RDKit          2D

 24 23  0  0  0  0  0  0  0  0999 V2000
    9.7086    6.4302    0.0000 C   0  0  0  0  0  0  0  0  0  0  0  0
   10.4230    6.8427    0.0000 C   0  0  0  0  0  0  0  0  0  0  0  0
   11.1375    6.4302    0.0000 C   0  0  0  0  0  0  0  0  0  0  0  0
   11.8520    6.8427    0.0000 C   0  0  0  0  0  0  0  0  0  0  0  0
   12.5664    6.4302    0.0000 C   0  0  0  0  0  0  0  0  0  0  0  0
   13.2809    6.8427    0.0000 C   0  0  0  0  0  0  0  0  0  0  0  0
   13.9954    6.4302    0.0000 C   0  0  0  0  0  0  0  0  0  0  0  0
   14.7099    6.8427    0.0000 C   0  0  0  0  0  0  0  0  0  0  0  0
   15.4243    6.4302    0.0000 C   0  0  0  0  0  0  0  0  0  0  0  0
   16.1388    6.8427    0.0000 C   0  0  0  0  0  0  0  0  0  0  0  0
   16.8533    6.4302    0.0000 C   0  0  0  0  0  0  0  0  0  0  0  0
   17.5677    6.8427    0.0000 C   0  0  0  0  0  0  0  0  0  0  0  0
   18.2822    6.4302    0.0000 C   0  0  0  0  0  0  0  0  0  0  0  0
   18.9967    6.8427    0.0000 C   0  0  0  0  0  0  0  0  0  0  0  0
   19.7112    6.4302    0.0000 C   0  0  0  0  0  0  0  0  0  0  0  0
   20.4256    6.8427    0.0000 C   0  0  0  0  0  0  0  0  0  0  0  0
   20.4256    7.6677    0.0000 O   0  0  0  0  0  0  0  0  0  0  0  0
   21.1401    6.4302    0.0000 S   0  0  0  0  0  0  0  0  0  0  0  0
   21.8546    6.8427    0.0000 C   0  0  0  0  0  0  0  0  0  0  0  0
   22.5690    6.4302    0.0000 C   0  0  0  0  0  0  0  0  0  0  0  0
   23.2835    6.8427    0.0000 N   0  0  0  0  0  0  0  0  0  0  0  0
   23.9980    6.4302    0.0000 C   0  0  0  0  0  0  0  0  0  0  0  0
   24.7124    6.8427    0.0000 C   0  0  0  0  0  0  0  0  0  0  0  0
   23.9980    5.6052    0.0000 O   0  0  0  0  0  0  0  0  0  0  0  0
  1  2  1  0
  2  3  1  0
  3  4  1  0
  4  5  1  0
  5  6  1  0
  6  7  1  0
  7  8  1  0
  8  9  1  0
  9 10  1  0
 10 11  1  0
 11 12  1  0
 12 13  1  0
 13 14  1  0
 14 15  1  0
 15 16  1  0
 16 17  2  0
 16 18  1  0
 18 19  1  0
 19 20  1  0
 20 21  1  0
 21 22  1  0
 22 23  1  0
 22 24  2  0
M  END
>  <DRUGBANK_ID>  (1) 
DB02990

>  <SECONDARY_ACCESSION_NUMBERS>  (1) 
EXPT03058

>  <COMMON_NAME>  (1) 
S-(2-Acetamidoethyl) hexadecanethioate

>  <SYNONYMS>  (1) 
C16-fatty-acyl-substrate-mimic; S-palmitoyl-N-acetylcysteamine

$$$$
