
     RDKit          2D

 10 11  0  0  0  0  0  0  0  0999 V2000
    2.0945    0.0000    0.0000 O   0  0  0  0  0  0  0  0  0  0  0  0
    1.2695    0.0000    0.0000 C   0  0  0  0  0  0  0  0  0  0  0  0
    0.7846    0.6674    0.0000 N   0  0  0  0  0  0  0  0  0  0  0  0
   -0.7846    0.6674    0.0000 N   0  0  0  0  0  0  0  0  0  0  0  0
   -1.2695    0.0000    0.0000 C   0  0  0  0  0  0  0  0  0  0  0  0
   -2.0945    0.0000    0.0000 O   0  0  0  0  0  0  0  0  0  0  0  0
   -0.7846   -0.6674    0.0000 N   0  0  0  0  0  0  0  0  0  0  0  0
    0.7846   -0.6674    0.0000 N   0  0  0  0  0  0  0  0  0  0  0  0
    0.0000    0.4125    0.0000 C   0  0  0  0  0  0  0  0  0  0  0  0
    0.0000   -0.4125    0.0000 C   0  0  0  0  0  0  0  0  0  0  0  0
  1  2  2  0
  2  3  1  0
  2  8  1  0
  9  3  1  6
  4  5  1  0
  5  6  2  0
  5  7  1  0
 10  7  1  6
  9  4  1  0
  9 10  1  0
 10  8  1  0
M  END
>  <DRUGBANK_ID>  (1) 
DB03533

>  <SECONDARY_ACCESSION_NUMBERS>  (1) 
EXPT01607

>  <COMMON_NAME>  (1) 
Acetyleneurea

>  <CAS_NUMBER>  (1) 
496-46-8

>  <UNII>  (1) 
U9H2W4OS13

>  <SYNONYMS>  (1) 
cis-glycoluril; Glycoluril; Glyoxaldiureine; Glyoxaldiurene

$$$$
