
     RDKit          2D

 16 15  0  0  0  0  0  0  0  0999 V2000
    1.7881    0.4161    0.0000 P   0  0  0  0  0  0  0  0  0  0  0  0
    2.5081    0.0029    0.0000 O   0  0  0  0  0  0  0  0  0  0  0  0
    2.2013    1.1302    0.0000 O   0  0  0  0  0  0  0  0  0  0  0  0
    0.3600   -0.4101    0.0000 O   0  0  0  0  0  0  0  0  0  0  0  0
   -2.5081    0.4161    0.0000 O   0  0  0  0  0  0  0  0  0  0  0  0
    1.3751   -0.3039    0.0000 O   0  0  0  0  0  0  0  0  0  0  0  0
   -1.7881    1.6554    0.0000 O   0  0  0  0  0  0  0  0  0  0  0  0
   -1.7881   -1.6554    0.0000 O   0  0  0  0  0  0  0  0  0  0  0  0
   -2.5081   -0.4101    0.0000 O   0  0  0  0  0  0  0  0  0  0  0  0
   -0.3599    0.8291    0.0000 N   0  0  0  0  0  0  0  0  0  0  0  0
   -1.0740    0.4161    0.0000 C   0  0  0  0  0  0  0  0  0  0  0  0
   -1.0740   -0.4101    0.0000 C   0  0  0  0  0  0  0  0  0  0  0  0
    1.0740    0.8291    0.0000 C   0  0  0  0  0  0  0  0  0  0  0  0
    0.3600    0.4161    0.0000 C   0  0  0  0  0  0  0  0  0  0  0  0
   -1.7881    0.8291    0.0000 C   0  0  0  0  0  0  0  0  0  0  0  0
   -1.7881   -0.8233    0.0000 C   0  0  0  0  0  0  0  0  0  0  0  0
  1  2  1  0
  1  3  1  0
  1  6  2  0
  1 13  1  0
  4 14  2  0
  5 15  1  0
  7 15  2  0
  8 16  1  0
  9 16  2  0
 10 14  1  0
 11 10  1  0
 11 12  1  1
 11 15  1  0
 12 16  1  0
 13 14  1  0
M  END
>  <DRUGBANK_ID>  (1) 
DB03459

>  <SECONDARY_ACCESSION_NUMBERS>  (1) 
EXPT02494

>  <COMMON_NAME>  (1) 
Sparfosic acid

>  <CAS_NUMBER>  (1) 
51321-79-0

>  <UNII>  (1) 
78QVZ7RG8L

>  <SYNONYMS>  (1) 
ácido esparfósico; Acidum sparfosicum; N-(phosphonacetyl)-L-aspartic acid; N-(phosphonoacetyl)-L-aspartic acid; N-phosphonacetyl-L-aspartic acid; PALA; phosphonoacetyl-L-aspartic acid; Sparfosic acid

$$$$
