N69
     RDKit          2D

 21 23  0  0  0  0  0  0  0  0999 V2000
    2.0302    2.5315    0.0000 N   0  0  0  0  0  0  0  0  0  0  0  0
    1.3157    2.1190    0.0000 C   0  0  0  0  0  0  0  0  0  0  0  0
    1.3157    1.2940    0.0000 N   0  0  0  0  0  0  0  0  0  0  0  0
    0.6013    2.5315    0.0000 N   0  0  0  0  0  0  0  0  0  0  0  0
   -0.1132    2.1190    0.0000 C   0  0  0  0  0  0  0  0  0  0  0  0
   -0.8978    2.3739    0.0000 N   0  0  0  0  0  0  0  0  0  0  0  0
   -1.3828    1.7065    0.0000 C   0  0  0  0  0  0  0  0  0  0  0  0
   -2.2078    1.7065    0.0000 C   0  0  0  0  0  0  0  0  0  0  0  0
   -2.6203    2.4209    0.0000 C   0  0  0  0  0  0  0  0  0  0  0  0
   -2.6203    0.9920    0.0000 C   0  0  0  0  0  0  0  0  0  0  0  0
   -0.1132    1.2940    0.0000 C   0  0  0  0  0  0  0  0  0  0  0  0
   -0.8978    1.0390    0.0000 N   0  0  0  0  0  0  0  0  0  0  0  0
    0.6013    0.8815    0.0000 C   0  0  0  0  0  0  0  0  0  0  0  0
    0.6013    0.0565    0.0000 O   0  0  0  0  0  0  0  0  0  0  0  0
    1.3157   -0.3560    0.0000 C   0  0  0  0  0  0  0  0  0  0  0  0
    1.3157   -1.1810    0.0000 C   0  0  0  0  0  0  0  0  0  0  0  0
    2.0302   -1.5935    0.0000 C   0  0  0  0  0  0  0  0  0  0  0  0
    2.0302   -2.4185    0.0000 C   0  0  0  0  0  0  0  0  0  0  0  0
    1.3157   -2.8310    0.0000 C   0  0  0  0  0  0  0  0  0  0  0  0
    0.6013   -2.4185    0.0000 C   0  0  0  0  0  0  0  0  0  0  0  0
    0.6013   -1.5935    0.0000 C   0  0  0  0  0  0  0  0  0  0  0  0
  1  2  1  0
  2  3  2  0
  2  4  1  0
  3 13  1  0
  4  5  2  0
  5  6  1  0
  5 11  1  0
  6  7  1  0
  7  8  1  0
  7 12  2  0
  8  9  1  0
  8 10  1  0
 11 12  1  0
 11 13  2  0
 13 14  1  0
 14 15  1  0
 15 16  1  0
 16 17  1  0
 16 21  1  0
 17 18  1  0
 18 19  1  0
 19 20  1  0
 20 21  1  0
M  END
>  <DRUGBANK_ID>  (1) 
DB08247

>  <COMMON_NAME>  (1) 
6-(CYCLOHEXYLMETHOXY)-8-ISOPROPYL-9H-PURIN-2-AMINE

$$$$
