
     RDKit          2D

 27 30  0  0  0  0  0  0  0  0999 V2000
    2.1785   -0.5887    0.0000 C   0  0  0  0  0  0  0  0  0  0  0  0
    0.6794   -1.5712    0.0000 C   0  0  0  0  0  0  0  0  0  0  0  0
    2.1785    0.7461    0.0000 C   0  0  0  0  0  0  0  0  0  0  0  0
    0.6794    0.9036    0.0000 C   0  0  0  0  0  0  0  0  0  0  0  0
    2.6635    0.0786    0.0000 C   0  0  0  0  0  0  0  0  0  0  0  0
   -0.7495   -0.7462    0.0000 C   0  0  0  0  0  0  0  0  0  0  0  0
   -0.0350    0.4911    0.0000 C   0  0  0  0  0  0  0  0  0  0  0  0
   -0.0350   -1.9838    0.0000 C   0  0  0  0  0  0  0  0  0  0  0  0
   -0.7495   -1.5712    0.0000 C   0  0  0  0  0  0  0  0  0  0  0  0
   -1.4640   -0.3338    0.0000 C   0  0  0  0  0  0  0  0  0  0  0  0
   -1.4640   -1.9838    0.0000 C   0  0  0  0  0  0  0  0  0  0  0  0
   -2.1783   -0.7462    0.0000 C   0  0  0  0  0  0  0  0  0  0  0  0
    0.6794   -0.7462    0.0000 C   0  0  0  0  0  0  0  0  0  0  0  0
   -0.0350   -0.3338    0.0000 C   0  0  0  0  0  0  0  0  0  0  0  0
    1.3938    0.4911    0.0000 C   0  0  0  0  0  0  0  0  0  0  0  0
    1.3938    1.3161    0.0000 C   0  0  0  0  0  0  0  0  0  0  0  0
    1.3938   -0.3338    0.0000 C   0  0  0  0  0  0  0  0  0  0  0  0
   -2.8929   -1.9838    0.0000 O   0  0  0  0  0  0  0  0  0  0  0  0
   -2.1783   -1.5712    0.0000 C   0  0  0  0  0  0  0  0  0  0  0  0
   -0.7495    0.0786    0.0000 C   0  0  0  0  0  0  0  0  0  0  0  0
    2.8929    1.1587    0.0000 O   0  0  0  0  0  0  0  0  0  0  0  0
    2.1785    1.5711    0.0000 C   0  0  0  0  0  0  0  0  0  0  0  0
   -0.7495    0.9036    0.0000 O   0  0  0  0  0  0  0  0  0  0  0  0
    1.4640    1.9837    0.0000 O   0  0  0  0  0  0  0  0  0  0  0  0
    2.8929    1.9837    0.0000 C   0  0  0  0  0  0  0  0  0  0  0  0
    2.8929    2.8088    0.0000 O   0  0  0  0  0  0  0  0  0  0  0  0
   -0.0350   -2.8088    0.0000 C   0  0  0  0  0  0  0  0  0  0  0  0
  2  8  1  0
  3  5  1  0
  3 21  1  6
  3 22  1  0
  4  7  1  0
  5  1  1  0
  6  9  1  0
  6 10  1  0
  6 20  1  1
  7 23  1  1
  8  9  1  0
  8 27  1  6
  9 11  2  0
 10 12  2  0
 11 19  1  0
 12 19  1  0
 13 14  1  0
 13  2  1  6
 14  6  1  0
 14  7  1  1
 15  3  1  0
 15  4  1  0
 15 16  1  1
 17 13  1  0
 17 15  1  0
 17  1  1  1
 19 18  2  0
 24 22  2  0
 25 22  1  0
 26 25  1  0
M  END
>  <DRUGBANK_ID>  (1) 
DB00959

>  <SECONDARY_ACCESSION_NUMBERS>  (1) 
APRD00342

>  <COMMON_NAME>  (1) 
Methylprednisolone

>  <CAS_NUMBER>  (1) 
83-43-2

>  <UNII>  (1) 
X4W7ZR7023

>  <SYNONYMS>  (1) 
(6α,11β)-11,17,21-trihydroxy-6-methylpregna-1,4-diene-3,20-dione; 1-dehydro-6α-methylhydrocortisone; 6α-methyl-11β,17α,21-triol-1,4-pregnadiene-3,20-dione; delta(1)-6alpha-Methylhydrocortisone; Methylprednisolon; Methylprednisolone; Methylprednisolonum; Metilprednisolona

$$$$
