PIX
     RDKit          2D

 27 29  0  0  0  0  0  0  0  0999 V2000
    2.5823    3.0335    0.0000 O   0  0  0  0  0  0  0  0  0  0  0  0
    2.5823    2.2085    0.0000 C   0  0  0  0  0  0  0  0  0  0  0  0
    1.8678    1.7960    0.0000 N   0  0  0  0  0  0  0  0  0  0  0  0
    1.8678    0.9710    0.0000 C   0  0  0  0  0  0  0  0  0  0  0  0
    1.1534    0.5585    0.0000 C   0  0  0  0  0  0  0  0  0  0  0  0
    1.1534    2.2085    0.0000 C   0  0  0  0  0  0  0  0  0  0  0  0
    0.4389    1.7960    0.0000 C   0  0  0  0  0  0  0  0  0  0  0  0
    0.4389    0.9710    0.0000 C   0  0  0  0  0  0  0  0  0  0  0  0
   -0.2756    0.5585    0.0000 C   0  0  0  0  0  0  0  0  0  0  0  0
   -0.2756   -0.2665    0.0000 C   0  0  0  0  0  0  0  0  0  0  0  0
    0.4389   -0.6790    0.0000 C   0  0  0  0  0  0  0  0  0  0  0  0
    0.4389   -1.5040    0.0000 C   0  0  0  0  0  0  0  0  0  0  0  0
   -0.2756   -1.9165    0.0000 C   0  0  0  0  0  0  0  0  0  0  0  0
   -0.9901   -0.6790    0.0000 C   0  0  0  0  0  0  0  0  0  0  0  0
   -0.9901   -1.5040    0.0000 C   0  0  0  0  0  0  0  0  0  0  0  0
   -1.7045   -1.9165    0.0000 O   0  0  0  0  0  0  0  0  0  0  0  0
   -2.4190   -1.5040    0.0000 C   0  0  0  0  0  0  0  0  0  0  0  0
   -3.1335   -1.9165    0.0000 C   0  0  0  0  0  0  0  0  0  0  0  0
   -3.8479   -1.5040    0.0000 C   0  0  0  0  0  0  0  0  0  0  0  0
   -2.4190   -0.6790    0.0000 N   0  0  0  0  0  0  0  0  0  0  0  0
   -3.1335   -0.2665    0.0000 C   0  0  0  0  0  0  0  0  0  0  0  0
   -3.8479   -0.6790    0.0000 C   0  0  0  0  0  0  0  0  0  0  0  0
   -4.5624   -0.2665    0.0000 C   0  0  0  0  0  0  0  0  0  0  0  0
   -5.2769    0.1460    0.0000 F   0  0  0  0  0  0  0  0  0  0  0  0
   -4.1499    0.4480    0.0000 F   0  0  0  0  0  0  0  0  0  0  0  0
   -4.9749   -0.9809    0.0000 F   0  0  0  0  0  0  0  0  0  0  0  0
    3.2968    1.7960    0.0000 O   0  0  0  0  0  0  0  0  0  0  0  0
  1  2  2  0
  2  3  1  0
  2 27  1  0
  3  4  1  0
  3  6  1  0
  4  5  1  0
  5  8  1  0
  6  7  1  0
  7  8  1  0
  8  9  1  0
  9 10  1  0
 10 11  2  0
 10 14  1  0
 11 12  1  0
 12 13  2  0
 13 15  1  0
 14 15  2  0
 15 16  1  0
 16 17  1  0
 17 18  2  0
 17 20  1  0
 18 19  1  0
 19 22  2  0
 20 21  2  0
 21 22  1  0
 22 23  1  0
 23 24  1  0
 23 25  1  0
 23 26  1  0
M  END
>  <DRUGBANK_ID>  (1) 
DB08400

>  <COMMON_NAME>  (1) 
4-(3-{[5-(trifluoromethyl)pyridin-2-yl]oxy}benzyl)piperidine-1-carboxylic acid

$$$$
