
     RDKit          2D

 41 45  0  0  0  0  0  0  0  0999 V2000
    4.5080    3.1161    0.0000 O   0  0  0  0  0  0  0  0  0  0  0  0
    6.6316   -2.2666    0.0000 O   0  0  0  0  0  0  0  0  0  0  0  0
    4.5080    1.4661    0.0000 O   0  0  0  0  0  0  0  0  0  0  0  0
    8.0223   -5.5830    0.0000 O   0  0  0  0  0  0  0  0  0  0  0  0
    3.0791    5.5911    0.0000 N   0  0  0  0  0  0  0  0  0  0  0  0
    7.3795    0.6125    0.0000 N   0  0  0  0  0  0  0  0  0  0  0  0
    7.3603   -1.0375    0.0000 N   0  0  0  0  0  0  0  0  0  0  0  0
    8.1365    1.8614    0.0000 N   0  0  0  0  0  0  0  0  0  0  0  0
    8.0605   -2.2832    0.0000 N   0  0  0  0  0  0  0  0  0  0  0  0
    7.3889    3.1447    0.0000 N   0  0  0  0  0  0  0  0  0  0  0  0
    3.0791    6.4162    0.0000 C   0  0  0  0  0  0  0  0  0  0  0  0
    2.3645    5.1786    0.0000 C   0  0  0  0  0  0  0  0  0  0  0  0
    2.3645    6.8287    0.0000 C   0  0  0  0  0  0  0  0  0  0  0  0
    1.6500    5.5911    0.0000 C   0  0  0  0  0  0  0  0  0  0  0  0
    1.6500    6.4162    0.0000 C   0  0  0  0  0  0  0  0  0  0  0  0
    3.7935    5.1786    0.0000 C   0  0  0  0  0  0  0  0  0  0  0  0
    3.7935    4.3536    0.0000 C   0  0  0  0  0  0  0  0  0  0  0  0
    6.6602    0.2083    0.0000 C   0  0  0  0  0  0  0  0  0  0  0  0
    8.0891    0.1917    0.0000 C   0  0  0  0  0  0  0  0  0  0  0  0
    6.6506   -0.6167    0.0000 C   0  0  0  0  0  0  0  0  0  0  0  0
    8.0796   -0.6332    0.0000 C   0  0  0  0  0  0  0  0  0  0  0  0
    4.5080    3.9411    0.0000 C   0  0  0  0  0  0  0  0  0  0  0  0
    7.3889    1.4374    0.0000 C   0  0  0  0  0  0  0  0  0  0  0  0
    6.6515    1.8786    0.0000 C   0  0  0  0  0  0  0  0  0  0  0  0
    7.3508   -1.8624    0.0000 C   0  0  0  0  0  0  0  0  0  0  0  0
    6.6515    2.7036    0.0000 C   0  0  0  0  0  0  0  0  0  0  0  0
    5.2224    2.7036    0.0000 C   0  0  0  0  0  0  0  0  0  0  0  0
    5.9370    1.4661    0.0000 C   0  0  0  0  0  0  0  0  0  0  0  0
    5.9370    3.1161    0.0000 C   0  0  0  0  0  0  0  0  0  0  0  0
    5.2224    1.8786    0.0000 C   0  0  0  0  0  0  0  0  0  0  0  0
    8.1365    2.7207    0.0000 C   0  0  0  0  0  0  0  0  0  0  0  0
    8.0509   -3.1081    0.0000 C   0  0  0  0  0  0  0  0  0  0  0  0
    8.7606   -3.5289    0.0000 C   0  0  0  0  0  0  0  0  0  0  0  0
    7.3317   -3.5123    0.0000 C   0  0  0  0  0  0  0  0  0  0  0  0
    3.7935    1.8786    0.0000 C   0  0  0  0  0  0  0  0  0  0  0  0
    8.7511   -4.3538    0.0000 C   0  0  0  0  0  0  0  0  0  0  0  0
    7.3222   -4.3373    0.0000 C   0  0  0  0  0  0  0  0  0  0  0  0
    8.0319   -4.7580    0.0000 C   0  0  0  0  0  0  0  0  0  0  0  0
    8.7320   -6.0037    0.0000 C   0  0  0  0  0  0  0  0  0  0  0  0
    8.7224   -6.8287    0.0000 C   0  0  0  0  0  0  0  0  0  0  0  0
    9.4512   -5.5995    0.0000 C   0  0  0  0  0  0  0  0  0  0  0  0
  1 22  1  0
  1 27  1  0
  2 25  2  0
  3 30  1  0
  3 35  1  0
  4 38  1  0
  4 39  1  0
  5 11  1  0
  5 12  1  0
  5 16  1  0
  6 18  1  0
  6 19  1  0
  6 23  1  0
  7 20  1  0
  7 21  1  0
  7 25  1  0
  8 23  2  0
  8 31  1  0
  9 25  1  0
  9 32  1  0
 10 26  1  0
 10 31  2  0
 11 13  1  0
 12 14  1  0
 13 15  1  0
 14 15  1  0
 16 17  1  0
 17 22  1  0
 18 20  1  0
 19 21  1  0
 23 24  1  0
 24 26  2  0
 24 28  1  0
 26 29  1  0
 27 29  2  0
 27 30  1  0
 28 30  2  0
 32 33  2  0
 32 34  1  0
 33 36  1  0
 34 37  2  0
 36 38  2  0
 37 38  1  0
 39 40  1  0
 39 41  1  0
M  END
>  <DRUGBANK_ID>  (1) 
DB05465

>  <COMMON_NAME>  (1) 
Tandutinib

>  <CAS_NUMBER>  (1) 
387867-13-2

>  <UNII>  (1) 
E1IO3ICJ9A

>  <SYNONYMS>  (1) 
Tandutinib

$$$$
