
     RDKit          2D

 35 38  0  0  0  0  0  0  0  0999 V2000
   -2.3639    0.3289    0.0000 N   0  0  0  0  0  0  0  0  0  0  0  0
   -2.6113   -0.4359    0.0000 C   0  0  0  0  0  0  0  0  0  0  0  0
   -1.6414    0.5765    0.0000 C   0  0  0  0  0  0  0  0  0  0  0  0
   -2.8643    1.0412    0.0000 C   0  0  0  0  0  0  0  0  0  0  0  0
   -2.1618   -1.0738    0.0000 C   0  0  0  0  0  0  0  0  0  0  0  0
   -3.4088   -0.6805    0.0000 O   0  0  0  0  0  0  0  0  0  0  0  0
   -1.6471    1.4852    0.0000 C   0  0  0  0  0  0  0  0  0  0  0  0
   -0.9194    0.1512    0.0000 N   0  0  0  0  0  0  0  0  0  0  0  0
   -2.3554    1.7276    0.0000 N   0  0  0  0  0  0  0  0  0  0  0  0
   -2.6408   -1.7334    0.0000 C   0  0  0  0  0  0  0  0  0  0  0  0
   -3.4138   -1.4814    0.0000 C   0  0  0  0  0  0  0  0  0  0  0  0
   -0.9487    1.8927    0.0000 C   0  0  0  0  0  0  0  0  0  0  0  0
   -0.1754    0.5763    0.0000 C   0  0  0  0  0  0  0  0  0  0  0  0
   -4.1137   -1.8784    0.0000 C   0  0  0  0  0  0  0  0  0  0  0  0
   -0.1803    1.4527    0.0000 N   0  0  0  0  0  0  0  0  0  0  0  0
   -0.9552    2.7034    0.0000 N   0  0  0  0  0  0  0  0  0  0  0  0
   -1.3813   -1.0795    0.0000 O   0  0  0  0  0  0  0  0  0  0  0  0
   -2.3863   -2.5183    0.0000 O   0  0  0  0  0  0  0  0  0  0  0  0
   -4.8251   -1.4602    0.0000 N   0  0  0  0  0  0  0  0  0  0  0  0
   -4.1201   -2.7034    0.0000 O   0  0  0  0  0  0  0  0  0  0  0  0
   -5.5428   -1.8673    0.0000 C   0  0  0  0  0  0  0  0  0  0  0  0
   -6.2542   -1.4491    0.0000 C   0  0  0  0  0  0  0  0  0  0  0  0
    0.5394    0.1643    0.0000 C   0  0  0  0  0  0  0  0  0  0  0  0
    1.2505   -0.2472    0.0000 C   0  0  0  0  0  0  0  0  0  0  0  0
    1.9632   -0.6599    0.0000 C   0  0  0  0  0  0  0  0  0  0  0  0
    2.6783   -0.2482    0.0000 C   0  0  0  0  0  0  0  0  0  0  0  0
    3.3900   -0.6657    0.0000 C   0  0  0  0  0  0  0  0  0  0  0  0
    4.1031   -0.2574    0.0000 C   0  0  0  0  0  0  0  0  0  0  0  0
    4.1083    0.5679    0.0000 C   0  0  0  0  0  0  0  0  0  0  0  0
    3.3944    0.9835    0.0000 C   0  0  0  0  0  0  0  0  0  0  0  0
    2.6751    0.5737    0.0000 C   0  0  0  0  0  0  0  0  0  0  0  0
    4.8249    0.9769    0.0000 C   0  0  0  0  0  0  0  0  0  0  0  0
    5.5374    0.5608    0.0000 O   0  0  0  0  0  0  0  0  0  0  0  0
    4.8290    1.8021    0.0000 O   0  0  0  0  0  0  0  0  0  0  0  0
    6.2542    0.9698    0.0000 C   0  0  0  0  0  0  0  0  0  0  0  0
  1  3  1  0
  1  4  1  0
  2  1  1  1
  2  6  1  0
  3  7  2  0
  3  8  1  0
  4  9  2  0
  5 17  1  6
  5  2  1  0
  5 10  1  0
  6 11  1  0
  7 12  1  0
  7  9  1  0
  8 13  2  0
 10 18  1  6
 10 11  1  0
 11 14  1  1
 12 15  2  0
 12 16  1  0
 13 23  1  0
 13 15  1  0
 14 19  1  0
 14 20  2  0
 19 21  1  0
 21 22  1  0
 23 24  3  0
 24 25  1  0
 26 25  1  6
 26 27  1  0
 26 31  1  0
 27 28  1  0
 28 29  1  0
 29 30  1  0
 29 32  1  1
 30 31  1  0
 32 33  1  0
 32 34  2  0
 33 35  1  0
M  END
>  <DRUGBANK_ID>  (1) 
DB05009

>  <COMMON_NAME>  (1) 
Apadenoson

>  <CAS_NUMBER>  (1) 
250386-15-3

>  <UNII>  (1) 
BTS1Y6777M

>  <SYNONYMS>  (1) 
Apadenoson

$$$$
