BDI
     RDKit          2D

 15 16  0  0  0  0  0  0  0  0999 V2000
    0.4413   -0.3917    0.0000 N   0  0  0  0  0  0  0  0  0  0  0  0
   -0.0436    0.2757    0.0000 C   0  0  0  0  0  0  0  0  0  0  0  0
   -0.8686    0.2757    0.0000 C   0  0  0  0  0  0  0  0  0  0  0  0
   -1.2811   -0.4387    0.0000 C   0  0  0  0  0  0  0  0  0  0  0  0
   -2.1061   -0.4387    0.0000 C   0  0  0  0  0  0  0  0  0  0  0  0
   -2.5186   -1.1532    0.0000 C   0  0  0  0  0  0  0  0  0  0  0  0
    0.4413    0.9432    0.0000 N   0  0  0  0  0  0  0  0  0  0  0  0
    1.2259    0.6882    0.0000 C   0  0  0  0  0  0  0  0  0  0  0  0
    1.9404    1.1007    0.0000 C   0  0  0  0  0  0  0  0  0  0  0  0
    2.6549    0.6882    0.0000 N   0  0  0  0  0  0  0  0  0  0  0  0
    2.6549   -0.1368    0.0000 N   0  0  0  0  0  0  0  0  0  0  0  0
    1.9404   -0.5493    0.0000 C   0  0  0  0  0  0  0  0  0  0  0  0
    1.9404   -1.3743    0.0000 O   0  0  0  0  0  0  0  0  0  0  0  0
    1.2259   -0.1368    0.0000 C   0  0  0  0  0  0  0  0  0  0  0  0
    1.9404    1.9257    0.0000 O   0  0  0  0  0  0  0  0  0  0  0  0
  1  2  2  0
  1 14  1  0
  2  3  1  0
  2  7  1  0
  3  4  1  0
  4  5  1  0
  5  6  1  0
  7  8  1  0
  8  9  1  0
  8 14  2  0
  9 10  1  0
  9 15  2  0
 10 11  1  0
 11 12  1  0
 12 13  2  0
 12 14  1  0
M  END
>  <DRUGBANK_ID>  (1) 
DB02441

>  <SECONDARY_ACCESSION_NUMBERS>  (1) 
EXPT00650

>  <COMMON_NAME>  (1) 
2-Butyl-5,6-Dihydro-1h-Imidazo[4,5-D]Pyridazine-4,7-Dione

>  <UNII>  (1) 
917N15H9XX

$$$$
