
     RDKit          2D

 14 14  0  0  0  0  0  0  0  0999 V2000
    0.5874    0.3557    0.0000 N   0  0  0  0  0  0  0  0  0  0  0  0
   -0.1391   -0.0442    0.0000 C   0  0  0  0  0  0  0  0  0  0  0  0
   -0.8380    0.3861    0.0000 C   0  0  0  0  0  0  0  0  0  0  0  0
   -1.5621   -0.0164    0.0000 C   0  0  0  0  0  0  0  0  0  0  0  0
   -2.2660    0.4013    0.0000 S   0  0  0  0  0  0  0  0  0  0  0  0
   -0.8405    1.2139    0.0000 C   0  0  0  0  0  0  0  0  0  0  0  0
   -0.1391   -0.8595    0.0000 O   0  0  0  0  0  0  0  0  0  0  0  0
    1.3393    0.0062    0.0000 C   0  0  0  0  0  0  0  0  0  0  0  0
    1.4912   -0.7911    0.0000 C   0  0  0  0  0  0  0  0  0  0  0  0
    2.2660   -1.0494    0.0000 O   0  0  0  0  0  0  0  0  0  0  0  0
    0.8785   -1.3355    0.0000 O   0  0  0  0  0  0  0  0  0  0  0  0
    1.8963    0.6240    0.0000 C   0  0  0  0  0  0  0  0  0  0  0  0
    1.4785    1.3355    0.0000 C   0  0  0  0  0  0  0  0  0  0  0  0
    0.6981    1.1922    0.0000 C   0  0  0  0  0  0  0  0  0  0  0  0
  2  1  1  0
  3  2  1  0
  3  6  1  6
  4  3  1  0
  5  4  1  0
  7  2  2  0
  8  1  1  0
  8  9  1  1
 10  9  2  0
 11  9  1  0
 12  8  1  0
 12 13  1  0
 13 14  1  0
 14  1  1  0
M  END
>  <DRUGBANK_ID>  (1) 
DB02032

>  <SECONDARY_ACCESSION_NUMBERS>  (1) 
EXPT02137

>  <COMMON_NAME>  (1) 
Epicaptopril

>  <CAS_NUMBER>  (1) 
63250-36-2

>  <UNII>  (1) 
PPW0ENH1HA

>  <SYNONYMS>  (1) 
(2S)-1-((2R)-2-Methyl-3-sulfanylpropanoyl)pyrrolidine-2-carboxylic acid; 2-D-Methyl-3-mercaptopropanoyl-L-proline

$$$$
