
     RDKit          2D

 19 18  0  0  0  0  0  0  0  0999 V2000
    0.0000   -0.2062    0.0000 C   0  0  0  0  0  0  0  0  0  0  0  0
   -0.7144    0.2062    0.0000 C   0  0  0  0  0  0  0  0  0  0  0  0
    0.7144    0.2062    0.0000 C   0  0  0  0  0  0  0  0  0  0  0  0
   -1.4289   -0.2062    0.0000 C   0  0  0  0  0  0  0  0  0  0  0  0
    1.4289   -0.2062    0.0000 C   0  0  0  0  0  0  0  0  0  0  0  0
   -2.1434    0.2062    0.0000 C   0  0  0  0  0  0  0  0  0  0  0  0
    2.1434    0.2062    0.0000 C   0  0  0  0  0  0  0  0  0  0  0  0
   -2.8578   -0.2062    0.0000 C   0  0  0  0  0  0  0  0  0  0  0  0
    2.8578   -0.2062    0.0000 C   0  0  0  0  0  0  0  0  0  0  0  0
   -3.5723    0.2062    0.0000 C   0  0  0  0  0  0  0  0  0  0  0  0
    3.5723    0.2062    0.0000 C   0  0  0  0  0  0  0  0  0  0  0  0
   -4.2868   -0.2062    0.0000 C   0  0  0  0  0  0  0  0  0  0  0  0
    4.2868   -0.2062    0.0000 C   0  0  0  0  0  0  0  0  0  0  0  0
   -5.0012    0.2062    0.0000 C   0  0  0  0  0  0  0  0  0  0  0  0
    5.0012    0.2062    0.0000 C   0  0  0  0  0  0  0  0  0  0  0  0
   -5.7157   -0.2062    0.0000 C   0  0  0  0  0  0  0  0  0  0  0  0
    5.7157   -0.2062    0.0000 C   0  0  0  0  0  0  0  0  0  0  0  0
   -6.4302    0.2062    0.0000 C   0  0  0  0  0  0  0  0  0  0  0  0
    6.4302    0.2062    0.0000 O   0  0  0  0  0  0  0  0  0  0  0  0
  1  2  1  0
  1  3  1  0
  2  4  1  0
  3  5  1  0
  4  6  1  0
  5  7  1  0
  6  8  1  0
  7  9  1  0
  8 10  1  0
  9 11  1  0
 10 12  1  0
 11 13  1  0
 12 14  1  0
 13 15  1  0
 14 16  1  0
 15 17  1  0
 16 18  1  0
 17 19  1  0
M  END
>  <DRUGBANK_ID>  (1) 
DB15953

>  <COMMON_NAME>  (1) 
Stearyl alcohol

>  <CAS_NUMBER>  (1) 
112-92-5

>  <UNII>  (1) 
2KR89I4H1Y

>  <SYNONYMS>  (1) 
1-Octadecanol; Octadecan-1-ol; Octadecyl alcohol; Stearyl alcohol

$$$$
