
     RDKit          2D

 22 25  0  0  0  0  0  0  0  0999 V2000
    1.2751   -1.1393    0.0000 C   0  0  0  0  0  0  0  0  0  0  0  0
    4.3228   -0.9107    0.0000 C   0  0  0  0  0  0  0  0  0  0  0  0
    1.8069   -0.5086    0.0000 C   0  0  0  0  0  0  0  0  0  0  0  0
    1.7781    1.6739    0.0000 C   0  0  0  0  0  0  0  0  0  0  0  0
    2.5902    1.5287    0.0000 C   0  0  0  0  0  0  0  0  0  0  0  0
    4.3340    1.1139    0.0000 C   0  0  0  0  0  0  0  0  0  0  0  0
    5.0168    0.6509    0.0000 C   0  0  0  0  0  0  0  0  0  0  0  0
    2.6190   -0.6539    0.0000 C   0  0  0  0  0  0  0  0  0  0  0  0
    3.4311   -0.7991    0.0000 C   0  0  0  0  0  0  0  0  0  0  0  0
    0.1827   -0.2182    0.0000 C   0  0  0  0  0  0  0  0  0  0  0  0
    0.4342    1.1884    0.0000 C   0  0  0  0  0  0  0  0  0  0  0  0
    0.9948   -0.3634    0.0000 C   0  0  0  0  0  0  0  0  0  0  0  0
    1.2463    1.0432    0.0000 C   0  0  0  0  0  0  0  0  0  0  0  0
   -0.0976    0.5577    0.0000 C   0  0  0  0  0  0  0  0  0  0  0  0
    2.8705    0.7528    0.0000 C   0  0  0  0  0  0  0  0  0  0  0  0
    3.6826    0.6076    0.0000 C   0  0  0  0  0  0  0  0  0  0  0  0
    2.3387    0.1221    0.0000 C   0  0  0  0  0  0  0  0  0  0  0  0
    4.7875   -0.1416    0.0000 C   0  0  0  0  0  0  0  0  0  0  0  0
    3.9629   -0.1684    0.0000 C   0  0  0  0  0  0  0  0  0  0  0  0
    1.5266    0.2673    0.0000 C   0  0  0  0  0  0  0  0  0  0  0  0
   -0.9098    0.7029    0.0000 O   0  0  0  0  0  0  0  0  0  0  0  0
    5.2939   -0.7929    0.0000 O   0  0  0  0  0  0  0  0  0  0  0  0
  5  4  1  0
  7  6  1  0
  9  8  1  0
 12  1  1  0
 12 10  2  0
 13  4  1  6
 13 11  1  0
 14 10  1  0
 14 11  1  0
 15  5  1  1
 16  6  1  6
 16 15  1  0
 17  8  1  6
 17 15  1  0
 18  7  1  0
 18 22  1  6
 19  2  1  6
 19  9  1  0
 19 16  1  0
 19 18  1  0
 20  3  1  6
 20 12  1  0
 20 13  1  0
 20 17  1  0
 21 14  2  0
M  END
>  <DRUGBANK_ID>  (1) 
DB13710

>  <COMMON_NAME>  (1) 
Metenolone

>  <CAS_NUMBER>  (1) 
153-00-4

>  <UNII>  (1) 
9062ZT8Q5C

>  <SYNONYMS>  (1) 
Metenolona; Metenolone; Methenolone

$$$$
