ZY6
     RDKit          2D

 23 26  0  0  0  0  0  0  0  0999 V2000
    1.4459   -0.0117    0.0000 C   0  0  0  0  0  0  0  0  0  0  0  0
    2.1604    0.4008    0.0000 C   0  0  0  0  0  0  0  0  0  0  0  0
    2.8749   -0.0117    0.0000 C   0  0  0  0  0  0  0  0  0  0  0  0
    2.8749   -0.8367    0.0000 C   0  0  0  0  0  0  0  0  0  0  0  0
    2.1604   -1.2492    0.0000 C   0  0  0  0  0  0  0  0  0  0  0  0
    1.4459   -0.8367    0.0000 C   0  0  0  0  0  0  0  0  0  0  0  0
    0.7315   -1.2492    0.0000 C   0  0  0  0  0  0  0  0  0  0  0  0
    0.7315   -2.0742    0.0000 C   0  0  0  0  0  0  0  0  0  0  0  0
    0.0170   -2.4867    0.0000 N   0  0  0  0  0  0  0  0  0  0  0  0
   -0.6975   -2.0742    0.0000 C   0  0  0  0  0  0  0  0  0  0  0  0
   -1.4821   -2.3292    0.0000 N   0  0  0  0  0  0  0  0  0  0  0  0
   -1.9670   -1.6617    0.0000 N   0  0  0  0  0  0  0  0  0  0  0  0
   -1.4821   -0.9943    0.0000 C   0  0  0  0  0  0  0  0  0  0  0  0
   -0.6975   -1.2492    0.0000 C   0  0  0  0  0  0  0  0  0  0  0  0
    0.0170   -0.8367    0.0000 C   0  0  0  0  0  0  0  0  0  0  0  0
    0.0170   -0.0117    0.0000 N   0  0  0  0  0  0  0  0  0  0  0  0
   -0.6975    0.4008    0.0000 C   0  0  0  0  0  0  0  0  0  0  0  0
    0.7315    0.4008    0.0000 C   0  0  0  0  0  0  0  0  0  0  0  0
    0.7315    1.2258    0.0000 C   0  0  0  0  0  0  0  0  0  0  0  0
    0.0170    1.6383    0.0000 O   0  0  0  0  0  0  0  0  0  0  0  0
   -0.6975    1.2258    0.0000 C   0  0  0  0  0  0  0  0  0  0  0  0
   -1.4119    1.6383    0.0000 C   0  0  0  0  0  0  0  0  0  0  0  0
   -2.1264    1.2258    0.0000 N   0  0  0  0  0  0  0  0  0  0  0  0
  1  2  2  0
  1  6  1  0
  2  3  1  0
  3  4  2  0
  4  5  1  0
  5  6  2  0
  6  7  1  0
  7  8  2  0
  7 15  1  0
  8  9  1  0
  9 10  2  0
 10 11  1  0
 10 14  1  0
 11 12  1  0
 12 13  2  0
 13 14  1  0
 14 15  2  0
 15 16  1  0
 16 17  1  0
 16 18  1  0
 17 21  1  0
 18 19  1  0
 19 20  1  0
 20 21  1  0
 21 22  1  6
 22 23  1  0
M  END
>  <DRUGBANK_ID>  (1) 
DB08774

>  <COMMON_NAME>  (1) 
1-[(2S)-4-(5-phenyl-1H-pyrazolo[3,4-b]pyridin-4-yl)morpholin-2-yl]methanamine

$$$$
