LG7
     RDKit          2D

 23 26  0  0  0  0  0  0  0  0999 V2000
    2.7292    2.9361    0.0000 C   0  0  0  0  0  0  0  0  0  0  0  0
    3.5542    0.0782    0.0000 C   0  0  0  0  0  0  0  0  0  0  0  0
    3.9667    0.7927    0.0000 C   0  0  0  0  0  0  0  0  0  0  0  0
    3.5542    1.5071    0.0000 C   0  0  0  0  0  0  0  0  0  0  0  0
    3.9667    2.2216    0.0000 C   0  0  0  0  0  0  0  0  0  0  0  0
    2.7292    0.0782    0.0000 C   0  0  0  0  0  0  0  0  0  0  0  0
    2.3167    0.7927    0.0000 C   0  0  0  0  0  0  0  0  0  0  0  0
    2.7292    1.5071    0.0000 C   0  0  0  0  0  0  0  0  0  0  0  0
    4.7917    2.2216    0.0000 C   0  0  0  0  0  0  0  0  0  0  0  0
    2.3167    2.2216    0.0000 C   0  0  0  0  0  0  0  0  0  0  0  0
   -0.8174    0.7695    0.0000 O   0  0  0  0  0  0  0  0  0  0  0  0
   -0.5625    1.5542    0.0000 C   0  0  0  0  0  0  0  0  0  0  0  0
   -1.0474    2.2216    0.0000 C   0  0  0  0  0  0  0  0  0  0  0  0
   -0.5625    2.8890    0.0000 C   0  0  0  0  0  0  0  0  0  0  0  0
    0.2221    2.6341    0.0000 N   0  0  0  0  0  0  0  0  0  0  0  0
    0.2221    1.8091    0.0000 C   0  0  0  0  0  0  0  0  0  0  0  0
    1.0067    1.5542    0.0000 C   0  0  0  0  0  0  0  0  0  0  0  0
    1.2617    0.7695    0.0000 O   0  0  0  0  0  0  0  0  0  0  0  0
    1.4917    2.2216    0.0000 N   0  0  0  0  0  0  0  0  0  0  0  0
    1.0067    2.8890    0.0000 C   0  0  0  0  0  0  0  0  0  0  0  0
    1.2617    3.6737    0.0000 O   0  0  0  0  0  0  0  0  0  0  0  0
    3.5542    2.9361    0.0000 C   0  0  0  0  0  0  0  0  0  0  0  0
    5.6167    2.2216    0.0000 N   0  0  0  0  0  0  0  0  0  0  0  0
  1 22  2  0
  1 10  1  0
  2  3  2  0
  2  6  1  0
  3  4  1  0
  4  5  2  0
  4  8  1  0
  5 22  1  0
  5  9  1  0
  6  7  2  0
  7  8  1  0
  8 10  2  0
  9 23  3  0
 10 19  1  0
 12 11  1  6
 12 13  1  0
 12 16  1  0
 13 14  1  0
 14 15  1  0
 15 20  1  0
 15 16  1  0
 16 17  1  6
 17 19  1  0
 17 18  2  0
 19 20  1  0
 20 21  2  0
M  END
>  <DRUGBANK_ID>  (1) 
DB08087

>  <COMMON_NAME>  (1) 
4-[(7R,7AS)-7-HYDROXY-1,3-DIOXOTETRAHYDRO-1H-PYRROLO[1,2-C]IMIDAZOL-2(3H)-YL]-1-NAPHTHONITRILE

$$$$
