
     RDKit          2D

 34 36  0  0  0  0  0  0  0  0999 V2000
   -3.9295   -2.6814    0.0000 N   0  0  0  0  0  0  0  0  0  0  0  0
   -3.2151   -2.2689    0.0000 C   0  0  0  0  0  0  0  0  0  0  0  0
   -3.2151   -1.4439    0.0000 C   0  0  0  0  0  0  0  0  0  0  0  0
   -2.5006   -1.0314    0.0000 N   0  0  0  0  0  0  0  0  0  0  0  0
   -2.5006   -2.6814    0.0000 N   0  0  0  0  0  0  0  0  0  0  0  0
   -4.6440   -1.4439    0.0000 N   0  0  0  0  0  0  0  0  0  0  0  0
   -1.7861   -2.2689    0.0000 C   0  0  0  0  0  0  0  0  0  0  0  0
   -1.7861   -1.4439    0.0000 C   0  0  0  0  0  0  0  0  0  0  0  0
   -1.0716   -1.0314    0.0000 C   0  0  0  0  0  0  0  0  0  0  0  0
    0.3573   -1.0312    0.0000 C   0  0  0  0  0  0  0  0  0  0  0  0
    1.7861   -1.0312    0.0000 C   0  0  0  0  0  0  0  0  0  0  0  0
    1.0716   -1.4437    0.0000 C   0  0  0  0  0  0  0  0  0  0  0  0
    0.3573   -0.2062    0.0000 C   0  0  0  0  0  0  0  0  0  0  0  0
    1.0716    0.2063    0.0000 C   0  0  0  0  0  0  0  0  0  0  0  0
    1.7861   -0.2062    0.0000 C   0  0  0  0  0  0  0  0  0  0  0  0
    2.5006    0.2063    0.0000 C   0  0  0  0  0  0  0  0  0  0  0  0
    2.5006    1.0313    0.0000 O   0  0  0  0  0  0  0  0  0  0  0  0
    3.2151   -0.2062    0.0000 N   0  0  0  0  0  0  0  0  0  0  0  0
    3.9295    2.6813    0.0000 O   0  0  0  0  0  0  0  0  0  0  0  0
    3.9295    0.2063    0.0000 C   0  0  0  0  0  0  0  0  0  0  0  0
    5.3584    0.2063    0.0000 O   0  0  0  0  0  0  0  0  0  0  0  0
    4.6438   -0.2062    0.0000 C   0  0  0  0  0  0  0  0  0  0  0  0
    4.6438   -1.0312    0.0000 O   0  0  0  0  0  0  0  0  0  0  0  0
    3.9295    1.0313    0.0000 C   0  0  0  0  0  0  0  0  0  0  0  0
    4.6440    1.4436    0.0000 C   0  0  0  0  0  0  0  0  0  0  0  0
    4.6440    2.2687    0.0000 C   0  0  0  0  0  0  0  0  0  0  0  0
    5.3584    2.6813    0.0000 O   0  0  0  0  0  0  0  0  0  0  0  0
   -3.9295   -1.0314    0.0000 C   0  0  0  0  0  0  0  0  0  0  0  0
   -3.9295   -0.2063    0.0000 O   0  0  0  0  0  0  0  0  0  0  0  0
   -4.6440   -2.2689    0.0000 C   0  0  0  0  0  0  0  0  0  0  0  0
   -5.3584   -2.6814    0.0000 N   0  0  0  0  0  0  0  0  0  0  0  0
   -0.3572   -1.4439    0.0000 N   0  0  0  0  0  0  0  0  0  0  0  0
   -2.5005   -0.2063    0.0000 C   0  0  0  0  0  0  0  0  0  0  0  0
   -1.7860    0.2061    0.0000 O   0  0  0  0  0  0  0  0  0  0  0  0
  1  2  1  0
  2  3  2  0
  2  5  1  0
  3  4  1  0
  3 28  1  0
  4  8  1  0
  4 33  1  0
  7  5  2  0
  7  8  1  0
  8  9  1  1
  9 32  1  0
 10 13  2  0
 11 12  2  0
 11 15  1  0
 12 10  1  0
 13 14  1  0
 14 15  2  0
 15 16  1  0
 16 18  1  0
 16 17  2  0
 20 18  1  0
 20 24  1  1
 20 22  1  0
 22 21  1  0
 22 23  2  0
 24 25  1  0
 25 26  1  0
 26 19  2  0
 26 27  1  0
 28  6  1  0
 28 29  2  0
 30  1  2  0
 30  6  1  0
 30 31  1  0
 32 10  1  0
 33 34  1  0
M  END
>  <DRUGBANK_ID>  (1) 
DB02800

>  <SECONDARY_ACCESSION_NUMBERS>  (1) 
EXPT03049

>  <COMMON_NAME>  (1) 
5-hydroxymethyl-5,6-dihydrofolic acid

$$$$
