
     RDKit          2D

 33 37  0  0  0  0  0  0  0  0999 V2000
    2.2652    0.8164    0.0000 C   0  0  0  0  0  0  0  0  0  0  0  0
    2.0040    1.5967    0.0000 N   0  0  0  0  0  0  0  0  0  0  0  0
    3.0868    0.8130    0.0000 C   0  0  0  0  0  0  0  0  0  0  0  0
    1.8528    0.1048    0.0000 C   0  0  0  0  0  0  0  0  0  0  0  0
    2.6743    2.0883    0.0000 C   0  0  0  0  0  0  0  0  0  0  0  0
    1.2821    2.0024    0.0000 C   0  0  0  0  0  0  0  0  0  0  0  0
    3.3446    1.5967    0.0000 N   0  0  0  0  0  0  0  0  0  0  0  0
    3.4958    0.1014    0.0000 C   0  0  0  0  0  0  0  0  0  0  0  0
    2.2618   -0.6067    0.0000 C   0  0  0  0  0  0  0  0  0  0  0  0
    1.4334   -0.6032    0.0000 C   0  0  0  0  0  0  0  0  0  0  0  0
    2.6743    2.9133    0.0000 O   0  0  0  0  0  0  0  0  0  0  0  0
    0.5740    1.5761    0.0000 C   0  0  0  0  0  0  0  0  0  0  0  0
    3.0833   -0.6100    0.0000 C   0  0  0  0  0  0  0  0  0  0  0  0
    0.6084   -0.5963    0.0000 O   0  0  0  0  0  0  0  0  0  0  0  0
    1.8356   -1.3180    0.0000 O   0  0  0  0  0  0  0  0  0  0  0  0
    3.3892    3.3257    0.0000 C   0  0  0  0  0  0  0  0  0  0  0  0
   -0.1512    1.9782    0.0000 C   0  0  0  0  0  0  0  0  0  0  0  0
    0.5912    0.7648    0.0000 C   0  0  0  0  0  0  0  0  0  0  0  0
    3.3892    4.1507    0.0000 C   0  0  0  0  0  0  0  0  0  0  0  0
   -0.8593    1.5519    0.0000 C   0  0  0  0  0  0  0  0  0  0  0  0
   -0.1237    0.3249    0.0000 C   0  0  0  0  0  0  0  0  0  0  0  0
   -0.8388    0.7269    0.0000 C   0  0  0  0  0  0  0  0  0  0  0  0
   -1.5501    0.3042    0.0000 C   0  0  0  0  0  0  0  0  0  0  0  0
   -2.2755    0.7030    0.0000 C   0  0  0  0  0  0  0  0  0  0  0  0
   -1.5365   -0.5207    0.0000 C   0  0  0  0  0  0  0  0  0  0  0  0
   -2.2893    1.5314    0.0000 C   0  0  0  0  0  0  0  0  0  0  0  0
   -2.9801    0.2802    0.0000 C   0  0  0  0  0  0  0  0  0  0  0  0
   -2.2446   -0.9470    0.0000 C   0  0  0  0  0  0  0  0  0  0  0  0
   -2.9561    2.0058    0.0000 N   0  0  0  0  0  0  0  0  0  0  0  0
   -1.6225    2.0298    0.0000 N   0  0  0  0  0  0  0  0  0  0  0  0
   -2.9630   -0.5482    0.0000 C   0  0  0  0  0  0  0  0  0  0  0  0
   -2.7156    2.7964    0.0000 N   0  0  0  0  0  0  0  0  0  0  0  0
   -1.8904    2.8101    0.0000 N   0  0  0  0  0  0  0  0  0  0  0  0
  1  2  1  0
  1  3  1  0
  1  4  2  0
  2  5  1  0
  2  6  1  0
  3  7  1  0
  3  8  2  0
  4  9  1  0
  4 10  1  0
  5 11  1  0
  5  7  2  0
  6 12  1  0
  8 13  1  0
  9 13  2  0
 10 14  1  0
 10 15  2  0
 11 16  1  0
 12 17  2  0
 12 18  1  0
 16 19  1  0
 17 20  1  0
 18 21  2  0
 20 22  2  0
 21 22  1  0
 22 23  1  0
 23 24  1  0
 23 25  2  0
 24 26  1  0
 24 27  2  0
 25 28  1  0
 26 29  1  0
 26 30  2  0
 27 31  1  0
 28 31  2  0
 29 32  1  0
 30 33  1  0
 32 33  2  0
M  END
>  <DRUGBANK_ID>  (1) 
DB13919

>  <COMMON_NAME>  (1) 
Candesartan

>  <CAS_NUMBER>  (1) 
139481-59-7

>  <UNII>  (1) 
S8Q36MD2XX

>  <SYNONYMS>  (1) 
2-ethoxy-1-(p-(o-1H-tetrazol-5-ylphenyl)benzyl)-7-benzimidazolecarboxylic acid; Candesartan

$$$$
