677
     RDKit          2D

 27 30  0  0  0  0  0  0  0  0999 V2000
    4.5547   -0.9634    0.0000 F   0  0  0  0  0  0  0  0  0  0  0  0
    3.7477   -0.7919    0.0000 C   0  0  0  0  0  0  0  0  0  0  0  0
    3.4927   -0.0073    0.0000 C   0  0  0  0  0  0  0  0  0  0  0  0
    2.6858    0.1643    0.0000 C   0  0  0  0  0  0  0  0  0  0  0  0
    2.4308    0.9489    0.0000 F   0  0  0  0  0  0  0  0  0  0  0  0
    3.1956   -1.4050    0.0000 C   0  0  0  0  0  0  0  0  0  0  0  0
    3.4506   -2.1896    0.0000 F   0  0  0  0  0  0  0  0  0  0  0  0
    2.3887   -1.2335    0.0000 C   0  0  0  0  0  0  0  0  0  0  0  0
    2.1337   -0.4488    0.0000 C   0  0  0  0  0  0  0  0  0  0  0  0
    1.3268   -0.2773    0.0000 C   0  0  0  0  0  0  0  0  0  0  0  0
    0.7747   -0.8904    0.0000 C   0  0  0  0  0  0  0  0  0  0  0  0
    1.0718    0.5073    0.0000 C   0  0  0  0  0  0  0  0  0  0  0  0
    1.6239    1.1204    0.0000 N   0  0  0  0  0  0  0  0  0  0  0  0
    0.2649    0.6788    0.0000 C   0  0  0  0  0  0  0  0  0  0  0  0
   -0.2872    0.0657    0.0000 N   0  0  0  0  0  0  0  0  0  0  0  0
   -0.0322   -0.7189    0.0000 C   0  0  0  0  0  0  0  0  0  0  0  0
   -0.6997   -1.2038    0.0000 N   0  0  0  0  0  0  0  0  0  0  0  0
   -1.1122    0.0657    0.0000 C   0  0  0  0  0  0  0  0  0  0  0  0
   -1.6642    0.6788    0.0000 C   0  0  0  0  0  0  0  0  0  0  0  0
   -2.4712    0.5073    0.0000 C   0  0  0  0  0  0  0  0  0  0  0  0
   -1.3671   -0.7189    0.0000 C   0  0  0  0  0  0  0  0  0  0  0  0
   -2.1741   -0.8904    0.0000 C   0  0  0  0  0  0  0  0  0  0  0  0
   -2.7261   -0.2773    0.0000 C   0  0  0  0  0  0  0  0  0  0  0  0
   -3.5331   -0.4488    0.0000 S   0  0  0  0  0  0  0  0  0  0  0  0
   -4.3401   -0.6204    0.0000 O   0  0  0  0  0  0  0  0  0  0  0  0
   -3.3616   -1.2558    0.0000 O   0  0  0  0  0  0  0  0  0  0  0  0
   -3.7046    0.3581    0.0000 C   0  0  0  0  0  0  0  0  0  0  0  0
  2  1  1  0
  2  6  2  0
  3  2  1  0
  4  3  2  0
  4  9  1  0
  5  4  1  0
  6  7  1  0
  8  6  1  0
  9  8  2  0
 10  9  1  1
 10 11  1  0
 12 10  1  0
 12 13  1  6
 14 12  1  0
 14 15  1  0
 15 16  1  0
 16 11  1  0
 16 17  2  0
 18 15  1  0
 18 21  2  0
 19 18  1  0
 20 19  2  0
 20 23  1  0
 21 17  1  0
 22 21  1  0
 23 22  2  0
 24 23  1  0
 24 27  1  0
 25 24  2  0
 26 24  2  0
M  END
>  <DRUGBANK_ID>  (1) 
DB07193

>  <COMMON_NAME>  (1) 
(2R,3R)-7-(methylsulfonyl)-3-(2,4,5-trifluorophenyl)-1,2,3,4-tetrahydropyrido[1,2-a]benzimidazol-2-amine

$$$$
