
     RDKit          2D

 33 38  0  0  0  0  0  0  0  0999 V2000
    3.9176   -0.8605    0.0000 C   0  0  0  0  0  0  0  0  0  0  0  0
   -3.4814   -2.7495    0.0000 C   0  0  0  0  0  0  0  0  0  0  0  0
    1.5133   -1.5549    0.0000 C   0  0  0  0  0  0  0  0  0  0  0  0
   -1.3666    2.7495    0.0000 C   0  0  0  0  0  0  0  0  0  0  0  0
   -0.3619   -2.3118    0.0000 C   0  0  0  0  0  0  0  0  0  0  0  0
    3.1668   -0.5779    0.0000 C   0  0  0  0  0  0  0  0  0  0  0  0
   -2.7957    0.4429    0.0000 C   0  0  0  0  0  0  0  0  0  0  0  0
   -2.9835   -0.3584    0.0000 C   0  0  0  0  0  0  0  0  0  0  0  0
    2.5467   -1.0868    0.0000 C   0  0  0  0  0  0  0  0  0  0  0  0
    0.1501    0.1720    0.0000 C   0  0  0  0  0  0  0  0  0  0  0  0
    0.4851   -0.4437    0.0000 C   0  0  0  0  0  0  0  0  0  0  0  0
   -0.2073    1.2519    0.0000 C   0  0  0  0  0  0  0  0  0  0  0  0
   -0.0128    2.0632    0.0000 C   0  0  0  0  0  0  0  0  0  0  0  0
   -1.5633    1.3776    0.0000 C   0  0  0  0  0  0  0  0  0  0  0  0
    0.8965    0.3657    0.0000 C   0  0  0  0  0  0  0  0  0  0  0  0
   -3.3186   -1.9639    0.0000 C   0  0  0  0  0  0  0  0  0  0  0  0
   -1.9941    0.6717    0.0000 C   0  0  0  0  0  0  0  0  0  0  0  0
   -2.3943   -0.9266    0.0000 C   0  0  0  0  0  0  0  0  0  0  0  0
    1.0452   -0.5216    0.0000 C   0  0  0  0  0  0  0  0  0  0  0  0
   -0.7300    1.3362    0.0000 C   0  0  0  0  0  0  0  0  0  0  0  0
   -1.3407    0.1548    0.0000 C   0  0  0  0  0  0  0  0  0  0  0  0
   -1.6249   -0.6382    0.0000 C   0  0  0  0  0  0  0  0  0  0  0  0
   -0.3695   -0.5432    0.0000 C   0  0  0  0  0  0  0  0  0  0  0  0
    1.7959   -0.8041    0.0000 C   0  0  0  0  0  0  0  0  0  0  0  0
    0.1473    0.8799    0.0000 C   0  0  0  0  0  0  0  0  0  0  0  0
   -0.5125    0.3739    0.0000 C   0  0  0  0  0  0  0  0  0  0  0  0
    0.3289   -1.1064    0.0000 C   0  0  0  0  0  0  0  0  0  0  0  0
   -0.8105    2.1713    0.0000 N   0  0  0  0  0  0  0  0  0  0  0  0
   -3.9176   -1.4303    0.0000 O   0  0  0  0  0  0  0  0  0  0  0  0
    2.0785   -0.0534    0.0000 O   0  0  0  0  0  0  0  0  0  0  0  0
    0.3315   -1.9086    0.0000 O   0  0  0  0  0  0  0  0  0  0  0  0
   -2.5570   -1.7121    0.0000 O   0  0  0  0  0  0  0  0  0  0  0  0
   -0.9586   -1.1116    0.0000 O   0  0  0  0  0  0  0  0  0  0  0  0
  6  1  1  0
  8  7  2  0
  9  6  1  0
 11 10  2  0
 13 12  1  0
 16  2  1  0
 17  7  1  0
 17 14  1  0
 18  8  1  0
 19 15  1  6
 19 24  1  0
 20 14  1  1
 21 17  2  0
 22 18  2  0
 22 21  1  0
 24  3  1  1
 24  9  1  0
 24 30  1  0
 25 10  1  6
 25 15  1  0
 25 20  1  0
 26 12  1  1
 26 21  1  0
 26 23  1  0
 26 25  1  0
 27 11  1  0
 27 19  1  0
 27 23  1  0
 27 31  1  6
 28  4  1  0
 28 13  1  0
 28 20  1  0
 29 16  2  0
 31  5  1  0
 32 16  1  0
 32 18  1  0
 33 22  1  0
 23 33  1  6
M  END
>  <DRUGBANK_ID>  (1) 
DB01469

>  <COMMON_NAME>  (1) 
Acetorphine

>  <CAS_NUMBER>  (1) 
25333-77-1

>  <UNII>  (1) 
2OGQ81529L

>  <SYNONYMS>  (1) 
7alpha-etorphine 3-acetate; Acetorfina; Acetorphine; Acetylpropylorvinol

$$$$
