
     RDKit          2D

 42 45  0  0  1  0  0  0  0  0999 V2000
   -8.8681    6.3931    0.0000 C   0  0  0  0  0  0  0  0  0  0  0  0
   -8.0431    6.3931    0.0000 C   0  0  0  0  0  0  0  0  0  0  0  0
   -7.6306    5.6786    0.0000 C   0  0  0  0  0  0  0  0  0  0  0  0
   -8.0431    4.9642    0.0000 C   0  0  0  0  0  0  0  0  0  0  0  0
   -8.8681    4.9642    0.0000 C   0  0  0  0  0  0  0  0  0  0  0  0
   -9.2806    5.6786    0.0000 C   0  0  0  0  0  0  0  0  0  0  0  0
  -10.1056    5.6786    0.0000 C   0  0  0  0  0  0  0  0  0  0  0  0
  -10.5181    6.3931    0.0000 N   0  0  0  0  0  0  0  0  0  0  0  0
  -10.5181    4.9642    0.0000 N   0  0  0  0  0  0  0  0  0  0  0  0
   -7.4911    4.3511    0.0000 N   0  0  0  0  0  0  0  0  0  0  0  0
   -6.7374    4.6866    0.0000 C   0  0  0  0  0  0  0  0  0  0  0  0
   -6.8236    5.5071    0.0000 N   0  0  0  0  0  0  0  0  0  0  0  0
   -6.0229    4.2741    0.0000 C   0  0  0  0  0  0  0  0  0  0  0  0
   -5.3084    4.6866    0.0000 C   0  0  0  0  0  0  0  0  0  0  0  0
   -4.5940    4.2741    0.0000 C   0  0  0  0  0  0  0  0  0  0  0  0
   -4.5940    3.4491    0.0000 C   0  0  0  0  0  0  0  0  0  0  0  0
   -5.3084    3.0366    0.0000 C   0  0  0  0  0  0  0  0  0  0  0  0
   -6.0229    3.4491    0.0000 C   0  0  0  0  0  0  0  0  0  0  0  0
   -6.7374    3.0366    0.0000 O   0  0  0  0  0  0  0  0  0  0  0  0
   -5.3084    2.2116    0.0000 C   0  0  0  0  0  0  0  0  0  0  0  0
   -4.5940    1.7991    0.0000 C   0  0  0  0  0  0  0  0  0  0  0  0
   -4.5940    0.9741    0.0000 C   0  0  0  0  0  0  0  0  0  0  0  0
   -5.3084    0.5616    0.0000 C   0  0  0  0  0  0  0  0  0  0  0  0
   -6.0229    0.9741    0.0000 C   0  0  0  0  0  0  0  0  0  0  0  0
   -6.0229    1.7991    0.0000 C   0  0  0  0  0  0  0  0  0  0  0  0
   -6.7374    2.2116    0.0000 O   0  0  0  0  0  0  0  0  0  0  0  0
   -3.8795    0.5616    0.0000 S   0  0  0  0  0  0  0  0  0  0  0  0
   -3.1650    0.1491    0.0000 O   0  0  0  0  0  0  0  0  0  0  0  0
   -4.2920   -0.1529    0.0000 O   0  0  0  0  0  0  0  0  0  0  0  0
   -3.4670    1.2761    0.0000 N   0  0  0  0  0  0  0  0  0  0  0  0
   -3.8795    4.6866    0.0000 C   0  0  0  0  0  0  0  0  0  0  0  0
   -3.1650    4.2741    0.0000 C   0  0  0  0  0  0  0  0  0  0  0  0
   -3.1650    3.4491    0.0000 O   0  0  0  0  0  0  0  0  0  0  0  0
   -2.4506    4.6866    0.0000 N   0  0  0  0  0  0  0  0  0  0  0  0
   -1.7361    4.2741    0.0000 C   0  0  0  0  0  0  0  0  0  0  0  0
   -1.0216    4.6866    0.0000 C   0  0  0  0  0  0  0  0  0  0  0  0
   -0.3072    4.2741    0.0000 C   0  0  0  0  0  0  0  0  0  0  0  0
    0.4073    4.6866    0.0000 O   0  0  0  0  0  0  0  0  0  0  0  0
   -0.3072    3.4491    0.0000 O   0  0  0  0  0  0  0  0  0  0  0  0
   -1.7361    3.4491    0.0000 C   0  0  0  0  0  0  0  0  0  0  0  0
   -1.0216    3.0366    0.0000 O   0  0  0  0  0  0  0  0  0  0  0  0
   -2.4506    3.0366    0.0000 O   0  0  0  0  0  0  0  0  0  0  0  0
  1  2  2  0
  1  6  1  0
  2  3  1  0
  3  4  2  0
  3 12  1  0
  4  5  1  0
  4 10  1  0
  5  6  2  0
  6  7  1  0
  7  8  2  0
  7  9  1  0
 10 11  1  0
 11 12  2  0
 11 13  1  0
 13 14  2  0
 13 18  1  0
 14 15  1  0
 15 16  2  0
 15 31  1  0
 16 17  1  0
 17 18  2  0
 17 20  1  0
 18 19  1  0
 20 21  2  0
 20 25  1  0
 21 22  1  0
 22 23  2  0
 22 27  1  0
 23 24  1  0
 24 25  2  0
 25 26  1  0
 27 28  2  0
 27 29  2  0
 27 30  1  0
 31 32  1  0
 32 33  2  0
 32 34  1  0
 35 34  1  0
 35 36  1  1
 35 40  1  0
 36 37  1  0
 37 38  2  0
 37 39  1  0
 40 41  2  0
 40 42  1  0
M  END
>  <DRUGBANK_ID>  (1) 
DB13000

>  <COMMON_NAME>  (1) 
PCI-27483

>  <CAS_NUMBER>  (1) 
871266-63-6

>  <UNII>  (1) 
6073LCU8U9

$$$$
