
     RDKit          2D

  6  5  0  0  0  0  0  0  0  0999 V2000
   -0.3573    0.2062    0.0000 C   0  0  0  0  0  0  0  0  0  0  0  0
   -0.3573   -0.6188    0.0000 O   0  0  0  0  0  0  0  0  0  0  0  0
    0.3572    0.6188    0.0000 C   0  0  0  0  0  0  0  0  0  0  0  0
   -1.0717    0.6188    0.0000 C   0  0  0  0  0  0  0  0  0  0  0  0
    1.0717    0.2062    0.0000 C   0  0  0  0  0  0  0  0  0  0  0  0
    1.0717   -0.6187    0.0000 O   0  0  0  0  0  0  0  0  0  0  0  0
  1  2  1  0
  1  3  1  0
  1  4  1  1
  3  5  1  0
  5  6  1  0
M  END
>  <DRUGBANK_ID>  (1) 
DB02202

>  <SECONDARY_ACCESSION_NUMBERS>  (1) 
EXPT00772

>  <COMMON_NAME>  (1) 
(S)-butane-1,3-diol

>  <CAS_NUMBER>  (1) 
24621-61-2

>  <SYNONYMS>  (1) 
(S)-(+)-Butane-1,3-diol

$$$$
