
     RDKit          2D

  4  3  0  0  0  0  0  0  0  0999 V2000
    0.0000   -0.4125    0.0000 Cl  0  0  0  0  0  0  0  0  0  0  0  0
    0.7145   -0.8250    0.0000 O   0  0  0  0  0  0  0  0  0  0  0  0
   -0.7145   -0.8250    0.0000 O   0  0  0  0  0  0  0  0  0  0  0  0
    0.0000    0.4125    0.0000 O   0  0  0  0  0  0  0  0  0  0  0  0
  1  3  1  0
  1  4  1  0
  1  2  1  0
M  CHG  3   1   2   2  -1   3  -1
M  END
>  <DRUGBANK_ID>  (1) 
DB14150

>  <COMMON_NAME>  (1) 
Chloric acid

>  <CAS_NUMBER>  (1) 
7790-93-4

>  <UNII>  (1) 
Z0V9L75H3K

>  <SYNONYMS>  (1) 
Chlorate; Chlors√§ure

$$$$
