
     RDKit          2D

 21 20  0  0  0  0  0  0  0  0999 V2000
   -4.2942    0.8057    0.0000 O   0  0  0  0  0  0  0  0  0  0  0  0
   -3.5785    0.3955    0.0000 C   0  0  0  0  0  0  0  0  0  0  0  0
   -2.8629    0.8099    0.0000 C   0  0  0  0  0  0  0  0  0  0  0  0
   -2.1471    0.3997    0.0000 N   0  0  0  0  0  0  0  0  0  0  0  0
   -1.4314    0.8141    0.0000 C   0  0  0  0  0  0  0  0  0  0  0  0
   -0.7156    0.4038    0.0000 C   0  0  0  0  0  0  0  0  0  0  0  0
    0.0000    0.8182    0.0000 N   0  0  0  0  0  0  0  0  0  0  0  0
    0.7156    0.4080    0.0000 C   0  0  0  0  0  0  0  0  0  0  0  0
    1.4314    0.8224    0.0000 C   0  0  0  0  0  0  0  0  0  0  0  0
    2.1471    0.4123    0.0000 C   0  0  0  0  0  0  0  0  0  0  0  0
    2.8629    0.8266    0.0000 C   0  0  0  0  0  0  0  0  0  0  0  0
    3.5785    0.4164    0.0000 C   0  0  0  0  0  0  0  0  0  0  0  0
    4.2942    0.8307    0.0000 O   0  0  0  0  0  0  0  0  0  0  0  0
   -3.5767   -0.4332    0.0000 O   0  0  0  0  0  0  0  0  0  0  0  0
   -1.4332    1.6428    0.0000 O   0  0  0  0  0  0  0  0  0  0  0  0
   -0.7156   -0.4206    0.0000 C   0  0  0  0  0  0  0  0  0  0  0  0
   -1.4314   -0.8307    0.0000 S   0  0  0  0  0  0  0  0  0  0  0  0
   -1.4314   -1.6553    0.0000 C   0  0  0  0  0  0  0  0  0  0  0  0
    0.7174   -0.4206    0.0000 O   0  0  0  0  0  0  0  0  0  0  0  0
    2.8610    1.6553    0.0000 N   0  0  0  0  0  0  0  0  0  0  0  0
    3.5803   -0.4123    0.0000 O   0  0  0  0  0  0  0  0  0  0  0  0
  1  2  1  0
  2 14  2  0
  2  3  1  0
  3  4  1  0
  4  5  1  0
  5  6  1  0
  5 15  2  0
  6  7  1  0
  6 16  1  1
  7  8  1  0
  8  9  1  0
  8 19  2  0
  9 10  1  0
 10 11  1  0
 11 12  1  0
 11 20  1  6
 12 13  1  0
 12 21  2  0
 16 17  1  0
 17 18  1  0
M  END
>  <DRUGBANK_ID>  (1) 
DB04701

>  <COMMON_NAME>  (1) 
S-Methyl glutathione

>  <CAS_NUMBER>  (1) 
2922-56-7

>  <UNII>  (1) 
OOW3025SR1

>  <SYNONYMS>  (1) 
Glutathione ester; Glutathione S-methyl ester; L-gamma-Glutamyl-S-methyl-L-cysteinylglycine

$$$$
