BL7
     RDKit          2D

 21 24  0  0  0  0  0  0  0  0999 V2000
   -0.5021   -2.1625    0.0000 O   0  0  0  0  0  0  0  0  0  0  0  0
   -0.5021   -1.3375    0.0000 C   0  0  0  0  0  0  0  0  0  0  0  0
    0.2123   -0.9250    0.0000 C   0  0  0  0  0  0  0  0  0  0  0  0
    0.2986   -1.7455    0.0000 O   0  0  0  0  0  0  0  0  0  0  0  0
    0.9970   -1.1799    0.0000 C   0  0  0  0  0  0  0  0  0  0  0  0
    1.4819   -0.5125    0.0000 C   0  0  0  0  0  0  0  0  0  0  0  0
    0.9970    0.1549    0.0000 N   0  0  0  0  0  0  0  0  0  0  0  0
    1.2519    0.9396    0.0000 C   0  0  0  0  0  0  0  0  0  0  0  0
    0.6999    1.5527    0.0000 C   0  0  0  0  0  0  0  0  0  0  0  0
    0.9548    2.3373    0.0000 C   0  0  0  0  0  0  0  0  0  0  0  0
    1.7618    2.5088    0.0000 C   0  0  0  0  0  0  0  0  0  0  0  0
    2.3138    1.8957    0.0000 C   0  0  0  0  0  0  0  0  0  0  0  0
    2.0589    1.1111    0.0000 C   0  0  0  0  0  0  0  0  0  0  0  0
    0.2123   -0.1000    0.0000 C   0  0  0  0  0  0  0  0  0  0  0  0
   -0.5021    0.3125    0.0000 N   0  0  0  0  0  0  0  0  0  0  0  0
   -1.2166   -0.1000    0.0000 C   0  0  0  0  0  0  0  0  0  0  0  0
   -1.2166   -0.9250    0.0000 C   0  0  0  0  0  0  0  0  0  0  0  0
   -1.9311    0.3125    0.0000 C   0  0  0  0  0  0  0  0  0  0  0  0
   -2.6455   -0.1000    0.0000 C   0  0  0  0  0  0  0  0  0  0  0  0
   -2.6455   -0.9250    0.0000 C   0  0  0  0  0  0  0  0  0  0  0  0
   -1.9311   -1.3375    0.0000 C   0  0  0  0  0  0  0  0  0  0  0  0
  1  2  2  0
  2  3  1  0
  2 17  1  0
  3  4  1  6
  3  5  1  0
  3 14  1  0
  5  6  1  0
  6  7  1  0
  7  8  1  0
  7 14  1  0
  8  9  2  0
  8 13  1  0
  9 10  1  0
 10 11  2  0
 11 12  1  0
 12 13  2  0
 14 15  2  0
 15 16  1  0
 16 17  2  0
 16 18  1  0
 17 21  1  0
 18 19  2  0
 19 20  1  0
 20 21  2  0
M  END
>  <DRUGBANK_ID>  (1) 
DB07470

>  <COMMON_NAME>  (1) 
(3aS)-3a-hydroxy-1-phenyl-1,2,3,3a-tetrahydro-4H-pyrrolo[2,3-b]quinolin-4-one

$$$$
