PGX
     RDKit          2D

 26 27  0  0  0  0  0  0  0  0999 V2000
    1.0661   -4.1518    0.0000 C   0  0  0  0  0  0  0  0  0  0  0  0
    0.7985   -3.3714    0.0000 C   0  0  0  0  0  0  0  0  0  0  0  0
   -0.0112   -3.2130    0.0000 C   0  0  0  0  0  0  0  0  0  0  0  0
   -0.2788   -2.4326    0.0000 C   0  0  0  0  0  0  0  0  0  0  0  0
    0.2632   -1.8106    0.0000 C   0  0  0  0  0  0  0  0  0  0  0  0
   -0.0044   -1.0302    0.0000 C   0  0  0  0  0  0  0  0  0  0  0  0
   -0.8141   -0.8718    0.0000 C   0  0  0  0  0  0  0  0  0  0  0  0
   -1.0817   -0.0914    0.0000 C   0  0  0  0  0  0  0  0  0  0  0  0
   -1.8122    0.2789    0.0000 C   0  0  0  0  0  0  0  0  0  0  0  0
   -1.7421    1.8147    0.0000 C   0  0  0  0  0  0  0  0  0  0  0  0
   -1.5821    0.9993    0.0000 C   0  0  0  0  0  0  0  0  0  0  0  0
   -0.7866    0.5340    0.0000 C   0  0  0  0  0  0  0  0  0  0  0  0
    0.0015    0.7780    0.0000 C   0  0  0  0  0  0  0  0  0  0  0  0
    0.6069    0.2176    0.0000 C   0  0  0  0  0  0  0  0  0  0  0  0
    1.3950    0.4616    0.0000 C   0  0  0  0  0  0  0  0  0  0  0  0
    1.5776    1.2662    0.0000 C   0  0  0  0  0  0  0  0  0  0  0  0
    0.9722    1.8266    0.0000 C   0  0  0  0  0  0  0  0  0  0  0  0
    1.1549    2.6311    0.0000 C   0  0  0  0  0  0  0  0  0  0  0  0
    0.5495    3.1916    0.0000 C   0  0  0  0  0  0  0  0  0  0  0  0
    0.7322    3.9961    0.0000 C   0  0  0  0  0  0  0  0  0  0  0  0
    1.8757   -4.3102    0.0000 O   0  0  0  0  0  0  0  0  0  0  0  0
    0.5241   -4.7737    0.0000 O   0  0  0  0  0  0  0  0  0  0  0  0
   -2.5877   -0.1114    0.0000 O   0  0  0  0  0  0  0  0  0  0  0  0
   -2.2224    0.5491    0.0000 O   0  0  0  0  0  0  0  0  0  0  0  0
    2.0004   -0.0988    0.0000 O   0  0  0  0  0  0  0  0  0  0  0  0
    1.8177   -0.9033    0.0000 O   0  0  0  0  0  0  0  0  0  0  0  0
  1  2  1  0
  1 21  2  0
  1 22  1  0
  2  3  1  0
  3  4  1  0
  4  5  1  0
  5  6  2  0
  6  7  1  0
  8  7  1  1
  8  9  1  0
  8 12  1  0
  9 10  1  0
  9 23  1  1
 10 11  1  0
 11 12  1  0
 11 24  1  6
 12 13  1  6
 13 14  2  0
 15 14  1  6
 15 16  1  0
 15 25  1  0
 16 17  1  0
 17 18  1  0
 18 19  1  0
 19 20  1  0
 23 24  1  0
 25 26  1  0
M  END
>  <DRUGBANK_ID>  (1) 
DB03866

>  <SECONDARY_ACCESSION_NUMBERS>  (1) 
EXPT02577

>  <COMMON_NAME>  (1) 
Prostaglandin G2

>  <UNII>  (1) 
AZ87DUD2Y8

$$$$
