
     RDKit          2D

 14 13  0  0  0  0  0  0  0  0999 V2000
    0.5787   -0.9033    0.0000 F   0  0  0  0  0  0  0  0  0  0  0  0
    3.4366   -0.0783    0.0000 O   0  0  0  0  0  0  0  0  0  0  0  0
    2.7220    1.1591    0.0000 O   0  0  0  0  0  0  0  0  0  0  0  0
    2.0076   -0.9033    0.0000 N   0  0  0  0  0  0  0  0  0  0  0  0
   -1.5646    0.3341    0.0000 N   0  0  0  0  0  0  0  0  0  0  0  0
   -2.9936    0.3341    0.0000 N   0  0  0  0  0  0  0  0  0  0  0  0
    0.5787   -0.0783    0.0000 C   0  0  0  0  0  0  0  0  0  0  0  0
    1.2931    0.3341    0.0000 C   0  0  0  0  0  0  0  0  0  0  0  0
   -0.1357    0.3341    0.0000 C   0  0  0  0  0  0  0  0  0  0  0  0
    2.0076   -0.0783    0.0000 C   0  0  0  0  0  0  0  0  0  0  0  0
   -0.8502   -0.0783    0.0000 C   0  0  0  0  0  0  0  0  0  0  0  0
    2.7220    0.3341    0.0000 C   0  0  0  0  0  0  0  0  0  0  0  0
   -2.2791   -0.0783    0.0000 C   0  0  0  0  0  0  0  0  0  0  0  0
   -2.2791   -0.9033    0.0000 C   0  0  0  0  0  0  0  0  0  0  0  0
  7  1  1  1
  2 12  1  0
  3 12  2  0
  5 11  1  0
  5 13  2  0
  6 13  1  0
  7  8  1  0
  7  9  1  0
  8 10  1  0
  9 11  1  0
 10  4  1  1
 10 12  1  0
 13 14  1  0
M  END
>  <DRUGBANK_ID>  (1) 
DB01835

>  <SECONDARY_ACCESSION_NUMBERS>  (1) 
EXPT01816

>  <COMMON_NAME>  (1) 
4R-Fluoro-N6-ethanimidoyl-L-lysine

$$$$
