
     RDKit          2D

 20 19  0  0  0  0  0  0  0  0999 V2000
    5.3579    1.2373    0.0000 O   0  0  0  0  0  0  0  0  0  0  0  0
    4.6436    1.6498    0.0000 C   0  0  0  0  0  0  0  0  0  0  0  0
    3.9291    1.2373    0.0000 C   0  0  0  0  0  0  0  0  0  0  0  0
    3.2147    1.6498    0.0000 C   0  0  0  0  0  0  0  0  0  0  0  0
    2.5003    1.2373    0.0000 C   0  0  0  0  0  0  0  0  0  0  0  0
    1.7859    1.6498    0.0000 C   0  0  0  0  0  0  0  0  0  0  0  0
    1.0715    1.2373    0.0000 C   0  0  0  0  0  0  0  0  0  0  0  0
    0.3571    1.6498    0.0000 C   0  0  0  0  0  0  0  0  0  0  0  0
   -0.3572    1.2373    0.0000 C   0  0  0  0  0  0  0  0  0  0  0  0
   -1.0716    1.6498    0.0000 C   0  0  0  0  0  0  0  0  0  0  0  0
   -1.7860    1.2373    0.0000 C   0  0  0  0  0  0  0  0  0  0  0  0
   -2.5005    1.6498    0.0000 C   0  0  0  0  0  0  0  0  0  0  0  0
   -3.2148    1.2373    0.0000 C   0  0  0  0  0  0  0  0  0  0  0  0
    4.6436    2.4747    0.0000 O   0  0  0  0  0  0  0  0  0  0  0  0
   -3.2148    0.4125    0.0000 C   0  0  0  0  0  0  0  0  0  0  0  0
   -3.9292    0.0000    0.0000 C   0  0  0  0  0  0  0  0  0  0  0  0
   -3.9292   -0.8249    0.0000 C   0  0  0  0  0  0  0  0  0  0  0  0
   -4.6437   -1.2373    0.0000 C   0  0  0  0  0  0  0  0  0  0  0  0
   -4.6437   -2.0623    0.0000 C   0  0  0  0  0  0  0  0  0  0  0  0
   -5.3580   -2.4747    0.0000 C   0  0  0  0  0  0  0  0  0  0  0  0
  2  1  1  0
  2 14  2  0
  2  3  1  0
  3  4  1  0
  4  5  1  0
  5  6  1  0
  6  7  1  0
  7  8  1  0
  8  9  1  0
  9 10  1  0
 10 11  1  0
 12 11  1  0
 13 12  2  0
 15 13  1  0
 16 15  1  0
 17 16  1  0
 18 17  1  0
 19 18  1  0
 20 19  1  0
M  END
>  <DRUGBANK_ID>  (1) 
DB04801

>  <COMMON_NAME>  (1) 
cis-Vaccenic acid

>  <CAS_NUMBER>  (1) 
506-17-2

>  <UNII>  (1) 
400K7322UW

>  <SYNONYMS>  (1) 
(Z)-11-octadecenoic acid; (Z)-octadec-11-enoic acid; Asclepic acid; cis-11-octadecenoic acid; cis-octadec-11-enoic acid; trans-11-Octadecens√§ure

$$$$
