
     RDKit          2D

 24 26  0  0  0  0  0  0  0  0999 V2000
    0.3187    3.1132    0.0000 S   0  0  0  0  0  0  0  0  0  0  0  0
    0.5638   -3.0492    0.0000 S   0  0  0  0  0  0  0  0  0  0  0  0
   -0.3486   -0.6719    0.0000 O   0  0  0  0  0  0  0  0  0  0  0  0
    1.1438    3.1132    0.0000 O   0  0  0  0  0  0  0  0  0  0  0  0
   -0.5062    3.1132    0.0000 O   0  0  0  0  0  0  0  0  0  0  0  0
   -1.4762   -3.6785    0.0000 O   0  0  0  0  0  0  0  0  0  0  0  0
    0.3187    3.9383    0.0000 N   0  0  0  0  0  0  0  0  0  0  0  0
   -0.1036   -4.2054    0.0000 N   0  0  0  0  0  0  0  0  0  0  0  0
    1.3646   -4.2823    0.0000 N   0  0  0  0  0  0  0  0  0  0  0  0
    0.3187    0.6380    0.0000 C   0  0  0  0  0  0  0  0  0  0  0  0
    0.3187    2.2882    0.0000 C   0  0  0  0  0  0  0  0  0  0  0  0
    0.3187   -0.1869    0.0000 C   0  0  0  0  0  0  0  0  0  0  0  0
   -0.3957    1.0506    0.0000 C   0  0  0  0  0  0  0  0  0  0  0  0
    1.0332    1.0506    0.0000 C   0  0  0  0  0  0  0  0  0  0  0  0
   -0.3957    1.8756    0.0000 C   0  0  0  0  0  0  0  0  0  0  0  0
    1.0332    1.8756    0.0000 C   0  0  0  0  0  0  0  0  0  0  0  0
   -0.0937   -1.4564    0.0000 C   0  0  0  0  0  0  0  0  0  0  0  0
    0.9862   -0.6719    0.0000 C   0  0  0  0  0  0  0  0  0  0  0  0
    0.7313   -1.4564    0.0000 C   0  0  0  0  0  0  0  0  0  0  0  0
   -0.5786   -2.1240    0.0000 C   0  0  0  0  0  0  0  0  0  0  0  0
   -0.2431   -2.8777    0.0000 C   0  0  0  0  0  0  0  0  0  0  0  0
    1.0332    4.3508    0.0000 C   0  0  0  0  0  0  0  0  0  0  0  0
   -0.6556   -3.5923    0.0000 C   0  0  0  0  0  0  0  0  0  0  0  0
    0.6500   -3.8698    0.0000 C   0  0  0  0  0  0  0  0  0  0  0  0
  1  4  2  0
  1  5  2  0
  1  7  1  0
  1 11  1  0
  2 21  1  0
  2 24  1  0
  3 12  1  0
  3 17  1  0
  6 23  2  0
  7 22  1  0
  8 23  1  0
  8 24  1  0
  9 24  2  0
 10 12  1  0
 10 13  2  0
 10 14  1  0
 11 15  2  0
 11 16  1  0
 12 18  2  0
 13 15  1  0
 14 16  2  0
 17 19  2  0
 17 20  1  0
 18 19  1  0
 20 21  2  0
 21 23  1  0
M  END
>  <DRUGBANK_ID>  (1) 
DB07533

>  <COMMON_NAME>  (1) 
4-{5-[(Z)-(2-Imino-4-Oxo-1,3-Thiazolidin-5-Ylidene)methyl]-2-Furyl}-N-Methylbenzenesulfonamide

$$$$
