
     RDKit          2D

 31 32  0  0  0  0  0  0  0  0999 V2000
   -3.9295    0.0000    0.0000 C   0  0  0  0  0  0  0  0  0  0  0  0
   -4.6440   -0.4125    0.0000 C   0  0  0  0  0  0  0  0  0  0  0  0
   -5.3585   -0.8250    0.0000 F   0  0  0  0  0  0  0  0  0  0  0  0
   -4.2315   -1.1269    0.0000 F   0  0  0  0  0  0  0  0  0  0  0  0
   -5.0565    0.3020    0.0000 F   0  0  0  0  0  0  0  0  0  0  0  0
   -3.9295    0.8250    0.0000 C   0  0  0  0  0  0  0  0  0  0  0  0
   -4.6440    1.2375    0.0000 N   0  0  0  0  0  0  0  0  0  0  0  0
   -5.3585    0.8250    0.0000 O   0  0  0  0  0  0  0  0  0  0  0  0
   -4.6440    2.0625    0.0000 O   0  0  0  0  0  0  0  0  0  0  0  0
   -3.2151    1.2375    0.0000 C   0  0  0  0  0  0  0  0  0  0  0  0
   -2.5006    0.8250    0.0000 C   0  0  0  0  0  0  0  0  0  0  0  0
   -2.5006    0.0000    0.0000 C   0  0  0  0  0  0  0  0  0  0  0  0
   -1.7861   -0.4125    0.0000 N   0  0  0  0  0  0  0  0  0  0  0  0
   -1.0717    0.0000    0.0000 C   0  0  0  0  0  0  0  0  0  0  0  0
   -0.3572   -0.4125    0.0000 C   0  0  0  0  0  0  0  0  0  0  0  0
    0.3572   -0.8250    0.0000 C   0  0  0  0  0  0  0  0  0  0  0  0
    1.0717   -0.4125    0.0000 O   0  0  0  0  0  0  0  0  0  0  0  0
    1.7861   -0.8250    0.0000 C   0  0  0  0  0  0  0  0  0  0  0  0
    2.5006   -0.4125    0.0000 C   0  0  0  0  0  0  0  0  0  0  0  0
    3.2151   -0.8250    0.0000 C   0  0  0  0  0  0  0  0  0  0  0  0
    3.2151   -1.6499    0.0000 C   0  0  0  0  0  0  0  0  0  0  0  0
    3.9295   -2.0625    0.0000 N   0  0  0  0  0  0  0  0  0  0  0  0
    4.6440   -1.6499    0.0000 C   0  0  0  0  0  0  0  0  0  0  0  0
    5.3585   -2.0625    0.0000 C   0  0  0  0  0  0  0  0  0  0  0  0
    4.6440   -0.8250    0.0000 O   0  0  0  0  0  0  0  0  0  0  0  0
    2.5006   -2.0625    0.0000 C   0  0  0  0  0  0  0  0  0  0  0  0
    1.7861   -1.6499    0.0000 C   0  0  0  0  0  0  0  0  0  0  0  0
    0.0552    0.3020    0.0000 O   0  0  0  0  0  0  0  0  0  0  0  0
   -0.7697   -1.1269    0.0000 C   0  0  0  0  0  0  0  0  0  0  0  0
   -1.0717    0.8250    0.0000 O   0  0  0  0  0  0  0  0  0  0  0  0
   -3.2151   -0.4125    0.0000 C   0  0  0  0  0  0  0  0  0  0  0  0
  2  1  1  0
  3  2  1  0
  4  2  1  0
  5  2  1  0
  6  1  2  0
  7  6  1  0
  8  7  1  0
  9  7  2  0
 10  6  1  0
 11 10  2  0
 11 12  1  0
 12 31  2  0
 13 12  1  0
 14 13  1  0
 15 14  1  0
 15 28  1  0
 15 29  1  6
 16 15  1  0
 17 16  1  0
 18 17  1  0
 19 18  2  0
 20 19  1  0
 21 20  2  0
 21 26  1  0
 22 21  1  0
 23 22  1  0
 24 23  1  0
 25 23  2  0
 26 27  2  0
 27 18  1  0
 30 14  2  0
 31  1  1  0
M  CHG  2   7   1   8  -1
M  END
>  <DRUGBANK_ID>  (1) 
DB07423

>  <COMMON_NAME>  (1) 
Andarine

>  <CAS_NUMBER>  (1) 
401900-40-1

>  <UNII>  (1) 
7UT2HAH49H

>  <SYNONYMS>  (1) 
(2S)-3-(4-acetamidophenoxy)-2-hydroxy-2-methyl-N-[4-nitro-3-(trifluoromethyl)phenyl]propanamide

$$$$
