HBY
     RDKit          2D

 22 23  0  0  0  0  0  0  0  0999 V2000
   -0.7727   -0.7122    0.0000 C   0  0  0  0  0  0  0  0  0  0  0  0
   -0.7727   -1.5372    0.0000 C   0  0  0  0  0  0  0  0  0  0  0  0
    0.6563   -1.5372    0.0000 C   0  0  0  0  0  0  0  0  0  0  0  0
    0.6563   -0.7122    0.0000 C   0  0  0  0  0  0  0  0  0  0  0  0
    1.3707   -0.2997    0.0000 C   0  0  0  0  0  0  0  0  0  0  0  0
    2.0852   -0.7122    0.0000 C   0  0  0  0  0  0  0  0  0  0  0  0
    2.0852   -1.5372    0.0000 C   0  0  0  0  0  0  0  0  0  0  0  0
    1.3707   -1.9497    0.0000 C   0  0  0  0  0  0  0  0  0  0  0  0
   -0.0582    0.5253    0.0000 C   0  0  0  0  0  0  0  0  0  0  0  0
   -0.7727    1.7628    0.0000 C   0  0  0  0  0  0  0  0  0  0  0  0
   -1.4872    2.1753    0.0000 C   0  0  0  0  0  0  0  0  0  0  0  0
   -0.0582    2.1753    0.0000 C   0  0  0  0  0  0  0  0  0  0  0  0
   -1.4872   -0.2997    0.0000 C   0  0  0  0  0  0  0  0  0  0  0  0
   -2.9161   -0.2997    0.0000 C   0  0  0  0  0  0  0  0  0  0  0  0
    2.7997    0.5253    0.0000 C   0  0  0  0  0  0  0  0  0  0  0  0
   -0.0582   -0.2997    0.0000 N   0  0  0  0  0  0  0  0  0  0  0  0
   -0.0582   -1.9497    0.0000 N   0  0  0  0  0  0  0  0  0  0  0  0
    0.6563    0.9378    0.0000 O   0  0  0  0  0  0  0  0  0  0  0  0
   -0.7727    0.9378    0.0000 O   0  0  0  0  0  0  0  0  0  0  0  0
    2.7997   -0.2997    0.0000 O   0  0  0  0  0  0  0  0  0  0  0  0
   -1.4872   -1.9497    0.0000 S   0  0  0  0  0  0  0  0  0  0  0  0
   -2.2016   -0.7122    0.0000 S   0  0  0  0  0  0  0  0  0  0  0  0
  1  2  1  0
  1 13  1  6
  1 16  1  0
  2 17  1  0
  2 21  2  0
  3  4  2  0
  3  8  1  0
  3 17  1  0
  4  5  1  0
  4 16  1  0
  5  6  2  0
  6  7  1  0
  6 20  1  0
  7  8  2  0
  9 16  1  0
  9 18  2  0
  9 19  1  0
 10 11  1  0
 10 12  1  0
 10 19  1  0
 13 22  1  0
 14 22  1  0
 15 20  1  0
M  END
>  <DRUGBANK_ID>  (1) 
DB07885

>  <SECONDARY_ACCESSION_NUMBERS>  (1) 
DB13079

>  <COMMON_NAME>  (1) 
Talviraline

>  <CAS_NUMBER>  (1) 
163451-80-7

>  <UNII>  (1) 
XZ4KT6MO4X

>  <SYNONYMS>  (1) 
Isopropyl (2S)-3,4-dihydro-7-methoxy-2-((methylthio)methyl)-3-thioxo-1(2H)-quinoxalinecarboxylate; Talviraline

$$$$
