
     RDKit          2D

 18 20  0  0  0  0  0  0  0  0999 V2000
    1.7064    2.6812    0.0000 N   0  0  0  0  0  0  0  0  0  0  0  0
    0.9920    2.2687    0.0000 C   0  0  0  0  0  0  0  0  0  0  0  0
    0.9920    1.4437    0.0000 N   0  0  0  0  0  0  0  0  0  0  0  0
    0.2775    1.0312    0.0000 C   0  0  0  0  0  0  0  0  0  0  0  0
    0.2775    0.2062    0.0000 O   0  0  0  0  0  0  0  0  0  0  0  0
    0.9920   -0.2062    0.0000 C   0  0  0  0  0  0  0  0  0  0  0  0
    0.9920   -1.0312    0.0000 C   0  0  0  0  0  0  0  0  0  0  0  0
    1.7064   -1.4437    0.0000 C   0  0  0  0  0  0  0  0  0  0  0  0
    1.7064   -2.2687    0.0000 C   0  0  0  0  0  0  0  0  0  0  0  0
    0.9920   -2.6812    0.0000 C   0  0  0  0  0  0  0  0  0  0  0  0
    0.2775   -2.2687    0.0000 C   0  0  0  0  0  0  0  0  0  0  0  0
    0.2775   -1.4437    0.0000 C   0  0  0  0  0  0  0  0  0  0  0  0
   -0.4369    1.4437    0.0000 C   0  0  0  0  0  0  0  0  0  0  0  0
   -1.2215    1.1888    0.0000 N   0  0  0  0  0  0  0  0  0  0  0  0
   -1.7064    1.8562    0.0000 C   0  0  0  0  0  0  0  0  0  0  0  0
   -1.2215    2.5236    0.0000 N   0  0  0  0  0  0  0  0  0  0  0  0
   -0.4369    2.2687    0.0000 C   0  0  0  0  0  0  0  0  0  0  0  0
    0.2775    2.6812    0.0000 N   0  0  0  0  0  0  0  0  0  0  0  0
  1  2  1  0
  2  3  2  0
  2 18  1  0
  3  4  1  0
  4  5  1  0
  4 13  2  0
  5  6  1  0
  6  7  1  0
  7  8  2  0
  7 12  1  0
  8  9  1  0
  9 10  2  0
 10 11  1  0
 11 12  2  0
 13 14  1  0
 13 17  1  0
 14 15  2  0
 15 16  1  0
 16 17  1  0
 17 18  2  0
M  END
>  <DRUGBANK_ID>  (1) 
DB11919

>  <COMMON_NAME>  (1) 
6-O-benzylguanine

>  <CAS_NUMBER>  (1) 
19916-73-5

>  <UNII>  (1) 
01KC87F8FE

>  <SYNONYMS>  (1) 
O(6)-Benzylguanine; O6-benzylguanine

$$$$
