269
     RDKit          2D

 11 11  0  0  0  0  0  0  0  0999 V2000
    0.5304   -0.6980    0.0000 C   0  0  0  0  0  0  0  0  0  0  0  0
    0.5304   -1.5230    0.0000 C   0  0  0  0  0  0  0  0  0  0  0  0
   -0.1841   -1.9355    0.0000 C   0  0  0  0  0  0  0  0  0  0  0  0
   -0.8985   -1.5230    0.0000 C   0  0  0  0  0  0  0  0  0  0  0  0
   -0.8985   -0.6980    0.0000 C   0  0  0  0  0  0  0  0  0  0  0  0
   -0.1841   -0.2855    0.0000 C   0  0  0  0  0  0  0  0  0  0  0  0
   -0.1841    0.5395    0.0000 C   0  0  0  0  0  0  0  0  0  0  0  0
    0.5304    0.9520    0.0000 O   0  0  0  0  0  0  0  0  0  0  0  0
   -0.8985    0.9520    0.0000 C   0  0  0  0  0  0  0  0  0  0  0  0
   -0.8985    1.7770    0.0000 C   0  0  0  0  0  0  0  0  0  0  0  0
   -1.6130    2.1895    0.0000 Cl  0  0  0  0  0  0  0  0  0  0  0  0
  1  2  2  0
  1  6  1  0
  2  3  1  0
  3  4  2  0
  4  5  1  0
  5  6  2  0
  6  7  1  0
  7  8  1  1
  7  9  1  0
  9 10  1  0
 10 11  1  0
M  END
>  <DRUGBANK_ID>  (1) 
DB06934

>  <COMMON_NAME>  (1) 
(1R)-3-chloro-1-phenylpropan-1-ol

>  <UNII>  (1) 
4GCY8M2PYD

$$$$
