
     RDKit          2D

 22 21  0  0  0  0  0  0  0  0999 V2000
    8.6625    5.0013    0.0000 C   0  0  0  0  0  0  0  0  0  0  0  0
    8.2500    4.2868    0.0000 C   0  0  0  0  0  0  0  0  0  0  0  0
    8.6625    3.5724    0.0000 C   0  0  0  0  0  0  0  0  0  0  0  0
    7.4250    4.2868    0.0000 C   0  0  0  0  0  0  0  0  0  0  0  0
    7.0125    3.5724    0.0000 C   0  0  0  0  0  0  0  0  0  0  0  0
    6.1875    3.5724    0.0000 C   0  0  0  0  0  0  0  0  0  0  0  0
    5.7750    2.8579    0.0000 C   0  0  0  0  0  0  0  0  0  0  0  0
    6.1875    2.1434    0.0000 C   0  0  0  0  0  0  0  0  0  0  0  0
    4.9500    2.8579    0.0000 C   0  0  0  0  0  0  0  0  0  0  0  0
    4.5375    2.1434    0.0000 C   0  0  0  0  0  0  0  0  0  0  0  0
    3.7125    2.1434    0.0000 C   0  0  0  0  0  0  0  0  0  0  0  0
    3.3000    1.4289    0.0000 C   0  0  0  0  0  0  0  0  0  0  0  0
    3.7125    0.7145    0.0000 C   0  0  0  0  0  0  0  0  0  0  0  0
    2.4750    1.4289    0.0000 C   0  0  0  0  0  0  0  0  0  0  0  0
    2.0625    0.7145    0.0000 C   0  0  0  0  0  0  0  0  0  0  0  0
    1.2375    0.7145    0.0000 C   0  0  0  0  0  0  0  0  0  0  0  0
    0.8250    0.0000    0.0000 C   0  0  0  0  0  0  0  0  0  0  0  0
    1.2375   -0.7145    0.0000 C   0  0  0  0  0  0  0  0  0  0  0  0
    0.0000    0.0000    0.0000 C   0  0  0  0  0  0  0  0  0  0  0  0
   -0.4125   -0.7145    0.0000 C   0  0  0  0  0  0  0  0  0  0  0  0
    0.0000   -1.4289    0.0000 O   0  0  0  0  0  0  0  0  0  0  0  0
   -1.2375   -0.7145    0.0000 O   0  0  0  0  0  0  0  0  0  0  0  0
  1  2  1  0
  2  3  1  0
  2  4  2  3
  4  5  1  0
  5  6  1  0
  6  7  1  0
  7  8  1  0
  7  9  2  0
  9 10  1  0
 10 11  1  0
 11 12  1  0
 12 13  1  0
 12 14  2  0
 14 15  1  0
 15 16  2  0
 16 17  1  0
 17 18  1  0
 17 19  2  0
 19 20  1  0
 20 21  1  0
 20 22  2  0
M  END
>  <DRUGBANK_ID>  (1) 
DB16291

>  <COMMON_NAME>  (1) 
Peretinoin

>  <CAS_NUMBER>  (1) 
81485-25-8

>  <UNII>  (1) 
11ALM7A4RV

>  <SYNONYMS>  (1) 
Peretinoin

$$$$
