2RD
     RDKit          2D

 21 21  0  0  0  0  0  0  0  0999 V2000
   -3.8870    0.2242    0.0000 C   0  0  0  0  0  0  0  0  0  0  0  0
   -3.1724   -0.1883    0.0000 C   0  0  0  0  0  0  0  0  0  0  0  0
   -2.4579    0.2242    0.0000 C   0  0  0  0  0  0  0  0  0  0  0  0
   -1.7434   -0.1883    0.0000 C   0  0  0  0  0  0  0  0  0  0  0  0
   -1.0289    0.2242    0.0000 C   0  0  0  0  0  0  0  0  0  0  0  0
   -0.3143   -0.1883    0.0000 C   0  0  0  0  0  0  0  0  0  0  0  0
    0.4001    0.2242    0.0000 C   0  0  0  0  0  0  0  0  0  0  0  0
    1.1147   -0.1883    0.0000 C   0  0  0  0  0  0  0  0  0  0  0  0
    1.8292    0.2242    0.0000 C   0  0  0  0  0  0  0  0  0  0  0  0
    2.5438   -0.1883    0.0000 C   0  0  0  0  0  0  0  0  0  0  0  0
    3.2582    0.2242    0.0000 C   0  0  0  0  0  0  0  0  0  0  0  0
    3.9728   -0.1883    0.0000 C   0  0  0  0  0  0  0  0  0  0  0  0
    4.6873    0.2242    0.0000 S   0  0  0  0  0  0  0  0  0  0  0  0
    5.4018   -0.1883    0.0000 C   0  0  0  0  0  0  0  0  0  0  0  0
    5.4881   -1.0089    0.0000 N   0  0  0  0  0  0  0  0  0  0  0  0
    6.2952   -1.1804    0.0000 N   0  0  0  0  0  0  0  0  0  0  0  0
    6.7077   -0.4658    0.0000 N   0  0  0  0  0  0  0  0  0  0  0  0
    6.1556    0.1473    0.0000 C   0  0  0  0  0  0  0  0  0  0  0  0
    6.3271    0.9543    0.0000 C   0  0  0  0  0  0  0  0  0  0  0  0
    5.7140    1.5064    0.0000 O   0  0  0  0  0  0  0  0  0  0  0  0
    7.1118    1.2093    0.0000 O   0  0  0  0  0  0  0  0  0  0  0  0
  1  2  1  0
  2  3  1  0
  3  4  1  0
  4  5  1  0
  6  5  1  0
  6  7  1  0
  7  8  1  0
  9  8  1  0
  9 10  1  0
 11 10  1  0
 11 12  1  0
 12 13  1  0
 13 14  1  0
 14 18  2  0
 14 15  1  0
 15 16  1  0
 17 16  2  0
 18 17  1  0
 19 18  1  0
 19 21  1  0
 20 19  2  0
M  END
>  <DRUGBANK_ID>  (1) 
DB06979

>  <COMMON_NAME>  (1) 
5-(dodecylthio)-1H-1,2,3-triazole-4-carboxylic acid

$$$$
