
     RDKit          2D

 26 29  0  0  1  0  0  0  0  0999 V2000
   -1.2371   -0.9685    0.0000 C   0  0  0  0  0  0  0  0  0  0  0  0
   -1.5726   -1.7222    0.0000 C   0  0  0  0  0  0  0  0  0  0  0  0
   -2.3931   -1.8084    0.0000 O   0  0  0  0  0  0  0  0  0  0  0  0
   -1.0877   -2.3896    0.0000 C   0  0  0  0  0  0  0  0  0  0  0  0
   -0.2627   -2.3896    0.0000 N   0  0  0  0  0  0  0  0  0  0  0  0
   -0.0078   -3.1743    0.0000 N   0  0  0  0  0  0  0  0  0  0  0  0
   -0.6752   -3.6592    0.0000 C   0  0  0  0  0  0  0  0  0  0  0  0
   -1.3426   -3.1743    0.0000 O   0  0  0  0  0  0  0  0  0  0  0  0
   -0.6752   -4.4842    0.0000 C   0  0  0  0  0  0  0  0  0  0  0  0
   -0.0918   -5.0675    0.0000 C   0  0  0  0  0  0  0  0  0  0  0  0
   -0.6752   -5.6509    0.0000 C   0  0  0  0  0  0  0  0  0  0  0  0
   -1.2586   -5.0675    0.0000 C   0  0  0  0  0  0  0  0  0  0  0  0
   -0.6752   -6.4759    0.0000 N   0  0  0  0  0  0  0  0  0  0  0  0
    0.0393   -6.8884    0.0000 C   0  0  0  0  0  0  0  0  0  0  0  0
    0.7537   -6.4759    0.0000 O   0  0  0  0  0  0  0  0  0  0  0  0
    0.0393   -7.7134    0.0000 C   0  0  0  0  0  0  0  0  0  0  0  0
    0.7067   -8.1983    0.0000 C   0  0  0  0  0  0  0  0  0  0  0  0
    0.4518   -8.9830    0.0000 C   0  0  0  0  0  0  0  0  0  0  0  0
   -0.3732   -8.9830    0.0000 N   0  0  0  0  0  0  0  0  0  0  0  0
   -0.6282   -8.1983    0.0000 O   0  0  0  0  0  0  0  0  0  0  0  0
    0.9367   -9.6504    0.0000 C   0  0  0  0  0  0  0  0  0  0  0  0
    1.7572   -9.5642    0.0000 C   0  0  0  0  0  0  0  0  0  0  0  0
    2.2421  -10.2316    0.0000 C   0  0  0  0  0  0  0  0  0  0  0  0
    1.9065  -10.9853    0.0000 C   0  0  0  0  0  0  0  0  0  0  0  0
    1.0860  -11.0715    0.0000 C   0  0  0  0  0  0  0  0  0  0  0  0
    0.6011  -10.4041    0.0000 C   0  0  0  0  0  0  0  0  0  0  0  0
  2  1  1  6
  2  3  1  0
  2  4  1  0
  4  5  2  0
  4  8  1  0
  5  6  1  0
  6  7  2  0
  7  8  1  0
  9  7  1  1
  9 10  1  0
  9 12  1  0
 11 10  1  0
 11 12  1  0
 11 13  1  6
 13 14  1  0
 14 15  2  0
 14 16  1  0
 16 17  2  0
 16 20  1  0
 17 18  1  0
 18 19  2  0
 18 21  1  0
 19 20  1  0
 21 22  2  0
 21 26  1  0
 22 23  1  0
 23 24  2  0
 24 25  1  0
 25 26  2  0
M  END
>  <DRUGBANK_ID>  (1) 
DB15239

>  <COMMON_NAME>  (1) 
Nesolicaftor

>  <CAS_NUMBER>  (1) 
1953130-87-4

>  <UNII>  (1) 
T2U4ZA62U4

>  <SYNONYMS>  (1) 
N-(trans-3-(5-((R)-1-hydroxyethyl)-1,3,4-oxadiazol-2-yl)cyclobutyl)-3-phenylisoxazole-5-carboxamide; Nesolicitor

$$$$
