
     RDKit          2D

 32 33  0  0  1  0  0  0  0  0999 V2000
    2.8579   -4.1250    0.0000 C   0  0  0  0  0  0  0  0  0  0  0  0
    3.5724   -3.7125    0.0000 C   0  0  0  0  0  0  0  0  0  0  0  0
    4.2868   -4.1250    0.0000 C   0  0  0  0  0  0  0  0  0  0  0  0
    5.0013   -3.7125    0.0000 C   0  0  0  0  0  0  0  0  0  0  0  0
    5.7158   -4.1250    0.0000 C   0  0  0  0  0  0  0  0  0  0  0  0
    6.4302   -3.7125    0.0000 C   0  0  0  0  0  0  0  0  0  0  0  0
    7.1447   -4.1250    0.0000 C   0  0  0  0  0  0  0  0  0  0  0  0
   10.0026   -1.6500    0.0000 C   0  0  0  0  0  0  0  0  0  0  0  0
   12.0607   -6.9900    0.0000 C   0  0  0  0  0  0  0  0  0  0  0  0
   10.6111   -4.8638    0.0000 C   0  0  0  0  0  0  0  0  0  0  0  0
   10.0026   -2.4750    0.0000 C   0  0  0  0  0  0  0  0  0  0  0  0
   11.9745   -6.1695    0.0000 C   0  0  0  0  0  0  0  0  0  0  0  0
    7.8592   -3.7125    0.0000 C   0  0  0  0  0  0  0  0  0  0  0  0
    9.2881   -2.8875    0.0000 C   0  0  0  0  0  0  0  0  0  0  0  0
   12.5876   -5.6174    0.0000 C   0  0  0  0  0  0  0  0  0  0  0  0
   10.0026   -4.1250    0.0000 C   0  0  0  0  0  0  0  0  0  0  0  0
    9.2881   -3.7125    0.0000 C   0  0  0  0  0  0  0  0  0  0  0  0
   12.2520   -4.8638    0.0000 C   0  0  0  0  0  0  0  0  0  0  0  0
   10.7171   -3.7125    0.0000 C   0  0  0  0  0  0  0  0  0  0  0  0
   11.4315   -4.9500    0.0000 C   0  0  0  0  0  0  0  0  0  0  0  0
   10.7171   -1.2375    0.0000 O   0  0  0  0  0  0  0  0  0  0  0  0
   12.8144   -7.3255    0.0000 O   0  0  0  0  0  0  0  0  0  0  0  0
   10.1261   -5.5312    0.0000 O   0  0  0  0  0  0  0  0  0  0  0  0
    7.8592   -2.8875    0.0000 O   0  0  0  0  0  0  0  0  0  0  0  0
    8.5737   -2.4750    0.0000 O   0  0  0  0  0  0  0  0  0  0  0  0
   13.3945   -5.7890    0.0000 O   0  0  0  0  0  0  0  0  0  0  0  0
   10.0026   -4.9500    0.0000 O   0  0  0  0  0  0  0  0  0  0  0  0
   12.6645   -4.1493    0.0000 O   0  0  0  0  0  0  0  0  0  0  0  0
   10.7171   -2.8875    0.0000 O   0  0  0  0  0  0  0  0  0  0  0  0
    8.5737   -4.1250    0.0000 O   0  0  0  0  0  0  0  0  0  0  0  0
   11.2600   -5.7570    0.0000 O   0  0  0  0  0  0  0  0  0  0  0  0
   11.4315   -4.1250    0.0000 O   0  0  0  0  0  0  0  0  0  0  0  0
  2  1  1  0
  3  2  1  0
  4  3  1  0
  5  4  1  0
  6  5  1  0
  7  6  1  0
 11  8  1  1
 12  9  1  1
 13  7  1  0
 14 11  1  0
 14 25  1  6
 15 12  1  0
 15 26  1  6
 16 27  1  6
 17 14  1  0
 17 16  1  0
 17 30  1  1
 18 15  1  0
 18 28  1  1
 19 16  1  0
 19 32  1  6
 20 10  1  6
 20 18  1  0
 20 32  1  0
 21  8  1  0
 22  9  1  0
 23 10  1  0
 24 13  2  0
 29 11  1  0
 29 19  1  0
 30 13  1  0
 31 12  1  0
 31 20  1  0
M  END
>  <DRUGBANK_ID>  (1) 
DB02346

>  <SECONDARY_ACCESSION_NUMBERS>  (1) 
EXPT00139

>  <COMMON_NAME>  (1) 
3'-O-N-Octanoyl-a-D-Glucopyranosyl-B-D-Fructofuranoside

$$$$
