
     RDKit          2D

 33 37  0  0  0  0  0  0  0  0999 V2000
   -4.5312   -0.7045    0.0000 C   0  0  0  0  0  0  0  0  0  0  0  0
   -5.1987   -1.1894    0.0000 C   0  0  0  0  0  0  0  0  0  0  0  0
   -4.9438   -1.9740    0.0000 C   0  0  0  0  0  0  0  0  0  0  0  0
   -4.1187   -1.9740    0.0000 C   0  0  0  0  0  0  0  0  0  0  0  0
   -3.8638   -1.1894    0.0000 N   0  0  0  0  0  0  0  0  0  0  0  0
   -3.0792   -0.9345    0.0000 C   0  0  0  0  0  0  0  0  0  0  0  0
   -2.4661   -1.4865    0.0000 C   0  0  0  0  0  0  0  0  0  0  0  0
   -1.6815   -1.2316    0.0000 C   0  0  0  0  0  0  0  0  0  0  0  0
   -1.0684   -1.7836    0.0000 O   0  0  0  0  0  0  0  0  0  0  0  0
   -0.4850   -1.2003    0.0000 C   0  0  0  0  0  0  0  0  0  0  0  0
    0.9439   -0.3753    0.0000 C   0  0  0  0  0  0  0  0  0  0  0  0
    0.2295    0.0372    0.0000 C   0  0  0  0  0  0  0  0  0  0  0  0
   -0.4850   -0.3753    0.0000 C   0  0  0  0  0  0  0  0  0  0  0  0
    0.2295   -1.6128    0.0000 C   0  0  0  0  0  0  0  0  0  0  0  0
    0.9439   -1.2003    0.0000 C   0  0  0  0  0  0  0  0  0  0  0  0
    1.6584   -1.6128    0.0000 N   0  0  0  0  0  0  0  0  0  0  0  0
    2.3729   -1.2003    0.0000 C   0  0  0  0  0  0  0  0  0  0  0  0
    2.3729   -0.3753    0.0000 N   0  0  0  0  0  0  0  0  0  0  0  0
    1.6584    0.0372    0.0000 C   0  0  0  0  0  0  0  0  0  0  0  0
   -1.1995    0.0373    0.0000 O   0  0  0  0  0  0  0  0  0  0  0  0
   -1.9140   -0.3752    0.0000 C   0  0  0  0  0  0  0  0  0  0  0  0
    1.6584    0.8622    0.0000 O   0  0  0  0  0  0  0  0  0  0  0  0
    2.6626    1.3997    0.0000 C   0  0  0  0  0  0  0  0  0  0  0  0
    4.0916    2.2247    0.0000 C   0  0  0  0  0  0  0  0  0  0  0  0
    3.3772    2.6372    0.0000 C   0  0  0  0  0  0  0  0  0  0  0  0
    2.6626    2.2247    0.0000 C   0  0  0  0  0  0  0  0  0  0  0  0
    3.3772    0.9872    0.0000 C   0  0  0  0  0  0  0  0  0  0  0  0
    4.0916    1.3997    0.0000 C   0  0  0  0  0  0  0  0  0  0  0  0
    4.8762    2.4797    0.0000 N   0  0  0  0  0  0  0  0  0  0  0  0
    4.8763    1.1448    0.0000 C   0  0  0  0  0  0  0  0  0  0  0  0
    5.3612    1.8122    0.0000 C   0  0  0  0  0  0  0  0  0  0  0  0
    6.1862    1.8122    0.0000 C   0  0  0  0  0  0  0  0  0  0  0  0
    3.3772    0.1622    0.0000 F   0  0  0  0  0  0  0  0  0  0  0  0
  1  2  1  0
  1  5  1  0
  2  3  1  0
  3  4  1  0
  4  5  1  0
  5  6  1  0
  6  7  1  0
  7  8  1  0
  8  9  1  0
  9 10  1  0
 10 14  1  0
 11 12  2  0
 11 15  1  0
 11 19  1  0
 12 13  1  0
 13 10  2  0
 13 20  1  0
 14 15  2  0
 15 16  1  0
 16 17  2  0
 17 18  1  0
 18 19  2  0
 19 22  1  0
 20 21  1  0
 22 23  1  0
 23 27  1  0
 24 25  2  0
 24 28  1  0
 24 29  1  0
 25 26  1  0
 26 23  2  0
 27 28  2  0
 27 33  1  0
 28 30  1  0
 30 31  2  0
 31 29  1  0
 31 32  1  0
M  END
>  <DRUGBANK_ID>  (1) 
DB04849

>  <SECONDARY_ACCESSION_NUMBERS>  (1) 
DB12033

>  <COMMON_NAME>  (1) 
Cediranib

>  <CAS_NUMBER>  (1) 
288383-20-0

>  <UNII>  (1) 
NQU9IPY4K9

>  <SYNONYMS>  (1) 
Cediranib

$$$$
