
     RDKit          2D

 11 10  0  0  0  0  0  0  0  0999 V2000
    2.3349   -1.1270    0.0000 C   0  0  0  0  0  0  0  0  0  0  0  0
   -1.2375   -0.7145    0.0000 C   0  0  0  0  0  0  0  0  0  0  0  0
    1.6204   -0.7145    0.0000 C   0  0  0  0  0  0  0  0  0  0  0  0
   -0.5230   -1.1270    0.0000 C   0  0  0  0  0  0  0  0  0  0  0  0
    0.9059   -1.1270    0.0000 C   0  0  0  0  0  0  0  0  0  0  0  0
    0.1914   -0.7145    0.0000 C   0  0  0  0  0  0  0  0  0  0  0  0
   -1.9520   -1.1270    0.0000 O   0  0  0  0  0  0  0  0  0  0  0  0
    1.6204    0.1105    0.0000 O   0  0  0  0  0  0  0  0  0  0  0  0
   -0.5230   -1.9520    0.0000 O   0  0  0  0  0  0  0  0  0  0  0  0
    0.9059   -1.9520    0.0000 O   0  0  0  0  0  0  0  0  0  0  0  0
    0.1914    0.1105    0.0000 O   0  0  0  0  0  0  0  0  0  0  0  0
  3  1  1  1
  3  8  1  0
  4  2  1  0
  4  9  1  1
  5  3  1  0
  5 10  1  6
  6  4  1  0
  6  5  1  0
  6 11  1  6
  7  2  2  0
M  END
>  <DRUGBANK_ID>  (1) 
DB02961

>  <SECONDARY_ACCESSION_NUMBERS>  (1) 
EXPT02795; DB01869

>  <COMMON_NAME>  (1) 
Rhamnose

>  <CAS_NUMBER>  (1) 
3615-41-6

>  <UNII>  (1) 
QN34XC755A

>  <SYNONYMS>  (1) 
L-rhamnose

$$$$
