
     RDKit          2D

 35 39  0  0  0  0  0  0  0  0999 V2000
   -0.3476   -0.3424    0.0000 C   0  0  0  0  0  0  0  0  0  0  0  0
    0.4369   -0.0874    0.0000 S   0  0  0  0  0  0  0  0  0  0  0  0
    0.9218   -0.7548    0.0000 C   0  0  0  0  0  0  0  0  0  0  0  0
    1.7468   -0.7548    0.0000 C   0  0  0  0  0  0  0  0  0  0  0  0
    2.1593   -0.0403    0.0000 N   0  0  0  0  0  0  0  0  0  0  0  0
    1.7468    0.6740    0.0000 C   0  0  0  0  0  0  0  0  0  0  0  0
    2.1593    1.3885    0.0000 C   0  0  0  0  0  0  0  0  0  0  0  0
    2.9842    1.3885    0.0000 N   0  0  0  0  0  0  0  0  0  0  0  0
    3.3967    2.1030    0.0000 C   0  0  0  0  0  0  0  0  0  0  0  0
    4.2216    2.1030    0.0000 C   0  0  0  0  0  0  0  0  0  0  0  0
    4.6341    2.8175    0.0000 O   0  0  0  0  0  0  0  0  0  0  0  0
    4.6342    1.3886    0.0000 C   0  0  0  0  0  0  0  0  0  0  0  0
    2.9842    2.8174    0.0000 O   0  0  0  0  0  0  0  0  0  0  0  0
    3.3967    0.6741    0.0000 C   0  0  0  0  0  0  0  0  0  0  0  0
    2.9843   -0.0403    0.0000 C   0  0  0  0  0  0  0  0  0  0  0  0
    0.4370   -1.4223    0.0000 C   0  0  0  0  0  0  0  0  0  0  0  0
    0.6919   -2.2069    0.0000 C   0  0  0  0  0  0  0  0  0  0  0  0
   -0.3475   -1.1674    0.0000 C   0  0  0  0  0  0  0  0  0  0  0  0
   -1.0620   -1.5799    0.0000 N   0  0  0  0  0  0  0  0  0  0  0  0
   -1.7765   -1.1674    0.0000 C   0  0  0  0  0  0  0  0  0  0  0  0
   -2.4909   -1.5800    0.0000 C   0  0  0  0  0  0  0  0  0  0  0  0
   -2.4909   -2.4049    0.0000 C   0  0  0  0  0  0  0  0  0  0  0  0
   -3.2053   -2.8174    0.0000 N   0  0  0  0  0  0  0  0  0  0  0  0
   -3.9198   -2.4050    0.0000 C   0  0  0  0  0  0  0  0  0  0  0  0
   -4.6342   -2.8175    0.0000 N   0  0  0  0  0  0  0  0  0  0  0  0
   -3.9198   -1.5800    0.0000 N   0  0  0  0  0  0  0  0  0  0  0  0
   -3.2054   -1.1675    0.0000 C   0  0  0  0  0  0  0  0  0  0  0  0
   -1.7765   -0.3424    0.0000 N   0  0  0  0  0  0  0  0  0  0  0  0
   -1.0621    0.0700    0.0000 C   0  0  0  0  0  0  0  0  0  0  0  0
   -1.0621    0.8949    0.0000 N   0  0  0  0  0  0  0  0  0  0  0  0
   -1.7766    1.3074    0.0000 C   0  0  0  0  0  0  0  0  0  0  0  0
   -1.7766    2.1324    0.0000 C   0  0  0  0  0  0  0  0  0  0  0  0
   -1.0621    2.5449    0.0000 O   0  0  0  0  0  0  0  0  0  0  0  0
   -0.3477    2.1325    0.0000 C   0  0  0  0  0  0  0  0  0  0  0  0
   -0.3477    1.3075    0.0000 C   0  0  0  0  0  0  0  0  0  0  0  0
  1  2  1  0
  1 18  2  0
  2  3  1  0
  3  4  1  0
  4  5  1  0
  5  6  1  0
  6  7  1  0
  7  8  1  0
  8  9  1  0
  8 14  1  0
  9 10  1  0
  9 13  2  0
 10 11  1  0
 10 12  1  1
 14 15  1  0
 15  5  1  0
 16  3  2  0
 16 17  1  0
 18 16  1  0
 18 19  1  0
 19 20  2  0
 20 21  1  0
 20 28  1  0
 21 22  2  0
 22 23  1  0
 23 24  2  0
 24 25  1  0
 24 26  1  0
 26 27  2  0
 27 21  1  0
 28 29  2  0
 29 30  1  0
 29  1  1  0
 30 31  1  0
 31 32  1  0
 32 33  1  0
 33 34  1  0
 34 35  1  0
 35 30  1  0
M  END
>  <DRUGBANK_ID>  (1) 
DB12180

>  <COMMON_NAME>  (1) 
Apitolisib

>  <CAS_NUMBER>  (1) 
1032754-93-0

>  <UNII>  (1) 
1C854K1MIJ

>  <SYNONYMS>  (1) 
Apitolisib; Apitolisibum

$$$$
