
     RDKit          2D

 22 23  0  0  0  0  0  0  0  0999 V2000
   -0.6897    1.7276    0.0000 N   0  0  0  0  0  0  0  0  0  0  0  0
    0.1392    1.7276    0.0000 C   0  0  0  0  0  0  0  0  0  0  0  0
    0.5506    2.4426    0.0000 C   0  0  0  0  0  0  0  0  0  0  0  0
    0.5506    1.0125    0.0000 C   0  0  0  0  0  0  0  0  0  0  0  0
    1.3796    1.0125    0.0000 O   0  0  0  0  0  0  0  0  0  0  0  0
    0.1392    0.2973    0.0000 C   0  0  0  0  0  0  0  0  0  0  0  0
    0.5506   -0.4176    0.0000 C   0  0  0  0  0  0  0  0  0  0  0  0
   -0.6897    0.2973    0.0000 C   0  0  0  0  0  0  0  0  0  0  0  0
   -1.1010    1.0125    0.0000 C   0  0  0  0  0  0  0  0  0  0  0  0
   -1.1010   -0.4176    0.0000 C   0  0  0  0  0  0  0  0  0  0  0  0
   -1.9237   -0.4176    0.0000 O   0  0  0  0  0  0  0  0  0  0  0  0
   -2.3413   -1.1327    0.0000 P   0  0  0  0  0  0  0  0  0  0  0  0
   -1.9237   -1.8479    0.0000 O   0  0  0  0  0  0  0  0  0  0  0  0
   -3.1640   -1.1327    0.0000 O   0  0  0  0  0  0  0  0  0  0  0  0
   -2.7527   -1.8479    0.0000 O   0  0  0  0  0  0  0  0  0  0  0  0
    1.3796   -0.4176    0.0000 N   0  0  0  0  0  0  0  0  0  0  0  0
    1.7908   -1.1327    0.0000 C   0  0  0  0  0  0  0  0  0  0  0  0
    2.6135   -1.2213    0.0000 C   0  0  0  0  0  0  0  0  0  0  0  0
    3.1640   -0.6074    0.0000 O   0  0  0  0  0  0  0  0  0  0  0  0
    2.7844   -2.0313    0.0000 N   0  0  0  0  0  0  0  0  0  0  0  0
    2.0693   -2.4426    0.0000 O   0  0  0  0  0  0  0  0  0  0  0  0
    1.4555   -1.8921    0.0000 C   0  0  0  0  0  0  0  0  0  0  0  0
  1  2  2  0
  1  9  1  0
  2  3  1  0
  2  4  1  0
  4  5  1  0
  4  6  2  0
  6  7  1  0
  6  8  1  0
  7 16  1  0
  8  9  2  0
  8 10  1  0
 10 11  1  0
 11 12  1  0
 12 13  2  0
 12 14  1  0
 12 15  1  0
 16 17  2  0
 17 18  1  0
 17 22  1  0
 18 19  2  0
 18 20  1  0
 20 21  1  0
 21 22  1  0
M  END
>  <DRUGBANK_ID>  (1) 
DB03787

>  <SECONDARY_ACCESSION_NUMBERS>  (1) 
EXPT02011

>  <COMMON_NAME>  (1) 
(5-Hydroxy-6-methyl-4-{[(E)-(3-oxo-1,2-oxazolidin-4-ylidene)amino]methyl}-3-pyridinyl)methyl dihydrogen phosphate

$$$$
