
     RDKit          2D

  3  2  0  0  0  0  0  0  0  0999 V2000
    1.2375   -0.7145    0.0000 Cl  0  0  0  0  0  0  0  0  0  0  0  0
    1.9520   -1.1270    0.0000 Cu  0  0  0  0  0  2  0  0  0  0  0  0
    2.6664   -0.7145    0.0000 Cl  0  0  0  0  0  0  0  0  0  0  0  0
  1  2  1  0
  2  3  1  0
M  END
>  <DRUGBANK_ID>  (1) 
DB09131

>  <COMMON_NAME>  (1) 
Cupric Chloride

>  <CAS_NUMBER>  (1) 
7447-39-4

>  <UNII>  (1) 
P484053J2Y

>  <SYNONYMS>  (1) 
Copper chloride; Copper(2+) chloride; copper(II) chloride; Cupric chloride anhydrous

$$$$
