
     RDKit          2D

 22 25  0  0  1  0  0  0  0  0999 V2000
    3.5543    1.4586    0.0000 O   0  0  0  0  0  0  0  0  0  0  0  0
    4.2688    1.8673    0.0000 O   0  0  0  0  0  0  0  0  0  0  0  0
    6.4352   -0.2200    0.0000 O   0  0  0  0  0  0  0  0  0  0  0  0
    4.7241    2.2052    0.0000 O   0  0  0  0  0  0  0  0  0  0  0  0
    2.0939   -0.2399    0.0000 O   0  0  0  0  0  0  0  0  0  0  0  0
    2.0892    0.6277    0.0000 O   0  0  0  0  0  0  0  0  0  0  0  0
    3.2679    0.5528    0.0000 O   0  0  0  0  0  0  0  0  0  0  0  0
    6.2438    2.1445    0.0000 O   0  0  0  0  0  0  0  0  0  0  0  0
    5.0195   -1.0793    0.0000 N   0  0  0  0  0  0  0  0  0  0  0  0
    3.5345   -1.0850    0.0000 N   0  0  0  0  0  0  0  0  0  0  0  0
    4.2818   -2.3396    0.0000 N   0  0  0  0  0  0  0  0  0  0  0  0
    5.0063   -0.2200    0.0000 C   0  0  0  0  0  0  0  0  0  0  0  0
    4.2918    0.1925    0.0000 C   0  0  0  0  0  0  0  0  0  0  0  0
    4.2918    1.0175    0.0000 C   0  0  0  0  0  0  0  0  0  0  0  0
    5.7208    0.1925    0.0000 C   0  0  0  0  0  0  0  0  0  0  0  0
    5.0063    1.4300    0.0000 C   0  0  0  0  0  0  0  0  0  0  0  0
    5.7208    1.0175    0.0000 C   0  0  0  0  0  0  0  0  0  0  0  0
    2.8068    0.1753    0.0000 C   0  0  0  0  0  0  0  0  0  0  0  0
    2.8068    1.0347    0.0000 C   0  0  0  0  0  0  0  0  0  0  0  0
    3.5411   -0.2256    0.0000 C   0  0  0  0  0  0  0  0  0  0  0  0
    5.4188    2.1445    0.0000 C   0  0  0  0  0  0  0  0  0  0  0  0
    4.2787   -1.5146    0.0000 C   0  0  0  0  0  0  0  0  0  0  0  0
  1 14  1  0
  1 19  1  0
 17  2  1  6
  2 19  1  0
  3 15  1  0
  4 16  1  0
  6 19  1  0
  7 20  1  0
  8 21  1  0
  9 12  1  0
  9 22  1  0
 10 20  1  0
 10 22  2  0
 11 22  1  0
 12 13  1  0
 12 15  1  0
 12 18  1  0
 13 14  1  0
 13 20  1  0
 14 16  1  0
 15 17  1  0
 16 17  1  0
 16 21  1  0
 18  5  1  6
 18 19  1  0
M  CHG  2   6  -1  10   1
M  END
>  <DRUGBANK_ID>  (1) 
DB05232

>  <COMMON_NAME>  (1) 
Tetrodotoxin

>  <CAS_NUMBER>  (1) 
4368-28-9

>  <UNII>  (1) 
3KUM2721U9

>  <SYNONYMS>  (1) 
Tetrodotoxin

$$$$
