FOK
     RDKit          2D

 29 31  0  0  0  0  0  0  0  0999 V2000
   -0.9188   -1.3028    0.0000 C   0  0  0  0  0  0  0  0  0  0  0  0
   -0.5063   -2.0173    0.0000 O   0  0  0  0  0  0  0  0  0  0  0  0
   -1.7438   -1.3028    0.0000 C   0  0  0  0  0  0  0  0  0  0  0  0
   -2.1563   -0.5884    0.0000 C   0  0  0  0  0  0  0  0  0  0  0  0
   -1.7438    0.1261    0.0000 C   0  0  0  0  0  0  0  0  0  0  0  0
   -0.9188    0.1261    0.0000 C   0  0  0  0  0  0  0  0  0  0  0  0
   -0.5063    0.8406    0.0000 C   0  0  0  0  0  0  0  0  0  0  0  0
   -0.9188    1.5551    0.0000 O   0  0  0  0  0  0  0  0  0  0  0  0
    0.3187    0.8406    0.0000 C   0  0  0  0  0  0  0  0  0  0  0  0
    0.7312    1.5551    0.0000 O   0  0  0  0  0  0  0  0  0  0  0  0
    0.7312    0.1261    0.0000 C   0  0  0  0  0  0  0  0  0  0  0  0
    1.5562    0.1261    0.0000 O   0  0  0  0  0  0  0  0  0  0  0  0
    0.3187   -0.5884    0.0000 C   0  0  0  0  0  0  0  0  0  0  0  0
   -0.0938   -1.3028    0.0000 O   0  0  0  0  0  0  0  0  0  0  0  0
   -0.5063   -0.5884    0.0000 C   0  0  0  0  0  0  0  0  0  0  0  0
    0.7312   -1.3028    0.0000 C   0  0  0  0  0  0  0  0  0  0  0  0
    0.3187   -2.0173    0.0000 O   0  0  0  0  0  0  0  0  0  0  0  0
    1.5562   -1.3028    0.0000 C   0  0  0  0  0  0  0  0  0  0  0  0
    1.9687   -0.5884    0.0000 C   0  0  0  0  0  0  0  0  0  0  0  0
    2.6971   -0.9757    0.0000 C   0  0  0  0  0  0  0  0  0  0  0  0
    2.7259   -1.8002    0.0000 C   0  0  0  0  0  0  0  0  0  0  0  0
    2.6971   -0.2010    0.0000 C   0  0  0  0  0  0  0  0  0  0  0  0
    1.1437    0.8406    0.0000 C   0  0  0  0  0  0  0  0  0  0  0  0
   -2.4435    0.5633    0.0000 C   0  0  0  0  0  0  0  0  0  0  0  0
   -1.7726    0.9506    0.0000 C   0  0  0  0  0  0  0  0  0  0  0  0
   -0.5926   -1.4088    0.0000 C   0  0  0  0  0  0  0  0  0  0  0  0
    0.3187    2.2695    0.0000 C   0  0  0  0  0  0  0  0  0  0  0  0
   -0.5063    2.2695    0.0000 O   0  0  0  0  0  0  0  0  0  0  0  0
    0.7312    2.9840    0.0000 C   0  0  0  0  0  0  0  0  0  0  0  0
  1  2  1  1
  1  3  1  0
  1 15  1  0
  3  4  1  0
  4  5  1  0
  6  5  1  6
  5 24  1  0
  5 25  1  0
  6  7  1  0
  6 15  1  0
  7  8  1  6
  7  9  1  0
  9 10  1  6
  9 11  1  0
 10 27  1  0
 11 12  1  0
 11 13  1  0
 11 23  1  6
 12 19  1  0
 13 14  1  1
 13 15  1  0
 13 16  1  0
 15 26  1  6
 16 17  2  0
 16 18  1  0
 18 19  1  0
 19 20  1  0
 19 22  1  6
 20 21  2  0
 27 28  2  0
 27 29  1  0
M  END
>  <DRUGBANK_ID>  (1) 
DB02587

>  <SECONDARY_ACCESSION_NUMBERS>  (1) 
EXPT01467

>  <COMMON_NAME>  (1) 
Colforsin

>  <CAS_NUMBER>  (1) 
66575-29-9

>  <UNII>  (1) 
1F7A44V6OU

>  <SYNONYMS>  (1) 
7β-acetoxy-8,13-epoxy-1α,6β,9α-trihydroxylabd-14-en-11-one; Coleonolk; Colforsin; colforsina; colforsine; colforsinum; Forskolin

$$$$
