JT5
     RDKit          2D

 24 25  0  0  0  0  0  0  0  0999 V2000
    2.1741    2.1815    0.0000 C   0  0  0  0  0  0  0  0  0  0  0  0
    1.7616    1.4671    0.0000 C   0  0  0  0  0  0  0  0  0  0  0  0
    0.5241    2.1815    0.0000 C   0  0  0  0  0  0  0  0  0  0  0  0
    2.9991    2.1815    0.0000 N   0  0  0  0  0  0  0  0  0  0  0  0
    3.4116    2.8960    0.0000 O   0  0  0  0  0  0  0  0  0  0  0  0
    1.7616    2.8960    0.0000 O   0  0  0  0  0  0  0  0  0  0  0  0
    0.9366    1.4671    0.0000 N   0  0  0  0  0  0  0  0  0  0  0  0
    0.5241    0.7526    0.0000 S   0  0  0  0  0  0  0  0  0  0  0  0
   -0.3009    2.1815    0.0000 C   0  0  0  0  0  0  0  0  0  0  0  0
   -0.7134    2.8960    0.0000 O   0  0  0  0  0  0  0  0  0  0  0  0
   -0.1904    1.1651    0.0000 O   0  0  0  0  0  0  0  0  0  0  0  0
    0.1116    0.0381    0.0000 C   0  0  0  0  0  0  0  0  0  0  0  0
    1.2385    0.3401    0.0000 O   0  0  0  0  0  0  0  0  0  0  0  0
   -0.7134    0.0381    0.0000 C   0  0  0  0  0  0  0  0  0  0  0  0
   -1.1259   -0.6764    0.0000 C   0  0  0  0  0  0  0  0  0  0  0  0
   -0.7134   -1.3908    0.0000 C   0  0  0  0  0  0  0  0  0  0  0  0
    0.1116   -1.3908    0.0000 C   0  0  0  0  0  0  0  0  0  0  0  0
    0.5241   -0.6764    0.0000 C   0  0  0  0  0  0  0  0  0  0  0  0
   -1.1259   -2.1053    0.0000 C   0  0  0  0  0  0  0  0  0  0  0  0
   -1.9509   -2.1053    0.0000 C   0  0  0  0  0  0  0  0  0  0  0  0
   -2.3634   -2.8198    0.0000 C   0  0  0  0  0  0  0  0  0  0  0  0
   -1.9509   -3.5342    0.0000 C   0  0  0  0  0  0  0  0  0  0  0  0
   -1.1259   -3.5342    0.0000 C   0  0  0  0  0  0  0  0  0  0  0  0
   -0.7134   -2.8198    0.0000 C   0  0  0  0  0  0  0  0  0  0  0  0
  1  2  1  0
  2  7  1  0
  4  1  1  0
  5  4  1  0
  6  1  2  0
  7  3  1  0
  8 13  2  0
  8  7  1  0
  8 11  2  0
  9  3  1  0
  9 10  1  0
 12  8  1  0
 14 12  2  0
 15 14  1  0
 16 17  1  0
 16 15  2  0
 17 18  2  0
 18 12  1  0
 19 16  1  0
 20 19  2  0
 21 20  1  0
 22 21  2  0
 22 23  1  0
 23 24  2  0
 24 19  1  0
M  END
>  <DRUGBANK_ID>  (1) 
DB08029

>  <COMMON_NAME>  (1) 
N~2~-(biphenyl-4-ylsulfonyl)-N-hydroxy-N~2~-(2-hydroxyethyl)glycinamide

$$$$
