
     RDKit          2D

 24 22  0  0  0  0  0  0  0  0999 V2000
   -4.9107    0.6875    0.0000 O   0  0  0  0  0  0  0  0  0  0  0  0
   -4.2036    0.2750    0.0000 C   0  0  0  0  0  0  0  0  0  0  0  0
   -3.4866    0.6875    0.0000 C   0  0  0  0  0  0  0  0  0  0  0  0
   -2.7794    0.2750    0.0000 C   0  0  0  0  0  0  0  0  0  0  0  0
   -2.0625    0.6875    0.0000 C   0  0  0  0  0  0  0  0  0  0  0  0
   -1.3651    0.2750    0.0000 C   0  0  0  0  0  0  0  0  0  0  0  0
   -0.6482    0.6875    0.0000 C   0  0  0  0  0  0  0  0  0  0  0  0
    0.0687    0.2750    0.0000 O   0  0  0  0  0  0  0  0  0  0  0  0
   -3.4866    1.5125    0.0000 O   0  0  0  0  0  0  0  0  0  0  0  0
   -2.7794   -0.5401    0.0000 O   0  0  0  0  0  0  0  0  0  0  0  0
   -2.0625    1.5125    0.0000 O   0  0  0  0  0  0  0  0  0  0  0  0
   -1.3651   -0.5401    0.0000 O   0  0  0  0  0  0  0  0  0  0  0  0
   -0.6482    1.5125    0.0000 O   0  0  0  0  0  0  0  0  0  0  0  0
    0.7759    0.6875    0.0000 Al  0  0  0  0  0  3  0  0  0  0  0  0
    1.4830    0.2750    0.0000 O   0  0  0  0  0  0  0  0  0  0  0  0
    0.7759    1.5125    0.0000 O   0  0  0  0  0  0  0  0  0  0  0  0
    3.6731   -0.0883    0.0000 C   0  0  0  0  0  0  0  0  0  0  0  0
    4.4981   -0.0883    0.0000 C   0  0  0  0  0  0  0  0  0  0  0  0
    3.2607    0.6187    0.0000 N   0  0  0  0  0  0  0  0  0  0  0  0
    3.2607   -0.8053    0.0000 C   0  0  0  0  0  0  0  0  0  0  0  0
    4.0856   -0.8053    0.0000 C   0  0  0  0  0  0  0  0  0  0  0  0
    4.9107   -0.8053    0.0000 O   0  0  0  0  0  0  0  0  0  0  0  0
    2.4454   -0.8053    0.0000 O   0  0  0  0  0  0  0  0  0  0  0  0
    3.6731   -1.5125    0.0000 O   0  0  0  0  0  0  0  0  0  0  0  0
  1  2  1  0
  2  3  1  0
  3  4  1  0
  3  9  1  1
  4  5  1  0
  4 10  1  6
  5  6  1  0
  5 11  1  6
  6  7  1  0
  6 12  1  6
  7  8  1  0
  7 13  2  0
  8 14  1  0
 14 15  1  0
 14 16  1  0
 17 18  1  0
 17 19  1  0
 17 20  1  0
 17 21  1  0
 18 22  1  0
 20 23  1  0
 21 24  1  0
M  END
>  <DRUGBANK_ID>  (1) 
DB13650

>  <COMMON_NAME>  (1) 
Aloglutamol

>  <CAS_NUMBER>  (1) 
13755-41-4

>  <UNII>  (1) 
I670EI8M2N

>  <SYNONYMS>  (1) 
Trometamolgluconate aluminum

$$$$
