
     RDKit          2D

 18 19  0  0  0  0  0  0  0  0999 V2000
    1.5356    8.0652    0.0000 C   0  0  0  0  0  0  0  0  0  0  0  0
    1.5356    7.2402    0.0000 C   0  0  0  0  0  0  0  0  0  0  0  0
    0.8212    6.8277    0.0000 C   0  0  0  0  0  0  0  0  0  0  0  0
    0.1067    7.2402    0.0000 N   0  0  0  0  0  0  0  0  0  0  0  0
    0.1067    8.0652    0.0000 C   0  0  0  0  0  0  0  0  0  0  0  0
    0.8212    8.4777    0.0000 C   0  0  0  0  0  0  0  0  0  0  0  0
   -0.6078    6.8277    0.0000 C   0  0  0  0  0  0  0  0  0  0  0  0
   -0.6078    6.0027    0.0000 C   0  0  0  0  0  0  0  0  0  0  0  0
   -1.3222    5.5902    0.0000 C   0  0  0  0  0  0  0  0  0  0  0  0
   -1.3222    4.7652    0.0000 N   0  0  0  0  0  0  0  0  0  0  0  0
   -0.6548    4.2803    0.0000 C   0  0  0  0  0  0  0  0  0  0  0  0
   -0.9097    3.4956    0.0000 C   0  0  0  0  0  0  0  0  0  0  0  0
   -1.7347    3.4956    0.0000 N   0  0  0  0  0  0  0  0  0  0  0  0
   -1.9897    4.2803    0.0000 C   0  0  0  0  0  0  0  0  0  0  0  0
   -2.7743    4.5352    0.0000 N   0  0  0  0  0  0  0  0  0  0  0  0
   -3.3874    3.9832    0.0000 O   0  0  0  0  0  0  0  0  0  0  0  0
   -2.9458    5.3422    0.0000 O   0  0  0  0  0  0  0  0  0  0  0  0
    0.1067    5.5902    0.0000 O   0  0  0  0  0  0  0  0  0  0  0  0
  1  2  1  0
  1  6  1  0
  2  3  1  0
  3  4  1  0
  4  5  1  0
  4  7  1  0
  5  6  1  0
  7  8  1  0
  8  9  1  0
  8 18  1  0
  9 10  1  0
 10 11  1  0
 10 14  1  0
 11 12  2  0
 12 13  1  0
 13 14  2  0
 14 15  1  0
 15 16  2  0
 15 17  1  0
M  CHG  2  15   1  17  -1
M  END
>  <DRUGBANK_ID>  (1) 
DB12485

>  <COMMON_NAME>  (1) 
Pimonidazole

>  <CAS_NUMBER>  (1) 
70132-50-2

>  <UNII>  (1) 
46JO4D76R2

>  <SYNONYMS>  (1) 
Pimonidazole

$$$$
