
     RDKit          2D

  7  6  0  0  0  0  0  0  0  0999 V2000
    0.8250    1.6500    0.0000 C   0  0  0  0  0  0  0  0  0  0  0  0
    1.5395   -1.2375    0.0000 C   0  0  0  0  0  0  0  0  0  0  0  0
    1.6500    0.0000    0.0000 C   0  0  0  0  0  0  0  0  0  0  0  0
    0.8250    0.8250    0.0000 C   0  0  0  0  0  0  0  0  0  0  0  0
    0.8250   -0.8250    0.0000 C   0  0  0  0  0  0  0  0  0  0  0  0
    0.8250    0.0000    0.0000 C   0  0  0  0  0  0  0  0  0  0  0  0
    0.0000    0.0000    0.0000 O   0  0  0  0  0  0  0  0  0  0  0  0
  4  1  3  0
  5  2  1  0
  6  3  1  0
  6  4  1  0
  6  5  1  0
  7  6  1  0
M  END
>  <DRUGBANK_ID>  (1) 
DB13733

>  <COMMON_NAME>  (1) 
Methylpentynol

>  <CAS_NUMBER>  (1) 
77-75-8

>  <UNII>  (1) 
B017BC5B1N

>  <SYNONYMS>  (1) 
Meparfynol; Methylpentynol

$$$$
