
     RDKit          2D

  8  7  0  0  0  0  0  0  0  0999 V2000
    0.0000   -0.8250    0.0000 C   0  0  0  0  0  0  0  0  0  0  0  0
   -0.7145   -0.4125    0.0000 C   0  0  0  0  0  0  0  0  0  0  0  0
    0.7145   -0.4125    0.0000 O   0  0  0  0  0  0  0  0  0  0  0  0
    0.0000   -1.6500    0.0000 O   0  0  0  0  0  0  0  0  0  0  0  0
   -0.7145    0.4125    0.0000 C   0  0  0  0  0  0  0  0  0  0  0  0
    0.0000    0.8250    0.0000 C   0  0  0  0  0  0  0  0  0  0  0  0
    0.7145    0.4125    0.0000 O   0  0  0  0  0  0  0  0  0  0  0  0
    0.0000    1.6500    0.0000 O   0  0  0  0  0  0  0  0  0  0  0  0
  1  2  1  0
  1  3  1  0
  1  4  2  0
  2  5  2  0
  5  6  1  0
  6  7  1  0
  6  8  2  0
M  END
>  <DRUGBANK_ID>  (1) 
DB04299

>  <SECONDARY_ACCESSION_NUMBERS>  (1) 
EXPT02106

>  <COMMON_NAME>  (1) 
Maleic acid

>  <CAS_NUMBER>  (1) 
110-16-7

>  <UNII>  (1) 
91XW058U2C

>  <SYNONYMS>  (1) 
(Z)-2-butenedioic acid; (Z)-butenedioic acid; cis-1,2-ethylenedicarboxylic acid; cis-but-2-enedioic acid; cis-Butenedioic acid; Maleic acid; Toxilic acid

$$$$
