1296
     RDKit          2D

 12 12  0  0  1  0  0  0  0  0999 V2000
    4.2365   -0.0784    0.0000 O   0  0  0  0  0  0  0  0  0  0  0  0
    2.0930    1.1592    0.0000 O   0  0  0  0  0  0  0  0  0  0  0  0
    2.0930   -0.4909    0.0000 O   0  0  0  0  0  0  0  0  0  0  0  0
    4.9509    1.1592    0.0000 O   0  0  0  0  0  0  0  0  0  0  0  0
    4.2365   -1.7284    0.0000 O   0  0  0  0  0  0  0  0  0  0  0  0
    3.5220    1.9842    0.0000 N   0  0  0  0  0  0  0  0  0  0  0  0
    2.8075    0.7466    0.0000 C   0  0  0  0  0  0  0  0  0  0  0  0
    2.8075   -0.0784    0.0000 C   0  0  0  0  0  0  0  0  0  0  0  0
    3.5220    1.1592    0.0000 C   0  0  0  0  0  0  0  0  0  0  0  0
    3.5220   -0.4909    0.0000 C   0  0  0  0  0  0  0  0  0  0  0  0
    4.2365    0.7466    0.0000 C   0  0  0  0  0  0  0  0  0  0  0  0
    3.5220   -1.3159    0.0000 C   0  0  0  0  0  0  0  0  0  0  0  0
  1 10  1  0
  1 11  1  0
  4 11  1  0
  5 12  1  0
  7  2  1  6
  7  8  1  0
  7  9  1  0
  8  3  1  1
  8 10  1  0
  9  6  1  1
  9 11  1  0
 10 12  1  6
M  END
>  <DRUGBANK_ID>  (1) 
DB01296

>  <SECONDARY_ACCESSION_NUMBERS>  (1) 
EXPT01563

>  <COMMON_NAME>  (1) 
Glucosamine

>  <CAS_NUMBER>  (1) 
3416-24-8

>  <UNII>  (1) 
N08U5BOQ1K

>  <SYNONYMS>  (1) 
2-amino-2-deoxy-D-glucose; Chitosamine; D-Glucosamine; Glucosamina; Glucosamine

$$$$
