
     RDKit          2D

 30 34  0  0  1  0  0  0  0  0999 V2000
    4.7804    1.1137    0.0000 C   0  0  0  0  0  0  0  0  0  0  0  0
    3.9558    1.1395    0.0000 C   0  0  0  0  0  0  0  0  0  0  0  0
    3.5212    0.4383    0.0000 C   0  0  0  0  0  0  0  0  0  0  0  0
    3.9112   -0.2887    0.0000 C   0  0  0  0  0  0  0  0  0  0  0  0
    4.7358   -0.3145    0.0000 C   0  0  0  0  0  0  0  0  0  0  0  0
    5.1704    0.3867    0.0000 C   0  0  0  0  0  0  0  0  0  0  0  0
    5.9950    0.3610    0.0000 C   0  0  0  0  0  0  0  0  0  0  0  0
    6.3850   -0.3660    0.0000 O   0  0  0  0  0  0  0  0  0  0  0  0
    6.4296    1.0622    0.0000 O   0  0  0  0  0  0  0  0  0  0  0  0
    3.4766   -0.9900    0.0000 C   0  0  0  0  0  0  0  0  0  0  0  0
    2.6520   -0.9642    0.0000 C   0  0  0  0  0  0  0  0  0  0  0  0
    2.2620   -0.2372    0.0000 C   0  0  0  0  0  0  0  0  0  0  0  0
    2.6966    0.4640    0.0000 C   0  0  0  0  0  0  0  0  0  0  0  0
    2.1640    1.0941    0.0000 N   0  0  0  0  0  0  0  0  0  0  0  0
    1.4002    0.7822    0.0000 N   0  0  0  0  0  0  0  0  0  0  0  0
    1.4608   -0.0406    0.0000 C   0  0  0  0  0  0  0  0  0  0  0  0
    0.8307   -0.5732    0.0000 C   0  0  0  0  0  0  0  0  0  0  0  0
    0.8913   -1.3960    0.0000 C   0  0  0  0  0  0  0  0  0  0  0  0
    0.1275   -1.7078    0.0000 C   0  0  0  0  0  0  0  0  0  0  0  0
   -0.4051   -1.0778    0.0000 C   0  0  0  0  0  0  0  0  0  0  0  0
    0.0295   -0.3765    0.0000 C   0  0  0  0  0  0  0  0  0  0  0  0
    0.6989    1.2168    0.0000 C   0  0  0  0  0  0  0  0  0  0  0  0
   -0.0281    0.8268    0.0000 C   0  0  0  0  0  0  0  0  0  0  0  0
   -0.7293    1.2614    0.0000 C   0  0  0  0  0  0  0  0  0  0  0  0
   -0.7035    2.0860    0.0000 C   0  0  0  0  0  0  0  0  0  0  0  0
    0.0235    2.4760    0.0000 C   0  0  0  0  0  0  0  0  0  0  0  0
    0.7247    2.0414    0.0000 C   0  0  0  0  0  0  0  0  0  0  0  0
    0.0492    3.3006    0.0000 Cl  0  0  0  0  0  0  0  0  0  0  0  0
   -1.4048    2.5206    0.0000 C   0  0  0  0  0  0  0  0  0  0  0  0
   -2.1060    2.9553    0.0000 N   0  0  0  0  0  0  0  0  0  0  0  0
  1  2  2  0
  1  6  1  0
  2  3  1  0
  3  4  2  0
  3 13  1  0
  4  5  1  0
  4 10  1  0
  5  6  2  0
  6  7  1  0
  7  8  2  0
  7  9  1  0
 10 11  1  0
 12 11  1  6
 12 13  1  0
 12 16  1  0
 13 14  2  0
 14 15  1  0
 15 16  1  0
 15 22  1  0
 16 17  1  6
 17 18  1  0
 17 21  1  0
 18 19  1  0
 19 20  1  0
 20 21  1  0
 22 23  2  0
 22 27  1  0
 23 24  1  0
 24 25  2  0
 25 26  1  0
 25 29  1  0
 26 27  2  0
 26 28  1  0
 29 30  3  0
M  END
>  <DRUGBANK_ID>  (1) 
DB11814

>  <COMMON_NAME>  (1) 
PF-03882845

>  <CAS_NUMBER>  (1) 
1023650-66-9

>  <UNII>  (1) 
34ZKU73FU3

$$$$
