5DE
     RDKit          2D

 19 20  0  0  0  0  0  0  0  0999 V2000
   -0.4285    1.8301    0.0000 O   0  0  0  0  0  0  0  0  0  0  0  0
    0.2859    1.4176    0.0000 C   0  0  0  0  0  0  0  0  0  0  0  0
    1.0004    1.8301    0.0000 O   0  0  0  0  0  0  0  0  0  0  0  0
    1.0004    2.6551    0.0000 C   0  0  0  0  0  0  0  0  0  0  0  0
    1.7149    3.0676    0.0000 C   0  0  0  0  0  0  0  0  0  0  0  0
    0.2859    0.5926    0.0000 C   0  0  0  0  0  0  0  0  0  0  0  0
    0.9534    0.1077    0.0000 C   0  0  0  0  0  0  0  0  0  0  0  0
    0.6984   -0.6769    0.0000 N   0  0  0  0  0  0  0  0  0  0  0  0
    1.7380    0.3627    0.0000 C   0  0  0  0  0  0  0  0  0  0  0  0
   -0.3815    0.1077    0.0000 C   0  0  0  0  0  0  0  0  0  0  0  0
   -1.1661    0.3627    0.0000 C   0  0  0  0  0  0  0  0  0  0  0  0
   -0.1266   -0.6769    0.0000 N   0  0  0  0  0  0  0  0  0  0  0  0
   -0.6115   -1.3443    0.0000 C   0  0  0  0  0  0  0  0  0  0  0  0
   -0.2759   -2.0980    0.0000 C   0  0  0  0  0  0  0  0  0  0  0  0
   -0.7608   -2.7655    0.0000 C   0  0  0  0  0  0  0  0  0  0  0  0
   -1.4320   -1.2581    0.0000 C   0  0  0  0  0  0  0  0  0  0  0  0
   -1.9169   -1.9255    0.0000 C   0  0  0  0  0  0  0  0  0  0  0  0
   -1.5813   -2.6792    0.0000 C   0  0  0  0  0  0  0  0  0  0  0  0
   -2.0663   -3.3467    0.0000 N   0  0  0  0  0  0  0  0  0  0  0  0
  1  2  2  0
  2  3  1  0
  2  6  1  0
  3  4  1  0
  4  5  1  0
  6  7  1  0
  6 10  2  0
  7  8  2  0
  7  9  1  0
  8 12  1  0
 10 11  1  0
 10 12  1  0
 12 13  1  0
 13 14  2  0
 13 16  1  0
 14 15  1  0
 15 18  2  0
 16 17  2  0
 17 18  1  0
 18 19  1  0
M  END
>  <DRUGBANK_ID>  (1) 
DB03183

>  <SECONDARY_ACCESSION_NUMBERS>  (1) 
EXPT00243

>  <COMMON_NAME>  (1) 
1-(4-Aminophenyl)-3,5-Dimethyl-1h-Pyrazole-4-Carboxylic Acid Ethyl Ester

>  <UNII>  (1) 
T6MC6N4LS7

$$$$
