XIH
     RDKit          2D

 29 32  0  0  0  0  0  0  0  0999 V2000
    0.5644    0.4127    0.0000 C   0  0  0  0  0  0  0  0  0  0  0  0
    0.5644    1.2377    0.0000 C   0  0  0  0  0  0  0  0  0  0  0  0
   -0.7051    0.8252    0.0000 C   0  0  0  0  0  0  0  0  0  0  0  0
   -1.9426    1.5397    0.0000 C   0  0  0  0  0  0  0  0  0  0  0  0
   -2.7676    0.1108    0.0000 C   0  0  0  0  0  0  0  0  0  0  0  0
   -1.9426    0.1108    0.0000 C   0  0  0  0  0  0  0  0  0  0  0  0
   -0.4751   -0.6268    0.0000 C   0  0  0  0  0  0  0  0  0  0  0  0
    1.4359   -1.6815    0.0000 C   0  0  0  0  0  0  0  0  0  0  0  0
    1.1810   -2.4661    0.0000 C   0  0  0  0  0  0  0  0  0  0  0  0
    0.3740   -2.6376    0.0000 C   0  0  0  0  0  0  0  0  0  0  0  0
   -0.9850   -2.1961    0.0000 C   0  0  0  0  0  0  0  0  0  0  0  0
    1.9934    1.2377    0.0000 C   0  0  0  0  0  0  0  0  0  0  0  0
    2.7078    0.0002    0.0000 C   0  0  0  0  0  0  0  0  0  0  0  0
    1.9934    0.4127    0.0000 N   0  0  0  0  0  0  0  0  0  0  0  0
    1.2789    0.0002    0.0000 C   0  0  0  0  0  0  0  0  0  0  0  0
    1.2789   -0.8248    0.0000 O   0  0  0  0  0  0  0  0  0  0  0  0
   -0.2202    1.4927    0.0000 N   0  0  0  0  0  0  0  0  0  0  0  0
   -1.5301    0.8252    0.0000 N   0  0  0  0  0  0  0  0  0  0  0  0
   -2.7676    1.5397    0.0000 C   0  0  0  0  0  0  0  0  0  0  0  0
   -3.1801    0.8252    0.0000 C   0  0  0  0  0  0  0  0  0  0  0  0
   -3.1801   -0.6037    0.0000 N   0  0  0  0  0  0  0  0  0  0  0  0
   -0.2202    0.1578    0.0000 N   0  0  0  0  0  0  0  0  0  0  0  0
    0.0769   -1.2399    0.0000 C   0  0  0  0  0  0  0  0  0  0  0  0
    0.8839   -1.0684    0.0000 C   0  0  0  0  0  0  0  0  0  0  0  0
   -0.1780   -2.0245    0.0000 C   0  0  0  0  0  0  0  0  0  0  0  0
   -1.7920   -2.3676    0.0000 N   0  0  0  0  0  0  0  0  0  0  0  0
    1.2789    1.6502    0.0000 N   0  0  0  0  0  0  0  0  0  0  0  0
    1.2789    2.4752    0.0000 C   0  0  0  0  0  0  0  0  0  0  0  0
    2.7078    1.6502    0.0000 O   0  0  0  0  0  0  0  0  0  0  0  0
  1  2  2  0
  1 15  1  0
  1 22  1  0
  2 17  1  0
  2 27  1  0
  3 17  2  0
  3 18  1  0
  3 22  1  0
  4 18  1  0
  4 19  1  0
  5  6  1  0
  5 20  1  0
  5 21  1  6
  6 18  1  0
  7 22  1  0
  7 23  1  0
  8  9  2  0
  8 24  1  0
  9 10  1  0
 10 25  2  0
 11 25  1  0
 11 26  3  0
 12 14  1  0
 12 27  1  0
 12 29  2  0
 13 14  1  0
 14 15  1  0
 15 16  2  0
 19 20  1  0
 23 24  2  0
 23 25  1  0
 27 28  1  0
M  END
>  <DRUGBANK_ID>  (1) 
DB08743

>  <COMMON_NAME>  (1) 
2-({8-[(3R)-3-AMINOPIPERIDIN-1-YL]-1,3-DIMETHYL-2,6-DIOXO-1,2,3,6-TETRAHYDRO-7H-PURIN-7-YL}METHYL)BENZONITRILE

$$$$
