
     RDKit          2D

 21 23  0  0  0  0  0  0  0  0999 V2000
    2.1434   -2.8875    0.0000 C   0  0  0  0  0  0  0  0  0  0  0  0
    1.4289   -2.4750    0.0000 C   0  0  0  0  0  0  0  0  0  0  0  0
    1.4289   -1.6500    0.0000 N   0  0  0  0  0  0  0  0  0  0  0  0
    0.7145   -1.2375    0.0000 C   0  0  0  0  0  0  0  0  0  0  0  0
    0.7145   -0.4125    0.0000 C   0  0  0  0  0  0  0  0  0  0  0  0
    1.4289    0.0000    0.0000 C   0  0  0  0  0  0  0  0  0  0  0  0
    1.4289    0.8250    0.0000 O   0  0  0  0  0  0  0  0  0  0  0  0
    2.1434   -0.4125    0.0000 C   0  0  0  0  0  0  0  0  0  0  0  0
    2.8579    0.0000    0.0000 C   0  0  0  0  0  0  0  0  0  0  0  0
    3.5724   -0.4125    0.0000 N   0  0  0  0  0  0  0  0  0  0  0  0
    3.5724   -1.2375    0.0000 C   0  0  0  0  0  0  0  0  0  0  0  0
    2.8579   -1.6500    0.0000 N   0  0  0  0  0  0  0  0  0  0  0  0
    2.1434   -1.2375    0.0000 C   0  0  0  0  0  0  0  0  0  0  0  0
    4.2868   -1.6500    0.0000 N   0  0  0  0  0  0  0  0  0  0  0  0
    5.0405   -1.3144    0.0000 C   0  0  0  0  0  0  0  0  0  0  0  0
    5.5925   -1.9275    0.0000 C   0  0  0  0  0  0  0  0  0  0  0  0
    5.1800   -2.6420    0.0000 C   0  0  0  0  0  0  0  0  0  0  0  0
    4.3731   -2.4705    0.0000 C   0  0  0  0  0  0  0  0  0  0  0  0
    0.0000    0.0000    0.0000 C   0  0  0  0  0  0  0  0  0  0  0  0
   -0.7145   -0.4125    0.0000 O   0  0  0  0  0  0  0  0  0  0  0  0
    0.0000    0.8250    0.0000 O   0  0  0  0  0  0  0  0  0  0  0  0
  1  2  1  0
  2  3  1  0
  3  4  1  0
  3 13  1  0
  4  5  2  0
  5  6  1  0
  5 19  1  0
  6  7  2  0
  6  8  1  0
  8  9  1  0
  8 13  2  0
  9 10  2  0
 10 11  1  0
 11 12  2  0
 11 14  1  0
 12 13  1  0
 14 15  1  0
 14 18  1  0
 15 16  1  0
 16 17  1  0
 17 18  1  0
 19 20  2  0
 19 21  1  0
M  END
>  <DRUGBANK_ID>  (1) 
DB13744

>  <COMMON_NAME>  (1) 
Piromidic acid

>  <CAS_NUMBER>  (1) 
19562-30-2

>  <UNII>  (1) 
3I12WH4EWF

>  <SYNONYMS>  (1) 
Piromidic acid

$$$$
