
     RDKit          2D

 22 25  0  0  0  0  0  0  0  0999 V2000
    6.1237    0.8510    0.0000 C   0  0  0  0  0  0  0  0  0  0  0  0
    5.9401    1.6553    0.0000 C   0  0  0  0  0  0  0  0  0  0  0  0
    5.1517    1.8985    0.0000 C   0  0  0  0  0  0  0  0  0  0  0  0
    4.5470    1.3373    0.0000 C   0  0  0  0  0  0  0  0  0  0  0  0
    4.7305    0.5330    0.0000 C   0  0  0  0  0  0  0  0  0  0  0  0
    5.5189    0.2898    0.0000 C   0  0  0  0  0  0  0  0  0  0  0  0
    4.2162   -0.1120    0.0000 C   0  0  0  0  0  0  0  0  0  0  0  0
    3.3912   -0.1120    0.0000 C   0  0  0  0  0  0  0  0  0  0  0  0
    2.8768    0.5330    0.0000 C   0  0  0  0  0  0  0  0  0  0  0  0
    2.0884    0.2898    0.0000 C   0  0  0  0  0  0  0  0  0  0  0  0
    1.4837    0.8510    0.0000 C   0  0  0  0  0  0  0  0  0  0  0  0
    1.6673    1.6553    0.0000 C   0  0  0  0  0  0  0  0  0  0  0  0
    2.4556    1.8985    0.0000 C   0  0  0  0  0  0  0  0  0  0  0  0
    3.0604    1.3373    0.0000 C   0  0  0  0  0  0  0  0  0  0  0  0
    3.8037    1.6953    0.0000 C   0  0  0  0  0  0  0  0  0  0  0  0
    3.8037    2.5203    0.0000 N   0  0  0  0  0  0  0  0  0  0  0  0
    3.1362    3.0052    0.0000 C   0  0  0  0  0  0  0  0  0  0  0  0
    3.3912    3.7898    0.0000 C   0  0  0  0  0  0  0  0  0  0  0  0
    4.2162    3.7898    0.0000 N   0  0  0  0  0  0  0  0  0  0  0  0
    4.4711    3.0052    0.0000 C   0  0  0  0  0  0  0  0  0  0  0  0
    2.6392    2.7028    0.0000 Cl  0  0  0  0  0  0  0  0  0  0  0  0
    0.6953    0.6078    0.0000 Cl  0  0  0  0  0  0  0  0  0  0  0  0
  1  2  2  0
  1  6  1  0
  2  3  1  0
  3  4  2  0
  4  5  1  0
  4 15  1  0
  5  6  2  0
  5  7  1  0
  7  8  1  0
  8  9  1  0
  9 10  1  0
  9 14  2  0
 10 11  2  0
 11 12  1  0
 11 22  1  0
 12 13  2  0
 13 14  1  0
 13 21  1  0
 14 15  1  0
 15 16  1  0
 16 17  1  0
 16 20  1  0
 17 18  2  0
 18 19  1  0
 19 20  2  0
M  END
>  <DRUGBANK_ID>  (1) 
DB13656

>  <COMMON_NAME>  (1) 
Eberconazole

>  <CAS_NUMBER>  (1) 
128326-82-9

>  <UNII>  (1) 
V7O1U41C9B

>  <SYNONYMS>  (1) 
Eberconazole

$$$$
