Cytidine.mol
     RDKit          2D

 17 18  0  0  0  0  0  0  0  0999 V2000
   -0.2773    0.5203    0.0000 N   0  0  0  0  0  0  0  0  0  0  0  0
    0.4371    0.9328    0.0000 C   0  0  0  0  0  0  0  0  0  0  0  0
   -0.9918    0.9328    0.0000 C   0  0  0  0  0  0  0  0  0  0  0  0
    0.4371    1.7578    0.0000 N   0  0  0  0  0  0  0  0  0  0  0  0
   -0.2773    2.1703    0.0000 C   0  0  0  0  0  0  0  0  0  0  0  0
   -0.9918    1.7578    0.0000 C   0  0  0  0  0  0  0  0  0  0  0  0
   -0.2773   -0.3046    0.0000 C   0  0  0  0  0  0  0  0  0  0  0  0
   -0.9447   -0.7895    0.0000 O   0  0  0  0  0  0  0  0  0  0  0  0
    0.3900   -0.7895    0.0000 C   0  0  0  0  0  0  0  0  0  0  0  0
   -0.6898   -1.5741    0.0000 C   0  0  0  0  0  0  0  0  0  0  0  0
    0.1351   -1.5741    0.0000 C   0  0  0  0  0  0  0  0  0  0  0  0
    1.1747   -0.5346    0.0000 O   0  0  0  0  0  0  0  0  0  0  0  0
    1.1515    0.5203    0.0000 O   0  0  0  0  0  0  0  0  0  0  0  0
    0.6200   -2.2416    0.0000 O   0  0  0  0  0  0  0  0  0  0  0  0
   -0.2773    2.9953    0.0000 N   0  0  0  0  0  0  0  0  0  0  0  0
   -1.1747   -2.2416    0.0000 C   0  0  0  0  0  0  0  0  0  0  0  0
   -0.8392   -2.9953    0.0000 O   0  0  0  0  0  0  0  0  0  0  0  0
  1  2  1  0
  1  3  1  0
  2 13  2  0
  2  4  1  0
  3  6  2  0
  4  5  2  0
  5 15  1  0
  6  5  1  0
  7  1  1  1
  7  8  1  0
  7  9  1  0
  8 10  1  0
  9 11  1  0
  9 12  1  6
 10 16  1  1
 10 11  1  0
 11 14  1  6
 16 17  1  0
M  END
>  <DRUGBANK_ID>  (1) 
DB02097

>  <SECONDARY_ACCESSION_NUMBERS>  (1) 
EXPT01051

>  <COMMON_NAME>  (1) 
Cytidine

>  <CAS_NUMBER>  (1) 
65-46-3

>  <UNII>  (1) 
5CSZ8459RP

>  <SYNONYMS>  (1) 
1-beta-D-Ribofuranosylcytosine; 1β-D-ribofuranosylcytosine; 4-amino-1-β-D-ribofuranosylpyrimidin-2(1H)-one; 4-amino-1β-D-ribofuranosyl-2(1H)-pyrimidinone; Citidina; Cytidin; Cytosine riboside; Zytidin

$$$$
