MQU
     RDKit          2D

 22 24  0  0  0  0  0  0  0  0999 V2000
   -0.5171    1.0474    0.0000 C   0  0  0  0  0  0  0  0  0  0  0  0
   -1.2315    1.4599    0.0000 C   0  0  0  0  0  0  0  0  0  0  0  0
   -1.2315    2.2849    0.0000 O   0  0  0  0  0  0  0  0  0  0  0  0
   -1.9460    2.6974    0.0000 C   0  0  0  0  0  0  0  0  0  0  0  0
    0.1974    1.4599    0.0000 C   0  0  0  0  0  0  0  0  0  0  0  0
    0.1974    2.2849    0.0000 O   0  0  0  0  0  0  0  0  0  0  0  0
    0.9119    2.6974    0.0000 C   0  0  0  0  0  0  0  0  0  0  0  0
    1.8065   -2.1018    0.0000 N   0  0  0  0  0  0  0  0  0  0  0  0
    0.7446   -3.0580    0.0000 N   0  0  0  0  0  0  0  0  0  0  0  0
   -0.5171    0.2224    0.0000 N   0  0  0  0  0  0  0  0  0  0  0  0
    2.1036   -3.4995    0.0000 N   0  0  0  0  0  0  0  0  0  0  0  0
   -0.6144   -2.6164    0.0000 N   0  0  0  0  0  0  0  0  0  0  0  0
    1.2544   -1.4887    0.0000 C   0  0  0  0  0  0  0  0  0  0  0  0
    1.5515   -2.8864    0.0000 C   0  0  0  0  0  0  0  0  0  0  0  0
    0.1925   -2.4449    0.0000 C   0  0  0  0  0  0  0  0  0  0  0  0
    0.4475   -1.6602    0.0000 C   0  0  0  0  0  0  0  0  0  0  0  0
   -0.1046   -1.0472    0.0000 C   0  0  0  0  0  0  0  0  0  0  0  0
   -0.9296   -1.0472    0.0000 C   0  0  0  0  0  0  0  0  0  0  0  0
   -1.1845   -0.2625    0.0000 C   0  0  0  0  0  0  0  0  0  0  0  0
    0.1504   -0.2625    0.0000 C   0  0  0  0  0  0  0  0  0  0  0  0
    0.9574   -0.0910    0.0000 C   0  0  0  0  0  0  0  0  0  0  0  0
    1.5094   -0.7041    0.0000 C   0  0  0  0  0  0  0  0  0  0  0  0
  1  2  1  0
  1  5  1  0
  1 10  1  0
  2  3  1  0
  3  4  1  0
  5  6  1  0
  6  7  1  0
  8 13  2  0
  8 14  1  0
  9 14  2  0
  9 15  1  0
 10 19  1  0
 10 20  1  0
 11 14  1  0
 12 15  1  0
 13 16  1  0
 13 22  1  0
 15 16  2  0
 16 17  1  0
 17 18  1  0
 17 20  2  0
 18 19  2  0
 20 21  1  0
 21 22  2  0
M  END
>  <DRUGBANK_ID>  (1) 
DB08203

>  <COMMON_NAME>  (1) 
7-[2-METHOXY-1-(METHOXYMETHYL)ETHYL]-7H-PYRROLO[3,2-F] QUINAZOLINE-1,3-DIAMINE

$$$$
