
     RDKit          2D

 27 29  0  0  0  0  0  0  0  0999 V2000
   -1.7834    2.2665    0.0000 C   0  0  0  0  0  0  0  0  0  0  0  0
   -1.0725    1.8545    0.0000 C   0  0  0  0  0  0  0  0  0  0  0  0
   -0.3574    2.2665    0.0000 C   0  0  0  0  0  0  0  0  0  0  0  0
    0.3574    1.8545    0.0000 C   0  0  0  0  0  0  0  0  0  0  0  0
    0.3574    1.0295    0.0000 C   0  0  0  0  0  0  0  0  0  0  0  0
   -0.3574    0.6175    0.0000 C   0  0  0  0  0  0  0  0  0  0  0  0
   -1.0725    1.0295    0.0000 C   0  0  0  0  0  0  0  0  0  0  0  0
   -1.7834    3.0905    0.0000 O   0  0  0  0  0  0  0  0  0  0  0  0
   -2.4983    1.8545    0.0000 O   0  0  0  0  0  0  0  0  0  0  0  0
   -0.3574    3.0905    0.0000 O   0  0  0  0  0  0  0  0  0  0  0  0
   -0.3574   -0.2064    0.0000 N   0  0  0  0  0  0  0  0  0  0  0  0
    0.3574   -0.6185    0.0000 C   0  0  0  0  0  0  0  0  0  0  0  0
    1.0725   -0.2064    0.0000 C   0  0  0  0  0  0  0  0  0  0  0  0
    1.7834   -0.6185    0.0000 C   0  0  0  0  0  0  0  0  0  0  0  0
    2.4983   -0.2064    0.0000 C   0  0  0  0  0  0  0  0  0  0  0  0
    2.4983    0.6175    0.0000 C   0  0  0  0  0  0  0  0  0  0  0  0
    1.7834    1.0295    0.0000 C   0  0  0  0  0  0  0  0  0  0  0  0
    1.0725    0.6175    0.0000 C   0  0  0  0  0  0  0  0  0  0  0  0
    1.7834   -1.4425    0.0000 O   0  0  0  0  0  0  0  0  0  0  0  0
   -1.0725   -0.6185    0.0000 C   0  0  0  0  0  0  0  0  0  0  0  0
   -1.0725   -1.4425    0.0000 C   0  0  0  0  0  0  0  0  0  0  0  0
   -0.3574   -1.8545    0.0000 C   0  0  0  0  0  0  0  0  0  0  0  0
   -0.3574   -2.6785    0.0000 C   0  0  0  0  0  0  0  0  0  0  0  0
   -1.0725   -3.0905    0.0000 C   0  0  0  0  0  0  0  0  0  0  0  0
   -1.7834   -2.6785    0.0000 C   0  0  0  0  0  0  0  0  0  0  0  0
   -1.7834   -1.8545    0.0000 C   0  0  0  0  0  0  0  0  0  0  0  0
    0.3574   -1.4425    0.0000 O   0  0  0  0  0  0  0  0  0  0  0  0
  1  2  1  0
  1  8  2  0
  1  9  1  0
  2  3  2  0
  2  7  1  0
  3  4  1  0
  3 10  1  0
  4  5  2  0
  5  6  1  0
  6  7  2  0
  6 11  1  0
 11 12  1  0
 11 20  1  0
 12 13  1  0
 13 14  2  0
 13 18  1  0
 14 15  1  0
 14 19  1  0
 15 16  2  0
 16 17  1  0
 17 18  2  0
 20 21  1  0
 21 22  2  0
 21 26  1  0
 22 23  1  0
 22 27  1  0
 23 24  2  0
 24 25  1  0
 25 26  2  0
M  END
>  <DRUGBANK_ID>  (1) 
DB16760

>  <COMMON_NAME>  (1) 
Lavendustin b

>  <CAS_NUMBER>  (1) 
125697-91-8

>  <UNII>  (1) 
7T53EGQ52Z

$$$$
