PSK
     RDKit          2D

 12 11  0  0  0  0  0  0  0  0999 V2000
   -1.5833   -0.4241    0.0000 C   0  0  0  0  0  0  0  0  0  0  0  0
   -0.8689   -0.0116    0.0000 C   0  0  0  0  0  0  0  0  0  0  0  0
   -0.1543   -0.4241    0.0000 C   0  0  0  0  0  0  0  0  0  0  0  0
   -0.1543   -1.2492    0.0000 O   0  0  0  0  0  0  0  0  0  0  0  0
    0.5602   -0.0116    0.0000 C   0  0  0  0  0  0  0  0  0  0  0  0
    0.5602    0.8135    0.0000 C   0  0  0  0  0  0  0  0  0  0  0  0
    1.2747   -0.4241    0.0000 C   0  0  0  0  0  0  0  0  0  0  0  0
    1.2747   -1.2492    0.0000 O   0  0  0  0  0  0  0  0  0  0  0  0
    1.9892   -0.0116    0.0000 C   0  0  0  0  0  0  0  0  0  0  0  0
    2.7038   -0.4241    0.0000 P   0  0  0  0  0  0  0  0  0  0  0  0
    3.4183   -0.0116    0.0000 O   0  0  0  0  0  0  0  0  0  0  0  0
    2.7038   -1.2492    0.0000 O   0  0  0  0  0  0  0  0  0  0  0  0
  1  2  1  0
  2  3  1  0
  3  4  1  1
  3  5  1  0
  5  6  1  1
  5  7  1  0
  7  8  2  0
  7  9  1  0
  9 10  1  0
 10 11  2  0
 10 12  1  1
M  END
>  <DRUGBANK_ID>  (1) 
DB08431

>  <COMMON_NAME>  (1) 
[(3R,4S)-4-HYDROXY-3-METHYL-2-OXOHEXYL]PHOSPHONIC ACID

$$$$
