2PU
     RDKit          2D

 27 31  0  0  0  0  0  0  0  0999 V2000
    1.6199    1.8199    0.0000 C   0  0  0  0  0  0  0  0  0  0  0  0
    0.7950    1.8036    0.0000 C   0  0  0  0  0  0  0  0  0  0  0  0
    1.8593    2.6094    0.0000 C   0  0  0  0  0  0  0  0  0  0  0  0
    2.1839    1.2178    0.0000 C   0  0  0  0  0  0  0  0  0  0  0  0
    0.5247    2.5831    0.0000 N   0  0  0  0  0  0  0  0  0  0  0  0
    0.1373    1.3057    0.0000 C   0  0  0  0  0  0  0  0  0  0  0  0
    1.1824    3.0811    0.0000 C   0  0  0  0  0  0  0  0  0  0  0  0
    2.6627    2.7968    0.0000 C   0  0  0  0  0  0  0  0  0  0  0  0
    2.9873    1.4052    0.0000 C   0  0  0  0  0  0  0  0  0  0  0  0
    1.9444    0.4283    0.0000 N   0  0  0  0  0  0  0  0  0  0  0  0
   -0.3002    2.5668    0.0000 C   0  0  0  0  0  0  0  0  0  0  0  0
   -0.5396    1.7773    0.0000 C   0  0  0  0  0  0  0  0  0  0  0  0
    1.1661    3.9059    0.0000 O   0  0  0  0  0  0  0  0  0  0  0  0
    3.2267    2.1947    0.0000 C   0  0  0  0  0  0  0  0  0  0  0  0
    1.1410    0.2409    0.0000 C   0  0  0  0  0  0  0  0  0  0  0  0
    0.9016   -0.5486    0.0000 N   0  0  0  0  0  0  0  0  0  0  0  0
    0.5770    0.8430    0.0000 O   0  0  0  0  0  0  0  0  0  0  0  0
    0.0982   -0.7360    0.0000 C   0  0  0  0  0  0  0  0  0  0  0  0
   -0.2225   -1.4961    0.0000 C   0  0  0  0  0  0  0  0  0  0  0  0
   -0.5257   -0.1961    0.0000 N   0  0  0  0  0  0  0  0  0  0  0  0
   -1.0445   -1.4261    0.0000 C   0  0  0  0  0  0  0  0  0  0  0  0
   -1.2319   -0.6227    0.0000 N   0  0  0  0  0  0  0  0  0  0  0  0
   -1.5843   -2.0499    0.0000 C   0  0  0  0  0  0  0  0  0  0  0  0
   -1.3969   -2.8534    0.0000 C   0  0  0  0  0  0  0  0  0  0  0  0
   -2.4064   -1.9799    0.0000 N   0  0  0  0  0  0  0  0  0  0  0  0
   -2.1031   -3.2799    0.0000 C   0  0  0  0  0  0  0  0  0  0  0  0
   -2.7270   -2.7400    0.0000 C   0  0  0  0  0  0  0  0  0  0  0  0
  1  2  1  0
  1  3  2  0
  1  4  1  0
  2  5  1  0
  2  6  1  6
  3  7  1  0
  3  8  1  0
  4  9  2  0
  4 10  1  0
  5  7  1  0
  5 11  1  0
  6 12  1  0
  7 13  2  0
  8 14  2  0
  9 14  1  0
 10 15  1  0
 11 12  1  0
 15 16  1  0
 15 17  2  0
 16 18  1  0
 18 19  1  0
 18 20  2  0
 19 21  2  0
 20 22  1  0
 21 22  1  0
 23 21  1  6
 23 24  1  0
 23 25  1  0
 24 26  1  0
 25 27  1  0
 26 27  1  0
M  END
>  <DRUGBANK_ID>  (1) 
DB06976

>  <COMMON_NAME>  (1) 
1-(5-OXO-2,3,5,9B-TETRAHYDRO-1H-PYRROLO[2,1-A]ISOINDOL-9-YL)-3-(5-PYRROLIDIN-2-YL-1H-PYRAZOL-3-YL)-UREA

$$$$
