
     RDKit          2D

 30 31  0  0  1  0  0  0  0  0999 V2000
   -9.1394    0.4309    0.0000 C   0  0  0  0  0  0  0  0  0  0  0  0
   -8.4249    0.0184    0.0000 C   0  0  0  0  0  0  0  0  0  0  0  0
   -8.4249   -0.8066    0.0000 C   0  0  0  0  0  0  0  0  0  0  0  0
   -7.7105    0.4309    0.0000 C   0  0  0  0  0  0  0  0  0  0  0  0
   -6.9960    0.0184    0.0000 C   0  0  0  0  0  0  0  0  0  0  0  0
   -6.2815    0.4309    0.0000 C   0  0  0  0  0  0  0  0  0  0  0  0
   -5.5671    0.0184    0.0000 C   0  0  0  0  0  0  0  0  0  0  0  0
   -5.5671   -0.8066    0.0000 C   0  0  0  0  0  0  0  0  0  0  0  0
   -4.8526    0.4309    0.0000 C   0  0  0  0  0  0  0  0  0  0  0  0
   -4.1381    0.0184    0.0000 C   0  0  0  0  0  0  0  0  0  0  0  0
   -3.4236    0.4309    0.0000 C   0  0  0  0  0  0  0  0  0  0  0  0
   -2.7092    0.0184    0.0000 C   0  0  0  0  0  0  0  0  0  0  0  0
   -2.7092   -0.8066    0.0000 C   0  0  0  0  0  0  0  0  0  0  0  0
   -1.9947    0.4309    0.0000 C   0  0  0  0  0  0  0  0  0  0  0  0
   -1.2802    0.0184    0.0000 C   0  0  0  0  0  0  0  0  0  0  0  0
   -0.5658    0.4309    0.0000 C   0  0  0  0  0  0  0  0  0  0  0  0
   -0.5658    1.2559    0.0000 C   0  0  0  0  0  0  0  0  0  0  0  0
   -1.3782    1.1126    0.0000 C   0  0  0  0  0  0  0  0  0  0  0  0
    0.2467    1.1126    0.0000 C   0  0  0  0  0  0  0  0  0  0  0  0
    0.7770    1.7446    0.0000 C   0  0  0  0  0  0  0  0  0  0  0  0
    0.4948    2.5199    0.0000 C   0  0  0  0  0  0  0  0  0  0  0  0
   -0.3176    2.6631    0.0000 C   0  0  0  0  0  0  0  0  0  0  0  0
   -0.8479    2.0311    0.0000 O   0  0  0  0  0  0  0  0  0  0  0  0
   -0.5998    3.4384    0.0000 C   0  0  0  0  0  0  0  0  0  0  0  0
   -1.4123    3.5816    0.0000 C   0  0  0  0  0  0  0  0  0  0  0  0
   -0.0695    4.0704    0.0000 C   0  0  0  0  0  0  0  0  0  0  0  0
   -0.3517    4.8456    0.0000 C   0  0  0  0  0  0  0  0  0  0  0  0
    0.7430    3.9271    0.0000 C   0  0  0  0  0  0  0  0  0  0  0  0
    1.2733    4.5591    0.0000 O   0  0  0  0  0  0  0  0  0  0  0  0
    1.0251    3.1518    0.0000 C   0  0  0  0  0  0  0  0  0  0  0  0
  1  2  1  0
  2  3  1  0
  2  4  1  0
  4  5  1  0
  5  6  1  0
  7  6  1  0
  7  8  1  6
  7  9  1  0
  9 10  1  0
 10 11  1  0
 12 11  1  0
 12 13  1  6
 12 14  1  0
 14 15  1  0
 15 16  1  0
 17 16  1  0
 17 18  1  6
 17 19  1  0
 17 23  1  0
 19 20  1  0
 20 21  1  0
 21 22  2  0
 21 30  1  0
 22 23  1  0
 22 24  1  0
 24 25  1  0
 24 26  2  0
 26 27  1  0
 26 28  1  0
 28 29  1  0
 28 30  2  0
M  END
>  <DRUGBANK_ID>  (1) 
DB15394

>  <COMMON_NAME>  (1) 
gamma-Tocopherol

>  <CAS_NUMBER>  (1) 
54-28-4

>  <UNII>  (1) 
8EF1Z1238F

>  <SYNONYMS>  (1) 
D-gamma-Tocopherol

$$$$
