
     RDKit          2D

 24 28  0  0  1  0  0  0  0  0999 V2000
    4.0586    1.3029    0.0000 C   0  0  0  0  0  0  0  0  0  0  0  0
    3.8037    2.0875    0.0000 N   0  0  0  0  0  0  0  0  0  0  0  0
    4.7305    2.3192    0.0000 C   0  0  0  0  0  0  0  0  0  0  0  0
    4.2162    2.9643    0.0000 C   0  0  0  0  0  0  0  0  0  0  0  0
    3.3912    2.9643    0.0000 C   0  0  0  0  0  0  0  0  0  0  0  0
    2.8768    2.3192    0.0000 C   0  0  0  0  0  0  0  0  0  0  0  0
    3.0604    1.5149    0.0000 C   0  0  0  0  0  0  0  0  0  0  0  0
    3.8037    1.1570    0.0000 C   0  0  0  0  0  0  0  0  0  0  0  0
    3.8037    0.3320    0.0000 C   0  0  0  0  0  0  0  0  0  0  0  0
    4.5470   -0.0260    0.0000 C   0  0  0  0  0  0  0  0  0  0  0  0
    5.1517    0.5352    0.0000 C   0  0  0  0  0  0  0  0  0  0  0  0
    5.9401    0.2920    0.0000 C   0  0  0  0  0  0  0  0  0  0  0  0
    6.1237   -0.5123    0.0000 C   0  0  0  0  0  0  0  0  0  0  0  0
    5.5189   -1.0735    0.0000 C   0  0  0  0  0  0  0  0  0  0  0  0
    4.7305   -0.8303    0.0000 C   0  0  0  0  0  0  0  0  0  0  0  0
    4.2162   -1.4753    0.0000 C   0  0  0  0  0  0  0  0  0  0  0  0
    3.3912   -1.4753    0.0000 S   0  0  0  0  0  0  0  0  0  0  0  0
    2.8768   -0.8303    0.0000 C   0  0  0  0  0  0  0  0  0  0  0  0
    3.0604   -0.0260    0.0000 C   0  0  0  0  0  0  0  0  0  0  0  0
    2.4556    0.5352    0.0000 C   0  0  0  0  0  0  0  0  0  0  0  0
    1.6673    0.2920    0.0000 C   0  0  0  0  0  0  0  0  0  0  0  0
    1.4837   -0.5123    0.0000 C   0  0  0  0  0  0  0  0  0  0  0  0
    2.0884   -1.0735    0.0000 C   0  0  0  0  0  0  0  0  0  0  0  0
    4.5470    1.5149    0.0000 C   0  0  0  0  0  0  0  0  0  0  0  0
  1  2  1  0
  3  2  1  0
  3  4  1  6
  3 24  1  0
  4  5  1  0
  6  5  1  6
  6  2  1  0
  6  7  1  0
  8  7  1  0
  8  9  2  3
  8 24  1  0
  9 10  1  0
  9 19  1  0
 10 11  2  0
 10 15  1  0
 11 12  1  0
 12 13  2  0
 13 14  1  0
 14 15  2  0
 15 16  1  0
 16 17  1  0
 17 18  1  0
 18 19  2  0
 18 23  1  0
 19 20  1  0
 20 21  2  0
 21 22  1  0
 22 23  2  0
M  END
>  <DRUGBANK_ID>  (1) 
DB13252

>  <COMMON_NAME>  (1) 
Tropatepine

>  <CAS_NUMBER>  (1) 
27574-24-9

>  <UNII>  (1) 
C27HY5RFU5

>  <SYNONYMS>  (1) 
Tropatepine

$$$$
