BZS
     RDKit          2D

 15 15  0  0  0  0  0  0  0  0999 V2000
   -1.9841   -0.3406    0.0000 C   0  0  0  0  0  0  0  0  0  0  0  0
   -1.2697   -0.7531    0.0000 C   0  0  0  0  0  0  0  0  0  0  0  0
   -0.5552   -0.3406    0.0000 C   0  0  0  0  0  0  0  0  0  0  0  0
   -0.5552    0.4844    0.0000 C   0  0  0  0  0  0  0  0  0  0  0  0
    0.1593   -0.7531    0.0000 C   0  0  0  0  0  0  0  0  0  0  0  0
    0.8737   -0.3406    0.0000 C   0  0  0  0  0  0  0  0  0  0  0  0
    0.8737    0.4844    0.0000 C   0  0  0  0  0  0  0  0  0  0  0  0
    1.5882   -0.7531    0.0000 C   0  0  0  0  0  0  0  0  0  0  0  0
    1.5882    0.8969    0.0000 C   0  0  0  0  0  0  0  0  0  0  0  0
    2.3027   -0.3406    0.0000 C   0  0  0  0  0  0  0  0  0  0  0  0
    2.3027    0.4844    0.0000 C   0  0  0  0  0  0  0  0  0  0  0  0
   -2.6986   -0.7531    0.0000 O   0  0  0  0  0  0  0  0  0  0  0  0
   -1.9841    0.4844    0.0000 O   0  0  0  0  0  0  0  0  0  0  0  0
    0.1593    0.8969    0.0000 O   0  0  0  0  0  0  0  0  0  0  0  0
   -1.2697    0.8969    0.0000 O   0  0  0  0  0  0  0  0  0  0  0  0
  1  2  1  0
  1 12  2  0
  1 13  1  0
  3  2  1  6
  3  4  1  0
  3  5  1  0
  4 14  2  0
  4 15  1  0
  5  6  1  0
  6  7  2  0
  6  8  1  0
  7  9  1  0
  8 10  2  0
  9 11  2  0
 10 11  1  0
M  END
>  <DRUGBANK_ID>  (1) 
DB07506

>  <COMMON_NAME>  (1) 
L-BENZYLSUCCINIC ACID

$$$$
