544
     RDKit          2D

  9  9  0  0  0  0  0  0  0  0999 V2000
    4.5080    1.0808    0.0000 F   0  0  0  0  0  0  0  0  0  0  0  0
    4.5080   -0.5693    0.0000 O   0  0  0  0  0  0  0  0  0  0  0  0
    1.6500   -0.5693    0.0000 O   0  0  0  0  0  0  0  0  0  0  0  0
    3.0791   -0.5693    0.0000 N   0  0  0  0  0  0  0  0  0  0  0  0
    2.3645    0.6683    0.0000 N   0  0  0  0  0  0  0  0  0  0  0  0
    3.7935   -0.1568    0.0000 C   0  0  0  0  0  0  0  0  0  0  0  0
    2.3645   -0.1568    0.0000 C   0  0  0  0  0  0  0  0  0  0  0  0
    3.7935    0.6683    0.0000 C   0  0  0  0  0  0  0  0  0  0  0  0
    3.0791    1.0808    0.0000 C   0  0  0  0  0  0  0  0  0  0  0  0
  1  8  1  0
  2  6  2  0
  3  7  2  0
  4  6  1  0
  4  7  1  0
  5  7  1  0
  5  9  1  0
  6  8  1  0
  8  9  2  0
M  END
>  <DRUGBANK_ID>  (1) 
DB00544

>  <SECONDARY_ACCESSION_NUMBERS>  (1) 
APRD00516; EXPT03204

>  <COMMON_NAME>  (1) 
Fluorouracil

>  <CAS_NUMBER>  (1) 
51-21-8

>  <UNII>  (1) 
U3P01618RT

>  <SYNONYMS>  (1) 
5-Fluoracil; 5-Fluoropyrimidine-2,4-dione; 5-Fluorouracil; 5-Fluracil; 5-FU; Fluoro Uracil; Fluorouracil; Fluorouracilo; Fluorouracilum; Fluouracil

$$$$
