M5P
     RDKit          2D

 15 15  0  0  0  0  0  0  0  0999 V2000
   -2.1738    0.5451    0.0000 C   0  0  0  0  0  0  0  0  0  0  0  0
   -2.5863    1.2596    0.0000 C   0  0  0  0  0  0  0  0  0  0  0  0
   -2.1738    1.9741    0.0000 C   0  0  0  0  0  0  0  0  0  0  0  0
   -1.3488    1.9741    0.0000 C   0  0  0  0  0  0  0  0  0  0  0  0
   -0.9363    1.2596    0.0000 C   0  0  0  0  0  0  0  0  0  0  0  0
   -1.3488    0.5451    0.0000 C   0  0  0  0  0  0  0  0  0  0  0  0
   -0.9363   -0.1694    0.0000 C   0  0  0  0  0  0  0  0  0  0  0  0
   -0.1113   -0.1694    0.0000 C   0  0  0  0  0  0  0  0  0  0  0  0
    0.3012   -0.8838    0.0000 C   0  0  0  0  0  0  0  0  0  0  0  0
    1.1262   -0.8838    0.0000 C   0  0  0  0  0  0  0  0  0  0  0  0
    1.5387   -1.5983    0.0000 C   0  0  0  0  0  0  0  0  0  0  0  0
    2.3637   -1.5983    0.0000 O   0  0  0  0  0  0  0  0  0  0  0  0
    1.1262   -2.3128    0.0000 O   0  0  0  0  0  0  0  0  0  0  0  0
    1.5387   -0.1694    0.0000 C   0  0  0  0  0  0  0  0  0  0  0  0
    2.3637   -0.1694    0.0000 S   0  0  0  0  0  0  0  0  0  0  0  0
  1  2  2  0
  1  6  1  0
  2  3  1  0
  3  4  2  0
  4  5  1  0
  5  6  2  0
  6  7  1  0
  7  8  1  0
  8  9  1  0
 10  9  1  6
 10 11  1  0
 10 14  1  0
 11 12  2  0
 11 13  1  0
 14 15  1  0
M  END
>  <DRUGBANK_ID>  (1) 
DB08161

>  <COMMON_NAME>  (1) 
(S)-2-(MERCAPTOMETHYL)-5-PHENYLPENTANOIC ACID

$$$$
