
     RDKit          2D

 33 34  0  0  0  0  0  0  0  0999 V2000
    3.0534    2.3480    0.0000 C   0  0  0  0  0  0  0  0  0  0  0  0
    3.6827    1.8145    0.0000 C   0  0  0  0  0  0  0  0  0  0  0  0
    3.5353    1.0028    0.0000 N   0  0  0  0  0  0  0  0  0  0  0  0
    2.7586    0.7245    0.0000 C   0  0  0  0  0  0  0  0  0  0  0  0
    2.1293    1.2581    0.0000 N   0  0  0  0  0  0  0  0  0  0  0  0
    2.2767    2.0698    0.0000 C   0  0  0  0  0  0  0  0  0  0  0  0
    1.3526    0.9799    0.0000 C   0  0  0  0  0  0  0  0  0  0  0  0
    1.1211    0.1879    0.0000 C   0  0  0  0  0  0  0  0  0  0  0  0
    0.2964    0.1633    0.0000 C   0  0  0  0  0  0  0  0  0  0  0  0
    0.0181    0.9400    0.0000 C   0  0  0  0  0  0  0  0  0  0  0  0
    0.6709    1.4447    0.0000 O   0  0  0  0  0  0  0  0  0  0  0  0
   -0.7736    1.1714    0.0000 C   0  0  0  0  0  0  0  0  0  0  0  0
   -1.3700    0.6013    0.0000 O   0  0  0  0  0  0  0  0  0  0  0  0
   -2.1620    0.8328    0.0000 P   0  0  0  0  0  0  0  0  0  0  0  0
   -2.3934    0.0408    0.0000 O   0  0  0  0  0  0  0  0  0  0  0  0
   -3.1949   -0.1546    0.0000 C   0  0  0  0  0  0  0  0  0  0  0  0
   -3.4264   -0.9465    0.0000 C   0  0  0  0  0  0  0  0  0  0  0  0
   -4.2279   -1.1421    0.0000 C   0  0  0  0  0  0  0  0  0  0  0  0
   -4.4594   -1.9339    0.0000 C   0  0  0  0  0  0  0  0  0  0  0  0
   -1.9305    1.6247    0.0000 O   0  0  0  0  0  0  0  0  0  0  0  0
   -2.9539    1.0642    0.0000 O   0  0  0  0  0  0  0  0  0  0  0  0
   -0.1683   -0.5183    0.0000 O   0  0  0  0  0  0  0  0  0  0  0  0
   -0.9678   -0.3146    0.0000 P   0  0  0  0  0  0  0  0  0  0  0  0
   -1.1714   -1.1140    0.0000 O   0  0  0  0  0  0  0  0  0  0  0  0
   -1.9657   -1.3375    0.0000 C   0  0  0  0  0  0  0  0  0  0  0  0
   -2.1694   -2.1370    0.0000 C   0  0  0  0  0  0  0  0  0  0  0  0
   -2.9636   -2.3604    0.0000 C   0  0  0  0  0  0  0  0  0  0  0  0
   -3.1672   -3.1598    0.0000 C   0  0  0  0  0  0  0  0  0  0  0  0
   -1.7674   -0.1109    0.0000 O   0  0  0  0  0  0  0  0  0  0  0  0
   -0.7641    0.4848    0.0000 O   0  0  0  0  0  0  0  0  0  0  0  0
    2.6112   -0.0872    0.0000 O   0  0  0  0  0  0  0  0  0  0  0  0
    4.4594    2.0928    0.0000 O   0  0  0  0  0  0  0  0  0  0  0  0
    3.2007    3.1598    0.0000 C   0  0  0  0  0  0  0  0  0  0  0  0
  1  2  1  0
  1  6  2  0
  1 33  1  0
  2 32  2  0
  3  2  1  0
  4  3  1  0
  4 31  2  0
  5  4  1  0
  6  5  1  0
  7  5  1  1
  7 11  1  0
  8  7  1  0
  8  9  1  0
  9 10  1  0
  9 22  1  6
 10 12  1  1
 11 10  1  0
 12 13  1  0
 13 14  1  0
 14 15  1  0
 14 20  2  0
 14 21  1  0
 15 16  1  0
 16 17  1  0
 17 18  1  0
 18 19  1  0
 22 23  1  0
 23 24  1  0
 23 29  2  0
 23 30  1  0
 24 25  1  0
 25 26  1  0
 26 27  1  0
 27 28  1  0
M  END
>  <DRUGBANK_ID>  (1) 
DB16015

>  <COMMON_NAME>  (1) 
Bisphosphocin Nu-3

>  <CAS_NUMBER>  (1) 
403717-06-6

>  <UNII>  (1) 
8BK3483OW5

>  <SYNONYMS>  (1) 
3'-thymidylic acid, monobutyl ester, 5'-(butyl hydrogen phosphate); Bisphosphocin Nu-3; Bisphosphocin Nu3; Nu-3

$$$$
