
     RDKit          2D

 11 10  0  0  0  0  0  0  0  0999 V2000
   -2.0625    0.7145    0.0000 O   0  0  0  0  0  0  0  0  0  0  0  0
   -0.8250    1.4289    0.0000 O   0  0  0  0  0  0  0  0  0  0  0  0
    2.0625   -0.7145    0.0000 O   0  0  0  0  0  0  0  0  0  0  0  0
    0.8250   -1.4289    0.0000 O   0  0  0  0  0  0  0  0  0  0  0  0
    0.0000   -0.8250    0.0000 O   0  0  0  0  0  0  0  0  0  0  0  0
   -0.0000    0.8250    0.0000 O   0  0  0  0  0  0  0  0  0  0  0  0
   -0.8250   -0.0000    0.0000 O   0  0  0  0  0  0  0  0  0  0  0  0
    0.8250    0.0000    0.0000 O   0  0  0  0  0  0  0  0  0  0  0  0
   -1.2375    0.7145    0.0000 V   0  0  0  0  0  4  0  0  0  0  0  0
    1.2375   -0.7145    0.0000 V   0  0  0  0  0  5  0  0  0  0  0  0
    0.0000    0.0000    0.0000 V   0  0  0  0  0  5  0  0  0  0  0  0
  9  1  1  0
  9  2  2  0
  9  7  1  0
 10  3  2  0
 10  4  2  0
 10  8  1  0
 11  5  1  0
 11  6  2  0
 11  7  1  0
 11  8  1  0
M  CHG  1   1  -1
M  END
>  <DRUGBANK_ID>  (1) 
DB04219

>  <SECONDARY_ACCESSION_NUMBERS>  (1) 
EXPT03215

>  <COMMON_NAME>  (1) 
Trivanadate

$$$$
