
     RDKit          2D

 22 25  0  0  0  0  0  0  0  0999 V2000
    1.7692    1.5833    0.0000 N   0  0  0  0  0  0  0  0  0  0  0  0
    2.4039    2.1026    0.0000 C   0  0  0  0  0  0  0  0  0  0  0  0
    1.1282    2.1026    0.0000 C   0  0  0  0  0  0  0  0  0  0  0  0
    3.0449    1.5833    0.0000 C   0  0  0  0  0  0  0  0  0  0  0  0
    0.3846    2.1026    0.0000 C   0  0  0  0  0  0  0  0  0  0  0  0
    0.7565    2.9936    0.0000 C   0  0  0  0  0  0  0  0  0  0  0  0
    3.7885    1.5833    0.0000 C   0  0  0  0  0  0  0  0  0  0  0  0
    3.4167    0.6924    0.0000 C   0  0  0  0  0  0  0  0  0  0  0  0
   -0.2500    1.5833    0.0000 C   0  0  0  0  0  0  0  0  0  0  0  0
   -0.4871    0.6219    0.0000 C   0  0  0  0  0  0  0  0  0  0  0  0
   -0.8333    2.2179    0.0000 S   0  0  0  0  0  0  0  0  0  0  0  0
   -1.2307    0.6219    0.0000 C   0  0  0  0  0  0  0  0  0  0  0  0
   -1.4423    1.5833    0.0000 C   0  0  0  0  0  0  0  0  0  0  0  0
   -1.8718    0.1025    0.0000 C   0  0  0  0  0  0  0  0  0  0  0  0
   -1.8718   -0.9230    0.0000 N   0  0  0  0  0  0  0  0  0  0  0  0
   -2.5064    0.6219    0.0000 O   0  0  0  0  0  0  0  0  0  0  0  0
   -2.5064   -1.4423    0.0000 C   0  0  0  0  0  0  0  0  0  0  0  0
   -2.5064   -2.4744    0.0000 C   0  0  0  0  0  0  0  0  0  0  0  0
   -3.1475   -0.9230    0.0000 C   0  0  0  0  0  0  0  0  0  0  0  0
   -3.1475   -2.9936    0.0000 C   0  0  0  0  0  0  0  0  0  0  0  0
   -3.7885   -1.4423    0.0000 C   0  0  0  0  0  0  0  0  0  0  0  0
   -3.7885   -2.4744    0.0000 O   0  0  0  0  0  0  0  0  0  0  0  0
  1  2  1  0
  2  4  1  0
  3  1  1  1
  3  5  1  0
  3  6  1  0
  4  7  1  0
  4  8  1  0
  5  6  1  0
  5  9  1  6
  7  8  1  0
  9 10  2  0
  9 11  1  0
 10 12  1  0
 11 13  1  0
 12 13  2  0
 12 14  1  0
 14 15  1  0
 14 16  2  0
 15 17  1  0
 17 18  1  0
 17 19  1  0
 18 20  1  0
 19 21  1  0
 20 22  1  0
 21 22  1  0
M  END
>  <DRUGBANK_ID>  (1) 
DB16939

>  <COMMON_NAME>  (1) 
TAK-418 free base

>  <CAS_NUMBER>  (1) 
1818252-52-6

>  <UNII>  (1) 
N9N6RK0CBN

>  <SYNONYMS>  (1) 
5-((1R,2R)-2-((Cyclopropylmethyl)amino)cyclopropyl)-N-(tetrahydro-2H-pyran-4-yl)thiophene-3-carboxamide

$$$$
