
     RDKit          2D

 26 29  0  0  1  0  0  0  0  0999 V2000
   -0.6456    1.6748    0.0000 O   0  0  0  0  0  0  0  0  0  0  0  0
   -0.5840    0.8521    0.0000 C   0  0  0  0  0  0  0  0  0  0  0  0
   -1.2656    0.3873    0.0000 O   0  0  0  0  0  0  0  0  0  0  0  0
    0.1593    0.4941    0.0000 C   0  0  0  0  0  0  0  0  0  0  0  0
    0.1593   -0.3309    0.0000 O   0  0  0  0  0  0  0  0  0  0  0  0
    0.8044   -0.8453    0.0000 C   0  0  0  0  0  0  0  0  0  0  0  0
    1.0361    0.0816    0.0000 O   0  0  0  0  0  0  0  0  0  0  0  0
    0.8044    1.0085    0.0000 C   0  0  0  0  0  0  0  0  0  0  0  0
    1.6087    0.8249    0.0000 C   0  0  0  0  0  0  0  0  0  0  0  0
    2.1231    1.4699    0.0000 O   0  0  0  0  0  0  0  0  0  0  0  0
    1.9666    0.0816    0.0000 N   0  0  0  0  0  0  0  0  0  0  0  0
    2.7916    0.0816    0.0000 C   0  0  0  0  0  0  0  0  0  0  0  0
    3.2041    0.7961    0.0000 C   0  0  0  0  0  0  0  0  0  0  0  0
    2.7916    1.5106    0.0000 C   0  0  0  0  0  0  0  0  0  0  0  0
    3.2041    2.2250    0.0000 C   0  0  0  0  0  0  0  0  0  0  0  0
    4.0291    2.2250    0.0000 C   0  0  0  0  0  0  0  0  0  0  0  0
    4.4416    1.5106    0.0000 C   0  0  0  0  0  0  0  0  0  0  0  0
    4.0291    0.7961    0.0000 C   0  0  0  0  0  0  0  0  0  0  0  0
    1.6087   -0.6617    0.0000 C   0  0  0  0  0  0  0  0  0  0  0  0
    2.1231   -1.3067    0.0000 C   0  0  0  0  0  0  0  0  0  0  0  0
    1.8216   -2.0747    0.0000 C   0  0  0  0  0  0  0  0  0  0  0  0
    2.3360   -2.7197    0.0000 C   0  0  0  0  0  0  0  0  0  0  0  0
    2.0346   -3.4876    0.0000 C   0  0  0  0  0  0  0  0  0  0  0  0
    1.2188   -3.6106    0.0000 C   0  0  0  0  0  0  0  0  0  0  0  0
    0.7045   -2.9656    0.0000 C   0  0  0  0  0  0  0  0  0  0  0  0
    1.0059   -2.1976    0.0000 C   0  0  0  0  0  0  0  0  0  0  0  0
  1  2  1  0
  2  3  2  0
  4  2  1  6
  4  5  1  0
  4  8  1  0
  6  5  1  1
  6  7  1  0
  6 19  1  0
  8  7  1  0
  8  9  1  1
  9 10  2  0
  9 11  1  0
 11 12  1  0
 12 13  1  0
 13 14  2  0
 13 18  1  0
 14 15  1  0
 15 16  2  0
 16 17  1  0
 17 18  2  0
 19 11  1  0
 19 20  1  6
 20 21  1  0
 21 22  2  0
 21 26  1  0
 22 23  1  0
 23 24  2  0
 24 25  1  0
 25 26  2  0
M  END
>  <DRUGBANK_ID>  (1) 
DB18013

>  <COMMON_NAME>  (1) 
Udonitrectag

>  <CAS_NUMBER>  (1) 
1458063-04-1

>  <UNII>  (1) 
2GOW9TT6AD

>  <SYNONYMS>  (1) 
(1s,4r,5r,7s)-2-oxo-3,4-bis(phenylmethyl)-6,8-dioxa-3-azabicyclo(3.2.1)octane-7-carboxylate; (1s,4r,5r,7s)-3, 4-dibenzyl-2-oxo-6, 8-dioxa-3-azabicyclo (3.2.1) octane-7-carboxylic acid; 3, 4-dibenzyl-2-oxo-6, 8-dioxa-3-azabicyclo (3.2.1) octane-7-carboxylic acid, (1s,4r,5r,7s)-; 6,8-dioxa-3-azabicyclo(3.2.1)octane-7-carboxylic acid, 2-oxo-3,4-bis(phenylmethyl)-, (1s,4r,5r,7s)-; Rec-0559 (nerve growth factor mimetic)

$$$$
