
     RDKit          2D

 27 27  0  0  0  0  0  0  0  0999 V2000
   -3.2327   -0.3044    0.0000 N   0  0  0  0  0  0  0  0  0  0  0  0
    1.7443    0.9665    0.0000 C   0  0  0  0  0  0  0  0  0  0  0  0
    1.0293    1.3675    0.0000 N   0  0  0  0  0  0  0  0  0  0  0  0
    0.3478    0.9422    0.0000 C   0  0  0  0  0  0  0  0  0  0  0  0
   -2.5225    0.0869    0.0000 C   0  0  0  0  0  0  0  0  0  0  0  0
    2.4692    1.3916    0.0000 C   0  0  0  0  0  0  0  0  0  0  0  0
   -0.3623    1.3385    0.0000 C   0  0  0  0  0  0  0  0  0  0  0  0
   -3.9576    0.0772    0.0000 O   0  0  0  0  0  0  0  0  0  0  0  0
    3.2618   -1.4304    0.0000 C   0  0  0  0  0  0  0  0  0  0  0  0
    1.1065   -1.1017    0.0000 C   0  0  0  0  0  0  0  0  0  0  0  0
   -3.2473   -1.1307    0.0000 O   0  0  0  0  0  0  0  0  0  0  0  0
   -1.0921    0.9326    0.0000 C   0  0  0  0  0  0  0  0  0  0  0  0
    1.7782    0.1401    0.0000 O   0  0  0  0  0  0  0  0  0  0  0  0
    0.3720    0.1304    0.0000 C   0  0  0  0  0  0  0  0  0  0  0  0
    3.9576   -1.0003    0.0000 O   0  0  0  0  0  0  0  0  0  0  0  0
    1.0872   -0.2755    0.0000 O   0  0  0  0  0  0  0  0  0  0  0  0
    3.2810   -2.2228    0.0000 O   0  0  0  0  0  0  0  0  0  0  0  0
    0.3961   -1.5367    0.0000 O   0  0  0  0  0  0  0  0  0  0  0  0
   -1.7976   -0.2995    0.0000 C   0  0  0  0  0  0  0  0  0  0  0  0
   -2.5225    0.9132    0.0000 C   0  0  0  0  0  0  0  0  0  0  0  0
   -1.8025    1.3336    0.0000 C   0  0  0  0  0  0  0  0  0  0  0  0
   -1.0921    0.1304    0.0000 C   0  0  0  0  0  0  0  0  0  0  0  0
    2.5369   -1.0438    0.0000 C   0  0  0  0  0  0  0  0  0  0  0  0
    1.8362   -1.4932    0.0000 C   0  0  0  0  0  0  0  0  0  0  0  0
    3.1941    1.0002    0.0000 Cl  0  0  0  0  0  0  0  0  0  0  0  0
    2.4402    2.2228    0.0000 Cl  0  0  0  0  0  0  0  0  0  0  0  0
   -0.3623    2.1599    0.0000 O   0  0  0  0  0  0  0  0  0  0  0  0
  2  3  1  0
  3  4  1  0
  4  7  1  0
  4 14  1  6
  5  1  1  0
  6  2  1  0
  7 12  1  0
  7 27  1  1
  8  1  1  0
  9 23  1  0
 10 16  1  0
 11  1  2  0
 12 22  2  0
 12 21  1  0
 13  2  2  0
 15  9  1  0
 16 14  1  0
 17  9  2  0
 18 10  2  0
 19  5  2  0
 20  5  1  0
 21 20  2  0
 22 19  1  0
 23 24  1  0
 24 10  1  0
 25  6  1  0
 26  6  1  0
M  CHG  2   1   1   8  -1
M  END
>  <DRUGBANK_ID>  (1) 
DB07565

>  <COMMON_NAME>  (1) 
Chloramphenicol succinate

>  <CAS_NUMBER>  (1) 
3544-94-3

>  <UNII>  (1) 
ZCX619U9A1

>  <SYNONYMS>  (1) 
Chloramphenicol hemisuccinate

$$$$
