5212
     RDKit          2D

 33 36  0  0  0  0  0  0  0  0999 V2000
    0.3782   -0.4502    0.0000 C   0  0  0  0  0  0  0  0  0  0  0  0
    1.0929   -0.0345    0.0000 C   0  0  0  0  0  0  0  0  0  0  0  0
    0.3782   -1.2787    0.0000 C   0  0  0  0  0  0  0  0  0  0  0  0
   -0.3368   -0.0413    0.0000 C   0  0  0  0  0  0  0  0  0  0  0  0
    1.8045   -0.4468    0.0000 N   0  0  0  0  0  0  0  0  0  0  0  0
    1.0863    0.7903    0.0000 N   0  0  0  0  0  0  0  0  0  0  0  0
   -0.3368   -1.6911    0.0000 C   0  0  0  0  0  0  0  0  0  0  0  0
    1.0863   -1.6878    0.0000 O   0  0  0  0  0  0  0  0  0  0  0  0
   -1.0481   -0.4502    0.0000 C   0  0  0  0  0  0  0  0  0  0  0  0
    2.5230   -0.0378    0.0000 C   0  0  0  0  0  0  0  0  0  0  0  0
    1.8045    1.2029    0.0000 C   0  0  0  0  0  0  0  0  0  0  0  0
   -1.0516   -1.2752    0.0000 C   0  0  0  0  0  0  0  0  0  0  0  0
    1.7976   -1.2752    0.0000 C   0  0  0  0  0  0  0  0  0  0  0  0
   -1.7596   -0.0378    0.0000 S   0  0  0  0  0  0  0  0  0  0  0  0
    2.5607    0.7869    0.0000 C   0  0  0  0  0  0  0  0  0  0  0  0
    3.3063   -0.2887    0.0000 C   0  0  0  0  0  0  0  0  0  0  0  0
    2.5056   -1.6878    0.0000 C   0  0  0  0  0  0  0  0  0  0  0  0
   -2.4712   -0.4468    0.0000 N   0  0  0  0  0  0  0  0  0  0  0  0
   -1.1754    0.5499    0.0000 O   0  0  0  0  0  0  0  0  0  0  0  0
   -2.3509    0.5499    0.0000 O   0  0  0  0  0  0  0  0  0  0  0  0
    3.3031    1.0481    0.0000 N   0  0  0  0  0  0  0  0  0  0  0  0
    3.7944    0.3815    0.0000 N   0  0  0  0  0  0  0  0  0  0  0  0
    3.5573   -1.0689    0.0000 C   0  0  0  0  0  0  0  0  0  0  0  0
   -2.4712   -1.2717    0.0000 C   0  0  0  0  0  0  0  0  0  0  0  0
   -3.1861   -0.0309    0.0000 C   0  0  0  0  0  0  0  0  0  0  0  0
    3.5608    1.8352    0.0000 C   0  0  0  0  0  0  0  0  0  0  0  0
    4.3582   -1.2374    0.0000 C   0  0  0  0  0  0  0  0  0  0  0  0
   -3.1861   -1.6843    0.0000 C   0  0  0  0  0  0  0  0  0  0  0  0
   -3.9009   -0.4468    0.0000 C   0  0  0  0  0  0  0  0  0  0  0  0
    4.6125   -2.0210    0.0000 C   0  0  0  0  0  0  0  0  0  0  0  0
   -3.9009   -1.2717    0.0000 N   0  0  0  0  0  0  0  0  0  0  0  0
   -4.6125   -1.6878    0.0000 C   0  0  0  0  0  0  0  0  0  0  0  0
    1.7969    2.0210    0.0000 O   0  0  0  0  0  0  0  0  0  0  0  0
  1  2  1  0
  1  3  2  0
  1  4  1  0
  2  5  2  0
  2  6  1  0
  3  7  1  0
  3  8  1  0
  4  9  2  0
  5 10  1  0
  6 11  1  0
  7 12  2  0
  8 13  1  0
  9 14  1  0
  9 12  1  0
 10 15  2  0
 10 16  1  0
 11 15  1  0
 11 33  2  0
 13 17  1  0
 14 18  1  0
 14 19  2  0
 14 20  2  0
 15 21  1  0
 16 22  2  0
 16 23  1  0
 18 24  1  0
 18 25  1  0
 21 26  1  0
 21 22  1  0
 23 27  1  0
 24 28  1  0
 25 29  1  0
 27 30  1  0
 28 31  1  0
 29 31  1  0
 31 32  1  0
M  END
>  <DRUGBANK_ID>  (1) 
DB00203

>  <SECONDARY_ACCESSION_NUMBERS>  (1) 
APRD00556

>  <COMMON_NAME>  (1) 
Sildenafil

>  <CAS_NUMBER>  (1) 
139755-83-2

>  <UNII>  (1) 
3M7OB98Y7H

>  <SYNONYMS>  (1) 
1-((3-(4,7-Dihydro-1-methyl-7-oxo-3-propyl-1H-pyrazolo(4,3-d)pyrimidin-5-yl)-4-ethoxyphenyl)sulfonyl)-4-methylpiperazine; Sildenafil; Sildenafilo

$$$$
