1064
     RDKit          2D

 15 15  0  0  1  0  0  0  0  0999 V2000
    2.8075    0.9529    0.0000 O   0  0  0  0  0  0  0  0  0  0  0  0
    2.0930   -1.9347    0.0000 O   0  0  0  0  0  0  0  0  0  0  0  0
    3.5220   -2.7597    0.0000 O   0  0  0  0  0  0  0  0  0  0  0  0
    4.2365    1.7779    0.0000 N   0  0  0  0  0  0  0  0  0  0  0  0
    3.5220    0.5404    0.0000 C   0  0  0  0  0  0  0  0  0  0  0  0
    4.2365    0.9529    0.0000 C   0  0  0  0  0  0  0  0  0  0  0  0
    4.9509    2.1904    0.0000 C   0  0  0  0  0  0  0  0  0  0  0  0
    3.5220   -0.2846    0.0000 C   0  0  0  0  0  0  0  0  0  0  0  0
    4.9509    3.0154    0.0000 C   0  0  0  0  0  0  0  0  0  0  0  0
    5.6655    1.7779    0.0000 C   0  0  0  0  0  0  0  0  0  0  0  0
    2.8075   -0.6971    0.0000 C   0  0  0  0  0  0  0  0  0  0  0  0
    4.2365   -0.6971    0.0000 C   0  0  0  0  0  0  0  0  0  0  0  0
    2.8075   -1.5222    0.0000 C   0  0  0  0  0  0  0  0  0  0  0  0
    4.2365   -1.5222    0.0000 C   0  0  0  0  0  0  0  0  0  0  0  0
    3.5220   -1.9347    0.0000 C   0  0  0  0  0  0  0  0  0  0  0  0
  1  5  1  0
  2 13  1  0
  3 15  1  0
  4  6  1  0
  4  7  1  0
  5  6  1  0
  5  8  1  0
  7  9  1  0
  7 10  1  0
  8 11  2  0
  8 12  1  0
 11 13  1  0
 12 14  2  0
 13 15  2  0
 14 15  1  0
M  END
>  <DRUGBANK_ID>  (1) 
DB01064

>  <SECONDARY_ACCESSION_NUMBERS>  (1) 
APRD00182

>  <COMMON_NAME>  (1) 
Isoprenaline

>  <CAS_NUMBER>  (1) 
7683-59-2

>  <UNII>  (1) 
L628TT009W

>  <SYNONYMS>  (1) 
(±)-isoprenaline; (±)-isoproterenol; 1-(3,4-dihydroxyphenyl)-2-(isopropylamino)ethanol; 1-(3,4-dihydroxyphenyl)-2-isopropylaminoethanol; 3,4-dihydroxy-α-[(isopropylamino)methyl]benzyl alcohol; Isoprenalina; Isoprénaline; Isoprenaline; Isoprenalinum; Isopropyl noradrenaline; Isoproterenol; N-isopropyl-β-dihydroxyphenyl-β-hydroxyethylamine; N-Isopropylnoradrenaline; N-Isopropylnorepinephrine; α-(isopropylaminomethyl)protocatechuyl alcohol

$$$$
