
     RDKit          2D

 20 19  0  0  0  0  0  0  0  0999 V2000
    0.5001   -1.2788    0.0000 C   0  0  0  0  0  0  0  0  0  0  0  0
    1.2146   -0.8663    0.0000 C   0  0  0  0  0  0  0  0  0  0  0  0
   -0.2143   -0.8663    0.0000 C   0  0  0  0  0  0  0  0  0  0  0  0
    1.2146   -0.0413    0.0000 C   0  0  0  0  0  0  0  0  0  0  0  0
   -0.2143   -0.0413    0.0000 C   0  0  0  0  0  0  0  0  0  0  0  0
    0.5001    0.3712    0.0000 C   0  0  0  0  0  0  0  0  0  0  0  0
   -0.9288    0.3713    0.0000 C   0  0  0  0  0  0  0  0  0  0  0  0
    0.5001    1.1962    0.0000 O   0  0  0  0  0  0  0  0  0  0  0  0
   -1.6433   -0.0412    0.0000 O   0  0  0  0  0  0  0  0  0  0  0  0
   -0.9288    1.1963    0.0000 O   0  0  0  0  0  0  0  0  0  0  0  0
    4.5293   -1.0725    0.0000 C   0  0  0  0  0  0  0  0  0  0  0  0
    3.8148    0.1650    0.0000 C   0  0  0  0  0  0  0  0  0  0  0  0
    5.2437    0.1650    0.0000 C   0  0  0  0  0  0  0  0  0  0  0  0
    5.2437   -1.4850    0.0000 C   0  0  0  0  0  0  0  0  0  0  0  0
    3.8148    0.9900    0.0000 C   0  0  0  0  0  0  0  0  0  0  0  0
    5.2437    0.9900    0.0000 C   0  0  0  0  0  0  0  0  0  0  0  0
    4.5293   -0.2475    0.0000 N   0  0  0  0  0  0  0  0  0  0  0  0
    5.2437   -2.3100    0.0000 O   0  0  0  0  0  0  0  0  0  0  0  0
    3.1003    1.4025    0.0000 O   0  0  0  0  0  0  0  0  0  0  0  0
    5.9582    1.4025    0.0000 O   0  0  0  0  0  0  0  0  0  0  0  0
  2  1  2  0
  3  1  1  0
  4  2  1  0
  5  3  2  0
  6  4  2  0
  6  5  1  0
  7  5  1  0
  8  6  1  0
  9  7  2  0
 10  7  1  0
 14 11  1  0
 15 12  1  0
 16 13  1  0
 17 11  1  0
 17 12  1  0
 17 13  1  0
 18 14  1  0
 19 15  1  0
 20 16  1  0
M  END
>  <DRUGBANK_ID>  (1) 
DB11079

>  <COMMON_NAME>  (1) 
Trolamine salicylate

>  <CAS_NUMBER>  (1) 
2174-16-5

>  <UNII>  (1) 
H8O4040BHD

>  <SYNONYMS>  (1) 
Trolamine salicylate

$$$$
