
     RDKit          2D

 31 35  0  0  0  0  0  0  0  0999 V2000
   -0.8603   -0.6670    0.0000 S   0  0  0  0  0  0  0  0  0  0  0  0
   -3.7183    0.9830    0.0000 O   0  0  0  0  0  0  0  0  0  0  0  0
    1.1711    1.1049    0.0000 O   0  0  0  0  0  0  0  0  0  0  0  0
   -0.4478    0.0474    0.0000 O   0  0  0  0  0  0  0  0  0  0  0  0
   -1.2728   -1.3814    0.0000 O   0  0  0  0  0  0  0  0  0  0  0  0
    3.3702   -1.4920    0.0000 O   0  0  0  0  0  0  0  0  0  0  0  0
   -1.5748   -0.2545    0.0000 N   0  0  0  0  0  0  0  0  0  0  0  0
    3.1007    0.2074    0.0000 N   0  0  0  0  0  0  0  0  0  0  0  0
    2.0637   -2.1559    0.0000 N   0  0  0  0  0  0  0  0  0  0  0  0
   -3.0037    0.5705    0.0000 C   0  0  0  0  0  0  0  0  0  0  0  0
   -2.2893   -0.6670    0.0000 C   0  0  0  0  0  0  0  0  0  0  0  0
   -1.5748    0.5705    0.0000 C   0  0  0  0  0  0  0  0  0  0  0  0
   -3.0037   -0.2545    0.0000 C   0  0  0  0  0  0  0  0  0  0  0  0
   -2.2893    0.9830    0.0000 C   0  0  0  0  0  0  0  0  0  0  0  0
    1.8385    0.6200    0.0000 C   0  0  0  0  0  0  0  0  0  0  0  0
    2.3200   -0.0439    0.0000 C   0  0  0  0  0  0  0  0  0  0  0  0
    2.0637   -0.8281    0.0000 C   0  0  0  0  0  0  0  0  0  0  0  0
   -0.1458   -1.0795    0.0000 C   0  0  0  0  0  0  0  0  0  0  0  0
    2.3200    1.2838    0.0000 C   0  0  0  0  0  0  0  0  0  0  0  0
    1.2831   -1.0795    0.0000 C   0  0  0  0  0  0  0  0  0  0  0  0
    3.1042    1.0275    0.0000 C   0  0  0  0  0  0  0  0  0  0  0  0
    0.5686   -0.6670    0.0000 C   0  0  0  0  0  0  0  0  0  0  0  0
    1.2831   -1.9045    0.0000 C   0  0  0  0  0  0  0  0  0  0  0  0
    1.1711    0.1350    0.0000 C   0  0  0  0  0  0  0  0  0  0  0  0
    2.5452   -1.4920    0.0000 C   0  0  0  0  0  0  0  0  0  0  0  0
   -0.1458   -1.9045    0.0000 C   0  0  0  0  0  0  0  0  0  0  0  0
    0.5686   -2.3170    0.0000 C   0  0  0  0  0  0  0  0  0  0  0  0
    2.1499    2.0911    0.0000 C   0  0  0  0  0  0  0  0  0  0  0  0
    3.7183    1.5785    0.0000 C   0  0  0  0  0  0  0  0  0  0  0  0
    2.7640    2.6422    0.0000 C   0  0  0  0  0  0  0  0  0  0  0  0
    3.5481    2.3858    0.0000 C   0  0  0  0  0  0  0  0  0  0  0  0
  1  4  2  0
  1  5  2  0
  1  7  1  0
  1 18  1  0
  6 25  2  0
  7 11  1  0
  7 12  1  0
  8 16  1  0
  8 21  1  0
  9 23  1  0
  9 25  1  0
 10  2  1  0
 10 13  1  0
 10 14  1  0
 11 13  1  0
 12 14  1  0
 15  3  1  0
 15 16  1  0
 15 19  1  0
 15 24  1  6
 16 17  2  0
 17 20  1  0
 17 25  1  0
 18 22  2  0
 18 26  1  0
 19 21  2  0
 19 28  1  0
 20 22  1  0
 20 23  2  0
 21 29  1  0
 23 27  1  0
 26 27  2  0
 28 30  2  0
 29 31  2  0
 30 31  1  0
M  END
>  <DRUGBANK_ID>  (1) 
DB03583

>  <SECONDARY_ACCESSION_NUMBERS>  (1) 
EXPT02828

>  <COMMON_NAME>  (1) 
(2E,3S)-3-hydroxy-5'-[(4-hydroxypiperidin-1-yl)sulfonyl]-3-methyl-1,3-dihydro-2,3'-biindol-2'(1'H)-one

$$$$
