C8E
     RDKit          2D

 21 20  0  0  0  0  0  0  0  0999 V2000
   -6.6883    0.2205    0.0000 C   0  0  0  0  0  0  0  0  0  0  0  0
   -5.9738   -0.1920    0.0000 C   0  0  0  0  0  0  0  0  0  0  0  0
   -5.2593    0.2205    0.0000 C   0  0  0  0  0  0  0  0  0  0  0  0
   -4.5447   -0.1920    0.0000 C   0  0  0  0  0  0  0  0  0  0  0  0
   -3.8303    0.2205    0.0000 C   0  0  0  0  0  0  0  0  0  0  0  0
   -3.1157   -0.1920    0.0000 C   0  0  0  0  0  0  0  0  0  0  0  0
   -2.4012    0.2205    0.0000 C   0  0  0  0  0  0  0  0  0  0  0  0
   -1.6866   -0.1920    0.0000 C   0  0  0  0  0  0  0  0  0  0  0  0
   -0.9722    0.2205    0.0000 O   0  0  0  0  0  0  0  0  0  0  0  0
   -0.2576   -0.1920    0.0000 C   0  0  0  0  0  0  0  0  0  0  0  0
    0.4569    0.2205    0.0000 C   0  0  0  0  0  0  0  0  0  0  0  0
    1.1714   -0.1920    0.0000 O   0  0  0  0  0  0  0  0  0  0  0  0
    1.8859    0.2205    0.0000 C   0  0  0  0  0  0  0  0  0  0  0  0
    2.6005   -0.1920    0.0000 C   0  0  0  0  0  0  0  0  0  0  0  0
    3.3149    0.2205    0.0000 O   0  0  0  0  0  0  0  0  0  0  0  0
    4.0295   -0.1920    0.0000 C   0  0  0  0  0  0  0  0  0  0  0  0
    4.7441    0.2205    0.0000 C   0  0  0  0  0  0  0  0  0  0  0  0
    5.4586   -0.1920    0.0000 O   0  0  0  0  0  0  0  0  0  0  0  0
    6.1731    0.2205    0.0000 C   0  0  0  0  0  0  0  0  0  0  0  0
    6.8876   -0.1920    0.0000 C   0  0  0  0  0  0  0  0  0  0  0  0
    7.6022    0.2205    0.0000 O   0  0  0  0  0  0  0  0  0  0  0  0
  1  2  1  0
  2  3  1  0
  3  4  1  0
  4  5  1  0
  5  6  1  0
  6  7  1  0
  7  8  1  0
  8  9  1  0
  9 10  1  0
 10 11  1  0
 11 12  1  0
 12 13  1  0
 13 14  1  0
 14 15  1  0
 15 16  1  0
 16 17  1  0
 17 18  1  0
 18 19  1  0
 19 20  1  0
 20 21  1  0
M  END
>  <DRUGBANK_ID>  (1) 
DB04233

>  <SECONDARY_ACCESSION_NUMBERS>  (1) 
EXPT00817

>  <COMMON_NAME>  (1) 
(Hydroxyethyloxy)Tri(Ethyloxy)Octane

$$$$
