
     RDKit          2D

 11 11  0  0  0  0  0  0  0  0999 V2000
    1.0717   -1.2375    0.0000 C   0  0  0  0  0  0  0  0  0  0  0  0
   -0.3572   -1.2375    0.0000 C   0  0  0  0  0  0  0  0  0  0  0  0
    1.0717   -0.4125    0.0000 C   0  0  0  0  0  0  0  0  0  0  0  0
   -0.3572   -0.4125    0.0000 C   0  0  0  0  0  0  0  0  0  0  0  0
   -0.3572    2.0625    0.0000 C   0  0  0  0  0  0  0  0  0  0  0  0
   -0.3572    1.2375    0.0000 C   0  0  0  0  0  0  0  0  0  0  0  0
    0.3572   -1.6500    0.0000 C   0  0  0  0  0  0  0  0  0  0  0  0
    0.3572    0.0000    0.0000 C   0  0  0  0  0  0  0  0  0  0  0  0
    0.3572   -2.4750    0.0000 Cl  0  0  0  0  0  0  0  0  0  0  0  0
   -1.0717    2.4750    0.0000 O   0  0  0  0  0  0  0  0  0  0  0  0
    0.3572    0.8250    0.0000 O   0  0  0  0  0  0  0  0  0  0  0  0
  3  1  2  0
  4  2  1  0
  6  5  1  0
  7  1  1  0
  7  2  2  0
  8  3  1  0
  8  4  2  0
  9  7  1  0
 10  5  1  0
 11  6  1  0
 11  8  1  0
M  END
>  <DRUGBANK_ID>  (1) 
DB11368

>  <COMMON_NAME>  (1) 
Chlorophetanol

>  <CAS_NUMBER>  (1) 
1892-43-9

>  <UNII>  (1) 
Q73I5T98DA

>  <SYNONYMS>  (1) 
2-(4-Chlorophenoxy)ethanol; 2-(4-chlorphenoxy)-ethanol; 2-(p-Chlorophenoxy)ethanol; p-Chlorophenyl glycol ether; p-Chlorophenyl monoglycol ether

$$$$
