
     RDKit          2D

  5  4  0  0  0  0  0  0  0  0999 V2000
    0.2062   -0.3572    0.0000 C   0  0  0  0  0  0  0  0  0  0  0  0
    0.2062    1.0718    0.0000 O   0  0  0  0  0  0  0  0  0  0  0  0
    0.6188   -1.0718    0.0000 O   0  0  0  0  0  0  0  0  0  0  0  0
    0.6188    0.3572    0.0000 O   0  0  0  0  0  0  0  0  0  0  0  0
   -0.6188   -0.3572    0.0000 C   0  0  0  0  0  0  0  0  0  0  0  0
  1  3  2  0
  1  4  1  0
  1  5  1  0
  2  4  1  0
M  END
>  <DRUGBANK_ID>  (1) 
DB14556

>  <COMMON_NAME>  (1) 
Peracetic acid

>  <CAS_NUMBER>  (1) 
79-21-0

>  <UNII>  (1) 
I6KPI2E1HD

>  <SYNONYMS>  (1) 
Acide peracetique; Acido peroxiacetico; Ethaneperoxic acid; Ethaneperoxoic acid; PAA; Peroxoacetic acid; Peroxyacetic acid

$$$$
