
     RDKit          2D

 26 27  0  0  0  0  0  0  0  0999 V2000
    2.4913   -0.7723    0.0000 O   0  0  0  0  0  0  0  0  0  0  0  0
    3.9231    0.0542    0.0000 O   0  0  0  0  0  0  0  0  0  0  0  0
    1.0616    2.3617    0.0000 O   0  0  0  0  0  0  0  0  0  0  0  0
   -3.2199    0.0388    0.0000 O   0  0  0  0  0  0  0  0  0  0  0  0
    0.3486    1.2880    0.0000 N   0  0  0  0  0  0  0  0  0  0  0  0
   -3.9245   -2.0285    0.0000 N   0  0  0  0  0  0  0  0  0  0  0  0
    1.7785    1.2905    0.0000 C   0  0  0  0  0  0  0  0  0  0  0  0
    2.4930    0.0530    0.0000 C   0  0  0  0  0  0  0  0  0  0  0  0
    3.2074    0.4654    0.0000 C   0  0  0  0  0  0  0  0  0  0  0  0
    1.7785    0.4654    0.0000 C   0  0  0  0  0  0  0  0  0  0  0  0
    1.0628    1.7017    0.0000 C   0  0  0  0  0  0  0  0  0  0  0  0
    2.4930    1.7030    0.0000 C   0  0  0  0  0  0  0  0  0  0  0  0
    3.2074    1.2905    0.0000 C   0  0  0  0  0  0  0  0  0  0  0  0
   -1.0814    1.2855    0.0000 C   0  0  0  0  0  0  0  0  0  0  0  0
   -0.3671    1.6992    0.0000 C   0  0  0  0  0  0  0  0  0  0  0  0
   -2.5074    0.4555    0.0000 C   0  0  0  0  0  0  0  0  0  0  0  0
   -1.7972    1.6955    0.0000 C   0  0  0  0  0  0  0  0  0  0  0  0
   -1.0786    0.4604    0.0000 C   0  0  0  0  0  0  0  0  0  0  0  0
   -2.5102    1.2806    0.0000 C   0  0  0  0  0  0  0  0  0  0  0  0
   -1.7915    0.0455    0.0000 C   0  0  0  0  0  0  0  0  0  0  0  0
    1.9192   -1.1016    0.0000 C   0  0  0  0  0  0  0  0  0  0  0  0
    4.4942    0.3850    0.0000 C   0  0  0  0  0  0  0  0  0  0  0  0
   -3.2159   -0.7865    0.0000 C   0  0  0  0  0  0  0  0  0  0  0  0
   -3.9285   -1.2031    0.0000 C   0  0  0  0  0  0  0  0  0  0  0  0
   -4.4942   -2.3617    0.0000 C   0  0  0  0  0  0  0  0  0  0  0  0
   -3.3511   -2.3556    0.0000 C   0  0  0  0  0  0  0  0  0  0  0  0
  1  8  1  0
  1 21  1  0
  2  9  1  0
  2 22  1  0
  3 11  2  0
  4 16  1  0
  4 23  1  0
  5 11  1  0
  5 15  1  0
  6 24  1  0
  6 25  1  0
  6 26  1  0
  7 10  2  0
  7 11  1  0
  7 12  1  0
  8  9  2  0
  8 10  1  0
  9 13  1  0
 12 13  2  0
 14 15  1  0
 14 17  2  0
 14 18  1  0
 16 19  2  0
 16 20  1  0
 17 19  1  0
 18 20  2  0
 23 24  1  0
M  END
>  <DRUGBANK_ID>  (1) 
DB04924

>  <COMMON_NAME>  (1) 
Itopride

>  <CAS_NUMBER>  (1) 
122898-67-3

>  <UNII>  (1) 
81BMQ80QRL

>  <SYNONYMS>  (1) 
Itopride; N-(p-(2-(Dimethylamino)ethoxy)benzyl)veratramide

$$$$
