11N
     RDKit          2D

 26 29  0  0  0  0  0  0  0  0999 V2000
   -1.2543    0.5848    0.0000 C   0  0  0  0  0  0  0  0  0  0  0  0
   -2.0677    0.4469    0.0000 C   0  0  0  0  0  0  0  0  0  0  0  0
   -2.5938    1.0824    0.0000 C   0  0  0  0  0  0  0  0  0  0  0  0
   -0.2000    1.6621    0.0000 C   0  0  0  0  0  0  0  0  0  0  0  0
   -0.2521    2.4855    0.0000 C   0  0  0  0  0  0  0  0  0  0  0  0
    0.5310    2.0446    0.0000 C   0  0  0  0  0  0  0  0  0  0  0  0
    0.4624    0.3960    0.0000 C   0  0  0  0  0  0  0  0  0  0  0  0
   -2.3550   -0.3264    0.0000 C   0  0  0  0  0  0  0  0  0  0  0  0
    1.8901    0.3366    0.0000 C   0  0  0  0  0  0  0  0  0  0  0  0
    1.1249   -0.8701    0.0000 C   0  0  0  0  0  0  0  0  0  0  0  0
    0.3596   -2.0769    0.0000 C   0  0  0  0  0  0  0  0  0  0  0  0
    1.0221   -3.3430    0.0000 C   0  0  0  0  0  0  0  0  0  0  0  0
    1.7873   -2.1362    0.0000 C   0  0  0  0  0  0  0  0  0  0  0  0
   -2.3065    1.8558    0.0000 C   0  0  0  0  0  0  0  0  0  0  0  0
   -1.4931    1.9936    0.0000 C   0  0  0  0  0  0  0  0  0  0  0  0
   -0.9670    1.3581    0.0000 C   0  0  0  0  0  0  0  0  0  0  0  0
   -1.0513    2.6904    0.0000 O   0  0  0  0  0  0  0  0  0  0  0  0
    1.2277    1.6027    0.0000 C   0  0  0  0  0  0  0  0  0  0  0  0
    1.1934    0.7785    0.0000 N   0  0  0  0  0  0  0  0  0  0  0  0
   -0.2343    0.8378    0.0000 C   0  0  0  0  0  0  0  0  0  0  0  0
   -1.8289   -0.9619    0.0000 N   0  0  0  0  0  0  0  0  0  0  0  0
    2.6211    0.7191    0.0000 O   0  0  0  0  0  0  0  0  0  0  0  0
    1.8559   -0.4877    0.0000 C   0  0  0  0  0  0  0  0  0  0  0  0
    1.0906   -1.6944    0.0000 C   0  0  0  0  0  0  0  0  0  0  0  0
    0.3253   -2.9012    0.0000 C   0  0  0  0  0  0  0  0  0  0  0  0
    1.7531   -2.9605    0.0000 C   0  0  0  0  0  0  0  0  0  0  0  0
  1  2  2  0
  1 16  1  0
  2  3  1  0
  2  8  1  0
  3 14  2  0
  4  5  1  0
  4  6  1  0
  4 16  1  0
  4 20  1  0
  5 17  1  0
  6 18  1  0
  7 19  1  0
  7 20  1  0
  8 21  1  0
  9 19  1  0
  9 22  2  0
  9 23  1  0
 10 23  2  0
 10 24  1  0
 11 24  2  0
 11 25  1  0
 12 25  2  0
 12 26  1  0
 13 24  1  0
 13 26  2  0
 14 15  1  0
 15 16  2  0
 15 17  1  0
 18 19  1  0
M  END
>  <DRUGBANK_ID>  (1) 
DB06849

>  <COMMON_NAME>  (1) 
1-[1'-(3-phenylacryloyl)spiro[1-benzofuran-3,4'-piperidin]-5-yl]methanamine

$$$$
