
     RDKit          2D

 21 22  0  0  0  0  0  0  0  0999 V2000
   -0.9055   -3.3152    0.0000 Br  0  0  0  0  0  0  0  0  0  0  0  0
    2.0629    1.2222    0.0000 Cl  0  0  0  0  0  0  0  0  0  0  0  0
    1.7609    2.3492    0.0000 Cl  0  0  0  0  0  0  0  0  0  0  0  0
    0.5234    2.4597    0.0000 S   0  0  0  0  0  0  0  0  0  0  0  0
   -0.9055    1.6347    0.0000 O   0  0  0  0  0  0  0  0  0  0  0  0
    0.9359    3.1742    0.0000 O   0  0  0  0  0  0  0  0  0  0  0  0
   -0.1910    0.3972    0.0000 N   0  0  0  0  0  0  0  0  0  0  0  0
    0.5234    1.6347    0.0000 C   0  0  0  0  0  0  0  0  0  0  0  0
    0.9359    0.9203    0.0000 C   0  0  0  0  0  0  0  0  0  0  0  0
    1.3484    1.6347    0.0000 C   0  0  0  0  0  0  0  0  0  0  0  0
    0.9359    0.0953    0.0000 C   0  0  0  0  0  0  0  0  0  0  0  0
   -0.1910    1.2222    0.0000 C   0  0  0  0  0  0  0  0  0  0  0  0
   -0.1910    2.8722    0.0000 C   0  0  0  0  0  0  0  0  0  0  0  0
   -0.9055   -0.0152    0.0000 C   0  0  0  0  0  0  0  0  0  0  0  0
   -0.9055   -0.8402    0.0000 C   0  0  0  0  0  0  0  0  0  0  0  0
   -1.6199    0.3972    0.0000 C   0  0  0  0  0  0  0  0  0  0  0  0
   -0.1910   -1.2527    0.0000 C   0  0  0  0  0  0  0  0  0  0  0  0
   -1.6199   -1.2527    0.0000 C   0  0  0  0  0  0  0  0  0  0  0  0
   -0.1910   -2.0777    0.0000 C   0  0  0  0  0  0  0  0  0  0  0  0
   -1.6199   -2.0777    0.0000 C   0  0  0  0  0  0  0  0  0  0  0  0
   -0.9055   -2.4902    0.0000 C   0  0  0  0  0  0  0  0  0  0  0  0
  1 21  1  0
  2 10  1  0
  3 10  1  0
  4  6  2  0
  4  8  1  0
  4 13  1  0
  5 12  2  0
  7 12  1  0
  8  9  1  0
  8 10  1  0
  8 12  1  1
  9 10  1  0
  9 11  1  6
 14  7  1  0
 14 15  1  0
 14 16  1  0
 15 17  2  0
 15 18  1  0
 17 19  1  0
 18 20  2  0
 19 21  2  0
 20 21  1  0
M  END
>  <DRUGBANK_ID>  (1) 
DB04458

>  <SECONDARY_ACCESSION_NUMBERS>  (1) 
EXPT02234

>  <COMMON_NAME>  (1) 
2,2-Dichloro-1-methanesulfinyl-3-methyl-cyclopropanecarboxylic acid [1-(4-bromo-phenyl)-ethyl]-amide

$$$$
