
     RDKit          2D

 17 19  0  0  0  0  0  0  0  0999 V2000
   -1.6500    1.4289    0.0000 C   0  0  0  0  0  0  0  0  0  0  0  0
   -0.8250    1.4289    0.0000 C   0  0  0  0  0  0  0  0  0  0  0  0
   -0.4125    0.7144    0.0000 C   0  0  0  0  0  0  0  0  0  0  0  0
    0.4125    0.7144    0.0000 C   0  0  0  0  0  0  0  0  0  0  0  0
    0.8250    1.4289    0.0000 C   0  0  0  0  0  0  0  0  0  0  0  0
    1.6500    1.4289    0.0000 C   0  0  0  0  0  0  0  0  0  0  0  0
    2.0625    0.7144    0.0000 C   0  0  0  0  0  0  0  0  0  0  0  0
    1.6500    0.0000    0.0000 C   0  0  0  0  0  0  0  0  0  0  0  0
    0.8250    0.0000    0.0000 C   0  0  0  0  0  0  0  0  0  0  0  0
    0.4125   -0.7144    0.0000 O   0  0  0  0  0  0  0  0  0  0  0  0
   -0.4125   -0.7144    0.0000 C   0  0  0  0  0  0  0  0  0  0  0  0
   -0.8250   -1.4289    0.0000 O   0  0  0  0  0  0  0  0  0  0  0  0
   -0.8250    0.0000    0.0000 C   0  0  0  0  0  0  0  0  0  0  0  0
   -1.6500    0.0000    0.0000 C   0  0  0  0  0  0  0  0  0  0  0  0
   -2.0625    0.7144    0.0000 C   0  0  0  0  0  0  0  0  0  0  0  0
   -2.8875    0.7144    0.0000 O   0  0  0  0  0  0  0  0  0  0  0  0
    2.8875    0.7144    0.0000 O   0  0  0  0  0  0  0  0  0  0  0  0
  1  2  2  0
  1 15  1  0
  2  3  1  0
  3  4  1  0
  3 13  2  0
  4  5  2  0
  4  9  1  0
  5  6  1  0
  6  7  2  0
  7  8  1  0
  7 17  1  0
  8  9  2  0
  9 10  1  0
 10 11  1  0
 11 12  2  0
 11 13  1  0
 13 14  1  0
 14 15  2  0
 15 16  1  0
M  END
>  <DRUGBANK_ID>  (1) 
DB15464

>  <COMMON_NAME>  (1) 
Urolithin A

>  <CAS_NUMBER>  (1) 
1143-70-0

>  <UNII>  (1) 
ILJ8NEF6DT

>  <SYNONYMS>  (1) 
3,8-Dihydroxyurolithin; 3,8-Hydroxydibenzo-alpha-pyrone

$$$$
