
     RDKit          2D

 12 12  0  0  0  0  0  0  0  0999 V2000
    0.7145    0.4125    0.0000 C   0  0  0  0  0  0  0  0  0  0  0  0
    0.7145   -0.4125    0.0000 C   0  0  0  0  0  0  0  0  0  0  0  0
    0.0000   -0.8251    0.0000 C   0  0  0  0  0  0  0  0  0  0  0  0
   -0.7145   -0.4125    0.0000 C   0  0  0  0  0  0  0  0  0  0  0  0
   -0.7145    0.4125    0.0000 C   0  0  0  0  0  0  0  0  0  0  0  0
    0.0000    0.8251    0.0000 C   0  0  0  0  0  0  0  0  0  0  0  0
    1.4290    0.8251    0.0000 O   0  0  0  0  0  0  0  0  0  0  0  0
    1.4290   -0.8251    0.0000 O   0  0  0  0  0  0  0  0  0  0  0  0
    0.0000   -1.6501    0.0000 O   0  0  0  0  0  0  0  0  0  0  0  0
   -1.4290   -0.8251    0.0000 O   0  0  0  0  0  0  0  0  0  0  0  0
   -1.4290    0.8251    0.0000 O   0  0  0  0  0  0  0  0  0  0  0  0
    0.0000    1.6501    0.0000 O   0  0  0  0  0  0  0  0  0  0  0  0
  1  2  1  0
  1  6  1  0
  1  7  1  6
  2  3  1  0
  2  8  1  6
  3  4  1  0
  3  9  1  6
  4  5  1  0
  4 10  1  1
  5  6  1  0
  5 11  1  6
  6 12  1  1
M  END
>  <DRUGBANK_ID>  (1) 
DB13178

>  <SECONDARY_ACCESSION_NUMBERS>  (1) 
DB11196

>  <COMMON_NAME>  (1) 
Inositol

>  <CAS_NUMBER>  (1) 
87-89-8

>  <UNII>  (1) 
4L6452S749

>  <SYNONYMS>  (1) 
1,2,3,5/4,6-cyclohexanehexol; cis-1,2,3,5-trans-4,6-cyclohexanehexol; Inositol; L-myo-Inositol; Meat sugar; meso-Inositol; myo-inositol

$$$$
