
     RDKit          2D

 40 41  0  0  0  0  0  0  0  0999 V2000
   -0.3572   -0.8250    0.0000 F   0  0  0  0  0  0  0  0  0  0  0  0
   -0.3572    0.8250    0.0000 O   0  0  0  0  0  0  0  0  0  0  0  0
   -1.0717    0.4125    0.0000 O   0  0  0  0  0  0  0  0  0  0  0  0
    1.7862    0.4125    0.0000 O   0  0  0  0  0  0  0  0  0  0  0  0
   -1.7862   -1.6500    0.0000 O   0  0  0  0  0  0  0  0  0  0  0  0
    0.3572    0.4125    0.0000 O   0  0  0  0  0  0  0  0  0  0  0  0
   -3.2152   -4.1250    0.0000 O   0  0  0  0  0  0  0  0  0  0  0  0
   -1.0717    2.0625    0.0000 N   0  0  0  0  0  0  0  0  0  0  0  0
   -2.5006    0.4125    0.0000 N   0  0  0  0  0  0  0  0  0  0  0  0
    1.0717    1.6500    0.0000 N   0  0  0  0  0  0  0  0  0  0  0  0
   -1.7862    1.6500    0.0000 C   0  0  0  0  0  0  0  0  0  0  0  0
   -2.5006    2.0625    0.0000 C   0  0  0  0  0  0  0  0  0  0  0  0
   -2.5006    2.8875    0.0000 C   0  0  0  0  0  0  0  0  0  0  0  0
    0.3572    2.0625    0.0000 C   0  0  0  0  0  0  0  0  0  0  0  0
    0.3572    2.8875    0.0000 C   0  0  0  0  0  0  0  0  0  0  0  0
    1.0717    3.3000    0.0000 C   0  0  0  0  0  0  0  0  0  0  0  0
   -0.3572    1.6500    0.0000 C   0  0  0  0  0  0  0  0  0  0  0  0
   -1.7862    0.8250    0.0000 C   0  0  0  0  0  0  0  0  0  0  0  0
   -1.7862    3.3000    0.0000 C   0  0  0  0  0  0  0  0  0  0  0  0
   -3.2152    3.3000    0.0000 C   0  0  0  0  0  0  0  0  0  0  0  0
   -2.5006   -0.4125    0.0000 C   0  0  0  0  0  0  0  0  0  0  0  0
    1.7862    2.8875    0.0000 C   0  0  0  0  0  0  0  0  0  0  0  0
    1.0717    4.1250    0.0000 C   0  0  0  0  0  0  0  0  0  0  0  0
   -3.2152   -0.8250    0.0000 C   0  0  0  0  0  0  0  0  0  0  0  0
   -1.7862   -0.8250    0.0000 C   0  0  0  0  0  0  0  0  0  0  0  0
   -3.2152   -1.6500    0.0000 C   0  0  0  0  0  0  0  0  0  0  0  0
    1.0717    0.8250    0.0000 C   0  0  0  0  0  0  0  0  0  0  0  0
   -1.0717   -0.4125    0.0000 C   0  0  0  0  0  0  0  0  0  0  0  0
   -2.5006   -2.0625    0.0000 C   0  0  0  0  0  0  0  0  0  0  0  0
   -3.9296   -2.0625    0.0000 C   0  0  0  0  0  0  0  0  0  0  0  0
   -2.5006   -2.8875    0.0000 C   0  0  0  0  0  0  0  0  0  0  0  0
   -3.9296   -2.8875    0.0000 C   0  0  0  0  0  0  0  0  0  0  0  0
   -3.2152   -3.3000    0.0000 C   0  0  0  0  0  0  0  0  0  0  0  0
    1.7862   -0.4125    0.0000 C   0  0  0  0  0  0  0  0  0  0  0  0
    2.5006   -0.8250    0.0000 C   0  0  0  0  0  0  0  0  0  0  0  0
    3.2152   -0.4125    0.0000 C   0  0  0  0  0  0  0  0  0  0  0  0
    2.5006   -1.6500    0.0000 C   0  0  0  0  0  0  0  0  0  0  0  0
    3.9296   -0.8250    0.0000 C   0  0  0  0  0  0  0  0  0  0  0  0
    3.2152   -2.0625    0.0000 C   0  0  0  0  0  0  0  0  0  0  0  0
    3.9296   -1.6500    0.0000 C   0  0  0  0  0  0  0  0  0  0  0  0
  1 28  1  0
  2 17  2  0
  3 18  2  0
  4 27  1  0
  4 34  1  0
  5 25  2  0
  6 27  2  0
  7 33  1  0
  8 17  1  0
  9 18  1  0
 10 27  1  0
 11  8  1  0
 11 12  1  6
 11 18  1  0
 12 13  1  0
 13 19  1  0
 13 20  1  0
 14 10  1  0
 14 15  1  6
 14 17  1  0
 15 16  1  0
 16 22  1  0
 16 23  1  0
 21  9  1  0
 21 24  1  6
 21 25  1  0
 24 26  1  0
 25 28  1  0
 26 29  2  0
 26 30  1  0
 29 31  1  0
 30 32  2  0
 31 33  2  0
 32 33  1  0
 34 35  1  0
 35 36  2  0
 35 37  1  0
 36 38  1  0
 37 39  2  0
 38 40  2  0
 39 40  1  0
M  END
>  <DRUGBANK_ID>  (1) 
DB04653

>  <COMMON_NAME>  (1) 
N-[(benzyloxy)carbonyl]-L-leucyl-N-[(1S)-3-fluoro-1-(4-hydroxybenzyl)-2-oxopropyl]-L-leucinamide

>  <CAS_NUMBER>  (1) 
133410-84-1

>  <UNII>  (1) 
55GY047QB0

>  <SYNONYMS>  (1) 
Calpain inhibitor IV; CBZ-LEU-LEU-TYR-CH2F; N-[(benzyloxy)carbonyl]leucyl-N(1)-[3-fluoro-1-(4-hydroxybenzyl)-2-oxopropyl]leucinamide

$$$$
