
     RDKit          2D

 23 24  0  0  0  0  0  0  0  0999 V2000
    0.3256   -1.5742    0.0000 O   0  0  0  0  0  0  0  0  0  0  0  0
   -0.1593   -0.9068    0.0000 C   0  0  0  0  0  0  0  0  0  0  0  0
    0.0956   -0.1221    0.0000 C   0  0  0  0  0  0  0  0  0  0  0  0
   -0.5718    0.3628    0.0000 C   0  0  0  0  0  0  0  0  0  0  0  0
   -1.2392   -0.1221    0.0000 O   0  0  0  0  0  0  0  0  0  0  0  0
   -0.9843   -0.9068    0.0000 C   0  0  0  0  0  0  0  0  0  0  0  0
   -1.4692   -1.5742    0.0000 C   0  0  0  0  0  0  0  0  0  0  0  0
   -1.1336   -2.3278    0.0000 O   0  0  0  0  0  0  0  0  0  0  0  0
   -1.6186   -2.9953    0.0000 P   0  0  0  0  0  0  0  0  0  0  0  0
   -2.1035   -3.6628    0.0000 O   0  0  0  0  0  0  0  0  0  0  0  0
   -0.9511   -3.4803    0.0000 O   0  0  0  0  0  0  0  0  0  0  0  0
   -2.2860   -2.5103    0.0000 O   0  0  0  0  0  0  0  0  0  0  0  0
   -0.5718    1.1878    0.0000 N   0  0  0  0  0  0  0  0  0  0  0  0
    0.1426    1.6003    0.0000 C   0  0  0  0  0  0  0  0  0  0  0  0
    0.1426    2.4253    0.0000 C   0  0  0  0  0  0  0  0  0  0  0  0
    0.8571    2.8378    0.0000 C   0  0  0  0  0  0  0  0  0  0  0  0
    1.5715    2.4253    0.0000 C   0  0  0  0  0  0  0  0  0  0  0  0
    2.2860    2.8378    0.0000 Br  0  0  0  0  0  0  0  0  0  0  0  0
   -0.5718    2.8378    0.0000 C   0  0  0  0  0  0  0  0  0  0  0  0
   -0.5718    3.6628    0.0000 O   0  0  0  0  0  0  0  0  0  0  0  0
   -1.2862    2.4253    0.0000 N   0  0  0  0  0  0  0  0  0  0  0  0
   -1.2862    1.6003    0.0000 C   0  0  0  0  0  0  0  0  0  0  0  0
   -2.0007    1.1878    0.0000 O   0  0  0  0  0  0  0  0  0  0  0  0
  2  1  1  6
  2  6  1  0
  3  2  1  0
  4  3  1  0
  4  5  1  0
  4 13  1  1
  6  5  1  0
  6  7  1  1
  7  8  1  0
  8  9  1  0
 10  9  2  0
 11  9  1  0
 12  9  1  0
 14 13  1  0
 15 14  2  0
 15 16  1  0
 16 17  2  0
 18 17  1  0
 19 15  1  0
 19 20  2  0
 19 21  1  0
 22 13  1  0
 22 21  1  0
 22 23  2  0
M  END
>  <DRUGBANK_ID>  (1) 
DB04438

>  <SECONDARY_ACCESSION_NUMBERS>  (1) 
EXPT00784

>  <COMMON_NAME>  (1) 
Brivudine monophosphate

>  <CAS_NUMBER>  (1) 
80860-82-8

>  <UNII>  (1) 
O7N0Y11U8K

>  <SYNONYMS>  (1) 
Bvdu 5'-monophosphate; BVDU-MP

$$$$
