
     RDKit          2D

 16 17  0  0  0  0  0  0  0  0999 V2000
   -0.3572    0.2062    0.0000 C   0  0  0  0  0  0  0  0  0  0  0  0
    0.3572   -0.2062    0.0000 C   0  0  0  0  0  0  0  0  0  0  0  0
   -0.3572    1.0312    0.0000 O   0  0  0  0  0  0  0  0  0  0  0  0
    0.3572   -1.0312    0.0000 O   0  0  0  0  0  0  0  0  0  0  0  0
   -1.0717   -0.2062    0.0000 C   0  0  0  0  0  0  0  0  0  0  0  0
   -1.0717   -1.0312    0.0000 C   0  0  0  0  0  0  0  0  0  0  0  0
   -1.7861    0.2062    0.0000 C   0  0  0  0  0  0  0  0  0  0  0  0
   -1.7861   -1.4437    0.0000 C   0  0  0  0  0  0  0  0  0  0  0  0
   -2.5006   -0.2062    0.0000 C   0  0  0  0  0  0  0  0  0  0  0  0
   -2.5006   -1.0312    0.0000 C   0  0  0  0  0  0  0  0  0  0  0  0
    1.0716    0.2062    0.0000 C   0  0  0  0  0  0  0  0  0  0  0  0
    1.0716    1.0312    0.0000 C   0  0  0  0  0  0  0  0  0  0  0  0
    1.7861   -0.2062    0.0000 C   0  0  0  0  0  0  0  0  0  0  0  0
    1.7861    1.4437    0.0000 C   0  0  0  0  0  0  0  0  0  0  0  0
    2.5006    0.2062    0.0000 C   0  0  0  0  0  0  0  0  0  0  0  0
    2.5006    1.0312    0.0000 C   0  0  0  0  0  0  0  0  0  0  0  0
  2  1  1  0
  2  4  1  0
  3  1  2  0
  5  1  1  0
  6  5  2  0
  7  5  1  0
  8  6  1  0
  9  7  2  0
 10  8  2  0
 10  9  1  0
 11  2  1  0
 12 11  2  0
 13 11  1  0
 14 12  1  0
 15 13  2  0
 16 14  2  0
 16 15  1  0
M  END
>  <DRUGBANK_ID>  (1) 
DB14020

>  <COMMON_NAME>  (1) 
Benzoin

>  <CAS_NUMBER>  (1) 
119-53-9

>  <UNII>  (1) 
L7J6A1NE81

>  <SYNONYMS>  (1) 
(+-)-Benzoin; 2-Hydroxy-1,2-diphenylethanone; Aerozoin; alpha-Hydroxy-alpha-phenylacetophenone; alpha-Hydroxybenzyl phenyl ketone; Benzoin extract (resinoid); Benzoylphenylcarbinol; Hydroxy-2-phenyl acetophenone; Phenyl-alpha-hydroxybenzyl ketone; phenyl-α-hydroxybenzyl ketone; Phenylbenzoyl carbinol; α-hydroxy-α-phenylacetophenone

$$$$
