
     RDKit          2D

 31 34  0  0  1  0  0  0  0  0999 V2000
    8.5050    0.8594    0.0000 C   0  0  0  0  0  0  0  0  0  0  0  0
    8.9899    1.5269    0.0000 C   0  0  0  0  0  0  0  0  0  0  0  0
    9.8104    1.4406    0.0000 C   0  0  0  0  0  0  0  0  0  0  0  0
   10.6309    1.3544    0.0000 F   0  0  0  0  0  0  0  0  0  0  0  0
    9.8967    2.2611    0.0000 F   0  0  0  0  0  0  0  0  0  0  0  0
    9.7242    0.6201    0.0000 F   0  0  0  0  0  0  0  0  0  0  0  0
    8.6544    2.2805    0.0000 O   0  0  0  0  0  0  0  0  0  0  0  0
    7.8339    2.3668    0.0000 C   0  0  0  0  0  0  0  0  0  0  0  0
    7.3490    1.6993    0.0000 C   0  0  0  0  0  0  0  0  0  0  0  0
    6.5285    1.7856    0.0000 C   0  0  0  0  0  0  0  0  0  0  0  0
    6.1929    2.5392    0.0000 C   0  0  0  0  0  0  0  0  0  0  0  0
    6.6779    3.2067    0.0000 C   0  0  0  0  0  0  0  0  0  0  0  0
    7.4983    3.1204    0.0000 C   0  0  0  0  0  0  0  0  0  0  0  0
    7.9833    3.7879    0.0000 C   0  0  0  0  0  0  0  0  0  0  0  0
    8.4682    4.4553    0.0000 F   0  0  0  0  0  0  0  0  0  0  0  0
    8.6507    3.3030    0.0000 F   0  0  0  0  0  0  0  0  0  0  0  0
    7.3158    4.2728    0.0000 F   0  0  0  0  0  0  0  0  0  0  0  0
    5.3725    2.6255    0.0000 C   0  0  0  0  0  0  0  0  0  0  0  0
    4.8204    2.0124    0.0000 N   0  0  0  0  0  0  0  0  0  0  0  0
    4.0668    2.3479    0.0000 C   0  0  0  0  0  0  0  0  0  0  0  0
    4.1530    3.1684    0.0000 N   0  0  0  0  0  0  0  0  0  0  0  0
    4.9600    3.3400    0.0000 O   0  0  0  0  0  0  0  0  0  0  0  0
    3.3523    1.9354    0.0000 C   0  0  0  0  0  0  0  0  0  0  0  0
    3.3523    1.1104    0.0000 C   0  0  0  0  0  0  0  0  0  0  0  0
    2.6378    0.6979    0.0000 C   0  0  0  0  0  0  0  0  0  0  0  0
    1.9233    1.1104    0.0000 C   0  0  0  0  0  0  0  0  0  0  0  0
    1.9233    1.9354    0.0000 C   0  0  0  0  0  0  0  0  0  0  0  0
    2.6378    2.3479    0.0000 C   0  0  0  0  0  0  0  0  0  0  0  0
    1.1387    2.1904    0.0000 N   0  0  0  0  0  0  0  0  0  0  0  0
    0.6538    1.5229    0.0000 C   0  0  0  0  0  0  0  0  0  0  0  0
    1.1387    0.8555    0.0000 N   0  0  0  0  0  0  0  0  0  0  0  0
  2  1  1  6
  2  3  1  0
  2  7  1  0
  3  4  1  0
  3  5  1  0
  3  6  1  0
  7  8  1  0
  8  9  2  0
  8 13  1  0
  9 10  1  0
 10 11  2  0
 11 12  1  0
 11 18  1  0
 12 13  2  0
 13 14  1  0
 14 15  1  0
 14 16  1  0
 14 17  1  0
 18 19  2  0
 18 22  1  0
 19 20  1  0
 20 21  2  0
 20 23  1  0
 21 22  1  0
 23 24  2  0
 23 28  1  0
 24 25  1  0
 25 26  2  0
 26 27  1  0
 26 31  1  0
 27 28  2  0
 27 29  1  0
 29 30  2  0
 30 31  1  0
M  END
>  <DRUGBANK_ID>  (1) 
DB11819

>  <COMMON_NAME>  (1) 
ASP-4058

>  <CAS_NUMBER>  (1) 
952565-91-2

>  <UNII>  (1) 
01J7526K2Q

$$$$
