
     RDKit          2D

  4  3  0  0  0  0  0  0  0  0999 V2000
   -0.0074   -0.2072    0.0000 N   0  0  0  0  0  0  0  0  0  0  0  0
    0.7099   -0.6147    0.0000 O   0  0  0  0  0  0  0  0  0  0  0  0
   -0.0074    0.6334    0.0000 O   0  0  0  0  0  0  0  0  0  0  0  0
   -0.7099   -0.6334    0.0000 O   0  0  0  0  0  0  0  0  0  0  0  0
  1  2  1  0
  1  3  2  0
  1  4  1  0
M  CHG  2   1   1   4  -1
M  END
>  <DRUGBANK_ID>  (1) 
DB15995

>  <COMMON_NAME>  (1) 
Nitric acid

>  <CAS_NUMBER>  (1) 
7697-37-2

>  <UNII>  (1) 
411VRN1TV4

>  <SYNONYMS>  (1) 
Acide nitrique; Acido nitrico; Aqua fortis; Azotowy kwas; Kyselina dusicne; Nitric acid, anhydrous; Salpetersaure; Salpeterzuuroplossingen

$$$$
