
     RDKit          2D

 13 12  0  0  0  0  0  0  0  0999 V2000
    0.3590   -0.2112    0.0000 C   0  0  0  0  0  0  0  0  0  0  0  0
   -0.3481   -0.6250    0.0000 C   0  0  0  0  0  0  0  0  0  0  0  0
    1.0706   -0.6250    0.0000 C   0  0  0  0  0  0  0  0  0  0  0  0
   -1.0641   -0.2112    0.0000 C   0  0  0  0  0  0  0  0  0  0  0  0
    1.7669   -0.2112    0.0000 C   0  0  0  0  0  0  0  0  0  0  0  0
   -1.7865   -0.6250    0.0000 C   0  0  0  0  0  0  0  0  0  0  0  0
    2.4827   -0.6250    0.0000 C   0  0  0  0  0  0  0  0  0  0  0  0
   -2.5025   -0.2112    0.0000 C   0  0  0  0  0  0  0  0  0  0  0  0
    3.2010   -0.2112    0.0000 C   0  0  0  0  0  0  0  0  0  0  0  0
   -3.1923   -0.6250    0.0000 C   0  0  0  0  0  0  0  0  0  0  0  0
    3.8972   -0.6250    0.0000 O   0  0  0  0  0  0  0  0  0  0  0  0
    3.2010    0.6250    0.0000 O   0  0  0  0  0  0  0  0  0  0  0  0
   -3.8972   -0.2112    0.0000 C   0  0  0  0  0  0  0  0  0  0  0  0
  1  2  1  0
  1  3  1  0
  2  4  1  0
  3  5  1  0
  4  6  1  0
  5  7  1  0
  6  8  1  0
  7  9  1  0
  8 10  1  0
  9 11  1  0
  9 12  2  0
 10 13  1  0
M  END
>  <DRUGBANK_ID>  (1) 
DB16857

>  <COMMON_NAME>  (1) 
Undecanoic acid

>  <CAS_NUMBER>  (1) 
112-37-8

>  <UNII>  (1) 
138ON3IIQG

>  <SYNONYMS>  (1) 
Hendecanoic acid; Undecanoate; Undecoic acid; Undecylic acid

$$$$
