
     RDKit          2D

 27 29  0  0  0  0  0  0  0  0999 V2000
   -1.0416   -4.0284    0.0000 C   0  0  0  0  0  0  0  0  0  0  0  0
   -0.3272   -3.6159    0.0000 O   0  0  0  0  0  0  0  0  0  0  0  0
   -0.3272   -2.7909    0.0000 C   0  0  0  0  0  0  0  0  0  0  0  0
    0.3873   -2.3784    0.0000 N   0  0  0  0  0  0  0  0  0  0  0  0
    0.3873   -1.5534    0.0000 C   0  0  0  0  0  0  0  0  0  0  0  0
   -0.3272   -1.1409    0.0000 O   0  0  0  0  0  0  0  0  0  0  0  0
    1.1018   -1.1409    0.0000 C   0  0  0  0  0  0  0  0  0  0  0  0
    1.8163   -1.5534    0.0000 C   0  0  0  0  0  0  0  0  0  0  0  0
    2.5307   -1.1409    0.0000 O   0  0  0  0  0  0  0  0  0  0  0  0
    1.8163   -2.3784    0.0000 N   0  0  0  0  0  0  0  0  0  0  0  0
    1.1018   -2.7909    0.0000 C   0  0  0  0  0  0  0  0  0  0  0  0
    1.1018   -3.6159    0.0000 O   0  0  0  0  0  0  0  0  0  0  0  0
    2.5307   -2.7909    0.0000 C   0  0  0  0  0  0  0  0  0  0  0  0
    2.5307   -3.6159    0.0000 O   0  0  0  0  0  0  0  0  0  0  0  0
    1.8163   -4.0284    0.0000 C   0  0  0  0  0  0  0  0  0  0  0  0
    0.5083   -0.5678    0.0000 C   0  0  0  0  0  0  0  0  0  0  0  0
   -0.2847   -0.7952    0.0000 C   0  0  0  0  0  0  0  0  0  0  0  0
   -0.8782   -0.2221    0.0000 C   0  0  0  0  0  0  0  0  0  0  0  0
   -0.6786    0.5783    0.0000 C   0  0  0  0  0  0  0  0  0  0  0  0
    0.1145    0.8057    0.0000 C   0  0  0  0  0  0  0  0  0  0  0  0
    0.7079    0.2327    0.0000 C   0  0  0  0  0  0  0  0  0  0  0  0
    1.4891   -0.4125    0.0000 C   0  0  0  0  0  0  0  0  0  0  0  0
    1.0519    0.2871    0.0000 C   0  0  0  0  0  0  0  0  0  0  0  0
    1.4392    1.0156    0.0000 C   0  0  0  0  0  0  0  0  0  0  0  0
    2.2637    1.0444    0.0000 C   0  0  0  0  0  0  0  0  0  0  0  0
    2.7009    0.3447    0.0000 C   0  0  0  0  0  0  0  0  0  0  0  0
    2.3136   -0.3837    0.0000 C   0  0  0  0  0  0  0  0  0  0  0  0
  1  2  1  0
  2  3  1  0
  3  4  1  0
  4  5  1  0
  4 11  1  0
  5  6  2  0
  5  7  1  0
  7  8  1  0
  7 16  1  0
  7 22  1  0
  8  9  2  0
  8 10  1  0
 10 11  1  0
 10 13  1  0
 11 12  2  0
 13 14  1  0
 14 15  1  0
 16 17  2  0
 16 21  1  0
 17 18  1  0
 18 19  2  0
 19 20  1  0
 20 21  2  0
 22 23  2  0
 22 27  1  0
 23 24  1  0
 24 25  2  0
 25 26  1  0
 26 27  2  0
M  END
>  <DRUGBANK_ID>  (1) 
DB11654

>  <COMMON_NAME>  (1) 
T-2000

>  <CAS_NUMBER>  (1) 
97846-21-4

>  <UNII>  (1) 
QW2J7VST60

$$$$
