AL3
     RDKit          2D

 22 24  0  0  0  0  0  0  0  0999 V2000
   -2.3135   -0.0422    0.0000 C   0  0  0  0  0  0  0  0  0  0  0  0
   -0.3295   -1.6922    0.0000 O   0  0  0  0  0  0  0  0  0  0  0  0
    0.3850   -0.4547    0.0000 C   0  0  0  0  0  0  0  0  0  0  0  0
   -0.3295   -0.8672    0.0000 C   0  0  0  0  0  0  0  0  0  0  0  0
    1.0995    0.7828    0.0000 C   0  0  0  0  0  0  0  0  0  0  0  0
    1.8139    0.3703    0.0000 C   0  0  0  0  0  0  0  0  0  0  0  0
    2.5676    0.7059    0.0000 C   0  0  0  0  0  0  0  0  0  0  0  0
    3.1196    0.0928    0.0000 C   0  0  0  0  0  0  0  0  0  0  0  0
    2.7071   -0.6217    0.0000 C   0  0  0  0  0  0  0  0  0  0  0  0
   -3.9635   -0.0422    0.0000 O   0  0  0  0  0  0  0  0  0  0  0  0
   -3.1385    0.7828    0.0000 O   0  0  0  0  0  0  0  0  0  0  0  0
   -3.1385   -0.8672    0.0000 N   0  0  0  0  0  0  0  0  0  0  0  0
   -3.1385   -0.0422    0.0000 S   0  0  0  0  0  0  0  0  0  0  0  0
   -1.8286   -0.7096    0.0000 C   0  0  0  0  0  0  0  0  0  0  0  0
   -1.0440   -0.4547    0.0000 C   0  0  0  0  0  0  0  0  0  0  0  0
   -1.0440    0.3703    0.0000 C   0  0  0  0  0  0  0  0  0  0  0  0
   -1.8286    0.6253    0.0000 S   0  0  0  0  0  0  0  0  0  0  0  0
   -0.3295    0.7828    0.0000 S   0  0  0  0  0  0  0  0  0  0  0  0
   -0.8598    1.4148    0.0000 O   0  0  0  0  0  0  0  0  0  0  0  0
    0.2008    1.4148    0.0000 O   0  0  0  0  0  0  0  0  0  0  0  0
    0.3850    0.3703    0.0000 N   0  0  0  0  0  0  0  0  0  0  0  0
    1.9002   -0.4501    0.0000 S   0  0  0  0  0  0  0  0  0  0  0  0
  1 13  1  0
  1 14  2  0
  1 17  1  0
  3  4  1  0
  3 21  1  0
  4  2  1  6
  4 15  1  0
  5  6  1  0
  5 21  1  0
  6  7  2  0
  6 22  1  0
  7  8  1  0
  8  9  2  0
  9 22  1  0
 10 13  2  0
 11 13  2  0
 12 13  1  0
 14 15  1  0
 15 16  2  0
 16 17  1  0
 16 18  1  0
 18 19  2  0
 18 20  2  0
 18 21  1  0
M  END
>  <DRUGBANK_ID>  (1) 
DB04089

>  <SECONDARY_ACCESSION_NUMBERS>  (1) 
EXPT00488

>  <COMMON_NAME>  (1) 
AL5300

$$$$
