
     RDKit          2D

  5  4  0  0  0  0  0  0  0  0999 V2000
    2.4750   -1.4289    0.0000 C   0  0  0  0  0  0  0  0  0  0  0  0
    2.0625   -0.7145    0.0000 C   0  0  0  0  0  0  0  0  0  0  0  0
    1.2375   -0.7145    0.0000 C   0  0  0  0  0  0  0  0  0  0  0  0
    0.8250    0.0000    0.0000 C   0  0  0  0  0  0  0  0  0  0  0  0
    0.0000    0.0000    0.0000 O   0  0  0  0  0  0  0  0  0  0  0  0
  1  2  1  0
  2  3  1  0
  3  4  1  0
  4  5  1  0
M  END
>  <DRUGBANK_ID>  (1) 
DB02145

>  <SECONDARY_ACCESSION_NUMBERS>  (1) 
EXPT00068

>  <COMMON_NAME>  (1) 
Butyl alcohol

>  <CAS_NUMBER>  (1) 
71-36-3

>  <UNII>  (1) 
8PJ61P6TS3

>  <SYNONYMS>  (1) 
1-butanol; Butan-1-ol; Butanol; N-butanol; N-butyl alcohol

$$$$
