
     RDKit          2D

 21 22  0  0  1  0  0  0  0  0999 V2000
    0.7115   -1.0332    0.0000 C   0  0  0  0  0  0  0  0  0  0  0  0
    1.4532    0.5299    0.0000 C   0  0  0  0  0  0  0  0  0  0  0  0
    0.0379   -0.5412    0.0000 O   0  0  0  0  0  0  0  0  0  0  0  0
    0.4693   -1.8090    0.0000 C   0  0  0  0  0  0  0  0  0  0  0  0
    2.1761    0.9537    0.0000 C   0  0  0  0  0  0  0  0  0  0  0  0
    0.7418    0.9537    0.0000 C   0  0  0  0  0  0  0  0  0  0  0  0
   -0.6206   -1.0218    0.0000 C   0  0  0  0  0  0  0  0  0  0  0  0
   -0.3557   -1.8090    0.0000 C   0  0  0  0  0  0  0  0  0  0  0  0
    0.9537   -2.4712    0.0000 O   0  0  0  0  0  0  0  0  0  0  0  0
    2.1761    1.7863    0.0000 N   0  0  0  0  0  0  0  0  0  0  0  0
    2.8914    0.5450    0.0000 O   0  0  0  0  0  0  0  0  0  0  0  0
    0.7418    1.7863    0.0000 N   0  0  0  0  0  0  0  0  0  0  0  0
   -1.4040   -0.7720    0.0000 C   0  0  0  0  0  0  0  0  0  0  0  0
   -0.8364   -2.4788    0.0000 O   0  0  0  0  0  0  0  0  0  0  0  0
    1.4532    2.1988    0.0000 C   0  0  0  0  0  0  0  0  0  0  0  0
   -1.5819    0.0303    0.0000 O   0  0  0  0  0  0  0  0  0  0  0  0
    1.4532    3.0200    0.0000 O   0  0  0  0  0  0  0  0  0  0  0  0
   -2.4069    0.0340    0.0000 P   0  0  0  0  0  0  0  0  0  0  0  0
   -3.2319    0.0340    0.0000 O   0  0  0  0  0  0  0  0  0  0  0  0
   -2.4145   -0.7871    0.0000 O   0  0  0  0  0  0  0  0  0  0  0  0
   -2.4069    0.8591    0.0000 O   0  0  0  0  0  0  0  0  0  0  0  0
  1  2  1  1
  1  3  1  0
  1  4  1  0
  2  5  1  0
  2  6  2  0
  3  7  1  0
  4  8  1  0
  4  9  1  6
  5 10  1  0
  5 11  2  0
  6 12  1  0
  7 13  1  1
  7  8  1  0
  8 14  1  6
 10 15  1  0
 12 15  1  0
 13 16  1  0
 15 17  2  0
 16 18  1  0
 18 19  1  0
 18 20  1  0
 18 21  2  0
M  END
>  <DRUGBANK_ID>  (1) 
DB03829

>  <SECONDARY_ACCESSION_NUMBERS>  (1) 
EXPT02677

>  <COMMON_NAME>  (1) 
Pseudouridine-5'-Monophosphate

>  <UNII>  (1) 
88NC65Q5EZ

$$$$
