
     RDKit          2D

  6  5  0  0  0  0  0  0  0  0999 V2000
    1.2375    2.1434    0.0000 N   0  0  0  0  0  0  0  0  0  0  0  0
    0.8250    1.4289    0.0000 O   0  0  0  0  0  0  0  0  0  0  0  0
    1.2375    0.7145    0.0000 C   0  0  0  0  0  0  0  0  0  0  0  0
    0.8250    0.0000    0.0000 C   0  0  0  0  0  0  0  0  0  0  0  0
    1.2375   -0.7145    0.0000 O   0  0  0  0  0  0  0  0  0  0  0  0
    0.0000    0.0000    0.0000 O   0  0  0  0  0  0  0  0  0  0  0  0
  1  2  1  0
  2  3  1  0
  3  4  1  0
  4  5  1  0
  4  6  2  0
M  END
>  <DRUGBANK_ID>  (1) 
DB02079

>  <SECONDARY_ACCESSION_NUMBERS>  (1) 
EXPT00528

>  <COMMON_NAME>  (1) 
Aminooxyacetic acid

>  <CAS_NUMBER>  (1) 
645-88-5

>  <UNII>  (1) 
14I68GI3OQ

>  <SYNONYMS>  (1) 
(aminooxy)acetic acid; aminoxyacetic acid; AOAA; carboxymethoxyamine; Carboxymethoxylamine

$$$$
