
     RDKit          2D

 11 10  0  0  0  0  0  0  0  0999 V2000
   -2.1425   -0.2107    0.0000 C   0  0  0  0  0  0  0  0  0  0  0  0
   -1.4286    0.2026    0.0000 N   0  0  0  0  0  0  0  0  0  0  0  0
   -0.7146   -0.2065    0.0000 C   0  0  0  0  0  0  0  0  0  0  0  0
   -0.0006    0.2068    0.0000 C   0  0  0  0  0  0  0  0  0  0  0  0
    0.7133   -0.2024    0.0000 C   0  0  0  0  0  0  0  0  0  0  0  0
   -2.1415   -1.0383    0.0000 O   0  0  0  0  0  0  0  0  0  0  0  0
   -1.4304    1.0293    0.0000 O   0  0  0  0  0  0  0  0  0  0  0  0
    1.4280    0.2132    0.0000 P   0  0  0  0  0  0  0  0  0  0  0  0
    1.4280    1.0383    0.0000 O   0  0  0  0  0  0  0  0  0  0  0  0
    2.1425   -0.1992    0.0000 O   0  0  0  0  0  0  0  0  0  0  0  0
    1.6415   -0.5836    0.0000 O   0  0  0  0  0  0  0  0  0  0  0  0
  1  6  2  0
  1  2  1  0
  2  7  1  0
  2  3  1  0
  3  4  1  0
  4  5  1  0
  5  8  1  0
  8  9  2  0
  8 10  1  0
  8 11  1  0
M  END
>  <DRUGBANK_ID>  (1) 
DB02948

>  <SECONDARY_ACCESSION_NUMBERS>  (1) 
EXPT01469

>  <COMMON_NAME>  (1) 
Fosmidomycin

>  <CAS_NUMBER>  (1) 
66508-53-0

>  <UNII>  (1) 
5829E3D9I9

>  <SYNONYMS>  (1) 
Fosmidomycin; Fosmidomycina; Fosmidomycine; Fosmidomycinum

$$$$
