
     RDKit          2D

 15 16  0  0  1  0  0  0  0  0999 V2000
    3.7445   -0.4772    0.0000 O   0  0  0  0  0  0  0  0  0  0  0  0
    2.8472    2.2848    0.0000 O   0  0  0  0  0  0  0  0  0  0  0  0
    3.5146    0.9748    0.0000 N   0  0  0  0  0  0  0  0  0  0  0  0
    2.4347    0.1902    0.0000 C   0  0  0  0  0  0  0  0  0  0  0  0
    2.1796    0.9748    0.0000 C   0  0  0  0  0  0  0  0  0  0  0  0
    3.2597    0.1902    0.0000 C   0  0  0  0  0  0  0  0  0  0  0  0
    2.4347   -0.6348    0.0000 C   0  0  0  0  0  0  0  0  0  0  0  0
    1.6500   -0.0647    0.0000 C   0  0  0  0  0  0  0  0  0  0  0  0
    2.8472    1.4598    0.0000 C   0  0  0  0  0  0  0  0  0  0  0  0
    3.1491   -1.0473    0.0000 C   0  0  0  0  0  0  0  0  0  0  0  0
    1.7201   -1.0473    0.0000 C   0  0  0  0  0  0  0  0  0  0  0  0
    4.2992    1.2298    0.0000 C   0  0  0  0  0  0  0  0  0  0  0  0
    3.1491   -1.8723    0.0000 C   0  0  0  0  0  0  0  0  0  0  0  0
    1.7201   -1.8723    0.0000 C   0  0  0  0  0  0  0  0  0  0  0  0
    2.4347   -2.2848    0.0000 C   0  0  0  0  0  0  0  0  0  0  0  0
  1  6  2  0
  2  9  2  0
  3  6  1  0
  3  9  1  0
  3 12  1  0
  4  5  1  0
  4  6  1  0
  4  7  1  0
  4  8  1  0
  5  9  1  0
  7 10  2  0
  7 11  1  0
 10 13  1  0
 11 14  2  0
 13 15  2  0
 14 15  1  0
M  END
>  <DRUGBANK_ID>  (1) 
DB05246

>  <COMMON_NAME>  (1) 
Methsuximide

>  <CAS_NUMBER>  (1) 
77-41-8

>  <UNII>  (1) 
0G76K8X6C0

>  <SYNONYMS>  (1) 
(RS)-1,3-Dimethyl-3-phenyl-2,5-pyrrolidindion; 1,3-Dimethyl-3-phenyl-2,5-dioxopyrrolidine; 1,3-Dimethyl-3-phenyl-pyrrolidin-2,5-dione; 1,3-Dimethyl-3-phenylsuccinimide; alpha-Methyl-alpha-phenyl N-methyl succinimide; alpha-Methylphensuximide; Mesuximida; Mesuximide; Mesuximidum; Methsuximid; Methsuximide; Metosuccimmide; N-methyl-alpha-methyl-alpha-phenylsuccinimide; N,2-Dimethyl-2-phenylsuccinimide

$$$$
