
     RDKit          2D

 33 36  0  0  0  0  0  0  0  0999 V2000
    1.4568    1.0145    0.0000 C   0  0  0  0  0  0  0  0  0  0  0  0
    1.4568    0.1895    0.0000 C   0  0  0  0  0  0  0  0  0  0  0  0
    0.7447   -0.2188    0.0000 S   0  0  0  0  0  0  0  0  0  0  0  0
    0.7447    1.4311    0.0000 C   0  0  0  0  0  0  0  0  0  0  0  0
    2.1724    1.4249    0.0000 C   0  0  0  0  0  0  0  0  0  0  0  0
    2.8857    1.0103    0.0000 S   0  0  0  0  0  0  0  0  0  0  0  0
    0.7466    2.2572    0.0000 C   0  0  0  0  0  0  0  0  0  0  0  0
    0.0322    2.6697    0.0000 O   0  0  0  0  0  0  0  0  0  0  0  0
    1.4611    2.6697    0.0000 O   0  0  0  0  0  0  0  0  0  0  0  0
    0.0327    1.0145    0.0000 N   0  0  0  0  0  0  0  0  0  0  0  0
    0.0363    0.1895    0.0000 C   0  0  0  0  0  0  0  0  0  0  0  0
   -0.7875    0.1851    0.0000 C   0  0  0  0  0  0  0  0  0  0  0  0
   -0.7921    1.0109    0.0000 C   0  0  0  0  0  0  0  0  0  0  0  0
   -1.2014   -0.5285    0.0000 N   0  0  0  0  0  0  0  0  0  0  0  0
    3.6014    1.4207    0.0000 C   0  0  0  0  0  0  0  0  0  0  0  0
    3.6927    2.2438    0.0000 N   0  0  0  0  0  0  0  0  0  0  0  0
    4.5001    2.4130    0.0000 N   0  0  0  0  0  0  0  0  0  0  0  0
    4.9106    1.6973    0.0000 N   0  0  0  0  0  0  0  0  0  0  0  0
    4.3567    1.0859    0.0000 N   0  0  0  0  0  0  0  0  0  0  0  0
    4.5275    0.2788    0.0000 C   0  0  0  0  0  0  0  0  0  0  0  0
   -1.3780    1.5917    0.0000 O   0  0  0  0  0  0  0  0  0  0  0  0
   -2.0263   -0.5270    0.0000 C   0  0  0  0  0  0  0  0  0  0  0  0
   -2.4402   -1.2407    0.0000 C   0  0  0  0  0  0  0  0  0  0  0  0
   -2.4375    0.1881    0.0000 O   0  0  0  0  0  0  0  0  0  0  0  0
   -2.0290   -1.9559    0.0000 O   0  0  0  0  0  0  0  0  0  0  0  0
   -3.2653   -1.2392    0.0000 C   0  0  0  0  0  0  0  0  0  0  0  0
   -3.6743   -1.9558    0.0000 C   0  0  0  0  0  0  0  0  0  0  0  0
   -4.4986   -1.9546    0.0000 C   0  0  0  0  0  0  0  0  0  0  0  0
   -4.9105   -1.2389    0.0000 C   0  0  0  0  0  0  0  0  0  0  0  0
   -4.4924   -0.5228    0.0000 C   0  0  0  0  0  0  0  0  0  0  0  0
   -3.6695   -0.5275    0.0000 C   0  0  0  0  0  0  0  0  0  0  0  0
   -2.4429   -2.6697    0.0000 C   0  0  0  0  0  0  0  0  0  0  0  0
   -3.2678   -2.6681    0.0000 O   0  0  0  0  0  0  0  0  0  0  0  0
  1  5  1  0
  1  2  1  0
  1  4  2  0
  2  3  1  0
  4  7  1  0
  5  6  1  0
  6 15  1  0
  7  8  1  0
  7  9  2  0
 10 11  1  0
 10  4  1  0
 11 12  1  0
 11  3  1  6
 12 13  1  0
 12 14  1  6
 13 21  2  0
 13 10  1  0
 14 22  1  0
 15 16  2  0
 16 17  1  0
 17 18  2  0
 18 19  1  0
 19 15  1  0
 19 20  1  0
 22 23  1  0
 22 24  2  0
 23 25  1  6
 23 26  1  0
 25 32  1  0
 26 27  2  0
 27 28  1  0
 28 29  2  0
 29 30  1  0
 30 31  2  0
 31 26  1  0
 32 33  2  0
M  END
>  <DRUGBANK_ID>  (1) 
DB14725

>  <COMMON_NAME>  (1) 
Cefamandole nafate

>  <CAS_NUMBER>  (1) 
57268-80-1

>  <SYNONYMS>  (1) 
O-formylcefamandole

$$$$
