
     RDKit          2D

 32 35  0  0  0  0  0  0  0  0999 V2000
   -1.1067   -1.9837    0.0000 C   0  0  0  0  0  0  0  0  0  0  0  0
   -1.8213   -2.3961    0.0000 C   0  0  0  0  0  0  0  0  0  0  0  0
   -2.5357   -1.9837    0.0000 C   0  0  0  0  0  0  0  0  0  0  0  0
   -3.2502   -2.3961    0.0000 C   0  0  0  0  0  0  0  0  0  0  0  0
   -3.9647   -1.1587    0.0000 C   0  0  0  0  0  0  0  0  0  0  0  0
   -3.2502   -0.7462    0.0000 C   0  0  0  0  0  0  0  0  0  0  0  0
   -1.1067    0.4912    0.0000 C   0  0  0  0  0  0  0  0  0  0  0  0
    0.8772   -0.3337    0.0000 C   0  0  0  0  0  0  0  0  0  0  0  0
    0.3923   -1.0011    0.0000 C   0  0  0  0  0  0  0  0  0  0  0  0
   -1.8213   -0.7462    0.0000 C   0  0  0  0  0  0  0  0  0  0  0  0
   -0.3923   -0.7462    0.0000 C   0  0  0  0  0  0  0  0  0  0  0  0
   -1.1067   -1.1587    0.0000 C   0  0  0  0  0  0  0  0  0  0  0  0
   -0.3923    0.0787    0.0000 C   0  0  0  0  0  0  0  0  0  0  0  0
    0.3923    0.3337    0.0000 C   0  0  0  0  0  0  0  0  0  0  0  0
   -3.9647   -1.9837    0.0000 C   0  0  0  0  0  0  0  0  0  0  0  0
   -4.6792   -2.3962    0.0000 O   0  0  0  0  0  0  0  0  0  0  0  0
   -1.8213    0.0787    0.0000 C   0  0  0  0  0  0  0  0  0  0  0  0
   -2.5358    0.4912    0.0000 O   0  0  0  0  0  0  0  0  0  0  0  0
    0.3923    1.1587    0.0000 C   0  0  0  0  0  0  0  0  0  0  0  0
   -0.3221    1.5712    0.0000 O   0  0  0  0  0  0  0  0  0  0  0  0
    1.1068    1.5712    0.0000 C   0  0  0  0  0  0  0  0  0  0  0  0
    1.1068    0.7462    0.0000 O   0  0  0  0  0  0  0  0  0  0  0  0
   -0.3923    0.9037    0.0000 C   0  0  0  0  0  0  0  0  0  0  0  0
   -2.5357   -1.1587    0.0000 C   0  0  0  0  0  0  0  0  0  0  0  0
   -2.5357   -0.3337    0.0000 C   0  0  0  0  0  0  0  0  0  0  0  0
    1.8213    0.3337    0.0000 C   0  0  0  0  0  0  0  0  0  0  0  0
    1.8213   -0.4912    0.0000 O   0  0  0  0  0  0  0  0  0  0  0  0
    2.5357    0.7462    0.0000 C   0  0  0  0  0  0  0  0  0  0  0  0
    3.2502    0.3337    0.0000 C   0  0  0  0  0  0  0  0  0  0  0  0
    3.9647    0.7462    0.0000 C   0  0  0  0  0  0  0  0  0  0  0  0
    1.1068    2.3962    0.0000 O   0  0  0  0  0  0  0  0  0  0  0  0
    4.6792    0.3337    0.0000 C   0  0  0  0  0  0  0  0  0  0  0  0
  1  2  1  0
  2  3  1  0
  3  4  2  0
  3 24  1  0
  4 15  1  0
  5  6  1  0
  6 24  1  0
  7 13  1  0
  8  9  1  0
 11  9  1  1
 10 17  1  1
 12  1  1  6
 12 10  1  0
 12 11  1  0
 13 14  1  0
 13 11  1  0
 13 23  1  1
 14  8  1  0
 14 22  1  6
 14 19  1  0
 15  5  1  0
 15 16  2  0
 17  7  1  0
 17 18  1  1
 19 21  1  0
 19 20  2  0
 21 31  1  0
 22 26  1  0
 24 10  1  0
 24 25  1  1
 26 27  2  0
 26 28  1  0
 28 29  1  0
 29 30  1  0
 30 32  1  0
M  END
>  <DRUGBANK_ID>  (1) 
DB14544

>  <SECONDARY_ACCESSION_NUMBERS>  (1) 
DBSALT000782

>  <COMMON_NAME>  (1) 
Hydrocortisone valerate

>  <CAS_NUMBER>  (1) 
57524-89-7

>  <UNII>  (1) 
68717P8FUZ

>  <SYNONYMS>  (1) 
Cortisol 17-valerate; Hydrocortisone 17-valerate; Hydrocortisone valerate

$$$$
