
     RDKit          2D

 30 33  0  0  1  0  0  0  0  0999 V2000
    0.4944    6.0604    0.0000 F   0  0  0  0  0  0  0  0  0  0  0  0
    1.2089    6.4729    0.0000 C   0  0  0  0  0  0  0  0  0  0  0  0
    1.2089    7.2979    0.0000 C   0  0  0  0  0  0  0  0  0  0  0  0
    1.9233    7.7104    0.0000 C   0  0  0  0  0  0  0  0  0  0  0  0
    2.6378    7.2979    0.0000 C   0  0  0  0  0  0  0  0  0  0  0  0
    2.6378    6.4729    0.0000 C   0  0  0  0  0  0  0  0  0  0  0  0
    1.9233    6.0604    0.0000 C   0  0  0  0  0  0  0  0  0  0  0  0
    1.9233    5.2354    0.0000 N   0  0  0  0  0  0  0  0  0  0  0  0
    2.6378    4.8229    0.0000 S   0  0  0  0  0  0  0  0  0  0  0  0
    2.2253    4.1085    0.0000 O   0  0  0  0  0  0  0  0  0  0  0  0
    3.0503    5.5374    0.0000 O   0  0  0  0  0  0  0  0  0  0  0  0
    3.3523    4.4104    0.0000 C   0  0  0  0  0  0  0  0  0  0  0  0
    4.0668    4.8229    0.0000 C   0  0  0  0  0  0  0  0  0  0  0  0
    4.0668    5.6479    0.0000 F   0  0  0  0  0  0  0  0  0  0  0  0
    4.7812    4.4104    0.0000 C   0  0  0  0  0  0  0  0  0  0  0  0
    4.7812    3.5854    0.0000 C   0  0  0  0  0  0  0  0  0  0  0  0
    5.4957    3.1729    0.0000 Cl  0  0  0  0  0  0  0  0  0  0  0  0
    4.0668    3.1729    0.0000 C   0  0  0  0  0  0  0  0  0  0  0  0
    3.3523    3.5854    0.0000 C   0  0  0  0  0  0  0  0  0  0  0  0
    4.0668    2.3479    0.0000 C   0  0  0  0  0  0  0  0  0  0  0  0
    4.7812    1.9354    0.0000 O   0  0  0  0  0  0  0  0  0  0  0  0
    3.3523    1.9354    0.0000 N   0  0  0  0  0  0  0  0  0  0  0  0
    3.3523    1.1104    0.0000 C   0  0  0  0  0  0  0  0  0  0  0  0
    2.6378    0.6979    0.0000 C   0  0  0  0  0  0  0  0  0  0  0  0
    1.9233    1.1104    0.0000 N   0  0  0  0  0  0  0  0  0  0  0  0
    1.1387    0.8555    0.0000 C   0  0  0  0  0  0  0  0  0  0  0  0
    0.6538    1.5229    0.0000 C   0  0  0  0  0  0  0  0  0  0  0  0
    1.1387    2.1904    0.0000 C   0  0  0  0  0  0  0  0  0  0  0  0
    1.9233    1.9354    0.0000 C   0  0  0  0  0  0  0  0  0  0  0  0
    2.6378    2.3479    0.0000 C   0  0  0  0  0  0  0  0  0  0  0  0
  1  2  1  0
  2  3  2  0
  2  7  1  0
  3  4  1  0
  4  5  2  0
  5  6  1  0
  6  7  2  0
  7  8  1  0
  8  9  1  0
  9 10  2  0
  9 11  2  0
  9 12  1  0
 12 13  2  0
 12 19  1  0
 13 14  1  0
 13 15  1  0
 15 16  2  0
 16 17  1  0
 16 18  1  0
 18 19  2  0
 18 20  1  0
 20 21  2  0
 20 22  1  0
 22 23  1  0
 22 30  1  0
 23 24  1  0
 24 25  1  0
 25 26  1  0
 26 27  1  0
 27 28  1  0
 29 28  1  6
 29 25  1  0
 29 30  1  0
M  END
>  <DRUGBANK_ID>  (1) 
DB15055

>  <COMMON_NAME>  (1) 
ABT-639

>  <CAS_NUMBER>  (1) 
1235560-28-7

>  <UNII>  (1) 
0G7D0CQ88I

$$$$
