
     RDKit          2D

  8  7  0  0  1  0  0  0  0  0999 V2000
   27.4081  -13.7192    0.0000 Se  0  0  0  0  0  2  0  0  0  0  0  0
   29.5516  -12.4817    0.0000 O   0  0  0  0  0  0  0  0  0  0  0  0
   28.8371  -11.2442    0.0000 O   0  0  0  0  0  0  0  0  0  0  0  0
   27.4081  -12.0692    0.0000 N   0  0  0  0  0  0  0  0  0  0  0  0
   28.1226  -12.4817    0.0000 C   0  0  0  0  0  0  0  0  0  0  0  0
   28.1226  -13.3067    0.0000 C   0  0  0  0  0  0  0  0  0  0  0  0
   27.4081  -14.5442    0.0000 C   0  0  0  0  0  0  0  0  0  0  0  0
   28.8371  -12.0692    0.0000 C   0  0  0  0  0  0  0  0  0  0  0  0
  1  6  1  0
  1  7  1  0
  2  8  1  0
  3  8  2  0
  5  4  1  6
  5  6  1  0
  5  8  1  0
M  END
>  <DRUGBANK_ID>  (1) 
DB12697

>  <COMMON_NAME>  (1) 
Methylselenocysteine

>  <CAS_NUMBER>  (1) 
26046-90-2

>  <UNII>  (1) 
TWK220499Z

>  <SYNONYMS>  (1) 
SE-METHYL-SELENO-L-CYSTEINE

$$$$
