4BR
     RDKit          2D

 13 13  0  0  0  0  0  0  0  0999 V2000
   -0.1455   -1.6096    0.0000 C   0  0  0  0  0  0  0  0  0  0  0  0
   -0.8600   -1.1971    0.0000 C   0  0  0  0  0  0  0  0  0  0  0  0
   -0.8600   -0.3721    0.0000 C   0  0  0  0  0  0  0  0  0  0  0  0
   -0.1455    0.0404    0.0000 C   0  0  0  0  0  0  0  0  0  0  0  0
    0.5689   -0.3721    0.0000 C   0  0  0  0  0  0  0  0  0  0  0  0
    0.5689   -1.1971    0.0000 C   0  0  0  0  0  0  0  0  0  0  0  0
    1.2834   -1.6096    0.0000 O   0  0  0  0  0  0  0  0  0  0  0  0
    1.9979   -1.1971    0.0000 C   0  0  0  0  0  0  0  0  0  0  0  0
    2.7124   -1.6096    0.0000 C   0  0  0  0  0  0  0  0  0  0  0  0
    3.4268   -1.1971    0.0000 P   0  0  0  0  0  0  0  0  0  0  0  0
    4.1413   -1.6096    0.0000 O   0  0  0  0  0  0  0  0  0  0  0  0
    3.4268   -0.3721    0.0000 O   0  0  0  0  0  0  0  0  0  0  0  0
   -1.5745    0.0404    0.0000 C   0  0  0  0  0  0  0  0  0  0  0  0
  1  2  2  0
  1  6  1  0
  2  3  1  0
  3  4  2  0
  3 13  1  0
  4  5  1  0
  5  6  2  0
  6  7  1  0
  7  8  1  0
  8  9  1  0
  9 10  1  0
 10 11  1  6
 10 12  2  0
M  CHG  1  11  -1
M  END
>  <DRUGBANK_ID>  (1) 
DB07103

>  <COMMON_NAME>  (1) 
2-(4-METHYLPHENOXY)ETHYLPHOSPHINATE

$$$$
