
     RDKit          2D

 30 32  0  0  0  0  0  0  0  0999 V2000
    2.4804   -0.3968    0.0000 N   0  0  0  0  0  0  0  0  0  0  0  0
    1.9383   -1.0115    0.0000 C   0  0  0  0  0  0  0  0  0  0  0  0
    3.2982   -0.4791    0.0000 C   0  0  0  0  0  0  0  0  0  0  0  0
    1.1301   -0.8421    0.0000 C   0  0  0  0  0  0  0  0  0  0  0  0
    2.3061    0.4064    0.0000 C   0  0  0  0  0  0  0  0  0  0  0  0
    0.5831   -1.4567    0.0000 P   0  0  0  0  0  0  0  0  0  0  0  0
    3.6322    0.2758    0.0000 C   0  0  0  0  0  0  0  0  0  0  0  0
    3.0175    0.8275    0.0000 C   0  0  0  0  0  0  0  0  0  0  0  0
    3.7145   -1.1906    0.0000 C   0  0  0  0  0  0  0  0  0  0  0  0
    2.1948   -1.7907    0.0000 O   0  0  0  0  0  0  0  0  0  0  0  0
    0.3653   -0.6581    0.0000 O   0  0  0  0  0  0  0  0  0  0  0  0
    3.3080   -1.9020    0.0000 O   0  0  0  0  0  0  0  0  0  0  0  0
    2.4270    1.4131    0.0000 C   0  0  0  0  0  0  0  0  0  0  0  0
    0.8396   -2.2408    0.0000 O   0  0  0  0  0  0  0  0  0  0  0  0
    4.5373   -1.1808    0.0000 O   0  0  0  0  0  0  0  0  0  0  0  0
   -0.2250   -1.2922    0.0000 C   0  0  0  0  0  0  0  0  0  0  0  0
   -2.9305   -2.1875    0.0000 C   0  0  0  0  0  0  0  0  0  0  0  0
    2.6498    2.2165    0.0000 C   0  0  0  0  0  0  0  0  0  0  0  0
    1.6285    1.2003    0.0000 C   0  0  0  0  0  0  0  0  0  0  0  0
   -2.1222   -2.3569    0.0000 C   0  0  0  0  0  0  0  0  0  0  0  0
   -3.4724   -2.8070    0.0000 C   0  0  0  0  0  0  0  0  0  0  0  0
   -3.1820   -1.4084    0.0000 C   0  0  0  0  0  0  0  0  0  0  0  0
   -0.7719   -1.9068    0.0000 C   0  0  0  0  0  0  0  0  0  0  0  0
   -1.5753   -1.7424    0.0000 C   0  0  0  0  0  0  0  0  0  0  0  0
    1.0430    1.7858    0.0000 C   0  0  0  0  0  0  0  0  0  0  0  0
    2.0640    2.8070    0.0000 C   0  0  0  0  0  0  0  0  0  0  0  0
   -3.9904   -1.2438    0.0000 C   0  0  0  0  0  0  0  0  0  0  0  0
   -4.2710   -2.6376    0.0000 C   0  0  0  0  0  0  0  0  0  0  0  0
   -4.5373   -1.8585    0.0000 C   0  0  0  0  0  0  0  0  0  0  0  0
    1.2608    2.5940    0.0000 C   0  0  0  0  0  0  0  0  0  0  0  0
  2  1  1  0
  3  1  1  0
  3  9  1  1
  4  2  1  0
  5  1  1  0
  6  4  1  0
  7  3  1  0
  8  5  1  0
  8 13  1  6
  8  7  1  0
 10  2  2  0
 11  6  2  0
 12  9  2  0
 14  6  1  0
 15  9  1  0
 16  6  1  0
 17 20  1  0
 18 13  1  0
 19 13  1  0
 20 24  1  0
 21 17  2  0
 22 17  1  0
 23 16  1  0
 24 23  1  0
 25 19  1  0
 26 18  1  0
 27 22  2  0
 28 21  1  0
 29 28  2  0
 29 27  1  0
 30 25  1  0
 30 26  1  0
M  END
>  <DRUGBANK_ID>  (1) 
DB14207

>  <COMMON_NAME>  (1) 
Fosinoprilat

>  <CAS_NUMBER>  (1) 
95399-71-6

>  <UNII>  (1) 
S312EY6ZT8

>  <SYNONYMS>  (1) 
Fosinopril diacid; Fosinoprilat; Fosinoprilatum; Fosinoprilic acid

$$$$
