
     RDKit          2D

 26 29  0  0  0  0  0  0  0  0999 V2000
   -0.9355    0.4125    0.0000 F   0  0  0  0  0  0  0  0  0  0  0  0
   -0.9355   -0.4125    0.0000 C   0  0  0  0  0  0  0  0  0  0  0  0
   -0.2211   -0.8250    0.0000 C   0  0  0  0  0  0  0  0  0  0  0  0
   -0.2211   -1.6500    0.0000 C   0  0  0  0  0  0  0  0  0  0  0  0
   -0.9355   -2.0625    0.0000 C   0  0  0  0  0  0  0  0  0  0  0  0
   -1.6500   -1.6500    0.0000 C   0  0  0  0  0  0  0  0  0  0  0  0
   -1.6500   -0.8250    0.0000 C   0  0  0  0  0  0  0  0  0  0  0  0
   -0.9355   -2.8875    0.0000 P   0  0  0  0  0  0  0  0  0  0  0  0
   -0.9355   -3.7125    0.0000 C   0  0  0  0  0  0  0  0  0  0  0  0
   -0.2211   -4.1250    0.0000 C   0  0  0  0  0  0  0  0  0  0  0  0
   -0.2211   -4.9500    0.0000 C   0  0  0  0  0  0  0  0  0  0  0  0
   -0.9355   -5.3625    0.0000 C   0  0  0  0  0  0  0  0  0  0  0  0
   -1.6500   -4.9500    0.0000 C   0  0  0  0  0  0  0  0  0  0  0  0
   -1.6500   -4.1250    0.0000 C   0  0  0  0  0  0  0  0  0  0  0  0
   -1.7605   -2.8875    0.0000 C   0  0  0  0  0  0  0  0  0  0  0  0
   -2.1730   -3.6020    0.0000 C   0  0  0  0  0  0  0  0  0  0  0  0
   -2.9980   -3.6020    0.0000 C   0  0  0  0  0  0  0  0  0  0  0  0
   -3.4105   -2.8875    0.0000 C   0  0  0  0  0  0  0  0  0  0  0  0
   -2.9980   -2.1730    0.0000 C   0  0  0  0  0  0  0  0  0  0  0  0
   -2.1730   -2.1730    0.0000 C   0  0  0  0  0  0  0  0  0  0  0  0
   -0.1105   -2.8875    0.0000 C   0  0  0  0  0  0  0  0  0  0  0  0
    0.3020   -2.1730    0.0000 C   0  0  0  0  0  0  0  0  0  0  0  0
    1.1270   -2.1730    0.0000 C   0  0  0  0  0  0  0  0  0  0  0  0
    1.5395   -2.8875    0.0000 C   0  0  0  0  0  0  0  0  0  0  0  0
    1.1270   -3.6020    0.0000 C   0  0  0  0  0  0  0  0  0  0  0  0
    0.3020   -3.6020    0.0000 C   0  0  0  0  0  0  0  0  0  0  0  0
  1  2  1  0
  2  3  2  0
  2  7  1  0
  3  4  1  0
  4  5  2  0
  5  6  1  0
  5  8  1  0
  6  7  2  0
  8  9  1  0
  8 15  1  0
  8 21  1  0
  9 10  2  0
  9 14  1  0
 10 11  1  0
 11 12  2  0
 12 13  1  0
 13 14  2  0
 15 16  2  0
 15 20  1  0
 16 17  1  0
 17 18  2  0
 18 19  1  0
 19 20  2  0
 21 22  2  0
 21 26  1  0
 22 23  1  0
 23 24  2  0
 24 25  1  0
 25 26  2  0
M  CHG  1   8   1
M  ISO  1   1  18
M  END
>  <DRUGBANK_ID>  (1) 
DB15424

>  <COMMON_NAME>  (1) 
Bfpet F-18

>  <CAS_NUMBER>  (1) 
863644-14-8

>  <UNII>  (1) 
BHG7KQ27XV

>  <SYNONYMS>  (1) 
18F-TPP

$$$$
