
     RDKit          2D

 18 19  0  0  0  0  0  0  0  0999 V2000
    0.6732    0.2038    0.0000 N   0  0  0  0  0  0  0  0  0  0  0  0
    0.6476   -1.2343    0.0000 C   0  0  0  0  0  0  0  0  0  0  0  0
   -0.0295    1.4498    0.0000 N   0  0  0  0  0  0  0  0  0  0  0  0
   -0.0401    0.6084    0.0000 C   0  0  0  0  0  0  0  0  0  0  0  0
    1.3656    0.6084    0.0000 C   0  0  0  0  0  0  0  0  0  0  0  0
    0.3614   -2.0082    0.0000 C   0  0  0  0  0  0  0  0  0  0  0  0
    1.3656    1.4498    0.0000 C   0  0  0  0  0  0  0  0  0  0  0  0
   -0.0095   -0.7618    0.0000 O   0  0  0  0  0  0  0  0  0  0  0  0
    0.6732    1.8758    0.0000 C   0  0  0  0  0  0  0  0  0  0  0  0
   -0.4267   -2.0082    0.0000 C   0  0  0  0  0  0  0  0  0  0  0  0
   -0.7027   -1.2357    0.0000 C   0  0  0  0  0  0  0  0  0  0  0  0
   -0.7750    0.2038    0.0000 O   0  0  0  0  0  0  0  0  0  0  0  0
    0.8328   -2.6853    0.0000 F   0  0  0  0  0  0  0  0  0  0  0  0
    2.1004    1.8865    0.0000 I   0  0  0  0  0  0  0  0  0  0  0  0
    0.6732    2.6853    0.0000 N   0  0  0  0  0  0  0  0  0  0  0  0
   -0.9018   -2.6826    0.0000 O   0  0  0  0  0  0  0  0  0  0  0  0
   -1.4875   -0.9810    0.0000 C   0  0  0  0  0  0  0  0  0  0  0  0
   -2.1004   -1.5333    0.0000 O   0  0  0  0  0  0  0  0  0  0  0  0
  2  1  1  1
  3  4  1  0
  3  9  2  0
  4  1  1  0
  5  1  1  0
  6  2  1  0
  6 13  1  1
  7  5  2  0
  8  2  1  0
  9  7  1  0
 10  6  1  0
 10 16  1  6
 11  8  1  0
 11 17  1  1
 11 10  1  0
 12  4  2  0
 14  7  1  0
 15  9  1  0
 18 17  1  0
M  END
>  <DRUGBANK_ID>  (1) 
DB12901

>  <COMMON_NAME>  (1) 
Fiacitabine

>  <CAS_NUMBER>  (1) 
69123-90-6

>  <UNII>  (1) 
4058H365ZB

>  <SYNONYMS>  (1) 
FIAC; Fiacitabina; Fiacitabine; Fiacitabinum; Fluorviodoaracytidine

$$$$
