APL
     RDKit          2D

 19 19  0  0  0  0  0  0  0  0999 V2000
   -2.1925   -1.3342    0.0000 C   0  0  0  0  0  0  0  0  0  0  0  0
   -1.4130   -1.0641    0.0000 C   0  0  0  0  0  0  0  0  0  0  0  0
   -0.7893   -1.6042    0.0000 O   0  0  0  0  0  0  0  0  0  0  0  0
   -1.2570   -0.2540    0.0000 N   0  0  0  0  0  0  0  0  0  0  0  0
   -0.4775    0.0161    0.0000 C   0  0  0  0  0  0  0  0  0  0  0  0
    0.1462   -0.5240    0.0000 C   0  0  0  0  0  0  0  0  0  0  0  0
    0.7698   -1.0641    0.0000 C   0  0  0  0  0  0  0  0  0  0  0  0
   -0.3216    0.8262    0.0000 C   0  0  0  0  0  0  0  0  0  0  0  0
   -0.3939   -1.1477    0.0000 O   0  0  0  0  0  0  0  0  0  0  0  0
    0.6862    0.0996    0.0000 O   0  0  0  0  0  0  0  0  0  0  0  0
    0.2297   -1.6878    0.0000 F   0  0  0  0  0  0  0  0  0  0  0  0
    1.3099   -0.4405    0.0000 F   0  0  0  0  0  0  0  0  0  0  0  0
    1.3934   -1.6042    0.0000 F   0  0  0  0  0  0  0  0  0  0  0  0
    0.4580    1.0962    0.0000 C   0  0  0  0  0  0  0  0  0  0  0  0
    0.6139    1.9064    0.0000 C   0  0  0  0  0  0  0  0  0  0  0  0
    1.3934    2.1764    0.0000 C   0  0  0  0  0  0  0  0  0  0  0  0
    2.0171    1.6363    0.0000 C   0  0  0  0  0  0  0  0  0  0  0  0
    1.8612    0.8262    0.0000 C   0  0  0  0  0  0  0  0  0  0  0  0
    1.0816    0.5561    0.0000 C   0  0  0  0  0  0  0  0  0  0  0  0
  1  2  1  0
  2  3  2  0
  2  4  1  0
  5  4  1  0
  5  6  1  0
  5  8  1  1
  6  7  1  0
  6  9  1  0
  6 10  1  0
  7 11  1  0
  7 12  1  0
  7 13  1  0
  8 14  1  0
 14 15  2  0
 14 19  1  0
 15 16  1  0
 16 17  2  0
 17 18  1  0
 18 19  2  0
M  END
>  <DRUGBANK_ID>  (1) 
DB07383

>  <COMMON_NAME>  (1) 
N-(1-BENZYL-3,3,3-TRIFLUORO-2,2-DIHYDROXY-PROPYL)-ACETAMIDE

$$$$
