37U
     RDKit          2D

 27 29  0  0  0  0  0  0  0  0999 V2000
    0.0980    2.0660    0.0000 C   0  0  0  0  0  0  0  0  0  0  0  0
   -0.6164    2.4785    0.0000 C   0  0  0  0  0  0  0  0  0  0  0  0
   -1.3309    2.0660    0.0000 C   0  0  0  0  0  0  0  0  0  0  0  0
   -1.3309    1.2410    0.0000 N   0  0  0  0  0  0  0  0  0  0  0  0
   -2.0454    0.8285    0.0000 C   0  0  0  0  0  0  0  0  0  0  0  0
   -2.7599    1.2410    0.0000 O   0  0  0  0  0  0  0  0  0  0  0  0
   -2.0454    0.0035    0.0000 C   0  0  0  0  0  0  0  0  0  0  0  0
   -1.3779   -0.4814    0.0000 N   0  0  0  0  0  0  0  0  0  0  0  0
   -0.5933   -0.2265    0.0000 C   0  0  0  0  0  0  0  0  0  0  0  0
   -0.4218    0.5805    0.0000 O   0  0  0  0  0  0  0  0  0  0  0  0
    0.0198   -0.7785    0.0000 C   0  0  0  0  0  0  0  0  0  0  0  0
   -0.1518   -1.5855    0.0000 N   0  0  0  0  0  0  0  0  0  0  0  0
    0.8044   -0.5235    0.0000 C   0  0  0  0  0  0  0  0  0  0  0  0
    1.4175   -1.0756    0.0000 C   0  0  0  0  0  0  0  0  0  0  0  0
    2.2021   -0.8206    0.0000 C   0  0  0  0  0  0  0  0  0  0  0  0
    2.8152   -1.3727    0.0000 C   0  0  0  0  0  0  0  0  0  0  0  0
    2.6437   -2.1796    0.0000 C   0  0  0  0  0  0  0  0  0  0  0  0
    1.8590   -2.4346    0.0000 C   0  0  0  0  0  0  0  0  0  0  0  0
    1.2460   -1.8826    0.0000 C   0  0  0  0  0  0  0  0  0  0  0  0
   -1.6329   -1.2660    0.0000 C   0  0  0  0  0  0  0  0  0  0  0  0
   -2.4579   -1.2660    0.0000 C   0  0  0  0  0  0  0  0  0  0  0  0
   -2.7128   -0.4814    0.0000 C   0  0  0  0  0  0  0  0  0  0  0  0
   -0.6164    3.3035    0.0000 C   0  0  0  0  0  0  0  0  0  0  0  0
    0.0980    3.7160    0.0000 C   0  0  0  0  0  0  0  0  0  0  0  0
    0.0980    4.5410    0.0000 F   0  0  0  0  0  0  0  0  0  0  0  0
    0.8125    3.3035    0.0000 C   0  0  0  0  0  0  0  0  0  0  0  0
    0.8125    2.4785    0.0000 C   0  0  0  0  0  0  0  0  0  0  0  0
  1  2  2  0
  1 27  1  0
  2  3  1  0
  2 23  1  0
  3  4  1  0
  4  5  1  0
  5  6  2  0
  7  5  1  1
  7  8  1  0
  7 22  1  0
  8  9  1  0
  8 20  1  0
  9 10  2  0
  9 11  1  0
 11 12  1  1
 11 13  1  0
 13 14  1  0
 14 15  2  0
 14 19  1  0
 15 16  1  0
 16 17  2  0
 17 18  1  0
 18 19  2  0
 20 21  1  0
 21 22  1  0
 23 24  2  0
 24 25  1  0
 24 26  1  0
 26 27  2  0
M  END
>  <DRUGBANK_ID>  (1) 
DB07027

>  <COMMON_NAME>  (1) 
D-phenylalanyl-N-(3-fluorobenzyl)-L-prolinamide

$$$$
