SM2
     RDKit          2D

 22 23  0  0  0  0  0  0  0  0999 V2000
   -2.9889    1.5395    0.0000 C   0  0  0  0  0  0  0  0  0  0  0  0
   -3.1605    2.3465    0.0000 C   0  0  0  0  0  0  0  0  0  0  0  0
   -2.4460    2.7590    0.0000 C   0  0  0  0  0  0  0  0  0  0  0  0
   -1.8329    2.2069    0.0000 S   0  0  0  0  0  0  0  0  0  0  0  0
   -2.1685    1.4533    0.0000 C   0  0  0  0  0  0  0  0  0  0  0  0
   -1.7560    0.7388    0.0000 C   0  0  0  0  0  0  0  0  0  0  0  0
   -0.9310    0.7388    0.0000 C   0  0  0  0  0  0  0  0  0  0  0  0
   -0.5185    1.4533    0.0000 O   0  0  0  0  0  0  0  0  0  0  0  0
   -0.5185    0.0243    0.0000 N   0  0  0  0  0  0  0  0  0  0  0  0
    0.3065    0.0243    0.0000 C   0  0  0  0  0  0  0  0  0  0  0  0
    0.7190    0.7388    0.0000 B   0  0  0  0  0  0  0  0  0  0  0  0
    0.3065    1.4533    0.0000 O   0  0  0  0  0  0  0  0  0  0  0  0
    1.5440    0.7388    0.0000 O   0  0  0  0  0  0  0  0  0  0  0  0
    0.7190   -0.6902    0.0000 C   0  0  0  0  0  0  0  0  0  0  0  0
    1.5440   -0.6902    0.0000 C   0  0  0  0  0  0  0  0  0  0  0  0
    0.3065   -1.4046    0.0000 C   0  0  0  0  0  0  0  0  0  0  0  0
    0.7190   -2.1191    0.0000 C   0  0  0  0  0  0  0  0  0  0  0  0
    1.5440   -2.1191    0.0000 C   0  0  0  0  0  0  0  0  0  0  0  0
    1.9565   -1.4046    0.0000 C   0  0  0  0  0  0  0  0  0  0  0  0
    2.7815   -1.4046    0.0000 C   0  0  0  0  0  0  0  0  0  0  0  0
    3.1940   -0.6902    0.0000 O   0  0  0  0  0  0  0  0  0  0  0  0
    3.1940   -2.1191    0.0000 O   0  0  0  0  0  0  0  0  0  0  0  0
  1  2  1  0
  1  5  2  0
  2  3  2  0
  3  4  1  0
  4  5  1  0
  5  6  1  0
  6  7  1  0
  7  8  2  0
  7  9  1  0
 10  9  1  6
 10 11  1  0
 10 14  1  0
 11 12  1  0
 11 13  1  0
 14 15  2  0
 14 16  1  0
 15 19  1  0
 16 17  2  0
 17 18  1  0
 18 19  2  0
 19 20  1  0
 20 21  2  0
 20 22  1  0
M  END
>  <DRUGBANK_ID>  (1) 
DB08551

>  <COMMON_NAME>  (1) 
3-{(R)-(Dihydroxyboryl)[(2-thienylacetyl)amino]methyl}benzoic acid

>  <CAS_NUMBER>  (1) 
497258-67-0

$$$$
