
     RDKit          2D

 23 24  0  0  0  0  0  0  0  0999 V2000
   -2.8684   -2.6657    0.0000 C   0  0  0  0  0  0  0  0  0  0  0  0
   -2.6969   -3.4726    0.0000 N   0  0  0  0  0  0  0  0  0  0  0  0
   -1.9432   -3.8082    0.0000 C   0  0  0  0  0  0  0  0  0  0  0  0
   -1.2288   -3.3957    0.0000 C   0  0  0  0  0  0  0  0  0  0  0  0
   -0.5143   -3.8082    0.0000 C   0  0  0  0  0  0  0  0  0  0  0  0
   -0.5143   -4.6332    0.0000 O   0  0  0  0  0  0  0  0  0  0  0  0
    0.2002   -3.3957    0.0000 N   0  0  0  0  0  0  0  0  0  0  0  0
    0.9146   -3.8082    0.0000 C   0  0  0  0  0  0  0  0  0  0  0  0
    1.6291   -3.3957    0.0000 C   0  0  0  0  0  0  0  0  0  0  0  0
    2.3436   -3.8082    0.0000 O   0  0  0  0  0  0  0  0  0  0  0  0
    1.6291   -2.5707    0.0000 O   0  0  0  0  0  0  0  0  0  0  0  0
   -2.0295   -4.6287    0.0000 C   0  0  0  0  0  0  0  0  0  0  0  0
   -2.8364   -4.8002    0.0000 C   0  0  0  0  0  0  0  0  0  0  0  0
   -3.2489   -4.0857    0.0000 C   0  0  0  0  0  0  0  0  0  0  0  0
   -4.0694   -3.9995    0.0000 C   0  0  0  0  0  0  0  0  0  0  0  0
   -4.4050   -3.2458    0.0000 O   0  0  0  0  0  0  0  0  0  0  0  0
   -4.5543   -4.6669    0.0000 C   0  0  0  0  0  0  0  0  0  0  0  0
   -4.2188   -5.4206    0.0000 C   0  0  0  0  0  0  0  0  0  0  0  0
   -4.7037   -6.0880    0.0000 C   0  0  0  0  0  0  0  0  0  0  0  0
   -5.5242   -6.0018    0.0000 C   0  0  0  0  0  0  0  0  0  0  0  0
   -6.0091   -6.6692    0.0000 C   0  0  0  0  0  0  0  0  0  0  0  0
   -5.8598   -5.2481    0.0000 C   0  0  0  0  0  0  0  0  0  0  0  0
   -5.3748   -4.5807    0.0000 C   0  0  0  0  0  0  0  0  0  0  0  0
  1  2  1  0
  2  3  1  0
  2 14  1  0
  3  4  1  0
  3 12  2  0
  4  5  1  0
  5  6  2  0
  5  7  1  0
  7  8  1  0
  8  9  1  0
  9 10  1  0
  9 11  2  0
 12 13  1  0
 13 14  2  0
 14 15  1  0
 15 16  2  0
 15 17  1  0
 17 18  2  0
 17 23  1  0
 18 19  1  0
 19 20  2  0
 20 21  1  0
 20 22  1  0
 22 23  2  0
M  END
>  <DRUGBANK_ID>  (1) 
DB16088

>  <COMMON_NAME>  (1) 
Amtolmetin guacil

>  <CAS_NUMBER>  (1) 
87344-05-6

>  <UNII>  (1) 
3RS348SV6U

>  <SYNONYMS>  (1) 
Amtolmetin; Tolmetin glycine amide

$$$$
