
     RDKit          2D

 14 12  0  0  0  0  0  0  0  0999 V2000
    1.6795    0.4273    0.0000 O   0  0  0  0  0  0  0  0  0  0  0  0
    2.6960    1.1418    0.0000 O   0  0  0  0  0  0  0  0  0  0  0  0
    1.9815    2.3793    0.0000 O   0  0  0  0  0  0  0  0  0  0  0  0
   -0.1619   -0.5082    0.0000 O   0  0  0  0  0  0  0  0  0  0  0  0
   -0.3830    2.5707    0.0000 O   0  0  0  0  0  0  0  0  0  0  0  0
    1.2670   -0.5082    0.0000 O   0  0  0  0  0  0  0  0  0  0  0  0
   -0.3830    1.1418    0.0000 O   0  0  0  0  0  0  0  0  0  0  0  0
    1.2670    1.1418    0.0000 C   0  0  0  0  0  0  0  0  0  0  0  0
    0.5526    0.7293    0.0000 C   0  0  0  0  0  0  0  0  0  0  0  0
    0.8545    1.8563    0.0000 C   0  0  0  0  0  0  0  0  0  0  0  0
    1.9815    1.5543    0.0000 C   0  0  0  0  0  0  0  0  0  0  0  0
    0.5526   -0.0957    0.0000 C   0  0  0  0  0  0  0  0  0  0  0  0
    0.0295    1.8563    0.0000 C   0  0  0  0  0  0  0  0  0  0  0  0
    3.5161    2.2196    0.0000 Ga  0  0  0  0  0 15  0  0  0  0  0  0
  1  8  1  0
  2 11  1  0
  3 11  2  0
  4 12  1  0
  5 13  1  0
  6 12  2  0
  7 13  2  0
  8  9  1  0
  8 10  1  0
  8 11  1  0
  9 12  1  0
 10 13  1  0
M  CHG  4   2  -1   4  -1   5  -1  14   3
M  ISO  1  14  67
M  END
>  <DRUGBANK_ID>  (1) 
DB06784

>  <SECONDARY_ACCESSION_NUMBERS>  (1) 
DB09412

>  <COMMON_NAME>  (1) 
Gallium citrate Ga-67

>  <CAS_NUMBER>  (1) 
41183-64-6

>  <UNII>  (1) 
4LJK511Z86

>  <SYNONYMS>  (1) 
Gallium (67 Ga) citrate; Gallium citrate Ga 67; Gallium citrate Ga-67; Gallium-67 Citrate

$$$$
