
     RDKit          2D

 27 24  0  0  0  0  0  0  0  0999 V2000
   -5.5869    0.1873    0.0000 C   0  0  0  0  0  0  0  0  0  0  0  0
   -4.8724   -0.2251    0.0000 C   0  0  0  0  0  0  0  0  0  0  0  0
   -4.1579    0.1873    0.0000 C   0  0  0  0  0  0  0  0  0  0  0  0
   -3.4435   -0.2251    0.0000 C   0  0  0  0  0  0  0  0  0  0  0  0
   -2.7290    0.1873    0.0000 C   0  0  0  0  0  0  0  0  0  0  0  0
   -2.0145   -0.2251    0.0000 C   0  0  0  0  0  0  0  0  0  0  0  0
   -6.3013   -0.2251    0.0000 O   0  0  0  0  0  0  0  0  0  0  0  0
   -4.8724   -1.0501    0.0000 O   0  0  0  0  0  0  0  0  0  0  0  0
   -4.1579    1.0123    0.0000 O   0  0  0  0  0  0  0  0  0  0  0  0
   -3.4435   -1.0501    0.0000 O   0  0  0  0  0  0  0  0  0  0  0  0
   -2.7290    1.0123    0.0000 O   0  0  0  0  0  0  0  0  0  0  0  0
   -2.0145   -1.0501    0.0000 O   0  0  0  0  0  0  0  0  0  0  0  0
   -1.3000    0.1873    0.0000 O   0  0  0  0  0  0  0  0  0  0  0  0
    2.0145    0.2251    0.0000 C   0  0  0  0  0  0  0  0  0  0  0  0
    2.7290   -0.1873    0.0000 C   0  0  0  0  0  0  0  0  0  0  0  0
    3.4435    0.2251    0.0000 C   0  0  0  0  0  0  0  0  0  0  0  0
    4.1579   -0.1873    0.0000 C   0  0  0  0  0  0  0  0  0  0  0  0
    4.8724    0.2251    0.0000 C   0  0  0  0  0  0  0  0  0  0  0  0
    5.5869   -0.1873    0.0000 C   0  0  0  0  0  0  0  0  0  0  0  0
    1.3000   -0.1873    0.0000 O   0  0  0  0  0  0  0  0  0  0  0  0
    2.7290   -1.0123    0.0000 O   0  0  0  0  0  0  0  0  0  0  0  0
    3.4435    1.0501    0.0000 O   0  0  0  0  0  0  0  0  0  0  0  0
    4.1579   -1.0123    0.0000 O   0  0  0  0  0  0  0  0  0  0  0  0
    4.8724    1.0501    0.0000 O   0  0  0  0  0  0  0  0  0  0  0  0
    6.3013    0.2251    0.0000 O   0  0  0  0  0  0  0  0  0  0  0  0
    5.5869   -1.0123    0.0000 O   0  0  0  0  0  0  0  0  0  0  0  0
   -0.5856    0.5998    0.0000 Mn  0  0  0  0  0 15  0  0  0  0  0  0
  2  1  1  0
  2  8  1  6
  3  2  1  0
  3  4  1  0
  3  9  1  1
  4  5  1  0
  4 10  1  1
  5  6  1  0
  5 11  1  1
  7  1  1  0
 12  6  2  0
 13  6  1  0
 15 14  1  0
 15 21  1  6
 16 15  1  0
 16 17  1  0
 16 22  1  1
 17 18  1  0
 17 23  1  1
 18 19  1  0
 18 24  1  1
 20 14  1  0
 25 19  2  0
 26 19  1  0
M  CHG  3  13  -1  26  -1  27   2
M  END
>  <DRUGBANK_ID>  (1) 
DB11141

>  <COMMON_NAME>  (1) 
Manganese gluconate

>  <CAS_NUMBER>  (1) 
6485-39-8

>  <UNII>  (1) 
7G09WJ8QIR

>  <SYNONYMS>  (1) 
Manganese D-gluconate; Manganese gluconate anhydrous; Manganese(II) gluconate

$$$$
