A56
     RDKit          2D

 19 21  0  0  0  0  0  0  0  0999 V2000
   -2.9482   -1.3830    0.0000 C   0  0  0  0  0  0  0  0  0  0  0  0
   -2.2337   -1.7955    0.0000 C   0  0  0  0  0  0  0  0  0  0  0  0
   -1.5192   -1.3830    0.0000 C   0  0  0  0  0  0  0  0  0  0  0  0
   -1.5192   -0.5580    0.0000 C   0  0  0  0  0  0  0  0  0  0  0  0
   -2.2337   -0.1455    0.0000 C   0  0  0  0  0  0  0  0  0  0  0  0
   -2.9482   -0.5580    0.0000 C   0  0  0  0  0  0  0  0  0  0  0  0
   -0.8048   -1.7955    0.0000 C   0  0  0  0  0  0  0  0  0  0  0  0
   -0.0903   -1.3830    0.0000 C   0  0  0  0  0  0  0  0  0  0  0  0
   -0.0903   -0.5580    0.0000 C   0  0  0  0  0  0  0  0  0  0  0  0
   -0.8048   -0.1455    0.0000 C   0  0  0  0  0  0  0  0  0  0  0  0
    0.6242   -1.7955    0.0000 Br  0  0  0  0  0  0  0  0  0  0  0  0
    0.6242   -0.1455    0.0000 C   0  0  0  0  0  0  0  0  0  0  0  0
    1.3386   -0.5580    0.0000 N   0  0  0  0  0  0  0  0  0  0  0  0
    2.0531   -0.1455    0.0000 C   0  0  0  0  0  0  0  0  0  0  0  0
    2.0531    0.6795    0.0000 N   0  0  0  0  0  0  0  0  0  0  0  0
    1.3386    1.0920    0.0000 C   0  0  0  0  0  0  0  0  0  0  0  0
    0.6242    0.6795    0.0000 N   0  0  0  0  0  0  0  0  0  0  0  0
    1.3386    1.9170    0.0000 N   0  0  0  0  0  0  0  0  0  0  0  0
    2.7676   -0.5580    0.0000 N   0  0  0  0  0  0  0  0  0  0  0  0
  1  6  2  0
  1  2  1  0
  2  3  2  0
  3  4  1  0
  3  7  1  0
  4 10  1  0
  4  5  2  0
  5  6  1  0
  7  8  2  0
  8  9  1  0
  8 11  1  0
  9 12  1  0
  9 10  2  0
 12 17  1  0
 12 13  2  0
 13 14  1  0
 14 15  2  0
 14 19  1  0
 15 16  1  0
 16 18  1  0
 16 17  2  0
M  END
>  <DRUGBANK_ID>  (1) 
DB07319

>  <COMMON_NAME>  (1) 
6-(3-BROMO-2-NAPHTHYL)-1,3,5-TRIAZINE-2,4-DIAMINE

$$$$
