
     RDKit          2D

  9  8  0  0  1  0  0  0  0  0999 V2000
    1.9520    1.9520    0.0000 N   0  0  0  0  0  0  0  0  0  0  0  0
    1.9520    1.1270    0.0000 C   0  0  0  0  0  0  0  0  0  0  0  0
    1.2375    0.7145    0.0000 C   0  0  0  0  0  0  0  0  0  0  0  0
    0.5230    1.1270    0.0000 S   0  0  0  0  0  0  0  0  0  0  0  0
   -0.1914    0.7145    0.0000 O   0  0  0  0  0  0  0  0  0  0  0  0
    0.5230    1.9520    0.0000 O   0  0  0  0  0  0  0  0  0  0  0  0
    2.6664    0.7145    0.0000 C   0  0  0  0  0  0  0  0  0  0  0  0
    3.3809    1.1270    0.0000 O   0  0  0  0  0  0  0  0  0  0  0  0
    2.6664   -0.1105    0.0000 O   0  0  0  0  0  0  0  0  0  0  0  0
  2  1  1  6
  2  3  1  0
  2  7  1  0
  3  4  1  0
  4  5  1  0
  4  6  2  0
  7  8  1  0
  7  9  2  0
M  END
>  <DRUGBANK_ID>  (1) 
DB02153

>  <SECONDARY_ACCESSION_NUMBERS>  (1) 
EXPT01040; EXPT01032; DB01769

>  <COMMON_NAME>  (1) 
3-sulfino-L-alanine

>  <CAS_NUMBER>  (1) 
1115-65-7

>  <UNII>  (1) 
56X032NVQL

>  <SYNONYMS>  (1) 
(2R)-2-amino-3-sulfinopropanoic acid; 3-sulfinoalanine; 3-Sulphino-L-alanine; L-Cysteinesulfinic acid; S-Cysteinesulfinic acid; S-Sulfinocysteine

$$$$
