
     RDKit          2D

  9  8  0  0  0  0  0  0  0  0999 V2000
   -0.7145   -0.2062    0.0000 C   0  0  0  0  0  0  0  0  0  0  0  0
    0.0000    0.2062    0.0000 C   0  0  0  0  0  0  0  0  0  0  0  0
    0.7145   -0.2062    0.0000 C   0  0  0  0  0  0  0  0  0  0  0  0
   -1.4291    0.2062    0.0000 C   0  0  0  0  0  0  0  0  0  0  0  0
   -2.1436   -0.2062    0.0000 O   0  0  0  0  0  0  0  0  0  0  0  0
   -1.4291    1.0313    0.0000 O   0  0  0  0  0  0  0  0  0  0  0  0
    0.7145   -1.0313    0.0000 O   0  0  0  0  0  0  0  0  0  0  0  0
    1.4291    0.2062    0.0000 O   0  0  0  0  0  0  0  0  0  0  0  0
    2.1436   -0.2062    0.0000 C   0  0  0  0  0  0  0  0  0  0  0  0
  1  2  2  0
  1  4  1  0
  2  3  1  0
  3  7  2  0
  3  8  1  0
  4  5  1  0
  4  6  2  0
  8  9  1  0
M  END
>  <DRUGBANK_ID>  (1) 
DB14219

>  <COMMON_NAME>  (1) 
Monomethyl fumarate

>  <CAS_NUMBER>  (1) 
2756-87-8

>  <UNII>  (1) 
45IUB1PX8R

>  <SYNONYMS>  (1) 
Fumaric acid monomethyl ester; Methyl hydrogen fumarate; MMF; Monomethyl fumarate

$$$$
