
     RDKit          2D

 14 14  0  0  0  0  0  0  0  0999 V2000
   -1.7785   -0.6060    0.0000 C   0  0  0  0  0  0  0  0  0  0  0  0
   -1.0618   -0.1975    0.0000 C   0  0  0  0  0  0  0  0  0  0  0  0
   -2.4974   -0.1975    0.0000 C   0  0  0  0  0  0  0  0  0  0  0  0
   -1.7785   -1.4558    0.0000 C   0  0  0  0  0  0  0  0  0  0  0  0
   -1.0618    0.6233    0.0000 C   0  0  0  0  0  0  0  0  0  0  0  0
   -2.4974    0.6194    0.0000 C   0  0  0  0  0  0  0  0  0  0  0  0
   -1.0618   -1.8682    0.0000 C   0  0  0  0  0  0  0  0  0  0  0  0
   -1.7651    1.0319    0.0000 C   0  0  0  0  0  0  0  0  0  0  0  0
   -0.3526   -1.4443    0.0000 C   0  0  0  0  0  0  0  0  0  0  0  0
   -1.7651    1.8682    0.0000 O   0  0  0  0  0  0  0  0  0  0  0  0
    0.3429   -1.8624    0.0000 C   0  0  0  0  0  0  0  0  0  0  0  0
    1.0579   -1.4558    0.0000 C   0  0  0  0  0  0  0  0  0  0  0  0
    1.7670   -1.8682    0.0000 C   0  0  0  0  0  0  0  0  0  0  0  0
    2.4974   -1.4577    0.0000 C   0  0  0  0  0  0  0  0  0  0  0  0
  1  2  2  0
  1  3  1  0
  1  4  1  0
  2  5  1  0
  3  6  2  0
  4  7  1  0
  5  8  2  0
  6  8  1  0
  7  9  1  0
  8 10  1  0
  9 11  1  0
 11 12  1  0
 12 13  1  0
 13 14  1  0
M  END
>  <DRUGBANK_ID>  (1) 
DB03941

>  <SECONDARY_ACCESSION_NUMBERS>  (1) 
EXPT01353

>  <COMMON_NAME>  (1) 
p-Heptylphenol

>  <CAS_NUMBER>  (1) 
1987-50-4

>  <UNII>  (1) 
I743Z35DVB

>  <SYNONYMS>  (1) 
4-Heptylphenol; 4-n-Heptylphenol; p-Hydroxyheptylbenzene

$$$$
