
     RDKit          2D

 17 18  0  0  0  0  0  0  0  0999 V2000
   -0.1439    0.3651    0.0000 S   0  0  0  0  0  0  0  0  0  0  0  0
    0.5234   -0.1197    0.0000 C   0  0  0  0  0  0  0  0  0  0  0  0
    1.1908    0.3652    0.0000 N   0  0  0  0  0  0  0  0  0  0  0  0
    0.9359    1.1498    0.0000 C   0  0  0  0  0  0  0  0  0  0  0  0
    0.1109    1.1498    0.0000 C   0  0  0  0  0  0  0  0  0  0  0  0
    1.4207    1.8172    0.0000 C   0  0  0  0  0  0  0  0  0  0  0  0
    2.2413    1.7312    0.0000 N   0  0  0  0  0  0  0  0  0  0  0  0
    1.0851    2.5710    0.0000 O   0  0  0  0  0  0  0  0  0  0  0  0
    0.4912   -1.1190    0.0000 C   0  0  0  0  0  0  0  0  0  0  0  0
    0.2486   -1.9036    0.0000 C   0  0  0  0  0  0  0  0  0  0  0  0
    0.7212   -2.5711    0.0000 O   0  0  0  0  0  0  0  0  0  0  0  0
   -0.5763   -1.9036    0.0000 C   0  0  0  0  0  0  0  0  0  0  0  0
   -1.0735   -2.5711    0.0000 O   0  0  0  0  0  0  0  0  0  0  0  0
   -0.8435   -1.1190    0.0000 C   0  0  0  0  0  0  0  0  0  0  0  0
   -0.1761   -0.6341    0.0000 O   0  0  0  0  0  0  0  0  0  0  0  0
   -1.6281   -0.8640    0.0000 C   0  0  0  0  0  0  0  0  0  0  0  0
   -2.2413   -1.4160    0.0000 O   0  0  0  0  0  0  0  0  0  0  0  0
  1  2  1  0
  1  5  1  0
  2  3  2  0
  3  4  1  0
  4  5  2  0
  4  6  1  0
  6  7  1  0
  6  8  2  0
  9 10  1  0
  9 15  1  0
  9  2  1  1
 10 11  1  6
 10 12  1  0
 12 13  1  6
 12 14  1  0
 14 15  1  0
 14 16  1  1
 16 17  1  0
M  END
>  <DRUGBANK_ID>  (1) 
DB13243

>  <COMMON_NAME>  (1) 
Tiazofurine

>  <CAS_NUMBER>  (1) 
60084-10-8

>  <UNII>  (1) 
ULJ82834RE

>  <SYNONYMS>  (1) 
2-(β-D-ribofuranosyl)-4-thiazolecarboxamide; 2-Beta-D-ribofuranosyl-4-thiazolecarboxamide; 2-β-D-ribofuranosyl-4-thiazolecarboxamide; TCAR; Tiazofurin; Tiazofurina; Tiazofurine; Tiazofurinum

$$$$
