
     RDKit          2D

 31 36  0  0  0  0  0  0  0  0999 V2000
    3.1505    1.1699    0.0000 C   0  0  0  0  0  0  0  0  0  0  0  0
    2.5446    1.7476    0.0000 C   0  0  0  0  0  0  0  0  0  0  0  0
    3.1505    2.3490    0.0000 C   0  0  0  0  0  0  0  0  0  0  0  0
    3.7238    1.7476    0.0000 C   0  0  0  0  0  0  0  0  0  0  0  0
    1.8269    1.3329    0.0000 C   0  0  0  0  0  0  0  0  0  0  0  0
    1.1137    1.7476    0.0000 C   0  0  0  0  0  0  0  0  0  0  0  0
    0.4008    1.3329    0.0000 C   0  0  0  0  0  0  0  0  0  0  0  0
    0.4008    0.5079    0.0000 C   0  0  0  0  0  0  0  0  0  0  0  0
   -0.3168    0.0978    0.0000 C   0  0  0  0  0  0  0  0  0  0  0  0
   -0.3168   -0.7270    0.0000 N   0  0  0  0  0  0  0  0  0  0  0  0
   -1.0300   -1.1417    0.0000 C   0  0  0  0  0  0  0  0  0  0  0  0
   -1.0300   -1.9666    0.0000 C   0  0  0  0  0  0  0  0  0  0  0  0
   -1.7477   -2.3769    0.0000 C   0  0  0  0  0  0  0  0  0  0  0  0
   -2.4607   -1.9666    0.0000 N   0  0  0  0  0  0  0  0  0  0  0  0
   -2.4607   -1.1417    0.0000 C   0  0  0  0  0  0  0  0  0  0  0  0
   -1.7477   -0.7270    0.0000 C   0  0  0  0  0  0  0  0  0  0  0  0
   -1.7477    0.0978    0.0000 C   0  0  0  0  0  0  0  0  0  0  0  0
   -1.0300    0.5079    0.0000 C   0  0  0  0  0  0  0  0  0  0  0  0
   -1.0300    1.3329    0.0000 C   0  0  0  0  0  0  0  0  0  0  0  0
   -1.7477    1.7476    0.0000 C   0  0  0  0  0  0  0  0  0  0  0  0
   -1.7477    2.5726    0.0000 C   0  0  0  0  0  0  0  0  0  0  0  0
   -1.0300    2.9827    0.0000 C   0  0  0  0  0  0  0  0  0  0  0  0
   -0.3168    2.5726    0.0000 C   0  0  0  0  0  0  0  0  0  0  0  0
   -0.3168    1.7476    0.0000 C   0  0  0  0  0  0  0  0  0  0  0  0
   -3.2298   -0.8668    0.0000 N   0  0  0  0  0  0  0  0  0  0  0  0
   -3.7238   -1.5520    0.0000 N   0  0  0  0  0  0  0  0  0  0  0  0
   -3.2298   -2.2137    0.0000 C   0  0  0  0  0  0  0  0  0  0  0  0
   -3.4768   -2.9827    0.0000 O   0  0  0  0  0  0  0  0  0  0  0  0
    1.1137    0.0978    0.0000 C   0  0  0  0  0  0  0  0  0  0  0  0
    1.8269    0.5079    0.0000 C   0  0  0  0  0  0  0  0  0  0  0  0
    1.8269    2.1578    0.0000 N   0  0  0  0  0  0  0  0  0  0  0  0
  1  4  1  0
  2  1  1  0
  2  3  1  0
  2 31  1  0
  4  3  1  0
  5  2  1  0
  5 30  1  0
  6  5  2  0
  7  6  1  0
  8  7  2  0
  8 29  1  0
  9  8  1  0
  9 18  1  0
 10  9  2  0
 10 11  1  0
 12 11  1  0
 13 12  2  0
 14 13  1  0
 14 27  1  0
 15 14  1  0
 15 25  2  0
 16 15  1  0
 16 11  2  0
 17 16  1  0
 18 17  2  0
 18 19  1  0
 19 20  2  0
 19 24  1  0
 20 21  1  0
 21 22  2  0
 22 23  1  0
 23 24  2  0
 26 25  1  0
 26 27  1  0
 27 28  2  0
 30 29  2  0
M  END
>  <DRUGBANK_ID>  (1) 
DB16828

>  <COMMON_NAME>  (1) 
MK-2206

>  <CAS_NUMBER>  (1) 
1032349-93-1

>  <UNII>  (1) 
51HZG6MP1K

>  <SYNONYMS>  (1) 
1,2,4-Triazolo(3,4-f)(1,6)naphthyridin-3(2H)-one, 8-(4-(1-aminocyclobutyl)phenyl)-9-phenyl-; 8-(4-(1-aminocyclobutyl)phenyl)-9-phenyl-[1,2,4]triazolo[3,4-f][1,6]naphthyridin-3(2H)-one; MK-2206 free base

$$$$
