
     RDKit          2D

 30 33  0  0  0  0  0  0  0  0999 V2000
    0.8236   -7.9546    0.0000 F   0  0  0  0  0  0  0  0  0  0  0  0
    0.3387   -7.2871    0.0000 C   0  0  0  0  0  0  0  0  0  0  0  0
   -0.4818   -7.3734    0.0000 C   0  0  0  0  0  0  0  0  0  0  0  0
   -0.9667   -6.7059    0.0000 C   0  0  0  0  0  0  0  0  0  0  0  0
   -0.6312   -5.9522    0.0000 C   0  0  0  0  0  0  0  0  0  0  0  0
    0.1893   -5.8660    0.0000 N   0  0  0  0  0  0  0  0  0  0  0  0
    0.6742   -6.5335    0.0000 C   0  0  0  0  0  0  0  0  0  0  0  0
    1.4947   -6.4472    0.0000 C   0  0  0  0  0  0  0  0  0  0  0  0
    1.8303   -5.6935    0.0000 N   0  0  0  0  0  0  0  0  0  0  0  0
    2.6507   -5.6073    0.0000 C   0  0  0  0  0  0  0  0  0  0  0  0
    3.1357   -6.2747    0.0000 O   0  0  0  0  0  0  0  0  0  0  0  0
    2.9863   -4.8536    0.0000 C   0  0  0  0  0  0  0  0  0  0  0  0
    2.5738   -4.1392    0.0000 C   0  0  0  0  0  0  0  0  0  0  0  0
    3.1258   -3.5261    0.0000 O   0  0  0  0  0  0  0  0  0  0  0  0
    3.8795   -3.8616    0.0000 C   0  0  0  0  0  0  0  0  0  0  0  0
    4.5940   -3.4491    0.0000 C   0  0  0  0  0  0  0  0  0  0  0  0
    5.3084   -3.8616    0.0000 C   0  0  0  0  0  0  0  0  0  0  0  0
    6.0229   -3.4491    0.0000 N   0  0  0  0  0  0  0  0  0  0  0  0
    6.7374   -3.8616    0.0000 C   0  0  0  0  0  0  0  0  0  0  0  0
    7.4519   -3.4491    0.0000 C   0  0  0  0  0  0  0  0  0  0  0  0
    8.1663   -3.8616    0.0000 C   0  0  0  0  0  0  0  0  0  0  0  0
    8.9200   -3.5261    0.0000 N   0  0  0  0  0  0  0  0  0  0  0  0
    9.4720   -4.1392    0.0000 C   0  0  0  0  0  0  0  0  0  0  0  0
   10.2970   -4.1392    0.0000 C   0  0  0  0  0  0  0  0  0  0  0  0
   10.7095   -4.8536    0.0000 C   0  0  0  0  0  0  0  0  0  0  0  0
   10.2970   -5.5681    0.0000 C   0  0  0  0  0  0  0  0  0  0  0  0
    9.4720   -5.5681    0.0000 C   0  0  0  0  0  0  0  0  0  0  0  0
    9.0595   -4.8536    0.0000 C   0  0  0  0  0  0  0  0  0  0  0  0
    8.2526   -4.6821    0.0000 N   0  0  0  0  0  0  0  0  0  0  0  0
    3.7933   -4.6821    0.0000 N   0  0  0  0  0  0  0  0  0  0  0  0
  1  2  1  0
  2  3  2  0
  2  7  1  0
  3  4  1  0
  4  5  2  0
  5  6  1  0
  6  7  2  0
  7  8  1  0
  8  9  1  0
  9 10  1  0
 10 11  2  0
 10 12  1  0
 12 13  2  0
 12 30  1  0
 13 14  1  0
 14 15  1  0
 15 16  1  0
 15 30  2  0
 16 17  1  0
 17 18  1  0
 18 19  1  0
 19 20  1  0
 20 21  1  0
 21 22  2  0
 21 29  1  0
 22 23  1  0
 23 24  2  0
 23 28  1  0
 24 25  1  0
 25 26  2  0
 26 27  1  0
 27 28  2  0
 28 29  1  0
M  END
>  <DRUGBANK_ID>  (1) 
DB17692

>  <COMMON_NAME>  (1) 
Vamifeport

>  <CAS_NUMBER>  (1) 
2095668-10-1

>  <UNII>  (1) 
FUF66UD0KR

>  <SYNONYMS>  (1) 
2-(2-((2-(1h-benzimidazol-2-yl)ethyl)amino)ethyl)-n-((3-fluoropyridin-2-yl)methyl)-1,3-oxazole-4-carboxamide; 4-oxazolecarboxamide, 2-(2-((2-(1h-benzimidazol-2-yl)ethyl)amino)ethyl)-n-((3-fluoro-2-pyridinyl)methyl)-

$$$$
