
     RDKit          2D

  1  0  0  0  0  0  0  0  0  0999 V2000
    0.0000    0.0000    0.0000 Xe  0  0  0  0  0 15  0  0  0  0  0  0
M  ISO  1   1 127
M  END
>  <DRUGBANK_ID>  (1) 
DB09461

>  <COMMON_NAME>  (1) 
Xenon Xe-127

>  <CAS_NUMBER>  (1) 
13994-19-9

>  <UNII>  (1) 
H95KBR1GDB

>  <SYNONYMS>  (1) 
Xenon Xe 127; Xenon Xe-127; Xenon-127

$$$$
