
     RDKit          2D

  8  8  0  0  0  0  0  0  0  0999 V2000
   -1.0717   -0.8250    0.0000 C   0  0  0  0  0  0  0  0  0  0  0  0
   -1.0717    0.0000    0.0000 C   0  0  0  0  0  0  0  0  0  0  0  0
    0.3573    0.0000    0.0000 C   0  0  0  0  0  0  0  0  0  0  0  0
   -0.3571    0.4125    0.0000 C   0  0  0  0  0  0  0  0  0  0  0  0
    0.3573   -0.8250    0.0000 C   0  0  0  0  0  0  0  0  0  0  0  0
   -0.3571   -1.2375    0.0000 C   0  0  0  0  0  0  0  0  0  0  0  0
    1.0718    0.4125    0.0000 Cl  0  0  0  0  0  0  0  0  0  0  0  0
   -0.3571    1.2375    0.0000 Cl  0  0  0  0  0  0  0  0  0  0  0  0
  1  2  2  0
  2  4  1  0
  3  5  1  0
  4  3  2  0
  6  5  2  0
  6  1  1  0
  7  3  1  0
  8  4  1  0
M  END
>  <DRUGBANK_ID>  (1) 
DB13963

>  <COMMON_NAME>  (1) 
1,2-dichlorobenzene

>  <CAS_NUMBER>  (1) 
95-50-1

>  <UNII>  (1) 
6PJ93I88XL

>  <SYNONYMS>  (1) 
2-Dichlorobenzene; o-dichlorbenzene; o-Dichlorbenzol; o-Dichlorobenzene; ODB; ODCB; ortho-Dichlorobenzene; Orthodichlorobenzene; orthodichlorobenzol

$$$$
