RXC
     RDKit          2D

 28 30  0  0  0  0  0  0  0  0999 V2000
   -2.1607    2.9976    0.0000 O   0  0  0  0  0  0  0  0  0  0  0  0
   -1.4462    2.5851    0.0000 C   0  0  0  0  0  0  0  0  0  0  0  0
   -0.7318    2.9976    0.0000 N   0  0  0  0  0  0  0  0  0  0  0  0
   -0.0173    2.5851    0.0000 C   0  0  0  0  0  0  0  0  0  0  0  0
    0.6972    2.9976    0.0000 O   0  0  0  0  0  0  0  0  0  0  0  0
   -1.4462    1.7601    0.0000 C   0  0  0  0  0  0  0  0  0  0  0  0
   -0.7318    1.3476    0.0000 C   0  0  0  0  0  0  0  0  0  0  0  0
   -0.0173    1.7601    0.0000 C   0  0  0  0  0  0  0  0  0  0  0  0
    0.6972    1.3476    0.0000 O   0  0  0  0  0  0  0  0  0  0  0  0
   -2.1607    1.3476    0.0000 C   0  0  0  0  0  0  0  0  0  0  0  0
   -2.1607    0.5226    0.0000 C   0  0  0  0  0  0  0  0  0  0  0  0
   -1.4462    0.1101    0.0000 C   0  0  0  0  0  0  0  0  0  0  0  0
   -0.7318    0.5226    0.0000 C   0  0  0  0  0  0  0  0  0  0  0  0
   -0.0173    0.1101    0.0000 N   0  0  0  0  0  0  0  0  0  0  0  0
   -0.0173   -0.7149    0.0000 C   0  0  0  0  0  0  0  0  0  0  0  0
   -0.7318   -1.1274    0.0000 O   0  0  0  0  0  0  0  0  0  0  0  0
    0.6972   -1.1274    0.0000 C   0  0  0  0  0  0  0  0  0  0  0  0
    1.4116   -0.7149    0.0000 O   0  0  0  0  0  0  0  0  0  0  0  0
    1.4116    0.1101    0.0000 C   0  0  0  0  0  0  0  0  0  0  0  0
    0.6972    0.5226    0.0000 O   0  0  0  0  0  0  0  0  0  0  0  0
    2.1261    0.5226    0.0000 C   0  0  0  0  0  0  0  0  0  0  0  0
    0.6972   -1.9524    0.0000 C   0  0  0  0  0  0  0  0  0  0  0  0
    1.4116   -2.3649    0.0000 C   0  0  0  0  0  0  0  0  0  0  0  0
    1.4116   -3.1899    0.0000 C   0  0  0  0  0  0  0  0  0  0  0  0
    0.6972   -3.6024    0.0000 C   0  0  0  0  0  0  0  0  0  0  0  0
   -0.0173   -3.1899    0.0000 C   0  0  0  0  0  0  0  0  0  0  0  0
   -0.7318   -3.6024    0.0000 Cl  0  0  0  0  0  0  0  0  0  0  0  0
   -0.0173   -2.3649    0.0000 C   0  0  0  0  0  0  0  0  0  0  0  0
  1  2  2  0
  2  3  1  0
  2  6  1  0
  3  4  1  0
  4  5  2  0
  4  8  1  0
  6  7  2  0
  6 10  1  0
  7  8  1  0
  7 13  1  0
  8  9  2  0
 10 11  2  0
 11 12  1  0
 12 13  2  0
 13 14  1  0
 14 15  1  0
 15 16  2  0
 15 17  1  0
 17 18  1  1
 17 22  1  0
 18 19  1  0
 19 20  2  0
 19 21  1  0
 22 23  2  0
 22 28  1  0
 23 24  1  0
 24 25  2  0
 25 26  1  0
 26 27  1  0
 26 28  2  0
M  END
>  <DRUGBANK_ID>  (1) 
DB08498

>  <COMMON_NAME>  (1) 
(1S)-1-(3-chlorophenyl)-2-oxo-2-[(1,3,4-trioxo-1,2,3,4-tetrahydroisoquinolin-5-yl)amino]ethyl acetate

$$$$
