
     RDKit          2D

 13 12  0  0  1  0  0  0  0  0999 V2000
   -0.3572   -1.2375    0.0000 C   0  0  0  0  0  0  0  0  0  0  0  0
   -1.7861    0.4125    0.0000 C   0  0  0  0  0  0  0  0  0  0  0  0
    1.7861    0.0000    0.0000 C   0  0  0  0  0  0  0  0  0  0  0  0
   -1.0717    0.0000    0.0000 C   0  0  0  0  0  0  0  0  0  0  0  0
    1.0717    0.4125    0.0000 C   0  0  0  0  0  0  0  0  0  0  0  0
   -0.3572    0.4125    0.0000 C   0  0  0  0  0  0  0  0  0  0  0  0
    0.3572    0.0000    0.0000 C   0  0  0  0  0  0  0  0  0  0  0  0
   -2.5006    0.0000    0.0000 O   0  0  0  0  0  0  0  0  0  0  0  0
    2.5006    0.4125    0.0000 O   0  0  0  0  0  0  0  0  0  0  0  0
   -1.0717   -0.8250    0.0000 O   0  0  0  0  0  0  0  0  0  0  0  0
    1.0717    1.2375    0.0000 O   0  0  0  0  0  0  0  0  0  0  0  0
   -0.3572    1.2375    0.0000 O   0  0  0  0  0  0  0  0  0  0  0  0
    0.3572   -0.8250    0.0000 O   0  0  0  0  0  0  0  0  0  0  0  0
  4  2  1  0
  4 10  1  6
  5  3  1  0
  5 11  1  1
  6  4  1  0
  6  7  1  0
  6 12  1  1
  7  5  1  0
  7 13  1  1
  8  2  1  0
  9  3  2  0
 13  1  1  0
M  END
>  <DRUGBANK_ID>  (1) 
DB16765

>  <COMMON_NAME>  (1) 
3-O-Methyl-d-glucose

>  <CAS_NUMBER>  (1) 
146-72-5

>  <UNII>  (1) 
48DU64I6O5

>  <SYNONYMS>  (1) 
3-Methyl-D-glucose; 3-Methylglucose; 3-O-Methylglucose; Methylglucose; O(3)-methyl-D-glucose

$$$$
