
     RDKit          2D

 25 26  0  0  0  0  0  0  0  0999 V2000
   -0.4956    7.4446    0.0000 C   0  0  0  0  0  0  0  0  0  0  0  0
   -1.2101    3.7321    0.0000 C   0  0  0  0  0  0  0  0  0  0  0  0
    0.9333    6.6196    0.0000 C   0  0  0  0  0  0  0  0  0  0  0  0
   -1.2101    5.3821    0.0000 C   0  0  0  0  0  0  0  0  0  0  0  0
   -0.4956    6.6196    0.0000 C   0  0  0  0  0  0  0  0  0  0  0  0
   -0.4956    4.1446    0.0000 C   0  0  0  0  0  0  0  0  0  0  0  0
    0.8509    0.1936    0.0000 C   0  0  0  0  0  0  0  0  0  0  0  0
    1.6355   -0.0613    0.0000 C   0  0  0  0  0  0  0  0  0  0  0  0
    2.9535    3.4546    0.0000 C   0  0  0  0  0  0  0  0  0  0  0  0
    0.6794    1.0006    0.0000 C   0  0  0  0  0  0  0  0  0  0  0  0
    2.2486    0.4907    0.0000 C   0  0  0  0  0  0  0  0  0  0  0  0
    2.4015    4.0677    0.0000 C   0  0  0  0  0  0  0  0  0  0  0  0
    2.5410    2.7401    0.0000 C   0  0  0  0  0  0  0  0  0  0  0  0
    1.1209    2.3596    0.0000 C   0  0  0  0  0  0  0  0  0  0  0  0
    0.9333    4.9696    0.0000 C   0  0  0  0  0  0  0  0  0  0  0  0
    0.2188    6.2071    0.0000 C   0  0  0  0  0  0  0  0  0  0  0  0
   -0.4956    4.9696    0.0000 C   0  0  0  0  0  0  0  0  0  0  0  0
    1.2924    1.5526    0.0000 C   0  0  0  0  0  0  0  0  0  0  0  0
    2.0771    1.2977    0.0000 C   0  0  0  0  0  0  0  0  0  0  0  0
    1.6478    3.7321    0.0000 C   0  0  0  0  0  0  0  0  0  0  0  0
    0.9333    4.1446    0.0000 C   0  0  0  0  0  0  0  0  0  0  0  0
    2.6902    1.8497    0.0000 Cl  0  0  0  0  0  0  0  0  0  0  0  0
    1.7340    2.9116    0.0000 N   0  0  0  0  0  0  0  0  0  0  0  0
    0.2188    5.3821    0.0000 N   0  0  0  0  0  0  0  0  0  0  0  0
    0.2188    3.7321    0.0000 O   0  0  0  0  0  0  0  0  0  0  0  0
  5  1  1  0
  6  2  1  0
  8  7  2  0
 10  7  1  0
 11  8  1  0
 12  9  1  0
 13  9  2  0
 16  3  1  0
 16  5  1  0
 17  4  1  0
 17  6  1  0
 18 10  2  0
 18 14  1  0
 19 11  2  0
 19 18  1  0
 20 12  2  0
 21 15  1  0
 21 20  1  0
 22 19  1  0
 23 13  1  0
 23 14  1  0
 23 20  1  0
 24 15  1  0
 24 16  1  0
 24 17  1  0
 25 21  1  0
M  END
>  <DRUGBANK_ID>  (1) 
DB13353

>  <COMMON_NAME>  (1) 
Viminol

>  <CAS_NUMBER>  (1) 
21363-18-8

>  <UNII>  (1) 
TPV54G6XBG

>  <SYNONYMS>  (1) 
Viminol

$$$$
