
     RDKit          2D

  5  0  0  0  0  0  0  0  0  0999 V2000
    0.4125    0.0000    0.0000 O   0  0  0  0  0  0  0  0  0  0  0  0
    3.7125    0.0000    0.0000 O   0  0  0  0  0  0  0  0  0  0  0  0
    0.0000   -1.6500    0.0000 O   0  0  0  0  0  0  0  0  0  0  0  0
   -0.4125    0.0000    0.0000 Al  0  0  0  0  0 15  0  0  0  0  0  0
    2.8875    0.0000    0.0000 Al  0  0  0  0  0 15  0  0  0  0  0  0
M  CHG  5   1  -2   2  -2   3  -2   4   3   5   3
M  END
>  <DRUGBANK_ID>  (1) 
DB11342

>  <COMMON_NAME>  (1) 
Aluminum oxide

>  <CAS_NUMBER>  (1) 
1344-28-1

>  <UNII>  (1) 
LMI26O6933

>  <SYNONYMS>  (1) 
Aluminium oxide

$$$$
