599
     RDKit          2D

 16 16  0  0  1  0  0  0  0  0999 V2000
    3.0791   -2.6665    0.0000 S   0  0  0  0  0  0  0  0  0  0  0  0
    4.5080   -0.1915    0.0000 O   0  0  0  0  0  0  0  0  0  0  0  0
    1.6500   -0.1915    0.0000 O   0  0  0  0  0  0  0  0  0  0  0  0
    3.7935   -1.4290    0.0000 N   0  0  0  0  0  0  0  0  0  0  0  0
    2.3645   -1.4290    0.0000 N   0  0  0  0  0  0  0  0  0  0  0  0
    3.0791   -0.1915    0.0000 C   0  0  0  0  0  0  0  0  0  0  0  0
    3.4916    0.5231    0.0000 C   0  0  0  0  0  0  0  0  0  0  0  0
    3.0791    1.2375    0.0000 C   0  0  0  0  0  0  0  0  0  0  0  0
    2.6665    0.5231    0.0000 C   0  0  0  0  0  0  0  0  0  0  0  0
    3.7935   -0.6040    0.0000 C   0  0  0  0  0  0  0  0  0  0  0  0
    2.3645   -0.6040    0.0000 C   0  0  0  0  0  0  0  0  0  0  0  0
    4.3166    0.5231    0.0000 C   0  0  0  0  0  0  0  0  0  0  0  0
    3.4916    1.9520    0.0000 C   0  0  0  0  0  0  0  0  0  0  0  0
    1.8415    0.5231    0.0000 C   0  0  0  0  0  0  0  0  0  0  0  0
    3.0791   -1.8415    0.0000 C   0  0  0  0  0  0  0  0  0  0  0  0
    3.0791    2.6665    0.0000 C   0  0  0  0  0  0  0  0  0  0  0  0
  1 15  2  0
  2 10  2  0
  3 11  2  0
  4 10  1  0
  4 15  1  0
  5 11  1  0
  5 15  1  0
  6  7  1  0
  6  9  1  0
  6 10  1  0
  6 11  1  0
  7  8  1  0
  7 12  1  0
  8 13  1  0
  9 14  1  0
 13 16  1  0
M  END
>  <DRUGBANK_ID>  (1) 
DB00599

>  <SECONDARY_ACCESSION_NUMBERS>  (1) 
APRD00660

>  <COMMON_NAME>  (1) 
Thiopental

>  <CAS_NUMBER>  (1) 
76-75-5

>  <UNII>  (1) 
JI8Z5M7NA3

>  <SYNONYMS>  (1) 
(Â±)-thiopental; 2-Thio-5-ethyl-5-sec-pentylbarbituric acid; 5-Ethyl-5-(1-methyl-butyl)-2-thioxo-dihydro-pyrimidine-4,6-dione; Penthiobarbital; Pentothiobarbital; Thiopental; Thiopentobarbital; Thiopentobarbitone; Thiopentobarbituric acid; Thiopentone; Tiopentale

$$$$
