
     RDKit          2D

 21 22  0  0  0  0  0  0  0  0999 V2000
   -0.3268   -0.8109    0.0000 C   0  0  0  0  0  0  0  0  0  0  0  0
   -0.3268    0.0140    0.0000 C   0  0  0  0  0  0  0  0  0  0  0  0
    0.3875   -1.2234    0.0000 N   0  0  0  0  0  0  0  0  0  0  0  0
   -1.0413   -1.2234    0.0000 C   0  0  0  0  0  0  0  0  0  0  0  0
   -1.0413    0.4265    0.0000 C   0  0  0  0  0  0  0  0  0  0  0  0
    0.3876    0.4265    0.0000 S   0  0  0  0  0  0  0  0  0  0  0  0
    1.1020   -0.8109    0.0000 C   0  0  0  0  0  0  0  0  0  0  0  0
   -1.7558   -0.8109    0.0000 C   0  0  0  0  0  0  0  0  0  0  0  0
   -1.7558    0.0140    0.0000 C   0  0  0  0  0  0  0  0  0  0  0  0
    1.1020    0.0140    0.0000 N   0  0  0  0  0  0  0  0  0  0  0  0
    0.9179    1.0585    0.0000 O   0  0  0  0  0  0  0  0  0  0  0  0
   -0.1426    1.0585    0.0000 O   0  0  0  0  0  0  0  0  0  0  0  0
    1.8165   -1.2234    0.0000 C   0  0  0  0  0  0  0  0  0  0  0  0
   -2.4702   -1.2233    0.0000 Cl  0  0  0  0  0  0  0  0  0  0  0  0
   -2.4702    0.4266    0.0000 S   0  0  0  0  0  0  0  0  0  0  0  0
    2.5309   -0.8109    0.0000 C   0  0  0  0  0  0  0  0  0  0  0  0
   -2.2567    1.2234    0.0000 N   0  0  0  0  0  0  0  0  0  0  0  0
   -3.2454    0.7087    0.0000 O   0  0  0  0  0  0  0  0  0  0  0  0
   -2.8189   -0.3210    0.0000 O   0  0  0  0  0  0  0  0  0  0  0  0
    3.2454   -1.2234    0.0000 C   0  0  0  0  0  0  0  0  0  0  0  0
    2.5310    0.0140    0.0000 C   0  0  0  0  0  0  0  0  0  0  0  0
  1  2  2  0
  1  3  1  0
  1  4  1  0
  2  5  1  0
  2  6  1  0
  3  7  1  0
  4  8  2  0
  5  9  2  0
  6 10  1  0
  6 11  2  0
  6 12  2  0
  7 13  1  0
  7 10  1  0
  8 14  1  0
  8  9  1  0
  9 15  1  0
 13 16  1  0
 15 17  1  0
 15 18  2  0
 15 19  2  0
 16 20  1  0
 16 21  1  0
M  END
>  <DRUGBANK_ID>  (1) 
DB15861

>  <COMMON_NAME>  (1) 
Buthiazide

>  <CAS_NUMBER>  (1) 
2043-38-1

>  <UNII>  (1) 
W00SSD35VW

>  <SYNONYMS>  (1) 
Buthiazide; Butizida; Butizide; Butizidum; Isobutylhydrochlorothiazide

$$$$
