
     RDKit          2D

 10 10  0  0  0  0  0  0  0  0999 V2000
    0.7145   -1.2375    0.0000 N   0  0  0  0  0  0  0  0  0  0  0  0
    0.7145   -0.4125    0.0000 C   0  0  0  0  0  0  0  0  0  0  0  0
    0.0000    0.0000    0.0000 C   0  0  0  0  0  0  0  0  0  0  0  0
    0.0000    0.8250    0.0000 C   0  0  0  0  0  0  0  0  0  0  0  0
    0.7145    1.2375    0.0000 C   0  0  0  0  0  0  0  0  0  0  0  0
    1.4289    0.8250    0.0000 C   0  0  0  0  0  0  0  0  0  0  0  0
    1.4289    0.0000    0.0000 C   0  0  0  0  0  0  0  0  0  0  0  0
    0.7145    2.0625    0.0000 C   0  0  0  0  0  0  0  0  0  0  0  0
    0.0000    2.4750    0.0000 O   0  0  0  0  0  0  0  0  0  0  0  0
    1.4289    2.4750    0.0000 O   0  0  0  0  0  0  0  0  0  0  0  0
  1  2  1  0
  2  3  2  0
  2  7  1  0
  3  4  1  0
  4  5  2  0
  5  6  1  0
  5  8  1  0
  6  7  2  0
  8  9  1  0
  8 10  2  0
M  END
>  <DRUGBANK_ID>  (1) 
DB02362

>  <SECONDARY_ACCESSION_NUMBERS>  (1) 
EXPT02486

>  <COMMON_NAME>  (1) 
Aminobenzoic acid

>  <CAS_NUMBER>  (1) 
150-13-0

>  <UNII>  (1) 
TL2TJE8QTX

>  <SYNONYMS>  (1) 
1-Amino-4-carboxybenzene; 4-aminobenzoic acid; 4-Carboxyaniline; Aminobenzoic acid; p-Aminobenzoic acid; p-Carboxyaniline; p-Carboxyphenylamine; para-Aminobenzoic acid

$$$$
