
     RDKit          2D

 43 49  0  0  1  0  0  0  0  0999 V2000
    3.9623   -1.3664    0.0000 C   0  0  0  0  0  0  0  0  0  0  0  0
    4.5632   -1.9631    0.0000 O   0  0  0  0  0  0  0  0  0  0  0  0
    5.2485   -1.4779    0.0000 C   0  0  0  0  0  0  0  0  0  0  0  0
    4.9394   -0.6626    0.0000 C   0  0  0  0  0  0  0  0  0  0  0  0
    5.6181   -0.1391    0.0000 C   0  0  0  0  0  0  0  0  0  0  0  0
    5.1909    0.5927    0.0000 C   0  0  0  0  0  0  0  0  0  0  0  0
    4.3232    0.5460    0.0000 C   0  0  0  0  0  0  0  0  0  0  0  0
    4.4079    1.4128    0.0000 N   0  0  0  0  0  0  0  0  0  0  0  0
    4.9840    2.0033    0.0000 C   0  0  0  0  0  0  0  0  0  0  0  0
    4.7606    2.7975    0.0000 C   0  0  0  0  0  0  0  0  0  0  0  0
    4.1701    3.3736    0.0000 C   0  0  0  0  0  0  0  0  0  0  0  0
    4.9642    3.5970    0.0000 C   0  0  0  0  0  0  0  0  0  0  0  0
    3.5861    1.3118    0.0000 C   0  0  0  0  0  0  0  0  0  0  0  0
    3.7908    0.4783    0.0000 C   0  0  0  0  0  0  0  0  0  0  0  0
    4.1032   -0.4266    0.0000 C   0  0  0  0  0  0  0  0  0  0  0  0
    3.4184    0.1045    0.0000 C   0  0  0  0  0  0  0  0  0  0  0  0
    3.4205   -0.6275    0.0000 C   0  0  0  0  0  0  0  0  0  0  0  0
    3.1015   -1.2786    0.0000 C   0  0  0  0  0  0  0  0  0  0  0  0
    3.2381   -1.9628    0.0000 C   0  0  0  0  0  0  0  0  0  0  0  0
    3.2302   -2.7877    0.0000 O   0  0  0  0  0  0  0  0  0  0  0  0
    3.9408   -3.2070    0.0000 C   0  0  0  0  0  0  0  0  0  0  0  0
    2.5129   -1.3423    0.0000 C   0  0  0  0  0  0  0  0  0  0  0  0
    2.6523   -0.4447    0.0000 C   0  0  0  0  0  0  0  0  0  0  0  0
    1.7392   -1.6286    0.0000 C   0  0  0  0  0  0  0  0  0  0  0  0
    1.4529   -0.8549    0.0000 C   0  0  0  0  0  0  0  0  0  0  0  0
    2.0256   -2.4023    0.0000 O   0  0  0  0  0  0  0  0  0  0  0  0
    0.9655   -1.9150    0.0000 C   0  0  0  0  0  0  0  0  0  0  0  0
    0.6792   -1.1413    0.0000 C   0  0  0  0  0  0  0  0  0  0  0  0
    1.2519   -2.6887    0.0000 C   0  0  0  0  0  0  0  0  0  0  0  0
    0.1918   -2.2013    0.0000 C   0  0  0  0  0  0  0  0  0  0  0  0
    6.4443   -0.3547    0.0000 C   0  0  0  0  0  0  0  0  0  0  0  0
    6.6423   -1.1677    0.0000 C   0  0  0  0  0  0  0  0  0  0  0  0
    6.0502   -1.7494    0.0000 C   0  0  0  0  0  0  0  0  0  0  0  0
    6.2344   -2.5536    0.0000 O   0  0  0  0  0  0  0  0  0  0  0  0
    7.0229   -2.7962    0.0000 C   0  0  0  0  0  0  0  0  0  0  0  0
    7.6273   -2.2347    0.0000 O   0  0  0  0  0  0  0  0  0  0  0  0
    7.2070   -3.6004    0.0000 C   0  0  0  0  0  0  0  0  0  0  0  0
    7.9955   -3.8431    0.0000 C   0  0  0  0  0  0  0  0  0  0  0  0
    8.1796   -4.6473    0.0000 C   0  0  0  0  0  0  0  0  0  0  0  0
    8.9681   -4.8900    0.0000 C   0  0  0  0  0  0  0  0  0  0  0  0
    9.1522   -5.6942    0.0000 C   0  0  0  0  0  0  0  0  0  0  0  0
    9.9407   -5.9368    0.0000 O   0  0  0  0  0  0  0  0  0  0  0  0
    8.5478   -6.2557    0.0000 O   0  0  0  0  0  0  0  0  0  0  0  0
  1  2  1  1
  1 15  1  0
  1 19  1  0
  2  3  1  0
  3  4  2  0
  3 33  1  0
  4  5  1  0
  5  6  1  0
  5 31  2  0
  7  6  1  6
  7  8  1  0
  8  9  1  0
  8 13  1  0
  9 10  1  0
 10 11  1  0
 10 12  1  0
 11 12  1  0
 13 14  1  0
 15 14  1  6
 15  4  1  0
 15 16  1  0
 16  7  1  0
 16 17  1  1
 16 23  1  0
 17 18  1  0
 19 18  1  0
 19 20  1  1
 19 22  1  0
 20 21  1  0
 22 23  1  1
 22 24  1  0
 24 25  1  1
 24 26  1  0
 24 27  1  0
 27 28  1  0
 27 29  1  0
 27 30  1  0
 31 32  1  0
 32 33  2  0
 33 34  1  0
 34 35  1  0
 35 36  2  0
 35 37  1  0
 37 38  1  0
 38 39  1  0
 39 40  1  0
 40 41  1  0
 41 42  1  0
 41 43  2  0
M  END
>  <DRUGBANK_ID>  (1) 
DB16117

>  <COMMON_NAME>  (1) 
Buprenorphine hemiadipate

>  <CAS_NUMBER>  (1) 
951123-45-8

>  <UNII>  (1) 
968KUA5J54

>  <SYNONYMS>  (1) 
Buprenorphine adipate ester

$$$$
