
     RDKit          2D

  5  4  0  0  0  0  0  0  0  0999 V2000
    0.3520   -0.2018    0.0000 C   0  0  0  0  0  0  0  0  0  0  0  0
   -0.3596   -0.6141    0.0000 C   0  0  0  0  0  0  0  0  0  0  0  0
    1.0771   -0.6207    0.0000 N   0  0  0  0  0  0  0  0  0  0  0  0
    0.3520    0.6207    0.0000 O   0  0  0  0  0  0  0  0  0  0  0  0
   -1.0771   -0.2018    0.0000 C   0  0  0  0  0  0  0  0  0  0  0  0
  1  2  1  0
  1  3  1  0
  1  4  2  0
  2  5  1  0
M  END
>  <DRUGBANK_ID>  (1) 
DB04161

>  <SECONDARY_ACCESSION_NUMBERS>  (1) 
EXPT02807

>  <COMMON_NAME>  (1) 
Propionamide

>  <CAS_NUMBER>  (1) 
79-05-0

>  <UNII>  (1) 
QK07G0HP47

>  <SYNONYMS>  (1) 
Propanimidic acid; Propionic acid amide; Propionic amide

$$$$
