
     RDKit          2D

 11 10  0  0  0  0  0  0  0  0999 V2000
   -0.7145    0.4125    0.0000 C   0  0  0  0  0  0  0  0  0  0  0  0
    0.0000    0.8251    0.0000 C   0  0  0  0  0  0  0  0  0  0  0  0
    0.7146    0.4125    0.0000 C   0  0  0  0  0  0  0  0  0  0  0  0
    0.7146   -0.4124    0.0000 N   0  0  0  0  0  0  0  0  0  0  0  0
    0.0000   -0.8250    0.0000 C   0  0  0  0  0  0  0  0  0  0  0  0
    1.4290    0.8250    0.0000 C   0  0  0  0  0  0  0  0  0  0  0  0
    1.4290    1.6500    0.0000 O   0  0  0  0  0  0  0  0  0  0  0  0
    2.1435    0.4124    0.0000 O   0  0  0  0  0  0  0  0  0  0  0  0
   -1.4289    0.8251    0.0000 S   0  0  0  0  0  0  0  0  0  0  0  0
   -2.1435    0.4126    0.0000 C   0  0  0  0  0  0  0  0  0  0  0  0
   -0.0001   -1.6500    0.0000 O   0  0  0  0  0  0  0  0  0  0  0  0
  1  9  1  0
  2  1  1  0
  3  2  1  1
  3  6  1  0
  3  4  1  0
  4  5  1  0
  5 11  2  0
  6  7  2  0
  6  8  1  0
  9 10  1  0
M  END
>  <DRUGBANK_ID>  (1) 
DB04464

>  <SECONDARY_ACCESSION_NUMBERS>  (1) 
EXPT01455

>  <COMMON_NAME>  (1) 
N-Formylmethionine

>  <CAS_NUMBER>  (1) 
4289-98-9

>  <UNII>  (1) 
PS9357B4XH

>  <SYNONYMS>  (1) 
(2S)-2-(formylamino)-4-(methylthio)butanoic acid; Formyl-methionine; L-N-Formylmethionine; N-formyl-L-methionine

$$$$
