CVB
     RDKit          2D

 14 14  0  0  0  0  0  0  0  0999 V2000
    1.9061    0.9372    0.0000 B   0  0  0  0  0  0  0  0  0  0  0  0
    1.9061    1.7622    0.0000 O   0  0  0  0  0  0  0  0  0  0  0  0
    2.6206    0.5247    0.0000 O   0  0  0  0  0  0  0  0  0  0  0  0
    1.1917    0.5247    0.0000 C   0  0  0  0  0  0  0  0  0  0  0  0
    1.1917   -0.3003    0.0000 C   0  0  0  0  0  0  0  0  0  0  0  0
    0.4772   -0.7128    0.0000 C   0  0  0  0  0  0  0  0  0  0  0  0
   -0.2373   -0.3003    0.0000 C   0  0  0  0  0  0  0  0  0  0  0  0
   -0.9518   -0.7128    0.0000 C   0  0  0  0  0  0  0  0  0  0  0  0
   -1.6662   -0.3003    0.0000 C   0  0  0  0  0  0  0  0  0  0  0  0
   -2.3807   -0.7128    0.0000 C   0  0  0  0  0  0  0  0  0  0  0  0
   -2.3807   -1.5378    0.0000 O   0  0  0  0  0  0  0  0  0  0  0  0
   -3.0952   -0.3003    0.0000 O   0  0  0  0  0  0  0  0  0  0  0  0
   -0.2373    0.5247    0.0000 C   0  0  0  0  0  0  0  0  0  0  0  0
    0.4772    0.9372    0.0000 C   0  0  0  0  0  0  0  0  0  0  0  0
  1  2  1  0
  1  3  1  0
  1  4  1  0
  4  5  2  0
  4 14  1  0
  5  6  1  0
  6  7  2  0
  7  8  1  0
  7 13  1  0
  8  9  2  0
  9 10  1  0
 10 11  1  0
 10 12  2  0
 13 14  2  0
M  END
>  <DRUGBANK_ID>  (1) 
DB02503

>  <SECONDARY_ACCESSION_NUMBERS>  (1) 
EXPT01061

>  <COMMON_NAME>  (1) 
4-(Carboxyvin-2-Yl)Phenylboronic Acid

$$$$
