
     RDKit          2D

 25 27  0  0  1  0  0  0  0  0999 V2000
    3.6959    0.0165    0.0000 C   0  0  0  0  0  0  0  0  0  0  0  0
    3.3523    1.1104    0.0000 C   0  0  0  0  0  0  0  0  0  0  0  0
    3.3523    1.9354    0.0000 C   0  0  0  0  0  0  0  0  0  0  0  0
    2.6378    0.6979    0.0000 C   0  0  0  0  0  0  0  0  0  0  0  0
    2.6378    2.3479    0.0000 C   0  0  0  0  0  0  0  0  0  0  0  0
    0.8838    0.0709    0.0000 C   0  0  0  0  0  0  0  0  0  0  0  0
    0.6538    1.5229    0.0000 C   0  0  0  0  0  0  0  0  0  0  0  0
    2.0650   -2.5822    0.0000 C   0  0  0  0  0  0  0  0  0  0  0  0
    3.9509   -0.7681    0.0000 C   0  0  0  0  0  0  0  0  0  0  0  0
    1.1387    0.8555    0.0000 C   0  0  0  0  0  0  0  0  0  0  0  0
    1.9233    1.1104    0.0000 C   0  0  0  0  0  0  0  0  0  0  0  0
    1.9233    1.9354    0.0000 C   0  0  0  0  0  0  0  0  0  0  0  0
    1.4358   -0.5422    0.0000 C   0  0  0  0  0  0  0  0  0  0  0  0
    1.3976   -3.0671    0.0000 C   0  0  0  0  0  0  0  0  0  0  0  0
    3.3988   -1.3812    0.0000 C   0  0  0  0  0  0  0  0  0  0  0  0
    2.5919   -1.2097    0.0000 C   0  0  0  0  0  0  0  0  0  0  0  0
    1.2643   -1.3492    0.0000 C   0  0  0  0  0  0  0  0  0  0  0  0
    3.6538   -2.1658    0.0000 N   0  0  0  0  0  0  0  0  0  0  0  0
    1.1387    2.1904    0.0000 N   0  0  0  0  0  0  0  0  0  0  0  0
    2.2563   -0.4560    0.0000 N   0  0  0  0  0  0  0  0  0  0  0  0
    1.9788   -1.7617    0.0000 N   0  0  0  0  0  0  0  0  0  0  0  0
    4.7578   -0.9396    0.0000 O   0  0  0  0  0  0  0  0  0  0  0  0
    1.4838   -3.8876    0.0000 O   0  0  0  0  0  0  0  0  0  0  0  0
    0.6439   -2.7315    0.0000 O   0  0  0  0  0  0  0  0  0  0  0  0
    0.5106   -1.6847    0.0000 O   0  0  0  0  0  0  0  0  0  0  0  0
  3  2  2  0
  4  2  1  0
  5  3  1  0
  9  1  1  1
  9 22  1  0
 10  6  1  0
 10  7  2  0
 11  4  2  0
 11 10  1  0
 12  5  2  0
 12 11  1  0
 13  6  2  0
 14  8  1  0
 15  9  1  0
 15 18  1  6
 16 15  1  0
 17 13  1  0
 19  7  1  0
 19 12  1  0
 20 13  1  0
 20 16  2  0
 21  8  1  0
 21 16  1  0
 21 17  1  0
 23 14  2  0
 24 14  1  0
 25 17  2  0
M  END
>  <DRUGBANK_ID>  (1) 
DB03914

>  <SECONDARY_ACCESSION_NUMBERS>  (1) 
EXPT01021

>  <COMMON_NAME>  (1) 
[2-(1-amino-2-hydroxy-propyl)-4-(1H-indol-3-ylmethylene)-5-oxo-4,5-dihydro-imidazol-1-yl]-acetaldehyde

$$$$
