3IG
     RDKit          2D

 29 31  0  0  0  0  0  0  0  0999 V2000
   -1.8784    2.0698    0.0000 C   0  0  0  0  0  0  0  0  0  0  0  0
   -1.8784    2.8948    0.0000 N   0  0  0  0  0  0  0  0  0  0  0  0
   -1.1639    3.3073    0.0000 C   0  0  0  0  0  0  0  0  0  0  0  0
   -0.4494    2.8948    0.0000 N   0  0  0  0  0  0  0  0  0  0  0  0
   -0.4494    2.0698    0.0000 C   0  0  0  0  0  0  0  0  0  0  0  0
   -1.1639    1.6573    0.0000 C   0  0  0  0  0  0  0  0  0  0  0  0
   -2.5928    1.6573    0.0000 N   0  0  0  0  0  0  0  0  0  0  0  0
   -1.1639    4.1323    0.0000 N   0  0  0  0  0  0  0  0  0  0  0  0
    0.2650    1.6573    0.0000 C   0  0  0  0  0  0  0  0  0  0  0  0
    0.2650    0.8323    0.0000 C   0  0  0  0  0  0  0  0  0  0  0  0
   -1.8784    0.4198    0.0000 C   0  0  0  0  0  0  0  0  0  0  0  0
   -1.8784   -0.4052    0.0000 C   0  0  0  0  0  0  0  0  0  0  0  0
   -1.1639   -0.8177    0.0000 C   0  0  0  0  0  0  0  0  0  0  0  0
   -0.4494   -0.4052    0.0000 C   0  0  0  0  0  0  0  0  0  0  0  0
   -0.4494    0.4198    0.0000 C   0  0  0  0  0  0  0  0  0  0  0  0
   -1.1639    0.8323    0.0000 C   0  0  0  0  0  0  0  0  0  0  0  0
   -1.1639   -1.6427    0.0000 O   0  0  0  0  0  0  0  0  0  0  0  0
   -0.4494   -2.0552    0.0000 C   0  0  0  0  0  0  0  0  0  0  0  0
    0.2650   -1.6427    0.0000 C   0  0  0  0  0  0  0  0  0  0  0  0
    0.2650   -0.8177    0.0000 N   0  0  0  0  0  0  0  0  0  0  0  0
    0.9795   -0.4052    0.0000 C   0  0  0  0  0  0  0  0  0  0  0  0
    1.6940   -0.8177    0.0000 C   0  0  0  0  0  0  0  0  0  0  0  0
    2.4085   -0.4052    0.0000 N   0  0  0  0  0  0  0  0  0  0  0  0
    3.1229   -0.8177    0.0000 C   0  0  0  0  0  0  0  0  0  0  0  0
    3.8374   -0.4052    0.0000 C   0  0  0  0  0  0  0  0  0  0  0  0
   -0.8367   -2.7836    0.0000 C   0  0  0  0  0  0  0  0  0  0  0  0
   -0.0621   -2.7836    0.0000 C   0  0  0  0  0  0  0  0  0  0  0  0
    0.9795   -2.0552    0.0000 O   0  0  0  0  0  0  0  0  0  0  0  0
    3.1229   -1.6427    0.0000 O   0  0  0  0  0  0  0  0  0  0  0  0
  1  2  2  0
  1  6  1  0
  1  7  1  0
  2  3  1  0
  3  4  2  0
  3  8  1  0
  4  5  1  0
  5  6  2  0
  5  9  1  0
  6 16  1  0
  9 10  1  0
 11 12  2  0
 11 16  1  0
 12 13  1  0
 13 14  2  0
 13 17  1  0
 14 15  1  0
 14 20  1  0
 15 16  2  0
 17 18  1  0
 18 19  1  0
 18 26  1  0
 18 27  1  0
 19 20  1  0
 19 28  2  0
 20 21  1  0
 21 22  1  0
 22 23  1  0
 23 24  1  0
 24 25  1  0
 24 29  2  0
M  END
>  <DRUGBANK_ID>  (1) 
DB07059

>  <COMMON_NAME>  (1) 
N-{2-[6-(2,4-DIAMINO-6-ETHYLPYRIMIDIN-5-YL)-2,2-DIMETHYL-3-OXO-2,3-DIHYDRO-4H-1,4-BENZOXAZIN-4-YL]ETHYL}ACETAMIDE

$$$$
