BRC
     RDKit          2D

 15 14  0  0  0  0  0  0  0  0999 V2000
   -4.0710    0.1832    0.0000 C   0  0  0  0  0  0  0  0  0  0  0  0
   -4.7855   -0.2293    0.0000 O   0  0  0  0  0  0  0  0  0  0  0  0
   -4.0710    1.0083    0.0000 O   0  0  0  0  0  0  0  0  0  0  0  0
   -3.3565   -0.2293    0.0000 C   0  0  0  0  0  0  0  0  0  0  0  0
   -2.6419    0.1832    0.0000 C   0  0  0  0  0  0  0  0  0  0  0  0
   -1.9273   -0.2293    0.0000 C   0  0  0  0  0  0  0  0  0  0  0  0
   -1.2129    0.1832    0.0000 C   0  0  0  0  0  0  0  0  0  0  0  0
   -0.4983   -0.2293    0.0000 C   0  0  0  0  0  0  0  0  0  0  0  0
    0.2162    0.1832    0.0000 C   0  0  0  0  0  0  0  0  0  0  0  0
    0.9307   -0.2293    0.0000 C   0  0  0  0  0  0  0  0  0  0  0  0
    1.6452    0.1832    0.0000 C   0  0  0  0  0  0  0  0  0  0  0  0
    2.3598   -0.2293    0.0000 C   0  0  0  0  0  0  0  0  0  0  0  0
    3.0743    0.1832    0.0000 C   0  0  0  0  0  0  0  0  0  0  0  0
    3.7888   -0.2293    0.0000 C   0  0  0  0  0  0  0  0  0  0  0  0
    4.5033    0.1832    0.0000 Br  0  0  0  0  0  0  0  0  0  0  0  0
  1  2  2  0
  1  3  1  0
  1  4  1  0
  4  5  1  0
  5  6  1  0
  6  7  1  0
  7  8  1  0
  8  9  1  0
  9 10  1  0
 10 11  1  0
 11 12  1  0
 12 13  1  0
 13 14  1  0
 14 15  1  0
M  END
>  <DRUGBANK_ID>  (1) 
DB02405

>  <SECONDARY_ACCESSION_NUMBERS>  (1) 
EXPT00749

>  <COMMON_NAME>  (1) 
12-Bromododecanoic Acid

>  <CAS_NUMBER>  (1) 
73367-80-3

>  <UNII>  (1) 
RP072ZQ00E

$$$$
