
     RDKit          2D

 30 32  0  0  0  0  0  0  0  0999 V2000
    1.4462   -0.5339    0.0000 N   0  0  0  0  0  0  0  0  0  0  0  0
    0.8347   -0.0097    0.0000 C   0  0  0  0  0  0  0  0  0  0  0  0
    1.4462   -1.3298    0.0000 C   0  0  0  0  0  0  0  0  0  0  0  0
    0.0097   -0.1843    0.0000 C   0  0  0  0  0  0  0  0  0  0  0  0
   -1.2521    0.4659    0.0000 C   0  0  0  0  0  0  0  0  0  0  0  0
    2.1549   -0.1164    0.0000 C   0  0  0  0  0  0  0  0  0  0  0  0
   -0.4465    0.4756    0.0000 N   0  0  0  0  0  0  0  0  0  0  0  0
    0.8057   -1.8539    0.0000 C   0  0  0  0  0  0  0  0  0  0  0  0
   -1.6598    1.1550    0.0000 C   0  0  0  0  0  0  0  0  0  0  0  0
    0.0000   -1.6695    0.0000 C   0  0  0  0  0  0  0  0  0  0  0  0
    2.1549    0.6989    0.0000 C   0  0  0  0  0  0  0  0  0  0  0  0
   -0.3398   -0.9026    0.0000 C   0  0  0  0  0  0  0  0  0  0  0  0
   -1.2521    1.8636    0.0000 S   0  0  0  0  0  0  0  0  0  0  0  0
   -1.6695    2.5528    0.0000 C   0  0  0  0  0  0  0  0  0  0  0  0
    1.0192    0.7862    0.0000 O   0  0  0  0  0  0  0  0  0  0  0  0
   -1.6403   -0.2426    0.0000 O   0  0  0  0  0  0  0  0  0  0  0  0
    1.4462    1.1161    0.0000 O   0  0  0  0  0  0  0  0  0  0  0  0
   -1.2909    3.2517    0.0000 O   0  0  0  0  0  0  0  0  0  0  0  0
   -2.4751    1.1550    0.0000 C   0  0  0  0  0  0  0  0  0  0  0  0
    2.8731    1.1065    0.0000 O   0  0  0  0  0  0  0  0  0  0  0  0
    2.1549   -1.7665    0.0000 C   0  0  0  0  0  0  0  0  0  0  0  0
    2.8827   -0.5435    0.0000 C   0  0  0  0  0  0  0  0  0  0  0  0
    1.0289   -2.6498    0.0000 C   0  0  0  0  0  0  0  0  0  0  0  0
   -0.5727   -2.2518    0.0000 C   0  0  0  0  0  0  0  0  0  0  0  0
    2.8827   -1.3685    0.0000 C   0  0  0  0  0  0  0  0  0  0  0  0
   -2.4945    2.5528    0.0000 C   0  0  0  0  0  0  0  0  0  0  0  0
   -2.8827    0.4561    0.0000 C   0  0  0  0  0  0  0  0  0  0  0  0
   -2.8827    1.8636    0.0000 C   0  0  0  0  0  0  0  0  0  0  0  0
    0.4561   -3.2517    0.0000 C   0  0  0  0  0  0  0  0  0  0  0  0
   -0.3398   -3.0672    0.0000 C   0  0  0  0  0  0  0  0  0  0  0  0
  2  1  1  0
  3  1  1  0
  4  2  1  0
  4  7  1  6
  5  7  1  0
  6  1  1  0
  6 11  1  6
  8  3  1  0
  9  5  1  6
  9 13  1  0
 10  8  2  0
 10 12  1  0
 12  4  1  0
 14 13  1  0
 15  2  2  0
 16  5  2  0
 17 11  2  0
 18 14  2  0
 19  9  1  0
 20 11  1  0
  3 21  1  6
 22  6  1  0
 23  8  1  0
 24 10  1  0
 25 21  1  0
 25 22  1  0
 26 14  1  0
 27 19  1  0
 28 19  1  0
 29 23  2  0
 30 24  2  0
 30 29  1  0
M  END
>  <DRUGBANK_ID>  (1) 
DB06604

>  <COMMON_NAME>  (1) 
Ilepatril

>  <CAS_NUMBER>  (1) 
473289-62-2

>  <UNII>  (1) 
5N1YAP5FCM

>  <SYNONYMS>  (1) 
Ilepatril

$$$$
