
     RDKit          2D

 14 15  0  0  1  0  0  0  0  0999 V2000
    4.7423    1.9390    0.0000 C   0  0  0  0  0  0  0  0  0  0  0  0
    3.9577    2.1939    0.0000 O   0  0  0  0  0  0  0  0  0  0  0  0
    3.3446    1.6419    0.0000 C   0  0  0  0  0  0  0  0  0  0  0  0
    3.5161    0.8349    0.0000 O   0  0  0  0  0  0  0  0  0  0  0  0
    2.5600    1.8968    0.0000 C   0  0  0  0  0  0  0  0  0  0  0  0
    1.9469    1.3448    0.0000 C   0  0  0  0  0  0  0  0  0  0  0  0
    1.4620    0.6773    0.0000 C   0  0  0  0  0  0  0  0  0  0  0  0
    0.6773    0.9323    0.0000 C   0  0  0  0  0  0  0  0  0  0  0  0
   -0.1477    0.9323    0.0000 C   0  0  0  0  0  0  0  0  0  0  0  0
   -0.1477    1.7573    0.0000 C   0  0  0  0  0  0  0  0  0  0  0  0
    0.6773    1.7573    0.0000 C   0  0  0  0  0  0  0  0  0  0  0  0
    1.4620    2.0122    0.0000 C   0  0  0  0  0  0  0  0  0  0  0  0
    2.5600    0.7927    0.0000 C   0  0  0  0  0  0  0  0  0  0  0  0
    2.3885   -0.0142    0.0000 N   0  0  0  0  0  0  0  0  0  0  0  0
  1  2  1  0
  2  3  1  0
  3  4  2  0
  3  5  1  0
  6  5  1  6
  6  7  1  0
  6 12  1  0
  6 13  1  0
  8  7  1  1
  8  9  1  0
  8 11  1  0
  9 10  1  0
 11 10  1  1
 11 12  1  0
 13 14  1  0
M  END
>  <DRUGBANK_ID>  (1) 
DB12493

>  <COMMON_NAME>  (1) 
PD-217014

>  <CAS_NUMBER>  (1) 
444088-20-4

>  <UNII>  (1) 
K2T93E812G

$$$$
