MDY
     RDKit          2D

 24 25  0  0  0  0  0  0  0  0999 V2000
    2.6456    0.6904    0.0000 C   0  0  0  0  0  0  0  0  0  0  0  0
    1.9311    0.2779    0.0000 O   0  0  0  0  0  0  0  0  0  0  0  0
    1.9311   -0.5471    0.0000 C   0  0  0  0  0  0  0  0  0  0  0  0
    2.6456   -0.9596    0.0000 C   0  0  0  0  0  0  0  0  0  0  0  0
    2.6456   -1.7846    0.0000 C   0  0  0  0  0  0  0  0  0  0  0  0
    1.9311   -2.1971    0.0000 C   0  0  0  0  0  0  0  0  0  0  0  0
    1.2166   -1.7846    0.0000 C   0  0  0  0  0  0  0  0  0  0  0  0
    1.2166   -0.9596    0.0000 C   0  0  0  0  0  0  0  0  0  0  0  0
    0.5022   -0.5471    0.0000 C   0  0  0  0  0  0  0  0  0  0  0  0
   -0.2123   -0.9596    0.0000 C   0  0  0  0  0  0  0  0  0  0  0  0
   -0.9268   -0.5471    0.0000 C   0  0  0  0  0  0  0  0  0  0  0  0
   -1.6412   -0.9596    0.0000 Cl  0  0  0  0  0  0  0  0  0  0  0  0
    0.5022    0.2779    0.0000 C   0  0  0  0  0  0  0  0  0  0  0  0
   -0.2123    0.6904    0.0000 C   0  0  0  0  0  0  0  0  0  0  0  0
   -0.9268    0.2779    0.0000 C   0  0  0  0  0  0  0  0  0  0  0  0
   -1.6412    0.6904    0.0000 N   0  0  0  0  0  0  0  0  0  0  0  0
   -1.6412    1.5154    0.0000 C   0  0  0  0  0  0  0  0  0  0  0  0
   -0.9268    1.9279    0.0000 O   0  0  0  0  0  0  0  0  0  0  0  0
   -2.3557    1.9279    0.0000 C   0  0  0  0  0  0  0  0  0  0  0  0
   -2.3557    2.7529    0.0000 C   0  0  0  0  0  0  0  0  0  0  0  0
   -2.3557    3.5779    0.0000 N   0  0  0  0  0  0  0  0  0  0  0  0
   -3.0702    1.5154    0.0000 C   0  0  0  0  0  0  0  0  0  0  0  0
   -3.7847    1.9279    0.0000 C   0  0  0  0  0  0  0  0  0  0  0  0
   -3.0702    0.6904    0.0000 O   0  0  0  0  0  0  0  0  0  0  0  0
  1  2  1  0
  2  3  1  0
  3  4  2  0
  3  8  1  0
  4  5  1  0
  5  6  2  0
  6  7  1  0
  7  8  2  0
  8  9  1  0
  9 10  2  0
  9 13  1  0
 10 11  1  0
 11 12  1  0
 11 15  2  0
 13 14  2  0
 14 15  1  0
 15 16  1  0
 16 17  1  0
 17 18  2  0
 17 19  1  0
 19 20  1  0
 19 22  2  0
 20 21  3  0
 22 23  1  0
 22 24  1  0
M  END
>  <DRUGBANK_ID>  (1) 
DB08172

>  <COMMON_NAME>  (1) 
(2Z)-N-(3-chloro-2'-methoxybiphenyl-4-yl)-2-cyano-3-hydroxybut-2-enamide

$$$$
