
     RDKit          2D

 17 19  0  0  1  0  0  0  0  0999 V2000
    3.2789    2.0625    0.0000 N   0  0  0  0  0  0  0  0  0  0  0  0
    3.2789    1.2375    0.0000 C   0  0  0  0  0  0  0  0  0  0  0  0
    3.9934    0.8250    0.0000 N   0  0  0  0  0  0  0  0  0  0  0  0
    3.9934    0.0000    0.0000 C   0  0  0  0  0  0  0  0  0  0  0  0
    3.2789   -0.4125    0.0000 N   0  0  0  0  0  0  0  0  0  0  0  0
    2.5645    0.0000    0.0000 C   0  0  0  0  0  0  0  0  0  0  0  0
    1.7798   -0.2549    0.0000 N   0  0  0  0  0  0  0  0  0  0  0  0
    1.2949    0.4125    0.0000 C   0  0  0  0  0  0  0  0  0  0  0  0
    1.7798    1.0799    0.0000 N   0  0  0  0  0  0  0  0  0  0  0  0
    2.5645    0.8250    0.0000 C   0  0  0  0  0  0  0  0  0  0  0  0
    1.5249   -1.0396    0.0000 C   0  0  0  0  0  0  0  0  0  0  0  0
    2.0098   -1.7070    0.0000 C   0  0  0  0  0  0  0  0  0  0  0  0
    1.5249   -2.3744    0.0000 C   0  0  0  0  0  0  0  0  0  0  0  0
    0.7403   -2.1195    0.0000 C   0  0  0  0  0  0  0  0  0  0  0  0
    0.0728   -2.6044    0.0000 C   0  0  0  0  0  0  0  0  0  0  0  0
    0.1591   -3.4249    0.0000 O   0  0  0  0  0  0  0  0  0  0  0  0
    0.7403   -1.2945    0.0000 O   0  0  0  0  0  0  0  0  0  0  0  0
  1  2  1  0
  2  3  2  0
  2 10  1  0
  3  4  1  0
  4  5  2  0
  5  6  1  0
  6  7  1  0
  6 10  2  0
  7  8  1  0
  8  9  2  0
  9 10  1  0
 11  7  1  1
 11 12  1  0
 11 17  1  0
 12 13  1  0
 14 13  1  0
 14 15  1  1
 14 17  1  0
 15 16  1  0
M  END
>  <DRUGBANK_ID>  (1) 
DB17756

>  <COMMON_NAME>  (1) 
Dideoxyadenosine

>  <CAS_NUMBER>  (1) 
4097-22-7

>  <UNII>  (1) 
4Q86AH641A

>  <SYNONYMS>  (1) 
2'-3'-dideoxyadenosine; 2',3'-dideoxyadenosine; 6-amino-9-(2',3'-dideoxy-.beta.-d-glycero-pentofuranosyl)purine; 9-(2,3-dideoxy-.beta.-d-glycero-pentofuranosyl)-9h-purin-6-amine; Dideoxyadenosine

$$$$
