669
     RDKit          2D

 30 32  0  0  0  0  0  0  0  0999 V2000
   -5.2914   -0.3163    0.0000 O   0  0  0  0  0  0  0  0  0  0  0  0
   -4.5770    0.0962    0.0000 C   0  0  0  0  0  0  0  0  0  0  0  0
   -4.5770    0.9212    0.0000 O   0  0  0  0  0  0  0  0  0  0  0  0
   -3.8625   -0.3163    0.0000 C   0  0  0  0  0  0  0  0  0  0  0  0
   -3.1480    0.0962    0.0000 C   0  0  0  0  0  0  0  0  0  0  0  0
   -2.4335   -0.3163    0.0000 C   0  0  0  0  0  0  0  0  0  0  0  0
   -1.7191    0.0962    0.0000 C   0  0  0  0  0  0  0  0  0  0  0  0
   -1.0046   -0.3163    0.0000 C   0  0  0  0  0  0  0  0  0  0  0  0
   -0.2901    0.0962    0.0000 N   0  0  0  0  0  0  0  0  0  0  0  0
   -0.2039    0.9167    0.0000 C   0  0  0  0  0  0  0  0  0  0  0  0
    0.6031    1.0882    0.0000 C   0  0  0  0  0  0  0  0  0  0  0  0
    1.0156    0.3738    0.0000 C   0  0  0  0  0  0  0  0  0  0  0  0
    1.8225    0.2022    0.0000 C   0  0  0  0  0  0  0  0  0  0  0  0
    2.0775   -0.5824    0.0000 C   0  0  0  0  0  0  0  0  0  0  0  0
    2.8845   -0.7539    0.0000 O   0  0  0  0  0  0  0  0  0  0  0  0
    3.4365   -0.1408    0.0000 C   0  0  0  0  0  0  0  0  0  0  0  0
    4.2435   -0.3123    0.0000 C   0  0  0  0  0  0  0  0  0  0  0  0
    4.7955    0.3008    0.0000 C   0  0  0  0  0  0  0  0  0  0  0  0
    4.5406    1.0854    0.0000 Cl  0  0  0  0  0  0  0  0  0  0  0  0
    5.6025    0.1292    0.0000 C   0  0  0  0  0  0  0  0  0  0  0  0
    5.8574   -0.6554    0.0000 C   0  0  0  0  0  0  0  0  0  0  0  0
    5.3054   -1.2685    0.0000 C   0  0  0  0  0  0  0  0  0  0  0  0
    4.4984   -1.0970    0.0000 C   0  0  0  0  0  0  0  0  0  0  0  0
    3.9464   -1.7101    0.0000 Cl  0  0  0  0  0  0  0  0  0  0  0  0
    1.5254   -1.1955    0.0000 C   0  0  0  0  0  0  0  0  0  0  0  0
    0.7185   -1.0239    0.0000 C   0  0  0  0  0  0  0  0  0  0  0  0
    0.4635   -0.2393    0.0000 C   0  0  0  0  0  0  0  0  0  0  0  0
   -0.8170    1.4687    0.0000 C   0  0  0  0  0  0  0  0  0  0  0  0
   -0.6455    2.2757    0.0000 O   0  0  0  0  0  0  0  0  0  0  0  0
   -1.6016    1.2138    0.0000 O   0  0  0  0  0  0  0  0  0  0  0  0
  1  2  1  0
  2  3  2  0
  2  4  1  0
  4  5  1  0
  5  6  1  0
  6  7  1  0
  7  8  1  0
  8  9  1  0
  9 10  1  0
  9 27  1  0
 10 11  2  0
 10 28  1  0
 11 12  1  0
 12 13  1  0
 12 27  2  0
 13 14  2  0
 14 15  1  0
 14 25  1  0
 15 16  1  0
 16 17  1  0
 17 18  2  0
 17 23  1  0
 18 19  1  0
 18 20  1  0
 20 21  2  0
 21 22  1  0
 22 23  2  0
 23 24  1  0
 25 26  2  0
 26 27  1  0
 28 29  1  0
 28 30  2  0
M  END
>  <DRUGBANK_ID>  (1) 
DB02316

>  <SECONDARY_ACCESSION_NUMBERS>  (1) 
EXPT00274

>  <COMMON_NAME>  (1) 
1-(5-Carboxypentyl)-5-[(2,6-Dichlorobenzyl)Oxy]-1 H-Indole-2-Carboxylic Acid

$$$$
