
     RDKit          2D

  5  3  0  0  0  0  0  0  0  0999 V2000
   -0.9503   -0.1869    0.0000 I   0  0  0  0  0  0  0  0  0  0  0  0
   -0.9639    0.7513    0.0000 O   0  0  0  0  0  0  0  0  0  0  0  0
   -1.5520   -0.7513    0.0000 O   0  0  0  0  0  0  0  0  0  0  0  0
   -0.1343   -0.1869    0.0000 O   0  0  0  0  0  0  0  0  0  0  0  0
    1.5520   -0.1360    0.0000 K   0  0  0  0  0 15  0  0  0  0  0  0
  1  2  1  0
  1  3  1  0
  1  4  1  0
M  CHG  5   1   2   2  -1   3  -1   4  -1   5   1
M  END
>  <DRUGBANK_ID>  (1) 
DB15923

>  <COMMON_NAME>  (1) 
Potassium iodate

>  <CAS_NUMBER>  (1) 
7758-05-6

>  <UNII>  (1) 
I139E44NHL

>  <SYNONYMS>  (1) 
Iodic acid, potassium salt

$$$$
