FR0
     RDKit          2D

 25 28  0  0  0  0  0  0  0  0999 V2000
    2.2291    0.4069    0.0000 N   0  0  0  0  0  0  0  0  0  0  0  0
    3.0137    0.6619    0.0000 C   0  0  0  0  0  0  0  0  0  0  0  0
    3.0137    1.4869    0.0000 C   0  0  0  0  0  0  0  0  0  0  0  0
    2.2291    1.7418    0.0000 N   0  0  0  0  0  0  0  0  0  0  0  0
    1.7442    1.0744    0.0000 C   0  0  0  0  0  0  0  0  0  0  0  0
    3.7282    0.2494    0.0000 C   0  0  0  0  0  0  0  0  0  0  0  0
    4.4427    0.6619    0.0000 C   0  0  0  0  0  0  0  0  0  0  0  0
    4.4427    1.4869    0.0000 C   0  0  0  0  0  0  0  0  0  0  0  0
    3.7282    1.8994    0.0000 C   0  0  0  0  0  0  0  0  0  0  0  0
    0.9192    1.0744    0.0000 N   0  0  0  0  0  0  0  0  0  0  0  0
    0.5067    0.3599    0.0000 C   0  0  0  0  0  0  0  0  0  0  0  0
   -0.3183    0.3599    0.0000 C   0  0  0  0  0  0  0  0  0  0  0  0
   -0.8032   -0.3075    0.0000 S   0  0  0  0  0  0  0  0  0  0  0  0
   -1.5879   -0.0526    0.0000 C   0  0  0  0  0  0  0  0  0  0  0  0
   -1.5879    0.7724    0.0000 C   0  0  0  0  0  0  0  0  0  0  0  0
   -0.8032    1.0273    0.0000 C   0  0  0  0  0  0  0  0  0  0  0  0
   -2.2553   -0.5375    0.0000 C   0  0  0  0  0  0  0  0  0  0  0  0
   -2.2553   -1.3625    0.0000 N   0  0  0  0  0  0  0  0  0  0  0  0
   -3.0399   -1.6175    0.0000 C   0  0  0  0  0  0  0  0  0  0  0  0
   -3.5248   -0.9500    0.0000 S   0  0  0  0  0  0  0  0  0  0  0  0
   -3.0399   -0.2826    0.0000 C   0  0  0  0  0  0  0  0  0  0  0  0
   -3.2949   -2.4021    0.0000 N   0  0  0  0  0  0  0  0  0  0  0  0
   -4.1018   -2.5736    0.0000 C   0  0  0  0  0  0  0  0  0  0  0  0
   -4.3568   -3.3582    0.0000 N   0  0  0  0  0  0  0  0  0  0  0  0
   -4.6539   -1.9605    0.0000 N   0  0  0  0  0  0  0  0  0  0  0  0
  1  2  1  0
  1  5  2  0
  2  3  2  0
  2  6  1  0
  3  4  1  0
  3  9  1  0
  4  5  1  0
  5 10  1  0
  6  7  2  0
  7  8  1  0
  8  9  2  0
 10 11  1  0
 11 12  1  0
 12 13  1  0
 12 16  2  0
 13 14  1  0
 14 15  2  0
 14 17  1  0
 15 16  1  0
 17 18  1  0
 17 21  2  0
 18 19  2  0
 19 20  1  0
 19 22  1  0
 20 21  1  0
 22 23  2  3
 23 24  1  0
 23 25  1  0
M  END
>  <DRUGBANK_ID>  (1) 
DB02616

>  <SECONDARY_ACCESSION_NUMBERS>  (1) 
EXPT01481

>  <COMMON_NAME>  (1) 
FR117016

$$$$
