
     RDKit          2D

 16 16  0  0  0  0  0  0  0  0999 V2000
    0.7137    0.4152    0.0000 C   0  0  0  0  0  0  0  0  0  0  0  0
   -0.0041    0.8278    0.0000 C   0  0  0  0  0  0  0  0  0  0  0  0
   -0.7138    0.4152    0.0000 C   0  0  0  0  0  0  0  0  0  0  0  0
   -1.4290    0.8267    0.0000 N   0  0  0  0  0  0  0  0  0  0  0  0
   -2.1454    0.4116    0.0000 N   0  0  0  0  0  0  0  0  0  0  0  0
   -2.8566    0.8217    0.0000 C   0  0  0  0  0  0  0  0  0  0  0  0
   -3.5730    0.4067    0.0000 N   0  0  0  0  0  0  0  0  0  0  0  0
   -2.8573    1.6469    0.0000 N   0  0  0  0  0  0  0  0  0  0  0  0
   -0.7138   -0.4098    0.0000 C   0  0  0  0  0  0  0  0  0  0  0  0
   -0.0041   -0.8224    0.0000 C   0  0  0  0  0  0  0  0  0  0  0  0
    0.7137   -0.4098    0.0000 C   0  0  0  0  0  0  0  0  0  0  0  0
    1.4279   -0.8231    0.0000 N   0  0  0  0  0  0  0  0  0  0  0  0
    2.1454   -0.4098    0.0000 N   0  0  0  0  0  0  0  0  0  0  0  0
    2.8554   -0.8217    0.0000 C   0  0  0  0  0  0  0  0  0  0  0  0
    3.5730   -0.4084    0.0000 S   0  0  0  0  0  0  0  0  0  0  0  0
    2.8542   -1.6469    0.0000 N   0  0  0  0  0  0  0  0  0  0  0  0
  1  2  2  0
  2  3  1  0
  3  4  2  3
  3  9  1  0
  4  5  1  0
  5  6  1  0
  6  7  2  0
  6  8  1  0
  9 10  2  0
 10 11  1  0
 11  1  1  0
 11 12  2  3
 12 13  1  0
 13 14  1  0
 14 15  2  0
 14 16  1  0
M  END
>  <DRUGBANK_ID>  (1) 
DB13697

>  <COMMON_NAME>  (1) 
Ambazone

>  <CAS_NUMBER>  (1) 
539-21-9

>  <UNII>  (1) 
BYK4592A3Q

>  <SYNONYMS>  (1) 
Ambazona; Ambazone; Ambazonum

$$$$
