
     RDKit          2D

 18 19  0  0  0  0  0  0  0  0999 V2000
    1.1547    1.8704    0.0000 O   0  0  0  0  0  0  0  0  0  0  0  0
   -0.1801    1.8704    0.0000 O   0  0  0  0  0  0  0  0  0  0  0  0
    1.0491    4.0763    0.0000 O   0  0  0  0  0  0  0  0  0  0  0  0
   -0.2272   -2.3272    0.0000 N   0  0  0  0  0  0  0  0  0  0  0  0
   -0.9417   -3.5647    0.0000 N   0  0  0  0  0  0  0  0  0  0  0  0
    0.4872   -3.5647    0.0000 N   0  0  0  0  0  0  0  0  0  0  0  0
    0.8997    2.6550    0.0000 C   0  0  0  0  0  0  0  0  0  0  0  0
    0.0747    2.6550    0.0000 C   0  0  0  0  0  0  0  0  0  0  0  0
    1.3847    3.3226    0.0000 C   0  0  0  0  0  0  0  0  0  0  0  0
    0.4872    0.5604    0.0000 C   0  0  0  0  0  0  0  0  0  0  0  0
    1.2017    0.1479    0.0000 C   0  0  0  0  0  0  0  0  0  0  0  0
   -0.2272    0.1479    0.0000 C   0  0  0  0  0  0  0  0  0  0  0  0
    0.4872   -1.0896    0.0000 C   0  0  0  0  0  0  0  0  0  0  0  0
    1.2017   -0.6771    0.0000 C   0  0  0  0  0  0  0  0  0  0  0  0
   -0.2272   -0.6771    0.0000 C   0  0  0  0  0  0  0  0  0  0  0  0
    0.4872   -1.9146    0.0000 C   0  0  0  0  0  0  0  0  0  0  0  0
   -0.2272   -3.1522    0.0000 C   0  0  0  0  0  0  0  0  0  0  0  0
    0.4872    1.3855    0.0000 B   0  0  0  0  0  0  0  0  0  0  0  0
  1  7  1  0
  1 18  1  0
  2  8  1  0
  2 18  1  0
  3  9  1  0
  4 16  1  0
  4 17  2  3
  5 17  1  0
  6 17  1  0
  7  8  1  0
  7  9  1  1
 10 11  2  0
 10 12  1  0
 10 18  1  0
 11 14  1  0
 12 15  2  0
 13 14  2  0
 13 15  1  0
 13 16  1  0
M  END
>  <DRUGBANK_ID>  (1) 
DB07887

>  <COMMON_NAME>  (1) 
(R)-1-(4-(4-(hydroxymethyl)-1,3,2-dioxaborolan-2-yl)benzyl)guanidine

$$$$
