
     RDKit          2D

 16 15  0  0  1  0  0  0  0  0999 V2000
    0.8047   -0.7744    0.0000 C   0  0  0  0  0  0  0  0  0  0  0  0
    0.8010    0.0532    0.0000 N   0  0  0  0  0  0  0  0  0  0  0  0
    0.0873   -1.1882    0.0000 C   0  0  0  0  0  0  0  0  0  0  0  0
    1.5185   -1.1882    0.0000 C   0  0  0  0  0  0  0  0  0  0  0  0
    0.8047    0.8770    0.0000 C   0  0  0  0  0  0  0  0  0  0  0  0
   -0.6264   -0.7744    0.0000 C   0  0  0  0  0  0  0  0  0  0  0  0
    1.5185   -2.0120    0.0000 O   0  0  0  0  0  0  0  0  0  0  0  0
    2.2359   -0.7744    0.0000 O   0  0  0  0  0  0  0  0  0  0  0  0
    0.0912    1.2907    0.0000 C   0  0  0  0  0  0  0  0  0  0  0  0
    1.5185    1.2907    0.0000 O   0  0  0  0  0  0  0  0  0  0  0  0
   -1.3400   -1.1882    0.0000 C   0  0  0  0  0  0  0  0  0  0  0  0
   -0.6264    0.8770    0.0000 C   0  0  0  0  0  0  0  0  0  0  0  0
   -2.0576   -0.7744    0.0000 N   0  0  0  0  0  0  0  0  0  0  0  0
   -1.3400    1.2907    0.0000 C   0  0  0  0  0  0  0  0  0  0  0  0
   -1.3363    2.1145    0.0000 O   0  0  0  0  0  0  0  0  0  0  0  0
   -2.0537    0.8731    0.0000 O   0  0  0  0  0  0  0  0  0  0  0  0
  1  2  1  0
  1  3  1  6
  1  4  1  0
  2  5  1  0
  3  6  1  0
  4  7  1  0
  4  8  2  0
  5  9  1  0
  5 10  2  0
  6 11  1  0
  9 12  1  0
 11 13  1  0
 12 14  1  0
 14 15  1  0
 14 16  2  0
M  END
>  <DRUGBANK_ID>  (1) 
DB03582

>  <SECONDARY_ACCESSION_NUMBERS>  (1) 
EXPT02981

>  <COMMON_NAME>  (1) 
N~2~-Succinylornithine

$$$$
