
     RDKit          2D

 12 12  0  0  0  0  0  0  0  0999 V2000
    0.7145    0.8250    0.0000 O   0  0  0  0  0  0  0  0  0  0  0  0
    0.0000    0.4125    0.0000 C   0  0  0  0  0  0  0  0  0  0  0  0
   -0.7145   -0.8250    0.0000 C   0  0  0  0  0  0  0  0  0  0  0  0
   -1.4289    0.4125    0.0000 C   0  0  0  0  0  0  0  0  0  0  0  0
   -0.7145    0.8250    0.0000 C   0  0  0  0  0  0  0  0  0  0  0  0
    0.0000   -0.4125    0.0000 C   0  0  0  0  0  0  0  0  0  0  0  0
    0.7145   -0.8250    0.0000 C   0  0  0  0  0  0  0  0  0  0  0  0
   -1.4289   -0.4125    0.0000 C   0  0  0  0  0  0  0  0  0  0  0  0
    1.4289    0.4125    0.0000 O   0  0  0  0  0  0  0  0  0  0  0  0
    1.4289   -0.4125    0.0000 C   0  0  0  0  0  0  0  0  0  0  0  0
   -2.1434   -0.8250    0.0000 O   0  0  0  0  0  0  0  0  0  0  0  0
    2.1434   -0.8250    0.0000 O   0  0  0  0  0  0  0  0  0  0  0  0
  2  1  1  0
  3  6  2  0
  3  8  1  0
  4  5  1  0
  5  2  2  0
  6  2  1  0
  7  6  1  0
  7 10  1  0
  8  4  2  0
  8 11  1  0
  9 10  2  0
 10 12  1  0
M  END
>  <DRUGBANK_ID>  (1) 
DB08327

>  <COMMON_NAME>  (1) 
Homogentisic acid

>  <CAS_NUMBER>  (1) 
451-13-8

>  <UNII>  (1) 
NP8UE6VF08

>  <SYNONYMS>  (1) 
2,5-Dihydroxyphenylacetic acid; Homogentisate acid; Homogentisic acid; Homogentisinic acid

$$$$
