
     RDKit          2D

 34 36  0  0  1  0  0  0  0  0999 V2000
    2.6426   -0.4642    0.0000 C   0  0  0  0  0  0  0  0  0  0  0  0
    2.9149   -1.2421    0.0000 C   0  0  0  0  0  0  0  0  0  0  0  0
    3.7473   -1.2345    0.0000 C   0  0  0  0  0  0  0  0  0  0  0  0
    4.2408   -1.9016    0.0000 O   0  0  0  0  0  0  0  0  0  0  0  0
    3.9909   -0.4659    0.0000 C   0  0  0  0  0  0  0  0  0  0  0  0
    3.3052    0.0244    0.0000 O   0  0  0  0  0  0  0  0  0  0  0  0
    4.6967   -0.0431    0.0000 C   0  0  0  0  0  0  0  0  0  0  0  0
    5.4100   -0.4478    0.0000 O   0  0  0  0  0  0  0  0  0  0  0  0
    2.4480   -1.9184    0.0000 O   0  0  0  0  0  0  0  0  0  0  0  0
    1.8405   -0.6846    0.0000 O   0  0  0  0  0  0  0  0  0  0  0  0
    1.0223   -0.6922    0.0000 C   0  0  0  0  0  0  0  0  0  0  0  0
    0.6079   -1.4056    0.0000 C   0  0  0  0  0  0  0  0  0  0  0  0
   -0.2199   -1.4134    0.0000 C   0  0  0  0  0  0  0  0  0  0  0  0
   -0.6381   -0.7029    0.0000 C   0  0  0  0  0  0  0  0  0  0  0  0
   -1.4659   -0.7106    0.0000 O   0  0  0  0  0  0  0  0  0  0  0  0
   -0.2238    0.0199    0.0000 C   0  0  0  0  0  0  0  0  0  0  0  0
    0.6039    0.0276    0.0000 O   0  0  0  0  0  0  0  0  0  0  0  0
   -0.6421    0.7398    0.0000 C   0  0  0  0  0  0  0  0  0  0  0  0
   -2.1132    0.7262    0.0000 O   0  0  0  0  0  0  0  0  0  0  0  0
   -2.9408    0.7184    0.0000 C   0  0  0  0  0  0  0  0  0  0  0  0
   -3.3505    0.0003    0.0000 C   0  0  0  0  0  0  0  0  0  0  0  0
   -4.1783   -0.0073    0.0000 C   0  0  0  0  0  0  0  0  0  0  0  0
   -4.5965    0.7030    0.0000 C   0  0  0  0  0  0  0  0  0  0  0  0
   -5.4100    0.6954    0.0000 O   0  0  0  0  0  0  0  0  0  0  0  0
   -4.1916    1.4211    0.0000 C   0  0  0  0  0  0  0  0  0  0  0  0
   -3.3638    1.4288    0.0000 O   0  0  0  0  0  0  0  0  0  0  0  0
   -4.6098    2.1316    0.0000 C   0  0  0  0  0  0  0  0  0  0  0  0
   -5.4077    1.9775    0.0000 O   0  0  0  0  0  0  0  0  0  0  0  0
   -4.5831   -0.7302    0.0000 O   0  0  0  0  0  0  0  0  0  0  0  0
   -2.9274   -0.7147    0.0000 O   0  0  0  0  0  0  0  0  0  0  0  0
   -0.6342   -2.1316    0.0000 O   0  0  0  0  0  0  0  0  0  0  0  0
    1.0214   -2.1256    0.0000 O   0  0  0  0  0  0  0  0  0  0  0  0
    2.6350    0.3587    0.0000 C   0  0  0  0  0  0  0  0  0  0  0  0
    1.9122    0.7635    0.0000 O   0  0  0  0  0  0  0  0  0  0  0  0
  1 10  1  0
  1 33  1  1
  2  1  1  0
  2  9  1  6
  3  2  1  0
  3  4  1  1
  3  5  1  0
  5  6  1  0
  5  7  1  6
  6  1  1  0
  8  7  1  0
 11 10  1  6
 12 11  1  0
 12 32  1  6
 13 12  1  0
 13 31  1  1
 14 13  1  0
 14 15  1  6
 16 14  1  0
 16 17  1  0
 16 18  1  1
 17 11  1  0
 19 18  1  0
 20 19  1  6
 21 20  1  0
 21 30  1  6
 22 21  1  0
 22 29  1  1
 23 22  1  0
 23 24  1  1
 25 23  1  0
 25 26  1  0
 25 27  1  1
 26 20  1  0
 28 27  1  0
 34 33  1  0
M  END
>  <DRUGBANK_ID>  (1) 
DB16839

>  <COMMON_NAME>  (1) 
Raffinose

>  <CAS_NUMBER>  (1) 
512-69-6

>  <UNII>  (1) 
N5O3QU595M

>  <SYNONYMS>  (1) 
Gossypose; Melitose; Melitriose

$$$$
