RF2
     RDKit          2D

 18 20  0  0  0  0  0  0  0  0999 V2000
   -0.1531    1.6474    0.0000 C   0  0  0  0  0  0  0  0  0  0  0  0
   -0.1531    2.4724    0.0000 C   0  0  0  0  0  0  0  0  0  0  0  0
   -0.8676    2.8849    0.0000 C   0  0  0  0  0  0  0  0  0  0  0  0
   -0.8676    3.7099    0.0000 F   0  0  0  0  0  0  0  0  0  0  0  0
   -1.5821    2.4724    0.0000 C   0  0  0  0  0  0  0  0  0  0  0  0
   -1.5821    1.6474    0.0000 C   0  0  0  0  0  0  0  0  0  0  0  0
   -0.8676    1.2349    0.0000 C   0  0  0  0  0  0  0  0  0  0  0  0
   -0.8676    0.4099    0.0000 C   0  0  0  0  0  0  0  0  0  0  0  0
   -0.2002   -0.0750    0.0000 N   0  0  0  0  0  0  0  0  0  0  0  0
   -1.5350   -0.0750    0.0000 N   0  0  0  0  0  0  0  0  0  0  0  0
   -1.2801   -0.8597    0.0000 N   0  0  0  0  0  0  0  0  0  0  0  0
   -0.4551   -0.8597    0.0000 C   0  0  0  0  0  0  0  0  0  0  0  0
    0.0298   -1.5271    0.0000 C   0  0  0  0  0  0  0  0  0  0  0  0
   -0.3057   -2.2808    0.0000 C   0  0  0  0  0  0  0  0  0  0  0  0
    0.1792   -2.9482    0.0000 C   0  0  0  0  0  0  0  0  0  0  0  0
    0.9997   -2.8620    0.0000 C   0  0  0  0  0  0  0  0  0  0  0  0
    1.3352   -2.1083    0.0000 C   0  0  0  0  0  0  0  0  0  0  0  0
    0.8503   -1.4409    0.0000 C   0  0  0  0  0  0  0  0  0  0  0  0
  1  7  2  0
  1  2  1  0
  2  3  2  0
  3  5  1  0
  3  4  1  0
  6  5  2  0
  7  6  1  0
  8  7  1  0
  8  9  1  0
 10  8  2  0
 11 10  1  0
 11 12  2  0
 12  9  1  0
 13 12  1  0
 13 18  1  0
 14 13  2  0
 15 14  1  0
 15 16  2  0
 16 17  1  0
 17 18  2  0
M  END
>  <DRUGBANK_ID>  (1) 
DB08470

>  <COMMON_NAME>  (1) 
3-(4-fluorophenyl)-5-phenyl-4H-1,2,4-triazole

$$$$
