
     RDKit          2D

 17 18  0  0  0  0  0  0  0  0999 V2000
   -1.4566   -1.3796    0.0000 O   0  0  0  0  0  0  0  0  0  0  0  0
   -2.8856   -0.5546    0.0000 O   0  0  0  0  0  0  0  0  0  0  0  0
    1.4146   -1.4081    0.0000 O   0  0  0  0  0  0  0  0  0  0  0  0
   -0.0277   -0.5546    0.0000 N   0  0  0  0  0  0  0  0  0  0  0  0
   -0.0277    1.0953    0.0000 N   0  0  0  0  0  0  0  0  0  0  0  0
    1.4242    1.1239    0.0000 N   0  0  0  0  0  0  0  0  0  0  0  0
    2.1717   -0.1593    0.0000 N   0  0  0  0  0  0  0  0  0  0  0  0
    2.8846    1.1152    0.0000 N   0  0  0  0  0  0  0  0  0  0  0  0
   -0.7422   -0.1421    0.0000 C   0  0  0  0  0  0  0  0  0  0  0  0
   -1.4566   -0.5546    0.0000 C   0  0  0  0  0  0  0  0  0  0  0  0
   -0.7422    0.6828    0.0000 C   0  0  0  0  0  0  0  0  0  0  0  0
   -2.1711   -0.1421    0.0000 C   0  0  0  0  0  0  0  0  0  0  0  0
    0.6867   -0.1421    0.0000 C   0  0  0  0  0  0  0  0  0  0  0  0
    0.6867    0.6828    0.0000 C   0  0  0  0  0  0  0  0  0  0  0  0
   -2.1711    0.6828    0.0000 C   0  0  0  0  0  0  0  0  0  0  0  0
    1.4242   -0.5832    0.0000 C   0  0  0  0  0  0  0  0  0  0  0  0
    2.1717    0.7000    0.0000 C   0  0  0  0  0  0  0  0  0  0  0  0
  3 16  2  0
  4  9  1  0
  4 13  1  0
  5 11  1  0
  5 14  1  0
  6 14  1  0
  6 17  1  0
  7 16  1  0
  7 17  2  0
  8 17  1  0
  9 10  1  0
  9 11  1  1
 10  1  1  6
 10 12  1  0
 12  2  1  0
 12 15  1  6
 13 14  2  0
 13 16  1  0
M  END
>  <DRUGBANK_ID>  (1) 
DB03918

>  <SECONDARY_ACCESSION_NUMBERS>  (1) 
EXPT00702

>  <COMMON_NAME>  (1) 
6S-5,6,7,8-Tetrahydrobiopterin

$$$$
