
     RDKit          2D

 30 33  0  0  0  0  0  0  0  0999 V2000
   -1.3222    5.7134    0.0000 C   0  0  0  0  0  0  0  0  0  0  0  0
   -1.3222    4.8884    0.0000 C   0  0  0  0  0  0  0  0  0  0  0  0
   -0.6078    6.1259    0.0000 C   0  0  0  0  0  0  0  0  0  0  0  0
   -0.6078    4.4759    0.0000 C   0  0  0  0  0  0  0  0  0  0  0  0
    0.1067    5.7134    0.0000 C   0  0  0  0  0  0  0  0  0  0  0  0
    1.5356    2.4134    0.0000 C   0  0  0  0  0  0  0  0  0  0  0  0
    0.1067    2.4134    0.0000 C   0  0  0  0  0  0  0  0  0  0  0  0
   -1.3222   -1.7116    0.0000 C   0  0  0  0  0  0  0  0  0  0  0  0
    1.5356    3.2384    0.0000 C   0  0  0  0  0  0  0  0  0  0  0  0
    0.1067    3.2384    0.0000 C   0  0  0  0  0  0  0  0  0  0  0  0
   -0.6078   -1.2991    0.0000 C   0  0  0  0  0  0  0  0  0  0  0  0
    1.2337   -2.5687    0.0000 C   0  0  0  0  0  0  0  0  0  0  0  0
    1.4886   -1.7840    0.0000 C   0  0  0  0  0  0  0  0  0  0  0  0
   -2.0367   -0.4741    0.0000 C   0  0  0  0  0  0  0  0  0  0  0  0
    0.8212   -0.4741    0.0000 C   0  0  0  0  0  0  0  0  0  0  0  0
    0.8212    1.1759    0.0000 C   0  0  0  0  0  0  0  0  0  0  0  0
    0.1537   -1.7840    0.0000 C   0  0  0  0  0  0  0  0  0  0  0  0
    0.8212    2.0009    0.0000 C   0  0  0  0  0  0  0  0  0  0  0  0
   -2.0367   -1.2991    0.0000 C   0  0  0  0  0  0  0  0  0  0  0  0
    0.1067    4.8884    0.0000 C   0  0  0  0  0  0  0  0  0  0  0  0
    0.8212    3.6509    0.0000 C   0  0  0  0  0  0  0  0  0  0  0  0
   -0.6078   -0.4741    0.0000 C   0  0  0  0  0  0  0  0  0  0  0  0
   -1.3222   -0.0616    0.0000 C   0  0  0  0  0  0  0  0  0  0  0  0
    0.1067   -0.0616    0.0000 C   0  0  0  0  0  0  0  0  0  0  0  0
   -2.7512   -1.7116    0.0000 Cl  0  0  0  0  0  0  0  0  0  0  0  0
   -1.3222    0.7634    0.0000 Cl  0  0  0  0  0  0  0  0  0  0  0  0
    0.4087   -2.5687    0.0000 N   0  0  0  0  0  0  0  0  0  0  0  0
    0.8212   -1.2991    0.0000 N   0  0  0  0  0  0  0  0  0  0  0  0
    0.1067    0.7634    0.0000 O   0  0  0  0  0  0  0  0  0  0  0  0
    0.8212    4.4759    0.0000 S   0  0  0  0  0  0  0  0  0  0  0  0
  2  1  2  0
  3  1  1  0
  4  2  1  0
  5  3  2  0
  9  6  2  0
 10  7  1  0
 11  8  2  0
 13 12  2  0
 18  6  1  0
 18  7  2  0
 18 16  1  0
 19  8  1  0
 19 14  2  0
 20  4  2  0
 20  5  1  0
 21  9  1  0
 21 10  2  0
 22 11  1  0
 23 14  1  0
 23 22  2  0
 24 15  1  0
 24 22  1  0
 25 19  1  0
 26 23  1  0
 27 12  1  0
 27 17  2  0
 28 13  1  0
 28 15  1  0
 28 17  1  0
 29 16  1  0
 29 24  1  0
 30 20  1  0
 30 21  1  0
M  END
>  <DRUGBANK_ID>  (1) 
DB13434

>  <COMMON_NAME>  (1) 
Fenticonazole

>  <CAS_NUMBER>  (1) 
72479-26-6

>  <UNII>  (1) 
QG05NRB077

>  <SYNONYMS>  (1) 
Fenticonazole

$$$$
