
     RDKit          2D

 32 35  0  0  0  0  0  0  0  0999 V2000
   -4.1145    2.6805    0.0000 C   0  0  0  0  0  0  0  0  0  0  0  0
   -2.7909    2.1421    0.0000 C   0  0  0  0  0  0  0  0  0  0  0  0
    2.4865   -2.6805    0.0000 C   0  0  0  0  0  0  0  0  0  0  0  0
    3.4840   -2.3202    0.0000 C   0  0  0  0  0  0  0  0  0  0  0  0
    1.3978   -0.2089    0.0000 C   0  0  0  0  0  0  0  0  0  0  0  0
   -0.2802   -2.1261    0.0000 C   0  0  0  0  0  0  0  0  0  0  0  0
    0.0233   -2.2345    0.0000 C   0  0  0  0  0  0  0  0  0  0  0  0
   -1.4377    0.5816    0.0000 C   0  0  0  0  0  0  0  0  0  0  0  0
   -3.4127    0.6137    0.0000 C   0  0  0  0  0  0  0  0  0  0  0  0
   -3.9190    1.2650    0.0000 C   0  0  0  0  0  0  0  0  0  0  0  0
   -0.2263    0.0814    0.0000 C   0  0  0  0  0  0  0  0  0  0  0  0
    0.5857   -0.0637    0.0000 C   0  0  0  0  0  0  0  0  0  0  0  0
   -1.8120   -1.3685    0.0000 C   0  0  0  0  0  0  0  0  0  0  0  0
    1.4266   -2.3915    0.0000 C   0  0  0  0  0  0  0  0  0  0  0  0
    3.0221   -0.4993    0.0000 C   0  0  0  0  0  0  0  0  0  0  0  0
   -2.5954    0.7266    0.0000 C   0  0  0  0  0  0  0  0  0  0  0  0
    2.2099   -0.3541    0.0000 C   0  0  0  0  0  0  0  0  0  0  0  0
   -1.1292   -1.8315    0.0000 C   0  0  0  0  0  0  0  0  0  0  0  0
    0.6145   -2.2463    0.0000 C   0  0  0  0  0  0  0  0  0  0  0  0
   -3.6081    2.0292    0.0000 C   0  0  0  0  0  0  0  0  0  0  0  0
   -0.7581   -0.5492    0.0000 C   0  0  0  0  0  0  0  0  0  0  0  0
   -1.5827   -0.5760    0.0000 C   0  0  0  0  0  0  0  0  0  0  0  0
    1.9584   -1.7608    0.0000 C   0  0  0  0  0  0  0  0  0  0  0  0
    0.8660   -0.8396    0.0000 C   0  0  0  0  0  0  0  0  0  0  0  0
    3.3024   -1.2753    0.0000 C   0  0  0  0  0  0  0  0  0  0  0  0
    2.7705   -1.9060    0.0000 C   0  0  0  0  0  0  0  0  0  0  0  0
    1.6781   -0.9848    0.0000 C   0  0  0  0  0  0  0  0  0  0  0  0
   -0.4778   -1.3251    0.0000 C   0  0  0  0  0  0  0  0  0  0  0  0
    0.3342   -1.4703    0.0000 C   0  0  0  0  0  0  0  0  0  0  0  0
   -2.0891    0.0752    0.0000 C   0  0  0  0  0  0  0  0  0  0  0  0
    4.1145   -1.4205    0.0000 O   0  0  0  0  0  0  0  0  0  0  0  0
   -2.7404   -0.4310    0.0000 O   0  0  0  0  0  0  0  0  0  0  0  0
 10  9  1  0
 12 11  1  0
 16  9  1  0
 17 15  1  0
 18 13  1  0
 19 14  1  0
 20  1  1  0
 20  2  1  0
 20 10  2  3
 21 11  1  0
 22 13  1  0
 22 21  1  0
 22 30  1  6
 23 14  1  6
 23 26  1  0
 24 12  1  6
 24 27  1  0
 24 29  1  0
 25 15  1  0
 25 26  1  0
 25 31  1  6
 26  3  1  0
 26  4  1  0
 27  5  1  6
 27 17  1  0
 27 23  1  0
 28  6  1  1
 28 18  1  0
 28 21  1  0
 29  7  1  6
 29 19  1  0
 29 28  1  0
 30  8  1  0
 30 16  1  0
 32 30  1  0
M  END
>  <DRUGBANK_ID>  (1) 
DB14152

>  <COMMON_NAME>  (1) 
Ginsenosides

>  <CAS_NUMBER>  (1) 
74749-74-9

>  <UNII>  (1) 
3K198YD54P

>  <SYNONYMS>  (1) 
Ginseng root-neutral saponins; Ginsenoside; Neutral saponins of panax ginseng root

$$$$
