
     RDKit          2D

 29 31  0  0  0  0  0  0  0  0999 V2000
    3.9318    0.0587    0.0000 N   0  0  0  0  0  0  0  0  0  0  0  0
    3.2279    0.4674    0.0000 C   0  0  0  0  0  0  0  0  0  0  0  0
    3.9431   -1.7350    0.0000 C   0  0  0  0  0  0  0  0  0  0  0  0
    4.6471    0.4711    0.0000 C   0  0  0  0  0  0  0  0  0  0  0  0
    3.2242    1.2923    0.0000 C   0  0  0  0  0  0  0  0  0  0  0  0
    2.5203    0.0624    0.0000 N   0  0  0  0  0  0  0  0  0  0  0  0
    2.9253   -1.1674    0.0000 O   0  0  0  0  0  0  0  0  0  0  0  0
    3.5496   -2.5108    0.0000 C   0  0  0  0  0  0  0  0  0  0  0  0
    4.6433    1.2960    0.0000 N   0  0  0  0  0  0  0  0  0  0  0  0
    2.5164    1.6972    0.0000 C   0  0  0  0  0  0  0  0  0  0  0  0
    1.8127    0.4674    0.0000 C   0  0  0  0  0  0  0  0  0  0  0  0
    1.9109   -1.7350    0.0000 C   0  0  0  0  0  0  0  0  0  0  0  0
    2.2895   -2.5108    0.0000 C   0  0  0  0  0  0  0  0  0  0  0  0
    1.8127    1.2885    0.0000 N   0  0  0  0  0  0  0  0  0  0  0  0
    2.5164    2.5108    0.0000 N   0  0  0  0  0  0  0  0  0  0  0  0
    1.3018   -1.2204    0.0000 C   0  0  0  0  0  0  0  0  0  0  0  0
    0.4352   -1.5874    0.0000 O   0  0  0  0  0  0  0  0  0  0  0  0
   -0.6092   -1.1901    0.0000 P   0  0  0  0  0  0  0  0  0  0  0  0
   -1.5364   -1.6252    0.0000 O   0  0  0  0  0  0  0  0  0  0  0  0
   -0.6092   -0.4523    0.0000 O   0  0  0  0  0  0  0  0  0  0  0  0
   -0.6092   -1.9432    0.0000 O   0  0  0  0  0  0  0  0  0  0  0  0
   -2.2403   -1.1598    0.0000 P   0  0  0  0  0  0  0  0  0  0  0  0
   -3.0766   -1.6252    0.0000 O   0  0  0  0  0  0  0  0  0  0  0  0
   -2.2403   -0.4408    0.0000 O   0  0  0  0  0  0  0  0  0  0  0  0
   -2.2403   -1.9129    0.0000 O   0  0  0  0  0  0  0  0  0  0  0  0
   -3.9015   -1.2545    0.0000 P   0  0  0  0  0  0  0  0  0  0  0  0
   -3.9015   -0.5278    0.0000 O   0  0  0  0  0  0  0  0  0  0  0  0
   -4.6471   -1.5004    0.0000 O   0  0  0  0  0  0  0  0  0  0  0  0
   -3.9015   -2.0038    0.0000 O   0  0  0  0  0  0  0  0  0  0  0  0
  1  2  1  0
  1  4  1  0
  2  5  2  0
  2  6  1  0
  3  1  1  1
  3  7  1  0
  3  8  1  0
  4  9  2  0
  5 10  1  0
  5  9  1  0
  6 11  2  0
  7 12  1  0
  8 13  1  0
 10 14  2  0
 10 15  1  0
 11 14  1  0
 12 16  1  1
 12 13  1  0
 16 17  1  0
 17 18  1  0
 18 19  1  0
 18 20  1  0
 18 21  2  0
 19 22  1  0
 22 23  1  0
 22 24  1  0
 22 25  2  0
 23 26  1  0
 26 27  1  0
 26 28  1  0
 26 29  2  0
M  END
>  <DRUGBANK_ID>  (1) 
DB02189

>  <SECONDARY_ACCESSION_NUMBERS>  (1) 
EXPT01104

>  <COMMON_NAME>  (1) 
2',3'-Dideoxyadenosine triphosphate

>  <CAS_NUMBER>  (1) 
24027-80-3

>  <UNII>  (1) 
9MCI2H1EJ6

>  <SYNONYMS>  (1) 
2',3'-DDATP; 2',3'-Dideoxy-ATP; 2',3'-dideoxyadenosine 5'-triphosphate; 2',3'-dideoxyadenosine triphosphate; DDATP; Dideoxyadenosine 5'-triphosphate

$$$$
