
     RDKit          2D

 28 29  0  0  0  0  0  0  0  0999 V2000
    2.8606    2.0466    0.0000 C   0  0  0  0  0  0  0  0  0  0  0  0
   -0.7120    1.6426    0.0000 C   0  0  0  0  0  0  0  0  0  0  0  0
    0.0082    2.0466    0.0000 N   0  0  0  0  0  0  0  0  0  0  0  0
    0.7120    1.6343    0.0000 C   0  0  0  0  0  0  0  0  0  0  0  0
   -2.8481    2.0674    0.0000 C   0  0  0  0  0  0  0  0  0  0  0  0
    2.1486    1.6343    0.0000 C   0  0  0  0  0  0  0  0  0  0  0  0
   -1.0493   -0.9306    0.0000 C   0  0  0  0  0  0  0  0  0  0  0  0
    1.4323    2.0466    0.0000 C   0  0  0  0  0  0  0  0  0  0  0  0
    2.8606    2.8794    0.0000 O   0  0  0  0  0  0  0  0  0  0  0  0
   -0.7370    1.0430    0.0000 O   0  0  0  0  0  0  0  0  0  0  0  0
   -3.5727    1.6552    0.0000 O   0  0  0  0  0  0  0  0  0  0  0  0
   -1.6364   -1.5135    0.0000 C   0  0  0  0  0  0  0  0  0  0  0  0
   -1.2616   -0.1311    0.0000 C   0  0  0  0  0  0  0  0  0  0  0  0
   -0.2415   -1.1513    0.0000 C   0  0  0  0  0  0  0  0  0  0  0  0
    0.7120    0.8099    0.0000 C   0  0  0  0  0  0  0  0  0  0  0  0
   -1.4240    2.0549    0.0000 C   0  0  0  0  0  0  0  0  0  0  0  0
   -2.1361    1.6469    0.0000 C   0  0  0  0  0  0  0  0  0  0  0  0
    3.5727    1.6426    0.0000 O   0  0  0  0  0  0  0  0  0  0  0  0
    0.1331    0.2310    0.0000 C   0  0  0  0  0  0  0  0  0  0  0  0
   -2.8481    2.8919    0.0000 O   0  0  0  0  0  0  0  0  0  0  0  0
    0.3373   -0.5683    0.0000 C   0  0  0  0  0  0  0  0  0  0  0  0
   -0.6662    0.4559    0.0000 C   0  0  0  0  0  0  0  0  0  0  0  0
    2.1486    0.8099    0.0000 C   0  0  0  0  0  0  0  0  0  0  0  0
   -2.4235   -1.2929    0.0000 C   0  0  0  0  0  0  0  0  0  0  0  0
   -1.4240   -2.3048    0.0000 C   0  0  0  0  0  0  0  0  0  0  0  0
   -1.9987   -2.8919    0.0000 C   0  0  0  0  0  0  0  0  0  0  0  0
   -3.0106   -1.8758    0.0000 C   0  0  0  0  0  0  0  0  0  0  0  0
   -2.7982   -2.6753    0.0000 C   0  0  0  0  0  0  0  0  0  0  0  0
  2  3  1  0
  3  4  1  0
  4  8  1  1
  4 15  1  0
  5 17  1  0
  6  1  1  0
  6 23  1  6
  7 13  2  0
  7 14  1  0
  8  6  1  0
  9  1  2  0
 10  2  2  0
 11  5  2  0
 12  7  1  0
 13 22  1  0
 14 21  2  0
 16  2  1  0
 17 16  1  0
 18  1  1  0
 19 15  1  0
 20  5  1  0
 21 19  1  0
 22 19  2  0
 24 12  2  0
 25 12  1  0
 26 25  2  0
 27 24  1  0
 27 28  2  0
 28 26  1  0
M  END
>  <DRUGBANK_ID>  (1) 
DB14127

>  <COMMON_NAME>  (1) 
Sacubitrilat

>  <CAS_NUMBER>  (1) 
149709-44-4

>  <UNII>  (1) 
SPI5PBF81S

>  <SYNONYMS>  (1) 
Sacubitrilat

$$$$
