
     RDKit          2D

 28 31  0  0  0  0  0  0  0  0999 V2000
    0.2694   -0.5333    0.0000 C   0  0  0  0  0  0  0  0  0  0  0  0
    1.0228   -0.1248    0.0000 C   0  0  0  0  0  0  0  0  0  0  0  0
   -0.4418   -0.1143    0.0000 C   0  0  0  0  0  0  0  0  0  0  0  0
    0.2694   -1.3572    0.0000 C   0  0  0  0  0  0  0  0  0  0  0  0
    1.0338    0.6954    0.0000 C   0  0  0  0  0  0  0  0  0  0  0  0
    2.4031   -0.1002    0.0000 C   0  0  0  0  0  0  0  0  0  0  0  0
   -1.1566   -0.5262    0.0000 C   0  0  0  0  0  0  0  0  0  0  0  0
   -0.4773    0.7060    0.0000 C   0  0  0  0  0  0  0  0  0  0  0  0
   -0.4489   -1.7657    0.0000 C   0  0  0  0  0  0  0  0  0  0  0  0
    1.7060    1.0969    0.0000 C   0  0  0  0  0  0  0  0  0  0  0  0
    0.2834    1.1145    0.0000 C   0  0  0  0  0  0  0  0  0  0  0  0
    1.0474    1.5158    0.0000 C   0  0  0  0  0  0  0  0  0  0  0  0
    2.3711    0.6778    0.0000 C   0  0  0  0  0  0  0  0  0  0  0  0
   -1.1601   -1.3503    0.0000 C   0  0  0  0  0  0  0  0  0  0  0  0
   -1.8714   -0.1108    0.0000 C   0  0  0  0  0  0  0  0  0  0  0  0
   -1.2022    0.2659    0.0000 C   0  0  0  0  0  0  0  0  0  0  0  0
   -1.1460    1.1250    0.0000 O   0  0  0  0  0  0  0  0  0  0  0  0
   -0.4523   -2.5966    0.0000 F   0  0  0  0  0  0  0  0  0  0  0  0
    1.7165    2.1776    0.0000 C   0  0  0  0  0  0  0  0  0  0  0  0
    2.3855    1.6003    0.0000 O   0  0  0  0  0  0  0  0  0  0  0  0
    3.3009    0.8891    0.0000 C   0  0  0  0  0  0  0  0  0  0  0  0
   -1.8714   -1.7621    0.0000 C   0  0  0  0  0  0  0  0  0  0  0  0
   -2.5896   -0.5262    0.0000 C   0  0  0  0  0  0  0  0  0  0  0  0
    2.4383    2.5791    0.0000 C   0  0  0  0  0  0  0  0  0  0  0  0
    1.0053    2.5966    0.0000 O   0  0  0  0  0  0  0  0  0  0  0  0
   -2.5896   -1.3503    0.0000 C   0  0  0  0  0  0  0  0  0  0  0  0
    3.1460    2.1601    0.0000 O   0  0  0  0  0  0  0  0  0  0  0  0
   -3.3009   -1.7621    0.0000 O   0  0  0  0  0  0  0  0  0  0  0  0
  1  4  1  6
  1  2  1  0
  1  3  1  0
  2  5  1  0
  2  6  1  1
  3  7  1  0
  3  8  1  1
  4  9  1  0
  5 10  1  0
  5 11  1  0
  5 12  1  1
  6 13  1  0
  7 14  1  0
  7 15  1  0
  7 16  1  1
  8 17  1  1
  8 11  1  0
  9 18  1  6
  9 14  1  0
 10 19  1  0
 10 20  1  6
 10 13  1  0
 13 21  1  6
 14 22  2  0
 15 23  2  0
 19 24  1  0
 19 25  2  0
 22 26  1  0
 23 26  1  0
 24 27  1  0
 26 28  2  0
M  END
>  <DRUGBANK_ID>  (1) 
DB01384

>  <COMMON_NAME>  (1) 
Paramethasone

>  <CAS_NUMBER>  (1) 
53-33-8

>  <UNII>  (1) 
VFC6ZX3584

>  <SYNONYMS>  (1) 
Parametasona; Parametasone; Paramethasone; Paramethasonum

$$$$
