
     RDKit          2D

 12 12  0  0  0  0  0  0  0  0999 V2000
   -0.7145   -2.8875    0.0000 C   0  0  0  0  0  0  0  0  0  0  0  0
    0.0000   -2.4750    0.0000 C   0  0  0  0  0  0  0  0  0  0  0  0
    1.4289    0.0000    0.0000 C   0  0  0  0  0  0  0  0  0  0  0  0
    0.0000    0.0000    0.0000 C   0  0  0  0  0  0  0  0  0  0  0  0
    1.4289    0.8250    0.0000 C   0  0  0  0  0  0  0  0  0  0  0  0
    0.0000    0.8250    0.0000 C   0  0  0  0  0  0  0  0  0  0  0  0
    0.7145   -0.4125    0.0000 C   0  0  0  0  0  0  0  0  0  0  0  0
    0.7145    1.2375    0.0000 C   0  0  0  0  0  0  0  0  0  0  0  0
    0.7145   -1.2375    0.0000 C   0  0  0  0  0  0  0  0  0  0  0  0
    0.7145    2.0625    0.0000 O   0  0  0  0  0  0  0  0  0  0  0  0
    1.4289   -1.6500    0.0000 O   0  0  0  0  0  0  0  0  0  0  0  0
    0.0000   -1.6500    0.0000 O   0  0  0  0  0  0  0  0  0  0  0  0
  2  1  1  0
  5  3  2  0
  6  4  1  0
  7  3  1  0
  7  4  2  0
  8  5  1  0
  8  6  2  0
  9  7  1  0
 10  8  1  0
 11  9  2  0
 12  2  1  0
 12  9  1  0
M  END
>  <DRUGBANK_ID>  (1) 
DB13628

>  <COMMON_NAME>  (1) 
Ethyl hydroxybenzoate

>  <CAS_NUMBER>  (1) 
120-47-8

>  <UNII>  (1) 
14255EXE39

>  <SYNONYMS>  (1) 
4-hydroxybenzoic acid ethyl ester; Ethyl p-hydroxybenzoate; Ethyl paraben; Ethylparaben; p-hydroxybenzoic acid ethyl ester; p-Oxybenzoesaeureaethylester

$$$$
