
     RDKit          2D

 11 11  0  0  1  0  0  0  0  0999 V2000
    4.3825    0.4030    0.0000 S   0  0  0  0  0  0  0  0  0  0  0  0
    3.7694   -0.1491    0.0000 S   0  0  0  0  0  0  0  0  0  0  0  0
    2.3173   -0.3790    0.0000 N   0  0  0  0  0  0  0  0  0  0  0  0
    2.7299    0.8905    0.0000 N   0  0  0  0  0  0  0  0  0  0  0  0
    5.1671    0.1481    0.0000 C   0  0  0  0  0  0  0  0  0  0  0  0
    5.7802    0.7000    0.0000 C   0  0  0  0  0  0  0  0  0  0  0  0
    5.3386   -0.6590    0.0000 C   0  0  0  0  0  0  0  0  0  0  0  0
    6.5648    0.4452    0.0000 C   0  0  0  0  0  0  0  0  0  0  0  0
    2.9848    0.1059    0.0000 C   0  0  0  0  0  0  0  0  0  0  0  0
    1.6500    0.1059    0.0000 C   0  0  0  0  0  0  0  0  0  0  0  0
    1.9049    0.8905    0.0000 C   0  0  0  0  0  0  0  0  0  0  0  0
  1  2  1  0
  1  5  1  0
  2  9  1  0
  3  9  1  0
  3 10  1  0
  4  9  2  0
  4 11  1  0
  5  6  1  0
  5  7  1  0
  6  8  1  0
 10 11  2  0
M  END
>  <DRUGBANK_ID>  (1) 
DB05448

>  <COMMON_NAME>  (1) 
PX-12

>  <CAS_NUMBER>  (1) 
141400-58-0

>  <UNII>  (1) 
8PQ9CZ8BTJ

>  <SYNONYMS>  (1) 
1-Methylpropyl-2-imidazolyl disulfide

$$$$
