251
     RDKit          2D

 36 40  0  0  0  0  0  0  0  0999 V2000
    2.7922   -0.4533    0.0000 C   0  0  0  0  0  0  0  0  0  0  0  0
    3.6427   -0.4408    0.0000 C   0  0  0  0  0  0  0  0  0  0  0  0
    2.9798    0.3501    0.0000 C   0  0  0  0  0  0  0  0  0  0  0  0
    1.9917   -0.2031    0.0000 O   0  0  0  0  0  0  0  0  0  0  0  0
    2.4764    0.9849    0.0000 N   0  0  0  0  0  0  0  0  0  0  0  0
    1.3133    1.7571    0.0000 N   0  0  0  0  0  0  0  0  0  0  0  0
    2.7922   -1.2382    0.0000 O   0  0  0  0  0  0  0  0  0  0  0  0
   -3.1079   -1.5790    0.0000 N   0  0  0  0  0  0  0  0  0  0  0  0
    4.0585   -1.1318    0.0000 C   0  0  0  0  0  0  0  0  0  0  0  0
    2.7327    1.7948    0.0000 N   0  0  0  0  0  0  0  0  0  0  0  0
   -4.7964   -1.5914    0.0000 N   0  0  0  0  0  0  0  0  0  0  0  0
    2.0167    2.2855    0.0000 C   0  0  0  0  0  0  0  0  0  0  0  0
    1.5883    0.9693    0.0000 C   0  0  0  0  0  0  0  0  0  0  0  0
    4.0679    0.2438    0.0000 C   0  0  0  0  0  0  0  0  0  0  0  0
    4.8339   -1.1318    0.0000 C   0  0  0  0  0  0  0  0  0  0  0  0
   -2.2700   -1.5790    0.0000 C   0  0  0  0  0  0  0  0  0  0  0  0
    1.4476   -0.8379    0.0000 C   0  0  0  0  0  0  0  0  0  0  0  0
   -3.5332   -2.2855    0.0000 C   0  0  0  0  0  0  0  0  0  0  0  0
   -3.5457   -0.8723    0.0000 C   0  0  0  0  0  0  0  0  0  0  0  0
   -4.3836   -2.2855    0.0000 C   0  0  0  0  0  0  0  0  0  0  0  0
   -4.3836   -0.8723    0.0000 C   0  0  0  0  0  0  0  0  0  0  0  0
    2.0012   -1.5227    0.0000 C   0  0  0  0  0  0  0  0  0  0  0  0
   -1.8603   -2.2732    0.0000 C   0  0  0  0  0  0  0  0  0  0  0  0
   -1.8823   -0.9004    0.0000 C   0  0  0  0  0  0  0  0  0  0  0  0
    5.3467   -0.4627    0.0000 C   0  0  0  0  0  0  0  0  0  0  0  0
   -5.6594   -1.5914    0.0000 C   0  0  0  0  0  0  0  0  0  0  0  0
    3.6332   -1.8510    0.0000 Cl  0  0  0  0  0  0  0  0  0  0  0  0
    0.2563   -1.5790    0.0000 O   0  0  0  0  0  0  0  0  0  0  0  0
    4.9059    0.2189    0.0000 C   0  0  0  0  0  0  0  0  0  0  0  0
   -0.5940   -1.5665    0.0000 C   0  0  0  0  0  0  0  0  0  0  0  0
    0.6692   -0.8379    0.0000 C   0  0  0  0  0  0  0  0  0  0  0  0
   -1.0536   -0.9004    0.0000 C   0  0  0  0  0  0  0  0  0  0  0  0
   -1.0067   -2.2732    0.0000 C   0  0  0  0  0  0  0  0  0  0  0  0
    6.0721   -0.4971    0.0000 Cl  0  0  0  0  0  0  0  0  0  0  0  0
   -6.0596   -2.2855    0.0000 C   0  0  0  0  0  0  0  0  0  0  0  0
   -6.0721   -0.8879    0.0000 C   0  0  0  0  0  0  0  0  0  0  0  0
  1  2  1  0
  1  3  1  1
  4  1  1  0
  5  3  1  0
  6 13  2  0
  7  1  1  0
  8 16  1  0
  9  2  2  0
 10  5  1  0
 11 21  1  0
 12 10  2  0
 12  6  1  0
 13  5  1  0
 14  2  1  0
 15  9  1  0
 16 23  2  0
 17  4  1  0
 17 31  1  1
 18  8  1  0
 19  8  1  0
 20 18  1  0
 20 11  1  0
 21 19  1  0
 22  7  1  0
 22 17  1  0
 23 33  1  0
 24 32  2  0
 24 16  1  0
 25 29  1  0
 25 15  2  0
 26 11  1  0
 27  9  1  0
 28 31  1  0
 29 14  2  0
 30 28  1  0
 32 30  1  0
 33 30  2  0
 34 25  1  0
 35 26  1  0
 36 26  1  0
M  END
>  <DRUGBANK_ID>  (1) 
DB00251

>  <SECONDARY_ACCESSION_NUMBERS>  (1) 
APRD00659

>  <COMMON_NAME>  (1) 
Terconazole

>  <CAS_NUMBER>  (1) 
67915-31-5

>  <UNII>  (1) 
0KJ2VE664U

>  <SYNONYMS>  (1) 
Terconazole

$$$$
