
     RDKit          2D

 18 19  0  0  0  0  0  0  0  0999 V2000
    1.0557    0.9694    0.0000 S   0  0  0  0  0  0  0  0  0  0  0  0
   -1.8722    1.1270    0.0000 O   0  0  0  0  0  0  0  0  0  0  0  0
    3.6031   -0.4125    0.0000 O   0  0  0  0  0  0  0  0  0  0  0  0
    2.3656   -1.1270    0.0000 O   0  0  0  0  0  0  0  0  0  0  0  0
    1.0557   -0.3655    0.0000 N   0  0  0  0  0  0  0  0  0  0  0  0
    2.3656    0.3020    0.0000 N   0  0  0  0  0  0  0  0  0  0  0  0
    0.2711    0.7145    0.0000 C   0  0  0  0  0  0  0  0  0  0  0  0
    0.2711   -0.1105    0.0000 C   0  0  0  0  0  0  0  0  0  0  0  0
    1.5406    0.3020    0.0000 C   0  0  0  0  0  0  0  0  0  0  0  0
   -0.4433    1.1270    0.0000 C   0  0  0  0  0  0  0  0  0  0  0  0
   -1.1577    0.7145    0.0000 C   0  0  0  0  0  0  0  0  0  0  0  0
   -0.4433   -0.5230    0.0000 C   0  0  0  0  0  0  0  0  0  0  0  0
   -1.1577   -0.1105    0.0000 C   0  0  0  0  0  0  0  0  0  0  0  0
    2.7781   -0.4125    0.0000 C   0  0  0  0  0  0  0  0  0  0  0  0
   -2.5867    0.7145    0.0000 C   0  0  0  0  0  0  0  0  0  0  0  0
   -3.3011    1.1270    0.0000 C   0  0  0  0  0  0  0  0  0  0  0  0
    4.0156   -1.1270    0.0000 C   0  0  0  0  0  0  0  0  0  0  0  0
   -4.0156    0.7145    0.0000 C   0  0  0  0  0  0  0  0  0  0  0  0
  1  7  1  0
  1  9  1  0
  2 11  1  0
  2 15  1  0
  3 14  1  0
  3 17  1  0
  4 14  2  0
  5  8  1  0
  5  9  2  0
  6  9  1  0
  6 14  1  0
  7  8  2  0
  7 10  1  0
  8 12  1  0
 10 11  2  0
 11 13  1  0
 12 13  2  0
 15 16  1  0
 16 18  1  0
M  END
>  <DRUGBANK_ID>  (1) 
DB11472

>  <COMMON_NAME>  (1) 
Tioxidazole

>  <CAS_NUMBER>  (1) 
61570-90-9

>  <UNII>  (1) 
NZW046NI85

>  <SYNONYMS>  (1) 
Tioxidazol; Tioxidazole; Tioxidazolum

$$$$
