T10
     RDKit          2D

 34 36  0  0  0  0  0  0  0  0999 V2000
   -1.4592   -2.0142    0.0000 O   0  0  0  0  0  0  0  0  0  0  0  0
   -1.2610   -1.2134    0.0000 C   0  0  0  0  0  0  0  0  0  0  0  0
   -1.8555   -0.6413    0.0000 C   0  0  0  0  0  0  0  0  0  0  0  0
   -2.6482   -0.8702    0.0000 O   0  0  0  0  0  0  0  0  0  0  0  0
   -1.6574    0.1595    0.0000 C   0  0  0  0  0  0  0  0  0  0  0  0
   -2.2518    0.7315    0.0000 C   0  0  0  0  0  0  0  0  0  0  0  0
   -3.0445    0.5027    0.0000 C   0  0  0  0  0  0  0  0  0  0  0  0
   -3.2426   -0.2981    0.0000 C   0  0  0  0  0  0  0  0  0  0  0  0
   -4.0353   -0.5269    0.0000 C   0  0  0  0  0  0  0  0  0  0  0  0
   -4.6297    0.0451    0.0000 C   0  0  0  0  0  0  0  0  0  0  0  0
   -4.4316    0.8459    0.0000 C   0  0  0  0  0  0  0  0  0  0  0  0
   -3.6390    1.0748    0.0000 C   0  0  0  0  0  0  0  0  0  0  0  0
   -0.8647    0.3883    0.0000 N   0  0  0  0  0  0  0  0  0  0  0  0
   -0.2703   -0.1837    0.0000 C   0  0  0  0  0  0  0  0  0  0  0  0
   -0.4684   -0.9846    0.0000 O   0  0  0  0  0  0  0  0  0  0  0  0
    0.5224    0.0451    0.0000 C   0  0  0  0  0  0  0  0  0  0  0  0
    0.7205    0.8459    0.0000 C   0  0  0  0  0  0  0  0  0  0  0  0
    0.1261    1.4180    0.0000 C   0  0  0  0  0  0  0  0  0  0  0  0
   -0.6666    1.1892    0.0000 C   0  0  0  0  0  0  0  0  0  0  0  0
   -1.2610    1.7612    0.0000 C   0  0  0  0  0  0  0  0  0  0  0  0
   -1.0629    2.5620    0.0000 C   0  0  0  0  0  0  0  0  0  0  0  0
   -0.2703    2.7909    0.0000 C   0  0  0  0  0  0  0  0  0  0  0  0
    0.3242    2.2188    0.0000 C   0  0  0  0  0  0  0  0  0  0  0  0
    1.1169   -0.5269    0.0000 N   0  0  0  0  0  0  0  0  0  0  0  0
    1.9095   -0.2981    0.0000 C   0  0  0  0  0  0  0  0  0  0  0  0
    2.1076    0.5027    0.0000 O   0  0  0  0  0  0  0  0  0  0  0  0
    2.5040   -0.8702    0.0000 O   0  0  0  0  0  0  0  0  0  0  0  0
    3.2966   -0.6413    0.0000 C   0  0  0  0  0  0  0  0  0  0  0  0
    3.8911   -1.2134    0.0000 C   0  0  0  0  0  0  0  0  0  0  0  0
    4.6837   -0.9846    0.0000 C   0  0  0  0  0  0  0  0  0  0  0  0
    5.2782   -1.5566    0.0000 C   0  0  0  0  0  0  0  0  0  0  0  0
    5.0800   -2.3575    0.0000 C   0  0  0  0  0  0  0  0  0  0  0  0
    4.2874   -2.5863    0.0000 C   0  0  0  0  0  0  0  0  0  0  0  0
    3.6929   -2.0142    0.0000 C   0  0  0  0  0  0  0  0  0  0  0  0
  1  2  1  0
  2  3  1  0
  3  4  2  0
  3  5  1  0
  5  6  1  6
  5 13  1  0
  6  7  1  0
  7  8  2  0
  7 12  1  0
  8  9  1  0
  9 10  2  0
 10 11  1  0
 11 12  2  0
 13 14  1  0
 14 15  2  0
 14 16  1  0
 16 17  1  6
 16 24  1  0
 17 18  1  0
 18 19  2  0
 18 23  1  0
 19 20  1  0
 20 21  2  0
 21 22  1  0
 22 23  2  0
 24 25  1  0
 25 26  2  0
 25 27  1  0
 27 28  1  0
 28 29  1  0
 29 30  2  0
 29 34  1  0
 30 31  1  0
 31 32  2  0
 32 33  1  0
 33 34  2  0
M  END
>  <DRUGBANK_ID>  (1) 
DB01871

>  <SECONDARY_ACCESSION_NUMBERS>  (1) 
EXPT02989

>  <COMMON_NAME>  (1) 
[1-(1-Benzyl-3-Hydroxy-2-Oxo-Propylcarbamoyl)-2-Phenyl-Ethyl]-Carbamic Acid Benzyl Ester

$$$$
