
     RDKit          2D

 18 19  0  0  0  0  0  0  0  0999 V2000
    0.3815    2.4909    0.0000 C   0  0  0  0  0  0  0  0  0  0  0  0
   -0.3329    2.0787    0.0000 C   0  0  0  0  0  0  0  0  0  0  0  0
   -0.3332    1.2537    0.0000 C   0  0  0  0  0  0  0  0  0  0  0  0
   -1.0478    0.8413    0.0000 C   0  0  0  0  0  0  0  0  0  0  0  0
   -1.7622    1.2540    0.0000 C   0  0  0  0  0  0  0  0  0  0  0  0
   -1.7619    2.0790    0.0000 C   0  0  0  0  0  0  0  0  0  0  0  0
   -1.0473    2.4914    0.0000 C   0  0  0  0  0  0  0  0  0  0  0  0
   -1.0480    0.0164    0.0000 C   0  0  0  0  0  0  0  0  0  0  0  0
    0.3810    0.8409    0.0000 N   0  0  0  0  0  0  0  0  0  0  0  0
    0.3808    0.0159    0.0000 C   0  0  0  0  0  0  0  0  0  0  0  0
   -0.3337   -0.3963    0.0000 O   0  0  0  0  0  0  0  0  0  0  0  0
    1.0952   -0.3967    0.0000 C   0  0  0  0  0  0  0  0  0  0  0  0
    1.0949   -1.2217    0.0000 N   0  0  0  0  0  0  0  0  0  0  0  0
    1.7622   -1.7069    0.0000 C   0  0  0  0  0  0  0  0  0  0  0  0
    1.5070   -2.4914    0.0000 C   0  0  0  0  0  0  0  0  0  0  0  0
    0.6820   -2.4912    0.0000 C   0  0  0  0  0  0  0  0  0  0  0  0
    0.4273   -1.7064    0.0000 C   0  0  0  0  0  0  0  0  0  0  0  0
   -0.3572   -1.4513    0.0000 O   0  0  0  0  0  0  0  0  0  0  0  0
  1  2  1  0
  2  3  2  0
  3  9  1  0
  3  4  1  0
  4  5  2  0
  4  8  1  0
  5  6  1  0
  6  7  2  0
  7  2  1  0
  9 10  1  0
 10 11  2  0
 10 12  1  0
 12 13  1  0
 13 14  1  0
 14 15  1  0
 15 16  1  0
 16 17  1  0
 17 13  1  0
 17 18  2  0
M  END
>  <DRUGBANK_ID>  (1) 
DB13082

>  <COMMON_NAME>  (1) 
Nefiracetam

>  <CAS_NUMBER>  (1) 
77191-36-7

>  <UNII>  (1) 
1JK12GX30N

>  <SYNONYMS>  (1) 
Nefiracetam; Nefiracetamum

$$$$
