
     RDKit          2D

 31 34  0  0  0  0  0  0  0  0999 V2000
   -3.7506    3.3401    0.0000 C   0  0  0  0  0  0  0  0  0  0  0  0
    0.8767   -3.3401    0.0000 C   0  0  0  0  0  0  0  0  0  0  0  0
   -4.4942    0.4057    0.0000 C   0  0  0  0  0  0  0  0  0  0  0  0
    0.5780   -0.4979    0.0000 C   0  0  0  0  0  0  0  0  0  0  0  0
   -0.2424   -0.5841    0.0000 C   0  0  0  0  0  0  0  0  0  0  0  0
   -1.5478   -0.0029    0.0000 C   0  0  0  0  0  0  0  0  0  0  0  0
    2.5177   -3.1677    0.0000 C   0  0  0  0  0  0  0  0  0  0  0  0
    2.3683   -1.7466    0.0000 C   0  0  0  0  0  0  0  0  0  0  0  0
    3.3381   -3.0814    0.0000 C   0  0  0  0  0  0  0  0  0  0  0  0
    3.1888   -1.6603    0.0000 C   0  0  0  0  0  0  0  0  0  0  0  0
   -2.0327    0.6644    0.0000 C   0  0  0  0  0  0  0  0  0  0  0  0
    1.0629   -1.1654    0.0000 C   0  0  0  0  0  0  0  0  0  0  0  0
   -1.3984   -1.4241    0.0000 C   0  0  0  0  0  0  0  0  0  0  0  0
   -2.7039   -0.8429    0.0000 C   0  0  0  0  0  0  0  0  0  0  0  0
   -3.0832    2.0302    0.0000 C   0  0  0  0  0  0  0  0  0  0  0  0
   -4.1631    1.2456    0.0000 C   0  0  0  0  0  0  0  0  0  0  0  0
   -3.7506    2.5151    0.0000 C   0  0  0  0  0  0  0  0  0  0  0  0
    1.2123   -2.5865    0.0000 C   0  0  0  0  0  0  0  0  0  0  0  0
   -1.8834   -0.7566    0.0000 C   0  0  0  0  0  0  0  0  0  0  0  0
    2.0327   -2.5002    0.0000 C   0  0  0  0  0  0  0  0  0  0  0  0
   -0.5780   -1.3378    0.0000 C   0  0  0  0  0  0  0  0  0  0  0  0
    3.6737   -2.3278    0.0000 C   0  0  0  0  0  0  0  0  0  0  0  0
   -2.8532    0.5782    0.0000 C   0  0  0  0  0  0  0  0  0  0  0  0
   -3.1888   -0.1754    0.0000 C   0  0  0  0  0  0  0  0  0  0  0  0
   -0.0930   -2.0053    0.0000 C   0  0  0  0  0  0  0  0  0  0  0  0
    4.4942   -2.2415    0.0000 F   0  0  0  0  0  0  0  0  0  0  0  0
   -4.4181    2.0302    0.0000 N   0  0  0  0  0  0  0  0  0  0  0  0
   -3.3381    1.2456    0.0000 N   0  0  0  0  0  0  0  0  0  0  0  0
    0.7273   -1.9190    0.0000 N   0  0  0  0  0  0  0  0  0  0  0  0
   -0.4286   -2.7589    0.0000 O   0  0  0  0  0  0  0  0  0  0  0  0
   -4.0093   -0.2617    0.0000 O   0  0  0  0  0  0  0  0  0  0  0  0
  5  4  1  0
  9  7  2  0
 10  8  1  0
 11  6  2  0
 12  4  1  0
 17  1  1  0
 17 15  2  0
 18  2  1  6
 19  6  1  0
 19 13  1  0
 19 14  2  0
 20  7  1  0
 20  8  2  0
 20 18  1  0
 21  5  1  0
 21 13  2  0
 22  9  1  0
 22 10  2  0
 23 11  1  0
 24 14  1  0
 24 23  2  0
 25 21  1  0
 26 22  1  0
 27 16  2  0
 27 17  1  0
 28 15  1  0
 28 16  1  0
 28 23  1  0
 29 12  1  0
 29 18  1  0
 29 25  1  0
 30 25  2  0
 31  3  1  0
 31 24  1  0
M  END
>  <DRUGBANK_ID>  (1) 
DB05171

>  <COMMON_NAME>  (1) 
E-2012

>  <CAS_NUMBER>  (1) 
870843-42-8

>  <UNII>  (1) 
3LSD4Y5F0F

$$$$
