
     RDKit          2D

 20 22  0  0  0  0  0  0  0  0999 V2000
   -2.4721   -0.8549    0.0000 C   0  0  0  0  0  0  0  0  0  0  0  0
   -2.4733   -1.6824    0.0000 C   0  0  0  0  0  0  0  0  0  0  0  0
   -1.7604   -2.0953    0.0000 C   0  0  0  0  0  0  0  0  0  0  0  0
   -1.7624   -0.4422    0.0000 C   0  0  0  0  0  0  0  0  0  0  0  0
   -1.0443   -0.8509    0.0000 C   0  0  0  0  0  0  0  0  0  0  0  0
   -1.0391   -1.6824    0.0000 C   0  0  0  0  0  0  0  0  0  0  0  0
   -0.2468   -1.9345    0.0000 N   0  0  0  0  0  0  0  0  0  0  0  0
    0.2378   -1.2587    0.0000 C   0  0  0  0  0  0  0  0  0  0  0  0
   -0.2551   -0.5891    0.0000 C   0  0  0  0  0  0  0  0  0  0  0  0
   -0.0051    0.1969    0.0000 C   0  0  0  0  0  0  0  0  0  0  0  0
    0.8006    0.3734    0.0000 C   0  0  0  0  0  0  0  0  0  0  0  0
   -0.5608    0.8065    0.0000 O   0  0  0  0  0  0  0  0  0  0  0  0
    1.0506    1.1596    0.0000 C   0  0  0  0  0  0  0  0  0  0  0  0
    1.8564    1.3361    0.0000 C   0  0  0  0  0  0  0  0  0  0  0  0
    0.4949    1.7692    0.0000 O   0  0  0  0  0  0  0  0  0  0  0  0
    2.4750    0.7916    0.0000 N   0  0  0  0  0  0  0  0  0  0  0  0
    3.1868    1.2083    0.0000 N   0  0  0  0  0  0  0  0  0  0  0  0
    3.0102    2.0143    0.0000 N   0  0  0  0  0  0  0  0  0  0  0  0
    2.1893    2.0953    0.0000 N   0  0  0  0  0  0  0  0  0  0  0  0
   -3.1868   -0.4431    0.0000 Cl  0  0  0  0  0  0  0  0  0  0  0  0
  1  2  2  0
  1 20  1  0
  2  3  1  0
  3  6  2  0
  4  1  1  0
  5  6  1  0
  5  4  2  0
  6  7  1  0
  7  8  1  0
  8  9  2  0
  9 10  1  0
  9  5  1  0
 10 11  1  0
 10 12  2  0
 11 13  2  0
 13 14  1  0
 13 15  1  0
 14 16  2  0
 16 17  1  0
 17 18  2  0
 18 19  1  0
 19 14  1  0
M  END
>  <DRUGBANK_ID>  (1) 
DB03118

>  <SECONDARY_ACCESSION_NUMBERS>  (1) 
EXPT00006

>  <COMMON_NAME>  (1) 
(2Z)-1-(5-Chloro-1H-indol-3-yl)-3-hydroxy-3-(1H-tetrazol-5-yl)-2-propen-1-one

>  <SYNONYMS>  (1) 
1-(5-Chloroindol-3-YL)-3-hydroxy-3-(2H-tetrazol-5-YL)-propenone

$$$$
