K02
     RDKit          2D

 25 27  0  0  0  0  0  0  0  0999 V2000
   -1.1564   -3.0615    0.0000 O   0  0  0  0  0  0  0  0  0  0  0  0
   -1.5689   -2.3470    0.0000 C   0  0  0  0  0  0  0  0  0  0  0  0
   -2.3939   -2.3470    0.0000 C   0  0  0  0  0  0  0  0  0  0  0  0
   -2.8788   -3.0145    0.0000 S   0  0  0  0  0  0  0  0  0  0  0  0
   -3.6635   -2.7595    0.0000 C   0  0  0  0  0  0  0  0  0  0  0  0
   -3.6635   -1.9345    0.0000 C   0  0  0  0  0  0  0  0  0  0  0  0
   -2.8788   -1.6796    0.0000 C   0  0  0  0  0  0  0  0  0  0  0  0
   -1.1564   -1.6326    0.0000 N   0  0  0  0  0  0  0  0  0  0  0  0
   -0.3314   -1.6326    0.0000 C   0  0  0  0  0  0  0  0  0  0  0  0
    0.1535   -2.3000    0.0000 S   0  0  0  0  0  0  0  0  0  0  0  0
    0.9381   -2.0451    0.0000 C   0  0  0  0  0  0  0  0  0  0  0  0
    0.9381   -1.2201    0.0000 C   0  0  0  0  0  0  0  0  0  0  0  0
    1.6526   -0.8076    0.0000 C   0  0  0  0  0  0  0  0  0  0  0  0
    2.3671   -1.2201    0.0000 C   0  0  0  0  0  0  0  0  0  0  0  0
    3.0815   -0.8076    0.0000 C   0  0  0  0  0  0  0  0  0  0  0  0
    2.3671   -2.0451    0.0000 C   0  0  0  0  0  0  0  0  0  0  0  0
    1.6526   -2.4576    0.0000 C   0  0  0  0  0  0  0  0  0  0  0  0
    0.1535   -0.9651    0.0000 C   0  0  0  0  0  0  0  0  0  0  0  0
   -0.1014   -0.1805    0.0000 C   0  0  0  0  0  0  0  0  0  0  0  0
    0.4506    0.4326    0.0000 O   0  0  0  0  0  0  0  0  0  0  0  0
   -0.9084   -0.0090    0.0000 N   0  0  0  0  0  0  0  0  0  0  0  0
   -1.4604   -0.6221    0.0000 C   0  0  0  0  0  0  0  0  0  0  0  0
   -2.2674   -0.4505    0.0000 C   0  0  0  0  0  0  0  0  0  0  0  0
   -1.1634    0.7757    0.0000 C   0  0  0  0  0  0  0  0  0  0  0  0
   -0.6113    1.3888    0.0000 C   0  0  0  0  0  0  0  0  0  0  0  0
  1  2  2  0
  2  3  1  0
  2  8  1  0
  3  4  1  0
  3  7  2  0
  4  5  1  0
  5  6  2  0
  6  7  1  0
  8  9  1  0
  9 10  1  0
  9 18  2  0
 10 11  1  0
 11 12  2  0
 11 17  1  0
 12 13  1  0
 12 18  1  0
 13 14  1  0
 14 15  1  6
 14 16  1  0
 16 17  1  0
 18 19  1  0
 19 20  2  0
 19 21  1  0
 21 22  1  0
 21 24  1  0
 22 23  1  0
 24 25  1  0
M  END
>  <DRUGBANK_ID>  (1) 
DB08033

>  <COMMON_NAME>  (1) 
(5R)-N,N-DIETHYL-5-METHYL-2-[(THIOPHEN-2-YLCARBONYL)AMINO]-4,5,6,7-TETRAHYDRO-1-BENZOTHIOPHENE-3-CARBOXAMIDE

$$$$
