
     RDKit          2D

 16 16  0  0  1  0  0  0  0  0999 V2000
    2.0322    2.8382    0.0000 F   0  0  0  0  0  0  0  0  0  0  0  0
    3.3376    2.2570    0.0000 F   0  0  0  0  0  0  0  0  0  0  0  0
    4.5311   -0.2899    0.0000 O   0  0  0  0  0  0  0  0  0  0  0  0
    1.6500   -1.3450    0.0000 O   0  0  0  0  0  0  0  0  0  0  0  0
    3.0791   -0.5199    0.0000 N   0  0  0  0  0  0  0  0  0  0  0  0
    2.3645   -2.5825    0.0000 N   0  0  0  0  0  0  0  0  0  0  0  0
    2.6666    0.7496    0.0000 C   0  0  0  0  0  0  0  0  0  0  0  0
    2.4115   -0.0350    0.0000 C   0  0  0  0  0  0  0  0  0  0  0  0
    3.4916    0.7496    0.0000 C   0  0  0  0  0  0  0  0  0  0  0  0
    3.0791   -1.3450    0.0000 C   0  0  0  0  0  0  0  0  0  0  0  0
    3.7465   -0.0350    0.0000 C   0  0  0  0  0  0  0  0  0  0  0  0
    3.7935   -1.7575    0.0000 C   0  0  0  0  0  0  0  0  0  0  0  0
    2.1816    1.4171    0.0000 C   0  0  0  0  0  0  0  0  0  0  0  0
    2.3645   -1.7575    0.0000 C   0  0  0  0  0  0  0  0  0  0  0  0
    3.7935   -2.5825    0.0000 C   0  0  0  0  0  0  0  0  0  0  0  0
    2.5171    2.1708    0.0000 C   0  0  0  0  0  0  0  0  0  0  0  0
  1 16  1  0
  2 16  1  0
  3 11  2  0
  4 14  2  0
  5  8  1  0
  5 10  1  0
  5 11  1  0
  6 14  1  0
  7  8  1  0
  7  9  1  0
  7 13  1  6
  9 11  1  0
 10 12  1  1
 10 14  1  0
 12 15  1  0
 13 16  2  3
M  END
>  <DRUGBANK_ID>  (1) 
DB05885

>  <SECONDARY_ACCESSION_NUMBERS>  (1) 
DB12175

>  <COMMON_NAME>  (1) 
Seletracetam

>  <CAS_NUMBER>  (1) 
357336-74-4

>  <UNII>  (1) 
RFR2CH3QZK

>  <SYNONYMS>  (1) 
(2S)-2-((4S)-4-(2,2-Difluoroethenyl)-2-oxopyrrolidin-1-yl)butanamide; Seletracetam

$$$$
