
     RDKit          2D

 26 28  0  0  0  0  0  0  0  0999 V2000
    0.7145   -3.7125    0.0000 C   0  0  0  0  0  0  0  0  0  0  0  0
    0.7145   -4.5375    0.0000 N   0  0  0  0  0  0  0  0  0  0  0  0
    0.0000   -4.9500    0.0000 C   0  0  0  0  0  0  0  0  0  0  0  0
   -0.7145   -4.5375    0.0000 C   0  0  0  0  0  0  0  0  0  0  0  0
   -1.4289   -4.9500    0.0000 C   0  0  0  0  0  0  0  0  0  0  0  0
    1.4289   -4.9500    0.0000 C   0  0  0  0  0  0  0  0  0  0  0  0
    2.1434   -4.5375    0.0000 C   0  0  0  0  0  0  0  0  0  0  0  0
    2.8579   -4.9500    0.0000 C   0  0  0  0  0  0  0  0  0  0  0  0
    3.5724   -4.5375    0.0000 C   0  0  0  0  0  0  0  0  0  0  0  0
    3.5724   -3.7125    0.0000 O   0  0  0  0  0  0  0  0  0  0  0  0
    4.2868   -3.3000    0.0000 C   0  0  0  0  0  0  0  0  0  0  0  0
    4.2868   -2.4750    0.0000 C   0  0  0  0  0  0  0  0  0  0  0  0
    5.0013   -2.0625    0.0000 C   0  0  0  0  0  0  0  0  0  0  0  0
    5.7158   -2.4750    0.0000 C   0  0  0  0  0  0  0  0  0  0  0  0
    5.7158   -3.3000    0.0000 C   0  0  0  0  0  0  0  0  0  0  0  0
    5.0013   -3.7125    0.0000 C   0  0  0  0  0  0  0  0  0  0  0  0
    6.3289   -1.9230    0.0000 C   0  0  0  0  0  0  0  0  0  0  0  0
    5.9933   -1.1693    0.0000 C   0  0  0  0  0  0  0  0  0  0  0  0
    5.1728   -1.2555    0.0000 O   0  0  0  0  0  0  0  0  0  0  0  0
    7.1358   -2.0945    0.0000 C   0  0  0  0  0  0  0  0  0  0  0  0
    7.6879   -1.4814    0.0000 C   0  0  0  0  0  0  0  0  0  0  0  0
    8.4948   -1.6529    0.0000 C   0  0  0  0  0  0  0  0  0  0  0  0
    8.7498   -2.4375    0.0000 C   0  0  0  0  0  0  0  0  0  0  0  0
    9.5567   -2.6091    0.0000 Br  0  0  0  0  0  0  0  0  0  0  0  0
    8.1977   -3.0506    0.0000 C   0  0  0  0  0  0  0  0  0  0  0  0
    7.3908   -2.8791    0.0000 C   0  0  0  0  0  0  0  0  0  0  0  0
  1  2  1  0
  2  3  1  0
  2  6  1  0
  3  4  1  0
  4  5  2  0
  6  7  1  0
  7  8  2  0
  8  9  1  0
  9 10  1  0
 10 11  1  0
 11 12  2  0
 11 16  1  0
 12 13  1  0
 13 14  2  0
 13 19  1  0
 14 15  1  0
 14 17  1  0
 15 16  2  0
 17 18  2  0
 17 20  1  0
 18 19  1  0
 20 21  2  0
 20 26  1  0
 21 22  1  0
 22 23  2  0
 23 24  1  0
 23 25  1  0
 25 26  2  0
M  END
>  <DRUGBANK_ID>  (1) 
DB03771

>  <SECONDARY_ACCESSION_NUMBERS>  (1) 
EXPT02740

>  <COMMON_NAME>  (1) 
Allyl-{4-[3-(4-Bromo-Phenyl)-Benzofuran-6-Yloxy]-but-2-Enyl}-Methyl-Amine

$$$$
