
     RDKit          2D

 18 18  0  0  0  0  0  0  0  0999 V2000
   -0.6940    0.4437    0.0000 C   0  0  0  0  0  0  0  0  0  0  0  0
    0.0168    0.8475    0.0000 C   0  0  0  0  0  0  0  0  0  0  0  0
   -1.4133    0.8475    0.0000 C   0  0  0  0  0  0  0  0  0  0  0  0
    0.0168    1.6973    0.0000 O   0  0  0  0  0  0  0  0  0  0  0  0
   -2.1579    0.4227    0.0000 C   0  0  0  0  0  0  0  0  0  0  0  0
   -3.5965   -0.4227    0.0000 C   0  0  0  0  0  0  0  0  0  0  0  0
    0.7445    0.4437    0.0000 O   0  0  0  0  0  0  0  0  0  0  0  0
   -2.1579   -0.4227    0.0000 C   0  0  0  0  0  0  0  0  0  0  0  0
   -2.8772    0.8265    0.0000 C   0  0  0  0  0  0  0  0  0  0  0  0
   -3.5965    0.4227    0.0000 C   0  0  0  0  0  0  0  0  0  0  0  0
   -2.8772   -0.8308    0.0000 C   0  0  0  0  0  0  0  0  0  0  0  0
   -4.3411   -0.8518    0.0000 O   0  0  0  0  0  0  0  0  0  0  0  0
    2.9024    0.8475    0.0000 O   0  0  0  0  0  0  0  0  0  0  0  0
    1.4638    0.8475    0.0000 C   0  0  0  0  0  0  0  0  0  0  0  0
    2.1831    0.4437    0.0000 C   0  0  0  0  0  0  0  0  0  0  0  0
    3.6217    0.4437    0.0000 C   0  0  0  0  0  0  0  0  0  0  0  0
   -4.3411   -1.6973    0.0000 C   0  0  0  0  0  0  0  0  0  0  0  0
    4.3411    0.8475    0.0000 C   0  0  0  0  0  0  0  0  0  0  0  0
  2  1  1  0
  3  1  2  0
  4  2  2  0
  5  3  1  0
  6 10  1  0
  7  2  1  0
  8  5  2  0
  9  5  1  0
 10  9  2  0
 11  8  1  0
 11  6  2  0
 12  6  1  0
 13 15  1  0
 14  7  1  0
 15 14  1  0
 16 13  1  0
 17 12  1  0
 18 16  1  0
M  END
>  <DRUGBANK_ID>  (1) 
DB15467

>  <COMMON_NAME>  (1) 
Cinoxate

>  <CAS_NUMBER>  (1) 
104-28-9

>  <UNII>  (1) 
5437O7N5BH

>  <SYNONYMS>  (1) 
2-Ethoxyethyl-p-methoxycinnamate; Cinoxate; Cinoxato; Cinoxatum

$$$$
