
     RDKit          2D

 36 39  0  0  0  0  0  0  0  0999 V2000
    1.2665   -0.6244    0.0000 C   0  0  0  0  0  0  0  0  0  0  0  0
    0.7145   -1.2375    0.0000 C   0  0  0  0  0  0  0  0  0  0  0  0
    0.1624   -0.6244    0.0000 C   0  0  0  0  0  0  0  0  0  0  0  0
    1.3819   -1.7224    0.0000 N   0  0  0  0  0  0  0  0  0  0  0  0
    1.1270   -2.5070    0.0000 C   0  0  0  0  0  0  0  0  0  0  0  0
    1.6119   -3.1745    0.0000 S   0  0  0  0  0  0  0  0  0  0  0  0
    0.3020   -2.5070    0.0000 N   0  0  0  0  0  0  0  0  0  0  0  0
    0.0470   -1.7224    0.0000 C   0  0  0  0  0  0  0  0  0  0  0  0
   -0.7376   -1.4675    0.0000 O   0  0  0  0  0  0  0  0  0  0  0  0
   -0.1830   -3.1745    0.0000 C   0  0  0  0  0  0  0  0  0  0  0  0
    0.1526   -3.9282    0.0000 C   0  0  0  0  0  0  0  0  0  0  0  0
    0.9731   -4.0144    0.0000 F   0  0  0  0  0  0  0  0  0  0  0  0
   -0.3323   -4.5956    0.0000 C   0  0  0  0  0  0  0  0  0  0  0  0
   -1.1528   -4.5094    0.0000 C   0  0  0  0  0  0  0  0  0  0  0  0
   -1.4884   -3.7557    0.0000 C   0  0  0  0  0  0  0  0  0  0  0  0
   -1.0034   -3.0882    0.0000 C   0  0  0  0  0  0  0  0  0  0  0  0
   -1.6377   -5.1768    0.0000 C   0  0  0  0  0  0  0  0  0  0  0  0
   -2.1226   -5.8442    0.0000 N   0  0  0  0  0  0  0  0  0  0  0  0
    0.0032   -5.3493    0.0000 C   0  0  0  0  0  0  0  0  0  0  0  0
    0.3388   -6.1029    0.0000 F   0  0  0  0  0  0  0  0  0  0  0  0
   -0.7504   -5.6848    0.0000 F   0  0  0  0  0  0  0  0  0  0  0  0
    0.7569   -5.0137    0.0000 F   0  0  0  0  0  0  0  0  0  0  0  0
    2.1665   -1.4675    0.0000 C   0  0  0  0  0  0  0  0  0  0  0  0
    2.3381   -0.6605    0.0000 C   0  0  0  0  0  0  0  0  0  0  0  0
    3.1227   -0.4056    0.0000 N   0  0  0  0  0  0  0  0  0  0  0  0
    3.7358   -0.9576    0.0000 C   0  0  0  0  0  0  0  0  0  0  0  0
    4.5204   -0.7027    0.0000 C   0  0  0  0  0  0  0  0  0  0  0  0
    5.1335   -1.2547    0.0000 C   0  0  0  0  0  0  0  0  0  0  0  0
    5.9181   -0.9998    0.0000 C   0  0  0  0  0  0  0  0  0  0  0  0
    6.5312   -1.5518    0.0000 C   0  0  0  0  0  0  0  0  0  0  0  0
    7.3382   -1.3803    0.0000 N   0  0  0  0  0  0  0  0  0  0  0  0
    7.7507   -2.0947    0.0000 C   0  0  0  0  0  0  0  0  0  0  0  0
    7.1986   -2.7078    0.0000 C   0  0  0  0  0  0  0  0  0  0  0  0
    6.4450   -2.3723    0.0000 O   0  0  0  0  0  0  0  0  0  0  0  0
    3.5642   -1.7646    0.0000 C   0  0  0  0  0  0  0  0  0  0  0  0
    2.7796   -2.0195    0.0000 C   0  0  0  0  0  0  0  0  0  0  0  0
  1  2  1  0
  2  3  1  0
  2  4  1  0
  2  8  1  0
  4  5  1  0
  4 23  1  0
  5  6  2  0
  5  7  1  0
  7  8  1  0
  7 10  1  0
  8  9  2  0
 10 11  2  0
 10 16  1  0
 11 12  1  0
 11 13  1  0
 13 14  2  0
 13 19  1  0
 14 15  1  0
 14 17  1  0
 15 16  2  0
 17 18  3  0
 19 20  1  0
 19 21  1  0
 19 22  1  0
 23 24  2  0
 23 36  1  0
 24 25  1  0
 25 26  2  0
 26 27  1  0
 26 35  1  0
 27 28  1  0
 28 29  1  0
 29 30  1  0
 30 31  2  0
 30 34  1  0
 31 32  1  0
 32 33  2  0
 33 34  1  0
 35 36  2  0
M  END
>  <DRUGBANK_ID>  (1) 
DB16065

>  <COMMON_NAME>  (1) 
Proxalutamide

>  <CAS_NUMBER>  (1) 
1398046-21-3

>  <UNII>  (1) 
QX6O64GP40

>  <SYNONYMS>  (1) 
Proxalutamide

$$$$
