PU3
     RDKit          2D

 27 29  0  0  0  0  0  0  0  0999 V2000
   -0.4821    3.3750    0.0000 C   0  0  0  0  0  0  0  0  0  0  0  0
   -0.0696    2.6605    0.0000 O   0  0  0  0  0  0  0  0  0  0  0  0
   -0.4821    1.9460    0.0000 C   0  0  0  0  0  0  0  0  0  0  0  0
   -0.0696    1.2315    0.0000 C   0  0  0  0  0  0  0  0  0  0  0  0
   -1.3071    1.9460    0.0000 C   0  0  0  0  0  0  0  0  0  0  0  0
   -1.7196    2.6605    0.0000 O   0  0  0  0  0  0  0  0  0  0  0  0
   -2.5446    2.6605    0.0000 C   0  0  0  0  0  0  0  0  0  0  0  0
   -1.7196    1.2315    0.0000 C   0  0  0  0  0  0  0  0  0  0  0  0
   -2.5446    1.2315    0.0000 O   0  0  0  0  0  0  0  0  0  0  0  0
   -2.9571    0.5171    0.0000 C   0  0  0  0  0  0  0  0  0  0  0  0
   -1.3071    0.5171    0.0000 C   0  0  0  0  0  0  0  0  0  0  0  0
   -0.4821    0.5171    0.0000 C   0  0  0  0  0  0  0  0  0  0  0  0
   -0.0696   -0.1974    0.0000 C   0  0  0  0  0  0  0  0  0  0  0  0
    0.7554   -0.1974    0.0000 C   0  0  0  0  0  0  0  0  0  0  0  0
    1.2404    0.4700    0.0000 N   0  0  0  0  0  0  0  0  0  0  0  0
    2.0250    0.2151    0.0000 C   0  0  0  0  0  0  0  0  0  0  0  0
    2.7395    0.6276    0.0000 C   0  0  0  0  0  0  0  0  0  0  0  0
    2.7395    1.4526    0.0000 N   0  0  0  0  0  0  0  0  0  0  0  0
    2.0250   -0.6099    0.0000 C   0  0  0  0  0  0  0  0  0  0  0  0
    2.7395   -1.0224    0.0000 N   0  0  0  0  0  0  0  0  0  0  0  0
    3.4539   -0.6099    0.0000 C   0  0  0  0  0  0  0  0  0  0  0  0
    3.4539    0.2151    0.0000 N   0  0  0  0  0  0  0  0  0  0  0  0
    1.2404   -0.8648    0.0000 N   0  0  0  0  0  0  0  0  0  0  0  0
    0.9854   -1.6495    0.0000 C   0  0  0  0  0  0  0  0  0  0  0  0
    1.5375   -2.2626    0.0000 C   0  0  0  0  0  0  0  0  0  0  0  0
    1.2825   -3.0472    0.0000 C   0  0  0  0  0  0  0  0  0  0  0  0
    1.8346   -3.6603    0.0000 C   0  0  0  0  0  0  0  0  0  0  0  0
  1  2  1  0
  2  3  1  0
  3  4  2  0
  3  5  1  0
  4 12  1  0
  5  6  1  0
  5  8  2  0
  6  7  1  0
  8  9  1  0
  8 11  1  0
  9 10  1  0
 11 12  2  0
 12 13  1  0
 13 14  1  0
 14 15  2  0
 14 23  1  0
 15 16  1  0
 16 17  2  0
 16 19  1  0
 17 18  1  0
 17 22  1  0
 19 20  2  0
 19 23  1  0
 20 21  1  0
 21 22  2  0
 23 24  1  0
 24 25  1  0
 25 26  1  0
 26 27  1  0
M  END
>  <DRUGBANK_ID>  (1) 
DB02754

>  <SECONDARY_ACCESSION_NUMBERS>  (1) 
EXPT02694

>  <COMMON_NAME>  (1) 
9-Butyl-8-(3,4,5-Trimethoxybenzyl)-9h-Purin-6-Amine

$$$$
