
     RDKit          2D

 25 28  0  0  0  0  0  0  0  0999 V2000
   -0.8177   -0.9663    0.0000 O   0  0  0  0  0  0  0  0  0  0  0  0
    4.3338    1.0585    0.0000 O   0  0  0  0  0  0  0  0  0  0  0  0
    1.3611    1.1622    0.0000 N   0  0  0  0  0  0  0  0  0  0  0  0
    2.9756    1.5024    0.0000 N   0  0  0  0  0  0  0  0  0  0  0  0
   -2.1242   -1.6303    0.0000 N   0  0  0  0  0  0  0  0  0  0  0  0
   -2.1242   -0.3024    0.0000 C   0  0  0  0  0  0  0  0  0  0  0  0
    1.6173    1.9463    0.0000 C   0  0  0  0  0  0  0  0  0  0  0  0
    1.9120    0.5481    0.0000 C   0  0  0  0  0  0  0  0  0  0  0  0
   -1.8680    0.4816    0.0000 C   0  0  0  0  0  0  0  0  0  0  0  0
    2.4246    2.1164    0.0000 C   0  0  0  0  0  0  0  0  0  0  0  0
    2.7193    0.7182    0.0000 C   0  0  0  0  0  0  0  0  0  0  0  0
   -2.9048   -0.5538    0.0000 C   0  0  0  0  0  0  0  0  0  0  0  0
    0.5538    0.9921    0.0000 C   0  0  0  0  0  0  0  0  0  0  0  0
   -1.0607    0.6517    0.0000 C   0  0  0  0  0  0  0  0  0  0  0  0
   -1.6427   -0.9663    0.0000 C   0  0  0  0  0  0  0  0  0  0  0  0
   -2.9048   -1.3788    0.0000 C   0  0  0  0  0  0  0  0  0  0  0  0
    0.0028    1.6061    0.0000 C   0  0  0  0  0  0  0  0  0  0  0  0
    0.2975    0.2079    0.0000 C   0  0  0  0  0  0  0  0  0  0  0  0
   -0.8044    1.4360    0.0000 C   0  0  0  0  0  0  0  0  0  0  0  0
   -0.5097    0.0377    0.0000 C   0  0  0  0  0  0  0  0  0  0  0  0
   -3.6193   -0.1413    0.0000 C   0  0  0  0  0  0  0  0  0  0  0  0
   -3.6193   -1.7913    0.0000 C   0  0  0  0  0  0  0  0  0  0  0  0
    3.7829    1.6726    0.0000 C   0  0  0  0  0  0  0  0  0  0  0  0
   -4.3338   -0.5538    0.0000 C   0  0  0  0  0  0  0  0  0  0  0  0
   -4.3338   -1.3788    0.0000 C   0  0  0  0  0  0  0  0  0  0  0  0
  1 15  2  0
  2 23  2  0
  3  7  1  0
  3  8  1  0
  3 13  1  0
  4 10  1  0
  4 11  1  0
  4 23  1  0
  5 15  1  0
  5 16  1  0
  6  9  1  0
  6 12  1  0
  6 15  1  0
  7 10  1  0
  8 11  1  0
  9 14  1  0
 12 16  2  0
 12 21  1  0
 13 17  2  0
 13 18  1  0
 14 19  2  0
 14 20  1  0
 16 22  1  0
 17 19  1  0
 18 20  2  0
 21 24  2  0
 22 25  2  0
 24 25  1  0
M  END
>  <DRUGBANK_ID>  (1) 
DB02058

>  <SECONDARY_ACCESSION_NUMBERS>  (1) 
EXPT02973

>  <COMMON_NAME>  (1) 
3-[4-(1-formylpiperazin-4-yl)-benzylidenyl]-2-indolinone

$$$$
