
     RDKit          2D

 34 38  0  0  1  0  0  0  0  0999 V2000
    0.9199    2.9297    0.0000 C   0  0  0  0  0  0  0  0  0  0  0  0
    0.3068    2.3777    0.0000 C   0  0  0  0  0  0  0  0  0  0  0  0
   -0.1781    1.7103    0.0000 C   0  0  0  0  0  0  0  0  0  0  0  0
   -0.9628    1.9652    0.0000 N   0  0  0  0  0  0  0  0  0  0  0  0
   -0.9628    2.7902    0.0000 C   0  0  0  0  0  0  0  0  0  0  0  0
   -0.1781    3.0451    0.0000 S   0  0  0  0  0  0  0  0  0  0  0  0
   -1.7878    2.7902    0.0000 C   0  0  0  0  0  0  0  0  0  0  0  0
   -1.7878    1.9652    0.0000 C   0  0  0  0  0  0  0  0  0  0  0  0
   -2.3711    1.3818    0.0000 O   0  0  0  0  0  0  0  0  0  0  0  0
   -2.3711    3.3736    0.0000 N   0  0  0  0  0  0  0  0  0  0  0  0
   -3.1680    3.1600    0.0000 C   0  0  0  0  0  0  0  0  0  0  0  0
   -3.3815    2.3632    0.0000 O   0  0  0  0  0  0  0  0  0  0  0  0
   -3.7514    3.7434    0.0000 C   0  0  0  0  0  0  0  0  0  0  0  0
   -4.5483    3.5299    0.0000 C   0  0  0  0  0  0  0  0  0  0  0  0
   -4.7618    2.7330    0.0000 C   0  0  0  0  0  0  0  0  0  0  0  0
   -5.5587    2.5195    0.0000 C   0  0  0  0  0  0  0  0  0  0  0  0
   -6.1420    3.1028    0.0000 C   0  0  0  0  0  0  0  0  0  0  0  0
   -5.9285    3.8997    0.0000 C   0  0  0  0  0  0  0  0  0  0  0  0
   -5.1316    4.1132    0.0000 C   0  0  0  0  0  0  0  0  0  0  0  0
   -3.5378    4.5403    0.0000 N   0  0  0  0  0  0  0  0  0  0  0  0
    0.0768    0.9256    0.0000 C   0  0  0  0  0  0  0  0  0  0  0  0
   -0.4752    0.3126    0.0000 O   0  0  0  0  0  0  0  0  0  0  0  0
    0.8838    0.7541    0.0000 O   0  0  0  0  0  0  0  0  0  0  0  0
    1.1387   -0.0305    0.0000 C   0  0  0  0  0  0  0  0  0  0  0  0
    1.9233   -0.2854    0.0000 C   0  0  0  0  0  0  0  0  0  0  0  0
    2.6378    0.1271    0.0000 C   0  0  0  0  0  0  0  0  0  0  0  0
    3.3523   -0.2854    0.0000 C   0  0  0  0  0  0  0  0  0  0  0  0
    3.3523   -1.1104    0.0000 C   0  0  0  0  0  0  0  0  0  0  0  0
    2.6378   -1.5229    0.0000 C   0  0  0  0  0  0  0  0  0  0  0  0
    1.9233   -1.1104    0.0000 C   0  0  0  0  0  0  0  0  0  0  0  0
    1.1387   -1.3654    0.0000 C   0  0  0  0  0  0  0  0  0  0  0  0
    0.8838   -2.1500    0.0000 O   0  0  0  0  0  0  0  0  0  0  0  0
    0.6538   -0.6979    0.0000 O   0  0  0  0  0  0  0  0  0  0  0  0
    0.9199    1.8257    0.0000 C   0  0  0  0  0  0  0  0  0  0  0  0
  1  2  1  0
  2  3  1  0
  2  6  1  0
  2 34  1  0
  3  4  1  0
  3 21  1  6
  4  8  1  0
  5  4  1  0
  5  6  1  1
  5  7  1  0
  7  8  1  0
  7 10  1  1
  8  9  2  0
 10 11  1  0
 11 12  2  0
 11 13  1  0
 13 14  1  0
 13 20  1  1
 14 15  2  0
 14 19  1  0
 15 16  1  0
 16 17  2  0
 17 18  1  0
 18 19  2  0
 21 22  2  0
 21 23  1  0
 23 24  1  0
 24 25  1  0
 24 33  1  0
 25 26  2  0
 25 30  1  0
 26 27  1  0
 27 28  2  0
 28 29  1  0
 29 30  2  0
 30 31  1  0
 31 32  2  0
 31 33  1  0
M  END
>  <DRUGBANK_ID>  (1) 
DB13814

>  <COMMON_NAME>  (1) 
Talampicillin

>  <CAS_NUMBER>  (1) 
47747-56-8

>  <UNII>  (1) 
29OJI73DPC

>  <SYNONYMS>  (1) 
Talampicillin

$$$$
