
     RDKit          2D

 28 30  0  0  0  0  0  0  0  0999 V2000
   -0.7144    3.3346    0.0000 C   0  0  0  0  0  0  0  0  0  0  0  0
    2.1434    3.3346    0.0000 C   0  0  0  0  0  0  0  0  0  0  0  0
    0.3821   -2.0859    0.0000 C   0  0  0  0  0  0  0  0  0  0  0  0
   -0.7738   -1.2460    0.0000 C   0  0  0  0  0  0  0  0  0  0  0  0
    0.8670   -1.4185    0.0000 C   0  0  0  0  0  0  0  0  0  0  0  0
   -0.2889   -0.5786    0.0000 C   0  0  0  0  0  0  0  0  0  0  0  0
   -0.7144    0.8596    0.0000 C   0  0  0  0  0  0  0  0  0  0  0  0
    0.0000    1.2721    0.0000 C   0  0  0  0  0  0  0  0  0  0  0  0
   -0.9232   -2.6671    0.0000 C   0  0  0  0  0  0  0  0  0  0  0  0
   -2.1434    0.8596    0.0000 C   0  0  0  0  0  0  0  0  0  0  0  0
   -0.7144    2.5096    0.0000 C   0  0  0  0  0  0  0  0  0  0  0  0
    2.1434    2.5096    0.0000 C   0  0  0  0  0  0  0  0  0  0  0  0
   -0.4383   -1.9997    0.0000 C   0  0  0  0  0  0  0  0  0  0  0  0
    0.5315   -0.6648    0.0000 C   0  0  0  0  0  0  0  0  0  0  0  0
   -1.4289    1.2721    0.0000 C   0  0  0  0  0  0  0  0  0  0  0  0
    0.0000    2.0971    0.0000 C   0  0  0  0  0  0  0  0  0  0  0  0
   -1.4289    2.0971    0.0000 C   0  0  0  0  0  0  0  0  0  0  0  0
    1.4289    2.0971    0.0000 C   0  0  0  0  0  0  0  0  0  0  0  0
    1.0164    0.0025    0.0000 C   0  0  0  0  0  0  0  0  0  0  0  0
    1.4289    1.2721    0.0000 C   0  0  0  0  0  0  0  0  0  0  0  0
   -2.1434    2.5096    0.0000 Cl  0  0  0  0  0  0  0  0  0  0  0  0
   -1.4081   -3.3346    0.0000 N   0  0  0  0  0  0  0  0  0  0  0  0
   -2.8578    0.4471    0.0000 N   0  0  0  0  0  0  0  0  0  0  0  0
    0.7144    2.5096    0.0000 N   0  0  0  0  0  0  0  0  0  0  0  0
    1.8414    0.0025    0.0000 N   0  0  0  0  0  0  0  0  0  0  0  0
    2.0963    0.7871    0.0000 N   0  0  0  0  0  0  0  0  0  0  0  0
    2.8578    2.0971    0.0000 O   0  0  0  0  0  0  0  0  0  0  0  0
    0.7615    0.7871    0.0000 O   0  0  0  0  0  0  0  0  0  0  0  0
  5  3  2  0
  6  4  1  0
  8  7  2  0
 11  1  1  0
 12  2  1  6
 12 18  1  0
 12 27  1  0
 13  3  1  0
 13  4  2  0
 13  9  1  0
 14  5  1  0
 14  6  2  0
 15  7  1  0
 15 10  1  0
 16  8  1  0
 16 11  2  0
 17 11  1  0
 17 15  2  0
 18 20  1  0
 18 24  1  6
 19 14  1  0
 21 17  1  0
 22  9  3  0
 23 10  3  0
 24 16  1  0
 25 19  2  0
 26 20  2  0
 26 25  1  0
 28 19  1  0
 28 20  1  0
M  END
>  <DRUGBANK_ID>  (1) 
DB13939

>  <COMMON_NAME>  (1) 
RAD-140

>  <CAS_NUMBER>  (1) 
1182367-47-0

>  <UNII>  (1) 
4O87Q44KNC

>  <SYNONYMS>  (1) 
2-Chloro-4-(((1R,2S)-1-(5-(4-cyanophenyl)-1,3,4-oxadiazol-2-yl)-2-hydroxypropyl)amino)-3-methylbenzonitrile

$$$$
