
     RDKit          2D

 27 29  0  0  1  0  0  0  0  0999 V2000
    9.9159   -1.7944    0.0000 C   0  0  0  0  0  0  0  0  0  0  0  0
    9.9159   -0.9694    0.0000 N   0  0  0  0  0  0  0  0  0  0  0  0
    9.2014   -0.5569    0.0000 C   0  0  0  0  0  0  0  0  0  0  0  0
    8.4869   -0.9694    0.0000 C   0  0  0  0  0  0  0  0  0  0  0  0
    7.7725   -0.5569    0.0000 C   0  0  0  0  0  0  0  0  0  0  0  0
    7.7725    0.2681    0.0000 N   0  0  0  0  0  0  0  0  0  0  0  0
    7.0580   -0.9694    0.0000 C   0  0  0  0  0  0  0  0  0  0  0  0
    6.3435   -0.5569    0.0000 O   0  0  0  0  0  0  0  0  0  0  0  0
    7.0580   -1.7944    0.0000 O   0  0  0  0  0  0  0  0  0  0  0  0
   10.6304   -0.5569    0.0000 C   0  0  0  0  0  0  0  0  0  0  0  0
   11.3448   -0.9694    0.0000 C   0  0  0  0  0  0  0  0  0  0  0  0
   12.0985   -0.6338    0.0000 O   0  0  0  0  0  0  0  0  0  0  0  0
   12.6505   -1.2469    0.0000 C   0  0  0  0  0  0  0  0  0  0  0  0
   12.2380   -1.9614    0.0000 C   0  0  0  0  0  0  0  0  0  0  0  0
   12.5736   -2.7150    0.0000 O   0  0  0  0  0  0  0  0  0  0  0  0
   11.4311   -1.7898    0.0000 C   0  0  0  0  0  0  0  0  0  0  0  0
   10.8180   -2.3419    0.0000 O   0  0  0  0  0  0  0  0  0  0  0  0
   13.4710   -1.1607    0.0000 N   0  0  0  0  0  0  0  0  0  0  0  0
   13.8835   -0.4462    0.0000 C   0  0  0  0  0  0  0  0  0  0  0  0
   14.6905   -0.6177    0.0000 N   0  0  0  0  0  0  0  0  0  0  0  0
   14.7767   -1.4382    0.0000 C   0  0  0  0  0  0  0  0  0  0  0  0
   15.4442   -1.9231    0.0000 C   0  0  0  0  0  0  0  0  0  0  0  0
   16.1978   -1.5876    0.0000 N   0  0  0  0  0  0  0  0  0  0  0  0
   15.3579   -2.7436    0.0000 N   0  0  0  0  0  0  0  0  0  0  0  0
   14.6043   -3.0792    0.0000 C   0  0  0  0  0  0  0  0  0  0  0  0
   13.9368   -2.5942    0.0000 N   0  0  0  0  0  0  0  0  0  0  0  0
   14.0231   -1.7738    0.0000 C   0  0  0  0  0  0  0  0  0  0  0  0
  1  2  1  0
  2  3  1  0
  2 10  1  0
  3  4  1  0
  4  5  1  0
  5  6  1  1
  5  7  1  0
  7  8  1  0
  7  9  2  0
 11 10  1  1
 11 12  1  0
 11 16  1  0
 12 13  1  0
 13 14  1  0
 13 18  1  1
 14 15  1  6
 14 16  1  0
 16 17  1  6
 18 19  1  0
 18 27  1  0
 19 20  2  0
 20 21  1  0
 21 22  1  0
 21 27  2  0
 22 23  1  0
 22 24  2  0
 24 25  1  0
 25 26  2  0
 26 27  1  0
M  END
>  <DRUGBANK_ID>  (1) 
DB03458

>  <SECONDARY_ACCESSION_NUMBERS>  (1) 
EXPT02836

>  <COMMON_NAME>  (1) 
N(4)-Adenosyl-N(4)-methyl-2,4-diaminobutanoic acid

>  <CAS_NUMBER>  (1) 
111770-79-7

>  <UNII>  (1) 
AC4E80KX81

>  <SYNONYMS>  (1) 
5'-{[(3S)-3-Amino-3-carboxypropyl](methyl)amino}-5'-deoxyadenosine

$$$$
