
     RDKit          2D

  8  7  0  0  0  0  0  0  0  0999 V2000
    0.1105    0.4125    0.0000 C   0  0  0  0  0  0  0  0  0  0  0  0
    2.2539    0.0000    0.0000 C   0  0  0  0  0  0  0  0  0  0  0  0
    0.8250    0.0000    0.0000 C   0  0  0  0  0  0  0  0  0  0  0  0
    1.5395    0.4125    0.0000 C   0  0  0  0  0  0  0  0  0  0  0  0
    0.8250   -0.8250    0.0000 O   0  0  0  0  0  0  0  0  0  0  0  0
    1.5395    1.2375    0.0000 O   0  0  0  0  0  0  0  0  0  0  0  0
   -0.6039   -0.0000    0.0000 S   0  0  0  0  0  0  0  0  0  0  0  0
    2.9684    0.4125    0.0000 S   0  0  0  0  0  0  0  0  0  0  0  0
  3  1  1  0
  3  5  1  1
  4  2  1  0
  4  3  1  0
  4  6  1  6
  7  1  1  0
  8  2  1  0
M  END
>  <DRUGBANK_ID>  (1) 
DB01692

>  <SECONDARY_ACCESSION_NUMBERS>  (1) 
EXPT01292

>  <COMMON_NAME>  (1) 
Dithioerythritol

>  <CAS_NUMBER>  (1) 
6892-68-8

>  <UNII>  (1) 
R4SVL81GQI

>  <SYNONYMS>  (1) 
(2R,3S)-1,4-dimercaptobutane-2,3-diol; (2R*,3S*)-1,4-dimercapto-2,3-butanediol; 1,4-dithioerythritol; DTE; erythro-1,4-Dimercapto-2,3-butanediol

$$$$
