1518
     RDKit          2D

 27 29  0  0  0  0  0  0  0  0999 V2000
    2.8876    3.0780    0.0000 O   0  0  0  0  0  0  0  0  0  0  0  0
    3.8558    3.8905    0.0000 O   0  0  0  0  0  0  0  0  0  0  0  0
    3.4106   -1.3491    0.0000 O   0  0  0  0  0  0  0  0  0  0  0  0
    4.1251    0.7135    0.0000 N   0  0  0  0  0  0  0  0  0  0  0  0
    4.1251    2.3635    0.0000 C   0  0  0  0  0  0  0  0  0  0  0  0
    3.4106    1.9510    0.0000 C   0  0  0  0  0  0  0  0  0  0  0  0
    4.8396    1.9510    0.0000 C   0  0  0  0  0  0  0  0  0  0  0  0
    3.4106    1.1260    0.0000 C   0  0  0  0  0  0  0  0  0  0  0  0
    4.8396    1.1260    0.0000 C   0  0  0  0  0  0  0  0  0  0  0  0
    4.7571    2.8938    0.0000 C   0  0  0  0  0  0  0  0  0  0  0  0
    3.7126    3.0780    0.0000 C   0  0  0  0  0  0  0  0  0  0  0  0
    4.1251   -0.1115    0.0000 C   0  0  0  0  0  0  0  0  0  0  0  0
    4.6138    3.7063    0.0000 C   0  0  0  0  0  0  0  0  0  0  0  0
    5.5323    2.6117    0.0000 C   0  0  0  0  0  0  0  0  0  0  0  0
    3.4106   -0.5241    0.0000 C   0  0  0  0  0  0  0  0  0  0  0  0
    5.2458    4.2366    0.0000 C   0  0  0  0  0  0  0  0  0  0  0  0
    6.1644    3.1420    0.0000 C   0  0  0  0  0  0  0  0  0  0  0  0
    6.0211    3.9545    0.0000 C   0  0  0  0  0  0  0  0  0  0  0  0
    2.4751    3.7925    0.0000 C   0  0  0  0  0  0  0  0  0  0  0  0
    2.6961   -1.7616    0.0000 C   0  0  0  0  0  0  0  0  0  0  0  0
    1.6500    3.7925    0.0000 C   0  0  0  0  0  0  0  0  0  0  0  0
    2.6961   -2.5866    0.0000 C   0  0  0  0  0  0  0  0  0  0  0  0
    3.4106   -2.9991    0.0000 C   0  0  0  0  0  0  0  0  0  0  0  0
    1.9816   -2.9991    0.0000 C   0  0  0  0  0  0  0  0  0  0  0  0
    3.4106   -3.8241    0.0000 C   0  0  0  0  0  0  0  0  0  0  0  0
    1.9816   -3.8241    0.0000 C   0  0  0  0  0  0  0  0  0  0  0  0
    2.6961   -4.2366    0.0000 C   0  0  0  0  0  0  0  0  0  0  0  0
  1 11  1  0
  1 19  1  0
  2 11  2  0
  3 15  1  0
  3 20  1  0
  4  8  1  0
  4  9  1  0
  4 12  1  0
  5  6  1  0
  5  7  1  0
  5 10  1  0
  5 11  1  0
  6  8  1  0
  7  9  1  0
 10 13  2  0
 10 14  1  0
 12 15  1  0
 13 16  1  0
 14 17  2  0
 16 18  2  0
 17 18  1  0
 19 21  1  0
 20 22  1  0
 22 23  2  0
 22 24  1  0
 23 25  1  0
 24 26  2  0
 25 27  2  0
 26 27  1  0
M  END
>  <DRUGBANK_ID>  (1) 
DB01518

>  <COMMON_NAME>  (1) 
Benzethidine

>  <CAS_NUMBER>  (1) 
3691-78-9

>  <UNII>  (1) 
X0I74BAR02

>  <SYNONYMS>  (1) 
Benzethidine

$$$$
