
     RDKit          2D

 14 14  0  0  0  0  0  0  0  0999 V2000
   -2.6776   -2.6153    0.0000 F   0  0  0  0  0  0  0  0  0  0  0  0
   -1.9631   -2.2028    0.0000 C   0  0  0  0  0  0  0  0  0  0  0  0
   -1.5506   -2.9173    0.0000 F   0  0  0  0  0  0  0  0  0  0  0  0
   -2.3756   -1.4884    0.0000 F   0  0  0  0  0  0  0  0  0  0  0  0
   -1.2486   -1.7903    0.0000 C   0  0  0  0  0  0  0  0  0  0  0  0
   -1.2486   -0.9653    0.0000 O   0  0  0  0  0  0  0  0  0  0  0  0
   -0.5342   -2.2028    0.0000 C   0  0  0  0  0  0  0  0  0  0  0  0
    0.1803   -1.7903    0.0000 C   0  0  0  0  0  0  0  0  0  0  0  0
    0.1803   -0.9653    0.0000 O   0  0  0  0  0  0  0  0  0  0  0  0
    0.8948   -2.2028    0.0000 C   0  0  0  0  0  0  0  0  0  0  0  0
    1.6484   -1.8673    0.0000 C   0  0  0  0  0  0  0  0  0  0  0  0
    2.2005   -2.4804    0.0000 C   0  0  0  0  0  0  0  0  0  0  0  0
    1.7880   -3.1948    0.0000 C   0  0  0  0  0  0  0  0  0  0  0  0
    0.9810   -3.0233    0.0000 S   0  0  0  0  0  0  0  0  0  0  0  0
  1  2  1  0
  2  3  1  0
  2  4  1  0
  2  5  1  0
  5  6  2  0
  5  7  1  0
  7  8  1  0
  8  9  2  0
  8 10  1  0
 10 11  2  0
 10 14  1  0
 11 12  1  0
 12 13  2  0
 13 14  1  0
M  END
>  <DRUGBANK_ID>  (1) 
DB04795

>  <COMMON_NAME>  (1) 
Thenoyltrifluoroacetone

>  <CAS_NUMBER>  (1) 
326-91-0

>  <UNII>  (1) 
MYQ9MNW7NI

>  <SYNONYMS>  (1) 
1-Thenoyl-3,3,3-trifluoroacetone; 1,1,1-Trifluoro-3-(2-thenoyl)acetone; 2-Thenoyltrifluoroacetone; alpha-Thenoyltrifluoroacetone; Perfluoroacetyl(2-thenoyl)methane

$$$$
