
     RDKit          2D

 26 27  0  0  0  0  0  0  0  0999 V2000
    2.9756   -2.2095    0.0000 C   0  0  0  0  0  0  0  0  0  0  0  0
    2.9756   -1.3845    0.0000 C   0  0  0  0  0  0  0  0  0  0  0  0
    2.2611   -2.6220    0.0000 C   0  0  0  0  0  0  0  0  0  0  0  0
   -1.3617    0.7827    0.0000 C   0  0  0  0  0  0  0  0  0  0  0  0
   -1.6166    1.5673    0.0000 C   0  0  0  0  0  0  0  0  0  0  0  0
    2.2611   -0.9720    0.0000 C   0  0  0  0  0  0  0  0  0  0  0  0
    0.7621   -2.4644    0.0000 C   0  0  0  0  0  0  0  0  0  0  0  0
   -0.5478   -1.7970    0.0000 C   0  0  0  0  0  0  0  0  0  0  0  0
   -0.0027    1.2242    0.0000 C   0  0  0  0  0  0  0  0  0  0  0  0
   -0.5547    0.6111    0.0000 C   0  0  0  0  0  0  0  0  0  0  0  0
    0.2771   -1.7970    0.0000 C   0  0  0  0  0  0  0  0  0  0  0  0
    1.5467   -2.2095    0.0000 C   0  0  0  0  0  0  0  0  0  0  0  0
   -2.4236    1.7388    0.0000 C   0  0  0  0  0  0  0  0  0  0  0  0
   -0.2998   -0.1734    0.0000 C   0  0  0  0  0  0  0  0  0  0  0  0
    0.7621   -1.1295    0.0000 C   0  0  0  0  0  0  0  0  0  0  0  0
   -0.8518   -0.7865    0.0000 C   0  0  0  0  0  0  0  0  0  0  0  0
   -2.9756    1.1257    0.0000 N   0  0  0  0  0  0  0  0  0  0  0  0
    0.5071   -0.3449    0.0000 N   0  0  0  0  0  0  0  0  0  0  0  0
    1.5467   -1.3845    0.0000 N   0  0  0  0  0  0  0  0  0  0  0  0
   -0.9603   -2.5114    0.0000 O   0  0  0  0  0  0  0  0  0  0  0  0
   -2.6785    2.5234    0.0000 O   0  0  0  0  0  0  0  0  0  0  0  0
   -0.8518   -1.6115    0.0000 O   0  0  0  0  0  0  0  0  0  0  0  0
   -1.6588   -0.6149    0.0000 O   0  0  0  0  0  0  0  0  0  0  0  0
   -1.0646    2.1804    0.0000 O   0  0  0  0  0  0  0  0  0  0  0  0
    0.2943    2.6220    0.0000 O   0  0  0  0  0  0  0  0  0  0  0  0
   -0.2576    2.0089    0.0000 S   0  0  0  0  0  0  0  0  0  0  0  0
  2  1  1  0
  3  1  2  0
  5  4  2  0
  6  2  2  0
 10  4  1  0
 10  9  1  0
 11  7  1  0
 11  8  1  0
 12  3  1  0
 12  7  2  0
 13  5  1  0
 14 10  2  0
 15 11  2  0
 16 14  1  0
 17 13  2  0
 18 14  1  0
 18 15  1  0
 19  6  1  0
 19 12  1  0
 19 15  1  0
 20  8  2  0
 21 13  1  0
 22 16  2  0
 23 16  1  0
 26  9  1  0
 26 24  2  0
 26 25  2  0
M  END
>  <DRUGBANK_ID>  (1) 
DB02876

>  <SECONDARY_ACCESSION_NUMBERS>  (1) 
EXPT01303

>  <COMMON_NAME>  (1) 
3-(4-carbamoyl-1-carboxy-2-methylsulfonyl-buta-1,3-dienylamino)-indolizine-2-carboxylic acid

$$$$
