
     RDKit          2D

 34 36  0  0  0  0  0  0  0  0999 V2000
    5.0239    0.8259    0.0000 C   0  0  0  0  0  0  0  0  0  0  0  0
    5.0239    1.6510    0.0000 C   0  0  0  0  0  0  0  0  0  0  0  0
    3.5950    1.6510    0.0000 N   0  0  0  0  0  0  0  0  0  0  0  0
    4.3095    0.4134    0.0000 N   0  0  0  0  0  0  0  0  0  0  0  0
    4.3095    2.0635    0.0000 C   0  0  0  0  0  0  0  0  0  0  0  0
    4.3095    2.8885    0.0000 O   0  0  0  0  0  0  0  0  0  0  0  0
    3.5950    0.8259    0.0000 C   0  0  0  0  0  0  0  0  0  0  0  0
    2.8805    0.4134    0.0000 O   0  0  0  0  0  0  0  0  0  0  0  0
    4.0081   -0.8259    0.0000 C   0  0  0  0  0  0  0  0  0  0  0  0
    3.7532   -1.6104    0.0000 C   0  0  0  0  0  0  0  0  0  0  0  0
    4.1658   -2.3249    0.0000 O   0  0  0  0  0  0  0  0  0  0  0  0
    2.9282   -1.6104    0.0000 C   0  0  0  0  0  0  0  0  0  0  0  0
    2.5157   -2.3249    0.0000 O   0  0  0  0  0  0  0  0  0  0  0  0
    2.6733   -0.8259    0.0000 C   0  0  0  0  0  0  0  0  0  0  0  0
    1.9588   -0.4134    0.0000 C   0  0  0  0  0  0  0  0  0  0  0  0
    1.1338   -0.4134    0.0000 O   0  0  0  0  0  0  0  0  0  0  0  0
   -0.5161   -0.4134    0.0000 O   0  0  0  0  0  0  0  0  0  0  0  0
    0.3088    0.4115    0.0000 O   0  0  0  0  0  0  0  0  0  0  0  0
    0.3088   -0.4134    0.0000 P   0  0  0  0  0  0  0  0  0  0  0  0
    0.3088   -1.2385    0.0000 O   0  0  0  0  0  0  0  0  0  0  0  0
   -1.3411    0.4115    0.0000 O   0  0  0  0  0  0  0  0  0  0  0  0
   -1.3411   -1.2385    0.0000 O   0  0  0  0  0  0  0  0  0  0  0  0
   -1.3411   -0.4134    0.0000 P   0  0  0  0  0  0  0  0  0  0  0  0
   -2.1661   -0.4134    0.0000 O   0  0  0  0  0  0  0  0  0  0  0  0
    3.3407   -0.3409    0.0000 O   0  0  0  0  0  0  0  0  0  0  0  0
   -2.8806   -0.8259    0.0000 C   0  0  0  0  0  0  0  0  0  0  0  0
   -4.3095   -0.8259    0.0000 C   0  0  0  0  0  0  0  0  0  0  0  0
   -2.8806   -1.6510    0.0000 C   0  0  0  0  0  0  0  0  0  0  0  0
   -2.1661   -2.0635    0.0000 O   0  0  0  0  0  0  0  0  0  0  0  0
   -4.3095   -1.6510    0.0000 C   0  0  0  0  0  0  0  0  0  0  0  0
   -5.0240   -2.0635    0.0000 O   0  0  0  0  0  0  0  0  0  0  0  0
   -3.5950   -2.0635    0.0000 C   0  0  0  0  0  0  0  0  0  0  0  0
   -3.5950   -2.8885    0.0000 O   0  0  0  0  0  0  0  0  0  0  0  0
   -3.5950   -0.4134    0.0000 O   0  0  0  0  0  0  0  0  0  0  0  0
  1  2  2  0
  3  7  1  0
  4  1  1  0
  5  3  1  0
  5  2  1  0
  5  6  2  0
  7  4  1  0
  7  8  2  0
  9  4  1  1
 10  9  1  0
 10 11  1  6
 12 10  1  0
 12 13  1  6
 14 12  1  0
 14 15  1  1
 15 16  1  0
 16 19  1  0
 17 23  1  0
 19 17  1  0
 19 18  2  0
 19 20  1  0
 23 21  2  0
 23 22  1  0
 23 24  1  0
 25 14  1  0
 25  9  1  0
 26 24  1  6
 27 30  1  0
 28 26  1  0
 28 29  1  6
 30 32  1  0
 30 31  1  6
 32 28  1  0
 32 33  1  1
 34 26  1  0
 34 27  1  0
M  END
>  <DRUGBANK_ID>  (1) 
DB01713

>  <SECONDARY_ACCESSION_NUMBERS>  (1) 
EXPT03173

>  <COMMON_NAME>  (1) 
UDP-alpha-D-xylose

>  <CAS_NUMBER>  (1) 
3616-06-6

>  <UNII>  (1) 
I839TB018F

>  <SYNONYMS>  (1) 
UDP-xylose; Uridine-5'-diphosphate-xylopyranose

$$$$
