
     RDKit          2D

 29 30  0  0  1  0  0  0  0  0999 V2000
   -3.9808   -5.7568    0.0000 O   0  0  0  0  0  0  0  0  0  0  0  0
   -3.1603   -5.6706    0.0000 C   0  0  0  0  0  0  0  0  0  0  0  0
   -2.8248   -4.9169    0.0000 C   0  0  0  0  0  0  0  0  0  0  0  0
   -3.3097   -4.2495    0.0000 O   0  0  0  0  0  0  0  0  0  0  0  0
   -2.0043   -4.8307    0.0000 C   0  0  0  0  0  0  0  0  0  0  0  0
   -1.5194   -5.4981    0.0000 O   0  0  0  0  0  0  0  0  0  0  0  0
   -1.6687   -4.0770    0.0000 C   0  0  0  0  0  0  0  0  0  0  0  0
   -2.1537   -3.4095    0.0000 O   0  0  0  0  0  0  0  0  0  0  0  0
   -0.8483   -3.9907    0.0000 C   0  0  0  0  0  0  0  0  0  0  0  0
   -0.5127   -3.2371    0.0000 N   0  0  0  0  0  0  0  0  0  0  0  0
    0.2943   -3.0655    0.0000 C   0  0  0  0  0  0  0  0  0  0  0  0
    0.9074   -3.6176    0.0000 O   0  0  0  0  0  0  0  0  0  0  0  0
    0.3805   -2.2451    0.0000 N   0  0  0  0  0  0  0  0  0  0  0  0
    1.0950   -1.8326    0.0000 C   0  0  0  0  0  0  0  0  0  0  0  0
    1.8094   -2.2451    0.0000 C   0  0  0  0  0  0  0  0  0  0  0  0
    2.5239   -1.8326    0.0000 C   0  0  0  0  0  0  0  0  0  0  0  0
    3.2384   -2.2451    0.0000 O   0  0  0  0  0  0  0  0  0  0  0  0
    3.9529   -1.8326    0.0000 P   0  0  0  0  0  0  0  0  0  0  0  0
    4.6673   -1.4201    0.0000 O   0  0  0  0  0  0  0  0  0  0  0  0
    4.3654   -2.5470    0.0000 O   0  0  0  0  0  0  0  0  0  0  0  0
    3.5404   -1.1181    0.0000 O   0  0  0  0  0  0  0  0  0  0  0  0
   -0.3732   -1.9095    0.0000 C   0  0  0  0  0  0  0  0  0  0  0  0
   -0.9252   -2.5226    0.0000 C   0  0  0  0  0  0  0  0  0  0  0  0
   -1.7322   -2.3511    0.0000 N   0  0  0  0  0  0  0  0  0  0  0  0
   -1.9871   -1.5665    0.0000 C   0  0  0  0  0  0  0  0  0  0  0  0
   -2.7941   -1.3949    0.0000 O   0  0  0  0  0  0  0  0  0  0  0  0
   -1.4351   -0.9534    0.0000 N   0  0  0  0  0  0  0  0  0  0  0  0
   -0.6281   -1.1249    0.0000 C   0  0  0  0  0  0  0  0  0  0  0  0
   -0.0761   -0.5118    0.0000 O   0  0  0  0  0  0  0  0  0  0  0  0
  1  2  1  0
  2  3  1  0
  3  4  1  1
  3  5  1  0
  5  6  1  1
  5  7  1  0
  7  8  1  1
  7  9  1  0
  9 10  1  0
 10 11  1  0
 10 23  1  0
 11 12  2  0
 11 13  1  0
 13 14  1  0
 13 22  1  0
 14 15  1  0
 15 16  1  0
 16 17  1  0
 17 18  1  0
 18 19  1  0
 18 20  1  0
 18 21  2  0
 22 23  2  0
 22 28  1  0
 23 24  1  0
 24 25  1  0
 25 26  2  0
 25 27  1  0
 27 28  1  0
 28 29  2  0
M  END
>  <DRUGBANK_ID>  (1) 
DB03812

>  <SECONDARY_ACCESSION_NUMBERS>  (1) 
EXPT02992

>  <COMMON_NAME>  (1) 
3-{2,6,8-trioxo-9-[(2S,3R,4R)-2,3,4,5-tetrahydroxypentyl]-1,2,3,6,8,9-hexahydro-7H-purin-7-Yl}propyl dihydrogen phosphate

$$$$
