
     RDKit          2D

 22 25  0  0  0  0  0  0  0  0999 V2000
   -0.5197   -0.1999    0.0000 C   0  0  0  0  0  0  0  0  0  0  0  0
   -1.2395   -0.6031    0.0000 C   0  0  0  0  0  0  0  0  0  0  0  0
    0.8897    0.6264    0.0000 C   0  0  0  0  0  0  0  0  0  0  0  0
   -1.2395   -1.4194    0.0000 C   0  0  0  0  0  0  0  0  0  0  0  0
    0.1599   -0.5298    0.0000 C   0  0  0  0  0  0  0  0  0  0  0  0
    0.8897   -0.1899    0.0000 C   0  0  0  0  0  0  0  0  0  0  0  0
   -0.5031    0.6164    0.0000 C   0  0  0  0  0  0  0  0  0  0  0  0
    0.1866    1.0296    0.0000 C   0  0  0  0  0  0  0  0  0  0  0  0
    1.8193    0.9463    0.0000 C   0  0  0  0  0  0  0  0  0  0  0  0
   -1.9592   -1.8493    0.0000 C   0  0  0  0  0  0  0  0  0  0  0  0
    2.5991    1.3961    0.0000 C   0  0  0  0  0  0  0  0  0  0  0  0
   -1.9692   -0.2132    0.0000 C   0  0  0  0  0  0  0  0  0  0  0  0
    0.1599   -1.4028    0.0000 C   0  0  0  0  0  0  0  0  0  0  0  0
    1.9193   -0.4332    0.0000 C   0  0  0  0  0  0  0  0  0  0  0  0
    3.4188    1.8693    0.0000 C   0  0  0  0  0  0  0  0  0  0  0  0
   -0.5197   -1.8327    0.0000 C   0  0  0  0  0  0  0  0  0  0  0  0
   -2.6790   -1.4428    0.0000 C   0  0  0  0  0  0  0  0  0  0  0  0
    2.3292    0.3099    0.0000 C   0  0  0  0  0  0  0  0  0  0  0  0
   -3.4187   -1.8693    0.0000 O   0  0  0  0  0  0  0  0  0  0  0  0
   -2.6624   -0.6031    0.0000 C   0  0  0  0  0  0  0  0  0  0  0  0
    1.6261    1.8693    0.0000 O   0  0  0  0  0  0  0  0  0  0  0  0
    0.8897    1.4295    0.0000 C   0  0  0  0  0  0  0  0  0  0  0  0
  2  1  2  0
  3  8  1  0
  3 22  1  1
  4  2  1  0
  4 16  1  0
  5  1  1  0
  6  5  1  0
  6  3  1  0
  7  1  1  0
  8  7  2  0
  9  3  1  0
  9 11  1  0
  9 21  1  1
  9 18  1  0
 10  4  2  0
 10 17  1  0
 12  2  1  0
  5 13  1  6
  6 14  1  1
 15 11  3  0
 16 13  1  0
 17 20  1  0
 18 14  1  0
 19 17  2  0
 20 12  1  0
M  END
>  <DRUGBANK_ID>  (1) 
DB13563

>  <COMMON_NAME>  (1) 
Norgestrienone

>  <CAS_NUMBER>  (1) 
848-21-5

>  <UNII>  (1) 
89386PYU9O

>  <SYNONYMS>  (1) 
Norgestrienone

$$$$
