256
     RDKit          2D

 14 14  0  0  0  0  0  0  0  0999 V2000
    1.2781    0.8840    0.0000 C   0  0  0  0  0  0  0  0  0  0  0  0
    1.2781    0.0590    0.0000 C   0  0  0  0  0  0  0  0  0  0  0  0
    0.5636   -0.3535    0.0000 C   0  0  0  0  0  0  0  0  0  0  0  0
   -0.1508    0.0590    0.0000 C   0  0  0  0  0  0  0  0  0  0  0  0
   -0.1508    0.8840    0.0000 C   0  0  0  0  0  0  0  0  0  0  0  0
    0.5636    1.2965    0.0000 C   0  0  0  0  0  0  0  0  0  0  0  0
   -0.8653   -0.3535    0.0000 C   0  0  0  0  0  0  0  0  0  0  0  0
   -1.5798    0.0590    0.0000 C   0  0  0  0  0  0  0  0  0  0  0  0
   -2.2942   -0.3535    0.0000 O   0  0  0  0  0  0  0  0  0  0  0  0
   -0.8653   -1.1785    0.0000 S   0  0  0  0  0  0  0  0  0  0  0  0
   -0.8653   -2.0035    0.0000 O   0  0  0  0  0  0  0  0  0  0  0  0
   -1.5798    0.8840    0.0000 O   0  0  0  0  0  0  0  0  0  0  0  0
   -1.6903   -1.1785    0.0000 O   0  0  0  0  0  0  0  0  0  0  0  0
   -0.0403   -1.1785    0.0000 O   0  0  0  0  0  0  0  0  0  0  0  0
  1  2  2  0
  1  6  1  0
  2  3  1  0
  3  4  2  0
  4  5  1  0
  4  7  1  0
  5  6  2  0
  7  8  1  1
  7 10  1  0
  8  9  1  0
  8 12  2  0
 10 11  1  0
 10 13  2  0
 10 14  2  0
M  END
>  <DRUGBANK_ID>  (1) 
DB01866

>  <SECONDARY_ACCESSION_NUMBERS>  (1) 
EXPT00095

>  <COMMON_NAME>  (1) 
RU79256

$$$$
