
     RDKit          2D

  7  6  0  0  0  0  0  0  0  0999 V2000
    1.2375    2.1434    0.0000 C   0  0  0  0  0  0  0  0  0  0  0  0
    0.8250    1.4289    0.0000 N   0  0  0  0  0  0  0  0  0  0  0  0
    0.0000    1.4289    0.0000 C   0  0  0  0  0  0  0  0  0  0  0  0
    1.2375    0.7145    0.0000 C   0  0  0  0  0  0  0  0  0  0  0  0
    0.8250    0.0000    0.0000 C   0  0  0  0  0  0  0  0  0  0  0  0
    1.2375   -0.7145    0.0000 O   0  0  0  0  0  0  0  0  0  0  0  0
    0.0000    0.0000    0.0000 O   0  0  0  0  0  0  0  0  0  0  0  0
  1  2  1  0
  2  3  1  0
  2  4  1  0
  4  5  1  0
  5  6  1  0
  5  7  2  0
M  END
>  <DRUGBANK_ID>  (1) 
DB02083

>  <SECONDARY_ACCESSION_NUMBERS>  (1) 
EXPT01225

>  <COMMON_NAME>  (1) 
N,N-dimethylglycine

>  <CAS_NUMBER>  (1) 
1118-68-9

>  <UNII>  (1) 
7797M4CPPA

>  <SYNONYMS>  (1) 
(dimethylamino)acetic acid; 2-(Dimethylamino)acetic acid; Dimethylglycine; N-Methylsarcosine; N,N-Dimethylaminoacetic acid

$$$$
