31U
     RDKit          2D

 26 27  0  0  0  0  0  0  0  0999 V2000
    0.3300   -0.8531    0.0000 N   0  0  0  0  0  0  0  0  0  0  0  0
   -0.4236   -0.5175    0.0000 C   0  0  0  0  0  0  0  0  0  0  0  0
   -0.5952    0.2895    0.0000 C   0  0  0  0  0  0  0  0  0  0  0  0
    0.0179    0.8415    0.0000 O   0  0  0  0  0  0  0  0  0  0  0  0
   -1.3798    0.5444    0.0000 N   0  0  0  0  0  0  0  0  0  0  0  0
   -1.5513    1.3514    0.0000 C   0  0  0  0  0  0  0  0  0  0  0  0
   -2.3359    1.6063    0.0000 C   0  0  0  0  0  0  0  0  0  0  0  0
   -2.9490    1.0543    0.0000 C   0  0  0  0  0  0  0  0  0  0  0  0
   -3.7337    1.3092    0.0000 C   0  0  0  0  0  0  0  0  0  0  0  0
   -3.9052    2.1162    0.0000 C   0  0  0  0  0  0  0  0  0  0  0  0
   -4.6898    2.3711    0.0000 C   0  0  0  0  0  0  0  0  0  0  0  0
   -4.8613    3.1781    0.0000 N   0  0  0  0  0  0  0  0  0  0  0  0
   -5.3029    1.8191    0.0000 N   0  0  0  0  0  0  0  0  0  0  0  0
   -3.2921    2.6682    0.0000 C   0  0  0  0  0  0  0  0  0  0  0  0
   -2.5075    2.4133    0.0000 C   0  0  0  0  0  0  0  0  0  0  0  0
   -0.9757   -1.1306    0.0000 C   0  0  0  0  0  0  0  0  0  0  0  0
   -0.5632   -1.8451    0.0000 C   0  0  0  0  0  0  0  0  0  0  0  0
    0.2438   -1.6735    0.0000 C   0  0  0  0  0  0  0  0  0  0  0  0
    1.0445   -0.4406    0.0000 C   0  0  0  0  0  0  0  0  0  0  0  0
    1.7590   -0.8531    0.0000 C   0  0  0  0  0  0  0  0  0  0  0  0
    1.7590   -1.6781    0.0000 N   0  0  0  0  0  0  0  0  0  0  0  0
    2.4734   -0.4406    0.0000 C   0  0  0  0  0  0  0  0  0  0  0  0
    3.1879   -0.8531    0.0000 C   0  0  0  0  0  0  0  0  0  0  0  0
    3.9024   -0.4406    0.0000 C   0  0  0  0  0  0  0  0  0  0  0  0
    3.1879   -1.6781    0.0000 C   0  0  0  0  0  0  0  0  0  0  0  0
    1.0445    0.3844    0.0000 O   0  0  0  0  0  0  0  0  0  0  0  0
  1 19  1  0
  2  1  1  0
  2  3  1  1
  3  5  1  0
  4  3  2  0
  6  5  1  0
  6  7  1  0
  7  8  2  0
  7 15  1  0
  8  9  1  0
  9 10  2  0
 10 11  1  0
 11 12  2  0
 11 13  1  0
 14 10  1  0
 15 14  2  0
 16  2  1  0
 16 17  1  0
 17 18  1  0
 18  1  1  0
 19 26  2  0
 19 20  1  0
 20 21  1  1
 20 22  1  0
 22 23  1  0
 23 24  1  0
 25 23  1  0
M  END
>  <DRUGBANK_ID>  (1) 
DB06996

>  <COMMON_NAME>  (1) 
D-leucyl-N-(4-carbamimidoylbenzyl)-L-prolinamide

$$$$
