
     RDKit          2D

 25 27  0  0  0  0  0  0  0  0999 V2000
    1.5820   -3.6176    0.0000 C   0  0  0  0  0  0  0  0  0  0  0  0
    2.2965   -4.0301    0.0000 C   0  0  0  0  0  0  0  0  0  0  0  0
    3.0109   -3.6176    0.0000 C   0  0  0  0  0  0  0  0  0  0  0  0
    3.7254   -4.0301    0.0000 N   0  0  0  0  0  0  0  0  0  0  0  0
    4.4399   -3.6176    0.0000 C   0  0  0  0  0  0  0  0  0  0  0  0
    4.4399   -2.7926    0.0000 O   0  0  0  0  0  0  0  0  0  0  0  0
    5.1543   -4.0301    0.0000 C   0  0  0  0  0  0  0  0  0  0  0  0
    5.9512   -3.8165    0.0000 C   0  0  0  0  0  0  0  0  0  0  0  0
    6.1648   -4.6134    0.0000 C   0  0  0  0  0  0  0  0  0  0  0  0
    5.3679   -4.8269    0.0000 C   0  0  0  0  0  0  0  0  0  0  0  0
    6.9895   -4.5918    0.0000 F   0  0  0  0  0  0  0  0  0  0  0  0
    6.5584   -5.3384    0.0000 C   0  0  0  0  0  0  0  0  0  0  0  0
    7.3831   -5.3600    0.0000 C   0  0  0  0  0  0  0  0  0  0  0  0
    7.7768   -6.0851    0.0000 C   0  0  0  0  0  0  0  0  0  0  0  0
    7.3457   -6.7885    0.0000 C   0  0  0  0  0  0  0  0  0  0  0  0
    6.5210   -6.7669    0.0000 C   0  0  0  0  0  0  0  0  0  0  0  0
    6.1273   -6.0419    0.0000 C   0  0  0  0  0  0  0  0  0  0  0  0
    7.7394   -7.5135    0.0000 C   0  0  0  0  0  0  0  0  0  0  0  0
    8.5641   -7.5351    0.0000 N   0  0  0  0  0  0  0  0  0  0  0  0
    9.0663   -6.8806    0.0000 C   0  0  0  0  0  0  0  0  0  0  0  0
    9.8440   -7.1560    0.0000 C   0  0  0  0  0  0  0  0  0  0  0  0
    9.8224   -7.9807    0.0000 C   0  0  0  0  0  0  0  0  0  0  0  0
    9.0314   -8.2150    0.0000 C   0  0  0  0  0  0  0  0  0  0  0  0
    8.6015   -6.1067    0.0000 F   0  0  0  0  0  0  0  0  0  0  0  0
    2.2965   -4.8551    0.0000 C   0  0  0  0  0  0  0  0  0  0  0  0
  1  2  1  0
  2  3  1  0
  2 25  1  0
  3  4  1  0
  4  5  1  0
  5  6  2  0
  7  5  1  1
  7  8  1  0
  7 10  1  0
  8  9  1  0
  9 10  1  0
  9 11  1  6
  9 12  1  0
 12 13  2  0
 12 17  1  0
 13 14  1  0
 14 15  2  0
 14 24  1  0
 15 16  1  0
 15 18  1  0
 16 17  2  0
 18 19  1  0
 19 20  1  0
 19 23  1  0
 20 21  1  0
 21 22  1  0
 22 23  1  0
M  END
>  <DRUGBANK_ID>  (1) 
DB12360

>  <COMMON_NAME>  (1) 
PF-03654764

>  <CAS_NUMBER>  (1) 
935840-35-0

>  <UNII>  (1) 
FPI2G03BJ1

$$$$
