LIH
     RDKit          2D

 25 28  0  0  0  0  0  0  0  0999 V2000
    0.3072   -1.8544    0.0000 C   0  0  0  0  0  0  0  0  0  0  0  0
    1.0217   -2.2669    0.0000 C   0  0  0  0  0  0  0  0  0  0  0  0
    0.3072   -3.5044    0.0000 C   0  0  0  0  0  0  0  0  0  0  0  0
   -0.4072   -2.2669    0.0000 C   0  0  0  0  0  0  0  0  0  0  0  0
    0.3072   -1.0294    0.0000 C   0  0  0  0  0  0  0  0  0  0  0  0
   -0.4072   -0.6169    0.0000 C   0  0  0  0  0  0  0  0  0  0  0  0
   -1.1217   -1.0294    0.0000 C   0  0  0  0  0  0  0  0  0  0  0  0
    1.0217   -0.6169    0.0000 C   0  0  0  0  0  0  0  0  0  0  0  0
   -1.1217    1.4456    0.0000 C   0  0  0  0  0  0  0  0  0  0  0  0
   -1.8362    1.8581    0.0000 C   0  0  0  0  0  0  0  0  0  0  0  0
   -1.8362    2.6831    0.0000 C   0  0  0  0  0  0  0  0  0  0  0  0
   -1.1217    3.0956    0.0000 C   0  0  0  0  0  0  0  0  0  0  0  0
   -0.4072    0.2081    0.0000 C   0  0  0  0  0  0  0  0  0  0  0  0
    0.3072    1.4456    0.0000 C   0  0  0  0  0  0  0  0  0  0  0  0
   -0.4072    1.8581    0.0000 C   0  0  0  0  0  0  0  0  0  0  0  0
   -0.4072    2.6831    0.0000 C   0  0  0  0  0  0  0  0  0  0  0  0
    1.0217    2.6831    0.0000 C   0  0  0  0  0  0  0  0  0  0  0  0
    1.0217    1.8581    0.0000 C   0  0  0  0  0  0  0  0  0  0  0  0
    1.0217   -3.0919    0.0000 N   0  0  0  0  0  0  0  0  0  0  0  0
   -0.4072   -3.0919    0.0000 N   0  0  0  0  0  0  0  0  0  0  0  0
   -1.1217   -1.8544    0.0000 N   0  0  0  0  0  0  0  0  0  0  0  0
    0.3072    3.0956    0.0000 N   0  0  0  0  0  0  0  0  0  0  0  0
   -1.1217    0.6206    0.0000 N   0  0  0  0  0  0  0  0  0  0  0  0
    1.7362   -1.8544    0.0000 N   0  0  0  0  0  0  0  0  0  0  0  0
    0.3072   -4.3294    0.0000 N   0  0  0  0  0  0  0  0  0  0  0  0
  1  2  2  0
  1  4  1  0
  1  5  1  0
  2 19  1  0
  2 24  1  0
  3 19  2  0
  3 20  1  0
  3 25  1  0
  4 20  2  0
  4 21  1  0
  5  6  2  0
  5  8  1  0
  6  7  1  0
  6 13  1  0
  7 21  2  0
  9 10  2  0
  9 15  1  0
  9 23  1  0
 10 11  1  0
 11 12  2  0
 12 16  1  0
 13 23  1  0
 14 15  2  0
 14 18  1  0
 15 16  1  0
 16 22  2  0
 17 18  2  0
 17 22  1  0
M  END
>  <DRUGBANK_ID>  (1) 
DB03351

>  <SECONDARY_ACCESSION_NUMBERS>  (1) 
EXPT02031

>  <COMMON_NAME>  (1) 
Sri-9439

$$$$
