RO4
     RDKit          2D

 28 27  0  0  0  0  0  0  0  0999 V2000
   -3.7249    0.9774    0.0000 O   0  0  0  0  0  0  0  0  0  0  0  0
   -1.5815   -1.0851    0.0000 O   0  0  0  0  0  0  0  0  0  0  0  0
    0.5619    0.9774    0.0000 O   0  0  0  0  0  0  0  0  0  0  0  0
    2.7053   -1.0851    0.0000 O   0  0  0  0  0  0  0  0  0  0  0  0
    3.4198    0.1524    0.0000 O   0  0  0  0  0  0  0  0  0  0  0  0
   -4.4394   -1.0851    0.0000 O   0  0  0  0  0  0  0  0  0  0  0  0
   -4.4394   -0.2601    0.0000 N   0  0  0  0  0  0  0  0  0  0  0  0
    1.2764   -0.2601    0.0000 N   0  0  0  0  0  0  0  0  0  0  0  0
   -0.8670    0.1524    0.0000 N   0  0  0  0  0  0  0  0  0  0  0  0
   -3.7249    0.1524    0.0000 C   0  0  0  0  0  0  0  0  0  0  0  0
   -1.5815   -0.2601    0.0000 C   0  0  0  0  0  0  0  0  0  0  0  0
    0.5619    0.1524    0.0000 C   0  0  0  0  0  0  0  0  0  0  0  0
    2.7053   -0.2601    0.0000 C   0  0  0  0  0  0  0  0  0  0  0  0
   -2.2960    0.1524    0.0000 C   0  0  0  0  0  0  0  0  0  0  0  0
   -0.1526   -0.2601    0.0000 C   0  0  0  0  0  0  0  0  0  0  0  0
    1.9908    0.1524    0.0000 C   0  0  0  0  0  0  0  0  0  0  0  0
   -1.5815    1.3899    0.0000 C   0  0  0  0  0  0  0  0  0  0  0  0
    0.5619   -1.4976    0.0000 C   0  0  0  0  0  0  0  0  0  0  0  0
   -3.0104   -0.2601    0.0000 C   0  0  0  0  0  0  0  0  0  0  0  0
    4.1343   -0.2601    0.0000 C   0  0  0  0  0  0  0  0  0  0  0  0
   -2.2960    0.9774    0.0000 C   0  0  0  0  0  0  0  0  0  0  0  0
   -0.1526   -1.0851    0.0000 C   0  0  0  0  0  0  0  0  0  0  0  0
    4.8487    0.1524    0.0000 C   0  0  0  0  0  0  0  0  0  0  0  0
   -0.8670    0.9774    0.0000 C   0  0  0  0  0  0  0  0  0  0  0  0
   -1.5815    2.2149    0.0000 C   0  0  0  0  0  0  0  0  0  0  0  0
    0.5619   -2.3226    0.0000 C   0  0  0  0  0  0  0  0  0  0  0  0
    1.2764   -1.0851    0.0000 C   0  0  0  0  0  0  0  0  0  0  0  0
    1.9908    0.9774    0.0000 C   0  0  0  0  0  0  0  0  0  0  0  0
  1 10  2  0
  2 11  2  0
  3 12  2  0
  4 13  2  0
  5 13  1  0
  5 20  1  0
  6  7  1  0
  7 10  1  0
  8 12  1  0
  8 16  1  0
  9 11  1  0
 10 19  1  0
 11 14  1  0
 12 15  1  0
 13 16  1  0
 14 19  1  1
 14 21  1  0
 15  9  1  0
 15 22  1  6
 16 28  1  1
 17 21  1  0
 17 24  1  0
 17 25  1  0
 18 22  1  0
 18 26  1  0
 18 27  1  0
 20 23  1  0
M  END
>  <DRUGBANK_ID>  (1) 
DB08482

>  <COMMON_NAME>  (1) 
[[1-[N-HYDROXY-ACETAMIDYL]-3-METHYL-BUTYL]-CARBONYL-LEUCINYL]-ALANINE ETHYL ESTER

$$$$
