MAJ
     RDKit          2D

 13 14  0  0  0  0  0  0  0  0999 V2000
   -0.2882    0.7143    0.0000 C   0  0  0  0  0  0  0  0  0  0  0  0
    0.4263    0.3018    0.0000 C   0  0  0  0  0  0  0  0  0  0  0  0
    0.4263   -0.5232    0.0000 C   0  0  0  0  0  0  0  0  0  0  0  0
   -0.2882   -0.9357    0.0000 C   0  0  0  0  0  0  0  0  0  0  0  0
   -1.0026    0.3018    0.0000 C   0  0  0  0  0  0  0  0  0  0  0  0
   -1.0026   -0.5232    0.0000 C   0  0  0  0  0  0  0  0  0  0  0  0
   -1.7873   -0.7781    0.0000 C   0  0  0  0  0  0  0  0  0  0  0  0
   -2.2722   -0.1107    0.0000 C   0  0  0  0  0  0  0  0  0  0  0  0
   -1.7873    0.5568    0.0000 C   0  0  0  0  0  0  0  0  0  0  0  0
    1.1408    0.7143    0.0000 S   0  0  0  0  0  0  0  0  0  0  0  0
    1.8552    1.1268    0.0000 O   0  0  0  0  0  0  0  0  0  0  0  0
    0.7283    1.4288    0.0000 O   0  0  0  0  0  0  0  0  0  0  0  0
    1.5533   -0.0001    0.0000 N   0  0  0  0  0  0  0  0  0  0  0  0
  1  2  2  0
  2 10  1  0
  3  2  1  0
  4  3  2  0
  5  1  1  0
  6  4  1  0
  6  5  2  0
  7  8  1  0
  7  6  1  0
  8  9  1  0
  9  5  1  0
 10 11  2  0
 10 13  1  0
 12 10  2  0
M  END
>  <DRUGBANK_ID>  (1) 
DB08165

>  <COMMON_NAME>  (1) 
indane-5-sulfonamide

>  <UNII>  (1) 
XJL3C99615

$$$$
