
     RDKit          2D

 22 23  0  0  0  0  0  0  0  0999 V2000
   -1.7861   -1.2375    0.0000 C   0  0  0  0  0  0  0  0  0  0  0  0
   -1.0717   -1.6500    0.0000 C   0  0  0  0  0  0  0  0  0  0  0  0
   -1.0717   -2.4750    0.0000 C   0  0  0  0  0  0  0  0  0  0  0  0
   -1.7861   -2.8875    0.0000 C   0  0  0  0  0  0  0  0  0  0  0  0
   -1.7861   -3.7125    0.0000 C   0  0  0  0  0  0  0  0  0  0  0  0
   -2.5006   -2.4750    0.0000 C   0  0  0  0  0  0  0  0  0  0  0  0
   -2.5006   -1.6500    0.0000 C   0  0  0  0  0  0  0  0  0  0  0  0
   -0.3572   -1.2375    0.0000 C   0  0  0  0  0  0  0  0  0  0  0  0
   -1.7861   -0.4125    0.0000 N   0  0  0  0  0  0  0  0  0  0  0  0
   -1.0717    0.0000    0.0000 C   0  0  0  0  0  0  0  0  0  0  0  0
   -1.0717    0.8250    0.0000 N   0  0  0  0  0  0  0  0  0  0  0  0
   -0.3572    1.2375    0.0000 C   0  0  0  0  0  0  0  0  0  0  0  0
   -0.3572    2.0625    0.0000 N   0  0  0  0  0  0  0  0  0  0  0  0
    0.3572    2.4750    0.0000 C   0  0  0  0  0  0  0  0  0  0  0  0
    0.3572    3.3000    0.0000 C   0  0  0  0  0  0  0  0  0  0  0  0
    1.0717    3.7125    0.0000 C   0  0  0  0  0  0  0  0  0  0  0  0
    1.7861    3.3000    0.0000 C   0  0  0  0  0  0  0  0  0  0  0  0
    2.5006    3.7125    0.0000 C   0  0  0  0  0  0  0  0  0  0  0  0
    1.7861    2.4750    0.0000 C   0  0  0  0  0  0  0  0  0  0  0  0
    1.0717    2.0625    0.0000 C   0  0  0  0  0  0  0  0  0  0  0  0
   -0.3572    3.7125    0.0000 C   0  0  0  0  0  0  0  0  0  0  0  0
   -1.7861    1.2375    0.0000 C   0  0  0  0  0  0  0  0  0  0  0  0
  1  2  2  0
  1  7  1  0
  1  9  1  0
  2  3  1  0
  2  8  1  0
  3  4  2  0
  4  5  1  0
  4  6  1  0
  6  7  2  0
  9 10  2  0
 10 11  1  0
 11 12  1  0
 11 22  1  0
 12 13  2  0
 13 14  1  0
 14 15  2  0
 14 20  1  0
 15 16  1  0
 15 21  1  0
 16 17  2  0
 17 18  1  0
 17 19  1  0
 19 20  2  0
M  END
>  <DRUGBANK_ID>  (1) 
DB11373

>  <COMMON_NAME>  (1) 
Amitraz

>  <CAS_NUMBER>  (1) 
33089-61-1

>  <UNII>  (1) 
33IAH5017S

>  <SYNONYMS>  (1) 
1,5-di(2,4-dimethylphenyl)-3-methyl-1,3,5-triazapenta-1,4-diene; Amitraz; Amitraze; Amitrazum; N,N'-(methyliminodimethylidyne)bis-2,4-xylidine

$$$$
