
     RDKit          2D

 14 15  0  0  0  0  0  0  0  0999 V2000
   -0.3686    0.0092    0.0000 N   0  0  0  0  0  0  0  0  0  0  0  0
   -0.3686    0.8344    0.0000 C   0  0  0  0  0  0  0  0  0  0  0  0
    0.3427   -0.4181    0.0000 C   0  0  0  0  0  0  0  0  0  0  0  0
   -1.1935    0.0092    0.0000 C   0  0  0  0  0  0  0  0  0  0  0  0
    0.3427    1.2466    0.0000 S   0  0  0  0  0  0  0  0  0  0  0  0
    1.0655    0.0019    0.0000 C   0  0  0  0  0  0  0  0  0  0  0  0
    0.3351   -1.2430    0.0000 C   0  0  0  0  0  0  0  0  0  0  0  0
   -1.7763   -0.5695    0.0000 O   0  0  0  0  0  0  0  0  0  0  0  0
    1.0655    0.8344    0.0000 C   0  0  0  0  0  0  0  0  0  0  0  0
    1.7769   -0.4068    0.0000 C   0  0  0  0  0  0  0  0  0  0  0  0
   -0.3799   -1.6441    0.0000 O   0  0  0  0  0  0  0  0  0  0  0  0
    1.0465   -1.6555    0.0000 O   0  0  0  0  0  0  0  0  0  0  0  0
   -1.1935    0.8344    0.0000 C   0  0  0  0  0  0  0  0  0  0  0  0
   -1.7769    1.4177    0.0000 N   0  0  0  0  0  0  0  0  0  0  0  0
  1  2  1  0
  1  3  1  0
  1  4  1  0
  2 13  1  0
  2  5  1  1
  3  6  2  0
  3  7  1  0
  4  8  2  0
  4 13  1  0
  5  9  1  0
  6 10  1  0
  6  9  1  0
  7 11  1  0
  7 12  2  0
 13 14  1  1
M  END
>  <DRUGBANK_ID>  (1) 
DB14107

>  <COMMON_NAME>  (1) 
7-Aminodesacetoxycephalosporanic acid

>  <CAS_NUMBER>  (1) 
22252-43-3

>  <UNII>  (1) 
ANM3MSM8TN

>  <SYNONYMS>  (1) 
3-methyl-7-amino-Δ3-cephem-4-carboxylic acid; 3-methyl-7-aminoceph-3-em-4-carboxylic acid; 7-ADCA; 7-amino-3-methyl-3-cephem-4-carboxylic acid; 7beta-aminodeacetoxycephalosporanic acid; 7β-aminodeacetoxycephalosporanic acid

$$$$
