
     RDKit          2D

 29 31  0  0  0  0  0  0  0  0999 V2000
   -1.0085   -1.2202    0.0000 C   0  0  0  0  0  0  0  0  0  0  0  0
   -1.7229   -1.6327    0.0000 C   0  0  0  0  0  0  0  0  0  0  0  0
   -2.4374   -1.2202    0.0000 C   0  0  0  0  0  0  0  0  0  0  0  0
   -2.4374   -0.3952    0.0000 C   0  0  0  0  0  0  0  0  0  0  0  0
   -1.7229    0.0173    0.0000 C   0  0  0  0  0  0  0  0  0  0  0  0
   -1.0085   -0.3952    0.0000 C   0  0  0  0  0  0  0  0  0  0  0  0
   -1.7229    0.8423    0.0000 Cl  0  0  0  0  0  0  0  0  0  0  0  0
   -1.7229   -2.4577    0.0000 S   0  0  0  0  0  0  0  0  0  0  0  0
   -2.5479   -2.4577    0.0000 O   0  0  0  0  0  0  0  0  0  0  0  0
   -0.8979   -2.4577    0.0000 O   0  0  0  0  0  0  0  0  0  0  0  0
   -1.7229   -3.2827    0.0000 C   0  0  0  0  0  0  0  0  0  0  0  0
   -1.4408   -4.0580    0.0000 C   0  0  0  0  0  0  0  0  0  0  0  0
   -1.9711   -4.6900    0.0000 C   0  0  0  0  0  0  0  0  0  0  0  0
   -2.7835   -4.5467    0.0000 C   0  0  0  0  0  0  0  0  0  0  0  0
   -3.0657   -3.7714    0.0000 C   0  0  0  0  0  0  0  0  0  0  0  0
   -2.5354   -3.1395    0.0000 C   0  0  0  0  0  0  0  0  0  0  0  0
   -3.3138   -5.1787    0.0000 C   0  0  0  0  0  0  0  0  0  0  0  0
   -3.0317   -5.9539    0.0000 C   0  0  0  0  0  0  0  0  0  0  0  0
   -3.5620   -6.5859    0.0000 C   0  0  0  0  0  0  0  0  0  0  0  0
   -3.2798   -7.3612    0.0000 O   0  0  0  0  0  0  0  0  0  0  0  0
   -4.3744   -6.4427    0.0000 O   0  0  0  0  0  0  0  0  0  0  0  0
   -0.9105   -3.1395    0.0000 C   0  0  0  0  0  0  0  0  0  0  0  0
   -0.6283   -2.3642    0.0000 C   0  0  0  0  0  0  0  0  0  0  0  0
    0.1842   -2.2210    0.0000 C   0  0  0  0  0  0  0  0  0  0  0  0
    0.7145   -2.8529    0.0000 C   0  0  0  0  0  0  0  0  0  0  0  0
    0.4323   -3.6282    0.0000 C   0  0  0  0  0  0  0  0  0  0  0  0
   -0.3802   -3.7714    0.0000 C   0  0  0  0  0  0  0  0  0  0  0  0
    0.9626   -4.2602    0.0000 F   0  0  0  0  0  0  0  0  0  0  0  0
   -1.1586   -1.7322    0.0000 F   0  0  0  0  0  0  0  0  0  0  0  0
  1  2  2  0
  1  6  1  0
  2  3  1  0
  2  8  1  0
  3  4  2  0
  4  5  1  0
  5  6  2  0
  5  7  1  0
  8  9  2  0
  8 10  2  0
 11  8  1  1
 11 12  1  0
 11 16  1  0
 11 22  1  0
 12 13  1  0
 13 14  1  0
 14 15  1  0
 14 17  1  1
 15 16  1  0
 17 18  1  0
 18 19  1  0
 19 20  2  0
 19 21  1  0
 22 23  2  0
 22 27  1  0
 23 24  1  0
 23 29  1  0
 24 25  2  0
 25 26  1  0
 26 27  2  0
 26 28  1  0
M  END
>  <DRUGBANK_ID>  (1) 
DB12852

>  <COMMON_NAME>  (1) 
MK-0752

>  <CAS_NUMBER>  (1) 
471905-41-6

>  <UNII>  (1) 
9JD9B4S53T

$$$$
