DRX
     RDKit          2D

 28 31  0  0  0  0  0  0  0  0999 V2000
    0.9001   -2.2434    0.0000 C   0  0  0  0  0  0  0  0  0  0  0  0
    1.4521   -1.6303    0.0000 C   0  0  0  0  0  0  0  0  0  0  0  0
    1.1972   -0.8457    0.0000 C   0  0  0  0  0  0  0  0  0  0  0  0
    1.7492   -0.2326    0.0000 Cl  0  0  0  0  0  0  0  0  0  0  0  0
    0.3902   -0.6742    0.0000 C   0  0  0  0  0  0  0  0  0  0  0  0
   -0.1618   -1.2873    0.0000 C   0  0  0  0  0  0  0  0  0  0  0  0
    0.0931   -2.0719    0.0000 C   0  0  0  0  0  0  0  0  0  0  0  0
   -0.3194   -2.7864    0.0000 S   0  0  0  0  0  0  0  0  0  0  0  0
    0.2327   -3.3995    0.0000 C   0  0  0  0  0  0  0  0  0  0  0  0
    0.9863   -3.0639    0.0000 C   0  0  0  0  0  0  0  0  0  0  0  0
    1.7008   -3.4764    0.0000 C   0  0  0  0  0  0  0  0  0  0  0  0
    1.7008   -4.3014    0.0000 P   0  0  0  0  0  0  0  0  0  0  0  0
    2.5258   -4.3014    0.0000 O   0  0  0  0  0  0  0  0  0  0  0  0
    0.8758   -4.3014    0.0000 O   0  0  0  0  0  0  0  0  0  0  0  0
    1.7008   -5.1264    0.0000 O   0  0  0  0  0  0  0  0  0  0  0  0
    2.4153   -3.0639    0.0000 C   0  0  0  0  0  0  0  0  0  0  0  0
    2.4153   -2.2389    0.0000 O   0  0  0  0  0  0  0  0  0  0  0  0
    3.1297   -3.4764    0.0000 N   0  0  0  0  0  0  0  0  0  0  0  0
    3.8442   -3.0639    0.0000 C   0  0  0  0  0  0  0  0  0  0  0  0
    4.5587   -3.4764    0.0000 C   0  0  0  0  0  0  0  0  0  0  0  0
    5.2732   -3.0639    0.0000 C   0  0  0  0  0  0  0  0  0  0  0  0
    5.9876   -3.4764    0.0000 C   0  0  0  0  0  0  0  0  0  0  0  0
    6.7021   -3.0639    0.0000 C   0  0  0  0  0  0  0  0  0  0  0  0
    6.7021   -2.2389    0.0000 C   0  0  0  0  0  0  0  0  0  0  0  0
    5.9876   -1.8264    0.0000 C   0  0  0  0  0  0  0  0  0  0  0  0
    5.2732   -2.2389    0.0000 C   0  0  0  0  0  0  0  0  0  0  0  0
    4.5587   -1.8264    0.0000 C   0  0  0  0  0  0  0  0  0  0  0  0
    3.8442   -2.2389    0.0000 C   0  0  0  0  0  0  0  0  0  0  0  0
  1 10  1  0
  1  7  1  0
  1  2  2  0
  2  3  1  0
  3  5  2  0
  3  4  1  0
  5  6  1  0
  6  7  2  0
  7  8  1  0
  8  9  1  0
  9 10  2  0
 10 11  1  0
 11 16  1  1
 11 12  1  0
 12 14  2  0
 12 13  1  0
 12 15  1  0
 16 17  2  0
 16 18  1  0
 18 19  1  0
 19 28  1  0
 19 20  2  0
 20 21  1  0
 21 26  2  0
 21 22  1  0
 22 23  2  0
 23 24  1  0
 24 25  2  0
 25 26  1  0
 26 27  1  0
 27 28  2  0
M  END
>  <DRUGBANK_ID>  (1) 
DB07680

>  <COMMON_NAME>  (1) 
[(1S)-1-(5-CHLORO-1-BENZOTHIEN-3-YL)-2-(2-NAPHTHYLAMINO)-2-OXOETHYL]PHOSPHONIC ACID

$$$$
