
     RDKit          2D

 16 17  0  0  0  0  0  0  0  0999 V2000
    1.4289    2.4750    0.0000 C   0  0  0  0  0  0  0  0  0  0  0  0
    2.1434    2.0625    0.0000 C   0  0  0  0  0  0  0  0  0  0  0  0
    6.4302    1.2375    0.0000 C   0  0  0  0  0  0  0  0  0  0  0  0
    6.4302    2.0625    0.0000 C   0  0  0  0  0  0  0  0  0  0  0  0
    5.7158    0.8250    0.0000 C   0  0  0  0  0  0  0  0  0  0  0  0
    3.1599   -0.0320    0.0000 C   0  0  0  0  0  0  0  0  0  0  0  0
    3.9849   -0.0320    0.0000 C   0  0  0  0  0  0  0  0  0  0  0  0
    2.8579    2.4750    0.0000 C   0  0  0  0  0  0  0  0  0  0  0  0
    5.7158    2.4750    0.0000 C   0  0  0  0  0  0  0  0  0  0  0  0
    5.0013    1.2375    0.0000 C   0  0  0  0  0  0  0  0  0  0  0  0
    2.9049    0.7526    0.0000 C   0  0  0  0  0  0  0  0  0  0  0  0
    4.2398    0.7526    0.0000 C   0  0  0  0  0  0  0  0  0  0  0  0
    4.2868    2.4750    0.0000 C   0  0  0  0  0  0  0  0  0  0  0  0
    5.0013    2.0625    0.0000 C   0  0  0  0  0  0  0  0  0  0  0  0
    3.5724    2.0625    0.0000 C   0  0  0  0  0  0  0  0  0  0  0  0
    3.5724    1.2375    0.0000 N   0  0  0  0  0  0  0  0  0  0  0  0
  2  1  1  0
  4  3  2  0
  5  3  1  0
  7  6  1  0
  8  2  1  0
  9  4  1  0
 10  5  2  0
 11  6  1  0
 12  7  1  0
 14  9  2  0
 14 10  1  0
 14 13  1  0
 15  8  1  0
 15 13  1  0
 16 11  1  0
 16 12  1  0
 16 15  1  0
M  END
>  <DRUGBANK_ID>  (1) 
DB13438

>  <COMMON_NAME>  (1) 
Prolintane

>  <CAS_NUMBER>  (1) 
493-92-5

>  <UNII>  (1) 
EM4YZW677H

>  <SYNONYMS>  (1) 
Prolintane

$$$$
