
     RDKit          2D

 32 35  0  0  0  0  0  0  0  0999 V2000
    4.0668    3.1729    0.0000 C   0  0  0  0  0  0  0  0  0  0  0  0
    4.7812    3.5854    0.0000 C   0  0  0  0  0  0  0  0  0  0  0  0
    5.4957    3.1729    0.0000 C   0  0  0  0  0  0  0  0  0  0  0  0
    5.4957    2.3479    0.0000 C   0  0  0  0  0  0  0  0  0  0  0  0
    4.7812    1.9354    0.0000 C   0  0  0  0  0  0  0  0  0  0  0  0
    4.0668    2.3479    0.0000 C   0  0  0  0  0  0  0  0  0  0  0  0
    3.3523    1.9354    0.0000 C   0  0  0  0  0  0  0  0  0  0  0  0
    3.3523    1.1104    0.0000 C   0  0  0  0  0  0  0  0  0  0  0  0
    2.6378    0.6979    0.0000 C   0  0  0  0  0  0  0  0  0  0  0  0
    1.9233    1.1104    0.0000 N   0  0  0  0  0  0  0  0  0  0  0  0
    1.9233    1.9354    0.0000 C   0  0  0  0  0  0  0  0  0  0  0  0
    2.6378    2.3479    0.0000 N   0  0  0  0  0  0  0  0  0  0  0  0
    1.1387    2.1904    0.0000 C   0  0  0  0  0  0  0  0  0  0  0  0
    0.6538    1.5229    0.0000 C   0  0  0  0  0  0  0  0  0  0  0  0
    1.1387    0.8555    0.0000 N   0  0  0  0  0  0  0  0  0  0  0  0
    0.8838    2.9750    0.0000 C   0  0  0  0  0  0  0  0  0  0  0  0
    0.6288    3.7596    0.0000 C   0  0  0  0  0  0  0  0  0  0  0  0
    0.3739    4.5442    0.0000 C   0  0  0  0  0  0  0  0  0  0  0  0
   -0.4331    4.7158    0.0000 C   0  0  0  0  0  0  0  0  0  0  0  0
   -0.6880    5.5004    0.0000 C   0  0  0  0  0  0  0  0  0  0  0  0
   -0.1360    6.1135    0.0000 C   0  0  0  0  0  0  0  0  0  0  0  0
    0.6710    5.9420    0.0000 N   0  0  0  0  0  0  0  0  0  0  0  0
    0.9259    5.1573    0.0000 C   0  0  0  0  0  0  0  0  0  0  0  0
   -0.3909    6.8981    0.0000 N   0  0  0  0  0  0  0  0  0  0  0  0
    2.6378   -0.1271    0.0000 C   0  0  0  0  0  0  0  0  0  0  0  0
    2.6378   -0.9521    0.0000 F   0  0  0  0  0  0  0  0  0  0  0  0
    1.8128   -0.1271    0.0000 F   0  0  0  0  0  0  0  0  0  0  0  0
    3.4628   -0.1271    0.0000 F   0  0  0  0  0  0  0  0  0  0  0  0
    6.2102    3.5854    0.0000 C   0  0  0  0  0  0  0  0  0  0  0  0
    6.9246    3.9979    0.0000 F   0  0  0  0  0  0  0  0  0  0  0  0
    6.6227    2.8710    0.0000 F   0  0  0  0  0  0  0  0  0  0  0  0
    5.7977    4.2999    0.0000 F   0  0  0  0  0  0  0  0  0  0  0  0
  1  2  2  0
  1  6  1  0
  2  3  1  0
  3  4  2  0
  3 29  1  0
  4  5  1  0
  5  6  2  0
  6  7  1  0
  7  8  1  0
  7 12  2  0
  8  9  2  0
  9 10  1  0
  9 25  1  0
 10 11  1  0
 10 15  1  0
 11 12  1  0
 11 13  2  0
 13 14  1  0
 13 16  1  0
 14 15  2  0
 16 17  3  0
 17 18  1  0
 18 19  2  0
 18 23  1  0
 19 20  1  0
 20 21  2  0
 21 22  1  0
 21 24  1  0
 22 23  2  0
 25 26  1  0
 25 27  1  0
 25 28  1  0
 29 30  1  0
 29 31  1  0
 29 32  1  0
M  END
>  <DRUGBANK_ID>  (1) 
DB11923

>  <COMMON_NAME>  (1) 
Decoglurant

>  <CAS_NUMBER>  (1) 
911115-16-7

>  <UNII>  (1) 
5VX4P0JKC5

>  <SYNONYMS>  (1) 
Decoglurant

$$$$
