4HG
     RDKit          2D

 19 20  0  0  0  0  0  0  0  0999 V2000
   -1.0203   -2.2504    0.0000 C   0  0  0  0  0  0  0  0  0  0  0  0
   -1.7348   -1.8379    0.0000 C   0  0  0  0  0  0  0  0  0  0  0  0
   -1.7348   -1.0129    0.0000 C   0  0  0  0  0  0  0  0  0  0  0  0
   -0.3058   -1.8379    0.0000 C   0  0  0  0  0  0  0  0  0  0  0  0
   -0.3058   -1.0129    0.0000 C   0  0  0  0  0  0  0  0  0  0  0  0
   -1.0203   -0.6004    0.0000 C   0  0  0  0  0  0  0  0  0  0  0  0
   -1.0203    0.2246    0.0000 C   0  0  0  0  0  0  0  0  0  0  0  0
   -0.3058    0.6371    0.0000 N   0  0  0  0  0  0  0  0  0  0  0  0
    0.4087    0.2246    0.0000 C   0  0  0  0  0  0  0  0  0  0  0  0
    0.4087   -0.6004    0.0000 C   0  0  0  0  0  0  0  0  0  0  0  0
   -2.4492   -0.6004    0.0000 I   0  0  0  0  0  0  0  0  0  0  0  0
    1.1231   -1.0129    0.0000 O   0  0  0  0  0  0  0  0  0  0  0  0
    1.1231    0.6371    0.0000 C   0  0  0  0  0  0  0  0  0  0  0  0
    2.5521    0.6371    0.0000 C   0  0  0  0  0  0  0  0  0  0  0  0
    3.2665    0.2246    0.0000 C   0  0  0  0  0  0  0  0  0  0  0  0
    3.9810    0.6371    0.0000 O   0  0  0  0  0  0  0  0  0  0  0  0
    1.1231    1.4621    0.0000 O   0  0  0  0  0  0  0  0  0  0  0  0
    3.2665   -0.6004    0.0000 O   0  0  0  0  0  0  0  0  0  0  0  0
    1.8376    0.2246    0.0000 N   0  0  0  0  0  0  0  0  0  0  0  0
  1  2  2  0
  1  4  1  0
  2  3  1  0
  3  6  2  0
  3 11  1  0
  4  5  2  0
  5  6  1  0
  5 10  1  0
  6  7  1  0
  7  8  2  0
  8  9  1  0
  9 10  2  0
  9 13  1  0
 10 12  1  0
 13 17  2  0
 13 19  1  0
 14 15  1  0
 14 19  1  0
 15 16  1  0
 15 18  2  0
M  END
>  <DRUGBANK_ID>  (1) 
DB07112

>  <COMMON_NAME>  (1) 
N-[(4-HYDROXY-8-IODOISOQUINOLIN-3-YL)CARBONYL]GLYCINE

$$$$
