
     RDKit          2D

 24 28  0  0  0  0  0  0  0  0999 V2000
    4.2135    2.2896    0.0000 C   0  0  0  0  0  0  0  0  0  0  0  0
    3.4289    2.5446    0.0000 C   0  0  0  0  0  0  0  0  0  0  0  0
    2.8158    1.9925    0.0000 C   0  0  0  0  0  0  0  0  0  0  0  0
    2.0088    2.1641    0.0000 C   0  0  0  0  0  0  0  0  0  0  0  0
    1.5963    1.4496    0.0000 C   0  0  0  0  0  0  0  0  0  0  0  0
    2.1483    0.8365    0.0000 N   0  0  0  0  0  0  0  0  0  0  0  0
    2.9020    1.1720    0.0000 N   0  0  0  0  0  0  0  0  0  0  0  0
    1.9768    0.0295    0.0000 C   0  0  0  0  0  0  0  0  0  0  0  0
    2.5288   -0.5836    0.0000 C   0  0  0  0  0  0  0  0  0  0  0  0
    2.1163   -1.2980    0.0000 C   0  0  0  0  0  0  0  0  0  0  0  0
    1.3094   -1.1265    0.0000 C   0  0  0  0  0  0  0  0  0  0  0  0
    1.2231   -0.3060    0.0000 C   0  0  0  0  0  0  0  0  0  0  0  0
    0.7713    1.4496    0.0000 C   0  0  0  0  0  0  0  0  0  0  0  0
    0.2193    0.8365    0.0000 N   0  0  0  0  0  0  0  0  0  0  0  0
   -0.5344    1.1720    0.0000 N   0  0  0  0  0  0  0  0  0  0  0  0
   -0.4482    1.9925    0.0000 C   0  0  0  0  0  0  0  0  0  0  0  0
    0.3588    2.1641    0.0000 N   0  0  0  0  0  0  0  0  0  0  0  0
    0.7713    2.8785    0.0000 C   0  0  0  0  0  0  0  0  0  0  0  0
    1.5963    2.8785    0.0000 C   0  0  0  0  0  0  0  0  0  0  0  0
   -1.0613    2.5446    0.0000 C   0  0  0  0  0  0  0  0  0  0  0  0
   -1.8682    2.3730    0.0000 C   0  0  0  0  0  0  0  0  0  0  0  0
   -2.2807    3.0875    0.0000 C   0  0  0  0  0  0  0  0  0  0  0  0
   -1.7287    3.7006    0.0000 C   0  0  0  0  0  0  0  0  0  0  0  0
   -0.9750    3.3650    0.0000 S   0  0  0  0  0  0  0  0  0  0  0  0
  1  2  1  0
  2  3  1  0
  3  4  1  0
  3  7  2  0
  4  5  2  0
  4 19  1  0
  5  6  1  0
  5 13  1  0
  6  7  1  0
  6  8  1  0
  8  9  1  0
  8 12  1  0
  9 10  1  0
 10 11  1  0
 11 12  1  0
 13 14  2  0
 13 17  1  0
 14 15  1  0
 15 16  2  0
 16 17  1  0
 16 20  1  0
 17 18  1  0
 18 19  1  0
 20 21  2  0
 20 24  1  0
 21 22  1  0
 22 23  2  0
 23 24  1  0
M  END
>  <DRUGBANK_ID>  (1) 
DB11681

>  <COMMON_NAME>  (1) 
Tofimilast

>  <CAS_NUMBER>  (1) 
185954-27-2

>  <UNII>  (1) 
5D7022962A

>  <SYNONYMS>  (1) 
Tofimilast

$$$$
