
     RDKit          2D

  4  3  0  0  0  0  0  0  0  0999 V2000
    0.6185    0.7142    0.0000 O   0  0  0  0  0  0  0  0  0  0  0  0
    0.2056    0.0000    0.0000 Mo  0  0  0  0  0  4  0  0  0  0  0  0
    0.6185   -0.7142    0.0000 O   0  0  0  0  0  0  0  0  0  0  0  0
   -0.6185    0.0000    0.0000 O   0  0  0  0  0  0  0  0  0  0  0  0
  1  2  1  0
  2  3  1  0
  2  4  2  0
M  CHG  1   2   6
M  END
>  <DRUGBANK_ID>  (1) 
DB04494

>  <SECONDARY_ACCESSION_NUMBERS>  (1) 
EXPT02435

>  <COMMON_NAME>  (1) 
Dihydroxy(oxo)molybdenum(6+)

$$$$
