
     RDKit          2D

 42 44  0  0  1  0  0  0  0  0999 V2000
   -1.4521    4.0399    0.0000 C   0  0  0  0  0  0  0  0  0  0  0  0
   -7.1817   -0.3703    0.0000 C   0  0  0  0  0  0  0  0  0  0  0  0
   -4.4838    3.5100    0.0000 C   0  0  0  0  0  0  0  0  0  0  0  0
    0.6914    3.6274    0.0000 C   0  0  0  0  0  0  0  0  0  0  0  0
    4.9782    1.1524    0.0000 C   0  0  0  0  0  0  0  0  0  0  0  0
   -2.3541    1.0173    0.0000 C   0  0  0  0  0  0  0  0  0  0  0  0
   -0.7376    3.6274    0.0000 C   0  0  0  0  0  0  0  0  0  0  0  0
   -5.3491   -0.4985    0.0000 C   0  0  0  0  0  0  0  0  0  0  0  0
   -2.1665    3.6274    0.0000 C   0  0  0  0  0  0  0  0  0  0  0  0
   -6.3886   -0.1429    0.0000 C   0  0  0  0  0  0  0  0  0  0  0  0
   -4.7387    2.7254    0.0000 C   0  0  0  0  0  0  0  0  0  0  0  0
    1.4058    2.3899    0.0000 C   0  0  0  0  0  0  0  0  0  0  0  0
    4.2637    2.3899    0.0000 C   0  0  0  0  0  0  0  0  0  0  0  0
    2.1203    2.8024    0.0000 C   0  0  0  0  0  0  0  0  0  0  0  0
    3.5492    2.8024    0.0000 C   0  0  0  0  0  0  0  0  0  0  0  0
   -5.6078    1.9630    0.0000 C   0  0  0  0  0  0  0  0  0  0  0  0
   -6.2753    1.4780    0.0000 C   0  0  0  0  0  0  0  0  0  0  0  0
   -3.7742    1.3979    0.0000 C   0  0  0  0  0  0  0  0  0  0  0  0
    0.6914    2.8024    0.0000 C   0  0  0  0  0  0  0  0  0  0  0  0
    4.2637    1.5649    0.0000 C   0  0  0  0  0  0  0  0  0  0  0  0
   -2.9672    1.5694    0.0000 C   0  0  0  0  0  0  0  0  0  0  0  0
   -0.7376    2.8024    0.0000 C   0  0  0  0  0  0  0  0  0  0  0  0
   -5.4354    0.3220    0.0000 C   0  0  0  0  0  0  0  0  0  0  0  0
    2.8348    2.3899    0.0000 C   0  0  0  0  0  0  0  0  0  0  0  0
   -2.1665    2.8024    0.0000 C   0  0  0  0  0  0  0  0  0  0  0  0
   -4.8541    1.6274    0.0000 C   0  0  0  0  0  0  0  0  0  0  0  0
    2.8348    1.5649    0.0000 C   0  0  0  0  0  0  0  0  0  0  0  0
   -0.0231    2.3899    0.0000 C   0  0  0  0  0  0  0  0  0  0  0  0
    3.5492    1.1524    0.0000 C   0  0  0  0  0  0  0  0  0  0  0  0
   -1.4521    2.3899    0.0000 C   0  0  0  0  0  0  0  0  0  0  0  0
   -2.8810    2.3899    0.0000 C   0  0  0  0  0  0  0  0  0  0  0  0
    2.1203    1.1524    0.0000 C   0  0  0  0  0  0  0  0  0  0  0  0
   -6.1890    0.6576    0.0000 C   0  0  0  0  0  0  0  0  0  0  0  0
   -4.1867    2.1123    0.0000 C   0  0  0  0  0  0  0  0  0  0  0  0
   -0.0231    1.5649    0.0000 O   0  0  0  0  0  0  0  0  0  0  0  0
    3.5492    0.3274    0.0000 O   0  0  0  0  0  0  0  0  0  0  0  0
   -1.4521    1.5649    0.0000 O   0  0  0  0  0  0  0  0  0  0  0  0
    2.1203    0.3274    0.0000 O   0  0  0  0  0  0  0  0  0  0  0  0
    1.4058    1.5649    0.0000 O   0  0  0  0  0  0  0  0  0  0  0  0
   -7.0120    0.7151    0.0000 O   0  0  0  0  0  0  0  0  0  0  0  0
   -4.7679    0.8069    0.0000 O   0  0  0  0  0  0  0  0  0  0  0  0
   -3.6347    2.7254    0.0000 O   0  0  0  0  0  0  0  0  0  0  0  0
  9  1  1  0
 10  2  1  0
 11  3  1  0
 14 12  1  0
 15 13  2  0
 17 16  1  0
 19  4  1  6
 19 12  1  0
 20  5  1  0
 20 13  1  0
 21  6  1  1
 21 18  1  0
 22  7  1  1
 23  8  1  1
 24 14  1  0
 24 15  1  0
 25  9  1  1
 25 30  1  0
 26 16  1  6
 26 34  1  0
 27 24  2  0
 28 19  1  0
 28 22  1  0
 28 35  1  6
 29 20  2  0
 29 27  1  0
 30 22  1  0
 31 21  1  0
 31 25  1  0
 32 27  1  0
 33 10  1  0
 33 17  1  0
 33 23  1  0
 33 40  1  6
 34 11  1  6
 34 18  1  0
 36 29  1  0
 37 30  2  0
 38 32  2  0
 39 32  1  0
 41 23  1  0
 41 26  1  0
 31 42  1  6
 42 34  1  0
M  END
>  <DRUGBANK_ID>  (1) 
DB11423

>  <COMMON_NAME>  (1) 
Lasalocid

>  <CAS_NUMBER>  (1) 
25999-31-9

>  <UNII>  (1) 
W7V2ZZ2FWB

>  <SYNONYMS>  (1) 
Lasalocid

$$$$
