
     RDKit          2D

 35 39  0  0  0  0  0  0  0  0999 V2000
   -0.7577   -1.9837    0.0000 C   0  0  0  0  0  0  0  0  0  0  0  0
   -0.7577   -1.1587    0.0000 C   0  0  0  0  0  0  0  0  0  0  0  0
   -2.1867   -1.9837    0.0000 C   0  0  0  0  0  0  0  0  0  0  0  0
   -1.4722   -2.3962    0.0000 C   0  0  0  0  0  0  0  0  0  0  0  0
   -1.4722   -0.7462    0.0000 C   0  0  0  0  0  0  0  0  0  0  0  0
   -2.1867   -1.1587    0.0000 C   0  0  0  0  0  0  0  0  0  0  0  0
   -3.6156   -1.1587    0.0000 C   0  0  0  0  0  0  0  0  0  0  0  0
   -3.6156   -1.9837    0.0000 C   0  0  0  0  0  0  0  0  0  0  0  0
   -2.9011   -2.3962    0.0000 C   0  0  0  0  0  0  0  0  0  0  0  0
   -2.9011   -0.7462    0.0000 C   0  0  0  0  0  0  0  0  0  0  0  0
   -0.7577    0.4913    0.0000 C   0  0  0  0  0  0  0  0  0  0  0  0
   -1.4722    0.0787    0.0000 C   0  0  0  0  0  0  0  0  0  0  0  0
    0.7413   -1.0010    0.0000 C   0  0  0  0  0  0  0  0  0  0  0  0
    1.2262   -0.3337    0.0000 C   0  0  0  0  0  0  0  0  0  0  0  0
    0.7413    0.3337    0.0000 C   0  0  0  0  0  0  0  0  0  0  0  0
   -4.3301   -2.3962    0.0000 O   0  0  0  0  0  0  0  0  0  0  0  0
   -1.4722   -1.5712    0.0000 Cl  0  0  0  0  0  0  0  0  0  0  0  0
   -0.0433    0.0787    0.0000 C   0  0  0  0  0  0  0  0  0  0  0  0
   -0.0433    0.9038    0.0000 C   0  0  0  0  0  0  0  0  0  0  0  0
   -0.0433   -0.7462    0.0000 C   0  0  0  0  0  0  0  0  0  0  0  0
   -2.1867   -0.3337    0.0000 C   0  0  0  0  0  0  0  0  0  0  0  0
   -2.1867    0.4913    0.0000 O   0  0  0  0  0  0  0  0  0  0  0  0
    2.0512   -0.3337    0.0000 C   0  0  0  0  0  0  0  0  0  0  0  0
    0.7413    1.1587    0.0000 C   0  0  0  0  0  0  0  0  0  0  0  0
    1.4558    1.5712    0.0000 C   0  0  0  0  0  0  0  0  0  0  0  0
    0.0268    1.5712    0.0000 O   0  0  0  0  0  0  0  0  0  0  0  0
    1.4558    2.3962    0.0000 Cl  0  0  0  0  0  0  0  0  0  0  0  0
    1.5663    0.3337    0.0000 O   0  0  0  0  0  0  0  0  0  0  0  0
    2.2808    0.7462    0.0000 C   0  0  0  0  0  0  0  0  0  0  0  0
    2.2808    1.5712    0.0000 O   0  0  0  0  0  0  0  0  0  0  0  0
    2.9952    0.3337    0.0000 C   0  0  0  0  0  0  0  0  0  0  0  0
    3.6627    0.8186    0.0000 O   0  0  0  0  0  0  0  0  0  0  0  0
    3.2502   -0.4508    0.0000 C   0  0  0  0  0  0  0  0  0  0  0  0
    4.0752   -0.4508    0.0000 C   0  0  0  0  0  0  0  0  0  0  0  0
    4.3301    0.3337    0.0000 C   0  0  0  0  0  0  0  0  0  0  0  0
  2  1  1  6
  2  5  1  0
  3  4  1  0
  4  1  1  0
  5 12  1  0
  5 17  1  6
  5  6  1  0
  6  3  1  0
  6 10  1  0
  6 21  1  1
  7  8  1  0
  7 10  2  0
  8  9  1  0
  8 16  2  0
  9  3  2  0
 11 12  1  0
 12 22  1  1
 13 14  1  0
 14 23  1  6
 15 14  1  0
 15 24  1  0
 15 28  1  6
 18 11  1  0
 18 15  1  0
 18 19  1  1
 20  2  1  0
 20 13  1  1
 20 18  1  0
 24 25  1  0
 24 26  2  0
 25 27  1  0
 28 29  1  0
 29 30  2  0
 29 31  1  0
 31 33  2  0
 32 31  1  0
 32 35  1  0
 33 34  1  0
 34 35  2  0
M  END
>  <DRUGBANK_ID>  (1) 
DB14512

>  <SECONDARY_ACCESSION_NUMBERS>  (1) 
DBSALT002454

>  <COMMON_NAME>  (1) 
Mometasone furoate

>  <CAS_NUMBER>  (1) 
83919-23-7

>  <UNII>  (1) 
04201GDN4R

>  <SYNONYMS>  (1) 
Mometasone furoate; Mometasone furoate anhydrous

$$$$
