
     RDKit          2D

 32 36  0  0  1  0  0  0  0  0999 V2000
    5.4957   -1.5229    0.0000 C   0  0  0  0  0  0  0  0  0  0  0  0
    4.7812   -0.2854    0.0000 C   0  0  0  0  0  0  0  0  0  0  0  0
    6.2102   -1.1104    0.0000 C   0  0  0  0  0  0  0  0  0  0  0  0
    5.4957    0.1271    0.0000 C   0  0  0  0  0  0  0  0  0  0  0  0
    0.0992   -2.4049    0.0000 C   0  0  0  0  0  0  0  0  0  0  0  0
    0.0992   -3.2299    0.0000 C   0  0  0  0  0  0  0  0  0  0  0  0
   -0.5837    1.4455    0.0000 C   0  0  0  0  0  0  0  0  0  0  0  0
   -1.8212    0.7310    0.0000 C   0  0  0  0  0  0  0  0  0  0  0  0
    2.6378    0.1271    0.0000 C   0  0  0  0  0  0  0  0  0  0  0  0
    1.3687   -2.8174    0.0000 C   0  0  0  0  0  0  0  0  0  0  0  0
   -1.4087    1.4455    0.0000 C   0  0  0  0  0  0  0  0  0  0  0  0
    4.7812   -1.1104    0.0000 C   0  0  0  0  0  0  0  0  0  0  0  0
    0.8838   -2.1500    0.0000 C   0  0  0  0  0  0  0  0  0  0  0  0
    6.2102   -0.2854    0.0000 C   0  0  0  0  0  0  0  0  0  0  0  0
   -0.1712    0.7310    0.0000 C   0  0  0  0  0  0  0  0  0  0  0  0
   -1.4087    0.0165    0.0000 C   0  0  0  0  0  0  0  0  0  0  0  0
    1.9233   -0.2854    0.0000 C   0  0  0  0  0  0  0  0  0  0  0  0
   -0.5837    0.0165    0.0000 C   0  0  0  0  0  0  0  0  0  0  0  0
    1.9233   -1.1104    0.0000 C   0  0  0  0  0  0  0  0  0  0  0  0
    3.3523   -1.1104    0.0000 C   0  0  0  0  0  0  0  0  0  0  0  0
    0.6538   -0.6979    0.0000 C   0  0  0  0  0  0  0  0  0  0  0  0
   -1.8212    2.1599    0.0000 F   0  0  0  0  0  0  0  0  0  0  0  0
    0.6538    0.7310    0.0000 F   0  0  0  0  0  0  0  0  0  0  0  0
   -1.8212   -0.6979    0.0000 F   0  0  0  0  0  0  0  0  0  0  0  0
    3.3523   -0.2854    0.0000 N   0  0  0  0  0  0  0  0  0  0  0  0
    4.0668   -1.5229    0.0000 N   0  0  0  0  0  0  0  0  0  0  0  0
    1.1387   -0.0305    0.0000 N   0  0  0  0  0  0  0  0  0  0  0  0
   -0.1712   -0.6979    0.0000 N   0  0  0  0  0  0  0  0  0  0  0  0
    2.6378   -1.5229    0.0000 N   0  0  0  0  0  0  0  0  0  0  0  0
    1.1387   -1.3654    0.0000 N   0  0  0  0  0  0  0  0  0  0  0  0
    6.9246    0.1271    0.0000 O   0  0  0  0  0  0  0  0  0  0  0  0
    0.8838   -3.4849    0.0000 O   0  0  0  0  0  0  0  0  0  0  0  0
  3  1  1  0
  4  2  1  0
  6  5  1  0
 11  7  2  0
 11  8  1  0
 12  1  1  0
 12  2  1  0
 12 26  1  6
 13  5  1  0
 13 10  1  0
 13 30  1  6
 14  3  1  0
 14  4  1  0
 14 31  1  1
 15  7  1  0
 16  8  2  0
 17  9  2  0
 18 15  2  0
 18 16  1  0
 19 17  1  0
 22 11  1  0
 23 15  1  0
 24 16  1  0
 25  9  1  0
 25 20  2  0
 26 20  1  0
 27 17  1  0
 27 21  2  0
 28 18  1  0
 28 21  1  0
 29 19  2  0
 29 20  1  0
 30 19  1  0
 30 21  1  0
 32  6  1  0
 32 10  1  0
M  END
>  <DRUGBANK_ID>  (1) 
DB11798

>  <COMMON_NAME>  (1) 
Tanzisertib

>  <CAS_NUMBER>  (1) 
899805-25-5

>  <UNII>  (1) 
M5O06306UO

>  <SYNONYMS>  (1) 
4-[[9-(3S)-tetrahydro-3-furanyl]-8-[(2,4,6-trifluorophenyl)amino]-9H-purin-2-yl]amino]-trans-cyclohexanol; CYCLOHEXANOL, 4-((9-((3S)-TETRAHYDRO-3-FURANYL)-8-((2,4,6-TRIFLUOROPHENYL)AMINO)-9H-PURIN-2-YL)AMINO)-, TRANS-; Tanzisertib; TRANS-4-((9-((3S)-TETRAHYDROFURAN-3-YL)-8-((2,4,6-TRIFLUOROPHENYL)AMINO)-9H-PURIN-2- YL)AMINO)CYCLOHEXANOL

$$$$
