
     RDKit          2D

 14 15  0  0  0  0  0  0  0  0999 V2000
   -2.5828   -0.5618    0.0000 C   0  0  0  0  0  0  0  0  0  0  0  0
   -1.8291   -0.8974    0.0000 C   0  0  0  0  0  0  0  0  0  0  0  0
   -1.1617   -0.4125    0.0000 C   0  0  0  0  0  0  0  0  0  0  0  0
   -1.1617    0.4125    0.0000 C   0  0  0  0  0  0  0  0  0  0  0  0
   -1.8291    0.8974    0.0000 O   0  0  0  0  0  0  0  0  0  0  0  0
   -0.3770    0.6674    0.0000 N   0  0  0  0  0  0  0  0  0  0  0  0
    0.1078    0.0000    0.0000 C   0  0  0  0  0  0  0  0  0  0  0  0
   -0.3770   -0.6674    0.0000 S   0  0  0  0  0  0  0  0  0  0  0  0
    0.5203    0.7144    0.0000 C   0  0  0  0  0  0  0  0  0  0  0  0
    1.3453    0.7144    0.0000 C   0  0  0  0  0  0  0  0  0  0  0  0
    1.7578    0.0000    0.0000 N   0  0  0  0  0  0  0  0  0  0  0  0
    1.3453   -0.7144    0.0000 C   0  0  0  0  0  0  0  0  0  0  0  0
    0.5203   -0.7144    0.0000 C   0  0  0  0  0  0  0  0  0  0  0  0
    2.5828    0.0000    0.0000 C   0  0  0  0  0  0  0  0  0  0  0  0
  1  2  1  0
  3  2  1  1
  3  4  1  0
  3  8  1  0
  4  5  2  0
  4  6  1  0
  6  7  1  0
  7  8  1  0
  7  9  1  0
  7 13  1  0
  9 10  1  0
 10 11  1  0
 11 12  1  0
 11 14  1  0
 12 13  1  0
M  END
>  <DRUGBANK_ID>  (1) 
DB05152

>  <COMMON_NAME>  (1) 
NGX267

>  <CAS_NUMBER>  (1) 
503431-81-0

>  <UNII>  (1) 
8D3PZX7G73

$$$$
