
     RDKit          2D

 21 24  0  0  1  0  0  0  0  0999 V2000
   -6.8343    1.0273    0.0000 C   0  0  0  0  0  0  0  0  0  0  0  0
   -6.4218    1.7418    0.0000 C   0  0  0  0  0  0  0  0  0  0  0  0
   -5.5968    1.7418    0.0000 C   0  0  0  0  0  0  0  0  0  0  0  0
   -5.0448    2.3549    0.0000 C   0  0  0  0  0  0  0  0  0  0  0  0
   -4.2911    2.0193    0.0000 C   0  0  0  0  0  0  0  0  0  0  0  0
   -4.3774    1.1988    0.0000 S   0  0  0  0  0  0  0  0  0  0  0  0
   -5.1843    1.0273    0.0000 C   0  0  0  0  0  0  0  0  0  0  0  0
   -5.5968    0.3128    0.0000 C   0  0  0  0  0  0  0  0  0  0  0  0
   -6.4218    0.3128    0.0000 C   0  0  0  0  0  0  0  0  0  0  0  0
   -5.1843   -0.4017    0.0000 Cl  0  0  0  0  0  0  0  0  0  0  0  0
   -3.5767    2.4318    0.0000 C   0  0  0  0  0  0  0  0  0  0  0  0
   -2.8622    2.0193    0.0000 O   0  0  0  0  0  0  0  0  0  0  0  0
   -3.5767    3.2568    0.0000 N   0  0  0  0  0  0  0  0  0  0  0  0
   -2.8622    3.6693    0.0000 C   0  0  0  0  0  0  0  0  0  0  0  0
   -2.8622    4.4943    0.0000 C   0  0  0  0  0  0  0  0  0  0  0  0
   -2.1477    4.9068    0.0000 N   0  0  0  0  0  0  0  0  0  0  0  0
   -1.4332    4.4943    0.0000 C   0  0  0  0  0  0  0  0  0  0  0  0
   -1.4332    3.6693    0.0000 C   0  0  0  0  0  0  0  0  0  0  0  0
   -2.1477    3.2568    0.0000 C   0  0  0  0  0  0  0  0  0  0  0  0
   -2.0102    3.8068    0.0000 C   0  0  0  0  0  0  0  0  0  0  0  0
   -2.0102    4.3568    0.0000 C   0  0  0  0  0  0  0  0  0  0  0  0
  1  2  1  0
  1  9  2  0
  2  3  2  0
  3  4  1  0
  3  7  1  0
  4  5  2  0
  5  6  1  0
  5 11  1  0
  6  7  1  0
  7  8  2  0
  8  9  1  0
  8 10  1  0
 11 12  2  0
 11 13  1  0
 14 13  1  1
 14 15  1  0
 14 19  1  0
 15 16  1  0
 16 17  1  0
 16 21  1  0
 17 18  1  0
 18 19  1  0
 19 20  1  0
 20 21  1  0
M  END
>  <DRUGBANK_ID>  (1) 
DB11726

>  <SECONDARY_ACCESSION_NUMBERS>  (1) 
DB06341

>  <COMMON_NAME>  (1) 
Encenicline

>  <CAS_NUMBER>  (1) 
550999-75-2

>  <UNII>  (1) 
5FI5376A0X

>  <SYNONYMS>  (1) 
Encenicline

$$$$
