697
     RDKit          2D

 19 21  0  0  0  0  0  0  0  0999 V2000
   -2.8062    0.0140    0.0000 C   0  0  0  0  0  0  0  0  0  0  0  0
   -2.3937    0.7284    0.0000 C   0  0  0  0  0  0  0  0  0  0  0  0
   -1.5687    0.7284    0.0000 C   0  0  0  0  0  0  0  0  0  0  0  0
   -1.1562    0.0140    0.0000 C   0  0  0  0  0  0  0  0  0  0  0  0
   -1.5687   -0.7005    0.0000 C   0  0  0  0  0  0  0  0  0  0  0  0
   -2.3937   -0.7005    0.0000 C   0  0  0  0  0  0  0  0  0  0  0  0
   -3.6312    0.0140    0.0000 O   0  0  0  0  0  0  0  0  0  0  0  0
   -0.3312    0.0140    0.0000 C   0  0  0  0  0  0  0  0  0  0  0  0
    0.1537   -0.6535    0.0000 C   0  0  0  0  0  0  0  0  0  0  0  0
    0.9383   -0.3985    0.0000 C   0  0  0  0  0  0  0  0  0  0  0  0
    0.9383    0.4265    0.0000 C   0  0  0  0  0  0  0  0  0  0  0  0
    0.1537    0.6814    0.0000 O   0  0  0  0  0  0  0  0  0  0  0  0
    1.6528   -0.8110    0.0000 C   0  0  0  0  0  0  0  0  0  0  0  0
    2.3672   -0.3985    0.0000 C   0  0  0  0  0  0  0  0  0  0  0  0
    2.3672    0.4265    0.0000 C   0  0  0  0  0  0  0  0  0  0  0  0
    1.6528    0.8390    0.0000 C   0  0  0  0  0  0  0  0  0  0  0  0
    3.0817   -0.8110    0.0000 O   0  0  0  0  0  0  0  0  0  0  0  0
    1.6528    1.6640    0.0000 C   0  0  0  0  0  0  0  0  0  0  0  0
    1.6528    2.4890    0.0000 N   0  0  0  0  0  0  0  0  0  0  0  0
  1  2  2  0
  1  6  1  0
  1  7  1  0
  2  3  1  0
  3  4  2  0
  4  5  1  0
  4  8  1  0
  5  6  2  0
  8  9  2  0
  8 12  1  0
  9 10  1  0
 10 11  2  0
 10 13  1  0
 11 12  1  0
 11 16  1  0
 13 14  2  0
 14 15  1  0
 14 17  1  0
 15 16  2  0
 16 18  1  0
 18 19  3  0
M  END
>  <DRUGBANK_ID>  (1) 
DB07198

>  <COMMON_NAME>  (1) 
5-HYDROXY-2-(4-HYDROXYPHENYL)-1-BENZOFURAN-7-CARBONITRILE

$$$$
