JJ3
     RDKit          2D

 24 27  0  0  0  0  0  0  0  0999 V2000
   -1.7465   -1.8434    0.0000 C   0  0  0  0  0  0  0  0  0  0  0  0
   -2.1365   -1.1164    0.0000 C   0  0  0  0  0  0  0  0  0  0  0  0
   -1.7019   -0.4152    0.0000 C   0  0  0  0  0  0  0  0  0  0  0  0
   -0.8773   -0.4410    0.0000 C   0  0  0  0  0  0  0  0  0  0  0  0
   -0.4427    0.2603    0.0000 O   0  0  0  0  0  0  0  0  0  0  0  0
    0.3819    0.2345    0.0000 C   0  0  0  0  0  0  0  0  0  0  0  0
    0.7719   -0.4925    0.0000 C   0  0  0  0  0  0  0  0  0  0  0  0
    1.5731   -0.6891    0.0000 C   0  0  0  0  0  0  0  0  0  0  0  0
    1.6337   -1.5119    0.0000 C   0  0  0  0  0  0  0  0  0  0  0  0
    0.8699   -1.8238    0.0000 C   0  0  0  0  0  0  0  0  0  0  0  0
    0.3373   -1.1937    0.0000 C   0  0  0  0  0  0  0  0  0  0  0  0
   -0.4873   -1.1680    0.0000 C   0  0  0  0  0  0  0  0  0  0  0  0
   -0.9219   -1.8692    0.0000 C   0  0  0  0  0  0  0  0  0  0  0  0
    0.8165    0.9358    0.0000 C   0  0  0  0  0  0  0  0  0  0  0  0
    0.4265    1.6628    0.0000 C   0  0  0  0  0  0  0  0  0  0  0  0
    0.8611    2.3640    0.0000 C   0  0  0  0  0  0  0  0  0  0  0  0
    1.6857    2.3382    0.0000 C   0  0  0  0  0  0  0  0  0  0  0  0
    2.1204    3.0395    0.0000 O   0  0  0  0  0  0  0  0  0  0  0  0
    2.0757    1.6112    0.0000 C   0  0  0  0  0  0  0  0  0  0  0  0
    1.6411    0.9100    0.0000 C   0  0  0  0  0  0  0  0  0  0  0  0
   -2.0919    0.3118    0.0000 C   0  0  0  0  0  0  0  0  0  0  0  0
   -1.6573    1.0131    0.0000 O   0  0  0  0  0  0  0  0  0  0  0  0
   -2.0473    1.7401    0.0000 C   0  0  0  0  0  0  0  0  0  0  0  0
   -2.1811   -2.5447    0.0000 O   0  0  0  0  0  0  0  0  0  0  0  0
  1  2  2  0
  1 13  1  0
  1 24  1  0
  2  3  1  0
  3  4  2  0
  3 21  1  0
  4  5  1  0
  4 12  1  0
  5  6  1  0
  6  7  1  0
  6 14  1  1
  7  8  1  1
  7 11  1  0
  8  9  1  0
  9 10  1  0
 11 10  1  1
 11 12  1  0
 12 13  2  0
 14 15  2  0
 14 20  1  0
 15 16  1  0
 16 17  2  0
 17 18  1  0
 17 19  1  0
 19 20  2  0
 21 22  1  0
 22 23  1  0
M  END
>  <DRUGBANK_ID>  (1) 
DB08020

>  <COMMON_NAME>  (1) 
(3AS,4R,9BR)-4-(4-HYDROXYPHENYL)-6-(METHOXYMETHYL)-1,2,3,3A,4,9B-HEXAHYDROCYCLOPENTA[C]CHROMEN-8-OL

$$$$
