
     RDKit          2D

 34 36  0  0  0  0  0  0  0  0999 V2000
   -0.2169   -1.2405    0.0000 P   0  0  0  0  0  0  0  0  0  0  0  0
    1.0886   -1.8217    0.0000 P   0  0  0  0  0  0  0  0  0  0  0  0
   -1.7523    0.7927    0.0000 O   0  0  0  0  0  0  0  0  0  0  0  0
   -3.3173   -0.6592    0.0000 O   0  0  0  0  0  0  0  0  0  0  0  0
    3.2146   -2.3168    0.0000 O   0  0  0  0  0  0  0  0  0  0  0  0
   -0.7018   -0.5730    0.0000 O   0  0  0  0  0  0  0  0  0  0  0  0
    1.9091   -1.7355    0.0000 O   0  0  0  0  0  0  0  0  0  0  0  0
    2.2078   -4.5779    0.0000 O   0  0  0  0  0  0  0  0  0  0  0  0
    1.2379   -3.2430    0.0000 O   0  0  0  0  0  0  0  0  0  0  0  0
    3.8489   -4.4055    0.0000 O   0  0  0  0  0  0  0  0  0  0  0  0
    0.2680   -1.9080    0.0000 O   0  0  0  0  0  0  0  0  0  0  0  0
   -3.8489    2.1028    0.0000 O   0  0  0  0  0  0  0  0  0  0  0  0
    0.4506   -0.7556    0.0000 O   0  0  0  0  0  0  0  0  0  0  0  0
    1.1748   -2.6423    0.0000 O   0  0  0  0  0  0  0  0  0  0  0  0
   -0.8844   -1.7255    0.0000 O   0  0  0  0  0  0  0  0  0  0  0  0
    1.0023   -1.0012    0.0000 O   0  0  0  0  0  0  0  0  0  0  0  0
   -2.4198    4.5779    0.0000 O   0  0  0  0  0  0  0  0  0  0  0  0
   -2.4198    2.1028    0.0000 N   0  0  0  0  0  0  0  0  0  0  0  0
   -3.1344    3.3403    0.0000 N   0  0  0  0  0  0  0  0  0  0  0  0
   -2.8323    0.0081    0.0000 C   0  0  0  0  0  0  0  0  0  0  0  0
   -2.0073    0.0081    0.0000 C   0  0  0  0  0  0  0  0  0  0  0  0
   -3.0873    0.7927    0.0000 C   0  0  0  0  0  0  0  0  0  0  0  0
   -2.4198    1.2777    0.0000 C   0  0  0  0  0  0  0  0  0  0  0  0
   -1.5224   -0.6592    0.0000 C   0  0  0  0  0  0  0  0  0  0  0  0
    2.5434   -3.8242    0.0000 C   0  0  0  0  0  0  0  0  0  0  0  0
    2.0584   -3.1568    0.0000 C   0  0  0  0  0  0  0  0  0  0  0  0
    3.3639   -3.7379    0.0000 C   0  0  0  0  0  0  0  0  0  0  0  0
    2.3940   -2.4030    0.0000 C   0  0  0  0  0  0  0  0  0  0  0  0
    3.6995   -2.9842    0.0000 C   0  0  0  0  0  0  0  0  0  0  0  0
   -1.7053    2.5153    0.0000 C   0  0  0  0  0  0  0  0  0  0  0  0
   -3.1344    2.5153    0.0000 C   0  0  0  0  0  0  0  0  0  0  0  0
   -1.7053    3.3403    0.0000 C   0  0  0  0  0  0  0  0  0  0  0  0
   -2.4198    3.7529    0.0000 C   0  0  0  0  0  0  0  0  0  0  0  0
   -0.9908    3.7529    0.0000 C   0  0  0  0  0  0  0  0  0  0  0  0
  1  6  1  0
  1 11  1  0
  1 13  1  0
  1 15  2  0
  2  7  1  0
  2 11  1  0
  2 14  1  0
  2 16  2  0
  3 21  1  0
  3 23  1  0
  5 28  1  0
  5 29  1  0
  6 24  1  0
 12 31  2  0
 17 33  2  0
 18 30  1  0
 18 31  1  0
 19 31  1  0
 19 33  1  0
 20  4  1  1
 20 21  1  0
 20 22  1  0
 21 24  1  6
 22 23  1  0
 23 18  1  6
 25  8  1  6
 25 26  1  0
 25 27  1  0
 26  9  1  1
 26 28  1  0
 27 10  1  1
 27 29  1  0
 28  7  1  1
 30 32  2  0
 32 33  1  0
 32 34  1  0
M  END
>  <DRUGBANK_ID>  (1) 
DB03161

>  <SECONDARY_ACCESSION_NUMBERS>  (1) 
EXPT03034

>  <COMMON_NAME>  (1) 
Thymidine-5'-diphospho-beta-D-xylose

$$$$
