QYT
     RDKit          2D

 18 20  0  0  0  0  0  0  0  0999 V2000
   -0.0878    1.5617    0.0000 C   0  0  0  0  0  0  0  0  0  0  0  0
   -0.8023    1.1492    0.0000 C   0  0  0  0  0  0  0  0  0  0  0  0
   -0.8023    0.3242    0.0000 C   0  0  0  0  0  0  0  0  0  0  0  0
   -2.1842   -1.3982    0.0000 C   0  0  0  0  0  0  0  0  0  0  0  0
   -1.1043   -2.1828    0.0000 C   0  0  0  0  0  0  0  0  0  0  0  0
    0.6266    0.3242    0.0000 C   0  0  0  0  0  0  0  0  0  0  0  0
    0.6266    1.1492    0.0000 C   0  0  0  0  0  0  0  0  0  0  0  0
    2.0556    1.1492    0.0000 C   0  0  0  0  0  0  0  0  0  0  0  0
    1.3411   -0.0883    0.0000 N   0  0  0  0  0  0  0  0  0  0  0  0
   -0.0878   -0.0883    0.0000 C   0  0  0  0  0  0  0  0  0  0  0  0
   -1.5168   -0.0883    0.0000 C   0  0  0  0  0  0  0  0  0  0  0  0
   -1.5168   -0.9133    0.0000 C   0  0  0  0  0  0  0  0  0  0  0  0
   -0.8493   -1.3982    0.0000 S   0  0  0  0  0  0  0  0  0  0  0  0
   -1.9293   -2.1828    0.0000 N   0  0  0  0  0  0  0  0  0  0  0  0
   -2.9688   -1.1433    0.0000 O   0  0  0  0  0  0  0  0  0  0  0  0
   -0.6193   -2.8503    0.0000 O   0  0  0  0  0  0  0  0  0  0  0  0
    1.3411    1.5617    0.0000 N   0  0  0  0  0  0  0  0  0  0  0  0
    2.0556    0.3242    0.0000 C   0  0  0  0  0  0  0  0  0  0  0  0
  1  2  2  0
  1  7  1  0
  2  3  1  0
  3 10  2  0
  3 11  1  0
  4 12  1  0
  4 14  1  0
  4 15  2  0
  5 13  1  0
  5 14  1  0
  5 16  2  0
  6  7  2  0
  6  9  1  0
  6 10  1  0
  7 17  1  0
  8 17  2  0
  8 18  1  0
  9 18  2  0
 11 12  2  0
 12 13  1  0
M  END
>  <DRUGBANK_ID>  (1) 
DB04769

>  <COMMON_NAME>  (1) 
5-QUINOXALIN-6-YLMETHYLENE-THIAZOLIDINE-2,4-DIONE

$$$$
