
     RDKit          2D

 25 27  0  0  0  0  0  0  0  0999 V2000
    1.4289   -4.1250    0.0000 C   0  0  0  0  0  0  0  0  0  0  0  0
    1.4289   -4.9500    0.0000 N   0  0  0  0  0  0  0  0  0  0  0  0
    2.0964   -5.4349    0.0000 C   0  0  0  0  0  0  0  0  0  0  0  0
    1.8414   -6.2195    0.0000 C   0  0  0  0  0  0  0  0  0  0  0  0
    1.0164   -6.2195    0.0000 C   0  0  0  0  0  0  0  0  0  0  0  0
    0.7615   -5.4349    0.0000 N   0  0  0  0  0  0  0  0  0  0  0  0
    2.8810   -5.1800    0.0000 C   0  0  0  0  0  0  0  0  0  0  0  0
    3.4941   -5.7320    0.0000 O   0  0  0  0  0  0  0  0  0  0  0  0
    3.0525   -4.3730    0.0000 N   0  0  0  0  0  0  0  0  0  0  0  0
    3.8372   -4.1181    0.0000 C   0  0  0  0  0  0  0  0  0  0  0  0
    4.0087   -3.3111    0.0000 C   0  0  0  0  0  0  0  0  0  0  0  0
    4.7933   -3.0562    0.0000 C   0  0  0  0  0  0  0  0  0  0  0  0
    5.4064   -3.6082    0.0000 C   0  0  0  0  0  0  0  0  0  0  0  0
    5.2349   -4.4152    0.0000 C   0  0  0  0  0  0  0  0  0  0  0  0
    4.4502   -4.6701    0.0000 N   0  0  0  0  0  0  0  0  0  0  0  0
    5.8480   -4.9672    0.0000 N   0  0  0  0  0  0  0  0  0  0  0  0
    6.1910   -3.3533    0.0000 C   0  0  0  0  0  0  0  0  0  0  0  0
    6.3625   -2.5463    0.0000 C   0  0  0  0  0  0  0  0  0  0  0  0
    7.1472   -2.2913    0.0000 C   0  0  0  0  0  0  0  0  0  0  0  0
    7.7603   -2.8434    0.0000 C   0  0  0  0  0  0  0  0  0  0  0  0
    7.5887   -3.6503    0.0000 C   0  0  0  0  0  0  0  0  0  0  0  0
    6.8041   -3.9053    0.0000 C   0  0  0  0  0  0  0  0  0  0  0  0
    6.6326   -4.7123    0.0000 Cl  0  0  0  0  0  0  0  0  0  0  0  0
    7.3187   -1.4844    0.0000 O   0  0  0  0  0  0  0  0  0  0  0  0
    6.7056   -0.9323    0.0000 C   0  0  0  0  0  0  0  0  0  0  0  0
  1  2  1  0
  2  3  1  0
  2  6  1  0
  3  4  2  0
  3  7  1  0
  4  5  1  0
  5  6  2  0
  7  8  2  0
  7  9  1  0
  9 10  1  0
 10 11  2  0
 10 15  1  0
 11 12  1  0
 12 13  2  0
 13 14  1  0
 13 17  1  0
 14 15  2  0
 14 16  1  0
 17 18  2  0
 17 22  1  0
 18 19  1  0
 19 20  2  0
 19 24  1  0
 20 21  1  0
 21 22  2  0
 22 23  1  0
 24 25  1  0
M  END
>  <DRUGBANK_ID>  (1) 
DB12468

>  <COMMON_NAME>  (1) 
Pf-04531083

>  <CAS_NUMBER>  (1) 
1079400-07-9

>  <UNII>  (1) 
40497CY7Y3

$$$$
