
     RDKit          2D

 28 31  0  0  0  0  0  0  0  0999 V2000
    3.1057    4.1271    0.0000 C   0  0  0  0  0  0  0  0  0  0  0  0
    2.4241    4.5919    0.0000 C   0  0  0  0  0  0  0  0  0  0  0  0
    1.7424    5.0566    0.0000 C   0  0  0  0  0  0  0  0  0  0  0  0
    1.9594    3.9102    0.0000 C   0  0  0  0  0  0  0  0  0  0  0  0
    2.3173    3.1669    0.0000 N   0  0  0  0  0  0  0  0  0  0  0  0
    3.1400    3.1053    0.0000 C   0  0  0  0  0  0  0  0  0  0  0  0
    3.4980    2.3620    0.0000 C   0  0  0  0  0  0  0  0  0  0  0  0
    3.0332    1.6803    0.0000 N   0  0  0  0  0  0  0  0  0  0  0  0
    2.2105    1.7420    0.0000 C   0  0  0  0  0  0  0  0  0  0  0  0
    1.8526    2.4853    0.0000 C   0  0  0  0  0  0  0  0  0  0  0  0
    3.3912    0.9370    0.0000 C   0  0  0  0  0  0  0  0  0  0  0  0
    4.2162    0.9370    0.0000 N   0  0  0  0  0  0  0  0  0  0  0  0
    4.7305    0.2920    0.0000 C   0  0  0  0  0  0  0  0  0  0  0  0
    5.5189    0.5352    0.0000 C   0  0  0  0  0  0  0  0  0  0  0  0
    6.1237   -0.0260    0.0000 C   0  0  0  0  0  0  0  0  0  0  0  0
    5.9401   -0.8303    0.0000 C   0  0  0  0  0  0  0  0  0  0  0  0
    5.1517   -1.0735    0.0000 C   0  0  0  0  0  0  0  0  0  0  0  0
    4.5470   -0.5123    0.0000 C   0  0  0  0  0  0  0  0  0  0  0  0
    3.8037   -0.8703    0.0000 O   0  0  0  0  0  0  0  0  0  0  0  0
    3.0604   -0.5123    0.0000 C   0  0  0  0  0  0  0  0  0  0  0  0
    2.4556   -1.0735    0.0000 C   0  0  0  0  0  0  0  0  0  0  0  0
    1.6673   -0.8303    0.0000 C   0  0  0  0  0  0  0  0  0  0  0  0
    1.4837   -0.0260    0.0000 C   0  0  0  0  0  0  0  0  0  0  0  0
    2.0884    0.5352    0.0000 C   0  0  0  0  0  0  0  0  0  0  0  0
    2.8768    0.2920    0.0000 C   0  0  0  0  0  0  0  0  0  0  0  0
    2.8888    5.2735    0.0000 C   0  0  0  0  0  0  0  0  0  0  0  0
    2.5309    6.0168    0.0000 O   0  0  0  0  0  0  0  0  0  0  0  0
    3.7115    5.2118    0.0000 O   0  0  0  0  0  0  0  0  0  0  0  0
  1  2  1  0
  2  3  1  0
  2  4  1  0
  2 26  1  0
  4  5  1  0
  5  6  1  0
  5 10  1  0
  6  7  1  0
  7  8  1  0
  8  9  1  0
  8 11  1  0
  9 10  1  0
 11 12  2  0
 11 25  1  0
 12 13  1  0
 13 14  1  0
 13 18  2  0
 14 15  2  0
 15 16  1  0
 16 17  2  0
 17 18  1  0
 18 19  1  0
 19 20  1  0
 20 21  1  0
 20 25  2  0
 21 22  2  0
 22 23  1  0
 23 24  2  0
 24 25  1  0
 26 27  1  0
 26 28  2  0
M  END
>  <DRUGBANK_ID>  (1) 
DB15092

>  <COMMON_NAME>  (1) 
LY-2624803

>  <CAS_NUMBER>  (1) 
879409-35-5

>  <UNII>  (1) 
63J9EQ81YC

$$$$
