
     RDKit          2D

 28 32  0  0  1  0  0  0  0  0999 V2000
    5.9659    1.7986    0.0000 C   0  0  0  0  0  0  0  0  0  0  0  0
    6.2736    1.0332    0.0000 C   0  0  0  0  0  0  0  0  0  0  0  0
    7.0904    0.9170    0.0000 C   0  0  0  0  0  0  0  0  0  0  0  0
    7.4632    0.0948    0.0000 C   0  0  0  0  0  0  0  0  0  0  0  0
    8.2041   -0.2681    0.0000 C   0  0  0  0  0  0  0  0  0  0  0  0
    8.0879   -1.0849    0.0000 C   0  0  0  0  0  0  0  0  0  0  0  0
    8.7372   -1.5939    0.0000 C   0  0  0  0  0  0  0  0  0  0  0  0
    9.5026   -1.2862    0.0000 C   0  0  0  0  0  0  0  0  0  0  0  0
   10.1519   -1.7952    0.0000 F   0  0  0  0  0  0  0  0  0  0  0  0
    9.6188   -0.4694    0.0000 C   0  0  0  0  0  0  0  0  0  0  0  0
    8.9696    0.0396    0.0000 N   0  0  0  0  0  0  0  0  0  0  0  0
    7.2752   -1.2268    0.0000 C   0  0  0  0  0  0  0  0  0  0  0  0
    8.0370   -1.5436    0.0000 C   0  0  0  0  0  0  0  0  0  0  0  0
    7.9710   -2.3660    0.0000 C   0  0  0  0  0  0  0  0  0  0  0  0
    7.1685   -2.5574    0.0000 C   0  0  0  0  0  0  0  0  0  0  0  0
    6.7385   -1.8533    0.0000 N   0  0  0  0  0  0  0  0  0  0  0  0
    5.8711   -1.7962    0.0000 C   0  0  0  0  0  0  0  0  0  0  0  0
    5.5634   -1.0308    0.0000 N   0  0  0  0  0  0  0  0  0  0  0  0
    4.7466   -0.9146    0.0000 C   0  0  0  0  0  0  0  0  0  0  0  0
    4.4388   -0.1491    0.0000 C   0  0  0  0  0  0  0  0  0  0  0  0
    3.6008   -0.2804    0.0000 C   0  0  0  0  0  0  0  0  0  0  0  0
    3.5085   -1.1003    0.0000 N   0  0  0  0  0  0  0  0  0  0  0  0
    4.2597   -1.4413    0.0000 N   0  0  0  0  0  0  0  0  0  0  0  0
    4.5089   -2.2278    0.0000 C   0  0  0  0  0  0  0  0  0  0  0  0
    5.3146   -2.4052    0.0000 C   0  0  0  0  0  0  0  0  0  0  0  0
    4.9478    0.5001    0.0000 C   0  0  0  0  0  0  0  0  0  0  0  0
    4.6401    1.2656    0.0000 O   0  0  0  0  0  0  0  0  0  0  0  0
    5.7646    0.3839    0.0000 N   0  0  0  0  0  0  0  0  0  0  0  0
  2  1  1  6
  2  3  1  0
  2 28  1  0
  3  4  1  0
  4  5  1  0
  5  6  2  0
  5 11  1  0
  6  7  1  0
  7  8  2  0
  8  9  1  0
  8 10  1  0
 10 11  2  0
 12  6  1  0
 12 13  1  6
 12 16  1  0
 13 14  1  0
 14 15  1  0
 15 16  1  0
 16 17  1  0
 17 18  2  0
 17 25  1  0
 18 19  1  0
 19 20  2  0
 19 23  1  0
 20 21  1  0
 20 26  1  0
 21 22  2  0
 22 23  1  0
 23 24  1  0
 24 25  2  0
 26 27  2  0
 26 28  1  0
M  END
>  <DRUGBANK_ID>  (1) 
DB14896

>  <COMMON_NAME>  (1) 
Selitrectinib

>  <CAS_NUMBER>  (1) 
2097002-61-2

>  <UNII>  (1) 
0J45910S3X

>  <SYNONYMS>  (1) 
Selitrectinib

$$$$
