
     RDKit          2D

 22 24  0  0  0  0  0  0  0  0999 V2000
   -1.0149    2.2212    0.0000 C   0  0  0  0  0  0  0  0  0  0  0  0
    2.8929    1.8800    0.0000 C   0  0  0  0  0  0  0  0  0  0  0  0
    0.0854   -2.2212    0.0000 C   0  0  0  0  0  0  0  0  0  0  0  0
    0.6374   -1.6081    0.0000 C   0  0  0  0  0  0  0  0  0  0  0  0
   -0.7215   -2.0496    0.0000 C   0  0  0  0  0  0  0  0  0  0  0  0
   -2.8929    1.2125    0.0000 C   0  0  0  0  0  0  0  0  0  0  0  0
   -2.8929    0.3875    0.0000 C   0  0  0  0  0  0  0  0  0  0  0  0
    0.7495    1.4675    0.0000 C   0  0  0  0  0  0  0  0  0  0  0  0
    0.3825   -0.8234    0.0000 C   0  0  0  0  0  0  0  0  0  0  0  0
   -0.9764   -1.2650    0.0000 C   0  0  0  0  0  0  0  0  0  0  0  0
   -2.1784    1.6250    0.0000 C   0  0  0  0  0  0  0  0  0  0  0  0
   -2.1784   -0.0249    0.0000 C   0  0  0  0  0  0  0  0  0  0  0  0
    0.0350    1.8800    0.0000 C   0  0  0  0  0  0  0  0  0  0  0  0
    1.4640    1.8800    0.0000 C   0  0  0  0  0  0  0  0  0  0  0  0
   -0.4244   -0.6519    0.0000 C   0  0  0  0  0  0  0  0  0  0  0  0
   -1.4640    1.2125    0.0000 C   0  0  0  0  0  0  0  0  0  0  0  0
   -1.4640    0.3875    0.0000 C   0  0  0  0  0  0  0  0  0  0  0  0
   -0.1944    0.8000    0.0000 C   0  0  0  0  0  0  0  0  0  0  0  0
   -0.6793    1.4675    0.0000 C   0  0  0  0  0  0  0  0  0  0  0  0
    2.1784    1.4675    0.0000 N   0  0  0  0  0  0  0  0  0  0  0  0
   -0.6793    0.1326    0.0000 N   0  0  0  0  0  0  0  0  0  0  0  0
    0.6305    0.8000    0.0000 O   0  0  0  0  0  0  0  0  0  0  0  0
  4  3  2  0
  5  3  1  0
  7  6  2  0
  9  4  1  0
 10  5  2  0
 11  6  1  0
 12  7  1  0
 13  8  1  0
 14  8  1  0
 15  9  2  0
 15 10  1  0
 16 11  2  0
 17 12  2  0
 17 16  1  0
 19  1  1  1
 19 13  1  0
 19 16  1  0
 19 18  1  0
 20  2  1  0
 20 14  1  0
 21 15  1  0
 21 17  1  0
 21 18  1  0
 22 18  2  0
M  END
>  <DRUGBANK_ID>  (1) 
DB09188

>  <COMMON_NAME>  (1) 
Amedalin

>  <CAS_NUMBER>  (1) 
22136-26-1

>  <UNII>  (1) 
M49EDJ159O

>  <SYNONYMS>  (1) 
3-methyl-3-(3-(methylamino)propyl)-1-phenyl-2-indolinone

$$$$
