
     RDKit          2D

 27 29  0  0  0  0  0  0  0  0999 V2000
    3.6434   -1.0746    0.0000 C   0  0  0  0  0  0  0  0  0  0  0  0
    2.9289   -1.4870    0.0000 C   0  0  0  0  0  0  0  0  0  0  0  0
    2.2145   -1.0745    0.0000 C   0  0  0  0  0  0  0  0  0  0  0  0
    2.2144   -0.2495    0.0000 C   0  0  0  0  0  0  0  0  0  0  0  0
    2.9290    0.1629    0.0000 C   0  0  0  0  0  0  0  0  0  0  0  0
    3.6434   -0.2496    0.0000 C   0  0  0  0  0  0  0  0  0  0  0  0
    4.3591   -1.4858    0.0000 O   0  0  0  0  0  0  0  0  0  0  0  0
    4.9302   -1.1551    0.0000 C   0  0  0  0  0  0  0  0  0  0  0  0
    2.9272   -2.3125    0.0000 O   0  0  0  0  0  0  0  0  0  0  0  0
    2.3552   -2.6417    0.0000 C   0  0  0  0  0  0  0  0  0  0  0  0
    1.5004    0.1646    0.0000 C   0  0  0  0  0  0  0  0  0  0  0  0
    1.5016    0.9900    0.0000 C   0  0  0  0  0  0  0  0  0  0  0  0
    0.7876    1.4042    0.0000 N   0  0  0  0  0  0  0  0  0  0  0  0
    0.7876    2.2292    0.0000 C   0  0  0  0  0  0  0  0  0  0  0  0
    0.0731    2.6417    0.0000 C   0  0  0  0  0  0  0  0  0  0  0  0
   -0.6413    2.2292    0.0000 N   0  0  0  0  0  0  0  0  0  0  0  0
   -0.6413    1.4042    0.0000 C   0  0  0  0  0  0  0  0  0  0  0  0
    0.0731    0.9917    0.0000 C   0  0  0  0  0  0  0  0  0  0  0  0
   -1.3570    2.6404    0.0000 C   0  0  0  0  0  0  0  0  0  0  0  0
   -2.0713    2.2267    0.0000 C   0  0  0  0  0  0  0  0  0  0  0  0
   -2.7870    2.6380    0.0000 C   0  0  0  0  0  0  0  0  0  0  0  0
   -3.5013    2.2242    0.0000 C   0  0  0  0  0  0  0  0  0  0  0  0
   -4.2172    2.6342    0.0000 C   0  0  0  0  0  0  0  0  0  0  0  0
   -4.9302    2.2193    0.0000 C   0  0  0  0  0  0  0  0  0  0  0  0
   -4.9273    1.3943    0.0000 C   0  0  0  0  0  0  0  0  0  0  0  0
   -4.2115    0.9842    0.0000 C   0  0  0  0  0  0  0  0  0  0  0  0
   -3.4984    1.3992    0.0000 C   0  0  0  0  0  0  0  0  0  0  0  0
  1  2  2  0
  1  7  1  0
  2  9  1  0
  2  3  1  0
  3  4  2  0
  4  5  1  0
  4 11  1  0
  5  6  2  0
  6  1  1  0
  7  8  1  0
  9 10  1  0
 11 12  1  0
 12 13  1  0
 13 14  1  0
 13 18  1  0
 14 15  1  0
 15 16  1  0
 16 17  1  0
 16 19  1  0
 17 18  1  0
 19 20  1  0
 20 21  1  0
 21 22  1  0
 22 23  2  0
 23 24  1  0
 24 25  2  0
 25 26  1  0
 26 27  2  0
 27 22  1  0
M  END
>  <DRUGBANK_ID>  (1) 
DB06618

>  <COMMON_NAME>  (1) 
Cutamesine

>  <CAS_NUMBER>  (1) 
165377-43-5

>  <UNII>  (1) 
9J7A4144BX

>  <SYNONYMS>  (1) 
Cutamesine

$$$$
