
     RDKit          2D

  6  5  0  0  0  0  0  0  0  0999 V2000
    0.8250    1.4289    0.0000 O   0  0  0  0  0  0  0  0  0  0  0  0
    1.2375    0.7145    0.0000 C   0  0  0  0  0  0  0  0  0  0  0  0
    2.0625    0.7145    0.0000 O   0  0  0  0  0  0  0  0  0  0  0  0
    0.8250    0.0000    0.0000 C   0  0  0  0  0  0  0  0  0  0  0  0
    1.2375   -0.7145    0.0000 Cl  0  0  0  0  0  0  0  0  0  0  0  0
    0.0000    0.0000    0.0000 Cl  0  0  0  0  0  0  0  0  0  0  0  0
  1  2  1  0
  2  3  2  0
  2  4  1  0
  4  5  1  0
  4  6  1  0
M  END
>  <DRUGBANK_ID>  (1) 
DB08809

>  <COMMON_NAME>  (1) 
Dichloroacetic acid

>  <CAS_NUMBER>  (1) 
79-43-6

>  <UNII>  (1) 
9LSH52S3LQ

>  <SYNONYMS>  (1) 
DCA; Dichloracetic acid; Dichloroacetate

$$$$
