
     RDKit          2D

 35 39  0  0  0  0  0  0  0  0999 V2000
    0.5112   -1.1604    0.0000 C   0  0  0  0  0  0  0  0  0  0  0  0
   -0.2481   -0.8288    0.0000 C   0  0  0  0  0  0  0  0  0  0  0  0
   -0.3734   -2.1620    0.0000 C   0  0  0  0  0  0  0  0  0  0  0  0
    1.0584   -0.5414    0.0000 C   0  0  0  0  0  0  0  0  0  0  0  0
    0.4315   -1.9811    0.0000 C   0  0  0  0  0  0  0  0  0  0  0  0
   -0.7952   -1.4480    0.0000 C   0  0  0  0  0  0  0  0  0  0  0  0
   -0.1648   -0.0061    0.0000 O   0  0  0  0  0  0  0  0  0  0  0  0
    0.6422    0.1710    0.0000 C   0  0  0  0  0  0  0  0  0  0  0  0
    1.8854   -0.5403    0.0000 C   0  0  0  0  0  0  0  0  0  0  0  0
   -0.7013   -2.9192    0.0000 C   0  0  0  0  0  0  0  0  0  0  0  0
   -0.9523   -0.4175    0.0000 C   0  0  0  0  0  0  0  0  0  0  0  0
    1.0546    0.8903    0.0000 C   0  0  0  0  0  0  0  0  0  0  0  0
    2.2927    0.1711    0.0000 C   0  0  0  0  0  0  0  0  0  0  0  0
    1.8816    0.8914    0.0000 C   0  0  0  0  0  0  0  0  0  0  0  0
   -1.6138   -1.3719    0.0000 C   0  0  0  0  0  0  0  0  0  0  0  0
    1.2305   -1.5728    0.0000 O   0  0  0  0  0  0  0  0  0  0  0  0
   -0.2135   -3.5807    0.0000 O   0  0  0  0  0  0  0  0  0  0  0  0
    1.0507   -2.5284    0.0000 O   0  0  0  0  0  0  0  0  0  0  0  0
   -1.7720   -0.4145    0.0000 C   0  0  0  0  0  0  0  0  0  0  0  0
   -0.5357    0.2945    0.0000 C   0  0  0  0  0  0  0  0  0  0  0  0
    2.2959   -1.2512    0.0000 O   0  0  0  0  0  0  0  0  0  0  0  0
   -1.7644    1.0142    0.0000 C   0  0  0  0  0  0  0  0  0  0  0  0
   -0.9426    1.0076    0.0000 C   0  0  0  0  0  0  0  0  0  0  0  0
   -2.1789    0.2985    0.0000 C   0  0  0  0  0  0  0  0  0  0  0  0
    2.2925    1.6050    0.0000 O   0  0  0  0  0  0  0  0  0  0  0  0
   -2.1750    1.7252    0.0000 O   0  0  0  0  0  0  0  0  0  0  0  0
   -2.0889   -2.0410    0.0000 C   0  0  0  0  0  0  0  0  0  0  0  0
   -1.9578   -0.6178    0.0000 C   0  0  0  0  0  0  0  0  0  0  0  0
    1.8871   -1.9684    0.0000 C   0  0  0  0  0  0  0  0  0  0  0  0
    3.1159    1.6040    0.0000 C   0  0  0  0  0  0  0  0  0  0  0  0
   -1.7605    2.4409    0.0000 C   0  0  0  0  0  0  0  0  0  0  0  0
   -2.9075   -1.9650    0.0000 C   0  0  0  0  0  0  0  0  0  0  0  0
   -2.7763   -0.5419    0.0000 C   0  0  0  0  0  0  0  0  0  0  0  0
   -3.2551   -1.2129    0.0000 C   0  0  0  0  0  0  0  0  0  0  0  0
   -1.5211   -3.0131    0.0000 N   0  0  0  0  0  0  0  0  0  0  0  0
  1 16  1  1
  2  1  1  0
  2 11  1  1
  3  5  1  0
  3 10  1  6
  3  6  1  0
  4  1  1  0
  5  1  1  0
  5 18  1  6
  6  2  1  0
  6 15  1  1
  7  2  1  0
  7  8  1  0
  8  4  2  0
  9  4  1  0
 12  8  1  0
 13  9  2  0
 14 12  2  0
 14 13  1  0
 17 10  2  0
 19 11  2  0
 20 11  1  0
 21  9  1  0
 22 23  1  0
 23 20  2  0
 24 19  1  0
 24 22  2  0
 25 14  1  0
 26 22  1  0
 27 15  2  0
 28 15  1  0
 29 21  1  0
 30 25  1  0
 31 26  1  0
 32 27  1  0
 33 28  2  0
 34 32  2  0
 34 33  1  0
 35 10  1  0
M  END
>  <DRUGBANK_ID>  (1) 
DB15496

>  <COMMON_NAME>  (1) 
Didesmethylrocaglamide

>  <SYNONYMS>  (1) 
RocB

$$$$
