DFT
     RDKit          2D

 21 22  0  0  0  0  0  0  0  0999 V2000
   -1.0631    2.8791    0.0000 P   0  0  0  0  0  0  0  0  0  0  0  0
   -1.0631    3.7041    0.0000 O   0  0  0  0  0  0  0  0  0  0  0  0
   -1.8881    2.8791    0.0000 O   0  0  0  0  0  0  0  0  0  0  0  0
   -0.2381    2.8791    0.0000 O   0  0  0  0  0  0  0  0  0  0  0  0
   -1.0631    2.0541    0.0000 O   0  0  0  0  0  0  0  0  0  0  0  0
   -0.3486    1.6416    0.0000 C   0  0  0  0  0  0  0  0  0  0  0  0
   -0.3486    0.8166    0.0000 C   0  0  0  0  0  0  0  0  0  0  0  0
    0.3189    0.3317    0.0000 O   0  0  0  0  0  0  0  0  0  0  0  0
   -1.0160    0.3317    0.0000 C   0  0  0  0  0  0  0  0  0  0  0  0
   -1.8006    0.5867    0.0000 O   0  0  0  0  0  0  0  0  0  0  0  0
   -0.7611   -0.4529    0.0000 C   0  0  0  0  0  0  0  0  0  0  0  0
    0.0639   -0.4529    0.0000 C   0  0  0  0  0  0  0  0  0  0  0  0
    1.3693   -1.0341    0.0000 C   0  0  0  0  0  0  0  0  0  0  0  0
    1.5187   -2.4552    0.0000 C   0  0  0  0  0  0  0  0  0  0  0  0
    0.6982   -2.5415    0.0000 C   0  0  0  0  0  0  0  0  0  0  0  0
    0.3626   -3.2951    0.0000 C   0  0  0  0  0  0  0  0  0  0  0  0
    0.2133   -1.8740    0.0000 C   0  0  0  0  0  0  0  0  0  0  0  0
    2.0036   -3.1227    0.0000 F   0  0  0  0  0  0  0  0  0  0  0  0
    1.8542   -1.7015    0.0000 C   0  0  0  0  0  0  0  0  0  0  0  0
    1.7049   -0.2804    0.0000 F   0  0  0  0  0  0  0  0  0  0  0  0
    0.5488   -1.1203    0.0000 C   0  0  0  0  0  0  0  0  0  0  0  0
  1  2  2  0
  1  3  1  0
  1  4  1  0
  1  5  1  0
  5  6  1  0
  7  6  1  1
  7  8  1  0
  7  9  1  0
  8 12  1  0
  9 10  1  6
  9 11  1  0
 11 12  1  0
 12 21  1  1
 13 19  2  0
 13 20  1  0
 13 21  1  0
 14 15  2  0
 14 18  1  0
 14 19  1  0
 15 16  1  0
 15 17  1  0
 17 21  2  0
M  END
>  <DRUGBANK_ID>  (1) 
DB07652

>  <COMMON_NAME>  (1) 
1-[2-DEOXYRIBOFURANOSYL]-2,4-DIFLUORO-5-METHYL-BENZENE-5'MONOPHOSPHATE

$$$$
