
     RDKit          2D

 28 31  0  0  0  0  0  0  0  0999 V2000
   -4.0920    3.9365    0.0000 N   0  0  0  0  0  0  0  0  0  0  0  0
   -3.3218    3.6409    0.0000 C   0  0  0  0  0  0  0  0  0  0  0  0
   -2.6807    4.1601    0.0000 O   0  0  0  0  0  0  0  0  0  0  0  0
   -3.1928    2.8260    0.0000 C   0  0  0  0  0  0  0  0  0  0  0  0
   -2.4577    2.4515    0.0000 C   0  0  0  0  0  0  0  0  0  0  0  0
   -2.5867    1.6367    0.0000 N   0  0  0  0  0  0  0  0  0  0  0  0
   -3.4016    1.5076    0.0000 C   0  0  0  0  0  0  0  0  0  0  0  0
   -3.7761    2.2427    0.0000 C   0  0  0  0  0  0  0  0  0  0  0  0
   -2.0034    1.0533    0.0000 C   0  0  0  0  0  0  0  0  0  0  0  0
   -1.2065    1.2668    0.0000 C   0  0  0  0  0  0  0  0  0  0  0  0
   -0.6231    0.6835    0.0000 N   0  0  0  0  0  0  0  0  0  0  0  0
   -0.8366   -0.1134    0.0000 C   0  0  0  0  0  0  0  0  0  0  0  0
   -0.2533   -0.6968    0.0000 N   0  0  0  0  0  0  0  0  0  0  0  0
    0.5436   -0.4833    0.0000 C   0  0  0  0  0  0  0  0  0  0  0  0
    1.1270   -1.0666    0.0000 C   0  0  0  0  0  0  0  0  0  0  0  0
    1.7103   -1.6500    0.0000 C   0  0  0  0  0  0  0  0  0  0  0  0
    1.1270   -2.2334    0.0000 C   0  0  0  0  0  0  0  0  0  0  0  0
    1.1270   -3.0584    0.0000 F   0  0  0  0  0  0  0  0  0  0  0  0
    0.5436   -1.6500    0.0000 C   0  0  0  0  0  0  0  0  0  0  0  0
    1.7103   -0.4833    0.0000 C   0  0  0  0  0  0  0  0  0  0  0  0
    1.4968    0.3136    0.0000 N   0  0  0  0  0  0  0  0  0  0  0  0
    2.0802    0.8970    0.0000 C   0  0  0  0  0  0  0  0  0  0  0  0
    2.8771    0.6835    0.0000 C   0  0  0  0  0  0  0  0  0  0  0  0
    3.0906   -0.1134    0.0000 C   0  0  0  0  0  0  0  0  0  0  0  0
    2.5072   -0.6968    0.0000 C   0  0  0  0  0  0  0  0  0  0  0  0
    2.7207   -1.4937    0.0000 F   0  0  0  0  0  0  0  0  0  0  0  0
   -1.6335   -0.3270    0.0000 N   0  0  0  0  0  0  0  0  0  0  0  0
   -2.2169    0.2564    0.0000 C   0  0  0  0  0  0  0  0  0  0  0  0
  1  2  1  0
  2  3  2  0
  2  4  1  0
  4  5  2  0
  4  8  1  0
  5  6  1  0
  6  7  1  0
  6  9  1  0
  7  8  2  0
  9 10  2  0
  9 28  1  0
 10 11  1  0
 11 12  2  0
 12 13  1  0
 12 27  1  0
 13 14  1  0
 15 14  1  6
 15 16  1  0
 15 19  1  0
 15 20  1  0
 17 16  1  0
 17 18  1  6
 17 19  1  0
 20 21  2  0
 20 25  1  0
 21 22  1  0
 22 23  2  0
 23 24  1  0
 24 25  2  0
 25 26  1  0
 27 28  2  0
M  END
>  <DRUGBANK_ID>  (1) 
DB15256

>  <COMMON_NAME>  (1) 
Reldesemtiv

>  <CAS_NUMBER>  (1) 
1345410-31-2

>  <UNII>  (1) 
4S0HBYW6QE

>  <SYNONYMS>  (1) 
CK-2127107; CK2127107; Reldesemtiv

$$$$
