
     RDKit          2D

 29 34  0  0  1  0  0  0  0  0999 V2000
    4.5466    1.3336    0.0000 C   0  0  0  0  0  0  0  0  0  0  0  0
    2.0307    1.7357    0.0000 C   0  0  0  0  0  0  0  0  0  0  0  0
   -1.3892    1.8815    0.0000 C   0  0  0  0  0  0  0  0  0  0  0  0
   -1.1089    1.1056    0.0000 C   0  0  0  0  0  0  0  0  0  0  0  0
   -0.8574    2.5122    0.0000 C   0  0  0  0  0  0  0  0  0  0  0  0
   -0.2968    0.9604    0.0000 C   0  0  0  0  0  0  0  0  0  0  0  0
    4.5754   -0.8489    0.0000 C   0  0  0  0  0  0  0  0  0  0  0  0
    3.7633   -0.7037    0.0000 C   0  0  0  0  0  0  0  0  0  0  0  0
    2.0195   -0.2889    0.0000 C   0  0  0  0  0  0  0  0  0  0  0  0
    1.3367    0.1741    0.0000 C   0  0  0  0  0  0  0  0  0  0  0  0
    6.1708    1.0432    0.0000 C   0  0  0  0  0  0  0  0  0  0  0  0
    3.7345    1.4789    0.0000 C   0  0  0  0  0  0  0  0  0  0  0  0
    5.3587    1.1884    0.0000 C   0  0  0  0  0  0  0  0  0  0  0  0
    2.9224    1.6241    0.0000 C   0  0  0  0  0  0  0  0  0  0  0  0
    5.9193   -0.3634    0.0000 C   0  0  0  0  0  0  0  0  0  0  0  0
    1.2889    2.4104    0.0000 C   0  0  0  0  0  0  0  0  0  0  0  0
    5.1072   -0.2182    0.0000 C   0  0  0  0  0  0  0  0  0  0  0  0
    6.4511    0.2673    0.0000 C   0  0  0  0  0  0  0  0  0  0  0  0
    3.4830    0.0722    0.0000 C   0  0  0  0  0  0  0  0  0  0  0  0
    2.6708    0.2174    0.0000 C   0  0  0  0  0  0  0  0  0  0  0  0
    4.0148    0.7029    0.0000 C   0  0  0  0  0  0  0  0  0  0  0  0
   -0.0452    2.3670    0.0000 C   0  0  0  0  0  0  0  0  0  0  0  0
    0.2351    1.5911    0.0000 C   0  0  0  0  0  0  0  0  0  0  0  0
    1.5660    0.9666    0.0000 C   0  0  0  0  0  0  0  0  0  0  0  0
    4.8269    0.5577    0.0000 C   0  0  0  0  0  0  0  0  0  0  0  0
    2.3905    0.9934    0.0000 C   0  0  0  0  0  0  0  0  0  0  0  0
    0.6061    2.8734    0.0000 N   0  0  0  0  0  0  0  0  0  0  0  0
    1.0596    1.6179    0.0000 N   0  0  0  0  0  0  0  0  0  0  0  0
    7.2632    0.1221    0.0000 O   0  0  0  0  0  0  0  0  0  0  0  0
  4  3  2  0
  5  3  1  0
  6  4  1  0
  8  7  1  0
 10  9  1  0
 13 11  1  0
 14 12  1  0
 17  7  2  0
 17 15  1  0
 18 11  1  0
 18 15  1  0
 18 29  1  6
 19  8  1  1
 20  9  1  6
 20 19  1  0
 21 12  1  6
 21 19  1  0
 22  5  2  0
 23  6  2  0
 23 22  1  0
 24 10  2  0
 25  1  1  6
 25 13  1  0
 25 17  1  0
 25 21  1  0
 26  2  1  6
 26 14  1  0
 26 20  1  0
 26 24  1  0
 27 16  2  0
 27 22  1  0
 28 16  1  0
 28 23  1  0
 28 24  1  0
M  END
>  <DRUGBANK_ID>  (1) 
DB12415

>  <COMMON_NAME>  (1) 
Galeterone

>  <CAS_NUMBER>  (1) 
851983-85-2

>  <UNII>  (1) 
WA33E149SW

>  <SYNONYMS>  (1) 
Galeterone

$$$$
