
     RDKit          2D

 39 42  0  0  0  0  0  0  0  0999 V2000
   -3.5661   -0.9895    0.0000 C   0  0  0  0  0  0  0  0  0  0  0  0
   -2.8515   -0.5772    0.0000 N   0  0  0  0  0  0  0  0  0  0  0  0
   -2.1367   -0.9895    0.0000 C   0  0  0  0  0  0  0  0  0  0  0  0
   -1.4220   -0.5772    0.0000 C   0  0  0  0  0  0  0  0  0  0  0  0
   -0.7074   -0.9895    0.0000 N   0  0  0  0  0  0  0  0  0  0  0  0
    0.0072   -0.5772    0.0000 C   0  0  0  0  0  0  0  0  0  0  0  0
    0.6944   -0.9895    0.0000 C   0  0  0  0  0  0  0  0  0  0  0  0
    1.4091   -0.5772    0.0000 C   0  0  0  0  0  0  0  0  0  0  0  0
    1.4091    0.2473    0.0000 C   0  0  0  0  0  0  0  0  0  0  0  0
    2.1238    0.6597    0.0000 C   0  0  0  0  0  0  0  0  0  0  0  0
    2.8385    0.2473    0.0000 C   0  0  0  0  0  0  0  0  0  0  0  0
    2.8385   -0.5772    0.0000 C   0  0  0  0  0  0  0  0  0  0  0  0
    2.1238   -0.9895    0.0000 C   0  0  0  0  0  0  0  0  0  0  0  0
    3.5532    0.6597    0.0000 N   0  0  0  0  0  0  0  0  0  0  0  0
    4.2678    0.2473    0.0000 S   0  0  0  0  0  0  0  0  0  0  0  0
    3.8555   -0.4672    0.0000 O   0  0  0  0  0  0  0  0  0  0  0  0
    4.6801    0.9620    0.0000 O   0  0  0  0  0  0  0  0  0  0  0  0
    4.9826   -0.1649    0.0000 O   0  0  0  0  0  0  0  0  0  0  0  0
    0.0072    0.2473    0.0000 C   0  0  0  0  0  0  0  0  0  0  0  0
    0.6670    0.7422    0.0000 N   0  0  0  0  0  0  0  0  0  0  0  0
    0.4195    1.5117    0.0000 C   0  0  0  0  0  0  0  0  0  0  0  0
   -0.4049    1.5117    0.0000 S   0  0  0  0  0  0  0  0  0  0  0  0
   -0.6799    0.7422    0.0000 C   0  0  0  0  0  0  0  0  0  0  0  0
    0.8868    2.1990    0.0000 C   0  0  0  0  0  0  0  0  0  0  0  0
    0.6395    2.9687    0.0000 C   0  0  0  0  0  0  0  0  0  0  0  0
    1.2991    3.4634    0.0000 C   0  0  0  0  0  0  0  0  0  0  0  0
    1.9589    2.9687    0.0000 C   0  0  0  0  0  0  0  0  0  0  0  0
    1.7115    2.1990    0.0000 S   0  0  0  0  0  0  0  0  0  0  0  0
   -1.4220    0.2473    0.0000 O   0  0  0  0  0  0  0  0  0  0  0  0
   -2.1367   -1.8142    0.0000 C   0  0  0  0  0  0  0  0  0  0  0  0
   -1.4220   -2.2265    0.0000 C   0  0  0  0  0  0  0  0  0  0  0  0
   -0.7074   -1.8142    0.0000 C   0  0  0  0  0  0  0  0  0  0  0  0
    0.0072   -2.2265    0.0000 C   0  0  0  0  0  0  0  0  0  0  0  0
    0.0072   -3.0511    0.0000 C   0  0  0  0  0  0  0  0  0  0  0  0
   -0.7074   -3.4634    0.0000 C   0  0  0  0  0  0  0  0  0  0  0  0
   -1.4220   -3.0511    0.0000 C   0  0  0  0  0  0  0  0  0  0  0  0
   -3.5661   -1.8142    0.0000 O   0  0  0  0  0  0  0  0  0  0  0  0
   -4.2808   -0.5772    0.0000 O   0  0  0  0  0  0  0  0  0  0  0  0
   -4.9826   -0.9824    0.0000 C   0  0  0  0  0  0  0  0  0  0  0  0
  1  2  1  0
  1 37  2  0
  1 38  1  0
  3  2  1  0
  3  4  1  0
  3 30  1  6
  4  5  1  0
  4 29  2  0
  5  6  1  0
  6  7  1  6
  6 19  1  0
  7  8  1  0
  8  9  2  0
  8 13  1  0
  9 10  1  0
 10 11  2  0
 11 12  1  0
 11 14  1  0
 12 13  2  0
 14 15  1  0
 15 16  2  0
 15 17  2  0
 15 18  1  0
 19 23  2  0
 20 19  1  0
 21 20  2  0
 21 24  1  0
 22 21  1  0
 22 23  1  0
 24 25  2  0
 24 28  1  0
 25 26  1  0
 26 27  2  0
 27 28  1  0
 30 31  1  0
 31 32  2  0
 31 36  1  0
 32 33  1  0
 33 34  2  0
 34 35  1  0
 35 36  2  0
 38 39  1  0
M  END
>  <DRUGBANK_ID>  (1) 
DB16353

>  <COMMON_NAME>  (1) 
Razuprotafib

>  <CAS_NUMBER>  (1) 
1008510-37-9

>  <UNII>  (1) 
0WAX4UT396

>  <SYNONYMS>  (1) 
Razuprotafib

$$$$
