
     RDKit          2D

 17 17  0  0  1  0  0  0  0  0999 V2000
    0.7145   -0.4125    0.0000 C   0  0  0  0  0  0  0  0  0  0  0  0
    1.4289    0.0000    0.0000 C   0  0  0  0  0  0  0  0  0  0  0  0
   -0.7145    3.7125    0.0000 C   0  0  0  0  0  0  0  0  0  0  0  0
    0.0000    3.3000    0.0000 C   0  0  0  0  0  0  0  0  0  0  0  0
   -0.0000    0.0000    0.0000 C   0  0  0  0  0  0  0  0  0  0  0  0
    1.4289    0.8250    0.0000 C   0  0  0  0  0  0  0  0  0  0  0  0
   -0.7145    4.5375    0.0000 C   0  0  0  0  0  0  0  0  0  0  0  0
    0.0000    2.4750    0.0000 C   0  0  0  0  0  0  0  0  0  0  0  0
    0.0000    0.8250    0.0000 C   0  0  0  0  0  0  0  0  0  0  0  0
    0.7145    1.2375    0.0000 C   0  0  0  0  0  0  0  0  0  0  0  0
   -0.7145    1.2375    0.0000 O   0  0  0  0  0  0  0  0  0  0  0  0
   -2.1434    5.3625    0.0000 O   0  0  0  0  0  0  0  0  0  0  0  0
   -1.0164    5.6645    0.0000 O   0  0  0  0  0  0  0  0  0  0  0  0
   -1.8414    4.2355    0.0000 O   0  0  0  0  0  0  0  0  0  0  0  0
    1.4289    2.4750    0.0000 O   0  0  0  0  0  0  0  0  0  0  0  0
   -1.4289    4.9500    0.0000 P   0  0  0  0  0  0  0  0  0  0  0  0
    0.7145    2.0625    0.0000 S   0  0  0  0  0  0  0  0  0  0  0  0
  2  1  2  0
  4  3  1  0
  5  1  1  0
  6  2  1  0
  7  3  1  0
  8  4  1  0
  9  5  2  0
 10  6  2  0
 10  9  1  0
 11  9  1  0
 16  7  1  0
 16 12  1  0
 16 13  1  0
 16 14  2  0
 17  8  1  0
 17 10  1  0
 17 15  2  0
M  END
>  <DRUGBANK_ID>  (1) 
DB07925

>  <COMMON_NAME>  (1) 
4-(2-HYDROXYPHENYLSULFINYL)-BUTYLPHOSPHONIC ACID

$$$$
