
     RDKit          2D

 33 38  0  0  1  0  0  0  0  0999 V2000
    0.2702    0.6287    0.0000 F   0  0  0  0  0  0  0  0  0  0  0  0
    0.9377    0.1437    0.0000 C   0  0  0  0  0  0  0  0  0  0  0  0
    1.6913    0.4793    0.0000 C   0  0  0  0  0  0  0  0  0  0  0  0
    1.9463    1.2639    0.0000 C   0  0  0  0  0  0  0  0  0  0  0  0
    1.4614    1.9314    0.0000 C   0  0  0  0  0  0  0  0  0  0  0  0
    1.7969    2.6850    0.0000 N   0  0  0  0  0  0  0  0  0  0  0  0
    1.3120    3.3525    0.0000 C   0  0  0  0  0  0  0  0  0  0  0  0
    1.6475    4.1062    0.0000 C   0  0  0  0  0  0  0  0  0  0  0  0
    2.4680    4.1924    0.0000 C   0  0  0  0  0  0  0  0  0  0  0  0
    2.9530    3.5250    0.0000 C   0  0  0  0  0  0  0  0  0  0  0  0
    2.6174    2.7713    0.0000 C   0  0  0  0  0  0  0  0  0  0  0  0
    2.8036    4.9461    0.0000 N   0  0  0  0  0  0  0  0  0  0  0  0
    3.6241    5.0323    0.0000 C   0  0  0  0  0  0  0  0  0  0  0  0
    3.9596    5.7860    0.0000 C   0  0  0  0  0  0  0  0  0  0  0  0
    3.4747    6.4534    0.0000 N   0  0  0  0  0  0  0  0  0  0  0  0
    3.8103    7.2071    0.0000 N   0  0  0  0  0  0  0  0  0  0  0  0
    4.6307    7.2933    0.0000 C   0  0  0  0  0  0  0  0  0  0  0  0
    4.9663    8.0470    0.0000 O   0  0  0  0  0  0  0  0  0  0  0  0
    5.7868    8.1332    0.0000 C   0  0  0  0  0  0  0  0  0  0  0  0
    6.2717    7.4658    0.0000 C   0  0  0  0  0  0  0  0  0  0  0  0
    5.9361    6.7121    0.0000 O   0  0  0  0  0  0  0  0  0  0  0  0
    5.1157    6.6259    0.0000 C   0  0  0  0  0  0  0  0  0  0  0  0
    4.7801    5.8722    0.0000 C   0  0  0  0  0  0  0  0  0  0  0  0
    2.7713    1.2639    0.0000 C   0  0  0  0  0  0  0  0  0  0  0  0
    3.0262    0.4793    0.0000 N   0  0  0  0  0  0  0  0  0  0  0  0
    2.3588   -0.0056    0.0000 C   0  0  0  0  0  0  0  0  0  0  0  0
    2.2725   -0.8261    0.0000 C   0  0  0  0  0  0  0  0  0  0  0  0
    3.1987   -1.1617    0.0000 C   0  0  0  0  0  0  0  0  0  0  0  0
    3.8661   -0.6767    0.0000 C   0  0  0  0  0  0  0  0  0  0  0  0
    3.7799    0.1437    0.0000 C   0  0  0  0  0  0  0  0  0  0  0  0
    4.4473    0.6287    0.0000 O   0  0  0  0  0  0  0  0  0  0  0  0
    1.5189   -1.1617    0.0000 C   0  0  0  0  0  0  0  0  0  0  0  0
    0.8514   -0.6767    0.0000 C   0  0  0  0  0  0  0  0  0  0  0  0
  1  2  1  0
  2  3  2  0
  2 33  1  0
  3 26  1  0
  4  3  1  0
  4  5  1  6
  4 24  1  0
  5  6  1  0
  6  7  1  0
  6 11  1  0
  7  8  1  0
  8  9  1  0
  9 10  1  0
  9 12  1  0
 10 11  1  0
 12 13  1  0
 13 14  1  0
 14 15  2  0
 14 23  1  0
 15 16  1  0
 16 17  2  0
 17 18  1  0
 17 22  1  0
 18 19  1  0
 19 20  1  0
 20 21  1  0
 21 22  1  0
 22 23  2  0
 24 25  1  0
 25 26  1  0
 25 30  1  0
 26 27  2  0
 27 28  1  0
 27 32  1  0
 28 29  2  0
 29 30  1  0
 30 31  2  0
 32 33  2  0
M  END
>  <DRUGBANK_ID>  (1) 
DB15345

>  <COMMON_NAME>  (1) 
GSK-945237

>  <CAS_NUMBER>  (1) 
944406-54-6

>  <UNII>  (1) 
U9T63BZ3AS

$$$$
