55E
     RDKit          2D

 21 23  0  0  0  0  0  0  0  0999 V2000
   -0.3572   -2.6696    0.0000 O   0  0  0  0  0  0  0  0  0  0  0  0
   -0.3572   -1.8446    0.0000 C   0  0  0  0  0  0  0  0  0  0  0  0
    0.3572   -1.4321    0.0000 N   0  0  0  0  0  0  0  0  0  0  0  0
    0.3572   -0.6071    0.0000 C   0  0  0  0  0  0  0  0  0  0  0  0
    1.0717   -0.1946    0.0000 C   0  0  0  0  0  0  0  0  0  0  0  0
    1.0717    0.6304    0.0000 C   0  0  0  0  0  0  0  0  0  0  0  0
    1.7862    1.0429    0.0000 C   0  0  0  0  0  0  0  0  0  0  0  0
    1.7862    1.8679    0.0000 C   0  0  0  0  0  0  0  0  0  0  0  0
    2.5007    0.6304    0.0000 C   0  0  0  0  0  0  0  0  0  0  0  0
    3.2151    1.0429    0.0000 O   0  0  0  0  0  0  0  0  0  0  0  0
    2.5007   -0.1946    0.0000 C   0  0  0  0  0  0  0  0  0  0  0  0
    1.7862   -0.6071    0.0000 C   0  0  0  0  0  0  0  0  0  0  0  0
   -0.3572   -0.1946    0.0000 C   0  0  0  0  0  0  0  0  0  0  0  0
   -1.0717   -0.6071    0.0000 C   0  0  0  0  0  0  0  0  0  0  0  0
   -1.0717   -1.4321    0.0000 N   0  0  0  0  0  0  0  0  0  0  0  0
   -1.7862   -0.1946    0.0000 C   0  0  0  0  0  0  0  0  0  0  0  0
   -1.7862    0.6304    0.0000 C   0  0  0  0  0  0  0  0  0  0  0  0
   -2.5006    1.0429    0.0000 C   0  0  0  0  0  0  0  0  0  0  0  0
   -3.2151    0.6304    0.0000 C   0  0  0  0  0  0  0  0  0  0  0  0
   -3.2151   -0.1946    0.0000 C   0  0  0  0  0  0  0  0  0  0  0  0
   -2.5006   -0.6071    0.0000 C   0  0  0  0  0  0  0  0  0  0  0  0
  1  2  2  0
  2 15  1  0
  3  2  1  0
  3  4  2  0
  4 13  1  0
  5  4  1  0
  5  6  2  0
  7  6  1  0
  7  8  1  0
  9  7  2  0
 10  9  1  0
 11  9  1  0
 11 12  2  0
 12  5  1  0
 13 14  1  0
 14 16  1  0
 15 14  2  0
 16 21  1  0
 16 17  2  0
 17 18  1  0
 18 19  2  0
 20 19  1  0
 21 20  2  0
M  END
>  <DRUGBANK_ID>  (1) 
DB07151

>  <COMMON_NAME>  (1) 
4-(4-hydroxy-3-methylphenyl)-6-phenylpyrimidin-2(5H)-one

$$$$
