
     RDKit          2D

 31 36  0  0  1  0  0  0  0  0999 V2000
    5.8330   -3.5687    0.0000 C   0  0  0  0  0  0  0  0  0  0  0  0
    6.0000   -2.7607    0.0000 C   0  0  0  0  0  0  0  0  0  0  0  0
    6.4887   -3.4254    0.0000 C   0  0  0  0  0  0  0  0  0  0  0  0
    7.3087   -3.3346    0.0000 C   0  0  0  0  0  0  0  0  0  0  0  0
    7.6400   -2.5790    0.0000 C   0  0  0  0  0  0  0  0  0  0  0  0
    7.1513   -1.9143    0.0000 C   0  0  0  0  0  0  0  0  0  0  0  0
    7.4826   -1.1588    0.0000 C   0  0  0  0  0  0  0  0  0  0  0  0
    8.3026   -1.0679    0.0000 C   0  0  0  0  0  0  0  0  0  0  0  0
    8.7913   -1.7326    0.0000 C   0  0  0  0  0  0  0  0  0  0  0  0
    9.6112   -1.6417    0.0000 C   0  0  0  0  0  0  0  0  0  0  0  0
   10.0999   -2.3064    0.0000 C   0  0  0  0  0  0  0  0  0  0  0  0
   10.9199   -2.2156    0.0000 O   0  0  0  0  0  0  0  0  0  0  0  0
    9.7686   -3.0620    0.0000 C   0  0  0  0  0  0  0  0  0  0  0  0
    8.9486   -3.1529    0.0000 C   0  0  0  0  0  0  0  0  0  0  0  0
    8.4600   -2.4882    0.0000 C   0  0  0  0  0  0  0  0  0  0  0  0
    6.3313   -2.0052    0.0000 C   0  0  0  0  0  0  0  0  0  0  0  0
    5.7151   -1.4566    0.0000 C   0  0  0  0  0  0  0  0  0  0  0  0
    5.0030   -1.8731    0.0000 C   0  0  0  0  0  0  0  0  0  0  0  0
    4.1820   -1.7915    0.0000 O   0  0  0  0  0  0  0  0  0  0  0  0
    3.8507   -2.5471    0.0000 C   0  0  0  0  0  0  0  0  0  0  0  0
    4.4669   -3.0956    0.0000 O   0  0  0  0  0  0  0  0  0  0  0  0
    5.1791   -2.6791    0.0000 C   0  0  0  0  0  0  0  0  0  0  0  0
    5.3551   -3.4851    0.0000 C   0  0  0  0  0  0  0  0  0  0  0  0
    6.0253   -3.9663    0.0000 O   0  0  0  0  0  0  0  0  0  0  0  0
    4.7452   -4.0406    0.0000 C   0  0  0  0  0  0  0  0  0  0  0  0
    3.9591   -3.7901    0.0000 F   0  0  0  0  0  0  0  0  0  0  0  0
    3.0447   -2.7231    0.0000 C   0  0  0  0  0  0  0  0  0  0  0  0
    2.4285   -2.1746    0.0000 C   0  0  0  0  0  0  0  0  0  0  0  0
    1.7164   -2.5911    0.0000 C   0  0  0  0  0  0  0  0  0  0  0  0
    1.8925   -3.3971    0.0000 C   0  0  0  0  0  0  0  0  0  0  0  0
    2.7134   -3.4787    0.0000 O   0  0  0  0  0  0  0  0  0  0  0  0
  2  1  1  1
  2  3  1  0
  2 16  1  0
  2 22  1  0
  3  4  1  0
  5  4  1  1
  5 15  1  0
  6  5  1  0
  6  7  1  6
  7  8  1  0
  8  9  1  0
  9 10  2  0
 10 11  1  0
 11 12  2  0
 11 13  1  0
 13 14  1  0
 15 14  1  6
 15  9  1  0
 16  6  1  0
 16 17  1  1
 18 17  1  6
 18 19  1  0
 20 19  1  0
 20 21  1  0
 20 27  1  6
 22 21  1  0
 22 18  1  0
 22 23  1  1
 23 24  2  0
 23 25  1  0
 25 26  1  0
 27 28  2  0
 27 31  1  0
 28 29  1  0
 29 30  2  0
 30 31  1  0
M  ISO  1  26  18
M  END
>  <DRUGBANK_ID>  (1) 
DB15282

>  <COMMON_NAME>  (1) 
Fluorofuranylnorprogesterone F-18

>  <CAS_NUMBER>  (1) 
160388-43-2

>  <UNII>  (1) 
3I798OGQ8B

>  <SYNONYMS>  (1) 
18F-FFNP

$$$$
