
     RDKit          2D

 27 29  0  0  1  0  0  0  0  0999 V2000
   -0.9709    2.5446    0.0000 C   0  0  0  0  0  0  0  0  0  0  0  0
   -1.7747    2.1991    0.0000 C   0  0  0  0  0  0  0  0  0  0  0  0
   -0.1417    2.1557    0.0000 C   0  0  0  0  0  0  0  0  0  0  0  0
   -1.8640    1.3071    0.0000 C   0  0  0  0  0  0  0  0  0  0  0  0
   -1.4518    0.7104    0.0000 C   0  0  0  0  0  0  0  0  0  0  0  0
   -0.1001    1.2460    0.0000 C   0  0  0  0  0  0  0  0  0  0  0  0
   -0.5019    0.6888    0.0000 S   0  0  0  0  0  0  0  0  0  0  0  0
   -2.5335    2.4954    0.0000 S   0  0  0  0  0  0  0  0  0  0  0  0
   -3.0825    1.8797    0.0000 C   0  0  0  0  0  0  0  0  0  0  0  0
   -2.6666    1.1673    0.0000 C   0  0  0  0  0  0  0  0  0  0  0  0
    0.6285    0.9521    0.0000 C   0  0  0  0  0  0  0  0  0  0  0  0
    1.3234    1.3967    0.0000 C   0  0  0  0  0  0  0  0  0  0  0  0
    1.2858    2.2209    0.0000 C   0  0  0  0  0  0  0  0  0  0  0  0
    0.5532    2.6004    0.0000 C   0  0  0  0  0  0  0  0  0  0  0  0
   -0.9709    3.3696    0.0000 O   0  0  0  0  0  0  0  0  0  0  0  0
    0.5532    3.4254    0.0000 N   0  0  0  0  0  0  0  0  0  0  0  0
    1.2206    3.9103    0.0000 C   0  0  0  0  0  0  0  0  0  0  0  0
    1.2206    4.7353    0.0000 O   0  0  0  0  0  0  0  0  0  0  0  0
    1.9351    3.4978    0.0000 C   0  0  0  0  0  0  0  0  0  0  0  0
    2.5482    4.0499    0.0000 C   0  0  0  0  0  0  0  0  0  0  0  0
    1.3830    2.8847    0.0000 C   0  0  0  0  0  0  0  0  0  0  0  0
    2.3473    2.8565    0.0000 O   0  0  0  0  0  0  0  0  0  0  0  0
   -0.8374   -0.0648    0.0000 O   0  0  0  0  0  0  0  0  0  0  0  0
    0.2125    0.2763    0.0000 O   0  0  0  0  0  0  0  0  0  0  0  0
    2.1240    4.6740    0.0000 F   0  0  0  0  0  0  0  0  0  0  0  0
    3.1542    4.6232    0.0000 F   0  0  0  0  0  0  0  0  0  0  0  0
    3.0400    3.4525    0.0000 F   0  0  0  0  0  0  0  0  0  0  0  0
  1  2  1  0
  1  3  1  0
  1 15  2  0
  2  4  2  0
  2  8  1  0
  3  6  2  0
  4  5  1  0
  4 10  1  0
  5  7  1  0
  6 11  1  0
  6  7  1  0
  7 23  2  0
  7 24  2  0
  8  9  1  0
  9 10  2  0
 11 12  2  0
 12 13  1  0
 13 14  2  0
 14  3  1  0
 14 16  1  0
 16 17  1  0
 17 18  2  0
 19 17  1  0
 19 20  1  0
 19 21  1  6
 19 22  1  0
 20 25  1  0
 20 26  1  0
 20 27  1  0
M  END
>  <DRUGBANK_ID>  (1) 
DB05498

>  <COMMON_NAME>  (1) 
KW-7158

>  <UNII>  (1) 
S2T07V1P1G

$$$$
