
     RDKit          2D

 18 18  0  0  0  0  0  0  0  0999 V2000
   -0.7145    0.4125    0.0000 C   0  0  0  0  0  0  0  0  0  0  0  0
   -0.7145   -0.4124    0.0000 C   0  0  0  0  0  0  0  0  0  0  0  0
    0.0000   -0.8250    0.0000 O   0  0  0  0  0  0  0  0  0  0  0  0
   -1.4290   -0.8250    0.0000 C   0  0  0  0  0  0  0  0  0  0  0  0
   -1.4290   -1.6501    0.0000 O   0  0  0  0  0  0  0  0  0  0  0  0
   -2.1436   -0.4124    0.0000 C   0  0  0  0  0  0  0  0  0  0  0  0
   -2.8580   -0.8250    0.0000 O   0  0  0  0  0  0  0  0  0  0  0  0
   -2.1436    0.4125    0.0000 C   0  0  0  0  0  0  0  0  0  0  0  0
   -1.4290    0.8251    0.0000 O   0  0  0  0  0  0  0  0  0  0  0  0
   -2.8580    0.8251    0.0000 C   0  0  0  0  0  0  0  0  0  0  0  0
   -2.8580    1.6501    0.0000 O   0  0  0  0  0  0  0  0  0  0  0  0
    0.0000    0.8251    0.0000 N   0  0  0  0  0  0  0  0  0  0  0  0
    0.7145    0.4125    0.0000 C   0  0  0  0  0  0  0  0  0  0  0  0
    0.7145   -0.4124    0.0000 O   0  0  0  0  0  0  0  0  0  0  0  0
    1.4290    0.8251    0.0000 N   0  0  0  0  0  0  0  0  0  0  0  0
    2.1436    0.4125    0.0000 C   0  0  0  0  0  0  0  0  0  0  0  0
    2.8580    0.8251    0.0000 C   0  0  0  0  0  0  0  0  0  0  0  0
    2.1436   -0.4124    0.0000 O   0  0  0  0  0  0  0  0  0  0  0  0
  1  2  1  0
  1  9  1  0
  1 12  1  1
  2  3  1  6
  2  4  1  0
  4  5  1  1
  4  6  1  0
  6  7  1  6
  6  8  1  0
  8  9  1  0
  8 10  1  1
 10 11  1  0
 13 12  1  0
 13 14  2  0
 13 15  1  0
 16 15  1  0
 16 17  1  0
 16 18  2  0
M  END
>  <DRUGBANK_ID>  (1) 
DB03218

>  <SECONDARY_ACCESSION_NUMBERS>  (1) 
EXPT00600

>  <COMMON_NAME>  (1) 
N-acetyl-N'-beta-D-glucopyranosyl urea

$$$$
