TL5
     RDKit          2D

 15 15  0  0  0  0  0  0  0  0999 V2000
    1.4618   -2.8738    0.0000 O   0  0  0  0  0  0  0  0  0  0  0  0
    0.9768   -2.2064    0.0000 C   0  0  0  0  0  0  0  0  0  0  0  0
    0.1518   -2.2064    0.0000 C   0  0  0  0  0  0  0  0  0  0  0  0
   -0.3331   -2.8738    0.0000 C   0  0  0  0  0  0  0  0  0  0  0  0
    1.2318   -1.4218    0.0000 S   0  0  0  0  0  0  0  0  0  0  0  0
    0.5643   -0.9369    0.0000 C   0  0  0  0  0  0  0  0  0  0  0  0
   -0.1031   -1.4218    0.0000 C   0  0  0  0  0  0  0  0  0  0  0  0
   -0.8877   -1.1668    0.0000 O   0  0  0  0  0  0  0  0  0  0  0  0
    0.9693   -0.2181    0.0000 C   0  0  0  0  0  0  0  0  0  0  0  0
    0.1593   -0.2181    0.0000 C   0  0  0  0  0  0  0  0  0  0  0  0
    0.5793    0.4920    0.0000 C   0  0  0  0  0  0  0  0  0  0  0  0
    1.4043    0.4834    0.0000 C   0  0  0  0  0  0  0  0  0  0  0  0
    0.1743    1.2108    0.0000 C   0  0  0  0  0  0  0  0  0  0  0  0
    0.5943    1.9209    0.0000 C   0  0  0  0  0  0  0  0  0  0  0  0
    0.1893    2.6396    0.0000 C   0  0  0  0  0  0  0  0  0  0  0  0
  1  2  2  0
  2  3  1  0
  2  5  1  0
  3  4  1  0
  3  7  2  0
  5  6  1  0
  6  7  1  0
  6  9  1  6
  6 10  1  0
  7  8  1  0
 10 11  2  0
 11 12  1  0
 11 13  1  0
 13 14  2  0
 14 15  1  0
M  END
>  <DRUGBANK_ID>  (1) 
DB08627

>  <COMMON_NAME>  (1) 
(5R)-4-HYDROXY-3,5-DIMETHYL-5-[(1E,3E)-2-METHYLPENTA-1,3-DIENYL]THIOPHEN-2(5H)-ONE

$$$$
