
     RDKit          2D

 27 29  0  0  1  0  0  0  0  0999 V2000
    1.7798    3.9841    0.0000 C   0  0  0  0  0  0  0  0  0  0  0  0
    3.9934    0.8250    0.0000 C   0  0  0  0  0  0  0  0  0  0  0  0
    1.2949    0.4125    0.0000 C   0  0  0  0  0  0  0  0  0  0  0  0
    1.5249    3.1994    0.0000 C   0  0  0  0  0  0  0  0  0  0  0  0
    2.5645    0.0000    0.0000 C   0  0  0  0  0  0  0  0  0  0  0  0
    0.7403    2.9445    0.0000 C   0  0  0  0  0  0  0  0  0  0  0  0
    0.7403    2.1195    0.0000 C   0  0  0  0  0  0  0  0  0  0  0  0
    2.5645    0.8250    0.0000 C   0  0  0  0  0  0  0  0  0  0  0  0
    3.2789   -0.4125    0.0000 C   0  0  0  0  0  0  0  0  0  0  0  0
    1.5249    1.8646    0.0000 C   0  0  0  0  0  0  0  0  0  0  0  0
    3.2789    1.2375    0.0000 N   0  0  0  0  0  0  0  0  0  0  0  0
    3.9934    0.0000    0.0000 N   0  0  0  0  0  0  0  0  0  0  0  0
    1.7798   -0.2549    0.0000 N   0  0  0  0  0  0  0  0  0  0  0  0
    1.7798    1.0799    0.0000 N   0  0  0  0  0  0  0  0  0  0  0  0
    0.0728    3.4294    0.0000 O   0  0  0  0  0  0  0  0  0  0  0  0
    0.0728    1.6346    0.0000 O   0  0  0  0  0  0  0  0  0  0  0  0
    1.7377    6.1664    0.0000 O   0  0  0  0  0  0  0  0  0  0  0  0
    0.6981    5.6367    0.0000 O   0  0  0  0  0  0  0  0  0  0  0  0
    2.2674    5.1268    0.0000 O   0  0  0  0  0  0  0  0  0  0  0  0
    4.7079   -2.0625    0.0000 O   0  0  0  0  0  0  0  0  0  0  0  0
    3.5809   -2.3645    0.0000 O   0  0  0  0  0  0  0  0  0  0  0  0
    4.4059   -0.9355    0.0000 O   0  0  0  0  0  0  0  0  0  0  0  0
    1.2278    4.5972    0.0000 O   0  0  0  0  0  0  0  0  0  0  0  0
    2.0098    2.5320    0.0000 O   0  0  0  0  0  0  0  0  0  0  0  0
    3.2789   -1.2375    0.0000 O   0  0  0  0  0  0  0  0  0  0  0  0
    1.4827    5.3818    0.0000 P   0  0  0  0  0  0  0  0  0  0  0  0
    3.9934   -1.6500    0.0000 P   0  0  0  0  0  0  0  0  0  0  0  0
  4  1  1  1
  6  4  1  0
  6 15  1  6
  7  6  1  0
  7 16  1  6
  8  5  2  0
  9  5  1  0
 10  7  1  0
 10 14  1  1
 11  2  2  0
 11  8  1  0
 12  2  1  0
 12  9  2  0
 13  3  2  0
 13  5  1  0
 14  3  1  0
 14  8  1  0
 23  1  1  0
 24  4  1  0
 24 10  1  0
 25  9  1  0
 26 17  1  0
 26 18  1  0
 26 19  2  0
 26 23  1  0
 27 20  1  0
 27 21  1  0
 27 22  2  0
 27 25  1  0
M  END
>  <DRUGBANK_ID>  (1) 
DB03510

>  <SECONDARY_ACCESSION_NUMBERS>  (1) 
EXPT01873

>  <COMMON_NAME>  (1) 
6-O-Phosphoryl Inosine Monophosphate

$$$$
