642
     RDKit          2D

 35 40  0  0  0  0  0  0  0  0999 V2000
    1.5540   -4.4006    0.0000 C   0  0  0  0  0  0  0  0  0  0  0  0
    0.8003   -4.0650    0.0000 C   0  0  0  0  0  0  0  0  0  0  0  0
    0.8865   -4.8855    0.0000 C   0  0  0  0  0  0  0  0  0  0  0  0
    2.3744   -4.3143    0.0000 C   0  0  0  0  0  0  0  0  0  0  0  0
    2.8594   -4.9818    0.0000 O   0  0  0  0  0  0  0  0  0  0  0  0
    2.7100   -3.5607    0.0000 O   0  0  0  0  0  0  0  0  0  0  0  0
   -0.0247   -4.0650    0.0000 C   0  0  0  0  0  0  0  0  0  0  0  0
   -0.2797   -3.2804    0.0000 N   0  0  0  0  0  0  0  0  0  0  0  0
   -0.5096   -4.7325    0.0000 O   0  0  0  0  0  0  0  0  0  0  0  0
    0.3878   -2.7955    0.0000 C   0  0  0  0  0  0  0  0  0  0  0  0
    1.0552   -3.2804    0.0000 C   0  0  0  0  0  0  0  0  0  0  0  0
    0.3878   -1.9705    0.0000 C   0  0  0  0  0  0  0  0  0  0  0  0
    1.1023   -1.5580    0.0000 C   0  0  0  0  0  0  0  0  0  0  0  0
    1.1023   -0.7330    0.0000 C   0  0  0  0  0  0  0  0  0  0  0  0
    0.3878   -0.3205    0.0000 C   0  0  0  0  0  0  0  0  0  0  0  0
   -0.3267   -0.7330    0.0000 C   0  0  0  0  0  0  0  0  0  0  0  0
   -0.3267   -1.5580    0.0000 C   0  0  0  0  0  0  0  0  0  0  0  0
    0.3878    0.5045    0.0000 O   0  0  0  0  0  0  0  0  0  0  0  0
   -0.3267    0.9170    0.0000 C   0  0  0  0  0  0  0  0  0  0  0  0
   -0.3267    1.7420    0.0000 C   0  0  0  0  0  0  0  0  0  0  0  0
   -0.3267    3.3920    0.0000 N   0  0  0  0  0  0  0  0  0  0  0  0
   -1.0412    2.9795    0.0000 C   0  0  0  0  0  0  0  0  0  0  0  0
   -1.0412    2.1545    0.0000 C   0  0  0  0  0  0  0  0  0  0  0  0
    0.3878    2.9795    0.0000 C   0  0  0  0  0  0  0  0  0  0  0  0
    0.3878    2.1545    0.0000 C   0  0  0  0  0  0  0  0  0  0  0  0
    1.1023    1.7420    0.0000 C   0  0  0  0  0  0  0  0  0  0  0  0
    1.8167    2.1545    0.0000 C   0  0  0  0  0  0  0  0  0  0  0  0
    1.8167    2.9795    0.0000 C   0  0  0  0  0  0  0  0  0  0  0  0
    1.1023    3.3920    0.0000 C   0  0  0  0  0  0  0  0  0  0  0  0
   -1.7556    3.3920    0.0000 C   0  0  0  0  0  0  0  0  0  0  0  0
   -1.7556    4.2170    0.0000 C   0  0  0  0  0  0  0  0  0  0  0  0
   -2.4701    4.6295    0.0000 C   0  0  0  0  0  0  0  0  0  0  0  0
   -3.1846    4.2170    0.0000 C   0  0  0  0  0  0  0  0  0  0  0  0
   -3.1846    3.3920    0.0000 C   0  0  0  0  0  0  0  0  0  0  0  0
   -2.4701    2.9795    0.0000 C   0  0  0  0  0  0  0  0  0  0  0  0
  1  4  1  1
  2  1  1  0
  2  7  1  0
  2 11  1  1
  3  1  1  0
  3  2  1  0
  4  6  1  0
  5  4  2  0
  7  8  1  0
  8 10  1  0
  9  7  2  0
 10 12  1  6
 11 10  1  0
 12 17  1  0
 12 13  2  0
 13 14  1  0
 14 15  2  0
 15 18  1  0
 16 15  1  0
 17 16  2  0
 18 19  1  0
 19 20  1  0
 20 25  2  0
 21 24  2  0
 22 21  1  0
 23 20  1  0
 23 22  2  0
 24 29  1  0
 25 24  1  0
 25 26  1  0
 26 27  2  0
 27 28  1  0
 29 28  2  0
 30 22  1  0
 31 30  2  0
 32 31  1  0
 33 32  2  0
 34 33  1  0
 34 35  2  0
 35 30  1  0
M  END
>  <DRUGBANK_ID>  (1) 
DB07189

>  <COMMON_NAME>  (1) 
(1S,3R,6S)-4-oxo-6-{4-[(2-phenylquinolin-4-yl)methoxy]phenyl}-5-azaspiro[2.4]heptane-1-carboxylic acid

$$$$
