
     RDKit          2D

 13 13  0  0  0  0  0  0  0  0999 V2000
   -0.3572   -1.2374    0.0000 C   0  0  0  0  0  0  0  0  0  0  0  0
   -1.0717   -0.8250    0.0000 C   0  0  0  0  0  0  0  0  0  0  0  0
    0.3572   -0.8250    0.0000 C   0  0  0  0  0  0  0  0  0  0  0  0
    0.3572    0.0000    0.0000 C   0  0  0  0  0  0  0  0  0  0  0  0
   -0.3572    0.4125    0.0000 C   0  0  0  0  0  0  0  0  0  0  0  0
   -1.0717    0.0000    0.0000 C   0  0  0  0  0  0  0  0  0  0  0  0
    1.7860   -0.8250    0.0000 C   0  0  0  0  0  0  0  0  0  0  0  0
    1.7860    0.0000    0.0000 O   0  0  0  0  0  0  0  0  0  0  0  0
    2.5005   -1.2374    0.0000 O   0  0  0  0  0  0  0  0  0  0  0  0
    1.0716   -1.2374    0.0000 C   0  0  0  0  0  0  0  0  0  0  0  0
   -1.7861    0.4125    0.0000 N   0  0  0  0  0  0  0  0  0  0  0  0
   -1.7861    1.2374    0.0000 O   0  0  0  0  0  0  0  0  0  0  0  0
   -2.5006    0.0000    0.0000 O   0  0  0  0  0  0  0  0  0  0  0  0
  1  3  2  0
  2  1  1  0
  3 10  1  0
  4  3  1  0
  5  4  2  0
  6  5  1  0
  6  2  2  0
  6 11  1  0
  8  7  2  0
  9  7  1  0
 10  7  1  0
 11 12  2  0
 11 13  1  0
M  CHG  2  11   1  13  -1
M  END
>  <DRUGBANK_ID>  (1) 
DB07331

>  <COMMON_NAME>  (1) 
p-Nitrophenylacetic acid

>  <CAS_NUMBER>  (1) 
104-03-0

>  <UNII>  (1) 
KLB4P626RE

>  <SYNONYMS>  (1) 
(4-nitrophenyl)acetic acid; 2-(p-nitrophenyl)acetic acid; 4-nitrobenzeneacetic acid; 4-nitrophenylacetic acid

$$$$
