
     RDKit          2D

 20 20  0  0  0  0  0  0  0  0999 V2000
    2.3649    0.1278    0.0000 O   0  0  0  0  0  0  0  0  0  0  0  0
   -0.4930   -0.6971    0.0000 O   0  0  0  0  0  0  0  0  0  0  0  0
    0.9359   -0.6971    0.0000 N   0  0  0  0  0  0  0  0  0  0  0  0
   -0.4930    2.6029    0.0000 N   0  0  0  0  0  0  0  0  0  0  0  0
    1.6503    1.3653    0.0000 N   0  0  0  0  0  0  0  0  0  0  0  0
   -1.2075    3.8404    0.0000 N   0  0  0  0  0  0  0  0  0  0  0  0
    0.2214    0.5403    0.0000 C   0  0  0  0  0  0  0  0  0  0  0  0
    0.9359    0.1278    0.0000 C   0  0  0  0  0  0  0  0  0  0  0  0
    0.2214    1.3653    0.0000 C   0  0  0  0  0  0  0  0  0  0  0  0
   -0.4930    1.7778    0.0000 C   0  0  0  0  0  0  0  0  0  0  0  0
    1.6503    0.5403    0.0000 C   0  0  0  0  0  0  0  0  0  0  0  0
    0.2214   -1.1096    0.0000 C   0  0  0  0  0  0  0  0  0  0  0  0
    0.2214   -1.9346    0.0000 C   0  0  0  0  0  0  0  0  0  0  0  0
   -0.4930   -2.3471    0.0000 C   0  0  0  0  0  0  0  0  0  0  0  0
    0.9359   -2.3471    0.0000 C   0  0  0  0  0  0  0  0  0  0  0  0
   -1.2075    3.0153    0.0000 C   0  0  0  0  0  0  0  0  0  0  0  0
   -0.4930   -3.1721    0.0000 C   0  0  0  0  0  0  0  0  0  0  0  0
    0.9359   -3.1721    0.0000 C   0  0  0  0  0  0  0  0  0  0  0  0
    0.2214   -3.5846    0.0000 C   0  0  0  0  0  0  0  0  0  0  0  0
   -1.9219    2.6029    0.0000 C   0  0  0  0  0  0  0  0  0  0  0  0
  1 11  2  0
  2 12  2  0
  3 12  1  0
  4 10  1  0
  4 16  2  0
  5 11  1  0
  6 16  1  0
  8  7  1  1
  7  9  1  0
  8  3  1  0
  8 11  1  0
  9 10  1  0
 12 13  1  0
 13 14  2  0
 13 15  1  0
 14 17  1  0
 15 18  2  0
 16 20  1  0
 17 19  2  0
 18 19  1  0
M  END
>  <DRUGBANK_ID>  (1) 
DB07449

>  <COMMON_NAME>  (1) 
N-[(1S)-1-(aminocarbonyl)-4-(ethanimidoylamino)butyl]benzamide

$$$$
