PO1
     RDKit          2D

 30 33  0  0  0  0  0  0  0  0999 V2000
    2.5246   -0.3523    0.0000 C   0  0  0  0  0  0  0  0  0  0  0  0
    2.2443    0.4236    0.0000 C   0  0  0  0  0  0  0  0  0  0  0  0
    3.8973   -2.0494    0.0000 O   0  0  0  0  0  0  0  0  0  0  0  0
    3.6170   -1.2734    0.0000 S   0  0  0  0  0  0  0  0  0  0  0  0
    4.3930   -0.9931    0.0000 O   0  0  0  0  0  0  0  0  0  0  0  0
    2.8411   -1.5537    0.0000 N   0  0  0  0  0  0  0  0  0  0  0  0
    3.3367   -0.4975    0.0000 O   0  0  0  0  0  0  0  0  0  0  0  0
    1.4322    0.5688    0.0000 C   0  0  0  0  0  0  0  0  0  0  0  0
    0.9004   -0.0619    0.0000 C   0  0  0  0  0  0  0  0  0  0  0  0
    1.1807   -0.8378    0.0000 C   0  0  0  0  0  0  0  0  0  0  0  0
    1.9928   -0.9830    0.0000 C   0  0  0  0  0  0  0  0  0  0  0  0
    2.7761    1.0543    0.0000 O   0  0  0  0  0  0  0  0  0  0  0  0
    2.4958    1.8303    0.0000 C   0  0  0  0  0  0  0  0  0  0  0  0
    0.0883    0.0833    0.0000 C   0  0  0  0  0  0  0  0  0  0  0  0
   -0.4435   -0.5474    0.0000 C   0  0  0  0  0  0  0  0  0  0  0  0
   -0.1632   -1.3233    0.0000 C   0  0  0  0  0  0  0  0  0  0  0  0
    0.6489   -1.4685    0.0000 C   0  0  0  0  0  0  0  0  0  0  0  0
   -0.1920    0.8593    0.0000 C   0  0  0  0  0  0  0  0  0  0  0  0
   -1.0041    1.0045    0.0000 C   0  0  0  0  0  0  0  0  0  0  0  0
   -1.5360    0.3738    0.0000 C   0  0  0  0  0  0  0  0  0  0  0  0
   -1.2557   -0.4021    0.0000 C   0  0  0  0  0  0  0  0  0  0  0  0
   -1.8958    1.1161    0.0000 C   0  0  0  0  0  0  0  0  0  0  0  0
   -2.3605    0.3470    0.0000 C   0  0  0  0  0  0  0  0  0  0  0  0
   -2.5898   -0.4455    0.0000 C   0  0  0  0  0  0  0  0  0  0  0  0
   -1.9070   -0.9085    0.0000 C   0  0  0  0  0  0  0  0  0  0  0  0
   -2.8669    0.9983    0.0000 O   0  0  0  0  0  0  0  0  0  0  0  0
   -3.6841    0.8854    0.0000 S   0  0  0  0  0  0  0  0  0  0  0  0
   -4.5014    0.7726    0.0000 O   0  0  0  0  0  0  0  0  0  0  0  0
   -3.7970    1.7027    0.0000 O   0  0  0  0  0  0  0  0  0  0  0  0
   -3.5713    0.0682    0.0000 N   0  0  0  0  0  0  0  0  0  0  0  0
  1  2  2  0
  1  7  1  0
  1 11  1  0
  2  8  1  0
  2 12  1  0
  3  4  2  0
  4  5  2  0
  4  6  1  0
  4  7  1  0
  8  9  2  0
  9 10  1  0
  9 14  1  0
 10 11  2  0
 10 17  1  0
 12 13  1  0
 14 15  1  0
 14 18  1  6
 15 16  1  1
 15 21  1  0
 16 17  1  0
 18 19  1  0
 19 20  1  0
 20 21  1  0
 20 22  1  6
 20 23  1  0
 21 25  1  6
 23 24  1  0
 23 26  1  6
 24 25  1  0
 26 27  1  0
 27 28  2  0
 27 29  2  0
 27 30  1  0
M  END
>  <DRUGBANK_ID>  (1) 
DB08416

>  <COMMON_NAME>  (1) 
(9BETA,13ALPHA,14BETA,17ALPHA)-2-METHOXYESTRA-1,3,5(10)-TRIENE-3,17-DIYL DISULFAMATE

>  <UNII>  (1) 
S57SQE6LE5

$$$$
