
     RDKit          2D

 21 21  0  0  0  0  0  0  0  0999 V2000
   -0.3572   -0.8864    0.0000 O   0  0  0  0  0  0  0  0  0  0  0  0
    0.3572    1.1760    0.0000 O   0  0  0  0  0  0  0  0  0  0  0  0
   -1.7861   -2.5365    0.0000 O   0  0  0  0  0  0  0  0  0  0  0  0
   -0.3572   -2.5365    0.0000 O   0  0  0  0  0  0  0  0  0  0  0  0
   -2.3092    1.8906    0.0000 O   0  0  0  0  0  0  0  0  0  0  0  0
   -1.0717    1.1760    0.0000 N   0  0  0  0  0  0  0  0  0  0  0  0
   -2.5007    0.3510    0.0000 N   0  0  0  0  0  0  0  0  0  0  0  0
    1.0718   -0.0614    0.0000 N   0  0  0  0  0  0  0  0  0  0  0  0
   -1.0717    0.3510    0.0000 C   0  0  0  0  0  0  0  0  0  0  0  0
   -1.7861   -0.0614    0.0000 C   0  0  0  0  0  0  0  0  0  0  0  0
   -0.3572   -0.0614    0.0000 C   0  0  0  0  0  0  0  0  0  0  0  0
   -1.7861   -0.8864    0.0000 C   0  0  0  0  0  0  0  0  0  0  0  0
   -1.0717   -1.2990    0.0000 C   0  0  0  0  0  0  0  0  0  0  0  0
    0.3572    0.3510    0.0000 C   0  0  0  0  0  0  0  0  0  0  0  0
   -1.0717   -2.1240    0.0000 C   0  0  0  0  0  0  0  0  0  0  0  0
   -1.4842    1.8905    0.0000 C   0  0  0  0  0  0  0  0  0  0  0  0
    1.7862    0.3510    0.0000 C   0  0  0  0  0  0  0  0  0  0  0  0
    1.0718   -0.8864    0.0000 C   0  0  0  0  0  0  0  0  0  0  0  0
   -1.0717    2.6050    0.0000 C   0  0  0  0  0  0  0  0  0  0  0  0
    2.5007   -0.0614    0.0000 C   0  0  0  0  0  0  0  0  0  0  0  0
    1.7862   -1.2990    0.0000 C   0  0  0  0  0  0  0  0  0  0  0  0
  1 11  1  0
  1 13  1  0
  2 14  2  0
  3 15  1  0
  4 15  2  0
  5 16  2  0
  6 16  1  0
  8 14  1  0
  8 17  1  0
  8 18  1  0
  9  6  1  1
  9 10  1  0
  9 11  1  0
 10  7  1  6
 10 12  1  0
 11 14  1  6
 12 13  1  0
 13 15  1  1
 16 19  1  0
 17 20  1  0
 18 21  1  0
M  END
>  <DRUGBANK_ID>  (1) 
DB02529

>  <SECONDARY_ACCESSION_NUMBERS>  (1) 
EXPT01524

>  <COMMON_NAME>  (1) 
(2R,4S,5R,6R)-5-Acetamido-4-amino-6-(diethylcarbamoyl)oxane-2-carboxylic acid

$$$$
