
     RDKit          2D

 32 35  0  0  1  0  0  0  0  0999 V2000
    0.7145    1.2375    0.0000 C   0  0  0  0  0  0  0  0  0  0  0  0
    0.0000    0.8250    0.0000 C   0  0  0  0  0  0  0  0  0  0  0  0
    0.0000   -0.0000    0.0000 C   0  0  0  0  0  0  0  0  0  0  0  0
   -0.7145   -0.4125    0.0000 C   0  0  0  0  0  0  0  0  0  0  0  0
   -0.7145   -1.2375    0.0000 C   0  0  0  0  0  0  0  0  0  0  0  0
    0.0000   -1.6500    0.0000 C   0  0  0  0  0  0  0  0  0  0  0  0
    0.7145   -1.2375    0.0000 C   0  0  0  0  0  0  0  0  0  0  0  0
    0.7145   -0.4125    0.0000 C   0  0  0  0  0  0  0  0  0  0  0  0
    1.4289   -0.0000    0.0000 C   0  0  0  0  0  0  0  0  0  0  0  0
    2.1434   -0.4125    0.0000 C   0  0  0  0  0  0  0  0  0  0  0  0
    2.1434   -1.2375    0.0000 C   0  0  0  0  0  0  0  0  0  0  0  0
    1.4289   -1.6500    0.0000 C   0  0  0  0  0  0  0  0  0  0  0  0
   -1.4289   -1.6500    0.0000 Cl  0  0  0  0  0  0  0  0  0  0  0  0
   -0.7145    1.2375    0.0000 N   0  0  0  0  0  0  0  0  0  0  0  0
   -1.4289    0.8250    0.0000 C   0  0  0  0  0  0  0  0  0  0  0  0
   -0.7145    2.0625    0.0000 C   0  0  0  0  0  0  0  0  0  0  0  0
    0.0000    2.4750    0.0000 O   0  0  0  0  0  0  0  0  0  0  0  0
   -1.4289    2.4750    0.0000 C   0  0  0  0  0  0  0  0  0  0  0  0
   -1.4289    3.3000    0.0000 C   0  0  0  0  0  0  0  0  0  0  0  0
   -1.7111    4.0752    0.0000 C   0  0  0  0  0  0  0  0  0  0  0  0
   -1.1808    4.7072    0.0000 C   0  0  0  0  0  0  0  0  0  0  0  0
   -0.3683    4.5640    0.0000 N   0  0  0  0  0  0  0  0  0  0  0  0
   -0.0862    3.7887    0.0000 C   0  0  0  0  0  0  0  0  0  0  0  0
   -0.6165    3.1567    0.0000 C   0  0  0  0  0  0  0  0  0  0  0  0
    0.1620    5.1960    0.0000 C   0  0  0  0  0  0  0  0  0  0  0  0
   -2.2414    3.1567    0.0000 C   0  0  0  0  0  0  0  0  0  0  0  0
   -2.5236    2.3815    0.0000 C   0  0  0  0  0  0  0  0  0  0  0  0
   -3.3360    2.2382    0.0000 C   0  0  0  0  0  0  0  0  0  0  0  0
   -3.8663    2.8702    0.0000 C   0  0  0  0  0  0  0  0  0  0  0  0
   -3.5842    3.6455    0.0000 C   0  0  0  0  0  0  0  0  0  0  0  0
   -2.7717    3.7887    0.0000 C   0  0  0  0  0  0  0  0  0  0  0  0
   -4.6788    2.7270    0.0000 F   0  0  0  0  0  0  0  0  0  0  0  0
  2  1  1  1
  2  3  1  0
  2 14  1  0
  3  4  2  0
  3  8  1  0
  4  5  1  0
  5  6  2  0
  5 13  1  0
  6  7  1  0
  7  8  2  0
  7 12  1  0
  8  9  1  0
  9 10  2  0
 10 11  1  0
 11 12  2  0
 14 15  1  0
 14 16  1  0
 16 17  2  0
 16 18  1  0
 18 19  1  0
 19 20  1  0
 19 24  1  0
 19 26  1  0
 20 21  1  0
 21 22  1  0
 22 23  1  0
 22 25  1  0
 23 24  1  0
 26 27  2  0
 26 31  1  0
 27 28  1  0
 28 29  2  0
 29 30  1  0
 29 32  1  0
 30 31  2  0
M  END
>  <DRUGBANK_ID>  (1) 
DB12219

>  <COMMON_NAME>  (1) 
GSK-424887

>  <UNII>  (1) 
IYI99KCF2T

$$$$
