
     RDKit          2D

 11 10  0  0  0  0  0  0  0  0999 V2000
    1.6656   -0.7221    0.0000 C   0  0  0  0  0  0  0  0  0  0  0  0
    2.4906   -0.7221    0.0000 C   0  0  0  0  0  0  0  0  0  0  0  0
    1.2531   -1.4365    0.0000 O   0  0  0  0  0  0  0  0  0  0  0  0
    1.2531   -0.0076    0.0000 C   0  0  0  0  0  0  0  0  0  0  0  0
    0.4281   -0.0076    0.0000 C   0  0  0  0  0  0  0  0  0  0  0  0
    0.0156    0.7068    0.0000 C   0  0  0  0  0  0  0  0  0  0  0  0
   -0.8093    0.7068    0.0000 C   0  0  0  0  0  0  0  0  0  0  0  0
   -1.2218   -0.0076    0.0000 C   0  0  0  0  0  0  0  0  0  0  0  0
   -2.0468   -0.0076    0.0000 C   0  0  0  0  0  0  0  0  0  0  0  0
   -2.4593   -0.7221    0.0000 C   0  0  0  0  0  0  0  0  0  0  0  0
   -2.0468   -1.4365    0.0000 C   0  0  0  0  0  0  0  0  0  0  0  0
  1  4  1  0
  1  3  2  0
  2  1  1  0
  4  5  1  0
  5  6  1  0
  6  7  2  0
  7  8  1  0
  8  9  2  0
  9 10  1  0
 10 11  2  0
M  END
>  <DRUGBANK_ID>  (1) 
DB15618

>  <COMMON_NAME>  (1) 
(5E,7E,9)-decatrien-2-one

$$$$
