
     RDKit          2D

 32 33  0  0  0  0  0  0  0  0999 V2000
    1.0717   -1.0312    0.0000 O   0  0  0  0  0  0  0  0  0  0  0  0
   -1.0717    2.6812    0.0000 O   0  0  0  0  0  0  0  0  0  0  0  0
    0.3572    2.6812    0.0000 O   0  0  0  0  0  0  0  0  0  0  0  0
    3.9295   -0.2062    0.0000 O   0  0  0  0  0  0  0  0  0  0  0  0
    3.2151   -2.2687    0.0000 O   0  0  0  0  0  0  0  0  0  0  0  0
    3.9295   -1.0312    0.0000 O   0  0  0  0  0  0  0  0  0  0  0  0
    0.3572    1.0312    0.0000 N   0  0  0  0  0  0  0  0  0  0  0  0
    1.7861    0.2062    0.0000 N   0  0  0  0  0  0  0  0  0  0  0  0
    3.2151    1.0312    0.0000 N   0  0  0  0  0  0  0  0  0  0  0  0
    0.3572    0.2062    0.0000 C   0  0  0  0  0  0  0  0  0  0  0  0
   -0.3572    1.4437    0.0000 C   0  0  0  0  0  0  0  0  0  0  0  0
   -1.0717    1.0312    0.0000 C   0  0  0  0  0  0  0  0  0  0  0  0
   -0.3572   -0.2062    0.0000 C   0  0  0  0  0  0  0  0  0  0  0  0
   -1.7861    1.4437    0.0000 C   0  0  0  0  0  0  0  0  0  0  0  0
    1.0717   -0.2062    0.0000 C   0  0  0  0  0  0  0  0  0  0  0  0
   -0.3572   -1.0312    0.0000 C   0  0  0  0  0  0  0  0  0  0  0  0
   -0.3572    2.2687    0.0000 C   0  0  0  0  0  0  0  0  0  0  0  0
    2.5006   -0.2062    0.0000 C   0  0  0  0  0  0  0  0  0  0  0  0
   -2.5006    1.0312    0.0000 C   0  0  0  0  0  0  0  0  0  0  0  0
    2.5006   -1.0312    0.0000 C   0  0  0  0  0  0  0  0  0  0  0  0
    0.3572   -1.4437    0.0000 C   0  0  0  0  0  0  0  0  0  0  0  0
   -1.0717   -1.4437    0.0000 C   0  0  0  0  0  0  0  0  0  0  0  0
   -2.5006    0.2062    0.0000 C   0  0  0  0  0  0  0  0  0  0  0  0
   -3.2151    1.4437    0.0000 C   0  0  0  0  0  0  0  0  0  0  0  0
    3.2151    0.2062    0.0000 C   0  0  0  0  0  0  0  0  0  0  0  0
    0.3572   -2.2687    0.0000 C   0  0  0  0  0  0  0  0  0  0  0  0
   -1.0717   -2.2687    0.0000 C   0  0  0  0  0  0  0  0  0  0  0  0
   -0.3572   -2.6812    0.0000 C   0  0  0  0  0  0  0  0  0  0  0  0
   -3.2151   -0.2062    0.0000 C   0  0  0  0  0  0  0  0  0  0  0  0
   -3.9295    1.0312    0.0000 C   0  0  0  0  0  0  0  0  0  0  0  0
    3.2151   -1.4437    0.0000 C   0  0  0  0  0  0  0  0  0  0  0  0
   -3.9295    0.2062    0.0000 C   0  0  0  0  0  0  0  0  0  0  0  0
  1 15  2  0
  2 17  1  0
  3 17  2  0
  4 25  2  0
  5 31  1  0
  6 31  2  0
  8 15  1  0
  9 25  1  0
 10  7  1  0
 10 13  1  6
 10 15  1  0
 11  7  1  0
 11 12  1  1
 11 17  1  0
 12 14  1  0
 13 16  1  0
 14 19  1  0
 16 21  2  0
 16 22  1  0
 18  8  1  0
 18 20  1  6
 18 25  1  0
 19 23  2  0
 19 24  1  0
 20 31  1  0
 21 26  1  0
 22 27  2  0
 23 29  1  0
 24 30  2  0
 26 28  2  0
 27 28  1  0
 29 32  2  0
 30 32  1  0
M  END
>  <DRUGBANK_ID>  (1) 
DB02307

>  <SECONDARY_ACCESSION_NUMBERS>  (1) 
EXPT01770

>  <COMMON_NAME>  (1) 
N-(1-carboxy-3-phenylpropyl)phenylalanyl-alpha-asparagine

$$$$
