
     RDKit          2D

 24 26  0  0  0  0  0  0  0  0999 V2000
   -3.1291    0.6738    0.0000 C   0  0  0  0  0  0  0  0  0  0  0  0
   -3.1304   -0.1490    0.0000 C   0  0  0  0  0  0  0  0  0  0  0  0
   -2.4174   -0.5619    0.0000 C   0  0  0  0  0  0  0  0  0  0  0  0
   -1.7026   -0.1485    0.0000 C   0  0  0  0  0  0  0  0  0  0  0  0
   -1.7058    0.6779    0.0000 C   0  0  0  0  0  0  0  0  0  0  0  0
   -2.4194    1.0867    0.0000 C   0  0  0  0  0  0  0  0  0  0  0  0
   -2.4189   -1.3869    0.0000 O   0  0  0  0  0  0  0  0  0  0  0  0
   -0.9843    1.0939    0.0000 S   0  0  0  0  0  0  0  0  0  0  0  0
   -0.2675    1.5126    0.0000 O   0  0  0  0  0  0  0  0  0  0  0  0
   -0.5661    0.3735    0.0000 N   0  0  0  0  0  0  0  0  0  0  0  0
   -1.3998    1.8112    0.0000 O   0  0  0  0  0  0  0  0  0  0  0  0
   -0.8186   -0.4121    0.0000 C   0  0  0  0  0  0  0  0  0  0  0  0
   -0.1462   -0.8905    0.0000 C   0  0  0  0  0  0  0  0  0  0  0  0
    0.5100   -0.4082    0.0000 C   0  0  0  0  0  0  0  0  0  0  0  0
    0.2588    0.3746    0.0000 C   0  0  0  0  0  0  0  0  0  0  0  0
    0.6822    1.0826    0.0000 C   0  0  0  0  0  0  0  0  0  0  0  0
    1.5071    1.0700    0.0000 C   0  0  0  0  0  0  0  0  0  0  0  0
    1.9086    0.3492    0.0000 N   0  0  0  0  0  0  0  0  0  0  0  0
    1.4817   -0.3534    0.0000 C   0  0  0  0  0  0  0  0  0  0  0  0
    1.8797   -1.0719    0.0000 C   0  0  0  0  0  0  0  0  0  0  0  0
    2.7049   -1.0889    0.0000 C   0  0  0  0  0  0  0  0  0  0  0  0
    3.1304   -0.3812    0.0000 C   0  0  0  0  0  0  0  0  0  0  0  0
    2.7311    0.3436    0.0000 C   0  0  0  0  0  0  0  0  0  0  0  0
    3.1036   -1.8112    0.0000 C   0  0  0  0  0  0  0  0  0  0  0  0
  1  2  2  0
  2  3  1  0
  3  7  1  0
  3  4  2  0
  4  5  1  0
  5  6  2  0
  5  8  1  0
  6  1  1  0
  8  9  2  0
  8 10  1  0
  8 11  2  0
 10 12  1  0
 12 13  1  0
 13 14  1  0
 14 15  1  0
 15 10  1  0
 15 16  1  1
 16 17  1  0
 17 18  1  0
 18 19  1  0
 18 23  1  0
 19 20  1  0
 20 21  1  0
 21 22  1  0
 21 24  1  0
 22 23  1  0
M  END
>  <DRUGBANK_ID>  (1) 
DB13988

>  <COMMON_NAME>  (1) 
SB-269970

>  <CAS_NUMBER>  (1) 
201038-74-6

>  <UNII>  (1) 
KC8KP5XU6F

$$$$
