
     RDKit          2D

 11 10  0  0  0  0  0  0  0  0999 V2000
   -2.1433   -0.2062    0.0000 O   0  0  0  0  0  0  0  0  0  0  0  0
   -2.8578    0.2062    0.0000 C   0  0  0  0  0  0  0  0  0  0  0  0
   -3.5723   -0.2062    0.0000 C   0  0  0  0  0  0  0  0  0  0  0  0
   -1.4289    0.2062    0.0000 C   0  0  0  0  0  0  0  0  0  0  0  0
   -0.7144   -0.2062    0.0000 C   0  0  0  0  0  0  0  0  0  0  0  0
    0.0000    0.2063    0.0000 O   0  0  0  0  0  0  0  0  0  0  0  0
    0.7145   -0.2061    0.0000 C   0  0  0  0  0  0  0  0  0  0  0  0
    1.4289    0.2063    0.0000 C   0  0  0  0  0  0  0  0  0  0  0  0
    2.1434   -0.2061    0.0000 O   0  0  0  0  0  0  0  0  0  0  0  0
    2.8579    0.2063    0.0000 C   0  0  0  0  0  0  0  0  0  0  0  0
    3.5723   -0.2061    0.0000 C   0  0  0  0  0  0  0  0  0  0  0  0
  1  4  1  0
  2  1  1  0
  3  2  1  0
  4  5  1  0
  5  6  1  0
  6  7  1  0
  7  8  1  0
  8  9  1  0
  9 10  1  0
 10 11  1  0
M  END
>  <DRUGBANK_ID>  (1) 
DB08357

>  <COMMON_NAME>  (1) 
Diethylene glycol diethyl ether

>  <CAS_NUMBER>  (1) 
112-36-7

>  <UNII>  (1) 
ZH086O935Z

>  <SYNONYMS>  (1) 
1-ethoxy-2-(2-ethoxyethoxy)ethane; 1-Ethoxy-2-(beta-ethoxyethoxy)ethane; Diethyl carbitol; Diethyldiethylene glycol; Diethylene glycol diethyl ether; Ethyl diglyme

$$$$
