
     RDKit          2D

 12 11  0  0  0  0  0  0  0  0999 V2000
   -1.0716    0.2062    0.0000 O   0  0  0  0  0  0  0  0  0  0  0  0
   -0.3572   -0.2062    0.0000 C   0  0  0  0  0  0  0  0  0  0  0  0
    1.0717   -0.2062    0.0000 C   0  0  0  0  0  0  0  0  0  0  0  0
    0.3572    0.2062    0.0000 C   0  0  0  0  0  0  0  0  0  0  0  0
    1.7861    0.2062    0.0000 C   0  0  0  0  0  0  0  0  0  0  0  0
    1.0717   -1.0312    0.0000 O   0  0  0  0  0  0  0  0  0  0  0  0
    0.3572    1.0312    0.0000 O   0  0  0  0  0  0  0  0  0  0  0  0
   -1.7861   -1.0312    0.0000 O   0  0  0  0  0  0  0  0  0  0  0  0
   -2.5006    0.2062    0.0000 O   0  0  0  0  0  0  0  0  0  0  0  0
    1.7861    1.0312    0.0000 O   0  0  0  0  0  0  0  0  0  0  0  0
   -1.7861   -0.2062    0.0000 P   0  0  0  0  0  0  0  0  0  0  0  0
   -1.7861    0.6187    0.0000 O   0  0  0  0  0  0  0  0  0  0  0  0
  1 11  1  0
  1  2  1  0
  2  4  1  0
  3  6  1  6
  3  5  1  0
  4  3  1  0
  4  7  1  1
  5 10  2  0
  8 11  2  0
  9 11  1  0
 11 12  1  0
M  END
>  <DRUGBANK_ID>  (1) 
DB03937

>  <SECONDARY_ACCESSION_NUMBERS>  (1) 
EXPT01316

>  <COMMON_NAME>  (1) 
D-erythrose 4-phosphate

>  <CAS_NUMBER>  (1) 
585-18-2

>  <UNII>  (1) 
2156QF7O8M

>  <SYNONYMS>  (1) 
4-O-phosphono-D-erythrose; Erythose-4-phosphate

$$$$
