FSN
     RDKit          2D

 30 34  0  0  0  0  0  0  0  0999 V2000
   -1.6140    0.4745    0.0000 O   0  0  0  0  0  0  0  0  0  0  0  0
   -1.1291   -0.1929    0.0000 C   0  0  0  0  0  0  0  0  0  0  0  0
   -1.3840   -0.9775    0.0000 N   0  0  0  0  0  0  0  0  0  0  0  0
   -2.1687   -1.2325    0.0000 C   0  0  0  0  0  0  0  0  0  0  0  0
   -2.3402   -2.0394    0.0000 C   0  0  0  0  0  0  0  0  0  0  0  0
   -1.7271   -2.5915    0.0000 C   0  0  0  0  0  0  0  0  0  0  0  0
   -1.8986   -3.3984    0.0000 C   0  0  0  0  0  0  0  0  0  0  0  0
   -2.6832   -3.6534    0.0000 C   0  0  0  0  0  0  0  0  0  0  0  0
   -2.8548   -4.4603    0.0000 F   0  0  0  0  0  0  0  0  0  0  0  0
   -3.2963   -3.1013    0.0000 C   0  0  0  0  0  0  0  0  0  0  0  0
   -3.1248   -2.2944    0.0000 C   0  0  0  0  0  0  0  0  0  0  0  0
   -0.7166   -1.4624    0.0000 C   0  0  0  0  0  0  0  0  0  0  0  0
   -0.7166   -2.2874    0.0000 O   0  0  0  0  0  0  0  0  0  0  0  0
   -0.0492   -0.9775    0.0000 C   0  0  0  0  0  0  0  0  0  0  0  0
    0.7758   -0.9775    0.0000 C   0  0  0  0  0  0  0  0  0  0  0  0
    1.0308   -0.1929    0.0000 N   0  0  0  0  0  0  0  0  0  0  0  0
    1.8558   -0.1929    0.0000 C   0  0  0  0  0  0  0  0  0  0  0  0
    2.1107   -0.9775    0.0000 C   0  0  0  0  0  0  0  0  0  0  0  0
    1.4433   -1.4624    0.0000 C   0  0  0  0  0  0  0  0  0  0  0  0
    0.3633    0.2920    0.0000 C   0  0  0  0  0  0  0  0  0  0  0  0
    0.3633    1.1170    0.0000 C   0  0  0  0  0  0  0  0  0  0  0  0
   -0.3511    1.5295    0.0000 C   0  0  0  0  0  0  0  0  0  0  0  0
   -0.3511    2.3545    0.0000 C   0  0  0  0  0  0  0  0  0  0  0  0
    0.3633    2.7670    0.0000 C   0  0  0  0  0  0  0  0  0  0  0  0
    1.0778    2.3545    0.0000 C   0  0  0  0  0  0  0  0  0  0  0  0
    1.0778    1.5295    0.0000 C   0  0  0  0  0  0  0  0  0  0  0  0
    0.3633    3.5920    0.0000 C   0  0  0  0  0  0  0  0  0  0  0  0
   -0.3511    4.0045    0.0000 N   0  0  0  0  0  0  0  0  0  0  0  0
    1.0778    4.0045    0.0000 N   0  0  0  0  0  0  0  0  0  0  0  0
   -0.3041   -0.1929    0.0000 C   0  0  0  0  0  0  0  0  0  0  0  0
  1  2  2  0
  2  3  1  0
 30  2  1  6
  3  4  1  0
  3 12  1  0
  4  5  1  0
  5  6  2  0
  5 11  1  0
  6  7  1  0
  7  8  2  0
  8  9  1  0
  8 10  1  0
 10 11  2  0
 12 13  2  0
 14 12  1  6
 14 15  1  0
 14 30  1  0
 15 16  1  0
 15 19  1  1
 16 17  1  0
 16 20  1  0
 17 18  1  0
 18 19  1  0
 20 21  1  6
 20 30  1  0
 21 22  2  0
 21 26  1  0
 22 23  1  0
 23 24  2  0
 24 25  1  0
 24 27  1  0
 25 26  2  0
 27 28  2  0
 27 29  1  0
M  CHG  1  28   1
M  END
>  <DRUGBANK_ID>  (1) 
DB07796

>  <COMMON_NAME>  (1) 
(3ASR,4RS,8ASR,8BRS)-4-(2-(4-FLUOROBENZYL)-1,3-DIOXODEACAHYDROPYRROLO[3,4-A] PYRROLIZIN-4-YL)BENZAMIDINE

$$$$
