283
     RDKit          2D

 20 21  0  0  0  0  0  0  0  0999 V2000
    1.4933   -0.6731    0.0000 C   0  0  0  0  0  0  0  0  0  0  0  0
    0.7086   -0.9280    0.0000 C   0  0  0  0  0  0  0  0  0  0  0  0
    0.2671    0.4310    0.0000 C   0  0  0  0  0  0  0  0  0  0  0  0
    1.0517    0.6859    0.0000 C   0  0  0  0  0  0  0  0  0  0  0  0
    1.6648    0.1339    0.0000 C   0  0  0  0  0  0  0  0  0  0  0  0
    2.4494    0.3888    0.0000 O   0  0  0  0  0  0  0  0  0  0  0  0
    2.6209    1.1958    0.0000 C   0  0  0  0  0  0  0  0  0  0  0  0
    4.9748    1.9606    0.0000 C   0  0  0  0  0  0  0  0  0  0  0  0
    4.1902    1.7057    0.0000 C   0  0  0  0  0  0  0  0  0  0  0  0
    3.4056    1.4507    0.0000 C   0  0  0  0  0  0  0  0  0  0  0  0
    0.0955   -0.3760    0.0000 C   0  0  0  0  0  0  0  0  0  0  0  0
   -0.9440    0.1537    0.0000 O   0  0  0  0  0  0  0  0  0  0  0  0
   -0.4341   -1.4156    0.0000 O   0  0  0  0  0  0  0  0  0  0  0  0
   -0.6891   -0.6310    0.0000 S   0  0  0  0  0  0  0  0  0  0  0  0
   -2.1411   -0.4010    0.0000 C   0  0  0  0  0  0  0  0  0  0  0  0
   -1.4737   -0.8859    0.0000 N   0  0  0  0  0  0  0  0  0  0  0  0
   -1.7286   -1.6705    0.0000 C   0  0  0  0  0  0  0  0  0  0  0  0
   -2.5536   -1.6705    0.0000 C   0  0  0  0  0  0  0  0  0  0  0  0
   -3.0386   -2.3380    0.0000 S   0  0  0  0  0  0  0  0  0  0  0  0
   -2.8086   -0.8859    0.0000 C   0  0  0  0  0  0  0  0  0  0  0  0
  1  2  2  0
  1  5  1  0
  2 11  1  0
  3 11  2  0
  3  4  1  0
  4  5  2  0
  5  6  1  0
  6  7  1  0
  7 10  1  0
  8  9  1  0
  9 10  3  0
 11 14  1  0
 12 14  2  0
 13 14  2  0
 14 16  1  0
 15 16  1  0
 15 20  1  0
 16 17  1  0
 17 18  1  0
 18 20  1  0
 18 19  1  1
M  END
>  <DRUGBANK_ID>  (1) 
DB06943

>  <COMMON_NAME>  (1) 
(3S)-1-{[4-(but-2-yn-1-yloxy)phenyl]sulfonyl}pyrrolidine-3-thiol

$$$$
