
     RDKit          2D

 24 27  0  0  0  0  0  0  0  0999 V2000
    2.5465    0.1470    0.0000 C   0  0  0  0  0  0  0  0  0  0  0  0
    2.2913   -0.6352    0.0000 C   0  0  0  0  0  0  0  0  0  0  0  0
    2.7740   -1.3009    0.0000 N   0  0  0  0  0  0  0  0  0  0  0  0
    2.2913   -1.9667    0.0000 N   0  0  0  0  0  0  0  0  0  0  0  0
    1.5035   -1.7116    0.0000 C   0  0  0  0  0  0  0  0  0  0  0  0
    1.5035   -0.8904    0.0000 N   0  0  0  0  0  0  0  0  0  0  0  0
    0.8599   -0.3744    0.0000 C   0  0  0  0  0  0  0  0  0  0  0  0
    1.1040    0.4133    0.0000 C   0  0  0  0  0  0  0  0  0  0  0  0
    0.5437    1.0181    0.0000 C   0  0  0  0  0  0  0  0  0  0  0  0
   -0.2607    0.8349    0.0000 C   0  0  0  0  0  0  0  0  0  0  0  0
   -0.5048    0.0472    0.0000 C   0  0  0  0  0  0  0  0  0  0  0  0
    0.0555   -0.5576    0.0000 C   0  0  0  0  0  0  0  0  0  0  0  0
   -0.2995   -1.3009    0.0000 C   0  0  0  0  0  0  0  0  0  0  0  0
    0.0555   -2.0444    0.0000 N   0  0  0  0  0  0  0  0  0  0  0  0
    0.8599   -2.2275    0.0000 C   0  0  0  0  0  0  0  0  0  0  0  0
   -1.1262   -1.3009    0.0000 C   0  0  0  0  0  0  0  0  0  0  0  0
   -1.5368   -0.5853    0.0000 C   0  0  0  0  0  0  0  0  0  0  0  0
   -2.3634   -0.5853    0.0000 C   0  0  0  0  0  0  0  0  0  0  0  0
   -2.7740   -1.3009    0.0000 C   0  0  0  0  0  0  0  0  0  0  0  0
   -2.3634   -2.0167    0.0000 C   0  0  0  0  0  0  0  0  0  0  0  0
   -1.5368   -2.0167    0.0000 C   0  0  0  0  0  0  0  0  0  0  0  0
   -0.8211    1.4397    0.0000 N   0  0  0  0  0  0  0  0  0  0  0  0
   -0.5769    2.2275    0.0000 O   0  0  0  0  0  0  0  0  0  0  0  0
   -1.6255    1.2566    0.0000 O   0  0  0  0  0  0  0  0  0  0  0  0
  1  2  1  0
  2  3  2  0
  2  6  1  0
  3  4  1  0
  4  5  2  0
  5  6  1  0
  5 15  1  0
  6  7  1  0
  7  8  2  0
  7 12  1  0
  8  9  1  0
  9 10  2  0
 10 11  1  0
 10 22  1  0
 11 12  2  0
 12 13  1  0
 13 14  2  0
 13 16  1  0
 14 15  1  0
 16 17  2  0
 16 21  1  0
 17 18  1  0
 18 19  2  0
 19 20  1  0
 20 21  2  0
 22 23  2  0
 22 24  1  0
M  CHG  2  22   1  24  -1
M  END
>  <DRUGBANK_ID>  (1) 
DB14717

>  <COMMON_NAME>  (1) 
Nitrazolam

>  <CAS_NUMBER>  (1) 
28910-99-8

>  <UNII>  (1) 
K499DBB308

$$$$
