BBL
     RDKit          2D

 16 16  0  0  0  0  0  0  0  0999 V2000
   -3.5778    0.1575    0.0000 O   0  0  0  0  0  0  0  0  0  0  0  0
   -2.8633   -0.2550    0.0000 C   0  0  0  0  0  0  0  0  0  0  0  0
   -2.8633   -1.0800    0.0000 O   0  0  0  0  0  0  0  0  0  0  0  0
   -2.1489    0.1575    0.0000 C   0  0  0  0  0  0  0  0  0  0  0  0
   -2.1489    0.9825    0.0000 C   0  0  0  0  0  0  0  0  0  0  0  0
   -1.4344   -0.2550    0.0000 N   0  0  0  0  0  0  0  0  0  0  0  0
   -0.7199    0.1575    0.0000 C   0  0  0  0  0  0  0  0  0  0  0  0
   -0.7199    0.9825    0.0000 O   0  0  0  0  0  0  0  0  0  0  0  0
   -0.0055   -0.2550    0.0000 O   0  0  0  0  0  0  0  0  0  0  0  0
    0.7090    0.1575    0.0000 C   0  0  0  0  0  0  0  0  0  0  0  0
    1.4235   -0.2550    0.0000 C   0  0  0  0  0  0  0  0  0  0  0  0
    2.1380    0.1575    0.0000 C   0  0  0  0  0  0  0  0  0  0  0  0
    2.8524   -0.2550    0.0000 C   0  0  0  0  0  0  0  0  0  0  0  0
    2.8524   -1.0800    0.0000 C   0  0  0  0  0  0  0  0  0  0  0  0
    2.1380   -1.4925    0.0000 C   0  0  0  0  0  0  0  0  0  0  0  0
    1.4235   -1.0800    0.0000 C   0  0  0  0  0  0  0  0  0  0  0  0
  1  2  1  0
  2  3  2  0
  2  4  1  0
  4  5  1  6
  4  6  1  0
  6  7  1  0
  7  8  2  0
  7  9  1  0
  9 10  1  0
 10 11  1  0
 11 12  2  0
 11 16  1  0
 12 13  1  0
 13 14  2  0
 14 15  1  0
 15 16  2  0
M  END
>  <DRUGBANK_ID>  (1) 
DB04634

>  <COMMON_NAME>  (1) 
N-BENZYLOXYCARBONYL-L-SERINE-BETALACTONE

>  <UNII>  (1) 
PUL5J6PUL2

$$$$
