
     RDKit          2D

 24 26  0  0  0  0  0  0  0  0999 V2000
    5.7725    2.5701    0.0000 C   0  0  0  0  0  0  0  0  0  0  0  0
    6.2140    1.2111    0.0000 C   0  0  0  0  0  0  0  0  0  0  0  0
   -0.2701    2.5701    0.0000 C   0  0  0  0  0  0  0  0  0  0  0  0
    0.8839   -0.9817    0.0000 C   0  0  0  0  0  0  0  0  0  0  0  0
   -0.0986    1.7631    0.0000 C   0  0  0  0  0  0  0  0  0  0  0  0
    0.3430    3.1221    0.0000 C   0  0  0  0  0  0  0  0  0  0  0  0
    1.7044   -1.0679    0.0000 C   0  0  0  0  0  0  0  0  0  0  0  0
    0.5484   -0.2280    0.0000 C   0  0  0  0  0  0  0  0  0  0  0  0
    0.6860    1.5082    0.0000 C   0  0  0  0  0  0  0  0  0  0  0  0
    1.1276    2.8672    0.0000 C   0  0  0  0  0  0  0  0  0  0  0  0
    2.1893   -0.4005    0.0000 C   0  0  0  0  0  0  0  0  0  0  0  0
    1.0333    0.4394    0.0000 C   0  0  0  0  0  0  0  0  0  0  0  0
    4.8163    1.5082    0.0000 C   0  0  0  0  0  0  0  0  0  0  0  0
    4.2032    2.0602    0.0000 C   0  0  0  0  0  0  0  0  0  0  0  0
    5.6010    1.7631    0.0000 C   0  0  0  0  0  0  0  0  0  0  0  0
    1.2991    2.0602    0.0000 C   0  0  0  0  0  0  0  0  0  0  0  0
    1.8538    0.3532    0.0000 C   0  0  0  0  0  0  0  0  0  0  0  0
    3.4186    1.8053    0.0000 C   0  0  0  0  0  0  0  0  0  0  0  0
    2.7512    2.2902    0.0000 C   0  0  0  0  0  0  0  0  0  0  0  0
    3.1637    1.0206    0.0000 C   0  0  0  0  0  0  0  0  0  0  0  0
    2.0837    1.8053    0.0000 N   0  0  0  0  0  0  0  0  0  0  0  0
    2.3387    1.0206    0.0000 N   0  0  0  0  0  0  0  0  0  0  0  0
    2.7512    3.1152    0.0000 O   0  0  0  0  0  0  0  0  0  0  0  0
    3.6486    0.3532    0.0000 O   0  0  0  0  0  0  0  0  0  0  0  0
  5  3  2  0
  6  3  1  0
  7  4  2  0
  8  4  1  0
  9  5  1  0
 10  6  2  0
 11  7  1  0
 12  8  2  0
 14 13  1  0
 15  1  1  0
 15  2  1  0
 15 13  2  3
 16  9  2  0
 16 10  1  0
 17 11  2  0
 17 12  1  0
 18 14  1  0
 19 18  1  0
 20 18  1  0
 21 16  1  0
 21 19  1  0
 22 17  1  0
 22 20  1  0
 22 21  1  0
 23 19  2  0
 24 20  2  0
M  END
>  <DRUGBANK_ID>  (1) 
DB13364

>  <COMMON_NAME>  (1) 
Feprazone

>  <CAS_NUMBER>  (1) 
30748-29-9

>  <UNII>  (1) 
7BVX6J0CGR

>  <SYNONYMS>  (1) 
Feprazone

$$$$
