
     RDKit          2D

 28 31  0  0  0  0  0  0  0  0999 V2000
   -3.0985    3.1282    0.0000 C   0  0  0  0  0  0  0  0  0  0  0  0
   -2.3840    4.3657    0.0000 C   0  0  0  0  0  0  0  0  0  0  0  0
   -0.2406    3.1282    0.0000 C   0  0  0  0  0  0  0  0  0  0  0  0
   -0.9551    3.5407    0.0000 C   0  0  0  0  0  0  0  0  0  0  0  0
    0.4738    3.5407    0.0000 C   0  0  0  0  0  0  0  0  0  0  0  0
    3.8543    5.5876    0.0000 C   0  0  0  0  0  0  0  0  0  0  0  0
    3.5112    3.9736    0.0000 C   0  0  0  0  0  0  0  0  0  0  0  0
    0.9775    0.9100    0.0000 C   0  0  0  0  0  0  0  0  0  0  0  0
    5.6234    4.3681    0.0000 C   0  0  0  0  0  0  0  0  0  0  0  0
   -2.3840    3.5407    0.0000 C   0  0  0  0  0  0  0  0  0  0  0  0
    3.0697    5.3326    0.0000 C   0  0  0  0  0  0  0  0  0  0  0  0
    4.4674    5.0355    0.0000 C   0  0  0  0  0  0  0  0  0  0  0  0
    4.2959    4.2286    0.0000 C   0  0  0  0  0  0  0  0  0  0  0  0
    2.8981    4.5257    0.0000 C   0  0  0  0  0  0  0  0  0  0  0  0
    2.0815    2.1362    0.0000 C   0  0  0  0  0  0  0  0  0  0  0  0
    2.3365    1.3516    0.0000 C   0  0  0  0  0  0  0  0  0  0  0  0
    1.2745    2.3077    0.0000 C   0  0  0  0  0  0  0  0  0  0  0  0
    1.9420    3.4638    0.0000 C   0  0  0  0  0  0  0  0  0  0  0  0
    2.4566    5.8847    0.0000 I   0  0  0  0  0  0  0  0  0  0  0  0
    3.1434    1.1800    0.0000 N   0  0  0  0  0  0  0  0  0  0  0  0
   -1.6696    3.1282    0.0000 N   0  0  0  0  0  0  0  0  0  0  0  0
    1.7844    0.7385    0.0000 N   0  0  0  0  0  0  0  0  0  0  0  0
    0.7225    1.6946    0.0000 N   0  0  0  0  0  0  0  0  0  0  0  0
    2.4940    2.8507    0.0000 N   0  0  0  0  0  0  0  0  0  0  0  0
    1.1883    3.1282    0.0000 N   0  0  0  0  0  0  0  0  0  0  0  0
    5.2879    5.1218    0.0000 O   0  0  0  0  0  0  0  0  0  0  0  0
    5.0103    3.8161    0.0000 O   0  0  0  0  0  0  0  0  0  0  0  0
    2.1135    4.2707    0.0000 S   0  0  0  0  0  0  0  0  0  0  0  0
  4  3  1  0
  5  3  1  0
 10  1  1  0
 10  2  1  0
 11  6  2  0
 12  6  1  0
 13  7  1  0
 13 12  2  0
 14  7  2  0
 14 11  1  0
 16 15  2  0
 17 15  1  0
 19 11  1  0
 20 16  1  0
 21  4  1  0
 21 10  1  0
 22  8  2  0
 22 16  1  0
 23  8  1  0
 23 17  2  0
 24 15  1  0
 24 18  2  0
 25  5  1  0
 25 17  1  0
 25 18  1  0
 26  9  1  0
 26 12  1  0
 27  9  1  0
 27 13  1  0
 28 14  1  0
 28 18  1  0
M  END
>  <DRUGBANK_ID>  (1) 
DB12638

>  <COMMON_NAME>  (1) 
Zelavespib

>  <CAS_NUMBER>  (1) 
873436-91-0

>  <UNII>  (1) 
06IVK87M04

>  <SYNONYMS>  (1) 
8-((6-Iodobenzo[d][1,3]dioxol-5-yl)thio)-9-(3-(isopropylamino)propyl)-9H-purin-6-amine; 8-(6-iodo-benzo[1,3]dioxol-5-ylsulfanyl)-9-(3-isopropylamino-propyl)adenine; 9H-purine-9-propanamine, 6-amino-8-((6-iodo-1,3-benzodioxol-5-yl)thio)-N-(1-methylethyl)-

$$$$
