
     RDKit          2D

 34 37  0  0  1  0  0  0  0  0999 V2000
   -0.1543    2.3918    0.0000 C   0  0  0  0  0  0  0  0  0  0  0  0
    0.5601    1.9793    0.0000 N   0  0  0  0  0  0  0  0  0  0  0  0
    0.5601    1.1544    0.0000 C   0  0  0  0  0  0  0  0  0  0  0  0
    1.2744    0.7419    0.0000 N   0  0  0  0  0  0  0  0  0  0  0  0
    1.9889    1.1544    0.0000 C   0  0  0  0  0  0  0  0  0  0  0  0
    2.7034    0.7419    0.0000 C   0  0  0  0  0  0  0  0  0  0  0  0
    3.4178    1.1544    0.0000 N   0  0  0  0  0  0  0  0  0  0  0  0
    3.4178    1.9793    0.0000 C   0  0  0  0  0  0  0  0  0  0  0  0
    3.7000    2.7546    0.0000 C   0  0  0  0  0  0  0  0  0  0  0  0
    4.2303    1.8361    0.0000 C   0  0  0  0  0  0  0  0  0  0  0  0
    2.7034    2.3918    0.0000 C   0  0  0  0  0  0  0  0  0  0  0  0
    1.9889    1.9793    0.0000 C   0  0  0  0  0  0  0  0  0  0  0  0
   -0.1543    0.7419    0.0000 N   0  0  0  0  0  0  0  0  0  0  0  0
   -0.8689    1.1544    0.0000 C   0  0  0  0  0  0  0  0  0  0  0  0
   -0.8689    1.9794    0.0000 C   0  0  0  0  0  0  0  0  0  0  0  0
   -1.5833    2.3918    0.0000 C   0  0  0  0  0  0  0  0  0  0  0  0
   -2.2978    2.8044    0.0000 F   0  0  0  0  0  0  0  0  0  0  0  0
   -1.5833    3.2169    0.0000 F   0  0  0  0  0  0  0  0  0  0  0  0
   -2.2978    1.9794    0.0000 F   0  0  0  0  0  0  0  0  0  0  0  0
   -1.5833    0.7419    0.0000 C   0  0  0  0  0  0  0  0  0  0  0  0
   -1.6695   -0.0785    0.0000 C   0  0  0  0  0  0  0  0  0  0  0  0
   -1.1175   -0.6916    0.0000 C   0  0  0  0  0  0  0  0  0  0  0  0
   -1.3725   -1.4762    0.0000 C   0  0  0  0  0  0  0  0  0  0  0  0
   -2.1794   -1.6477    0.0000 C   0  0  0  0  0  0  0  0  0  0  0  0
   -2.4343   -2.4323    0.0000 C   0  0  0  0  0  0  0  0  0  0  0  0
   -2.6893   -3.2169    0.0000 N   0  0  0  0  0  0  0  0  0  0  0  0
   -2.7314   -1.0346    0.0000 C   0  0  0  0  0  0  0  0  0  0  0  0
   -3.5384   -1.2061    0.0000 P   0  0  0  0  0  0  0  0  0  0  0  0
   -4.2303   -0.7568    0.0000 C   0  0  0  0  0  0  0  0  0  0  0  0
   -3.5816   -2.0300    0.0000 O   0  0  0  0  0  0  0  0  0  0  0  0
   -3.3928   -0.5717    0.0000 C   0  0  0  0  0  0  0  0  0  0  0  0
   -2.4765   -0.2500    0.0000 C   0  0  0  0  0  0  0  0  0  0  0  0
   -2.8890    0.4644    0.0000 N   0  0  0  0  0  0  0  0  0  0  0  0
   -2.3370    1.0775    0.0000 C   0  0  0  0  0  0  0  0  0  0  0  0
  1  2  2  0
  1 15  1  0
  3  2  1  0
  4  3  1  0
  5  4  1  1
  5  6  1  0
  7  6  1  0
  7  8  1  0
  8  9  1  0
  8 10  1  0
 11  8  1  0
 11 12  1  0
 12  5  1  0
 13  3  2  0
 13 14  1  0
 15 14  2  0
 15 16  1  0
 16 17  1  0
 16 18  1  0
 16 19  1  0
 20 14  1  0
 20 21  1  0
 21 22  2  0
 22 23  1  0
 24 23  2  0
 24 25  1  0
 25 26  3  0
 27 24  1  0
 27 32  2  0
 28 27  1  0
 28 29  1  0
 28 30  2  0
 28 31  1  0
 32 21  1  0
 33 32  1  0
 34 33  1  0
 34 20  2  0
M  END
>  <DRUGBANK_ID>  (1) 
DB17099

>  <COMMON_NAME>  (1) 
SY-5609

>  <CAS_NUMBER>  (1) 
2417302-07-7

>  <UNII>  (1) 
TW6044C3O6

>  <SYNONYMS>  (1) 
(S)-7-(dimethylphosphoryl)-3-(2-((6,6-dimethylpiperidin-3-yl)amino)-5-(trifluoromethyl)pyrimidin-4-yl)-1H-indole-6-carbonitrile; 1H-Indole-6-carbonitrile, 7-(dimethylphosphinyl)-3-[2-[[(3S)-6,6-dimethyl-3-piperidinyl]amino]-5-(trifluoromethyl)-4-pyrimidinyl]-; SY 5609; SY5609

$$$$
