
     RDKit          2D

  3  0  0  0  0  0  0  0  0  0999 V2000
    0.4125    0.0000    0.0000 Na  0  0  0  0  0 15  0  0  0  0  0  0
    2.7696    0.0000    0.0000 Na  0  0  0  0  0 15  0  0  0  0  0  0
   -0.4125    0.0000    0.0000 S   0  0  0  0  0  0  0  0  0  0  0  0
M  CHG  3   1   1   2   1   3  -2
M  END
>  <DRUGBANK_ID>  (1) 
DB11159

>  <COMMON_NAME>  (1) 
Sodium sulfide

>  <CAS_NUMBER>  (1) 
1313-82-2

>  <UNII>  (1) 
YGR27ZW0Y7

$$$$
