
     RDKit          2D

  6  5  0  0  0  0  0  0  0  0999 V2000
    2.4750    0.0000    0.0000 C   0  0  0  0  0  0  0  0  0  0  0  0
    1.6500    0.0000    0.0000 C   0  0  0  0  0  0  0  0  0  0  0  0
    1.6500    0.8250    0.0000 C   0  0  0  0  0  0  0  0  0  0  0  0
    1.6500   -0.8250    0.0000 O   0  0  0  0  0  0  0  0  0  0  0  0
    0.8250    0.0000    0.0000 C   0  0  0  0  0  0  0  0  0  0  0  0
    0.0000    0.0000    0.0000 N   0  0  0  0  0  0  0  0  0  0  0  0
  1  2  1  0
  2  3  1  0
  2  4  1  0
  2  5  1  0
  5  6  3  0
M  END
>  <DRUGBANK_ID>  (1) 
DB02203

>  <SECONDARY_ACCESSION_NUMBERS>  (1) 
EXPT00968

>  <COMMON_NAME>  (1) 
Acetone Cyanohydrin

>  <CAS_NUMBER>  (1) 
75-86-5

>  <UNII>  (1) 
CO1YOV1KFI

$$$$
