F77
     RDKit          2D

 23 24  0  0  0  0  0  0  0  0999 V2000
    1.3816    1.5786    0.0000 C   0  0  0  0  0  0  0  0  0  0  0  0
    2.0961    1.1661    0.0000 C   0  0  0  0  0  0  0  0  0  0  0  0
    2.0961    0.3411    0.0000 C   0  0  0  0  0  0  0  0  0  0  0  0
    2.8106   -0.0714    0.0000 C   0  0  0  0  0  0  0  0  0  0  0  0
    2.8106   -0.8964    0.0000 C   0  0  0  0  0  0  0  0  0  0  0  0
    2.0961   -1.3089    0.0000 C   0  0  0  0  0  0  0  0  0  0  0  0
    1.3816   -0.8964    0.0000 C   0  0  0  0  0  0  0  0  0  0  0  0
    1.3816   -0.0714    0.0000 C   0  0  0  0  0  0  0  0  0  0  0  0
    0.6672    0.3411    0.0000 C   0  0  0  0  0  0  0  0  0  0  0  0
    0.6672   -1.3089    0.0000 C   0  0  0  0  0  0  0  0  0  0  0  0
   -0.0473   -0.8964    0.0000 O   0  0  0  0  0  0  0  0  0  0  0  0
    0.6672   -2.1339    0.0000 O   0  0  0  0  0  0  0  0  0  0  0  0
    2.0961   -2.1339    0.0000 N   0  0  0  0  0  0  0  0  0  0  0  0
    1.3816   -2.5464    0.0000 S   0  0  0  0  0  0  0  0  0  0  0  0
    0.9691   -1.8319    0.0000 O   0  0  0  0  0  0  0  0  0  0  0  0
    1.7941   -3.2608    0.0000 O   0  0  0  0  0  0  0  0  0  0  0  0
    0.6672   -2.9589    0.0000 C   0  0  0  0  0  0  0  0  0  0  0  0
    0.6672   -3.7839    0.0000 C   0  0  0  0  0  0  0  0  0  0  0  0
   -0.0473   -4.1964    0.0000 C   0  0  0  0  0  0  0  0  0  0  0  0
   -0.7618   -3.7839    0.0000 C   0  0  0  0  0  0  0  0  0  0  0  0
   -0.7618   -2.9589    0.0000 C   0  0  0  0  0  0  0  0  0  0  0  0
   -0.0473   -2.5464    0.0000 C   0  0  0  0  0  0  0  0  0  0  0  0
   -1.4762   -4.1964    0.0000 F   0  0  0  0  0  0  0  0  0  0  0  0
  1  2  1  0
  2  3  1  0
  3  4  2  0
  3  8  1  0
  4  5  1  0
  5  6  2  0
  6  7  1  0
  6 13  1  0
  7  8  2  0
  7 10  1  0
  8  9  1  0
 10 11  2  0
 10 12  1  0
 13 14  1  0
 14 15  2  0
 14 16  2  0
 14 17  1  0
 17 18  2  0
 17 22  1  0
 18 19  1  0
 19 20  2  0
 20 21  1  0
 20 23  1  0
 21 22  2  0
M  END
>  <DRUGBANK_ID>  (1) 
DB07746

>  <COMMON_NAME>  (1) 
3-ETHYL-6-{[(4-FLUOROPHENYL)SULFONYL]AMINO}-2-METHYLBENZOIC ACID

$$$$
