426
     RDKit          2D

 28 31  0  0  0  0  0  0  0  0999 V2000
   -4.0326    2.3536    0.0000 N   0  0  0  0  0  0  0  0  0  0  0  0
   -3.3182    2.7661    0.0000 C   0  0  0  0  0  0  0  0  0  0  0  0
   -3.3182    3.5911    0.0000 N   0  0  0  0  0  0  0  0  0  0  0  0
   -2.6037    2.3536    0.0000 C   0  0  0  0  0  0  0  0  0  0  0  0
   -1.8892    2.7661    0.0000 C   0  0  0  0  0  0  0  0  0  0  0  0
   -1.1748    2.3536    0.0000 C   0  0  0  0  0  0  0  0  0  0  0  0
   -0.4603    2.7661    0.0000 C   0  0  0  0  0  0  0  0  0  0  0  0
    0.2542    2.3536    0.0000 C   0  0  0  0  0  0  0  0  0  0  0  0
    0.2542    1.5286    0.0000 C   0  0  0  0  0  0  0  0  0  0  0  0
   -0.4603    1.1161    0.0000 C   0  0  0  0  0  0  0  0  0  0  0  0
   -1.1748    1.5286    0.0000 C   0  0  0  0  0  0  0  0  0  0  0  0
   -1.8892    1.1161    0.0000 C   0  0  0  0  0  0  0  0  0  0  0  0
   -2.6037    1.5286    0.0000 C   0  0  0  0  0  0  0  0  0  0  0  0
    0.9687    1.1161    0.0000 C   0  0  0  0  0  0  0  0  0  0  0  0
    1.6831    1.5286    0.0000 O   0  0  0  0  0  0  0  0  0  0  0  0
    0.9687    0.2911    0.0000 N   0  0  0  0  0  0  0  0  0  0  0  0
    1.6831   -0.1214    0.0000 C   0  0  0  0  0  0  0  0  0  0  0  0
    2.3976    0.2911    0.0000 C   0  0  0  0  0  0  0  0  0  0  0  0
    3.1121   -0.1214    0.0000 C   0  0  0  0  0  0  0  0  0  0  0  0
    3.1121   -0.9464    0.0000 C   0  0  0  0  0  0  0  0  0  0  0  0
    2.3976   -1.3589    0.0000 C   0  0  0  0  0  0  0  0  0  0  0  0
    2.3976   -2.1839    0.0000 O   0  0  0  0  0  0  0  0  0  0  0  0
    1.6831   -2.5964    0.0000 C   0  0  0  0  0  0  0  0  0  0  0  0
    1.5969   -3.4169    0.0000 C   0  0  0  0  0  0  0  0  0  0  0  0
    0.7899   -3.5884    0.0000 C   0  0  0  0  0  0  0  0  0  0  0  0
    0.3774   -2.8739    0.0000 C   0  0  0  0  0  0  0  0  0  0  0  0
    0.9295   -2.2608    0.0000 C   0  0  0  0  0  0  0  0  0  0  0  0
    1.6831   -0.9464    0.0000 C   0  0  0  0  0  0  0  0  0  0  0  0
  1  2  2  0
  2  3  1  0
  2  4  1  0
  4  5  2  0
  4 13  1  0
  5  6  1  0
  6  7  2  0
  6 11  1  0
  7  8  1  0
  8  9  2  0
  9 10  1  0
  9 14  1  0
 10 11  2  0
 11 12  1  0
 12 13  2  0
 14 15  2  0
 14 16  1  0
 16 17  1  0
 17 18  2  0
 17 28  1  0
 18 19  1  0
 19 20  2  0
 20 21  1  0
 21 22  1  0
 21 28  2  0
 22 23  1  0
 23 24  1  0
 23 27  1  0
 24 25  1  0
 25 26  1  0
 26 27  1  0
M  END
>  <DRUGBANK_ID>  (1) 
DB07076

>  <COMMON_NAME>  (1) 
6-[(Z)-AMINO(IMINO)METHYL]-N-[3-(CYCLOPENTYLOXY)PHENYL]-2-NAPHTHAMIDE

$$$$
