
     RDKit          2D

 22 23  0  0  0  0  0  0  0  0999 V2000
    0.7144   -2.4750    0.0000 C   0  0  0  0  0  0  0  0  0  0  0  0
    0.0000    0.4125    0.0000 C   0  0  0  0  0  0  0  0  0  0  0  0
   -0.7144    1.6500    0.0000 C   0  0  0  0  0  0  0  0  0  0  0  0
    0.0000   -2.0625    0.0000 C   0  0  0  0  0  0  0  0  0  0  0  0
    0.0000    1.2375    0.0000 C   0  0  0  0  0  0  0  0  0  0  0  0
    0.7144    0.0000    0.0000 C   0  0  0  0  0  0  0  0  0  0  0  0
    0.0000   -1.2375    0.0000 C   0  0  0  0  0  0  0  0  0  0  0  0
    0.7144    1.6500    0.0000 C   0  0  0  0  0  0  0  0  0  0  0  0
    1.4289    0.4125    0.0000 C   0  0  0  0  0  0  0  0  0  0  0  0
   -0.7144   -0.8250    0.0000 C   0  0  0  0  0  0  0  0  0  0  0  0
    1.4289    1.2375    0.0000 C   0  0  0  0  0  0  0  0  0  0  0  0
   -1.4289   -1.2375    0.0000 C   0  0  0  0  0  0  0  0  0  0  0  0
   -1.4289   -2.0625    0.0000 C   0  0  0  0  0  0  0  0  0  0  0  0
    0.7144   -0.8250    0.0000 N   0  0  0  0  0  0  0  0  0  0  0  0
   -1.4289    1.2375    0.0000 O   0  0  0  0  0  0  0  0  0  0  0  0
    0.7144    2.4750    0.0000 O   0  0  0  0  0  0  0  0  0  0  0  0
    2.1434    0.0000    0.0000 O   0  0  0  0  0  0  0  0  0  0  0  0
   -0.7144    0.0000    0.0000 O   0  0  0  0  0  0  0  0  0  0  0  0
    2.1434    1.6500    0.0000 O   0  0  0  0  0  0  0  0  0  0  0  0
   -2.1434   -0.8250    0.0000 O   0  0  0  0  0  0  0  0  0  0  0  0
   -2.1434   -2.4750    0.0000 O   0  0  0  0  0  0  0  0  0  0  0  0
   -0.7144   -2.4750    0.0000 O   0  0  0  0  0  0  0  0  0  0  0  0
  4  1  1  1
  4 22  1  0
  5  2  2  0
  5  3  1  0
  6  2  1  0
  6 14  1  1
  7  4  1  0
  7 10  1  0
  7 14  1  6
  8  5  1  0
  9  6  1  0
  9 11  1  0
  9 17  1  1
 10 12  1  0
 10 18  1  1
 11  8  1  0
 11 19  1  6
 12 13  1  0
 12 20  1  6
 13 21  1  1
 13 22  1  0
 15  3  1  0
 16  8  1  0
M  END
>  <DRUGBANK_ID>  (1) 
DB03269

>  <SECONDARY_ACCESSION_NUMBERS>  (1) 
EXPT00449

>  <COMMON_NAME>  (1) 
4,6-Dideoxy-4-{[4,5,6-trihydroxy-3-(hydroxymethyl)-2-cyclohexen-1-yl]amino}hexopyranose

$$$$
