
     RDKit          2D

 31 32  0  0  0  0  0  0  0  0999 V2000
   -1.5353   -1.2232    0.0000 C   0  0  0  0  0  0  0  0  0  0  0  0
   -1.9495   -1.9367    0.0000 C   0  0  0  0  0  0  0  0  0  0  0  0
   -1.9495   -0.5096    0.0000 C   0  0  0  0  0  0  0  0  0  0  0  0
   -2.7713   -1.9367    0.0000 C   0  0  0  0  0  0  0  0  0  0  0  0
   -2.7713   -0.5096    0.0000 C   0  0  0  0  0  0  0  0  0  0  0  0
   -3.1854   -1.2232    0.0000 C   0  0  0  0  0  0  0  0  0  0  0  0
   -0.7135   -1.2232    0.0000 S   0  0  0  0  0  0  0  0  0  0  0  0
    0.1083   -1.2232    0.0000 N   0  0  0  0  0  0  0  0  0  0  0  0
   -0.7135   -2.0450    0.0000 O   0  0  0  0  0  0  0  0  0  0  0  0
   -0.7135   -0.3950    0.0000 O   0  0  0  0  0  0  0  0  0  0  0  0
    0.5224   -1.9367    0.0000 C   0  0  0  0  0  0  0  0  0  0  0  0
    1.3442   -1.9367    0.0000 C   0  0  0  0  0  0  0  0  0  0  0  0
    1.3442    0.9174    0.0000 C   0  0  0  0  0  0  0  0  0  0  0  0
    1.7584    0.2038    0.0000 C   0  0  0  0  0  0  0  0  0  0  0  0
    0.5224    0.9174    0.0000 C   0  0  0  0  0  0  0  0  0  0  0  0
    1.3442   -0.5096    0.0000 C   0  0  0  0  0  0  0  0  0  0  0  0
    0.1083    0.2038    0.0000 C   0  0  0  0  0  0  0  0  0  0  0  0
    0.5224   -0.5096    0.0000 C   0  0  0  0  0  0  0  0  0  0  0  0
    1.7584    1.6309    0.0000 C   0  0  0  0  0  0  0  0  0  0  0  0
    1.0448    2.0450    0.0000 C   0  0  0  0  0  0  0  0  0  0  0  0
    2.1724    2.3444    0.0000 O   0  0  0  0  0  0  0  0  0  0  0  0
    2.4719    1.2232    0.0000 C   0  0  0  0  0  0  0  0  0  0  0  0
    0.3312    2.4591    0.0000 F   0  0  0  0  0  0  0  0  0  0  0  0
    0.6307    1.3315    0.0000 F   0  0  0  0  0  0  0  0  0  0  0  0
    1.4589    2.7586    0.0000 F   0  0  0  0  0  0  0  0  0  0  0  0
    1.3442   -2.7586    0.0000 F   0  0  0  0  0  0  0  0  0  0  0  0
    1.3442   -1.1085    0.0000 F   0  0  0  0  0  0  0  0  0  0  0  0
    2.1724   -1.9367    0.0000 F   0  0  0  0  0  0  0  0  0  0  0  0
    3.1854    0.8027    0.0000 F   0  0  0  0  0  0  0  0  0  0  0  0
    2.0577    0.5096    0.0000 F   0  0  0  0  0  0  0  0  0  0  0  0
    2.8860    1.9367    0.0000 F   0  0  0  0  0  0  0  0  0  0  0  0
  1  2  2  0
  1  3  1  0
  1  7  1  0
  2  4  1  0
  3  5  2  0
  4  6  2  0
  5  6  1  0
  7  8  1  0
  7  9  2  0
  7 10  2  0
  8 11  1  0
  8 18  1  0
 11 12  1  0
 12 26  1  0
 12 27  1  0
 12 28  1  0
 13 14  2  0
 13 15  1  0
 13 19  1  0
 14 16  1  0
 15 17  2  0
 16 18  2  0
 17 18  1  0
 19 20  1  0
 19 21  1  0
 19 22  1  0
 20 23  1  0
 20 24  1  0
 20 25  1  0
 22 29  1  0
 22 30  1  0
 22 31  1  0
M  END
>  <DRUGBANK_ID>  (1) 
DB07080

>  <COMMON_NAME>  (1) 
TO-901317

>  <CAS_NUMBER>  (1) 
293754-55-9

>  <UNII>  (1) 
A07663A39I

$$$$
