
     RDKit          2D

 10 10  0  0  0  0  0  0  0  0999 V2000
   21.7327  -15.9637    0.0000 O   0  0  0  0  0  0  0  0  0  0  0  0
   23.1615  -15.9637    0.0000 N   0  0  0  0  0  0  0  0  0  0  0  0
   21.7327  -18.4386    0.0000 N   0  0  0  0  0  0  0  0  0  0  0  0
   23.1615  -15.1388    0.0000 C   0  0  0  0  0  0  0  0  0  0  0  0
   22.4470  -16.3762    0.0000 C   0  0  0  0  0  0  0  0  0  0  0  0
   22.4470  -17.2012    0.0000 C   0  0  0  0  0  0  0  0  0  0  0  0
   21.7327  -17.6136    0.0000 C   0  0  0  0  0  0  0  0  0  0  0  0
   22.4470  -18.8510    0.0000 C   0  0  0  0  0  0  0  0  0  0  0  0
   23.1615  -17.6136    0.0000 C   0  0  0  0  0  0  0  0  0  0  0  0
   23.1615  -18.4386    0.0000 C   0  0  0  0  0  0  0  0  0  0  0  0
  1  5  2  0
  2  4  1  0
  2  5  1  0
  3  7  2  0
  3  8  1  0
  5  6  1  0
  6  7  1  0
  6  9  2  0
  8 10  2  0
  9 10  1  0
M  END
>  <DRUGBANK_ID>  (1) 
DB08840

>  <COMMON_NAME>  (1) 
N-methylnicotinamide

>  <CAS_NUMBER>  (1) 
114-33-0

>  <UNII>  (1) 
X3I82S5L8I

>  <SYNONYMS>  (1) 
3-(Methylcarbamoyl)pyridine; 3-(N-Methylcarbamoyl)pyridine; N-Methyl nicotineamide; N-Methyl-3-pyridinecarboxamide; N-methylpyridine-3-carboxamide; Nicotinic acid methylamide; Nicotinyl methylamide

$$$$
