517
     RDKit          2D

 21 23  0  0  0  0  0  0  0  0999 V2000
   -2.1524   -0.1525    0.0000 N   0  0  0  0  0  0  0  0  0  0  0  0
   -2.8669   -0.5650    0.0000 C   0  0  0  0  0  0  0  0  0  0  0  0
   -2.6954   -1.3720    0.0000 C   0  0  0  0  0  0  0  0  0  0  0  0
   -1.8749   -1.4582    0.0000 C   0  0  0  0  0  0  0  0  0  0  0  0
   -1.5393   -0.7046    0.0000 C   0  0  0  0  0  0  0  0  0  0  0  0
   -0.7324   -0.5330    0.0000 C   0  0  0  0  0  0  0  0  0  0  0  0
   -0.1803   -1.1461    0.0000 C   0  0  0  0  0  0  0  0  0  0  0  0
   -0.4774    0.2516    0.0000 C   0  0  0  0  0  0  0  0  0  0  0  0
    0.3072    0.5065    0.0000 C   0  0  0  0  0  0  0  0  0  0  0  0
    1.0217    0.0940    0.0000 C   0  0  0  0  0  0  0  0  0  0  0  0
   -0.9624    0.9190    0.0000 C   0  0  0  0  0  0  0  0  0  0  0  0
   -1.7874    0.9190    0.0000 O   0  0  0  0  0  0  0  0  0  0  0  0
   -0.4774    1.5865    0.0000 N   0  0  0  0  0  0  0  0  0  0  0  0
    0.3072    1.3315    0.0000 C   0  0  0  0  0  0  0  0  0  0  0  0
    1.0217    1.7440    0.0000 C   0  0  0  0  0  0  0  0  0  0  0  0
    1.7361    1.3315    0.0000 C   0  0  0  0  0  0  0  0  0  0  0  0
    1.7361    0.5065    0.0000 C   0  0  0  0  0  0  0  0  0  0  0  0
    2.4506    0.0940    0.0000 N   0  0  0  0  0  0  0  0  0  0  0  0
    2.4506   -0.7310    0.0000 C   0  0  0  0  0  0  0  0  0  0  0  0
    3.1651   -1.1435    0.0000 O   0  0  0  0  0  0  0  0  0  0  0  0
    1.7361   -1.1435    0.0000 N   0  0  0  0  0  0  0  0  0  0  0  0
  1  5  1  0
  1  2  1  0
  2  3  2  0
  3  4  1  0
  4  5  2  0
  5  6  1  0
  6  8  1  0
  6  7  1  1
  8  9  2  0
  8 11  1  0
  9 14  1  0
  9 10  1  0
 10 17  2  0
 11 13  1  0
 11 12  2  0
 13 14  2  0
 14 15  1  0
 15 16  2  0
 16 17  1  0
 17 18  1  0
 18 19  1  0
 19 20  2  0
 19 21  1  0
M  END
>  <DRUGBANK_ID>  (1) 
DB07132

>  <COMMON_NAME>  (1) 
1-{2-OXO-3-[(1R)-1-(1H-PYRROL-2-YL)ETHYL]-2H-INDOL-5-YL}UREA

$$$$
