
     RDKit          2D

 29 32  0  0  0  0  0  0  0  0999 V2000
   -2.5803    0.8250    0.0000 C   0  0  0  0  0  0  0  0  0  0  0  0
   -3.2948    0.4125    0.0000 C   0  0  0  0  0  0  0  0  0  0  0  0
   -3.2948   -0.4125    0.0000 N   0  0  0  0  0  0  0  0  0  0  0  0
   -2.5803   -0.8250    0.0000 C   0  0  0  0  0  0  0  0  0  0  0  0
   -1.8659   -0.4125    0.0000 C   0  0  0  0  0  0  0  0  0  0  0  0
   -1.8659    0.4125    0.0000 N   0  0  0  0  0  0  0  0  0  0  0  0
   -1.1514    0.8250    0.0000 C   0  0  0  0  0  0  0  0  0  0  0  0
   -1.1514   -0.8250    0.0000 C   0  0  0  0  0  0  0  0  0  0  0  0
   -0.4369   -0.4125    0.0000 C   0  0  0  0  0  0  0  0  0  0  0  0
   -0.4369    0.4125    0.0000 C   0  0  0  0  0  0  0  0  0  0  0  0
   -4.0794   -0.6674    0.0000 C   0  0  0  0  0  0  0  0  0  0  0  0
   -4.5643    0.0000    0.0000 C   0  0  0  0  0  0  0  0  0  0  0  0
   -4.0794    0.6673    0.0000 O   0  0  0  0  0  0  0  0  0  0  0  0
   -4.3343   -1.4520    0.0000 C   0  0  0  0  0  0  0  0  0  0  0  0
   -2.5803   -1.6500    0.0000 O   0  0  0  0  0  0  0  0  0  0  0  0
   -1.1514   -1.6500    0.0000 O   0  0  0  0  0  0  0  0  0  0  0  0
    0.2774    0.8250    0.0000 C   0  0  0  0  0  0  0  0  0  0  0  0
    0.2774    1.6500    0.0000 O   0  0  0  0  0  0  0  0  0  0  0  0
    0.9919    0.4125    0.0000 N   0  0  0  0  0  0  0  0  0  0  0  0
    1.7064    0.8250    0.0000 C   0  0  0  0  0  0  0  0  0  0  0  0
    2.4209    0.4125    0.0000 C   0  0  0  0  0  0  0  0  0  0  0  0
    3.1353    0.8250    0.0000 C   0  0  0  0  0  0  0  0  0  0  0  0
    2.4209   -0.4125    0.0000 C   0  0  0  0  0  0  0  0  0  0  0  0
    3.1353   -0.8250    0.0000 C   0  0  0  0  0  0  0  0  0  0  0  0
    3.8498   -0.4125    0.0000 C   0  0  0  0  0  0  0  0  0  0  0  0
    3.8498    0.4125    0.0000 C   0  0  0  0  0  0  0  0  0  0  0  0
    3.1353    1.6500    0.0000 F   0  0  0  0  0  0  0  0  0  0  0  0
    4.5643   -0.8250    0.0000 F   0  0  0  0  0  0  0  0  0  0  0  0
    0.2774   -0.8250    0.0000 O   0  0  0  0  0  0  0  0  0  0  0  0
  2  1  1  6
  1  6  1  0
  2 13  1  0
  2  3  1  0
  3  4  1  0
  3 11  1  0
  4  5  1  0
  4 15  2  0
  5  8  2  0
  6  5  1  0
  7  6  1  0
  7 10  2  0
  8  9  1  0
  8 16  1  0
  9 10  1  0
  9 29  2  0
 10 17  1  0
 11 12  1  0
 11 14  1  1
 12 13  1  0
 17 18  2  0
 17 19  1  0
 19 20  1  0
 20 21  1  0
 21 23  1  0
 22 21  2  0
 22 26  1  0
 22 27  1  0
 23 24  2  0
 24 25  1  0
 25 26  2  0
 25 28  1  0
M  END
>  <DRUGBANK_ID>  (1) 
DB11751

>  <COMMON_NAME>  (1) 
Cabotegravir

>  <CAS_NUMBER>  (1) 
1051375-10-0

>  <UNII>  (1) 
HMH0132Z1Q

>  <SYNONYMS>  (1) 
Cabotegravir

$$$$
