CDY
     RDKit          2D

 18 20  0  0  0  0  0  0  0  0999 V2000
   -0.7016    3.0340    0.0000 O   0  0  0  0  0  0  0  0  0  0  0  0
   -0.1496    2.4209    0.0000 C   0  0  0  0  0  0  0  0  0  0  0  0
   -0.4045    1.6363    0.0000 C   0  0  0  0  0  0  0  0  0  0  0  0
    0.0804    0.9689    0.0000 O   0  0  0  0  0  0  0  0  0  0  0  0
   -1.1892    1.3814    0.0000 C   0  0  0  0  0  0  0  0  0  0  0  0
   -1.1892    0.5564    0.0000 C   0  0  0  0  0  0  0  0  0  0  0  0
   -0.4045    0.3014    0.0000 C   0  0  0  0  0  0  0  0  0  0  0  0
   -0.1496   -0.4832    0.0000 N   0  0  0  0  0  0  0  0  0  0  0  0
   -0.6345   -1.1506    0.0000 C   0  0  0  0  0  0  0  0  0  0  0  0
   -0.1496   -1.8181    0.0000 N   0  0  0  0  0  0  0  0  0  0  0  0
    0.6350   -1.5631    0.0000 C   0  0  0  0  0  0  0  0  0  0  0  0
    0.6350   -0.7381    0.0000 C   0  0  0  0  0  0  0  0  0  0  0  0
    1.3495   -0.3256    0.0000 N   0  0  0  0  0  0  0  0  0  0  0  0
    2.0640   -0.7381    0.0000 C   0  0  0  0  0  0  0  0  0  0  0  0
    2.7784   -0.3256    0.0000 Cl  0  0  0  0  0  0  0  0  0  0  0  0
    2.0640   -1.5631    0.0000 N   0  0  0  0  0  0  0  0  0  0  0  0
    1.3495   -1.9756    0.0000 C   0  0  0  0  0  0  0  0  0  0  0  0
    1.3495   -2.8006    0.0000 N   0  0  0  0  0  0  0  0  0  0  0  0
  1  2  1  0
  3  2  1  1
  3  4  1  0
  3  5  1  0
  4  7  1  0
  5  6  1  0
  6  7  1  0
  7  8  1  1
  8  9  1  0
  8 12  1  0
  9 10  2  0
 10 11  1  0
 11 12  2  0
 11 17  1  0
 12 13  1  0
 13 14  2  0
 14 15  1  0
 14 16  1  0
 16 17  2  0
 17 18  1  0
M  END
>  <DRUGBANK_ID>  (1) 
DB02103

>  <SECONDARY_ACCESSION_NUMBERS>  (1) 
EXPT00881

>  <COMMON_NAME>  (1) 
2-Chlorodideoxyadenosine

>  <CAS_NUMBER>  (1) 
114849-58-0

$$$$
