166
     RDKit          2D

 28 30  0  0  0  0  0  0  0  0999 V2000
   -1.2632   -0.3390    0.0000 C   0  0  0  0  0  0  0  0  0  0  0  0
   -1.8033    0.2847    0.0000 C   0  0  0  0  0  0  0  0  0  0  0  0
   -2.6134    0.1288    0.0000 C   0  0  0  0  0  0  0  0  0  0  0  0
   -3.1535    0.7524    0.0000 C   0  0  0  0  0  0  0  0  0  0  0  0
   -3.9637    0.5965    0.0000 C   0  0  0  0  0  0  0  0  0  0  0  0
   -4.5038    1.2201    0.0000 N   0  0  0  0  0  0  0  0  0  0  0  0
   -4.2337   -0.1830    0.0000 N   0  0  0  0  0  0  0  0  0  0  0  0
   -0.7231    1.2201    0.0000 O   0  0  0  0  0  0  0  0  0  0  0  0
    0.6271    0.7524    0.0000 O   0  0  0  0  0  0  0  0  0  0  0  0
   -0.8601   -1.9311    0.0000 O   0  0  0  0  0  0  0  0  0  0  0  0
    0.0870   -0.8067    0.0000 C   0  0  0  0  0  0  0  0  0  0  0  0
    1.2299   -1.4963    0.0000 C   0  0  0  0  0  0  0  0  0  0  0  0
    0.9090   -0.7363    0.0000 C   0  0  0  0  0  0  0  0  0  0  0  0
   -0.1001   -1.6102    0.0000 C   0  0  0  0  0  0  0  0  0  0  0  0
    0.6063   -2.0364    0.0000 C   0  0  0  0  0  0  0  0  0  0  0  0
    1.4067   -0.0784    0.0000 C   0  0  0  0  0  0  0  0  0  0  0  0
    2.2254   -0.1804    0.0000 C   0  0  0  0  0  0  0  0  0  0  0  0
    2.5463   -0.9404    0.0000 C   0  0  0  0  0  0  0  0  0  0  0  0
    2.0486   -1.5984    0.0000 C   0  0  0  0  0  0  0  0  0  0  0  0
    2.7231    0.4775    0.0000 C   0  0  0  0  0  0  0  0  0  0  0  0
    2.4022    1.2375    0.0000 C   0  0  0  0  0  0  0  0  0  0  0  0
    2.8999    1.8955    0.0000 C   0  0  0  0  0  0  0  0  0  0  0  0
    3.7185    1.7934    0.0000 C   0  0  0  0  0  0  0  0  0  0  0  0
    4.0395    1.0334    0.0000 C   0  0  0  0  0  0  0  0  0  0  0  0
    3.5418    0.3755    0.0000 C   0  0  0  0  0  0  0  0  0  0  0  0
    4.2163    2.4514    0.0000 O   0  0  0  0  0  0  0  0  0  0  0  0
   -0.4531   -0.1830    0.0000 C   0  0  0  0  0  0  0  0  0  0  0  0
   -0.1830    0.5965    0.0000 C   0  0  0  0  0  0  0  0  0  0  0  0
  1  2  1  0
 27  1  1  1
  2  3  1  0
  3  4  1  0
  4  5  1  0
  5  6  1  0
  5  7  2  0
  8 28  2  0
  9 28  1  0
 11 13  1  1
 11 14  1  0
 11 27  1  0
 12 13  2  0
 12 15  1  0
 12 19  1  0
 13 16  1  0
 14 10  1  6
 14 15  1  0
 16 17  2  0
 17 18  1  0
 17 20  1  0
 18 19  2  0
 20 21  2  0
 20 25  1  0
 21 22  1  0
 22 23  2  0
 23 24  1  0
 23 26  1  0
 24 25  2  0
 27 28  1  0
M  END
>  <DRUGBANK_ID>  (1) 
DB06865

>  <COMMON_NAME>  (1) 
6-CARBAMIMIDOYL-2-[2-HYDROXY-6-(4-HYDROXY-PHENYL)-INDAN-1-YL]-HEXANOIC ACID

$$$$
