
     RDKit          2D

  9  8  0  0  0  0  0  0  0  0999 V2000
   -2.5007    0.0784    0.0000 O   0  0  0  0  0  0  0  0  0  0  0  0
   -0.3572    0.4908    0.0000 N   0  0  0  0  0  0  0  0  0  0  0  0
   -1.7861    0.4908    0.0000 N   0  0  0  0  0  0  0  0  0  0  0  0
   -1.0717   -0.7466    0.0000 N   0  0  0  0  0  0  0  0  0  0  0  0
    1.0718    0.4908    0.0000 C   0  0  0  0  0  0  0  0  0  0  0  0
    1.7863    0.0784    0.0000 C   0  0  0  0  0  0  0  0  0  0  0  0
    0.3572    0.0784    0.0000 C   0  0  0  0  0  0  0  0  0  0  0  0
    2.5007    0.4908    0.0000 C   0  0  0  0  0  0  0  0  0  0  0  0
   -1.0717    0.0784    0.0000 C   0  0  0  0  0  0  0  0  0  0  0  0
  1  3  1  0
  2  7  1  0
  2  9  2  0
  3  9  1  0
  4  9  1  0
  5  6  1  0
  5  7  1  0
  6  8  1  0
M  END
>  <DRUGBANK_ID>  (1) 
DB02727

>  <SECONDARY_ACCESSION_NUMBERS>  (1) 
EXPT00698

>  <COMMON_NAME>  (1) 
2-butyl-1-hydroxyguanidine

>  <CAS_NUMBER>  (1) 
140215-98-1

>  <SYNONYMS>  (1) 
N-butyl-N'-hydroxyguanidine

$$$$
