TLM
     RDKit          2D

 14 14  0  0  0  0  0  0  0  0999 V2000
    0.1011   -0.5158    0.0000 S   0  0  0  0  0  0  0  0  0  0  0  0
   -0.1538   -1.3004    0.0000 C   0  0  0  0  0  0  0  0  0  0  0  0
   -0.9788   -1.3004    0.0000 C   0  0  0  0  0  0  0  0  0  0  0  0
   -1.2338   -0.5158    0.0000 C   0  0  0  0  0  0  0  0  0  0  0  0
   -0.5663   -0.0309    0.0000 C   0  0  0  0  0  0  0  0  0  0  0  0
   -0.1613    0.6879    0.0000 C   0  0  0  0  0  0  0  0  0  0  0  0
    0.6636    0.6965    0.0000 C   0  0  0  0  0  0  0  0  0  0  0  0
    1.0686    1.4153    0.0000 C   0  0  0  0  0  0  0  0  0  0  0  0
    1.8936    1.4239    0.0000 C   0  0  0  0  0  0  0  0  0  0  0  0
    0.3311   -1.9679    0.0000 O   0  0  0  0  0  0  0  0  0  0  0  0
   -1.4637   -1.9679    0.0000 C   0  0  0  0  0  0  0  0  0  0  0  0
   -2.0184   -0.2609    0.0000 O   0  0  0  0  0  0  0  0  0  0  0  0
   -0.9713    0.6879    0.0000 C   0  0  0  0  0  0  0  0  0  0  0  0
    1.0836   -0.0136    0.0000 C   0  0  0  0  0  0  0  0  0  0  0  0
  1  2  1  0
  1  5  1  0
  2  3  1  0
  2 10  2  0
  3  4  2  0
  3 11  1  0
  4  5  1  0
  4 12  1  0
  5  6  1  0
  5 13  1  6
  6  7  2  0
  7  8  1  0
  7 14  1  0
  8  9  2  0
M  END
>  <DRUGBANK_ID>  (1) 
DB04302

>  <SECONDARY_ACCESSION_NUMBERS>  (1) 
EXPT03065

>  <COMMON_NAME>  (1) 
4-Hydroxy-3,5-Dimethyl-5-(2-Methyl-Buta-1,3-Dienyl)-5h-Thiophen-2-One

>  <CAS_NUMBER>  (1) 
82079-32-1

$$$$
