
     RDKit          2D

 31 28  0  0  0  0  0  0  0  0999 V2000
   -0.8415   -2.0744    0.0000 C   0  0  0  0  0  0  0  0  0  0  0  0
   -0.1130   -1.6558    0.0000 C   0  0  0  0  0  0  0  0  0  0  0  0
   -1.5406   -1.6264    0.0000 C   0  0  0  0  0  0  0  0  0  0  0  0
   -0.8707   -2.8991    0.0000 O   0  0  0  0  0  0  0  0  0  0  0  0
    0.5945   -2.0744    0.0000 C   0  0  0  0  0  0  0  0  0  0  0  0
   -0.1130   -0.8352    0.0000 O   0  0  0  0  0  0  0  0  0  0  0  0
   -2.2817   -2.0368    0.0000 C   0  0  0  0  0  0  0  0  0  0  0  0
   -1.5406   -0.8018    0.0000 O   0  0  0  0  0  0  0  0  0  0  0  0
    1.3229   -1.6977    0.0000 C   0  0  0  0  0  0  0  0  0  0  0  0
    0.5945   -2.8991    0.0000 O   0  0  0  0  0  0  0  0  0  0  0  0
   -2.9850   -1.6264    0.0000 C   0  0  0  0  0  0  0  0  0  0  0  0
   -2.3025   -2.8700    0.0000 O   0  0  0  0  0  0  0  0  0  0  0  0
    1.3229   -0.8687    0.0000 O   0  0  0  0  0  0  0  0  0  0  0  0
    2.0430   -2.1120    0.0000 O   0  0  0  0  0  0  0  0  0  0  0  0
   -3.7135   -1.9990    0.0000 O   0  0  0  0  0  0  0  0  0  0  0  0
   -0.8331    1.6265    0.0000 C   0  0  0  0  0  0  0  0  0  0  0  0
   -0.1046    2.0451    0.0000 C   0  0  0  0  0  0  0  0  0  0  0  0
   -1.5322    2.0743    0.0000 C   0  0  0  0  0  0  0  0  0  0  0  0
   -0.8624    0.8017    0.0000 O   0  0  0  0  0  0  0  0  0  0  0  0
    0.6028    1.6265    0.0000 C   0  0  0  0  0  0  0  0  0  0  0  0
   -0.1046    2.8658    0.0000 O   0  0  0  0  0  0  0  0  0  0  0  0
   -2.2733    1.6641    0.0000 C   0  0  0  0  0  0  0  0  0  0  0  0
   -1.5322    2.8991    0.0000 O   0  0  0  0  0  0  0  0  0  0  0  0
    1.3313    2.0032    0.0000 C   0  0  0  0  0  0  0  0  0  0  0  0
    0.6028    0.8017    0.0000 O   0  0  0  0  0  0  0  0  0  0  0  0
   -2.9766    2.0743    0.0000 C   0  0  0  0  0  0  0  0  0  0  0  0
   -2.2942    0.8310    0.0000 O   0  0  0  0  0  0  0  0  0  0  0  0
    1.3313    2.8322    0.0000 O   0  0  0  0  0  0  0  0  0  0  0  0
    2.0514    1.5888    0.0000 O   0  0  0  0  0  0  0  0  0  0  0  0
   -3.7051    1.7017    0.0000 O   0  0  0  0  0  0  0  0  0  0  0  0
    3.7135    0.0774    0.0000 Ca  0  0  0  0  0 15  0  0  0  0  0  0
  1  2  1  0
  1  3  1  0
  1  4  1  1
  2  5  1  0
  2  6  1  1
  3  7  1  0
  3  8  1  1
  5  9  1  0
  5 10  1  0
  7 11  1  0
  7 12  1  6
  9 14  1  0
  9 13  2  0
 11 15  1  0
 16 17  1  0
 16 18  1  0
 16 19  1  1
 17 20  1  0
 17 21  1  1
 18 22  1  0
 18 23  1  1
 20 24  1  0
 20 25  1  0
 22 26  1  0
 22 27  1  6
 24 28  2  0
 24 29  1  0
 26 30  1  0
M  CHG  3  14  -1  29  -1  31   2
M  END
>  <DRUGBANK_ID>  (1) 
DB00326

>  <SECONDARY_ACCESSION_NUMBERS>  (1) 
APRD00841

>  <COMMON_NAME>  (1) 
Calcium glucoheptonate

>  <CAS_NUMBER>  (1) 
29039-00-7

>  <UNII>  (1) 
L11651398J

>  <SYNONYMS>  (1) 
Calcii glucoheptonas; calcium (2ξ)-D-gluco-heptonate; calcium bis[(2ξ)-D-glycero-D-gulo-heptonate]; calcium bis[(2ξ)-D-glycero-D-ido-heptonate]; calcium bis[(3R,4S,5R,6R)-2,3,4,5,6,7-hexahydroxyheptanoate]; Calcium gluceptate; Calcium glucoheptonat; Calcium glucoheptonate; Calcium glucoheptonate (1:2); Glucoheptonate de calcium; Glucoheptonato calcico

$$$$
