HNT
     RDKit          2D

 15 16  0  0  0  0  0  0  0  0999 V2000
   -0.0008   -0.7524    0.0000 C   0  0  0  0  0  0  0  0  0  0  0  0
   -0.7153   -0.3399    0.0000 C   0  0  0  0  0  0  0  0  0  0  0  0
    2.8570    1.7226    0.0000 O   0  0  0  0  0  0  0  0  0  0  0  0
   -0.0008    0.8976    0.0000 C   0  0  0  0  0  0  0  0  0  0  0  0
    1.4281    0.8976    0.0000 C   0  0  0  0  0  0  0  0  0  0  0  0
    2.1426    0.4851    0.0000 C   0  0  0  0  0  0  0  0  0  0  0  0
    2.1426   -0.3399    0.0000 C   0  0  0  0  0  0  0  0  0  0  0  0
    1.4281   -0.7524    0.0000 C   0  0  0  0  0  0  0  0  0  0  0  0
   -1.4298   -1.5774    0.0000 O   0  0  0  0  0  0  0  0  0  0  0  0
   -1.4298   -0.7524    0.0000 C   0  0  0  0  0  0  0  0  0  0  0  0
    0.7136   -0.3399    0.0000 C   0  0  0  0  0  0  0  0  0  0  0  0
    2.8570    0.8976    0.0000 N   0  0  0  0  0  0  0  0  0  0  0  0
    3.5715    0.4851    0.0000 O   0  0  0  0  0  0  0  0  0  0  0  0
    0.7136    0.4851    0.0000 C   0  0  0  0  0  0  0  0  0  0  0  0
   -0.7153    0.4851    0.0000 N   0  0  0  0  0  0  0  0  0  0  0  0
  1  2  1  0
  1 11  1  0
  2 10  1  6
  2 15  1  0
  3 12  1  0
  4 14  1  0
  4 15  1  0
  5  6  1  0
  5 14  2  0
  6  7  2  0
  6 12  1  0
  7  8  1  0
  8 11  2  0
  9 10  1  0
 11 14  1  0
 12 13  2  0
M  CHG  2   3  -1  12   1
M  END
>  <DRUGBANK_ID>  (1) 
DB07906

>  <COMMON_NAME>  (1) 
[(3R)-7-NITRO-1,2,3,4-TETRAHYDROISOQUINOLIN-3-YL]METHANOL

$$$$
