
     RDKit          2D

 21 23  0  0  0  0  0  0  0  0999 V2000
    0.2021    0.0594    0.0000 C   0  0  0  0  0  0  0  0  0  0  0  0
   -0.6064    0.0594    0.0000 C   0  0  0  0  0  0  0  0  0  0  0  0
    1.4150    0.7571    0.0000 N   0  0  0  0  0  0  0  0  0  0  0  0
   -1.0028    0.7571    0.0000 C   0  0  0  0  0  0  0  0  0  0  0  0
   -1.0345   -0.6592    0.0000 C   0  0  0  0  0  0  0  0  0  0  0  0
    0.6064    0.7571    0.0000 C   0  0  0  0  0  0  0  0  0  0  0  0
   -0.6460    1.5023    0.0000 S   0  0  0  0  0  0  0  0  0  0  0  0
   -1.8907   -0.7332    0.0000 S   0  0  0  0  0  0  0  0  0  0  0  0
    0.6434   -0.6592    0.0000 C   0  0  0  0  0  0  0  0  0  0  0  0
   -0.7016   -1.4230    0.0000 C   0  0  0  0  0  0  0  0  0  0  0  0
   -1.8193    0.8442    0.0000 C   0  0  0  0  0  0  0  0  0  0  0  0
    1.8748    0.0673    0.0000 C   0  0  0  0  0  0  0  0  0  0  0  0
   -1.2644    2.0571    0.0000 C   0  0  0  0  0  0  0  0  0  0  0  0
   -2.0571   -1.5498    0.0000 C   0  0  0  0  0  0  0  0  0  0  0  0
   -1.3278   -1.9831    0.0000 C   0  0  0  0  0  0  0  0  0  0  0  0
   -1.9806    1.6476    0.0000 C   0  0  0  0  0  0  0  0  0  0  0  0
    1.4705   -0.6460    0.0000 C   0  0  0  0  0  0  0  0  0  0  0  0
    1.3278    1.5973    0.0000 C   0  0  0  0  0  0  0  0  0  0  0  0
    2.0571    1.2327    0.0000 C   0  0  0  0  0  0  0  0  0  0  0  0
    1.8881   -1.3490    0.0000 O   0  0  0  0  0  0  0  0  0  0  0  0
    1.4864   -2.0571    0.0000 C   0  0  0  0  0  0  0  0  0  0  0  0
  2  1  2  3
  3  6  1  0
  3 12  1  0
  4  2  1  0
  5  2  1  0
  6  1  1  0
  7  4  1  0
  8  5  1  0
  9  1  1  0
 10  5  2  0
 11  4  2  0
 12 17  1  0
 13  7  1  0
 14  8  1  0
 15 10  1  0
 15 14  2  0
 16 11  1  0
 16 13  2  0
 17  9  1  0
 18  3  1  0
 19  3  1  0
 20 17  1  0
 21 20  1  0
M  CHG  1   3   1
M  END
>  <DRUGBANK_ID>  (1) 
DB13850

>  <COMMON_NAME>  (1) 
Timepidium

>  <CAS_NUMBER>  (1) 
97094-64-9

>  <UNII>  (1) 
C1WS2XH3K4

>  <SYNONYMS>  (1) 
3-(di-2-thienylmethylene)-5-methoxy-1,1-dimethyl-piperidinium; Timepidium cation; Timepidium ion

$$$$
