
     RDKit          2D

 31 34  0  0  0  0  0  0  0  0999 V2000
    0.3921   -0.2271    0.0000 C   0  0  0  0  0  0  0  0  0  0  0  0
   -1.0452   -1.0438    0.0000 C   0  0  0  0  0  0  0  0  0  0  0  0
   -1.7576   -1.4562    0.0000 C   0  0  0  0  0  0  0  0  0  0  0  0
    0.3879   -1.0520    0.0000 C   0  0  0  0  0  0  0  0  0  0  0  0
   -0.3244   -1.4562    0.0000 C   0  0  0  0  0  0  0  0  0  0  0  0
    1.1879    0.0186    0.0000 C   0  0  0  0  0  0  0  0  0  0  0  0
   -1.7576   -2.2812    0.0000 C   0  0  0  0  0  0  0  0  0  0  0  0
   -1.0369   -0.2147    0.0000 C   0  0  0  0  0  0  0  0  0  0  0  0
   -0.3202    0.1936    0.0000 C   0  0  0  0  0  0  0  0  0  0  0  0
    1.6629   -0.6563    0.0000 C   0  0  0  0  0  0  0  0  0  0  0  0
   -2.4617   -1.0397    0.0000 C   0  0  0  0  0  0  0  0  0  0  0  0
    1.1671   -1.3188    0.0000 C   0  0  0  0  0  0  0  0  0  0  0  0
   -2.4617   -2.6896    0.0000 C   0  0  0  0  0  0  0  0  0  0  0  0
    1.4546    0.7978    0.0000 C   0  0  0  0  0  0  0  0  0  0  0  0
   -0.3328   -2.2812    0.0000 C   0  0  0  0  0  0  0  0  0  0  0  0
   -3.1743   -1.4562    0.0000 C   0  0  0  0  0  0  0  0  0  0  0  0
   -3.1743   -2.2812    0.0000 C   0  0  0  0  0  0  0  0  0  0  0  0
   -1.0452   -2.6937    0.0000 C   0  0  0  0  0  0  0  0  0  0  0  0
   -1.0452   -1.8688    0.0000 F   0  0  0  0  0  0  0  0  0  0  0  0
    0.9046    1.4185    0.0000 O   0  0  0  0  0  0  0  0  0  0  0  0
   -3.8952   -2.6937    0.0000 O   0  0  0  0  0  0  0  0  0  0  0  0
    1.9796    0.2353    0.0000 O   0  0  0  0  0  0  0  0  0  0  0  0
    0.3921    0.6061    0.0000 C   0  0  0  0  0  0  0  0  0  0  0  0
   -1.7494    0.2061    0.0000 O   0  0  0  0  0  0  0  0  0  0  0  0
   -1.7576   -0.6312    0.0000 C   0  0  0  0  0  0  0  0  0  0  0  0
    2.4879   -0.6688    0.0000 C   0  0  0  0  0  0  0  0  0  0  0  0
    2.2628    0.9602    0.0000 C   0  0  0  0  0  0  0  0  0  0  0  0
    2.5296    1.7435    0.0000 O   0  0  0  0  0  0  0  0  0  0  0  0
    3.3465    1.9054    0.0000 C   0  0  0  0  0  0  0  0  0  0  0  0
    3.6150    2.6937    0.0000 O   0  0  0  0  0  0  0  0  0  0  0  0
    3.8952    1.2786    0.0000 C   0  0  0  0  0  0  0  0  0  0  0  0
  1 23  1  1
  2  8  1  0
  2 19  1  6
  2  5  1  0
  3  2  1  0
  3 25  1  1
  4  1  1  0
  5  4  1  0
  6  1  1  0
  6 14  1  0
  7  3  1  0
  8  9  1  0
  8 24  1  1
  9  1  1  0
 10  6  1  0
 10 26  1  6
 10 12  1  0
 11  3  1  0
  4 12  1  1
 13  7  2  0
  5 15  1  6
 16 11  2  0
 17 16  1  0
 17 13  1  0
 18 15  1  0
 18  7  1  0
 20 14  2  0
 21 17  2  0
  6 22  1  6
 27 14  1  0
 28 27  1  0
 28 29  1  0
 29 30  2  0
 29 31  1  0
M  END
>  <DRUGBANK_ID>  (1) 
DB14649

>  <SECONDARY_ACCESSION_NUMBERS>  (1) 
DBSALT000383

>  <COMMON_NAME>  (1) 
Dexamethasone acetate

>  <CAS_NUMBER>  (1) 
1177-87-3

>  <UNII>  (1) 
K7V8P532WP

>  <SYNONYMS>  (1) 
16alpha-Methyl-9alpha-fluoroprednisolone 21-acetate; 9alpha-Fluoro-16alpha-methylprednisolone acetate; Dexamethasone 21-acetate; Dexamethasone acetate anhydrous; Dexamethasone acetate, anhydrous; Dexamethasoni acetas

$$$$
