
     RDKit          2D

 34 36  0  0  0  0  0  0  0  0999 V2000
    1.7764   -1.0575    0.0000 C   0  0  0  0  0  0  0  0  0  0  0  0
    1.0359    0.9994    0.0000 C   0  0  0  0  0  0  0  0  0  0  0  0
    0.3339   -1.0721    0.0000 C   0  0  0  0  0  0  0  0  0  0  0  0
    1.0745   -1.4836    0.0000 O   0  0  0  0  0  0  0  0  0  0  0  0
    1.0504    0.1718    0.0000 O   0  0  0  0  0  0  0  0  0  0  0  0
    0.3389   -0.2493    0.0000 C   0  0  0  0  0  0  0  0  0  0  0  0
   -0.3726   -1.4980    0.0000 C   0  0  0  0  0  0  0  0  0  0  0  0
   -1.0890   -1.0914    0.0000 C   0  0  0  0  0  0  0  0  0  0  0  0
    2.4976   -1.4690    0.0000 C   0  0  0  0  0  0  0  0  0  0  0  0
    1.7474    1.4351    0.0000 C   0  0  0  0  0  0  0  0  0  0  0  0
   -3.2333   -1.5417    0.0000 N   0  0  0  0  0  0  0  0  0  0  0  0
    1.7764   -0.2299    0.0000 O   0  0  0  0  0  0  0  0  0  0  0  0
    0.3243    1.4061    0.0000 O   0  0  0  0  0  0  0  0  0  0  0  0
   -0.3920    0.1572    0.0000 C   0  0  0  0  0  0  0  0  0  0  0  0
   -1.1036   -0.2589    0.0000 C   0  0  0  0  0  0  0  0  0  0  0  0
   -3.9546   -1.1398    0.0000 C   0  0  0  0  0  0  0  0  0  0  0  0
   -2.5218   -1.1205    0.0000 C   0  0  0  0  0  0  0  0  0  0  0  0
   -1.7957   -1.5126    0.0000 C   0  0  0  0  0  0  0  0  0  0  0  0
    3.2091   -1.0431    0.0000 C   0  0  0  0  0  0  0  0  0  0  0  0
    2.4831    1.0285    0.0000 C   0  0  0  0  0  0  0  0  0  0  0  0
    1.7425    2.2483    0.0000 C   0  0  0  0  0  0  0  0  0  0  0  0
    2.5121   -2.2968    0.0000 C   0  0  0  0  0  0  0  0  0  0  0  0
    2.4444    2.6839    0.0000 C   0  0  0  0  0  0  0  0  0  0  0  0
    3.2333   -2.6888    0.0000 C   0  0  0  0  0  0  0  0  0  0  0  0
    3.9207   -1.4448    0.0000 C   0  0  0  0  0  0  0  0  0  0  0  0
    3.1850    1.4497    0.0000 C   0  0  0  0  0  0  0  0  0  0  0  0
    3.1801    2.2629    0.0000 C   0  0  0  0  0  0  0  0  0  0  0  0
    3.9498   -2.2629    0.0000 C   0  0  0  0  0  0  0  0  0  0  0  0
   -1.7957   -2.3403    0.0000 O   0  0  0  0  0  0  0  0  0  0  0  0
   -4.3709   -0.4236    0.0000 C   0  0  0  0  0  0  0  0  0  0  0  0
   -4.6613   -1.5610    0.0000 C   0  0  0  0  0  0  0  0  0  0  0  0
   -3.5528   -0.4236    0.0000 C   0  0  0  0  0  0  0  0  0  0  0  0
    4.6613   -2.6791    0.0000 C   0  0  0  0  0  0  0  0  0  0  0  0
    3.8820    2.6888    0.0000 C   0  0  0  0  0  0  0  0  0  0  0  0
  2  5  1  0
  3  4  1  0
  4  1  1  0
  5  6  1  0
  6  3  1  0
  7  3  2  0
  8  7  1  0
  9  1  1  0
 10  2  1  0
 11 17  1  0
 12  1  2  0
 13  2  2  0
 14  6  2  0
 14 15  1  0
 15  8  2  0
 16 11  1  0
 17 18  1  0
 18  8  1  0
 19  9  2  0
 20 10  2  0
 21 10  1  0
 22  9  1  0
 23 21  2  0
 24 22  2  0
 24 28  1  0
 25 19  1  0
 26 20  1  0
 26 27  2  0
 27 23  1  0
 28 25  2  0
 29 18  1  0
 30 16  1  0
 31 16  1  0
 32 16  1  0
 33 28  1  0
 34 27  1  0
M  END
>  <DRUGBANK_ID>  (1) 
DB00901

>  <SECONDARY_ACCESSION_NUMBERS>  (1) 
APRD00827

>  <COMMON_NAME>  (1) 
Bitolterol

>  <CAS_NUMBER>  (1) 
30392-40-6

>  <UNII>  (1) 
9KY0QXD6LI

>  <SYNONYMS>  (1) 
4-(2-(tert-butylamino)-1-hydroxyethyl)-o-phenylene di-p-toluate; 4-[2-(tert-butylamino)-1-hydroxyethyl]-o-phenylene di-p-toluate; bis(4-methylbenzoic acid) 4-[2-(tert-butylamino)-1-hydroxyethyl]-1,2-phenylene ester; Bitolterol; Bitolt√©rol; Bitolterolum

$$$$
