PU5
     RDKit          2D

 23 25  0  0  0  0  0  0  0  0999 V2000
    1.4813    2.4233    0.0000 C   0  0  0  0  0  0  0  0  0  0  0  0
    0.9293    1.8102    0.0000 C   0  0  0  0  0  0  0  0  0  0  0  0
    1.1842    1.0255    0.0000 C   0  0  0  0  0  0  0  0  0  0  0  0
    0.6322    0.4124    0.0000 C   0  0  0  0  0  0  0  0  0  0  0  0
    0.8871   -0.3722    0.0000 N   0  0  0  0  0  0  0  0  0  0  0  0
    1.6717   -0.6271    0.0000 C   0  0  0  0  0  0  0  0  0  0  0  0
    2.3862   -0.2146    0.0000 N   0  0  0  0  0  0  0  0  0  0  0  0
    3.1007   -0.6271    0.0000 C   0  0  0  0  0  0  0  0  0  0  0  0
   -0.4228   -1.0396    0.0000 C   0  0  0  0  0  0  0  0  0  0  0  0
    3.1007   -1.4521    0.0000 N   0  0  0  0  0  0  0  0  0  0  0  0
    1.6717   -1.4521    0.0000 C   0  0  0  0  0  0  0  0  0  0  0  0
    2.3862   -1.8646    0.0000 C   0  0  0  0  0  0  0  0  0  0  0  0
    2.3862   -2.6896    0.0000 N   0  0  0  0  0  0  0  0  0  0  0  0
    0.8871   -1.7071    0.0000 N   0  0  0  0  0  0  0  0  0  0  0  0
    0.4022   -1.0396    0.0000 C   0  0  0  0  0  0  0  0  0  0  0  0
   -0.4228    0.3893    0.0000 C   0  0  0  0  0  0  0  0  0  0  0  0
   -0.8353   -0.3251    0.0000 C   0  0  0  0  0  0  0  0  0  0  0  0
   -1.6603   -0.3251    0.0000 C   0  0  0  0  0  0  0  0  0  0  0  0
   -0.8353    1.1038    0.0000 C   0  0  0  0  0  0  0  0  0  0  0  0
   -1.6603    1.1038    0.0000 C   0  0  0  0  0  0  0  0  0  0  0  0
   -2.0728    0.3893    0.0000 C   0  0  0  0  0  0  0  0  0  0  0  0
   -2.8978    0.3893    0.0000 O   0  0  0  0  0  0  0  0  0  0  0  0
   -3.3103   -0.3251    0.0000 C   0  0  0  0  0  0  0  0  0  0  0  0
  1  2  1  0
  2  3  1  0
  3  4  1  0
  4  5  1  0
  5  6  1  0
  5 15  1  0
  6  7  2  0
  6 11  1  0
  7  8  1  0
  8 10  2  0
  9 15  1  0
  9 17  1  0
 10 12  1  0
 11 12  2  0
 11 14  1  0
 12 13  1  0
 14 15  2  0
 16 17  2  0
 16 19  1  0
 17 18  1  0
 18 21  2  0
 19 20  2  0
 20 21  1  0
 21 22  1  0
 22 23  1  0
M  END
>  <DRUGBANK_ID>  (1) 
DB03809

>  <SECONDARY_ACCESSION_NUMBERS>  (1) 
EXPT02696

>  <COMMON_NAME>  (1) 
9-Butyl-8-(3-Methoxybenzyl)-9h-Purin-6-Amine

$$$$
