
     RDKit          2D

 17 19  0  0  0  0  0  0  0  0999 V2000
    3.3522    1.1104    0.0000 C   0  0  0  0  0  0  0  0  0  0  0  0
    3.3522    1.9354    0.0000 C   0  0  0  0  0  0  0  0  0  0  0  0
    2.6378    0.6979    0.0000 C   0  0  0  0  0  0  0  0  0  0  0  0
    2.6378    2.3479    0.0000 C   0  0  0  0  0  0  0  0  0  0  0  0
    0.0768   -0.1006    0.0000 C   0  0  0  0  0  0  0  0  0  0  0  0
    0.8837    0.0708    0.0000 C   0  0  0  0  0  0  0  0  0  0  0  0
   -0.9851   -1.0567    0.0000 C   0  0  0  0  0  0  0  0  0  0  0  0
    0.3739   -1.4983    0.0000 C   0  0  0  0  0  0  0  0  0  0  0  0
   -1.2400   -1.8414    0.0000 C   0  0  0  0  0  0  0  0  0  0  0  0
    0.1189   -2.2829    0.0000 C   0  0  0  0  0  0  0  0  0  0  0  0
    0.6537    1.5229    0.0000 C   0  0  0  0  0  0  0  0  0  0  0  0
   -0.1781   -0.8852    0.0000 C   0  0  0  0  0  0  0  0  0  0  0  0
    1.1387    0.8555    0.0000 C   0  0  0  0  0  0  0  0  0  0  0  0
    1.9233    1.1104    0.0000 C   0  0  0  0  0  0  0  0  0  0  0  0
    1.9233    1.9354    0.0000 C   0  0  0  0  0  0  0  0  0  0  0  0
   -0.6880   -2.4545    0.0000 N   0  0  0  0  0  0  0  0  0  0  0  0
    1.1387    2.1903    0.0000 N   0  0  0  0  0  0  0  0  0  0  0  0
  2  1  2  0
  3  1  1  0
  4  2  1  0
  6  5  1  0
  9  7  1  0
 10  8  1  0
 12  5  1  0
 12  7  1  0
 12  8  1  0
 13  6  1  0
 13 11  2  0
 14  3  2  0
 14 13  1  0
 15  4  2  0
 15 14  1  0
 16  9  1  0
 16 10  1  0
 17 11  1  0
 17 15  1  0
M  END
>  <DRUGBANK_ID>  (1) 
DB08953

>  <COMMON_NAME>  (1) 
Indalpine

>  <CAS_NUMBER>  (1) 
63758-79-2

>  <UNII>  (1) 
V35562QSVT

>  <SYNONYMS>  (1) 
Indalpine

$$$$
