F16
     RDKit          2D

 15 16  0  0  0  0  0  0  0  0999 V2000
   -0.2766   -0.1244    0.0000 C   0  0  0  0  0  0  0  0  0  0  0  0
   -0.5315   -0.9090    0.0000 C   0  0  0  0  0  0  0  0  0  0  0  0
   -1.3565   -0.9090    0.0000 C   0  0  0  0  0  0  0  0  0  0  0  0
   -1.6115   -0.1244    0.0000 N   0  0  0  0  0  0  0  0  0  0  0  0
   -0.9440    0.3605    0.0000 S   0  0  0  0  0  0  0  0  0  0  0  0
   -0.5390    1.0793    0.0000 O   0  0  0  0  0  0  0  0  0  0  0  0
   -1.3490    1.0793    0.0000 O   0  0  0  0  0  0  0  0  0  0  0  0
   -1.8414   -1.5764    0.0000 O   0  0  0  0  0  0  0  0  0  0  0  0
    0.5080    0.1306    0.0000 C   0  0  0  0  0  0  0  0  0  0  0  0
    0.6796    0.9375    0.0000 C   0  0  0  0  0  0  0  0  0  0  0  0
    1.4642    1.1925    0.0000 C   0  0  0  0  0  0  0  0  0  0  0  0
    2.0773    0.6404    0.0000 C   0  0  0  0  0  0  0  0  0  0  0  0
    1.9058   -0.1665    0.0000 C   0  0  0  0  0  0  0  0  0  0  0  0
    1.1211   -0.4215    0.0000 C   0  0  0  0  0  0  0  0  0  0  0  0
    2.5189   -0.7186    0.0000 O   0  0  0  0  0  0  0  0  0  0  0  0
  1  2  2  0
  1  5  1  0
  1  9  1  0
  2  3  1  0
  3  4  1  0
  3  8  2  0
  4  5  1  0
  5  6  2  0
  5  7  2  0
  9 10  2  0
  9 14  1  0
 10 11  1  0
 11 12  2  0
 12 13  1  0
 13 14  2  0
 13 15  1  0
M  END
>  <DRUGBANK_ID>  (1) 
DB07730

>  <COMMON_NAME>  (1) 
5-(3-HYDROXYPHENYL)ISOTHIAZOL-3(2H)-ONE 1,1-DIOXIDE

>  <UNII>  (1) 
832C81WLO3

$$$$
