A75
     RDKit          2D

 23 25  0  0  0  0  0  0  0  0999 V2000
   -2.5334   -0.7327    0.0000 C   0  0  0  0  0  0  0  0  0  0  0  0
   -1.8189   -1.1453    0.0000 C   0  0  0  0  0  0  0  0  0  0  0  0
   -1.1044   -0.7328    0.0000 C   0  0  0  0  0  0  0  0  0  0  0  0
   -1.1044    0.0922    0.0000 C   0  0  0  0  0  0  0  0  0  0  0  0
   -1.8189    0.5048    0.0000 C   0  0  0  0  0  0  0  0  0  0  0  0
   -2.5334    0.0923    0.0000 C   0  0  0  0  0  0  0  0  0  0  0  0
   -0.3900   -1.1452    0.0000 C   0  0  0  0  0  0  0  0  0  0  0  0
    0.3245   -0.7327    0.0000 C   0  0  0  0  0  0  0  0  0  0  0  0
    0.3245    0.0923    0.0000 C   0  0  0  0  0  0  0  0  0  0  0  0
   -0.3900    0.5048    0.0000 C   0  0  0  0  0  0  0  0  0  0  0  0
   -0.3900    1.3298    0.0000 C   0  0  0  0  0  0  0  0  0  0  0  0
    0.3245    1.7423    0.0000 O   0  0  0  0  0  0  0  0  0  0  0  0
   -1.1044    1.7423    0.0000 O   0  0  0  0  0  0  0  0  0  0  0  0
    1.0390    0.5048    0.0000 N   0  0  0  0  0  0  0  0  0  0  0  0
    1.7535    0.0922    0.0000 S   0  0  0  0  0  0  0  0  0  0  0  0
    2.4679   -0.3203    0.0000 C   0  0  0  0  0  0  0  0  0  0  0  0
    1.3410   -0.6222    0.0000 O   0  0  0  0  0  0  0  0  0  0  0  0
    2.1660    0.8067    0.0000 O   0  0  0  0  0  0  0  0  0  0  0  0
    3.1824    0.0922    0.0000 C   0  0  0  0  0  0  0  0  0  0  0  0
    3.8969   -0.3203    0.0000 C   0  0  0  0  0  0  0  0  0  0  0  0
    3.8969   -1.1453    0.0000 C   0  0  0  0  0  0  0  0  0  0  0  0
    3.1824   -1.5578    0.0000 C   0  0  0  0  0  0  0  0  0  0  0  0
    2.4679   -1.1453    0.0000 C   0  0  0  0  0  0  0  0  0  0  0  0
  1  2  1  0
  1  6  1  0
  2  3  1  0
  3  4  2  0
  3  7  1  0
  4  5  1  0
  4 10  1  0
  5  6  1  0
  7  8  2  0
  8  9  1  0
  9 10  2  0
  9 14  1  0
 10 11  1  0
 11 12  1  0
 11 13  2  0
 14 15  1  0
 15 16  1  0
 15 17  2  0
 15 18  2  0
 16 19  2  0
 16 23  1  0
 19 20  1  0
 20 21  2  0
 21 22  1  0
 22 23  2  0
M  END
>  <DRUGBANK_ID>  (1) 
DB07322

>  <COMMON_NAME>  (1) 
2-[(PHENYLSULFONYL)AMINO]-5,6,7,8-TETRAHYDRONAPHTHALENE-1-CARBOXYLIC ACID

$$$$
