
     RDKit          2D

 22 23  0  0  0  0  0  0  0  0999 V2000
   -0.6660   -0.4188    0.0000 C   0  0  0  0  0  0  0  0  0  0  0  0
    0.0505   -0.0139    0.0000 C   0  0  0  0  0  0  0  0  0  0  0  0
    0.8589    0.0000    0.0000 C   0  0  0  0  0  0  0  0  0  0  0  0
    1.6872    0.0032    0.0000 C   0  0  0  0  0  0  0  0  0  0  0  0
    2.0970   -0.7147    0.0000 N   0  0  0  0  0  0  0  0  0  0  0  0
    2.0968    0.7147    0.0000 O   0  0  0  0  0  0  0  0  0  0  0  0
    0.8623   -0.8222    0.0000 C   0  0  0  0  0  0  0  0  0  0  0  0
    0.8602    0.8252    0.0000 C   0  0  0  0  0  0  0  0  0  0  0  0
   -1.3761    0.0021    0.0000 N   0  0  0  0  0  0  0  0  0  0  0  0
   -1.3674    0.8275    0.0000 C   0  0  0  0  0  0  0  0  0  0  0  0
   -2.0970   -0.4010    0.0000 C   0  0  0  0  0  0  0  0  0  0  0  0
    0.1460    1.2385    0.0000 C   0  0  0  0  0  0  0  0  0  0  0  0
    0.1469    2.0672    0.0000 C   0  0  0  0  0  0  0  0  0  0  0  0
    0.8611    2.4764    0.0000 C   0  0  0  0  0  0  0  0  0  0  0  0
    1.5719    2.0670    0.0000 C   0  0  0  0  0  0  0  0  0  0  0  0
    1.5717    1.2397    0.0000 C   0  0  0  0  0  0  0  0  0  0  0  0
    1.5753   -1.2346    0.0000 C   0  0  0  0  0  0  0  0  0  0  0  0
    1.5749   -2.0644    0.0000 C   0  0  0  0  0  0  0  0  0  0  0  0
    0.8603   -2.4764    0.0000 C   0  0  0  0  0  0  0  0  0  0  0  0
    0.1493   -2.0649    0.0000 C   0  0  0  0  0  0  0  0  0  0  0  0
    0.1490   -1.2366    0.0000 C   0  0  0  0  0  0  0  0  0  0  0  0
   -0.6787   -1.2471    0.0000 C   0  0  0  0  0  0  0  0  0  0  0  0
  1  9  1  0
  1  2  1  0
  1 22  1  0
  2  3  1  0
  3  7  1  0
  3  8  1  0
  3  4  1  0
  4  6  2  0
  4  5  1  0
  7 17  2  0
  8 12  2  0
  9 10  1  0
  9 11  1  0
 12 13  1  0
 13 14  2  0
 14 15  1  0
 15 16  2  0
 16  8  1  0
 17 18  1  0
 18 19  2  0
 19 20  1  0
 20 21  2  0
 21  7  1  0
M  END
>  <DRUGBANK_ID>  (1) 
DB15597

>  <COMMON_NAME>  (1) 
Aminopentamide

>  <CAS_NUMBER>  (1) 
60-46-8

>  <UNII>  (1) 
IP1B47L61M

>  <SYNONYMS>  (1) 
Aminopentamide; Dimevamida; Dimevamide; Dimevamidum

$$$$
