
     RDKit          2D

 27 27  0  0  0  0  0  0  0  0999 V2000
   -2.5007   -1.2375    0.0000 C   0  0  0  0  0  0  0  0  0  0  0  0
   -2.5007   -2.0625    0.0000 C   0  0  0  0  0  0  0  0  0  0  0  0
   -3.2152   -2.4751    0.0000 C   0  0  0  0  0  0  0  0  0  0  0  0
   -3.9297   -2.0625    0.0000 C   0  0  0  0  0  0  0  0  0  0  0  0
   -3.9297   -1.2375    0.0000 C   0  0  0  0  0  0  0  0  0  0  0  0
   -3.2152   -0.8250    0.0000 C   0  0  0  0  0  0  0  0  0  0  0  0
   -4.6442   -2.4751    0.0000 F   0  0  0  0  0  0  0  0  0  0  0  0
   -1.7862   -0.8250    0.0000 C   0  0  0  0  0  0  0  0  0  0  0  0
   -1.7862    0.0000    0.0000 S   0  0  0  0  0  0  0  0  0  0  0  0
   -1.0717    0.4125    0.0000 C   0  0  0  0  0  0  0  0  0  0  0  0
   -1.0717    1.2375    0.0000 C   0  0  0  0  0  0  0  0  0  0  0  0
   -1.7862    1.6500    0.0000 C   0  0  0  0  0  0  0  0  0  0  0  0
   -2.5007    1.2375    0.0000 O   0  0  0  0  0  0  0  0  0  0  0  0
   -1.7862    2.4751    0.0000 O   0  0  0  0  0  0  0  0  0  0  0  0
   -0.3572    1.6500    0.0000 N   0  0  0  0  0  0  0  0  0  0  0  0
    0.3572    1.2375    0.0000 C   0  0  0  0  0  0  0  0  0  0  0  0
    0.3572    0.4125    0.0000 O   0  0  0  0  0  0  0  0  0  0  0  0
    1.0717    1.6500    0.0000 N   0  0  0  0  0  0  0  0  0  0  0  0
    1.7862    1.2375    0.0000 C   0  0  0  0  0  0  0  0  0  0  0  0
    1.7862    0.4125    0.0000 C   0  0  0  0  0  0  0  0  0  0  0  0
    2.5007    0.0000    0.0000 O   0  0  0  0  0  0  0  0  0  0  0  0
    1.0717    0.0000    0.0000 O   0  0  0  0  0  0  0  0  0  0  0  0
    2.5007    1.6500    0.0000 C   0  0  0  0  0  0  0  0  0  0  0  0
    3.2152    1.2375    0.0000 C   0  0  0  0  0  0  0  0  0  0  0  0
    3.9297    1.6500    0.0000 C   0  0  0  0  0  0  0  0  0  0  0  0
    4.6442    1.2375    0.0000 O   0  0  0  0  0  0  0  0  0  0  0  0
    3.9297    2.4751    0.0000 O   0  0  0  0  0  0  0  0  0  0  0  0
  1  2  2  0
  1  6  1  0
  1  8  1  0
  2  3  1  0
  3  4  2  0
  4  5  1  0
  4  7  1  0
  5  6  2  0
  9  8  1  0
 10  9  1  0
 11 10  1  1
 12 11  1  0
 12 13  1  0
 12 14  2  0
 15 11  1  0
 15 16  1  0
 16 17  2  0
 16 18  1  0
 18 19  1  0
 19 20  1  0
 19 23  1  1
 20 21  1  0
 20 22  2  0
 23 24  1  0
 24 25  1  0
 25 26  1  0
 25 27  2  0
M  END
>  <DRUGBANK_ID>  (1) 
DB07754

>  <COMMON_NAME>  (1) 
DCFBC

>  <CAS_NUMBER>  (1) 
564482-79-7

>  <UNII>  (1) 
40R868KZFF

$$$$
