7CP
     RDKit          2D

 25 28  0  0  0  0  0  0  0  0999 V2000
    0.0556    0.6329    0.0000 C   0  0  0  0  0  0  0  0  0  0  0  0
    0.7777    1.0317    0.0000 C   0  0  0  0  0  0  0  0  0  0  0  0
    1.4842    0.6057    0.0000 N   0  0  0  0  0  0  0  0  0  0  0  0
    2.2064    1.0045    0.0000 C   0  0  0  0  0  0  0  0  0  0  0  0
    1.4685   -0.2192    0.0000 C   0  0  0  0  0  0  0  0  0  0  0  0
    0.7464   -0.6180    0.0000 C   0  0  0  0  0  0  0  0  0  0  0  0
    0.0399   -0.1920    0.0000 C   0  0  0  0  0  0  0  0  0  0  0  0
    0.0242   -1.0169    0.0000 N   0  0  0  0  0  0  0  0  0  0  0  0
   -0.6980   -1.4157    0.0000 C   0  0  0  0  0  0  0  0  0  0  0  0
   -0.7137   -2.2405    0.0000 O   0  0  0  0  0  0  0  0  0  0  0  0
   -1.4045   -0.9897    0.0000 C   0  0  0  0  0  0  0  0  0  0  0  0
   -2.1938   -1.2296    0.0000 N   0  0  0  0  0  0  0  0  0  0  0  0
   -2.4637   -2.0093    0.0000 C   0  0  0  0  0  0  0  0  0  0  0  0
   -2.6660   -0.5531    0.0000 C   0  0  0  0  0  0  0  0  0  0  0  0
   -3.4847   -0.4513    0.0000 C   0  0  0  0  0  0  0  0  0  0  0  0
   -3.9822   -1.1094    0.0000 Cl  0  0  0  0  0  0  0  0  0  0  0  0
   -3.8058    0.3087    0.0000 C   0  0  0  0  0  0  0  0  0  0  0  0
   -4.6245    0.4105    0.0000 Cl  0  0  0  0  0  0  0  0  0  0  0  0
   -3.3083    0.9668    0.0000 C   0  0  0  0  0  0  0  0  0  0  0  0
   -2.4896    0.8649    0.0000 C   0  0  0  0  0  0  0  0  0  0  0  0
   -2.1685    0.1050    0.0000 C   0  0  0  0  0  0  0  0  0  0  0  0
   -1.3888   -0.1648    0.0000 C   0  0  0  0  0  0  0  0  0  0  0  0
   -0.6666    0.2340    0.0000 C   0  0  0  0  0  0  0  0  0  0  0  0
   -0.6509    1.0589    0.0000 C   0  0  0  0  0  0  0  0  0  0  0  0
   -0.6352    1.8837    0.0000 N   0  0  0  0  0  0  0  0  0  0  0  0
  1  2  1  0
  1  7  1  0
  2  3  1  0
  3  4  1  0
  3  5  1  0
  5  6  1  0
  6  7  1  0
  7  8  1  0
  7 23  1  0
  8  9  1  0
  9 10  2  0
  9 11  1  0
 11 12  1  0
 11 22  2  0
 12 13  1  0
 12 14  1  0
 14 15  2  0
 14 21  1  0
 15 16  1  0
 15 17  1  0
 17 18  1  0
 17 19  2  0
 19 20  1  0
 20 21  2  0
 21 22  1  0
 22 23  1  0
 23 24  1  1
 24 25  3  0
M  END
>  <DRUGBANK_ID>  (1) 
DB07242

>  <COMMON_NAME>  (1) 
(4R)-7,8-dichloro-1',9-dimethyl-1-oxo-1,2,4,9-tetrahydrospiro[beta-carboline-3,4'-piperidine]-4-carbonitrile

$$$$
