1351
     RDKit          2D

 16 16  0  0  0  0  0  0  0  0999 V2000
    4.5080   -0.1915    0.0000 O   0  0  0  0  0  0  0  0  0  0  0  0
    1.6500   -0.1915    0.0000 O   0  0  0  0  0  0  0  0  0  0  0  0
    3.0791   -2.6665    0.0000 O   0  0  0  0  0  0  0  0  0  0  0  0
    3.7935   -1.4290    0.0000 N   0  0  0  0  0  0  0  0  0  0  0  0
    2.3645   -1.4290    0.0000 N   0  0  0  0  0  0  0  0  0  0  0  0
    3.0791   -0.1915    0.0000 C   0  0  0  0  0  0  0  0  0  0  0  0
    3.4916    0.5231    0.0000 C   0  0  0  0  0  0  0  0  0  0  0  0
    3.0791    1.2375    0.0000 C   0  0  0  0  0  0  0  0  0  0  0  0
    2.6665    0.5231    0.0000 C   0  0  0  0  0  0  0  0  0  0  0  0
    3.4916    1.9520    0.0000 C   0  0  0  0  0  0  0  0  0  0  0  0
    3.7935   -0.6040    0.0000 C   0  0  0  0  0  0  0  0  0  0  0  0
    2.3645   -0.6040    0.0000 C   0  0  0  0  0  0  0  0  0  0  0  0
    1.8415    0.5231    0.0000 C   0  0  0  0  0  0  0  0  0  0  0  0
    4.3166    1.9520    0.0000 C   0  0  0  0  0  0  0  0  0  0  0  0
    3.0791    2.6665    0.0000 C   0  0  0  0  0  0  0  0  0  0  0  0
    3.0791   -1.8415    0.0000 C   0  0  0  0  0  0  0  0  0  0  0  0
  1 11  2  0
  2 12  2  0
  3 16  2  0
  4 11  1  0
  4 16  1  0
  5 12  1  0
  5 16  1  0
  6  7  1  0
  6  9  1  0
  6 11  1  0
  6 12  1  0
  7  8  1  0
  8 10  1  0
  9 13  1  0
 10 14  1  0
 10 15  1  0
M  END
>  <DRUGBANK_ID>  (1) 
DB01351

>  <COMMON_NAME>  (1) 
Amobarbital

>  <CAS_NUMBER>  (1) 
57-43-2

>  <UNII>  (1) 
GWH6IJ239E

>  <SYNONYMS>  (1) 
5-ethyl-5-(3-methylbutyl)-2,4,6(1H,3H,5H)-pyrimidinetrione; 5-ethyl-5-(3-methylbutyl)barbituric acid; 5-ethyl-5-isoamylbarbituric acid; 5-ethyl-5-isopentylbarbituric acid; Amobarbital; Amobarbitale; Amylobarbitone; Barbamil; Barbamyl

$$$$
