
     RDKit          2D

 16 15  0  0  0  0  0  0  0  0999 V2000
    3.1086   -2.1434    0.0000 C   0  0  0  0  0  0  0  0  0  0  0  0
   12.3967   -1.7309    0.0000 C   0  0  0  0  0  0  0  0  0  0  0  0
    3.8230   -1.7309    0.0000 C   0  0  0  0  0  0  0  0  0  0  0  0
   11.6822   -2.1434    0.0000 C   0  0  0  0  0  0  0  0  0  0  0  0
    4.5375   -2.1434    0.0000 C   0  0  0  0  0  0  0  0  0  0  0  0
   10.9677   -1.7309    0.0000 C   0  0  0  0  0  0  0  0  0  0  0  0
    7.3954   -2.1434    0.0000 C   0  0  0  0  0  0  0  0  0  0  0  0
    8.1099   -1.7309    0.0000 C   0  0  0  0  0  0  0  0  0  0  0  0
    5.2520   -1.7309    0.0000 C   0  0  0  0  0  0  0  0  0  0  0  0
   10.2533   -2.1434    0.0000 C   0  0  0  0  0  0  0  0  0  0  0  0
    6.6809   -1.7309    0.0000 C   0  0  0  0  0  0  0  0  0  0  0  0
    8.8243   -2.1434    0.0000 C   0  0  0  0  0  0  0  0  0  0  0  0
    6.6809   -0.9059    0.0000 O   0  0  0  0  0  0  0  0  0  0  0  0
    8.8243   -2.9684    0.0000 O   0  0  0  0  0  0  0  0  0  0  0  0
    5.9664   -2.1434    0.0000 O   0  0  0  0  0  0  0  0  0  0  0  0
    9.5388   -1.7309    0.0000 O   0  0  0  0  0  0  0  0  0  0  0  0
  3  1  1  0
  4  2  1  0
  5  3  1  0
  6  4  1  0
  8  7  1  0
  9  5  1  0
 10  6  1  0
 11  7  1  0
 12  8  1  0
 13 11  2  0
 14 12  2  0
 15  9  1  0
 15 11  1  0
 16 10  1  0
 16 12  1  0
M  END
>  <DRUGBANK_ID>  (1) 
DB13332

>  <COMMON_NAME>  (1) 
Dibutylsuccinate

>  <CAS_NUMBER>  (1) 
141-03-7

>  <UNII>  (1) 
Q050512U41

>  <SYNONYMS>  (1) 
Dibutyl succinate

$$$$
