ASF
     RDKit          2D

 12 11  0  0  0  0  0  0  0  0999 V2000
   -2.0460   -0.3481    0.0000 C   0  0  0  0  0  0  0  0  0  0  0  0
   -1.4223    0.1920    0.0000 C   0  0  0  0  0  0  0  0  0  0  0  0
   -0.6428   -0.0780    0.0000 C   0  0  0  0  0  0  0  0  0  0  0  0
   -0.0191    0.4621    0.0000 C   0  0  0  0  0  0  0  0  0  0  0  0
    1.5400   -0.0780    0.0000 C   0  0  0  0  0  0  0  0  0  0  0  0
    2.1636    0.4621    0.0000 C   0  0  0  0  0  0  0  0  0  0  0  0
    2.9432    0.1920    0.0000 C   0  0  0  0  0  0  0  0  0  0  0  0
    0.4904   -0.5875    0.0000 O   0  0  0  0  0  0  0  0  0  0  0  0
    1.0305    0.9716    0.0000 O   0  0  0  0  0  0  0  0  0  0  0  0
    3.5668    0.7321    0.0000 O   0  0  0  0  0  0  0  0  0  0  0  0
    3.0991   -0.6181    0.0000 O   0  0  0  0  0  0  0  0  0  0  0  0
    0.7604    0.1920    0.0000 S   0  0  0  0  0  0  0  0  0  0  0  0
  1  2  1  0
  2  3  1  0
  3  4  1  0
  4 12  1  0
  5  6  1  0
  5 12  1  0
  6  7  1  0
  7 10  1  0
  7 11  2  0
  8 12  2  0
  9 12  2  0
M  END
>  <DRUGBANK_ID>  (1) 
DB07387

>  <COMMON_NAME>  (1) 
3-(BUTYLSULPHONYL)-PROPANOIC ACID

$$$$
