
     RDKit          2D

 38 41  0  0  1  0  0  0  0  0999 V2000
    4.2868   -0.8250    0.0000 H   0  0  0  0  0  0  0  0  0  0  0  0
    3.5724   -1.2375    0.0000 C   0  0  0  0  0  0  0  0  0  0  0  0
    3.5724   -0.4125    0.0000 C   0  0  0  0  0  0  0  0  0  0  0  0
    4.2868   -1.6500    0.0000 N   0  0  0  0  0  0  0  0  0  0  0  0
    5.0013   -1.2375    0.0000 C   0  0  0  0  0  0  0  0  0  0  0  0
    5.0013   -0.4125    0.0000 O   0  0  0  0  0  0  0  0  0  0  0  0
    5.7158   -1.6500    0.0000 C   0  0  0  0  0  0  0  0  0  0  0  0
    6.4302   -1.2375    0.0000 O   0  0  0  0  0  0  0  0  0  0  0  0
    7.1447   -1.6500    0.0000 C   0  0  0  0  0  0  0  0  0  0  0  0
    7.8592   -1.2375    0.0000 F   0  0  0  0  0  0  0  0  0  0  0  0
    7.1447   -2.4750    0.0000 F   0  0  0  0  0  0  0  0  0  0  0  0
    2.8579   -1.6500    0.0000 C   0  0  0  0  0  0  0  0  0  0  0  0
    2.1434   -1.2375    0.0000 C   0  0  0  0  0  0  0  0  0  0  0  0
    1.4289   -1.6500    0.0000 C   0  0  0  0  0  0  0  0  0  0  0  0
    0.7145   -1.2375    0.0000 F   0  0  0  0  0  0  0  0  0  0  0  0
    1.4289   -2.4750    0.0000 C   0  0  0  0  0  0  0  0  0  0  0  0
    2.1434   -2.8875    0.0000 C   0  0  0  0  0  0  0  0  0  0  0  0
    2.1434   -3.7125    0.0000 Cl  0  0  0  0  0  0  0  0  0  0  0  0
    2.8579   -2.4750    0.0000 C   0  0  0  0  0  0  0  0  0  0  0  0
    3.5724   -2.8875    0.0000 C   0  0  0  0  0  0  0  0  0  0  0  0
    3.5724   -3.7125    0.0000 O   0  0  0  0  0  0  0  0  0  0  0  0
    4.2868   -4.1250    0.0000 C   0  0  0  0  0  0  0  0  0  0  0  0
    5.0013   -3.7125    0.0000 C   0  0  0  0  0  0  0  0  0  0  0  0
    5.7158   -4.1250    0.0000 C   0  0  0  0  0  0  0  0  0  0  0  0
    5.7158   -4.9500    0.0000 C   0  0  0  0  0  0  0  0  0  0  0  0
    5.0013   -5.3625    0.0000 C   0  0  0  0  0  0  0  0  0  0  0  0
    5.0013   -6.1875    0.0000 C   0  0  0  0  0  0  0  0  0  0  0  0
    4.2868   -6.6000    0.0000 C   0  0  0  0  0  0  0  0  0  0  0  0
    3.5724   -6.1875    0.0000 C   0  0  0  0  0  0  0  0  0  0  0  0
    2.8579   -6.6000    0.0000 C   0  0  0  0  0  0  0  0  0  0  0  0
    3.5724   -5.3625    0.0000 N   0  0  0  0  0  0  0  0  0  0  0  0
    4.2868   -4.9500    0.0000 C   0  0  0  0  0  0  0  0  0  0  0  0
    5.7158   -6.6000    0.0000 C   0  0  0  0  0  0  0  0  0  0  0  0
    6.4694   -6.2644    0.0000 N   0  0  0  0  0  0  0  0  0  0  0  0
    7.0215   -6.8775    0.0000 C   0  0  0  0  0  0  0  0  0  0  0  0
    6.6090   -7.5920    0.0000 N   0  0  0  0  0  0  0  0  0  0  0  0
    5.8020   -7.4205    0.0000 N   0  0  0  0  0  0  0  0  0  0  0  0
    5.1889   -7.9725    0.0000 C   0  0  0  0  0  0  0  0  0  0  0  0
  2  1  1  1
  2  3  1  0
  2  4  1  0
  2 12  1  0
  4  5  1  0
  5  6  2  0
  5  7  1  0
  7  8  1  0
  8  9  1  0
  9 10  1  0
  9 11  1  0
 12 13  2  0
 12 19  1  0
 13 14  1  0
 14 15  1  0
 14 16  2  0
 16 17  1  0
 17 18  1  0
 17 19  2  0
 19 20  1  0
 20 21  1  0
 21 22  1  0
 22 23  2  0
 22 32  1  0
 23 24  1  0
 24 25  2  0
 25 26  1  0
 26 27  1  0
 26 32  2  0
 27 28  2  0
 27 33  1  0
 28 29  1  0
 29 30  1  0
 29 31  2  0
 31 32  1  0
 33 34  2  0
 33 37  1  0
 34 35  1  0
 35 36  2  0
 36 37  1  0
 37 38  1  0
M  ISO  1   1   2
M  END
>  <DRUGBANK_ID>  (1) 
DB18303

>  <COMMON_NAME>  (1) 
Deucrictibant

>  <CAS_NUMBER>  (1) 
2340111-58-0

>  <UNII>  (1) 
69GCA2KX22

>  <SYNONYMS>  (1) 
Acetamide, N-[(1S)-1-[3-chloro-5-fluoro-2-[[[2-methyl-4-(1-methyl-1H-1,2,4-triazol-5- yl)-8-quinolinyl]oxy]methyl]phenyl]ethyl-1-d]-2-(difluoromethoxy)-; N-[(1S)-1-[3-chloro-5-fluoro-2-({[2-methyl-4-(1-methyl-1H-1,2,4-triazol-5-yl)quinolin-8-yl]oxy}methyl)phenyl](1-2H)ethyl]-2-(difluoromethoxy)acetamide; N-{(1S)-1-[3-chloro-5-fluoro-2-({[2-methyl-4-(1-methyl-1H-1,2,4-triazol-5-yl)quinolin-8- yl]oxy}methyl)phenyl](1-2H)ethyl}-2-(difluoromethoxy)acetamide

$$$$
