
     RDKit          2D

 19 19  0  0  0  0  0  0  0  0999 V2000
   -1.5366   -0.0048    0.0000 C   0  0  0  0  0  0  0  0  0  0  0  0
   -1.5378   -0.8321    0.0000 C   0  0  0  0  0  0  0  0  0  0  0  0
   -0.8230   -1.2450    0.0000 C   0  0  0  0  0  0  0  0  0  0  0  0
   -0.1064   -0.8317    0.0000 C   0  0  0  0  0  0  0  0  0  0  0  0
   -0.1093   -0.0011    0.0000 C   0  0  0  0  0  0  0  0  0  0  0  0
   -0.8248    0.4079    0.0000 C   0  0  0  0  0  0  0  0  0  0  0  0
   -2.2525   -1.2442    0.0000 C   0  0  0  0  0  0  0  0  0  0  0  0
   -2.9666   -0.8310    0.0000 C   0  0  0  0  0  0  0  0  0  0  0  0
   -3.6815   -1.2430    0.0000 C   0  0  0  0  0  0  0  0  0  0  0  0
   -2.9660   -0.0060    0.0000 C   0  0  0  0  0  0  0  0  0  0  0  0
    0.6035    0.4140    0.0000 C   0  0  0  0  0  0  0  0  0  0  0  0
    1.3194    0.0041    0.0000 C   0  0  0  0  0  0  0  0  0  0  0  0
    2.0324    0.4192    0.0000 N   0  0  0  0  0  0  0  0  0  0  0  0
    2.8565    0.4200    0.0000 S   0  0  0  0  0  0  0  0  0  0  0  0
    3.6815    0.4200    0.0000 C   0  0  0  0  0  0  0  0  0  0  0  0
    2.8523    1.2450    0.0000 O   0  0  0  0  0  0  0  0  0  0  0  0
    2.8523   -0.4048    0.0000 O   0  0  0  0  0  0  0  0  0  0  0  0
    0.6004    1.2390    0.0000 C   0  0  0  0  0  0  0  0  0  0  0  0
    1.3226   -0.8207    0.0000 O   0  0  0  0  0  0  0  0  0  0  0  0
  1  2  2  0
  2  3  1  0
  2  7  1  0
  3  4  2  0
  4  5  1  0
  5 11  1  0
  5  6  2  0
  6  1  1  0
  7  8  1  0
  8 10  1  0
  8  9  1  0
 11 12  1  0
 11 18  1  1
 12 13  1  0
 12 19  2  0
 13 14  1  0
 14 15  1  0
 14 16  2  0
 14 17  2  0
M  END
>  <DRUGBANK_ID>  (1) 
DB12614

>  <COMMON_NAME>  (1) 
Reparixin

>  <CAS_NUMBER>  (1) 
266359-83-5

>  <UNII>  (1) 
U604E1NB3K

>  <SYNONYMS>  (1) 
Reparixin; Reparixina; RÃ©parixine; Reparixinum

$$$$
