LOI
     RDKit          2D

 24 26  0  0  0  0  0  0  0  0999 V2000
   -1.5222   -0.9666    0.0000 C   0  0  0  0  0  0  0  0  0  0  0  0
   -1.8578   -0.2129    0.0000 C   0  0  0  0  0  0  0  0  0  0  0  0
   -0.2168   -0.3854    0.0000 C   0  0  0  0  0  0  0  0  0  0  0  0
    1.6504    2.8865    0.0000 C   0  0  0  0  0  0  0  0  0  0  0  0
   -1.2636   -3.7435    0.0000 C   0  0  0  0  0  0  0  0  0  0  0  0
   -0.7018   -1.0528    0.0000 C   0  0  0  0  0  0  0  0  0  0  0  0
    1.2379    1.6169    0.0000 C   0  0  0  0  0  0  0  0  0  0  0  0
   -0.0675    1.0357    0.0000 C   0  0  0  0  0  0  0  0  0  0  0  0
    3.1025    2.6565    0.0000 C   0  0  0  0  0  0  0  0  0  0  0  0
   -1.2235    1.8756    0.0000 C   0  0  0  0  0  0  0  0  0  0  0  0
    0.1884   -3.5135    0.0000 C   0  0  0  0  0  0  0  0  0  0  0  0
    2.3179    2.4016    0.0000 C   0  0  0  0  0  0  0  0  0  0  0  0
   -1.3729    0.4545    0.0000 C   0  0  0  0  0  0  0  0  0  0  0  0
   -0.5524    0.3683    0.0000 C   0  0  0  0  0  0  0  0  0  0  0  0
   -0.8511   -2.4739    0.0000 C   0  0  0  0  0  0  0  0  0  0  0  0
   -1.9311   -3.2586    0.0000 N   0  0  0  0  0  0  0  0  0  0  0  0
    2.0629    1.6169    0.0000 N   0  0  0  0  0  0  0  0  0  0  0  0
   -1.6761   -2.4739    0.0000 N   0  0  0  0  0  0  0  0  0  0  0  0
   -1.7084    1.2082    0.0000 N   0  0  0  0  0  0  0  0  0  0  0  0
    0.7530    0.9495    0.0000 N   0  0  0  0  0  0  0  0  0  0  0  0
   -0.5962   -3.2586    0.0000 N   0  0  0  0  0  0  0  0  0  0  0  0
   -0.4030    1.7894    0.0000 O   0  0  0  0  0  0  0  0  0  0  0  0
    0.9830    2.4016    0.0000 S   0  0  0  0  0  0  0  0  0  0  0  0
   -0.3662   -1.8065    0.0000 S   0  0  0  0  0  0  0  0  0  0  0  0
  1  2  2  0
  1  6  1  0
  2 13  1  0
  3  6  2  0
  3 14  1  0
  4 12  2  0
  4 23  1  0
  5 16  2  0
  5 21  1  0
  6 24  1  0
  7 17  2  0
  7 20  1  0
  7 23  1  0
  8 14  1  0
  8 20  1  0
  8 22  2  0
  9 12  1  0
 10 19  1  0
 11 21  1  0
 12 17  1  0
 13 14  2  0
 13 19  1  0
 15 18  2  0
 15 21  1  0
 15 24  1  0
 16 18  1  0
M  END
>  <DRUGBANK_ID>  (1) 
DB08118

>  <COMMON_NAME>  (1) 
2-(methylamino)-N-(4-methyl-1,3-thiazol-2-yl)-5-[(4-methyl-4H-1,2,4-triazol-3-yl)sulfanyl]benzamide

$$$$
