
     RDKit          2D

  5  4  0  0  0  0  0  0  0  0999 V2000
    0.0000    0.8250    0.0000 C   0  0  0  0  0  0  0  0  0  0  0  0
   -0.0000   -0.8250    0.0000 F   0  0  0  0  0  0  0  0  0  0  0  0
   -0.8250    0.0000    0.0000 O   0  0  0  0  0  0  0  0  0  0  0  0
    0.8250    0.0000    0.0000 O   0  0  0  0  0  0  0  0  0  0  0  0
    0.0000    0.0000    0.0000 S   0  0  0  0  0  0  0  0  0  0  0  0
  5  1  1  0
  5  2  1  0
  5  3  2  0
  5  4  2  0
M  END
>  <DRUGBANK_ID>  (1) 
DB13058

>  <COMMON_NAME>  (1) 
Methanesulfonyl Fluoride

>  <CAS_NUMBER>  (1) 
558-25-8

>  <UNII>  (1) 
9H250YYY0R

$$$$
