185
     RDKit          2D

 29 31  0  0  0  0  0  0  0  0999 V2000
    1.5962   -0.6024    0.0000 C   0  0  0  0  0  0  0  0  0  0  0  0
    1.5962    0.2226    0.0000 O   0  0  0  0  0  0  0  0  0  0  0  0
    2.3106   -1.0149    0.0000 C   0  0  0  0  0  0  0  0  0  0  0  0
    3.0251   -0.6024    0.0000 C   0  0  0  0  0  0  0  0  0  0  0  0
    2.3106   -1.8399    0.0000 C   0  0  0  0  0  0  0  0  0  0  0  0
    1.5962   -2.2524    0.0000 C   0  0  0  0  0  0  0  0  0  0  0  0
    0.8817   -1.8399    0.0000 C   0  0  0  0  0  0  0  0  0  0  0  0
    0.8817   -1.0149    0.0000 C   0  0  0  0  0  0  0  0  0  0  0  0
    0.1672   -0.6024    0.0000 C   0  0  0  0  0  0  0  0  0  0  0  0
    0.8817    0.6351    0.0000 C   0  0  0  0  0  0  0  0  0  0  0  0
    0.1672    0.2226    0.0000 N   0  0  0  0  0  0  0  0  0  0  0  0
   -0.5472    0.6351    0.0000 C   0  0  0  0  0  0  0  0  0  0  0  0
   -1.2617    0.2226    0.0000 N   0  0  0  0  0  0  0  0  0  0  0  0
   -0.5472    1.4601    0.0000 N   0  0  0  0  0  0  0  0  0  0  0  0
    0.1672    1.8726    0.0000 C   0  0  0  0  0  0  0  0  0  0  0  0
    0.1672    2.6976    0.0000 C   0  0  0  0  0  0  0  0  0  0  0  0
    0.8817    1.4601    0.0000 C   0  0  0  0  0  0  0  0  0  0  0  0
   -1.9762    0.6351    0.0000 C   0  0  0  0  0  0  0  0  0  0  0  0
   -2.6906    0.2226    0.0000 C   0  0  0  0  0  0  0  0  0  0  0  0
   -3.4051    0.6351    0.0000 C   0  0  0  0  0  0  0  0  0  0  0  0
   -3.4051    1.4601    0.0000 C   0  0  0  0  0  0  0  0  0  0  0  0
   -2.6906    1.8726    0.0000 C   0  0  0  0  0  0  0  0  0  0  0  0
   -1.9762    1.4601    0.0000 C   0  0  0  0  0  0  0  0  0  0  0  0
   -4.1196    1.8726    0.0000 C   0  0  0  0  0  0  0  0  0  0  0  0
   -4.8341    2.2851    0.0000 N   0  0  0  0  0  0  0  0  0  0  0  0
    1.5962   -3.0774    0.0000 C   0  0  0  0  0  0  0  0  0  0  0  0
    1.5962   -3.9024    0.0000 N   0  0  0  0  0  0  0  0  0  0  0  0
    0.8817    3.1101    0.0000 O   0  0  0  0  0  0  0  0  0  0  0  0
    1.5962    1.8726    0.0000 Br  0  0  0  0  0  0  0  0  0  0  0  0
  1  2  1  0
  1  3  2  0
  1  8  1  0
  2 10  1  0
  3  4  1  0
  3  5  1  0
  5  6  2  0
  6  7  1  0
  6 26  1  0
  7  8  2  0
  8  9  1  0
 10 11  2  0
 10 17  1  0
 11 12  1  0
 12 13  1  0
 12 14  2  0
 13 18  1  0
 14 15  1  0
 15 16  1  0
 15 17  2  0
 16 28  1  0
 17 29  1  0
 18 19  2  0
 18 23  1  0
 19 20  1  0
 20 21  2  0
 21 22  1  0
 21 24  1  0
 22 23  2  0
 24 25  3  0
 26 27  3  0
M  END
>  <DRUGBANK_ID>  (1) 
DB06874

>  <COMMON_NAME>  (1) 
(6-[4-(AMINOMETHYL)-2,6-DIMETHYLPHENOXY]-2-{[4-(AMINOMETHYL)PHENYL]AMINO}-5-BROMOPYRIMIDIN-4-YL)METHANOL

$$$$
