041
     RDKit          2D

 20 22  0  0  0  0  0  0  0  0999 V2000
    2.4038   -0.1389    0.0000 C   0  0  0  0  0  0  0  0  0  0  0  0
    1.6893   -0.5514    0.0000 C   0  0  0  0  0  0  0  0  0  0  0  0
    0.9749   -0.1389    0.0000 C   0  0  0  0  0  0  0  0  0  0  0  0
    0.9749    0.6861    0.0000 C   0  0  0  0  0  0  0  0  0  0  0  0
    1.6893    1.0986    0.0000 C   0  0  0  0  0  0  0  0  0  0  0  0
    2.4038    0.6861    0.0000 C   0  0  0  0  0  0  0  0  0  0  0  0
    0.1903   -0.3939    0.0000 O   0  0  0  0  0  0  0  0  0  0  0  0
   -0.2947    0.2736    0.0000 C   0  0  0  0  0  0  0  0  0  0  0  0
    0.1903    0.9410    0.0000 N   0  0  0  0  0  0  0  0  0  0  0  0
   -1.1197    0.2736    0.0000 C   0  0  0  0  0  0  0  0  0  0  0  0
   -1.5322   -0.4409    0.0000 C   0  0  0  0  0  0  0  0  0  0  0  0
   -2.3572   -0.4409    0.0000 C   0  0  0  0  0  0  0  0  0  0  0  0
   -2.7697    0.2736    0.0000 C   0  0  0  0  0  0  0  0  0  0  0  0
   -2.3572    0.9880    0.0000 C   0  0  0  0  0  0  0  0  0  0  0  0
   -1.5322    0.9880    0.0000 C   0  0  0  0  0  0  0  0  0  0  0  0
    3.1183    1.0986    0.0000 O   0  0  0  0  0  0  0  0  0  0  0  0
   -2.7697    1.7025    0.0000 F   0  0  0  0  0  0  0  0  0  0  0  0
   -3.5947    0.2736    0.0000 O   0  0  0  0  0  0  0  0  0  0  0  0
    1.6893   -1.3764    0.0000 C   0  0  0  0  0  0  0  0  0  0  0  0
    0.9749   -1.7889    0.0000 C   0  0  0  0  0  0  0  0  0  0  0  0
  1  2  2  0
  1  6  1  0
  2  3  1  0
  2 19  1  0
  3  4  2  0
  3  7  1  0
  4  5  1  0
  4  9  1  0
  5  6  2  0
  6 16  1  0
  7  8  1  0
  8  9  2  0
  8 10  1  0
 10 11  2  0
 10 15  1  0
 11 12  1  0
 12 13  2  0
 13 14  1  0
 13 18  1  0
 14 15  2  0
 14 17  1  0
 19 20  2  0
M  END
>  <DRUGBANK_ID>  (1) 
DB06832

>  <COMMON_NAME>  (1) 
Prinaberel

>  <CAS_NUMBER>  (1) 
524684-52-4

>  <UNII>  (1) 
A9C8MNF7CA

>  <SYNONYMS>  (1) 
Prinaberel

$$$$
