
     RDKit          2D

 25 24  0  0  0  0  0  0  0  0999 V2000
   -1.2932    0.5404    0.0000 O   0  0  0  0  0  0  0  0  0  0  0  0
   -4.1511    0.5404    0.0000 O   0  0  0  0  0  0  0  0  0  0  0  0
   -2.0077    0.9528    0.0000 O   0  0  0  0  0  0  0  0  0  0  0  0
   -4.1511    3.0154    0.0000 O   0  0  0  0  0  0  0  0  0  0  0  0
   -4.8655    1.7778    0.0000 O   0  0  0  0  0  0  0  0  0  0  0  0
   -2.7221   -0.2846    0.0000 N   0  0  0  0  0  0  0  0  0  0  0  0
   -0.5787   -0.6971    0.0000 N   0  0  0  0  0  0  0  0  0  0  0  0
    2.9936   -0.2846    0.0000 N   0  0  0  0  0  0  0  0  0  0  0  0
    4.4225   -0.2846    0.0000 N   0  0  0  0  0  0  0  0  0  0  0  0
    3.7080   -1.5221    0.0000 N   0  0  0  0  0  0  0  0  0  0  0  0
   -2.0077   -1.5221    0.0000 C   0  0  0  0  0  0  0  0  0  0  0  0
   -2.0077   -0.6971    0.0000 C   0  0  0  0  0  0  0  0  0  0  0  0
   -2.7221   -1.9346    0.0000 C   0  0  0  0  0  0  0  0  0  0  0  0
   -1.2932   -0.2846    0.0000 C   0  0  0  0  0  0  0  0  0  0  0  0
   -2.7221   -2.7596    0.0000 C   0  0  0  0  0  0  0  0  0  0  0  0
   -3.4366   -1.5221    0.0000 C   0  0  0  0  0  0  0  0  0  0  0  0
    0.1357   -0.2846    0.0000 C   0  0  0  0  0  0  0  0  0  0  0  0
    0.8502   -0.6971    0.0000 C   0  0  0  0  0  0  0  0  0  0  0  0
    1.5646   -0.2846    0.0000 C   0  0  0  0  0  0  0  0  0  0  0  0
   -2.7221    0.5404    0.0000 C   0  0  0  0  0  0  0  0  0  0  0  0
   -3.4366    0.9528    0.0000 C   0  0  0  0  0  0  0  0  0  0  0  0
    2.2791   -0.6971    0.0000 C   0  0  0  0  0  0  0  0  0  0  0  0
   -3.4366    1.7778    0.0000 C   0  0  0  0  0  0  0  0  0  0  0  0
   -4.1511    2.1904    0.0000 C   0  0  0  0  0  0  0  0  0  0  0  0
    3.7080   -0.6971    0.0000 C   0  0  0  0  0  0  0  0  0  0  0  0
  1 14  2  0
  3 20  2  0
  4 24  1  0
  5 24  2  0
  6 20  1  0
  7 14  1  0
  7 17  1  0
  8 22  1  0
  8 25  2  3
  9 25  1  0
 10 25  1  0
 12 11  1  6
 11 13  1  0
 12  6  1  0
 12 14  1  0
 13 15  1  0
 13 16  1  0
 17 18  1  0
 18 19  1  0
 19 22  1  0
 20 21  1  0
 21  2  1  1
 21 23  1  0
 23 24  1  0
M  CHG  1   8   1
M  END
>  <DRUGBANK_ID>  (1) 
DB04276

>  <SECONDARY_ACCESSION_NUMBERS>  (1) 
EXPT01317

>  <COMMON_NAME>  (1) 
4-[[(2S)-2-[[(2S)-3-Carboxy-2-hydroxypropanoyl]amino]-4-methylpentanoyl]amino]butyl-(diaminomethylidene)azanium

$$$$
