
     RDKit          2D

 26 28  0  0  0  0  0  0  0  0999 V2000
   -1.4292    1.2431    0.0000 C   0  0  0  0  0  0  0  0  0  0  0  0
   -0.7245    0.0057    0.0000 N   0  0  0  0  0  0  0  0  0  0  0  0
   -0.0200   -1.2317    0.0000 C   0  0  0  0  0  0  0  0  0  0  0  0
   -0.7074    1.6441    0.0000 C   0  0  0  0  0  0  0  0  0  0  0  0
   -1.4350    0.4181    0.0000 C   0  0  0  0  0  0  0  0  0  0  0  0
   -0.7245   -0.8192    0.0000 C   0  0  0  0  0  0  0  0  0  0  0  0
   -0.0200   -2.0567    0.0000 C   0  0  0  0  0  0  0  0  0  0  0  0
    0.6960   -2.4691    0.0000 C   0  0  0  0  0  0  0  0  0  0  0  0
    0.6960   -0.8192    0.0000 C   0  0  0  0  0  0  0  0  0  0  0  0
   -0.7418   -2.4691    0.0000 N   0  0  0  0  0  0  0  0  0  0  0  0
   -0.0028    1.2259    0.0000 O   0  0  0  0  0  0  0  0  0  0  0  0
   -0.7074    2.4691    0.0000 O   0  0  0  0  0  0  0  0  0  0  0  0
    1.4007   -2.0567    0.0000 C   0  0  0  0  0  0  0  0  0  0  0  0
   -1.4465   -1.2317    0.0000 C   0  0  0  0  0  0  0  0  0  0  0  0
    1.4007   -1.2317    0.0000 C   0  0  0  0  0  0  0  0  0  0  0  0
    0.7189    1.6270    0.0000 C   0  0  0  0  0  0  0  0  0  0  0  0
   -1.4465   -2.0567    0.0000 C   0  0  0  0  0  0  0  0  0  0  0  0
    1.4237    1.2088    0.0000 C   0  0  0  0  0  0  0  0  0  0  0  0
    2.1110   -2.4691    0.0000 Cl  0  0  0  0  0  0  0  0  0  0  0  0
   -2.1338    1.6556    0.0000 C   0  0  0  0  0  0  0  0  0  0  0  0
    1.4237    0.3839    0.0000 O   0  0  0  0  0  0  0  0  0  0  0  0
   -2.1511    0.0057    0.0000 C   0  0  0  0  0  0  0  0  0  0  0  0
    2.8616    1.1973    0.0000 O   0  0  0  0  0  0  0  0  0  0  0  0
    2.1455    1.6212    0.0000 C   0  0  0  0  0  0  0  0  0  0  0  0
   -2.8557    1.2489    0.0000 C   0  0  0  0  0  0  0  0  0  0  0  0
   -2.8616    0.4239    0.0000 C   0  0  0  0  0  0  0  0  0  0  0  0
  2  5  1  0
  3  6  1  0
  4  1  1  0
  5  1  2  0
  6  2  1  0
  7  3  1  0
  8  7  2  0
  9  3  2  0
 10 17  2  0
 10  7  1  0
 11  4  1  0
 12  4  2  0
 13 15  2  0
 13  8  1  0
 14  6  2  0
 15  9  1  0
 16 11  1  0
 17 14  1  0
 18 16  1  0
 19 13  1  0
 20  1  1  0
 21 18  1  0
 22  5  1  0
 23 24  1  0
 24 18  1  0
 25 20  2  0
 26 25  1  0
 26 22  2  0
M  END
>  <DRUGBANK_ID>  (1) 
DB08963

>  <COMMON_NAME>  (1) 
Glafenine

>  <CAS_NUMBER>  (1) 
3820-67-5

>  <UNII>  (1) 
46HL4I09AH

>  <SYNONYMS>  (1) 
Glafenina; Glafenine; Glaf√©nine; Glafeninum; Glycerylaminophenaquine

$$$$
