127
     RDKit          2D

 14 13  0  0  0  0  0  0  0  0999 V2000
    4.9504    0.2063    0.0000 N   0  0  0  0  0  0  0  0  0  0  0  0
    8.5226   -0.2063    0.0000 N   0  0  0  0  0  0  0  0  0  0  0  0
    2.0928    0.2063    0.0000 N   0  0  0  0  0  0  0  0  0  0  0  0
   11.3804   -0.2063    0.0000 N   0  0  0  0  0  0  0  0  0  0  0  0
    6.3793    0.2063    0.0000 C   0  0  0  0  0  0  0  0  0  0  0  0
    7.0938   -0.2063    0.0000 C   0  0  0  0  0  0  0  0  0  0  0  0
    5.6650   -0.2063    0.0000 C   0  0  0  0  0  0  0  0  0  0  0  0
    7.8082    0.2063    0.0000 C   0  0  0  0  0  0  0  0  0  0  0  0
    4.2361   -0.2063    0.0000 C   0  0  0  0  0  0  0  0  0  0  0  0
    9.2371    0.2063    0.0000 C   0  0  0  0  0  0  0  0  0  0  0  0
    3.5217    0.2063    0.0000 C   0  0  0  0  0  0  0  0  0  0  0  0
    9.9515   -0.2063    0.0000 C   0  0  0  0  0  0  0  0  0  0  0  0
    2.8072   -0.2063    0.0000 C   0  0  0  0  0  0  0  0  0  0  0  0
   10.6658    0.2063    0.0000 C   0  0  0  0  0  0  0  0  0  0  0  0
  1  7  1  0
  1  9  1  0
  2  8  1  0
  2 10  1  0
  3 13  1  0
  4 14  1  0
  5  6  1  0
  5  7  1  0
  6  8  1  0
  9 11  1  0
 10 12  1  0
 11 13  1  0
 12 14  1  0
M  END
>  <DRUGBANK_ID>  (1) 
DB00127

>  <SECONDARY_ACCESSION_NUMBERS>  (1) 
NUTR00055; EXPT02947; DB02564

>  <COMMON_NAME>  (1) 
Spermine

>  <CAS_NUMBER>  (1) 
71-44-3

>  <UNII>  (1) 
2FZ7Y3VOQX

>  <SYNONYMS>  (1) 
4,9-diaza-1,12-dodecanediamine; 4,9-diazadodecane-1,12-diamine; Musculamine; N,N'-Bis(3-aminopropyl)-1,4-butanediamine; Spermina; Spermine

$$$$
