
     RDKit          2D

 13 14  0  0  0  0  0  0  0  0999 V2000
    0.7145   -1.2375    0.0000 C   0  0  0  0  0  0  0  0  0  0  0  0
    0.7145   -0.4125    0.0000 N   0  0  0  0  0  0  0  0  0  0  0  0
   -0.0000   -0.0000    0.0000 C   0  0  0  0  0  0  0  0  0  0  0  0
   -0.0000    0.8250    0.0000 C   0  0  0  0  0  0  0  0  0  0  0  0
    0.7145    1.2375    0.0000 C   0  0  0  0  0  0  0  0  0  0  0  0
    0.7145    2.0625    0.0000 O   0  0  0  0  0  0  0  0  0  0  0  0
    1.4289    0.8250    0.0000 N   0  0  0  0  0  0  0  0  0  0  0  0
    1.4289    0.0000    0.0000 C   0  0  0  0  0  0  0  0  0  0  0  0
    2.1434   -0.4125    0.0000 O   0  0  0  0  0  0  0  0  0  0  0  0
    2.1434    1.2375    0.0000 C   0  0  0  0  0  0  0  0  0  0  0  0
   -0.7846    1.0799    0.0000 N   0  0  0  0  0  0  0  0  0  0  0  0
   -1.2695    0.4125    0.0000 C   0  0  0  0  0  0  0  0  0  0  0  0
   -0.7846   -0.2549    0.0000 N   0  0  0  0  0  0  0  0  0  0  0  0
  1  2  1  0
  2  3  1  0
  2  8  1  0
  3  4  2  0
  3 13  1  0
  4  5  1  0
  4 11  1  0
  5  6  2  0
  5  7  1  0
  7  8  1  0
  7 10  1  0
  8  9  2  0
 11 12  1  0
 12 13  2  0
M  END
>  <DRUGBANK_ID>  (1) 
DB00277

>  <SECONDARY_ACCESSION_NUMBERS>  (1) 
APRD00082; DB09359

>  <COMMON_NAME>  (1) 
Theophylline

>  <CAS_NUMBER>  (1) 
58-55-9

>  <UNII>  (1) 
0I55128JYK

>  <SYNONYMS>  (1) 
1,3-dimethyl-7H-purine-2,6-dione; 1,3-dimethylxanthine; Teofilina; Theophyllin; Theophylline anhydrous; Theophylline, anhydrous

$$$$
