7X5
     RDKit          2D

 28 31  0  0  0  0  0  0  0  0999 V2000
    6.0128    2.0720    0.0000 N   0  0  0  0  0  0  0  0  0  0  0  0
    6.0128    2.8970    0.0000 C   0  0  0  0  0  0  0  0  0  0  0  0
    5.2983    3.3095    0.0000 N   0  0  0  0  0  0  0  0  0  0  0  0
    5.2983    4.1345    0.0000 C   0  0  0  0  0  0  0  0  0  0  0  0
    6.0128    4.5470    0.0000 C   0  0  0  0  0  0  0  0  0  0  0  0
    6.7272    4.1345    0.0000 C   0  0  0  0  0  0  0  0  0  0  0  0
    7.4417    4.5470    0.0000 N   0  0  0  0  0  0  0  0  0  0  0  0
    7.4417    5.3720    0.0000 C   0  0  0  0  0  0  0  0  0  0  0  0
    6.7272    5.7845    0.0000 C   0  0  0  0  0  0  0  0  0  0  0  0
    5.9426    5.5296    0.0000 O   0  0  0  0  0  0  0  0  0  0  0  0
    5.4577    6.1970    0.0000 C   0  0  0  0  0  0  0  0  0  0  0  0
    5.9426    6.8645    0.0000 O   0  0  0  0  0  0  0  0  0  0  0  0
    6.7272    6.6095    0.0000 C   0  0  0  0  0  0  0  0  0  0  0  0
    7.4417    7.0220    0.0000 C   0  0  0  0  0  0  0  0  0  0  0  0
    8.1562    6.6095    0.0000 C   0  0  0  0  0  0  0  0  0  0  0  0
    8.1562    5.7845    0.0000 C   0  0  0  0  0  0  0  0  0  0  0  0
    8.8707    5.3720    0.0000 Cl  0  0  0  0  0  0  0  0  0  0  0  0
    6.7272    3.3095    0.0000 N   0  0  0  0  0  0  0  0  0  0  0  0
    4.5838   -1.2280    0.0000 C   0  0  0  0  0  0  0  0  0  0  0  0
    4.5838   -0.4030    0.0000 S   0  0  0  0  0  0  0  0  0  0  0  0
    3.7588   -0.4030    0.0000 O   0  0  0  0  0  0  0  0  0  0  0  0
    5.4088   -0.4030    0.0000 O   0  0  0  0  0  0  0  0  0  0  0  0
    4.5838    0.4220    0.0000 C   0  0  0  0  0  0  0  0  0  0  0  0
    3.8694    0.8345    0.0000 C   0  0  0  0  0  0  0  0  0  0  0  0
    3.8694    1.6595    0.0000 C   0  0  0  0  0  0  0  0  0  0  0  0
    4.5838    2.0720    0.0000 C   0  0  0  0  0  0  0  0  0  0  0  0
    5.2983    1.6595    0.0000 C   0  0  0  0  0  0  0  0  0  0  0  0
    5.2983    0.8345    0.0000 C   0  0  0  0  0  0  0  0  0  0  0  0
  1  2  1  0
  1 27  1  0
  2  3  2  0
  2 18  1  0
  3  4  1  0
  4  5  2  0
  5  6  1  0
  6  7  1  0
  6 18  2  0
  7  8  1  0
  8  9  2  0
  8 16  1  0
  9 10  1  0
  9 13  1  0
 10 11  1  0
 11 12  1  0
 12 13  1  0
 13 14  2  0
 14 15  1  0
 15 16  2  0
 16 17  1  0
 19 20  1  0
 20 21  2  0
 20 22  2  0
 20 23  1  0
 23 24  2  0
 23 28  1  0
 24 25  1  0
 25 26  2  0
 26 27  1  0
 27 28  2  0
M  END
>  <DRUGBANK_ID>  (1) 
DB07253

>  <COMMON_NAME>  (1) 
N'-(5-chloro-1,3-benzodioxol-4-yl)-N-(3-methylsulfonylphenyl)pyrimidine-2,4-diamine

$$$$
