1041
     RDKit          2D

 19 21  0  0  1  0  0  0  0  0999 V2000
    5.1662   -1.4290    0.0000 O   0  0  0  0  0  0  0  0  0  0  0  0
    4.1159   -1.4482    0.0000 O   0  0  0  0  0  0  0  0  0  0  0  0
    4.1159    1.4482    0.0000 O   0  0  0  0  0  0  0  0  0  0  0  0
    7.6412    0.0000    0.0000 O   0  0  0  0  0  0  0  0  0  0  0  0
    4.3412    0.0000    0.0000 N   0  0  0  0  0  0  0  0  0  0  0  0
    6.4037   -0.7145    0.0000 N   0  0  0  0  0  0  0  0  0  0  0  0
    5.1662    0.0000    0.0000 C   0  0  0  0  0  0  0  0  0  0  0  0
    5.5787    0.7145    0.0000 C   0  0  0  0  0  0  0  0  0  0  0  0
    6.4037    0.7145    0.0000 C   0  0  0  0  0  0  0  0  0  0  0  0
    5.5787   -0.7145    0.0000 C   0  0  0  0  0  0  0  0  0  0  0  0
    3.8597   -0.6639    0.0000 C   0  0  0  0  0  0  0  0  0  0  0  0
    3.8597    0.6639    0.0000 C   0  0  0  0  0  0  0  0  0  0  0  0
    3.0791   -0.4125    0.0000 C   0  0  0  0  0  0  0  0  0  0  0  0
    3.0791    0.4125    0.0000 C   0  0  0  0  0  0  0  0  0  0  0  0
    6.8162    0.0000    0.0000 C   0  0  0  0  0  0  0  0  0  0  0  0
    2.3645   -0.8250    0.0000 C   0  0  0  0  0  0  0  0  0  0  0  0
    2.3645    0.8250    0.0000 C   0  0  0  0  0  0  0  0  0  0  0  0
    1.6500   -0.4125    0.0000 C   0  0  0  0  0  0  0  0  0  0  0  0
    1.6500    0.4125    0.0000 C   0  0  0  0  0  0  0  0  0  0  0  0
  1 10  2  0
  2 11  2  0
  3 12  2  0
  4 15  2  0
  5  7  1  0
  5 11  1  0
  5 12  1  0
  6 10  1  0
  6 15  1  0
  7  8  1  0
  7 10  1  0
  8  9  1  0
  9 15  1  0
 11 13  1  0
 12 14  1  0
 13 14  2  0
 13 16  1  0
 14 17  1  0
 16 18  2  0
 17 19  2  0
 18 19  1  0
M  END
>  <DRUGBANK_ID>  (1) 
DB01041

>  <SECONDARY_ACCESSION_NUMBERS>  (1) 
APRD01251

>  <COMMON_NAME>  (1) 
Thalidomide

>  <CAS_NUMBER>  (1) 
50-35-1

>  <UNII>  (1) 
4Z8R6ORS6L

>  <SYNONYMS>  (1) 
(+-)-N-(2,6-dioxo-3-Piperidyl)phthalimide; (+-)-Thalidomide; (±)-N-(2,6-dioxo-3-piperidyl)phthalimide; (±)-thalidomide; 1,3-dioxo-2-(2,6-dioxopiperidin-3-yl)isoindoline; 2,6-dioxo-3-phthalimidopiperidine; 3-Phthalimidoglutarimide; alpha-(N-Phthalimido)glutarimide; alpha-N-Phthalylglutaramide; N-(2,6-dioxo-3-piperidyl)phthalimide; N-Phthaloylglutamimide; N-Phthalyl-glutaminsaeure-imid; N-Phthalylglutamic acid imide; Talidomida; Thalidomide; Thalidomidum; α-(N-phthalimido)glutarimide; α-N-phthalylglutaramide; α-phthalimidoglutarimide

$$$$
