
     RDKit          2D

 12 12  0  0  0  0  0  0  0  0999 V2000
    1.4289    0.8250    0.0000 C   0  0  0  0  0  0  0  0  0  0  0  0
    0.7144    0.4125    0.0000 C   0  0  0  0  0  0  0  0  0  0  0  0
   -0.7144   -0.4125    0.0000 C   0  0  0  0  0  0  0  0  0  0  0  0
    0.0000    0.8250    0.0000 C   0  0  0  0  0  0  0  0  0  0  0  0
   -0.7144    0.4125    0.0000 C   0  0  0  0  0  0  0  0  0  0  0  0
    0.0000   -0.8250    0.0000 C   0  0  0  0  0  0  0  0  0  0  0  0
   -1.4289   -0.8250    0.0000 F   0  0  0  0  0  0  0  0  0  0  0  0
    0.0000   -1.6500    0.0000 F   0  0  0  0  0  0  0  0  0  0  0  0
    1.4289    1.6500    0.0000 O   0  0  0  0  0  0  0  0  0  0  0  0
    0.0000    1.6500    0.0000 O   0  0  0  0  0  0  0  0  0  0  0  0
   -1.4289    0.8250    0.0000 O   0  0  0  0  0  0  0  0  0  0  0  0
    0.7144   -0.4125    0.0000 O   0  0  0  0  0  0  0  0  0  0  0  0
  2  1  1  1
  2 12  1  0
  3  5  1  0
  3  6  1  0
  3  7  1  1
  4  2  1  0
  4 10  1  6
  5  4  1  0
  5 11  1  1
  8  6  1  0
  9  1  1  0
 12  6  1  0
M  END
>  <DRUGBANK_ID>  (1) 
DB02318

>  <SECONDARY_ACCESSION_NUMBERS>  (1) 
EXPT01456

>  <COMMON_NAME>  (1) 
2-deoxy-2-fluoro-alpha-D-mannosyl fluoride

$$$$
