
     RDKit          2D

 26 29  0  0  0  0  0  0  0  0999 V2000
    1.5663   -3.7210    0.0000 C   0  0  0  0  0  0  0  0  0  0  0  0
    1.5662   -2.8960    0.0000 N   0  0  0  0  0  0  0  0  0  0  0  0
    2.2807   -2.4834    0.0000 C   0  0  0  0  0  0  0  0  0  0  0  0
    2.9952   -2.8959    0.0000 C   0  0  0  0  0  0  0  0  0  0  0  0
    3.7096   -2.4833    0.0000 C   0  0  0  0  0  0  0  0  0  0  0  0
    4.4241   -2.8958    0.0000 C   0  0  0  0  0  0  0  0  0  0  0  0
    4.4242   -3.7208    0.0000 C   0  0  0  0  0  0  0  0  0  0  0  0
    5.1387   -4.1333    0.0000 C   0  0  0  0  0  0  0  0  0  0  0  0
    5.1387   -4.9583    0.0000 C   0  0  0  0  0  0  0  0  0  0  0  0
    5.8532   -5.3707    0.0000 C   0  0  0  0  0  0  0  0  0  0  0  0
    6.5676   -4.9582    0.0000 O   0  0  0  0  0  0  0  0  0  0  0  0
    5.8532   -6.1957    0.0000 N   0  0  0  0  0  0  0  0  0  0  0  0
    6.5677   -6.6082    0.0000 O   0  0  0  0  0  0  0  0  0  0  0  0
    3.7097   -4.1333    0.0000 C   0  0  0  0  0  0  0  0  0  0  0  0
    2.9952   -3.7209    0.0000 C   0  0  0  0  0  0  0  0  0  0  0  0
    0.8517   -2.4835    0.0000 C   0  0  0  0  0  0  0  0  0  0  0  0
    0.8517   -1.6585    0.0000 C   0  0  0  0  0  0  0  0  0  0  0  0
    0.1163   -2.0322    0.0000 C   0  0  0  0  0  0  0  0  0  0  0  0
    0.5657   -1.2419    0.0000 C   0  0  0  0  0  0  0  0  0  0  0  0
    0.5657   -0.4945    0.0000 C   0  0  0  0  0  0  0  0  0  0  0  0
    1.3012   -0.1208    0.0000 C   0  0  0  0  0  0  0  0  0  0  0  0
    2.0368   -0.4945    0.0000 C   0  0  0  0  0  0  0  0  0  0  0  0
    2.0368   -1.2419    0.0000 C   0  0  0  0  0  0  0  0  0  0  0  0
    1.3012   -1.6156    0.0000 C   0  0  0  0  0  0  0  0  0  0  0  0
    1.5873   -2.0322    0.0000 C   0  0  0  0  0  0  0  0  0  0  0  0
    0.8517   -0.9111    0.0000 C   0  0  0  0  0  0  0  0  0  0  0  0
  1  2  1  0
  2  3  1  0
  2 16  1  0
  3  4  1  0
  4  5  2  0
  4 15  1  0
  5  6  1  0
  6  7  2  0
  7  8  1  0
  7 14  1  0
  8  9  2  0
  9 10  1  0
 10 11  2  0
 10 12  1  0
 12 13  1  0
 14 15  2  0
 16 17  1  0
 17 18  1  0
 17 25  1  0
 17 26  1  0
 18 19  1  0
 19 24  1  0
 19 20  1  0
 20 21  1  0
 21 26  1  0
 21 22  1  0
 22 23  1  0
 23 24  1  0
 23 25  1  0
M  END
>  <DRUGBANK_ID>  (1) 
DB14979

>  <COMMON_NAME>  (1) 
Martinostat

>  <CAS_NUMBER>  (1) 
1629052-58-9

>  <UNII>  (1) 
8JJC99KHGL

$$$$
