RMC
     RDKit          2D

 27 29  0  0  0  0  0  0  0  0999 V2000
    2.3566   -2.9917    0.0000 O   0  0  0  0  0  0  0  0  0  0  0  0
    2.3566   -2.1667    0.0000 C   0  0  0  0  0  0  0  0  0  0  0  0
    1.6422   -1.7542    0.0000 C   0  0  0  0  0  0  0  0  0  0  0  0
    0.9277   -2.1667    0.0000 C   0  0  0  0  0  0  0  0  0  0  0  0
    0.2132   -1.7542    0.0000 C   0  0  0  0  0  0  0  0  0  0  0  0
    1.6422   -0.9292    0.0000 N   0  0  0  0  0  0  0  0  0  0  0  0
    0.9277   -0.5167    0.0000 C   0  0  0  0  0  0  0  0  0  0  0  0
    0.2132   -0.9292    0.0000 N   0  0  0  0  0  0  0  0  0  0  0  0
   -0.5012   -0.5167    0.0000 C   0  0  0  0  0  0  0  0  0  0  0  0
   -1.2859   -0.7717    0.0000 N   0  0  0  0  0  0  0  0  0  0  0  0
   -1.5408   -1.5563    0.0000 C   0  0  0  0  0  0  0  0  0  0  0  0
   -2.3478   -1.7278    0.0000 C   0  0  0  0  0  0  0  0  0  0  0  0
   -0.9888   -2.1694    0.0000 C   0  0  0  0  0  0  0  0  0  0  0  0
   -1.7708   -0.1042    0.0000 C   0  0  0  0  0  0  0  0  0  0  0  0
   -0.5012    0.3083    0.0000 C   0  0  0  0  0  0  0  0  0  0  0  0
   -1.2859    0.5632    0.0000 N   0  0  0  0  0  0  0  0  0  0  0  0
    0.9277    0.3083    0.0000 N   0  0  0  0  0  0  0  0  0  0  0  0
    0.2132    0.7208    0.0000 C   0  0  0  0  0  0  0  0  0  0  0  0
    0.2132    1.5458    0.0000 N   0  0  0  0  0  0  0  0  0  0  0  0
   -0.5012    1.9583    0.0000 C   0  0  0  0  0  0  0  0  0  0  0  0
   -1.2157    3.1958    0.0000 C   0  0  0  0  0  0  0  0  0  0  0  0
   -1.2157    4.0208    0.0000 C   0  0  0  0  0  0  0  0  0  0  0  0
   -0.5012    4.4333    0.0000 C   0  0  0  0  0  0  0  0  0  0  0  0
    0.2132    4.0208    0.0000 C   0  0  0  0  0  0  0  0  0  0  0  0
    0.2132    3.1958    0.0000 C   0  0  0  0  0  0  0  0  0  0  0  0
   -0.5012    2.7833    0.0000 C   0  0  0  0  0  0  0  0  0  0  0  0
    0.9277    1.9583    0.0000 C   0  0  0  0  0  0  0  0  0  0  0  0
  1  2  1  0
  3  2  1  1
  3  4  1  0
  3  6  1  0
  4  5  1  0
  6  7  1  0
  7  8  2  0
  7 17  1  0
  8  9  1  0
  9 10  1  0
  9 15  2  0
 10 11  1  0
 10 14  1  0
 11 12  1  0
 11 13  1  0
 14 16  2  0
 15 16  1  0
 15 18  1  0
 17 18  2  0
 18 19  1  0
 19 20  1  0
 19 27  1  0
 20 26  1  0
 21 22  2  0
 21 26  1  0
 22 23  1  0
 23 24  2  0
 24 25  1  0
 25 26  2  0
M  END
>  <DRUGBANK_ID>  (1) 
DB04776

>  <COMMON_NAME>  (1) 
(2R)-2-({6-[benzyl(methyl)amino]-9-isopropyl-9H-purin-2-yl}amino)butan-1-ol

>  <SYNONYMS>  (1) 
(2R)-2-({6-[Benzyl(methyl)amino]-9-isopropyl-9H-purin-2-yl}amino)-1-butanol; Aftin-4

$$$$
