HHO
     RDKit          2D

 12 11  0  0  0  0  0  0  0  0999 V2000
   -2.5536   -0.2457    0.0000 N   0  0  0  0  0  0  0  0  0  0  0  0
   -3.2681    0.1668    0.0000 C   0  0  0  0  0  0  0  0  0  0  0  0
   -3.9827   -0.2457    0.0000 O   0  0  0  0  0  0  0  0  0  0  0  0
   -1.8391    0.1668    0.0000 C   0  0  0  0  0  0  0  0  0  0  0  0
   -1.1246   -0.2457    0.0000 C   0  0  0  0  0  0  0  0  0  0  0  0
   -0.4100    0.1668    0.0000 C   0  0  0  0  0  0  0  0  0  0  0  0
    0.3045   -0.2457    0.0000 C   0  0  0  0  0  0  0  0  0  0  0  0
    1.0190    0.1668    0.0000 C   0  0  0  0  0  0  0  0  0  0  0  0
    1.7335   -0.2457    0.0000 C   0  0  0  0  0  0  0  0  0  0  0  0
    2.4481    0.1668    0.0000 C   0  0  0  0  0  0  0  0  0  0  0  0
    3.1625   -0.2457    0.0000 C   0  0  0  0  0  0  0  0  0  0  0  0
    3.8771    0.1668    0.0000 O   0  0  0  0  0  0  0  0  0  0  0  0
  1  2  1  0
  1  4  1  0
  2  3  1  0
  4  5  1  0
  5  6  1  0
  6  7  1  0
  7  8  1  0
  8  9  1  0
  9 10  1  0
 10 11  1  0
 11 12  1  0
M  END
>  <DRUGBANK_ID>  (1) 
DB07897

>  <COMMON_NAME>  (1) 
1-(HYDROXYMETHYLENEAMINO)-8-HYDROXY-OCTANE

$$$$
