
     RDKit          2D

 34 38  0  0  0  0  0  0  0  0999 V2000
    4.0668    0.6979    0.0000 C   0  0  0  0  0  0  0  0  0  0  0  0
    7.6391    6.0604    0.0000 C   0  0  0  0  0  0  0  0  0  0  0  0
    6.2102    6.0604    0.0000 C   0  0  0  0  0  0  0  0  0  0  0  0
    7.6391    3.5854    0.0000 C   0  0  0  0  0  0  0  0  0  0  0  0
    8.3536    4.8229    0.0000 C   0  0  0  0  0  0  0  0  0  0  0  0
    7.6391    6.8854    0.0000 C   0  0  0  0  0  0  0  0  0  0  0  0
    6.2102    6.8854    0.0000 C   0  0  0  0  0  0  0  0  0  0  0  0
    8.3536    3.1729    0.0000 C   0  0  0  0  0  0  0  0  0  0  0  0
    9.0681    4.4104    0.0000 C   0  0  0  0  0  0  0  0  0  0  0  0
    5.4957    4.8229    0.0000 C   0  0  0  0  0  0  0  0  0  0  0  0
    6.2102    3.5854    0.0000 C   0  0  0  0  0  0  0  0  0  0  0  0
    4.0668    2.3479    0.0000 C   0  0  0  0  0  0  0  0  0  0  0  0
    4.7812    4.4104    0.0000 C   0  0  0  0  0  0  0  0  0  0  0  0
    5.4957    3.1729    0.0000 C   0  0  0  0  0  0  0  0  0  0  0  0
    4.0668    3.1729    0.0000 C   0  0  0  0  0  0  0  0  0  0  0  0
    1.1387    2.1904    0.0000 C   0  0  0  0  0  0  0  0  0  0  0  0
    0.6538    1.5229    0.0000 C   0  0  0  0  0  0  0  0  0  0  0  0
    3.3523    1.1104    0.0000 C   0  0  0  0  0  0  0  0  0  0  0  0
    6.9246    5.6479    0.0000 C   0  0  0  0  0  0  0  0  0  0  0  0
    7.6391    4.4104    0.0000 C   0  0  0  0  0  0  0  0  0  0  0  0
    6.2102    4.4104    0.0000 C   0  0  0  0  0  0  0  0  0  0  0  0
    6.9246    7.2979    0.0000 C   0  0  0  0  0  0  0  0  0  0  0  0
    9.0681    3.5854    0.0000 C   0  0  0  0  0  0  0  0  0  0  0  0
    3.3523    1.9354    0.0000 C   0  0  0  0  0  0  0  0  0  0  0  0
    6.9246    4.8229    0.0000 C   0  0  0  0  0  0  0  0  0  0  0  0
    2.6378    2.3479    0.0000 C   0  0  0  0  0  0  0  0  0  0  0  0
    1.9233    1.1104    0.0000 C   0  0  0  0  0  0  0  0  0  0  0  0
    6.9246    8.1229    0.0000 F   0  0  0  0  0  0  0  0  0  0  0  0
    9.7825    3.1729    0.0000 F   0  0  0  0  0  0  0  0  0  0  0  0
    2.6378    0.6979    0.0000 N   0  0  0  0  0  0  0  0  0  0  0  0
    4.7812    3.5854    0.0000 N   0  0  0  0  0  0  0  0  0  0  0  0
    1.9233    1.9354    0.0000 N   0  0  0  0  0  0  0  0  0  0  0  0
    2.6378    3.1729    0.0000 O   0  0  0  0  0  0  0  0  0  0  0  0
    1.1387    0.8555    0.0000 S   0  0  0  0  0  0  0  0  0  0  0  0
  6  2  2  0
  7  3  1  0
  8  4  2  0
  9  5  1  0
 13 10  1  0
 14 11  1  0
 15 12  1  0
 17 16  2  0
 18  1  1  0
 19  2  1  0
 19  3  2  0
 20  4  1  0
 20  5  2  0
 21 10  1  0
 21 11  1  0
 22  6  1  0
 22  7  2  0
 23  8  1  0
 23  9  2  0
 24 12  1  0
 24 18  2  0
 25 19  1  0
 25 20  1  0
 25 21  2  3
 26 24  1  0
 28 22  1  0
 29 23  1  0
 30 18  1  0
 30 27  2  0
 31 13  1  0
 31 14  1  0
 31 15  1  0
 32 16  1  0
 32 26  1  0
 32 27  1  0
 33 26  2  0
 34 17  1  0
 34 27  1  0
M  END
>  <DRUGBANK_ID>  (1) 
DB12693

>  <COMMON_NAME>  (1) 
Ritanserin

>  <CAS_NUMBER>  (1) 
87051-43-2

>  <UNII>  (1) 
145TFV465S

>  <SYNONYMS>  (1) 
Ritanserin; ritanserina

$$$$
