1028
     RDKit          2D

  8  7  0  0  0  0  0  0  0  0999 V2000
    4.5080   -0.2615    0.0000 Cl  0  0  0  0  0  0  0  0  0  0  0  0
    3.7935    0.9760    0.0000 Cl  0  0  0  0  0  0  0  0  0  0  0  0
    2.6665    0.4529    0.0000 F   0  0  0  0  0  0  0  0  0  0  0  0
    3.4916   -0.9760    0.0000 F   0  0  0  0  0  0  0  0  0  0  0  0
    2.3645   -0.6740    0.0000 O   0  0  0  0  0  0  0  0  0  0  0  0
    3.0791   -0.2615    0.0000 C   0  0  0  0  0  0  0  0  0  0  0  0
    3.7935    0.1510    0.0000 C   0  0  0  0  0  0  0  0  0  0  0  0
    1.6500   -0.2615    0.0000 C   0  0  0  0  0  0  0  0  0  0  0  0
  1  7  1  0
  2  7  1  0
  3  6  1  0
  4  6  1  0
  5  6  1  0
  5  8  1  0
  6  7  1  0
M  END
>  <DRUGBANK_ID>  (1) 
DB01028

>  <SECONDARY_ACCESSION_NUMBERS>  (1) 
APRD00744

>  <COMMON_NAME>  (1) 
Methoxyflurane

>  <CAS_NUMBER>  (1) 
76-38-0

>  <UNII>  (1) 
30905R8O7B

>  <SYNONYMS>  (1) 
Methoflurane; Methoxyfluoran; Methoxyfluran; Methoxyflurane; Methoxyfluranum; Methyl 1,1-difluoro-2,2-dichloroethyl ether; Metoxiflurano

$$$$
