
     RDKit          2D

 17 17  0  0  1  0  0  0  0  0999 V2000
    1.6484    2.6923    0.0000 C   0  0  0  0  0  0  0  0  0  0  0  0
   -0.5342    3.0278    0.0000 C   0  0  0  0  0  0  0  0  0  0  0  0
   -1.2486    2.6153    0.0000 C   0  0  0  0  0  0  0  0  0  0  0  0
    2.2005    3.3054    0.0000 C   0  0  0  0  0  0  0  0  0  0  0  0
    0.8948    3.0278    0.0000 C   0  0  0  0  0  0  0  0  0  0  0  0
    3.0210    3.2191    0.0000 C   0  0  0  0  0  0  0  0  0  0  0  0
   -1.9631    3.0278    0.0000 C   0  0  0  0  0  0  0  0  0  0  0  0
    3.3565    2.4655    0.0000 C   0  0  0  0  0  0  0  0  0  0  0  0
   -1.2486    1.7903    0.0000 N   0  0  0  0  0  0  0  0  0  0  0  0
    3.5059    3.8866    0.0000 N   0  0  0  0  0  0  0  0  0  0  0  0
    0.9810    3.8483    0.0000 N   0  0  0  0  0  0  0  0  0  0  0  0
   -2.6776    2.6153    0.0000 O   0  0  0  0  0  0  0  0  0  0  0  0
   -1.9631    3.8528    0.0000 O   0  0  0  0  0  0  0  0  0  0  0  0
    4.1770    2.3792    0.0000 O   0  0  0  0  0  0  0  0  0  0  0  0
    2.8716    1.7980    0.0000 O   0  0  0  0  0  0  0  0  0  0  0  0
    1.7880    4.0198    0.0000 O   0  0  0  0  0  0  0  0  0  0  0  0
    0.1803    2.6153    0.0000 S   0  0  0  0  0  0  0  0  0  0  0  0
  3  2  1  0
  3  9  1  6
  4  1  1  1
  4  6  1  0
  5  1  1  0
  5 17  1  1
  6 10  1  6
  7  3  1  0
  8  6  1  0
 11  5  1  0
 12  7  2  0
 13  7  1  0
 14  8  2  0
 15  8  1  0
 16  4  1  0
 16 11  1  0
 17  2  1  0
M  END
>  <DRUGBANK_ID>  (1) 
DB04323

>  <SECONDARY_ACCESSION_NUMBERS>  (1) 
EXPT00242

>  <COMMON_NAME>  (1) 
2-Amino-3-(Cystein-S-Yl)-Isoxazolidin-5-Yl-Acetic Acid

$$$$
