
     RDKit          2D

 35 39  0  0  1  0  0  0  0  0999 V2000
    0.2758    1.0430    0.0000 C   0  0  0  0  0  0  0  0  0  0  0  0
    0.8279    1.6561    0.0000 C   0  0  0  0  0  0  0  0  0  0  0  0
    0.5729    2.4407    0.0000 N   0  0  0  0  0  0  0  0  0  0  0  0
    1.1250    3.0538    0.0000 C   0  0  0  0  0  0  0  0  0  0  0  0
    1.0387    3.8743    0.0000 C   0  0  0  0  0  0  0  0  0  0  0  0
    1.7924    4.2099    0.0000 C   0  0  0  0  0  0  0  0  0  0  0  0
    2.3444    3.5968    0.0000 S   0  0  0  0  0  0  0  0  0  0  0  0
    1.9319    2.8823    0.0000 C   0  0  0  0  0  0  0  0  0  0  0  0
    2.1869    2.0977    0.0000 C   0  0  0  0  0  0  0  0  0  0  0  0
    1.6348    1.4846    0.0000 N   0  0  0  0  0  0  0  0  0  0  0  0
    2.9938    1.9262    0.0000 N   0  0  0  0  0  0  0  0  0  0  0  0
    3.2488    1.1415    0.0000 C   0  0  0  0  0  0  0  0  0  0  0  0
    4.0334    0.8866    0.0000 C   0  0  0  0  0  0  0  0  0  0  0  0
    4.0334    0.0616    0.0000 C   0  0  0  0  0  0  0  0  0  0  0  0
    3.2488   -0.1933    0.0000 N   0  0  0  0  0  0  0  0  0  0  0  0
    2.7639    0.4741    0.0000 N   0  0  0  0  0  0  0  0  0  0  0  0
    4.8180   -0.1933    0.0000 C   0  0  0  0  0  0  0  0  0  0  0  0
    5.3030    0.4741    0.0000 N   0  0  0  0  0  0  0  0  0  0  0  0
    4.8180    1.1415    0.0000 C   0  0  0  0  0  0  0  0  0  0  0  0
    6.1280    0.4741    0.0000 C   0  0  0  0  0  0  0  0  0  0  0  0
    6.5405   -0.2404    0.0000 O   0  0  0  0  0  0  0  0  0  0  0  0
    6.5405    1.1886    0.0000 N   0  0  0  0  0  0  0  0  0  0  0  0
    7.3655    1.1886    0.0000 C   0  0  0  0  0  0  0  0  0  0  0  0
    7.7780    0.4741    0.0000 C   0  0  0  0  0  0  0  0  0  0  0  0
    7.3655   -0.2404    0.0000 N   0  0  0  0  0  0  0  0  0  0  0  0
    6.6980   -0.7253    0.0000 C   0  0  0  0  0  0  0  0  0  0  0  0
    7.7780   -0.9548    0.0000 C   0  0  0  0  0  0  0  0  0  0  0  0
    7.7780    1.9030    0.0000 C   0  0  0  0  0  0  0  0  0  0  0  0
    7.3655    2.6175    0.0000 C   0  0  0  0  0  0  0  0  0  0  0  0
    7.7780    3.3320    0.0000 C   0  0  0  0  0  0  0  0  0  0  0  0
    8.6030    3.3320    0.0000 C   0  0  0  0  0  0  0  0  0  0  0  0
    9.0155    2.6175    0.0000 C   0  0  0  0  0  0  0  0  0  0  0  0
    8.6030    1.9030    0.0000 C   0  0  0  0  0  0  0  0  0  0  0  0
    4.6550   -1.0021    0.0000 C   0  0  0  0  0  0  0  0  0  0  0  0
    5.4253   -0.7518    0.0000 C   0  0  0  0  0  0  0  0  0  0  0  0
  1  2  1  0
  2  3  2  0
  2 10  1  0
  3  4  1  0
  4  5  1  0
  4  8  2  0
  5  6  2  0
  6  7  1  0
  7  8  1  0
  8  9  1  0
  9 10  2  0
  9 11  1  0
 11 12  1  0
 12 13  1  0
 12 16  2  0
 13 14  2  0
 13 19  1  0
 14 15  1  0
 14 17  1  0
 15 16  1  0
 17 18  1  0
 17 34  1  0
 17 35  1  0
 18 19  1  0
 18 20  1  0
 20 21  2  0
 20 22  1  0
 23 22  1  0
 23 24  1  1
 23 28  1  0
 24 25  1  0
 25 26  1  0
 25 27  1  0
 28 29  2  0
 28 33  1  0
 29 30  1  0
 30 31  2  0
 31 32  1  0
 32 33  2  0
M  END
>  <DRUGBANK_ID>  (1) 
DB11775

>  <COMMON_NAME>  (1) 
PF-03758309

>  <CAS_NUMBER>  (1) 
898044-15-0

>  <UNII>  (1) 
PK459EA5I2

$$$$
