NC4
     RDKit          2D

 16 16  0  0  0  0  0  0  0  0999 V2000
   -1.7601   -0.0925    0.0000 C   0  0  0  0  0  0  0  0  0  0  0  0
   -1.0457   -0.5050    0.0000 N   0  0  0  0  0  0  0  0  0  0  0  0
   -0.3312   -0.0925    0.0000 C   0  0  0  0  0  0  0  0  0  0  0  0
    0.3833   -0.5050    0.0000 N   0  0  0  0  0  0  0  0  0  0  0  0
    1.0977   -0.0925    0.0000 C   0  0  0  0  0  0  0  0  0  0  0  0
    1.8122   -0.5050    0.0000 C   0  0  0  0  0  0  0  0  0  0  0  0
    2.5267   -0.0925    0.0000 C   0  0  0  0  0  0  0  0  0  0  0  0
    3.2412   -0.5050    0.0000 C   0  0  0  0  0  0  0  0  0  0  0  0
    3.9556   -0.0925    0.0000 O   0  0  0  0  0  0  0  0  0  0  0  0
   -0.3312    0.7325    0.0000 O   0  0  0  0  0  0  0  0  0  0  0  0
    3.2412   -1.3300    0.0000 O   0  0  0  0  0  0  0  0  0  0  0  0
   -2.4746   -0.5050    0.0000 C   0  0  0  0  0  0  0  0  0  0  0  0
   -3.1891   -0.0925    0.0000 C   0  0  0  0  0  0  0  0  0  0  0  0
   -3.1891    0.7325    0.0000 C   0  0  0  0  0  0  0  0  0  0  0  0
   -2.4746    1.1450    0.0000 C   0  0  0  0  0  0  0  0  0  0  0  0
   -1.7601    0.7325    0.0000 C   0  0  0  0  0  0  0  0  0  0  0  0
  1  2  1  0
  1 12  1  0
  1 16  1  0
  2  3  1  0
  3  4  1  0
  3 10  2  0
  4  5  1  0
  5  6  1  0
  6  7  1  0
  7  8  1  0
  8  9  1  0
  8 11  2  0
 12 13  1  0
 13 14  1  0
 14 15  1  0
 15 16  1  0
M  END
>  <DRUGBANK_ID>  (1) 
DB08257

>  <COMMON_NAME>  (1) 
4-{[(CYCLOHEXYLAMINO)CARBONYL]AMINO}BUTANOIC ACID

>  <UNII>  (1) 
N2N8NLK6Q8

$$$$
