
     RDKit          2D

 26 30  0  0  1  0  0  0  0  0999 V2000
    8.2802   -2.4750    0.0000 C   0  0  0  0  0  0  0  0  0  0  0  0
    8.4518   -1.6680    0.0000 C   0  0  0  0  0  0  0  0  0  0  0  0
    9.2722   -1.5818    0.0000 C   0  0  0  0  0  0  0  0  0  0  0  0
    9.6078   -2.3355    0.0000 C   0  0  0  0  0  0  0  0  0  0  0  0
    8.9947   -2.8875    0.0000 C   0  0  0  0  0  0  0  0  0  0  0  0
    8.9947   -3.7125    0.0000 C   0  0  0  0  0  0  0  0  0  0  0  0
    9.7092   -4.1250    0.0000 C   0  0  0  0  0  0  0  0  0  0  0  0
    9.7092   -4.9500    0.0000 C   0  0  0  0  0  0  0  0  0  0  0  0
    8.9947   -5.3625    0.0000 C   0  0  0  0  0  0  0  0  0  0  0  0
    8.2802   -4.9500    0.0000 C   0  0  0  0  0  0  0  0  0  0  0  0
    8.2802   -4.1250    0.0000 C   0  0  0  0  0  0  0  0  0  0  0  0
    7.5658   -3.7125    0.0000 N   0  0  0  0  0  0  0  0  0  0  0  0
    7.5658   -2.8875    0.0000 C   0  0  0  0  0  0  0  0  0  0  0  0
    6.8513   -2.4750    0.0000 C   0  0  0  0  0  0  0  0  0  0  0  0
    6.1368   -2.8875    0.0000 C   0  0  0  0  0  0  0  0  0  0  0  0
    5.4223   -2.4750    0.0000 C   0  0  0  0  0  0  0  0  0  0  0  0
    4.6377   -2.7299    0.0000 O   0  0  0  0  0  0  0  0  0  0  0  0
    4.1528   -2.0625    0.0000 C   0  0  0  0  0  0  0  0  0  0  0  0
    4.6377   -1.3951    0.0000 O   0  0  0  0  0  0  0  0  0  0  0  0
    5.4223   -1.6500    0.0000 C   0  0  0  0  0  0  0  0  0  0  0  0
    6.1368   -1.2375    0.0000 C   0  0  0  0  0  0  0  0  0  0  0  0
    6.8513   -1.6500    0.0000 C   0  0  0  0  0  0  0  0  0  0  0  0
    7.5658   -1.2375    0.0000 Br  0  0  0  0  0  0  0  0  0  0  0  0
   10.4236   -5.3625    0.0000 C   0  0  0  0  0  0  0  0  0  0  0  0
   11.1381   -4.9500    0.0000 C   0  0  0  0  0  0  0  0  0  0  0  0
   10.4236   -6.1875    0.0000 O   0  0  0  0  0  0  0  0  0  0  0  0
  1  2  1  1
  1  5  1  0
  1 13  1  0
  2  3  1  0
  3  4  2  0
  5  4  1  1
  5  6  1  0
  6  7  2  0
  6 11  1  0
  7  8  1  0
  8  9  2  0
  8 24  1  0
  9 10  1  0
 10 11  2  0
 11 12  1  0
 13 12  1  0
 13 14  1  1
 14 15  2  0
 14 22  1  0
 15 16  1  0
 16 17  1  0
 16 20  2  0
 17 18  1  0
 18 19  1  0
 19 20  1  0
 20 21  1  0
 21 22  2  0
 22 23  1  0
 24 25  1  0
 24 26  2  0
M  END
>  <DRUGBANK_ID>  (1) 
DB18091

>  <COMMON_NAME>  (1) 
LNS-8801

>  <CAS_NUMBER>  (1) 
881639-98-1

>  <UNII>  (1) 
Y3V5BV7OKM

>  <SYNONYMS>  (1) 
Ethanone, 1-((3ar,4s,9bs)-4-(6-bromo-1,3-benzodioxol-5-yl)-3a,4,5,9b-tetrahydro-3h-cyclopenta(c)quinolin-8-yl)-, rel-; G 1 (anti-tumor agent); G 1 (g protein-coupled estrogen receptor agonist); G 1 (gper agonist)

$$$$
