
     RDKit          2D

 28 31  0  0  0  0  0  0  0  0999 V2000
   -0.4012   -0.1718    0.0000 C   0  0  0  0  0  0  0  0  0  0  0  0
    0.2974   -0.5684    0.0000 C   0  0  0  0  0  0  0  0  0  0  0  0
   -1.0968   -0.5684    0.0000 C   0  0  0  0  0  0  0  0  0  0  0  0
   -0.4012    0.6155    0.0000 C   0  0  0  0  0  0  0  0  0  0  0  0
   -0.4100   -1.0390    0.0000 F   0  0  0  0  0  0  0  0  0  0  0  0
    0.9900   -0.1718    0.0000 C   0  0  0  0  0  0  0  0  0  0  0  0
    0.2974   -1.3616    0.0000 C   0  0  0  0  0  0  0  0  0  0  0  0
   -1.0968   -1.3616    0.0000 C   0  0  0  0  0  0  0  0  0  0  0  0
   -1.8043   -0.1125    0.0000 C   0  0  0  0  0  0  0  0  0  0  0  0
   -1.0998    0.3964    0.0000 C   0  0  0  0  0  0  0  0  0  0  0  0
    0.3180    1.0565    0.0000 C   0  0  0  0  0  0  0  0  0  0  0  0
   -1.1560    1.1159    0.0000 O   0  0  0  0  0  0  0  0  0  0  0  0
    0.9900    0.6533    0.0000 C   0  0  0  0  0  0  0  0  0  0  0  0
    1.7748   -0.4267    0.0000 C   0  0  0  0  0  0  0  0  0  0  0  0
   -0.4100   -1.7909    0.0000 C   0  0  0  0  0  0  0  0  0  0  0  0
   -1.8043   -1.7909    0.0000 C   0  0  0  0  0  0  0  0  0  0  0  0
   -2.4910   -0.5684    0.0000 C   0  0  0  0  0  0  0  0  0  0  0  0
    1.7748    0.9082    0.0000 C   0  0  0  0  0  0  0  0  0  0  0  0
    0.9900    1.6309    0.0000 C   0  0  0  0  0  0  0  0  0  0  0  0
    2.2597    0.2407    0.0000 C   0  0  0  0  0  0  0  0  0  0  0  0
   -0.4100   -2.6494    0.0000 F   0  0  0  0  0  0  0  0  0  0  0  0
   -2.4910   -1.3616    0.0000 C   0  0  0  0  0  0  0  0  0  0  0  0
    2.0298    1.6931    0.0000 C   0  0  0  0  0  0  0  0  0  0  0  0
    3.0050    0.2371    0.0000 C   0  0  0  0  0  0  0  0  0  0  0  0
   -3.0918   -1.7257    0.0000 O   0  0  0  0  0  0  0  0  0  0  0  0
    2.8368    1.8646    0.0000 C   0  0  0  0  0  0  0  0  0  0  0  0
    1.4776    2.3063    0.0000 O   0  0  0  0  0  0  0  0  0  0  0  0
    3.0918    2.6494    0.0000 O   0  0  0  0  0  0  0  0  0  0  0  0
  1  2  1  0
  1  3  1  0
  1  4  1  0
  1  5  1  6
  2  6  1  0
  2  7  1  6
  3  8  1  0
  3  9  1  0
  3 10  1  1
  4 11  1  0
  4 12  1  1
  6 13  1  0
  6 14  1  1
  7 15  1  0
  8 16  2  0
  8 15  1  0
  9 17  2  0
 11 13  1  0
 13 18  1  0
 13 19  1  1
 14 20  1  0
 15 21  1  6
 16 22  1  0
 17 22  1  0
 18 23  1  1
 18 20  1  0
 20 24  1  6
 22 25  2  0
 23 26  1  0
 23 27  2  0
 26 28  1  0
M  END
>  <DRUGBANK_ID>  (1) 
DB09095

>  <COMMON_NAME>  (1) 
Difluocortolone

>  <CAS_NUMBER>  (1) 
2607-06-9

>  <UNII>  (1) 
K253365DXI

>  <SYNONYMS>  (1) 
Diflucortolona; Diflucortolone; Diflucortolonum

$$$$
