
     RDKit          2D

 36 40  0  0  0  0  0  0  0  0999 V2000
   -1.0924    0.4461    0.0000 N   0  0  0  0  0  0  0  0  0  0  0  0
   -0.4441    0.0100    0.0000 C   0  0  0  0  0  0  0  0  0  0  0  0
   -1.8349    0.1986    0.0000 C   0  0  0  0  0  0  0  0  0  0  0  0
   -0.7211    1.2711    0.0000 N   0  0  0  0  0  0  0  0  0  0  0  0
    0.2688    0.4049    0.0000 C   0  0  0  0  0  0  0  0  0  0  0  0
   -0.4732   -0.9151    0.0000 N   0  0  0  0  0  0  0  0  0  0  0  0
   -2.4949    0.6937    0.0000 C   0  0  0  0  0  0  0  0  0  0  0  0
   -2.0824   -0.5439    0.0000 C   0  0  0  0  0  0  0  0  0  0  0  0
    0.1451    1.1474    0.0000 N   0  0  0  0  0  0  0  0  0  0  0  0
    0.9701   -0.0076    0.0000 C   0  0  0  0  0  0  0  0  0  0  0  0
    0.2275   -1.3276    0.0000 C   0  0  0  0  0  0  0  0  0  0  0  0
   -3.1549    0.2399    0.0000 C   0  0  0  0  0  0  0  0  0  0  0  0
   -2.9075   -0.5439    0.0000 C   0  0  0  0  0  0  0  0  0  0  0  0
   -1.6286   -1.2039    0.0000 O   0  0  0  0  0  0  0  0  0  0  0  0
    0.9698   -0.8738    0.0000 N   0  0  0  0  0  0  0  0  0  0  0  0
    1.7126    0.4049    0.0000 N   0  0  0  0  0  0  0  0  0  0  0  0
   -3.9388    0.4874    0.0000 O   0  0  0  0  0  0  0  0  0  0  0  0
   -3.1549   -1.2864    0.0000 O   0  0  0  0  0  0  0  0  0  0  0  0
    0.2280   -2.1115    0.0000 S   0  0  0  0  0  0  0  0  0  0  0  0
    0.9288   -2.5239    0.0000 C   0  0  0  0  0  0  0  0  0  0  0  0
    1.6301   -2.1115    0.0000 C   0  0  0  0  0  0  0  0  0  0  0  0
   -4.6531    0.0749    0.0000 C   0  0  0  0  0  0  0  0  0  0  0  0
   -5.3677    0.4874    0.0000 C   0  0  0  0  0  0  0  0  0  0  0  0
   -6.0822    0.0749    0.0000 O   0  0  0  0  0  0  0  0  0  0  0  0
    2.3480   -2.5181    0.0000 C   0  0  0  0  0  0  0  0  0  0  0  0
    2.4271   -0.0076    0.0000 C   0  0  0  0  0  0  0  0  0  0  0  0
    3.2549    0.0151    0.0000 C   0  0  0  0  0  0  0  0  0  0  0  0
    2.8229   -0.7286    0.0000 C   0  0  0  0  0  0  0  0  0  0  0  0
    3.9742    0.4426    0.0000 C   0  0  0  0  0  0  0  0  0  0  0  0
    3.9635    1.2864    0.0000 C   0  0  0  0  0  0  0  0  0  0  0  0
    4.6726    1.7080    0.0000 C   0  0  0  0  0  0  0  0  0  0  0  0
    5.3919    1.3045    0.0000 C   0  0  0  0  0  0  0  0  0  0  0  0
    5.4031    0.4607    0.0000 C   0  0  0  0  0  0  0  0  0  0  0  0
    4.6937    0.0391    0.0000 C   0  0  0  0  0  0  0  0  0  0  0  0
    4.6624    2.5239    0.0000 F   0  0  0  0  0  0  0  0  0  0  0  0
    6.0822    1.7144    0.0000 F   0  0  0  0  0  0  0  0  0  0  0  0
  1  2  1  0
  1  4  1  0
  2  5  2  0
  2  6  1  0
  3  1  1  1
  3  7  1  0
  3  8  1  0
  4  9  2  0
  5 10  1  0
  5  9  1  0
  6 11  2  0
  7 12  1  0
  8 13  1  0
  8 14  1  6
 10 15  2  0
 10 16  1  0
 11 15  1  0
 11 19  1  0
 12 17  1  1
 12 13  1  0
 13 18  1  6
 17 22  1  0
 19 20  1  0
 20 21  1  0
 21 25  1  0
 22 23  1  0
 23 24  1  0
 26 27  1  0
 26 16  1  1
 27 28  1  0
 27 29  1  6
 28 26  1  0
 29 30  2  0
 29 34  1  0
 30 31  1  0
 31 32  2  0
 31 35  1  0
 32 33  1  0
 32 36  1  0
 33 34  2  0
M  END
>  <DRUGBANK_ID>  (1) 
DB08816

>  <SECONDARY_ACCESSION_NUMBERS>  (1) 
DB04902

>  <COMMON_NAME>  (1) 
Ticagrelor

>  <CAS_NUMBER>  (1) 
274693-27-5

>  <UNII>  (1) 
GLH0314RVC

>  <SYNONYMS>  (1) 
(1S,2S,3R,5S)-3-(7-((1R,2S)-2-(3,4-Difluorophenyl)cyclopropylamino)-5-(propylthio)-3H-(1,2,3)triazolo(4,5-d)pyrimidin-3-yl)-5-(2-hydroxyethoxy)cyclopentane-1,2-diol; Ticagrelor

$$$$
