877
     RDKit          2D

 27 28  0  0  0  0  0  0  0  0999 V2000
   -0.9094    3.2070    0.0000 C   0  0  0  0  0  0  0  0  0  0  0  0
   -0.1949    2.7945    0.0000 C   0  0  0  0  0  0  0  0  0  0  0  0
   -0.1949    1.9695    0.0000 C   0  0  0  0  0  0  0  0  0  0  0  0
   -0.9094    1.5570    0.0000 C   0  0  0  0  0  0  0  0  0  0  0  0
   -1.6239    1.9695    0.0000 C   0  0  0  0  0  0  0  0  0  0  0  0
   -1.6239    2.7945    0.0000 C   0  0  0  0  0  0  0  0  0  0  0  0
    0.5195    1.5570    0.0000 C   0  0  0  0  0  0  0  0  0  0  0  0
    0.5195    0.7320    0.0000 C   0  0  0  0  0  0  0  0  0  0  0  0
    1.2340    0.3195    0.0000 N   0  0  0  0  0  0  0  0  0  0  0  0
    1.2340   -0.5055    0.0000 C   0  0  0  0  0  0  0  0  0  0  0  0
   -0.1949    0.3195    0.0000 O   0  0  0  0  0  0  0  0  0  0  0  0
    1.9485   -0.9180    0.0000 N   0  0  0  0  0  0  0  0  0  0  0  0
    1.9485   -1.7430    0.0000 C   0  0  0  0  0  0  0  0  0  0  0  0
    1.2340   -2.1555    0.0000 C   0  0  0  0  0  0  0  0  0  0  0  0
    0.5195   -1.7430    0.0000 C   0  0  0  0  0  0  0  0  0  0  0  0
    0.5195   -0.9180    0.0000 C   0  0  0  0  0  0  0  0  0  0  0  0
   -2.3384    1.5570    0.0000 O   0  0  0  0  0  0  0  0  0  0  0  0
   -3.0528    1.9695    0.0000 C   0  0  0  0  0  0  0  0  0  0  0  0
    0.5195    3.2070    0.0000 O   0  0  0  0  0  0  0  0  0  0  0  0
    1.2340    2.7945    0.0000 C   0  0  0  0  0  0  0  0  0  0  0  0
   -0.1949   -2.1555    0.0000 N   0  0  0  0  0  0  0  0  0  0  0  0
    1.2340   -2.9805    0.0000 C   0  0  0  0  0  0  0  0  0  0  0  0
    2.6629   -2.1555    0.0000 O   0  0  0  0  0  0  0  0  0  0  0  0
    2.6629   -2.9805    0.0000 C   0  0  0  0  0  0  0  0  0  0  0  0
    3.3774   -3.3930    0.0000 C   0  0  0  0  0  0  0  0  0  0  0  0
   -2.3384    3.2070    0.0000 Br  0  0  0  0  0  0  0  0  0  0  0  0
    1.2340   -3.8055    0.0000 N   0  0  0  0  0  0  0  0  0  0  0  0
  1  2  2  0
  1  6  1  0
  2  3  1  0
  2 19  1  0
  3  4  2  0
  3  7  1  0
  4  5  1  0
  5  6  2  0
  5 17  1  0
  6 26  1  0
  7  8  1  0
  8  9  1  0
  8 11  2  0
  9 10  1  0
 10 12  2  0
 10 16  1  0
 12 13  1  0
 13 14  2  0
 13 23  1  0
 14 15  1  0
 14 22  1  0
 15 16  2  0
 15 21  1  0
 17 18  1  0
 19 20  1  0
 22 27  3  0
 23 24  1  0
 24 25  1  0
M  END
>  <DRUGBANK_ID>  (1) 
DB07272

>  <COMMON_NAME>  (1) 
N-(4-AMINO-5-CYANO-6-ETHOXYPYRIDIN-2-YL)-2-(4-BROMO-2,5-DIMETHOXYPHENYL)ACETAMIDE

$$$$
