
     RDKit          2D

 26 28  0  0  0  0  0  0  0  0999 V2000
    2.1198    0.6203    0.0000 C   0  0  0  0  0  0  0  0  0  0  0  0
    2.9267    0.7919    0.0000 C   0  0  0  0  0  0  0  0  0  0  0  0
    3.4788    0.1788    0.0000 N   0  0  0  0  0  0  0  0  0  0  0  0
    4.1462   -0.3062    0.0000 C   0  0  0  0  0  0  0  0  0  0  0  0
    3.8913   -1.0908    0.0000 C   0  0  0  0  0  0  0  0  0  0  0  0
    3.0663   -1.0908    0.0000 C   0  0  0  0  0  0  0  0  0  0  0  0
    2.8113   -0.3062    0.0000 C   0  0  0  0  0  0  0  0  0  0  0  0
    2.5813   -1.7582    0.0000 O   0  0  0  0  0  0  0  0  0  0  0  0
    2.9169   -2.5119    0.0000 C   0  0  0  0  0  0  0  0  0  0  0  0
    3.7374   -2.5981    0.0000 O   0  0  0  0  0  0  0  0  0  0  0  0
    2.4320   -3.1793    0.0000 C   0  0  0  0  0  0  0  0  0  0  0  0
    1.9470   -3.8468    0.0000 C   0  0  0  0  0  0  0  0  0  0  0  0
    2.2826   -4.6005    0.0000 C   0  0  0  0  0  0  0  0  0  0  0  0
    1.7977   -5.2679    0.0000 C   0  0  0  0  0  0  0  0  0  0  0  0
    0.9772   -5.1817    0.0000 C   0  0  0  0  0  0  0  0  0  0  0  0
    0.6416   -4.4280    0.0000 C   0  0  0  0  0  0  0  0  0  0  0  0
    1.1266   -3.7605    0.0000 C   0  0  0  0  0  0  0  0  0  0  0  0
    1.7645   -2.6944    0.0000 C   0  0  0  0  0  0  0  0  0  0  0  0
    1.0109   -3.0300    0.0000 C   0  0  0  0  0  0  0  0  0  0  0  0
    0.3434   -2.5451    0.0000 C   0  0  0  0  0  0  0  0  0  0  0  0
    0.4297   -1.7246    0.0000 C   0  0  0  0  0  0  0  0  0  0  0  0
    1.1833   -1.3890    0.0000 C   0  0  0  0  0  0  0  0  0  0  0  0
    1.8508   -1.8739    0.0000 C   0  0  0  0  0  0  0  0  0  0  0  0
    3.0994   -3.6643    0.0000 O   0  0  0  0  0  0  0  0  0  0  0  0
    4.0308    0.7919    0.0000 C   0  0  0  0  0  0  0  0  0  0  0  0
    4.8378    0.6203    0.0000 C   0  0  0  0  0  0  0  0  0  0  0  0
  1  2  1  0
  2  3  1  0
  3  4  1  0
  3  7  1  0
  3 25  1  0
  4  5  1  0
  5  6  1  0
  6  7  1  0
  6  8  1  0
  8  9  1  0
  9 10  2  0
  9 11  1  0
 11 12  1  0
 11 18  1  0
 11 24  1  0
 12 13  2  0
 12 17  1  0
 13 14  1  0
 14 15  2  0
 15 16  1  0
 16 17  2  0
 18 19  2  0
 18 23  1  0
 19 20  1  0
 20 21  2  0
 21 22  1  0
 22 23  2  0
 25 26  1  0
M  CHG  1   3   1
M  END
>  <DRUGBANK_ID>  (1) 
DB13369

>  <COMMON_NAME>  (1) 
Benzilone

>  <CAS_NUMBER>  (1) 
16175-92-1

>  <UNII>  (1) 
GY56LQX77B

>  <SYNONYMS>  (1) 
Benzilonium

$$$$
