
     RDKit          2D

 40 42  0  0  1  0  0  0  0  0999 V2000
   -2.5006   -0.2062    0.0000 O   0  0  0  0  0  0  0  0  0  0  0  0
   -1.7862    0.2063    0.0000 C   0  0  0  0  0  0  0  0  0  0  0  0
   -1.7862    1.0313    0.0000 O   0  0  0  0  0  0  0  0  0  0  0  0
   -1.0717   -0.2063    0.0000 C   0  0  0  0  0  0  0  0  0  0  0  0
   -0.3572    0.2062    0.0000 C   0  0  0  0  0  0  0  0  0  0  0  0
    0.3572   -0.2063    0.0000 C   0  0  0  0  0  0  0  0  0  0  0  0
    1.0717    0.2062    0.0000 C   0  0  0  0  0  0  0  0  0  0  0  0
    1.7862   -0.2063    0.0000 C   0  0  0  0  0  0  0  0  0  0  0  0
    2.5006    0.2062    0.0000 O   0  0  0  0  0  0  0  0  0  0  0  0
    1.7862   -1.0313    0.0000 O   0  0  0  0  0  0  0  0  0  0  0  0
    6.2168   -4.7962    0.0000 C   0  0  0  0  0  0  0  0  0  0  0  0
    5.6648   -4.1831    0.0000 C   0  0  0  0  0  0  0  0  0  0  0  0
    4.8578   -4.3546    0.0000 N   0  0  0  0  0  0  0  0  0  0  0  0
    5.9197   -3.3985    0.0000 C   0  0  0  0  0  0  0  0  0  0  0  0
    5.3677   -2.7854    0.0000 O   0  0  0  0  0  0  0  0  0  0  0  0
    5.6226   -2.0008    0.0000 C   0  0  0  0  0  0  0  0  0  0  0  0
    5.0706   -1.3877    0.0000 C   0  0  0  0  0  0  0  0  0  0  0  0
    5.3255   -0.6031    0.0000 C   0  0  0  0  0  0  0  0  0  0  0  0
    6.1325   -0.4315    0.0000 C   0  0  0  0  0  0  0  0  0  0  0  0
    6.6845   -1.0446    0.0000 C   0  0  0  0  0  0  0  0  0  0  0  0
    6.4296   -1.8293    0.0000 C   0  0  0  0  0  0  0  0  0  0  0  0
    6.3874    0.3531    0.0000 C   0  0  0  0  0  0  0  0  0  0  0  0
    5.9025    1.0205    0.0000 C   0  0  0  0  0  0  0  0  0  0  0  0
    6.3874    1.6880    0.0000 N   0  0  0  0  0  0  0  0  0  0  0  0
    7.1720    1.4330    0.0000 C   0  0  0  0  0  0  0  0  0  0  0  0
    7.8865    1.8455    0.0000 C   0  0  0  0  0  0  0  0  0  0  0  0
    8.6010    1.4330    0.0000 C   0  0  0  0  0  0  0  0  0  0  0  0
    8.6010    0.6080    0.0000 C   0  0  0  0  0  0  0  0  0  0  0  0
    9.3155    0.1955    0.0000 N   0  0  0  0  0  0  0  0  0  0  0  0
   10.0299    0.6080    0.0000 C   0  0  0  0  0  0  0  0  0  0  0  0
   10.7444    0.1955    0.0000 C   0  0  0  0  0  0  0  0  0  0  0  0
   10.0299    1.4330    0.0000 C   0  0  0  0  0  0  0  0  0  0  0  0
    9.3155    1.8455    0.0000 C   0  0  0  0  0  0  0  0  0  0  0  0
    9.3155    2.6705    0.0000 C   0  0  0  0  0  0  0  0  0  0  0  0
   10.0299    3.0830    0.0000 C   0  0  0  0  0  0  0  0  0  0  0  0
   10.7444    2.6705    0.0000 C   0  0  0  0  0  0  0  0  0  0  0  0
   11.4589    3.0830    0.0000 F   0  0  0  0  0  0  0  0  0  0  0  0
   10.7444    1.8455    0.0000 C   0  0  0  0  0  0  0  0  0  0  0  0
    7.8865    0.1955    0.0000 N   0  0  0  0  0  0  0  0  0  0  0  0
    7.1720    0.6080    0.0000 N   0  0  0  0  0  0  0  0  0  0  0  0
  1  2  1  0
  2  3  2  0
  2  4  1  0
  4  5  1  0
  5  6  1  0
  6  7  1  0
  7  8  1  0
  8  9  1  0
  8 10  2  0
 12 11  1  1
 12 13  1  0
 12 14  1  0
 14 15  1  0
 15 16  1  0
 16 17  2  0
 16 21  1  0
 17 18  1  0
 18 19  2  0
 19 20  1  0
 19 22  1  0
 20 21  2  0
 22 23  2  0
 22 40  1  0
 23 24  1  0
 24 25  2  0
 25 26  1  0
 25 40  1  0
 26 27  2  0
 27 28  1  0
 28 29  1  0
 28 39  2  0
 30 29  1  0
 30 31  1  1
 30 32  1  0
 32 33  2  0
 32 38  1  0
 33 34  1  0
 34 35  2  0
 35 36  1  0
 36 37  1  0
 36 38  2  0
 39 40  1  0
M  END
>  <DRUGBANK_ID>  (1) 
DB18711

>  <COMMON_NAME>  (1) 
taletrectinib

>  <CAS_NUMBER>  (1) 
1505515-69-4

>  <UNII>  (1) 
6KLL51GNBG

>  <SYNONYMS>  (1) 
Taletrectinib adipate

$$$$
