
     RDKit          2D

 32 35  0  0  1  0  0  0  0  0999 V2000
   -7.5572    4.0145    0.0000 C   0  0  0  0  0  0  0  0  0  0  0  0
   -7.5572    3.1895    0.0000 C   0  0  0  0  0  0  0  0  0  0  0  0
   -8.2717    2.7770    0.0000 C   0  0  0  0  0  0  0  0  0  0  0  0
   -8.9862    3.1895    0.0000 C   0  0  0  0  0  0  0  0  0  0  0  0
   -8.9862    4.0145    0.0000 C   0  0  0  0  0  0  0  0  0  0  0  0
   -8.2717    4.4270    0.0000 C   0  0  0  0  0  0  0  0  0  0  0  0
   -8.2717    5.2520    0.0000 C   0  0  0  0  0  0  0  0  0  0  0  0
   -8.9862    5.6645    0.0000 C   0  0  0  0  0  0  0  0  0  0  0  0
   -9.7006    5.2520    0.0000 C   0  0  0  0  0  0  0  0  0  0  0  0
  -10.4151    5.6645    0.0000 C   0  0  0  0  0  0  0  0  0  0  0  0
  -10.4151    6.4895    0.0000 C   0  0  0  0  0  0  0  0  0  0  0  0
   -9.7006    6.9020    0.0000 C   0  0  0  0  0  0  0  0  0  0  0  0
   -8.9862    6.4895    0.0000 C   0  0  0  0  0  0  0  0  0  0  0  0
   -8.2717    6.9020    0.0000 Cl  0  0  0  0  0  0  0  0  0  0  0  0
  -11.1296    5.2520    0.0000 C   0  0  0  0  0  0  0  0  0  0  0  0
  -11.1296    4.4270    0.0000 C   0  0  0  0  0  0  0  0  0  0  0  0
  -11.8440    4.0145    0.0000 C   0  0  0  0  0  0  0  0  0  0  0  0
  -12.5585    4.4270    0.0000 C   0  0  0  0  0  0  0  0  0  0  0  0
  -12.5585    5.2520    0.0000 C   0  0  0  0  0  0  0  0  0  0  0  0
  -11.8440    5.6645    0.0000 O   0  0  0  0  0  0  0  0  0  0  0  0
  -13.2730    5.6645    0.0000 C   0  0  0  0  0  0  0  0  0  0  0  0
  -13.9874    5.2520    0.0000 O   0  0  0  0  0  0  0  0  0  0  0  0
  -13.2730    4.0145    0.0000 O   0  0  0  0  0  0  0  0  0  0  0  0
  -11.8440    3.1895    0.0000 O   0  0  0  0  0  0  0  0  0  0  0  0
  -10.4151    4.0145    0.0000 O   0  0  0  0  0  0  0  0  0  0  0  0
   -8.2717    1.9520    0.0000 O   0  0  0  0  0  0  0  0  0  0  0  0
   -7.5572    1.5395    0.0000 C   0  0  0  0  0  0  0  0  0  0  0  0
   -7.5572    0.7145    0.0000 C   0  0  0  0  0  0  0  0  0  0  0  0
   -6.8427    0.3020    0.0000 O   0  0  0  0  0  0  0  0  0  0  0  0
   -6.8427   -0.5230    0.0000 C   0  0  0  0  0  0  0  0  0  0  0  0
   -6.4302   -1.2375    0.0000 C   0  0  0  0  0  0  0  0  0  0  0  0
   -7.2552   -1.2375    0.0000 C   0  0  0  0  0  0  0  0  0  0  0  0
  1  2  2  0
  1  6  1  0
  2  3  1  0
  3  4  2  0
  3 26  1  0
  4  5  1  0
  5  6  2  0
  6  7  1  0
  7  8  1  0
  8  9  2  0
  8 13  1  0
  9 10  1  0
 10 11  2  0
 11 12  1  0
 12 13  2  0
 13 14  1  0
 15 10  1  1
 15 16  1  0
 15 20  1  0
 16 17  1  0
 16 25  1  6
 17 18  1  0
 17 24  1  1
 18 19  1  0
 18 23  1  6
 19 20  1  0
 19 21  1  1
 21 22  1  0
 26 27  1  0
 27 28  1  0
 28 29  1  0
 29 30  1  0
 30 31  1  0
 30 32  1  0
 31 32  1  0
M  END
>  <DRUGBANK_ID>  (1) 
DB12236

>  <COMMON_NAME>  (1) 
Bexagliflozin

>  <CAS_NUMBER>  (1) 
1118567-05-7

>  <UNII>  (1) 
EY00JF42FV

>  <SYNONYMS>  (1) 
(2S,3R,4R,5S,6R)-2-(4-chloro-3-((4-(2-(cyclopropyloxy)ethoxy)phenyl)methyl)phenyl)-6-(hydroxymethyl)tetrahydro-2H-pyran-3,4,5-triol; Bexagliflozin; D-glucitol, 1,5-anhydro-1-C-(4-chloro-3-((4-(2-(cyclopropyloxy)ethoxy)phenyl)methyl)phenyl)-, (1s)-

$$$$
