
     RDKit          2D

 20 21  0  0  0  0  0  0  0  0999 V2000
    4.0173   -8.6369    0.0000 C   0  0  0  0  0  0  0  0  0  0  0  0
    4.7202   -9.0438    0.0000 N   0  0  0  0  0  0  0  0  0  0  0  0
    3.2956   -9.0438    0.0000 C   0  0  0  0  0  0  0  0  0  0  0  0
    2.5926   -8.6554    0.0000 C   0  0  0  0  0  0  0  0  0  0  0  0
    2.5926   -7.8228    0.0000 C   0  0  0  0  0  0  0  0  0  0  0  0
    3.3142   -7.4158    0.0000 C   0  0  0  0  0  0  0  0  0  0  0  0
    4.0173   -7.8228    0.0000 C   0  0  0  0  0  0  0  0  0  0  0  0
    3.2956   -9.8763    0.0000 C   0  0  0  0  0  0  0  0  0  0  0  0
    5.4234   -8.6369    0.0000 C   0  0  0  0  0  0  0  0  0  0  0  0
    5.4234   -7.8228    0.0000 O   0  0  0  0  0  0  0  0  0  0  0  0
    4.7202   -7.3972    0.0000 C   0  0  0  0  0  0  0  0  0  0  0  0
    6.1264   -9.0438    0.0000 C   0  0  0  0  0  0  0  0  0  0  0  0
    6.8479   -8.6554    0.0000 N   0  0  0  0  0  0  0  0  0  0  0  0
    7.5510   -9.0438    0.0000 C   0  0  0  0  0  0  0  0  0  0  0  0
    7.5510   -9.8763    0.0000 C   0  0  0  0  0  0  0  0  0  0  0  0
    6.8479  -10.2835    0.0000 C   0  0  0  0  0  0  0  0  0  0  0  0
    6.1264   -9.8763    0.0000 C   0  0  0  0  0  0  0  0  0  0  0  0
    6.8479   -7.8228    0.0000 C   0  0  0  0  0  0  0  0  0  0  0  0
    6.1449   -7.4158    0.0000 C   0  0  0  0  0  0  0  0  0  0  0  0
    6.1449   -6.5832    0.0000 C   0  0  0  0  0  0  0  0  0  0  0  0
  2  1  1  0
  3  1  2  0
  4  3  1  0
  5  4  2  0
  6  5  1  0
  7  1  1  0
  7  6  2  0
  8  3  1  0
  9  2  1  0
 10  9  2  0
 11  7  1  0
 12  9  1  1
 13 12  1  0
 14 13  1  0
 15 14  1  0
 16 15  1  0
 17 12  1  0
 17 16  1  0
 18 13  1  0
 19 18  1  0
 20 19  1  0
M  END
>  <DRUGBANK_ID>  (1) 
DB00296

>  <SECONDARY_ACCESSION_NUMBERS>  (1) 
APRD00492

>  <COMMON_NAME>  (1) 
Ropivacaine

>  <CAS_NUMBER>  (1) 
84057-95-4

>  <UNII>  (1) 
7IO5LYA57N

>  <SYNONYMS>  (1) 
(S)-(âˆ’)-1-propyl-2',6'-pipecoloxylidide; (S)-ropivacaine; L-N-n-propylpipecolic acid-2,6-xylidide; Ropivacaina; Ropivacaine; Ropivacainum

$$$$
