
     RDKit          2D

 34 36  0  0  0  0  0  0  0  0999 V2000
    1.9305    0.8245    0.0000 N   0  0  0  0  0  0  0  0  0  0  0  0
    1.9305    1.6249    0.0000 C   0  0  0  0  0  0  0  0  0  0  0  0
    2.6194    0.3880    0.0000 C   0  0  0  0  0  0  0  0  0  0  0  0
    1.2224    0.4025    0.0000 C   0  0  0  0  0  0  0  0  0  0  0  0
    1.2224   -0.4511    0.0000 C   0  0  0  0  0  0  0  0  0  0  0  0
    1.9305   -0.8586    0.0000 C   0  0  0  0  0  0  0  0  0  0  0  0
    2.6194   -0.4511    0.0000 C   0  0  0  0  0  0  0  0  0  0  0  0
    0.3493    1.6249    0.0000 N   0  0  0  0  0  0  0  0  0  0  0  0
    3.3324    0.8004    0.0000 C   0  0  0  0  0  0  0  0  0  0  0  0
    1.1301    2.0615    0.0000 C   0  0  0  0  0  0  0  0  0  0  0  0
   -0.3784    2.8618    0.0000 C   0  0  0  0  0  0  0  0  0  0  0  0
    1.9305   -1.6638    0.0000 C   0  0  0  0  0  0  0  0  0  0  0  0
    0.5239   -0.8586    0.0000 C   0  0  0  0  0  0  0  0  0  0  0  0
    1.2224   -2.0713    0.0000 C   0  0  0  0  0  0  0  0  0  0  0  0
    0.5239   -1.6638    0.0000 C   0  0  0  0  0  0  0  0  0  0  0  0
   -0.3784    2.0324    0.0000 C   0  0  0  0  0  0  0  0  0  0  0  0
    2.6048    2.0324    0.0000 O   0  0  0  0  0  0  0  0  0  0  0  0
    3.3324    1.6249    0.0000 O   0  0  0  0  0  0  0  0  0  0  0  0
    0.3443    3.2888    0.0000 O   0  0  0  0  0  0  0  0  0  0  0  0
   -1.0963    1.6249    0.0000 C   0  0  0  0  0  0  0  0  0  0  0  0
    4.0455    0.4025    0.0000 O   0  0  0  0  0  0  0  0  0  0  0  0
   -1.0672    3.2888    0.0000 O   0  0  0  0  0  0  0  0  0  0  0  0
   -1.8481    2.0324    0.0000 C   0  0  0  0  0  0  0  0  0  0  0  0
    1.2224   -2.8862    0.0000 O   0  0  0  0  0  0  0  0  0  0  0  0
   -0.1892   -2.0567    0.0000 O   0  0  0  0  0  0  0  0  0  0  0  0
   -2.5757    1.6589    0.0000 C   0  0  0  0  0  0  0  0  0  0  0  0
    1.1301    2.8327    0.0000 C   0  0  0  0  0  0  0  0  0  0  0  0
    1.9305   -3.2888    0.0000 C   0  0  0  0  0  0  0  0  0  0  0  0
   -0.8731   -1.6492    0.0000 C   0  0  0  0  0  0  0  0  0  0  0  0
   -2.5757    0.8004    0.0000 C   0  0  0  0  0  0  0  0  0  0  0  0
   -3.3033    2.0955    0.0000 C   0  0  0  0  0  0  0  0  0  0  0  0
   -3.3033    0.3880    0.0000 C   0  0  0  0  0  0  0  0  0  0  0  0
   -4.0455    1.6589    0.0000 C   0  0  0  0  0  0  0  0  0  0  0  0
   -4.0455    0.8004    0.0000 C   0  0  0  0  0  0  0  0  0  0  0  0
  2  1  1  0
  3  1  1  0
  3  9  1  6
  4  1  1  0
  5  4  1  0
  6  5  2  0
  6  7  1  0
  7  3  1  0
  8 10  1  0
 10  2  1  0
 10 27  1  1
 12  6  1  0
 12 14  2  0
 13  5  1  0
 14 15  1  0
 15 13  2  0
 16 11  1  0
 16  8  1  0
 17  2  2  0
 18  9  2  0
 19 11  2  0
 16 20  1  1
 21  9  1  0
 22 11  1  0
 23 20  1  0
 24 14  1  0
 25 15  1  0
 26 23  1  0
 28 24  1  0
 29 25  1  0
 30 26  2  0
 31 26  1  0
 32 30  1  0
 33 31  2  0
 34 33  1  0
 34 32  2  0
M  END
>  <DRUGBANK_ID>  (1) 
DB14210

>  <COMMON_NAME>  (1) 
Moexiprilat

>  <CAS_NUMBER>  (1) 
103775-14-0

>  <UNII>  (1) 
H3753190JS

>  <SYNONYMS>  (1) 
Moexiprilat

$$$$
