
     RDKit          2D

 23 26  0  0  1  0  0  0  0  0999 V2000
    0.7311    7.0348    0.0000 C   0  0  0  0  0  0  0  0  0  0  0  0
    0.3956    6.2811    0.0000 N   0  0  0  0  0  0  0  0  0  0  0  0
    0.8805    5.6136    0.0000 C   0  0  0  0  0  0  0  0  0  0  0  0
    1.7010    5.6999    0.0000 O   0  0  0  0  0  0  0  0  0  0  0  0
    0.5449    4.8600    0.0000 C   0  0  0  0  0  0  0  0  0  0  0  0
    1.0298    4.1925    0.0000 C   0  0  0  0  0  0  0  0  0  0  0  0
    0.6943    3.4389    0.0000 C   0  0  0  0  0  0  0  0  0  0  0  0
   -0.1262    3.3526    0.0000 C   0  0  0  0  0  0  0  0  0  0  0  0
   -0.4617    2.5989    0.0000 C   0  0  0  0  0  0  0  0  0  0  0  0
   -1.2822    2.5127    0.0000 C   0  0  0  0  0  0  0  0  0  0  0  0
   -1.7672    3.1801    0.0000 C   0  0  0  0  0  0  0  0  0  0  0  0
   -1.4316    3.9338    0.0000 C   0  0  0  0  0  0  0  0  0  0  0  0
   -0.6111    4.0201    0.0000 C   0  0  0  0  0  0  0  0  0  0  0  0
   -0.2756    4.7737    0.0000 C   0  0  0  0  0  0  0  0  0  0  0  0
   -1.6178    1.7590    0.0000 C   0  0  0  0  0  0  0  0  0  0  0  0
   -2.1027    1.0916    0.0000 C   0  0  0  0  0  0  0  0  0  0  0  0
   -1.6178    0.4242    0.0000 C   0  0  0  0  0  0  0  0  0  0  0  0
   -0.8332    0.6791    0.0000 N   0  0  0  0  0  0  0  0  0  0  0  0
   -0.8332    1.5041    0.0000 C   0  0  0  0  0  0  0  0  0  0  0  0
   -0.0485    1.7590    0.0000 C   0  0  0  0  0  0  0  0  0  0  0  0
    0.4364    1.0916    0.0000 N   0  0  0  0  0  0  0  0  0  0  0  0
   -0.0485    0.4242    0.0000 C   0  0  0  0  0  0  0  0  0  0  0  0
   -2.3323    2.1715    0.0000 O   0  0  0  0  0  0  0  0  0  0  0  0
  1  2  1  0
  2  3  1  0
  3  4  2  0
  3  5  1  0
  5  6  2  0
  5 14  1  0
  6  7  1  0
  7  8  2  0
  8  9  1  0
  8 13  1  0
  9 10  2  0
 10 11  1  0
 11 12  2  0
 12 13  1  0
 13 14  2  0
 15 10  1  0
 15 16  1  0
 15 19  1  0
 15 23  1  1
 16 17  1  0
 17 18  1  0
 18 19  1  0
 18 22  1  0
 19 20  2  0
 20 21  1  0
 21 22  2  0
M  END
>  <DRUGBANK_ID>  (1) 
DB12066

>  <COMMON_NAME>  (1) 
Orteronel

>  <CAS_NUMBER>  (1) 
566939-85-3

>  <UNII>  (1) 
UE5K2FNS92

>  <SYNONYMS>  (1) 
Orteronel

$$$$
