DQN
     RDKit          2D

 12 12  0  0  0  0  0  0  0  0999 V2000
    0.7145    0.4123    0.0000 C   0  0  0  0  0  0  0  0  0  0  0  0
    1.4290    0.8248    0.0000 O   0  0  0  0  0  0  0  0  0  0  0  0
    0.7145   -0.4127    0.0000 C   0  0  0  0  0  0  0  0  0  0  0  0
    1.4290   -0.8252    0.0000 C   0  0  0  0  0  0  0  0  0  0  0  0
    0.0000   -0.8252    0.0000 C   0  0  0  0  0  0  0  0  0  0  0  0
    0.0000   -1.6502    0.0000 C   0  0  0  0  0  0  0  0  0  0  0  0
   -0.7144   -0.4127    0.0000 C   0  0  0  0  0  0  0  0  0  0  0  0
   -1.4289   -0.8252    0.0000 O   0  0  0  0  0  0  0  0  0  0  0  0
   -0.7144    0.4123    0.0000 C   0  0  0  0  0  0  0  0  0  0  0  0
   -1.4289    0.8248    0.0000 C   0  0  0  0  0  0  0  0  0  0  0  0
    0.0000    0.8248    0.0000 C   0  0  0  0  0  0  0  0  0  0  0  0
    0.0000    1.6498    0.0000 C   0  0  0  0  0  0  0  0  0  0  0  0
  1  2  2  0
  1  3  1  0
  1 11  1  0
  3  4  1  0
  3  5  2  0
  5  6  1  0
  5  7  1  0
  7  8  2  0
  7  9  1  0
  9 10  1  0
  9 11  2  0
 11 12  1  0
M  END
>  <DRUGBANK_ID>  (1) 
DB01927

>  <SECONDARY_ACCESSION_NUMBERS>  (1) 
EXPT01265

>  <COMMON_NAME>  (1) 
Duroquinone

>  <CAS_NUMBER>  (1) 
527-17-3

>  <UNII>  (1) 
X0Q8791R69

$$$$
