FTA
     RDKit          2D

 23 25  0  0  0  0  0  0  0  0999 V2000
    2.2756    0.5346    0.0000 N   0  0  0  0  0  0  0  0  0  0  0  0
    2.2756    1.3596    0.0000 C   0  0  0  0  0  0  0  0  0  0  0  0
    1.5612    1.7721    0.0000 C   0  0  0  0  0  0  0  0  0  0  0  0
    1.5612    2.5971    0.0000 C   0  0  0  0  0  0  0  0  0  0  0  0
    2.2756    3.0096    0.0000 C   0  0  0  0  0  0  0  0  0  0  0  0
    2.9901    2.5971    0.0000 C   0  0  0  0  0  0  0  0  0  0  0  0
    2.9901    1.7721    0.0000 C   0  0  0  0  0  0  0  0  0  0  0  0
    1.5612    0.1221    0.0000 C   0  0  0  0  0  0  0  0  0  0  0  0
    1.5612   -0.7029    0.0000 C   0  0  0  0  0  0  0  0  0  0  0  0
    0.8467   -1.1154    0.0000 C   0  0  0  0  0  0  0  0  0  0  0  0
    0.8467    0.5346    0.0000 C   0  0  0  0  0  0  0  0  0  0  0  0
    0.1322    0.1221    0.0000 C   0  0  0  0  0  0  0  0  0  0  0  0
    0.1322   -0.7029    0.0000 C   0  0  0  0  0  0  0  0  0  0  0  0
   -0.5822   -1.1154    0.0000 N   0  0  0  0  0  0  0  0  0  0  0  0
   -1.2967   -0.7029    0.0000 C   0  0  0  0  0  0  0  0  0  0  0  0
   -2.0112   -1.1154    0.0000 C   0  0  0  0  0  0  0  0  0  0  0  0
   -2.7257   -0.7029    0.0000 C   0  0  0  0  0  0  0  0  0  0  0  0
   -3.4401   -0.2904    0.0000 N   0  0  0  0  0  0  0  0  0  0  0  0
   -2.0112   -1.9404    0.0000 C   0  0  0  0  0  0  0  0  0  0  0  0
   -1.3437   -2.4253    0.0000 N   0  0  0  0  0  0  0  0  0  0  0  0
   -1.5987   -3.2099    0.0000 N   0  0  0  0  0  0  0  0  0  0  0  0
   -2.4237   -3.2099    0.0000 N   0  0  0  0  0  0  0  0  0  0  0  0
   -2.6786   -2.4253    0.0000 N   0  0  0  0  0  0  0  0  0  0  0  0
  1  2  1  0
  1  8  1  0
  2  3  2  0
  2  7  1  0
  3  4  1  0
  4  5  2  0
  5  6  1  0
  6  7  2  0
  8  9  2  0
  8 11  1  0
  9 10  1  0
 10 13  2  0
 11 12  2  0
 12 13  1  0
 13 14  1  0
 14 15  1  0
 15 16  2  0
 16 17  1  0
 16 19  1  0
 17 18  3  0
 19 20  2  0
 19 23  1  0
 20 21  1  0
 21 22  1  0
 22 23  2  0
M  END
>  <DRUGBANK_ID>  (1) 
DB04430

>  <SECONDARY_ACCESSION_NUMBERS>  (1) 
EXPT01502

>  <COMMON_NAME>  (1) 
3-(4-Phenylamino-Phenylamino)-2-(1h-Tetrazol-5-Yl)-Acrylonitrile

$$$$
