GNF
     RDKit          2D

 32 35  0  0  0  0  0  0  0  0999 V2000
    0.1403    1.4384    0.0000 O   0  0  0  0  0  0  0  0  0  0  0  0
   -0.1298    0.6589    0.0000 C   0  0  0  0  0  0  0  0  0  0  0  0
   -0.9399    0.5029    0.0000 C   0  0  0  0  0  0  0  0  0  0  0  0
   -1.4800    1.1266    0.0000 N   0  0  0  0  0  0  0  0  0  0  0  0
   -2.2901    0.9707    0.0000 C   0  0  0  0  0  0  0  0  0  0  0  0
   -2.6402    0.2236    0.0000 O   0  0  0  0  0  0  0  0  0  0  0  0
   -3.4588    0.3257    0.0000 C   0  0  0  0  0  0  0  0  0  0  0  0
   -4.0825   -0.2144    0.0000 C   0  0  0  0  0  0  0  0  0  0  0  0
   -4.8620    0.0556    0.0000 C   0  0  0  0  0  0  0  0  0  0  0  0
   -5.0179    0.8658    0.0000 C   0  0  0  0  0  0  0  0  0  0  0  0
   -4.3943    1.4059    0.0000 C   0  0  0  0  0  0  0  0  0  0  0  0
   -3.6147    1.1358    0.0000 C   0  0  0  0  0  0  0  0  0  0  0  0
   -2.8924    1.5344    0.0000 N   0  0  0  0  0  0  0  0  0  0  0  0
   -1.2099   -0.2766    0.0000 C   0  0  0  0  0  0  0  0  0  0  0  0
   -0.6698   -0.9003    0.0000 C   0  0  0  0  0  0  0  0  0  0  0  0
    0.1403   -0.7443    0.0000 C   0  0  0  0  0  0  0  0  0  0  0  0
    0.6804   -1.3680    0.0000 C   0  0  0  0  0  0  0  0  0  0  0  0
    0.4103   -2.1475    0.0000 C   0  0  0  0  0  0  0  0  0  0  0  0
   -0.3998   -2.3034    0.0000 C   0  0  0  0  0  0  0  0  0  0  0  0
   -0.9399   -1.6798    0.0000 C   0  0  0  0  0  0  0  0  0  0  0  0
    0.4103    0.0352    0.0000 N   0  0  0  0  0  0  0  0  0  0  0  0
    1.2205    0.1911    0.0000 C   0  0  0  0  0  0  0  0  0  0  0  0
    1.7606   -0.4325    0.0000 C   0  0  0  0  0  0  0  0  0  0  0  0
    2.5707   -0.2766    0.0000 N   0  0  0  0  0  0  0  0  0  0  0  0
    2.8407    0.5029    0.0000 C   0  0  0  0  0  0  0  0  0  0  0  0
    2.3006    1.1266    0.0000 C   0  0  0  0  0  0  0  0  0  0  0  0
    2.5707    1.9061    0.0000 C   0  0  0  0  0  0  0  0  0  0  0  0
    3.6509    0.6589    0.0000 C   0  0  0  0  0  0  0  0  0  0  0  0
    3.9209    1.4384    0.0000 C   0  0  0  0  0  0  0  0  0  0  0  0
    3.3808    2.0620    0.0000 C   0  0  0  0  0  0  0  0  0  0  0  0
    3.6509    2.8416    0.0000 O   0  0  0  0  0  0  0  0  0  0  0  0
    3.1108    3.4652    0.0000 C   0  0  0  0  0  0  0  0  0  0  0  0
  1  2  2  0
  2  3  1  0
  2 21  1  0
  3  4  1  0
  3 14  1  6
  4  5  1  0
  5  6  1  0
  5 13  2  0
  6  7  1  0
  7  8  2  0
  7 12  1  0
  8  9  1  0
  9 10  2  0
 10 11  1  0
 11 12  2  0
 12 13  1  0
 14 15  1  0
 15 16  1  0
 15 20  1  0
 16 17  1  0
 17 18  1  0
 18 19  1  0
 19 20  1  0
 21 22  1  0
 22 23  1  0
 23 24  1  0
 24 25  1  0
 25 26  2  0
 25 28  1  0
 26 27  1  0
 27 30  2  0
 28 29  2  0
 29 30  1  0
 30 31  1  0
 31 32  1  0
M  END
>  <DRUGBANK_ID>  (1) 
DB07839

>  <COMMON_NAME>  (1) 
N~2~-1,3-BENZOXAZOL-2-YL-3-CYCLOHEXYL-N-{2-[(4-METHOXYPHENYL)AMINO]ETHYL}-L-ALANINAMIDE

$$$$
