
     RDKit          2D

 15 16  0  0  0  0  0  0  0  0999 V2000
   -0.7142    0.8250    0.0000 C   0  0  0  0  0  0  0  0  0  0  0  0
   -1.4290   -0.4124    0.0000 C   0  0  0  0  0  0  0  0  0  0  0  0
    1.4289   -0.4124    0.0000 C   0  0  0  0  0  0  0  0  0  0  0  0
   -1.4290    0.4126    0.0000 C   0  0  0  0  0  0  0  0  0  0  0  0
    0.0003    0.4126    0.0000 C   0  0  0  0  0  0  0  0  0  0  0  0
   -0.7142   -0.8250    0.0000 C   0  0  0  0  0  0  0  0  0  0  0  0
    0.7148   -0.8250    0.0000 C   0  0  0  0  0  0  0  0  0  0  0  0
    1.4289    0.4126    0.0000 C   0  0  0  0  0  0  0  0  0  0  0  0
    0.0003   -0.4124    0.0000 C   0  0  0  0  0  0  0  0  0  0  0  0
    0.7148    0.8250    0.0000 C   0  0  0  0  0  0  0  0  0  0  0  0
   -2.1435    0.8250    0.0000 O   0  0  0  0  0  0  0  0  0  0  0  0
   -0.7142   -1.6500    0.0000 O   0  0  0  0  0  0  0  0  0  0  0  0
    0.7148   -1.6500    0.0000 O   0  0  0  0  0  0  0  0  0  0  0  0
    2.1436    0.8250    0.0000 O   0  0  0  0  0  0  0  0  0  0  0  0
    0.7148    1.6500    0.0000 O   0  0  0  0  0  0  0  0  0  0  0  0
  1  4  2  0
  1  5  1  0
  2  4  1  0
  2  6  2  0
  3  7  1  0
  3  8  2  0
  4 11  1  0
  5  9  2  0
  5 10  1  0
  6  9  1  0
  6 12  1  0
  7  9  1  0
  7 13  2  0
  8 10  1  0
  8 14  1  0
 10 15  2  0
M  END
>  <DRUGBANK_ID>  (1) 
DB02521

>  <SECONDARY_ACCESSION_NUMBERS>  (1) 
EXPT01448

>  <COMMON_NAME>  (1) 
Flaviolin

>  <CAS_NUMBER>  (1) 
479-05-0

>  <UNII>  (1) 
TH7ZC8J7OE

>  <SYNONYMS>  (1) 
2,5,7-Trihydroxy-1,4-naphthalenedione; 2,5,7-trihydroxynaphthoquinone

$$$$
