
     RDKit          2D

 31 34  0  0  0  0  0  0  0  0999 V2000
   -1.0131   -1.8986    0.0000 F   0  0  0  0  0  0  0  0  0  0  0  0
    1.8405    0.5374    0.0000 O   0  0  0  0  0  0  0  0  0  0  0  0
   -1.7246    0.1585    0.0000 O   0  0  0  0  0  0  0  0  0  0  0  0
    0.3248    1.2953    0.0000 O   0  0  0  0  0  0  0  0  0  0  0  0
    2.4669    1.3339    0.0000 O   0  0  0  0  0  0  0  0  0  0  0  0
   -3.8668   -2.7338    0.0000 O   0  0  0  0  0  0  0  0  0  0  0  0
    2.8382    2.7338    0.0000 O   0  0  0  0  0  0  0  0  0  0  0  0
    0.4099   -1.0943    0.0000 C   0  0  0  0  0  0  0  0  0  0  0  0
   -0.3016   -1.5197    0.0000 C   0  0  0  0  0  0  0  0  0  0  0  0
    0.4099   -0.2590    0.0000 C   0  0  0  0  0  0  0  0  0  0  0  0
   -1.0131   -1.0943    0.0000 C   0  0  0  0  0  0  0  0  0  0  0  0
    1.1213    0.1585    0.0000 C   0  0  0  0  0  0  0  0  0  0  0  0
   -1.7246   -1.5197    0.0000 C   0  0  0  0  0  0  0  0  0  0  0  0
   -1.0131   -0.2590    0.0000 C   0  0  0  0  0  0  0  0  0  0  0  0
   -0.3016    0.1585    0.0000 C   0  0  0  0  0  0  0  0  0  0  0  0
    1.8405   -1.0943    0.0000 C   0  0  0  0  0  0  0  0  0  0  0  0
    1.8405   -0.2590    0.0000 C   0  0  0  0  0  0  0  0  0  0  0  0
   -0.3016   -2.3162    0.0000 C   0  0  0  0  0  0  0  0  0  0  0  0
   -1.7246   -2.3162    0.0000 C   0  0  0  0  0  0  0  0  0  0  0  0
    1.1213    0.9551    0.0000 C   0  0  0  0  0  0  0  0  0  0  0  0
    0.4099    0.5374    0.0000 C   0  0  0  0  0  0  0  0  0  0  0  0
   -1.0131   -2.7338    0.0000 C   0  0  0  0  0  0  0  0  0  0  0  0
   -2.4437   -1.0943    0.0000 C   0  0  0  0  0  0  0  0  0  0  0  0
   -1.7246   -0.6766    0.0000 C   0  0  0  0  0  0  0  0  0  0  0  0
   -2.4437   -2.7338    0.0000 C   0  0  0  0  0  0  0  0  0  0  0  0
    2.6371   -0.0502    0.0000 C   0  0  0  0  0  0  0  0  0  0  0  0
    1.6704    1.5429    0.0000 C   0  0  0  0  0  0  0  0  0  0  0  0
   -3.1552   -1.5197    0.0000 C   0  0  0  0  0  0  0  0  0  0  0  0
   -3.1552   -2.3162    0.0000 C   0  0  0  0  0  0  0  0  0  0  0  0
    3.0547    1.9295    0.0000 C   0  0  0  0  0  0  0  0  0  0  0  0
    3.8668    1.7206    0.0000 C   0  0  0  0  0  0  0  0  0  0  0  0
  4 20  2  0
  5 27  1  0
  5 30  1  0
  6 29  2  0
  7 30  2  0
  8  9  1  0
  8 10  1  0
  8 16  1  1
  9 11  1  0
  9 18  1  6
 10 12  1  0
 10 15  1  0
 10 21  1  1
 11  1  1  6
 11 13  1  0
 11 14  1  0
 12  2  1  6
 12 17  1  0
 12 20  1  0
 13 19  1  0
 13 23  1  0
 13 24  1  1
 14  3  1  1
 14 15  1  0
 16 17  1  0
 17 26  2  0
 18 22  1  0
 19 22  1  0
 19 25  2  0
 20 27  1  0
 23 28  2  0
 25 29  1  0
 28 29  1  0
 30 31  1  0
M  END
>  <DRUGBANK_ID>  (1) 
DB14634

>  <SECONDARY_ACCESSION_NUMBERS>  (1) 
DBSALT001871

>  <COMMON_NAME>  (1) 
Fluprednidene acetate

>  <CAS_NUMBER>  (1) 
1255-35-2

>  <UNII>  (1) 
GE65DV564S

$$$$
