
     RDKit          2D

 31 34  0  0  0  0  0  0  0  0999 V2000
    6.1743   -2.7127    0.0000 F   0  0  0  0  0  0  0  0  0  0  0  0
    6.8063   -3.2430    0.0000 C   0  0  0  0  0  0  0  0  0  0  0  0
    6.2760   -3.8750    0.0000 F   0  0  0  0  0  0  0  0  0  0  0  0
    7.3366   -2.6111    0.0000 F   0  0  0  0  0  0  0  0  0  0  0  0
    7.4383   -3.7733    0.0000 C   0  0  0  0  0  0  0  0  0  0  0  0
    7.8508   -4.4878    0.0000 C   0  0  0  0  0  0  0  0  0  0  0  0
    7.0258   -4.4878    0.0000 C   0  0  0  0  0  0  0  0  0  0  0  0
    8.0703   -3.2430    0.0000 C   0  0  0  0  0  0  0  0  0  0  0  0
    7.9270   -2.4306    0.0000 C   0  0  0  0  0  0  0  0  0  0  0  0
    8.5590   -1.9003    0.0000 C   0  0  0  0  0  0  0  0  0  0  0  0
    9.3343   -2.1824    0.0000 C   0  0  0  0  0  0  0  0  0  0  0  0
    9.9662   -1.6521    0.0000 C   0  0  0  0  0  0  0  0  0  0  0  0
   10.7415   -1.9343    0.0000 C   0  0  0  0  0  0  0  0  0  0  0  0
   10.8848   -2.7468    0.0000 O   0  0  0  0  0  0  0  0  0  0  0  0
   11.3735   -1.4040    0.0000 N   0  0  0  0  0  0  0  0  0  0  0  0
   12.1487   -1.6862    0.0000 C   0  0  0  0  0  0  0  0  0  0  0  0
   12.8327   -1.2248    0.0000 N   0  0  0  0  0  0  0  0  0  0  0  0
   13.4828   -1.7328    0.0000 N   0  0  0  0  0  0  0  0  0  0  0  0
   14.2758   -1.5054    0.0000 C   0  0  0  0  0  0  0  0  0  0  0  0
   14.8693   -2.0785    0.0000 C   0  0  0  0  0  0  0  0  0  0  0  0
   15.6623   -1.8511    0.0000 N   0  0  0  0  0  0  0  0  0  0  0  0
   16.2558   -2.4242    0.0000 C   0  0  0  0  0  0  0  0  0  0  0  0
   16.0562   -3.2246    0.0000 C   0  0  0  0  0  0  0  0  0  0  0  0
   15.2632   -3.4520    0.0000 C   0  0  0  0  0  0  0  0  0  0  0  0
   14.6697   -2.8790    0.0000 C   0  0  0  0  0  0  0  0  0  0  0  0
   16.6497   -3.7977    0.0000 C   0  0  0  0  0  0  0  0  0  0  0  0
   17.2431   -4.3708    0.0000 N   0  0  0  0  0  0  0  0  0  0  0  0
   13.2006   -2.5080    0.0000 C   0  0  0  0  0  0  0  0  0  0  0  0
   12.3761   -2.4792    0.0000 C   0  0  0  0  0  0  0  0  0  0  0  0
    9.4775   -2.9949    0.0000 C   0  0  0  0  0  0  0  0  0  0  0  0
    8.8455   -3.5252    0.0000 C   0  0  0  0  0  0  0  0  0  0  0  0
  1  2  1  0
  2  3  1  0
  2  4  1  0
  2  5  1  0
  5  6  1  0
  5  7  1  0
  5  8  1  0
  6  7  1  0
  8  9  2  0
  8 31  1  0
  9 10  1  0
 10 11  2  0
 11 12  1  0
 11 30  1  0
 12 13  1  0
 13 14  2  0
 13 15  1  0
 15 16  1  0
 16 17  2  0
 16 29  1  0
 17 18  1  0
 18 19  1  0
 18 28  1  0
 19 20  1  0
 20 21  2  0
 20 25  1  0
 21 22  1  0
 22 23  2  0
 23 24  1  0
 23 26  1  0
 24 25  2  0
 26 27  3  0
 28 29  2  0
 30 31  2  0
M  END
>  <DRUGBANK_ID>  (1) 
DB16241

>  <COMMON_NAME>  (1) 
Apinocaltamide

>  <CAS_NUMBER>  (1) 
1838651-58-3

>  <UNII>  (1) 
3Z7U1U8Z9E

>  <SYNONYMS>  (1) 
Benzeneacetamide, N-[1-[(5-cyano-2-pyridinyl)methyl]-1H-pyrazol-3-yl]-4-[1-(trifluoromethyl)cyclopropyl]-; N-(1-((5-CYANOPYRIDIN-2-YL)METHYL)-1H-PYRAZOL-3-YL)-2-(4-(1-(TRIFLUOROMETHYL)CYCLOPROPYL)-PHENYL)ACETAMIDE; N-[1-(5-Cyano-pyridin-2-ylmethyl)-1H-pyrazol-3-yl]-2-[4-(1-trifluoromethyl-cyclopropyl-phenyl]-acetamide; N-[1-[(5-Cyano-2-pyridinyl)methyl]-1H-pyrazol-3-yl]-4-[1-(trifluoromethyl)cyclopropyl]benzeneacetamide; N-{1-[(5-cyanopyridin-2-yl)methyl]-1H-pyrazol-3-yl}-2- {4-[1-(trifluoromethyl)cyclopropyl]phenyl}acetamide

$$$$
