
     RDKit          2D

 25 27  0  0  0  0  0  0  0  0999 V2000
    3.6058   -0.2905    0.0000 C   0  0  0  0  0  0  0  0  0  0  0  0
    2.8874   -0.7245    0.0000 C   0  0  0  0  0  0  0  0  0  0  0  0
    2.1854   -0.2965    0.0000 C   0  0  0  0  0  0  0  0  0  0  0  0
    1.4582   -0.7458    0.0000 C   0  0  0  0  0  0  0  0  0  0  0  0
    0.7562   -0.3175    0.0000 C   0  0  0  0  0  0  0  0  0  0  0  0
    0.0332   -0.7659    0.0000 C   0  0  0  0  0  0  0  0  0  0  0  0
   -0.6697   -0.3338    0.0000 C   0  0  0  0  0  0  0  0  0  0  0  0
    4.3089   -0.7226    0.0000 O   0  0  0  0  0  0  0  0  0  0  0  0
    3.6247    0.5301    0.0000 O   0  0  0  0  0  0  0  0  0  0  0  0
   -1.3969   -0.7831    0.0000 N   0  0  0  0  0  0  0  0  0  0  0  0
   -2.3342    1.1040    0.0000 C   0  0  0  0  0  0  0  0  0  0  0  0
   -1.8691    0.4202    0.0000 C   0  0  0  0  0  0  0  0  0  0  0  0
   -2.0998   -0.3559    0.0000 C   0  0  0  0  0  0  0  0  0  0  0  0
   -2.8771   -0.6691    0.0000 C   0  0  0  0  0  0  0  0  0  0  0  0
   -3.5958   -0.2568    0.0000 C   0  0  0  0  0  0  0  0  0  0  0  0
   -3.7299    0.5683    0.0000 C   0  0  0  0  0  0  0  0  0  0  0  0
   -3.1454    1.1508    0.0000 C   0  0  0  0  0  0  0  0  0  0  0  0
   -1.0496    0.4860    0.0000 C   0  0  0  0  0  0  0  0  0  0  0  0
   -0.6908    1.2275    0.0000 C   0  0  0  0  0  0  0  0  0  0  0  0
   -1.1558    1.9073    0.0000 C   0  0  0  0  0  0  0  0  0  0  0  0
   -1.9795    1.8455    0.0000 C   0  0  0  0  0  0  0  0  0  0  0  0
   -4.3089   -0.6717    0.0000 C   0  0  0  0  0  0  0  0  0  0  0  0
   -4.3073   -1.4949    0.0000 C   0  0  0  0  0  0  0  0  0  0  0  0
   -3.5928   -1.9073    0.0000 C   0  0  0  0  0  0  0  0  0  0  0  0
   -2.8756   -1.4924    0.0000 C   0  0  0  0  0  0  0  0  0  0  0  0
  1  2  1  0
  1  8  2  0
  1  9  1  0
  2  3  1  0
  3  4  1  0
  4  5  1  0
  5  6  1  0
  6  7  1  0
  7 10  1  0
 10 13  1  0
 11 12  2  0
 11 17  1  0
 11 21  1  0
 12 13  1  0
 12 18  1  0
 13 14  1  0
 14 15  2  0
 14 25  1  0
 15 16  1  0
 15 22  1  0
 16 17  1  0
 18 19  2  0
 19 20  1  0
 20 21  2  0
 22 23  2  0
 23 24  1  0
 24 25  2  0
M  END
>  <DRUGBANK_ID>  (1) 
DB04836

>  <COMMON_NAME>  (1) 
Amineptine

>  <CAS_NUMBER>  (1) 
57574-09-1

>  <UNII>  (1) 
27T1I13L6G

>  <SYNONYMS>  (1) 
Amineptine; Amineptino; Amineptinum

$$$$
