
     RDKit          2D

 34 38  0  0  0  0  0  0  0  0999 V2000
    5.6358    1.6515    0.0000 C   0  0  0  0  0  0  0  0  0  0  0  0
    5.0058    1.1189    0.0000 N   0  0  0  0  0  0  0  0  0  0  0  0
    4.2295    1.3982    0.0000 C   0  0  0  0  0  0  0  0  0  0  0  0
    4.0833    2.2101    0.0000 O   0  0  0  0  0  0  0  0  0  0  0  0
    3.5995    0.8656    0.0000 C   0  0  0  0  0  0  0  0  0  0  0  0
    3.6601    0.0428    0.0000 N   0  0  0  0  0  0  0  0  0  0  0  0
    2.8963   -0.2691    0.0000 N   0  0  0  0  0  0  0  0  0  0  0  0
    2.6996   -1.0703    0.0000 C   0  0  0  0  0  0  0  0  0  0  0  0
    2.3637    0.3610    0.0000 C   0  0  0  0  0  0  0  0  0  0  0  0
    2.7983    1.0622    0.0000 C   0  0  0  0  0  0  0  0  0  0  0  0
    2.4083    1.7892    0.0000 C   0  0  0  0  0  0  0  0  0  0  0  0
    3.1920    2.0470    0.0000 C   0  0  0  0  0  0  0  0  0  0  0  0
    2.2905    2.6058    0.0000 C   0  0  0  0  0  0  0  0  0  0  0  0
    1.5837    1.8150    0.0000 C   0  0  0  0  0  0  0  0  0  0  0  0
    1.1491    1.1137    0.0000 C   0  0  0  0  0  0  0  0  0  0  0  0
    1.5391    0.3867    0.0000 C   0  0  0  0  0  0  0  0  0  0  0  0
    1.1045   -0.3145    0.0000 N   0  0  0  0  0  0  0  0  0  0  0  0
    0.2799   -0.2887    0.0000 C   0  0  0  0  0  0  0  0  0  0  0  0
   -0.1547   -0.9900    0.0000 N   0  0  0  0  0  0  0  0  0  0  0  0
   -0.9793   -0.9642    0.0000 C   0  0  0  0  0  0  0  0  0  0  0  0
   -1.4140   -1.6655    0.0000 C   0  0  0  0  0  0  0  0  0  0  0  0
   -2.2386   -1.6397    0.0000 C   0  0  0  0  0  0  0  0  0  0  0  0
   -2.6285   -0.9127    0.0000 C   0  0  0  0  0  0  0  0  0  0  0  0
   -2.1939   -0.2115    0.0000 C   0  0  0  0  0  0  0  0  0  0  0  0
   -1.3693   -0.2372    0.0000 C   0  0  0  0  0  0  0  0  0  0  0  0
   -3.4531   -0.8869    0.0000 N   0  0  0  0  0  0  0  0  0  0  0  0
   -3.8878   -1.5882    0.0000 C   0  0  0  0  0  0  0  0  0  0  0  0
   -4.7123   -1.5624    0.0000 C   0  0  0  0  0  0  0  0  0  0  0  0
   -5.1023   -0.8354    0.0000 N   0  0  0  0  0  0  0  0  0  0  0  0
   -5.9269   -0.8096    0.0000 C   0  0  0  0  0  0  0  0  0  0  0  0
   -4.6677   -0.1342    0.0000 C   0  0  0  0  0  0  0  0  0  0  0  0
   -3.8431   -0.1599    0.0000 C   0  0  0  0  0  0  0  0  0  0  0  0
   -0.1101    0.4383    0.0000 N   0  0  0  0  0  0  0  0  0  0  0  0
    0.3245    1.1395    0.0000 C   0  0  0  0  0  0  0  0  0  0  0  0
  1  2  1  0
  2  3  1  0
  3  4  2  0
  3  5  1  0
  5  6  2  0
  5 10  1  0
  6  7  1  0
  7  8  1  0
  7  9  1  0
  9 10  2  0
  9 16  1  0
 10 11  1  0
 11 12  1  0
 11 13  1  0
 11 14  1  0
 14 15  1  0
 15 16  2  0
 15 34  1  0
 16 17  1  0
 17 18  2  0
 18 19  1  0
 18 33  1  0
 19 20  1  0
 20 21  2  0
 20 25  1  0
 21 22  1  0
 22 23  2  0
 23 24  1  0
 23 26  1  0
 24 25  2  0
 26 27  1  0
 26 32  1  0
 27 28  1  0
 28 29  1  0
 29 30  1  0
 29 31  1  0
 31 32  1  0
 33 34  2  0
M  END
>  <DRUGBANK_ID>  (1) 
DB16232

>  <COMMON_NAME>  (1) 
Milciclib Maleate

>  <CAS_NUMBER>  (1) 
802539-81-7

>  <UNII>  (1) 
688000M8S8

>  <SYNONYMS>  (1) 
Milciclib

$$$$
