I48
     RDKit          2D

 27 29  0  0  0  0  0  0  0  0999 V2000
   -5.3608    1.5674    0.0000 N   0  0  0  0  0  0  0  0  0  0  0  0
   -4.6463    1.9799    0.0000 C   0  0  0  0  0  0  0  0  0  0  0  0
   -3.9318    1.5674    0.0000 C   0  0  0  0  0  0  0  0  0  0  0  0
   -3.9318    0.7424    0.0000 C   0  0  0  0  0  0  0  0  0  0  0  0
   -4.6463    0.3299    0.0000 C   0  0  0  0  0  0  0  0  0  0  0  0
   -5.3608    0.7424    0.0000 C   0  0  0  0  0  0  0  0  0  0  0  0
   -3.2174    0.3299    0.0000 N   0  0  0  0  0  0  0  0  0  0  0  0
   -2.5029    0.7424    0.0000 C   0  0  0  0  0  0  0  0  0  0  0  0
   -1.7884    0.3299    0.0000 C   0  0  0  0  0  0  0  0  0  0  0  0
   -1.0739    0.7424    0.0000 O   0  0  0  0  0  0  0  0  0  0  0  0
   -0.3595    0.3299    0.0000 C   0  0  0  0  0  0  0  0  0  0  0  0
    0.3550    0.7424    0.0000 C   0  0  0  0  0  0  0  0  0  0  0  0
    1.0695    0.3299    0.0000 C   0  0  0  0  0  0  0  0  0  0  0  0
    1.0695   -0.4951    0.0000 C   0  0  0  0  0  0  0  0  0  0  0  0
    0.3550   -0.9076    0.0000 C   0  0  0  0  0  0  0  0  0  0  0  0
   -0.3595   -0.4951    0.0000 C   0  0  0  0  0  0  0  0  0  0  0  0
    0.3550   -1.7326    0.0000 C   0  0  0  0  0  0  0  0  0  0  0  0
    1.7839    0.7424    0.0000 N   0  0  0  0  0  0  0  0  0  0  0  0
    2.4984    0.3299    0.0000 S   0  0  0  0  0  0  0  0  0  0  0  0
    2.0859   -0.3846    0.0000 O   0  0  0  0  0  0  0  0  0  0  0  0
    2.9109    1.0443    0.0000 O   0  0  0  0  0  0  0  0  0  0  0  0
    3.2129   -0.0826    0.0000 C   0  0  0  0  0  0  0  0  0  0  0  0
    3.9274    0.3299    0.0000 C   0  0  0  0  0  0  0  0  0  0  0  0
    4.6418   -0.0826    0.0000 C   0  0  0  0  0  0  0  0  0  0  0  0
    4.6418   -0.9076    0.0000 C   0  0  0  0  0  0  0  0  0  0  0  0
    3.9274   -1.3201    0.0000 C   0  0  0  0  0  0  0  0  0  0  0  0
    3.2129   -0.9076    0.0000 C   0  0  0  0  0  0  0  0  0  0  0  0
  1  2  2  0
  1  6  1  0
  2  3  1  0
  3  4  2  0
  4  5  1  0
  4  7  1  0
  5  6  2  0
  7  8  1  0
  8  9  1  0
  9 10  1  0
 10 11  1  0
 11 12  2  0
 11 16  1  0
 12 13  1  0
 13 14  2  0
 13 18  1  0
 14 15  1  0
 15 16  2  0
 15 17  1  0
 18 19  1  0
 19 20  2  0
 19 21  2  0
 19 22  1  0
 22 23  2  0
 22 27  1  0
 23 24  1  0
 24 25  2  0
 25 26  1  0
 26 27  2  0
M  CHG  1   1   1
M  END
>  <DRUGBANK_ID>  (1) 
DB07944

>  <COMMON_NAME>  (1) 
N-{3-METHYL-5-[2-(PYRIDIN-4-YLAMINO)-ETHOXY]-PHENYL}-BENZENESULFONAMIDE

$$$$
