
     RDKit          2D

  9  8  0  0  0  0  0  0  0  0999 V2000
    1.0752   -0.0542    0.0000 S   0  0  0  0  0  0  0  0  0  0  0  0
    0.3470   -0.4556    0.0000 C   0  0  0  0  0  0  0  0  0  0  0  0
    1.7904    0.3642    0.0000 O   0  0  0  0  0  0  0  0  0  0  0  0
    0.6538    0.6689    0.0000 O   0  0  0  0  0  0  0  0  0  0  0  0
    1.4857   -0.7655    0.0000 O   0  0  0  0  0  0  0  0  0  0  0  0
   -0.3691   -0.0443    0.0000 C   0  0  0  0  0  0  0  0  0  0  0  0
   -1.0762   -0.4676    0.0000 C   0  0  0  0  0  0  0  0  0  0  0  0
   -0.3691    0.7655    0.0000 S   0  0  0  0  0  0  0  0  0  0  0  0
   -1.7904   -0.1005    0.0000 S   0  0  0  0  0  0  0  0  0  0  0  0
  1  2  1  0
  1  3  1  0
  1  4  2  0
  1  5  2  0
  2  6  1  0
  6  7  1  0
  6  8  1  0
  7  9  1  0
M  END
>  <DRUGBANK_ID>  (1) 
DB15967

>  <COMMON_NAME>  (1) 
2,3-Dimercapto-1-propanesulfonic acid

>  <CAS_NUMBER>  (1) 
74-61-3

>  <UNII>  (1) 
086L82361J

>  <SYNONYMS>  (1) 
2,3-Dimercapto-1-propane sulfonate; 2,3-Dimercaptopropan-1-sulfonsaeure; 2,3-Dimercaptopropanesulfonic acid; DMPS

$$$$
