C26
     RDKit          2D

 13 12  0  0  0  0  0  0  0  0999 V2000
   -3.2901   -0.8627    0.0000 O   0  0  0  0  0  0  0  0  0  0  0  0
   -2.5756   -0.4501    0.0000 S   0  0  0  0  0  0  0  0  0  0  0  0
   -2.1631   -1.1646    0.0000 O   0  0  0  0  0  0  0  0  0  0  0  0
   -2.9881    0.2644    0.0000 O   0  0  0  0  0  0  0  0  0  0  0  0
   -1.8610   -0.0376    0.0000 O   0  0  0  0  0  0  0  0  0  0  0  0
   -1.1465   -0.4501    0.0000 C   0  0  0  0  0  0  0  0  0  0  0  0
   -0.4320   -0.0376    0.0000 C   0  0  0  0  0  0  0  0  0  0  0  0
   -0.4320    0.7875    0.0000 C   0  0  0  0  0  0  0  0  0  0  0  0
    0.2825    1.2000    0.0000 C   0  0  0  0  0  0  0  0  0  0  0  0
    0.2825   -0.4501    0.0000 C   0  0  0  0  0  0  0  0  0  0  0  0
    0.9971   -0.0376    0.0000 C   0  0  0  0  0  0  0  0  0  0  0  0
    1.7115   -0.4501    0.0000 C   0  0  0  0  0  0  0  0  0  0  0  0
    2.4261   -0.0376    0.0000 C   0  0  0  0  0  0  0  0  0  0  0  0
  1  2  2  0
  2  3  2  0
  2  4  1  0
  2  5  1  0
  5  6  1  0
  7  6  1  6
  7  8  1  0
  7 10  1  0
  8  9  1  0
 10 11  1  0
 11 12  1  0
 12 13  1  0
M  END
>  <DRUGBANK_ID>  (1) 
DB07518

>  <COMMON_NAME>  (1) 
(2R)-2-ETHYL-1-HEXANESULFONIC ACID

$$$$
