H23
     RDKit          2D

 21 20  0  0  0  0  0  0  0  0999 V2000
   -3.6870   -0.3703    0.0000 C   0  0  0  0  0  0  0  0  0  0  0  0
   -2.9915    0.0733    0.0000 C   0  0  0  0  0  0  0  0  0  0  0  0
   -2.2596   -0.3073    0.0000 C   0  0  0  0  0  0  0  0  0  0  0  0
   -1.5640    0.1363    0.0000 C   0  0  0  0  0  0  0  0  0  0  0  0
   -0.8320   -0.2443    0.0000 C   0  0  0  0  0  0  0  0  0  0  0  0
   -0.1364    0.1993    0.0000 C   0  0  0  0  0  0  0  0  0  0  0  0
    0.5955   -0.1813    0.0000 C   0  0  0  0  0  0  0  0  0  0  0  0
    1.2911    0.2623    0.0000 C   0  0  0  0  0  0  0  0  0  0  0  0
    2.0230   -0.1183    0.0000 C   0  0  0  0  0  0  0  0  0  0  0  0
    2.7187    0.3253    0.0000 C   0  0  0  0  0  0  0  0  0  0  0  0
    3.4505   -0.0553    0.0000 C   0  0  0  0  0  0  0  0  0  0  0  0
    4.1462    0.3883    0.0000 C   0  0  0  0  0  0  0  0  0  0  0  0
    3.7025    1.0839    0.0000 P   0  0  0  0  0  0  0  0  0  0  0  0
    3.0070    0.6403    0.0000 O   0  0  0  0  0  0  0  0  0  0  0  0
    3.2590    1.7794    0.0000 O   0  0  0  0  0  0  0  0  0  0  0  0
    4.3982    1.5275    0.0000 O   0  0  0  0  0  0  0  0  0  0  0  0
    4.5897   -0.3073    0.0000 P   0  0  0  0  0  0  0  0  0  0  0  0
    3.8942   -0.7509    0.0000 O   0  0  0  0  0  0  0  0  0  0  0  0
    5.2854    0.1363    0.0000 O   0  0  0  0  0  0  0  0  0  0  0  0
    5.0333   -1.0029    0.0000 O   0  0  0  0  0  0  0  0  0  0  0  0
    4.8417    0.8319    0.0000 O   0  0  0  0  0  0  0  0  0  0  0  0
  1  2  1  0
  2  3  1  0
  3  4  1  0
  4  5  1  0
  5  6  1  0
  6  7  1  0
  7  8  1  0
  8  9  1  0
  9 10  1  0
 10 11  1  0
 11 12  1  0
 12 13  1  0
 12 17  1  0
 12 21  1  0
 13 15  2  0
 13 14  1  0
 13 16  1  0
 17 18  2  0
 17 19  1  0
 17 20  1  0
M  END
>  <DRUGBANK_ID>  (1) 
DB07873

>  <COMMON_NAME>  (1) 
Lauryl alcohol diphosphonic acid

>  <CAS_NUMBER>  (1) 
16610-63-2

>  <UNII>  (1) 
S888WM4024

$$$$
