
     RDKit          2D

 11 11  0  0  0  0  0  0  0  0999 V2000
   -0.0068   -1.2360    0.0000 C   0  0  0  0  0  0  0  0  0  0  0  0
   -0.0068   -0.4017    0.0000 C   0  0  0  0  0  0  0  0  0  0  0  0
    0.8275   -1.2360    0.0000 C   0  0  0  0  0  0  0  0  0  0  0  0
   -0.8275   -1.2360    0.0000 C   0  0  0  0  0  0  0  0  0  0  0  0
   -0.0068   -2.0464    0.0000 O   0  0  0  0  0  0  0  0  0  0  0  0
   -0.7175    0.0171    0.0000 C   0  0  0  0  0  0  0  0  0  0  0  0
    0.7175    0.0000    0.0000 C   0  0  0  0  0  0  0  0  0  0  0  0
   -0.7175    0.8171    0.0000 C   0  0  0  0  0  0  0  0  0  0  0  0
    0.7175    0.8343    0.0000 C   0  0  0  0  0  0  0  0  0  0  0  0
   -0.0068    1.2360    0.0000 C   0  0  0  0  0  0  0  0  0  0  0  0
   -0.0068    2.0464    0.0000 C   0  0  0  0  0  0  0  0  0  0  0  0
  1  2  1  0
  1  3  1  0
  1  4  1  0
  1  5  1  0
  2  6  1  0
  2  7  1  0
  6  8  1  0
  7  9  1  0
  8 10  1  0
  9 10  2  0
 10 11  1  0
M  END
>  <DRUGBANK_ID>  (1) 
DB15956

>  <COMMON_NAME>  (1) 
Terpineol

>  <CAS_NUMBER>  (1) 
8000-41-7

>  <UNII>  (1) 
21334LVV8W

$$$$
