AD7
     RDKit          2D

 29 30  0  0  0  0  0  0  0  0999 V2000
    4.9880   -0.1407    0.0000 C   0  0  0  0  0  0  0  0  0  0  0  0
    4.2735   -0.5532    0.0000 C   0  0  0  0  0  0  0  0  0  0  0  0
    3.5590   -0.1407    0.0000 C   0  0  0  0  0  0  0  0  0  0  0  0
    2.8446   -0.5532    0.0000 C   0  0  0  0  0  0  0  0  0  0  0  0
    2.1301   -0.1407    0.0000 C   0  0  0  0  0  0  0  0  0  0  0  0
    1.4156   -0.5532    0.0000 C   0  0  0  0  0  0  0  0  0  0  0  0
    0.7012   -0.1407    0.0000 O   0  0  0  0  0  0  0  0  0  0  0  0
   -0.0133   -0.5532    0.0000 C   0  0  0  0  0  0  0  0  0  0  0  0
   -0.0133   -1.3782    0.0000 O   0  0  0  0  0  0  0  0  0  0  0  0
   -0.7278   -1.7907    0.0000 C   0  0  0  0  0  0  0  0  0  0  0  0
   -0.7278   -2.6157    0.0000 C   0  0  0  0  0  0  0  0  0  0  0  0
   -1.4423   -3.0282    0.0000 O   0  0  0  0  0  0  0  0  0  0  0  0
   -1.4423   -1.3782    0.0000 C   0  0  0  0  0  0  0  0  0  0  0  0
   -2.1567   -1.7907    0.0000 O   0  0  0  0  0  0  0  0  0  0  0  0
   -1.4423   -0.5532    0.0000 C   0  0  0  0  0  0  0  0  0  0  0  0
   -2.1567   -0.1407    0.0000 N   0  0  0  0  0  0  0  0  0  0  0  0
   -0.7278   -0.1407    0.0000 C   0  0  0  0  0  0  0  0  0  0  0  0
   -0.7278    0.6843    0.0000 O   0  0  0  0  0  0  0  0  0  0  0  0
   -1.4423    1.0968    0.0000 C   0  0  0  0  0  0  0  0  0  0  0  0
   -2.1567    0.6843    0.0000 C   0  0  0  0  0  0  0  0  0  0  0  0
   -1.4423    1.9218    0.0000 O   0  0  0  0  0  0  0  0  0  0  0  0
   -2.1567    2.3343    0.0000 C   0  0  0  0  0  0  0  0  0  0  0  0
   -2.1567    3.1593    0.0000 C   0  0  0  0  0  0  0  0  0  0  0  0
   -2.8712    1.9218    0.0000 C   0  0  0  0  0  0  0  0  0  0  0  0
   -3.5857    2.3343    0.0000 O   0  0  0  0  0  0  0  0  0  0  0  0
   -2.8712    1.0968    0.0000 C   0  0  0  0  0  0  0  0  0  0  0  0
   -3.5857    0.6843    0.0000 O   0  0  0  0  0  0  0  0  0  0  0  0
    5.7024   -0.5532    0.0000 C   0  0  0  0  0  0  0  0  0  0  0  0
    6.4169   -0.1407    0.0000 C   0  0  0  0  0  0  0  0  0  0  0  0
  1  2  1  0
  1 28  1  0
  2  3  1  0
  3  4  1  0
  4  5  1  0
  5  6  1  0
  6  7  1  0
  8  7  1  6
  8  9  1  0
  8 17  1  0
  9 10  1  0
 10 11  1  6
 10 13  1  0
 11 12  1  0
 13 14  1  6
 13 15  1  0
 15 16  1  6
 15 17  1  0
 17 18  1  1
 19 18  1  1
 19 20  1  0
 19 21  1  0
 20 26  1  0
 21 22  1  0
 22 23  1  6
 22 24  1  0
 24 25  1  6
 24 26  1  0
 26 27  1  6
 28 29  1  0
M  END
>  <DRUGBANK_ID>  (1) 
DB07341

>  <COMMON_NAME>  (1) 
octyl 3-amino-3-deoxy-2-O-(2,6-dideoxy-alpha-L-lyxo-hexopyranosyl)-beta-D-galactopyranoside

$$$$
