
     RDKit          2D

 25 26  0  0  0  0  0  0  0  0999 V2000
    2.3808   -2.9620    0.0000 F   0  0  0  0  0  0  0  0  0  0  0  0
    3.2001   -1.5335    0.0000 F   0  0  0  0  0  0  0  0  0  0  0  0
    3.5013   -2.6609    0.0000 F   0  0  0  0  0  0  0  0  0  0  0  0
   -2.1848    2.1427    0.0000 F   0  0  0  0  0  0  0  0  0  0  0  0
   -0.5392    2.1427    0.0000 F   0  0  0  0  0  0  0  0  0  0  0  0
   -1.3654    2.9620    0.0000 F   0  0  0  0  0  0  0  0  0  0  0  0
   -0.6512   -1.5615    0.0000 O   0  0  0  0  0  0  0  0  0  0  0  0
    1.1834   -0.8472    0.0000 N   0  0  0  0  0  0  0  0  0  0  0  0
    1.9887   -1.0223    0.0000 N   0  0  0  0  0  0  0  0  0  0  0  0
    0.0629   -0.3291    0.0000 N   0  0  0  0  0  0  0  0  0  0  0  0
   -3.5013    1.7295    0.0000 N   0  0  0  0  0  0  0  0  0  0  0  0
    0.7772   -1.5615    0.0000 C   0  0  0  0  0  0  0  0  0  0  0  0
    1.3234   -2.1707    0.0000 C   0  0  0  0  0  0  0  0  0  0  0  0
    0.1609   -2.1147    0.0000 C   0  0  0  0  0  0  0  0  0  0  0  0
    2.0727   -1.8347    0.0000 C   0  0  0  0  0  0  0  0  0  0  0  0
    0.0629   -1.1484    0.0000 C   0  0  0  0  0  0  0  0  0  0  0  0
    2.7870   -2.2478    0.0000 C   0  0  0  0  0  0  0  0  0  0  0  0
   -0.6512    0.0840    0.0000 C   0  0  0  0  0  0  0  0  0  0  0  0
   -0.6512    0.9103    0.0000 C   0  0  0  0  0  0  0  0  0  0  0  0
   -1.3654   -0.3291    0.0000 C   0  0  0  0  0  0  0  0  0  0  0  0
   -1.3654    1.3164    0.0000 C   0  0  0  0  0  0  0  0  0  0  0  0
   -2.0727    0.9103    0.0000 C   0  0  0  0  0  0  0  0  0  0  0  0
   -2.0727    0.0840    0.0000 C   0  0  0  0  0  0  0  0  0  0  0  0
   -1.3654    2.1427    0.0000 C   0  0  0  0  0  0  0  0  0  0  0  0
   -2.7870    1.3164    0.0000 C   0  0  0  0  0  0  0  0  0  0  0  0
  1 17  1  0
  2 17  1  0
  3 17  1  0
  4 24  1  0
  5 24  1  0
  6 24  1  0
  7 16  2  0
  8  9  1  0
  8 12  1  0
  9 15  2  0
 10 16  1  0
 10 18  1  0
 11 25  3  0
 12 13  1  0
 12 14  1  6
 12 16  1  0
 13 15  1  0
 15 17  1  0
 18 19  2  0
 18 20  1  0
 19 21  1  0
 20 23  2  0
 21 22  2  0
 21 24  1  0
 22 23  1  0
 22 25  1  0
M  END
>  <DRUGBANK_ID>  (1) 
DB13936

>  <COMMON_NAME>  (1) 
JNJ-28330835

>  <CAS_NUMBER>  (1) 
888072-47-7

>  <UNII>  (1) 
544SF265DA

$$$$
