
     RDKit          2D

 25 28  0  0  0  0  0  0  0  0999 V2000
   -0.0326   -0.0390    0.0000 Fe  0  0  0  0  0 15  0  0  0  0  0  0
   -0.0006   -1.1447    0.0000 N   0  0  0  0  0  0  0  0  0  0  0  0
   -0.0282    1.1122    0.0000 N   0  0  0  0  0  0  0  0  0  0  0  0
   -1.2395   -0.0162    0.0000 N   0  0  0  0  0  0  0  0  0  0  0  0
    1.2367   -0.0162    0.0000 N   0  0  0  0  0  0  0  0  0  0  0  0
   -0.6616   -1.6677    0.0000 C   0  0  0  0  0  0  0  0  0  0  0  0
    0.6600   -1.6400    0.0000 C   0  0  0  0  0  0  0  0  0  0  0  0
   -0.6890    1.6350    0.0000 C   0  0  0  0  0  0  0  0  0  0  0  0
    0.6600    1.6626    0.0000 C   0  0  0  0  0  0  0  0  0  0  0  0
   -1.7072   -0.6495    0.0000 C   0  0  0  0  0  0  0  0  0  0  0  0
    1.7319   -0.6218    0.0000 C   0  0  0  0  0  0  0  0  0  0  0  0
   -1.7072    0.6168    0.0000 C   0  0  0  0  0  0  0  0  0  0  0  0
    1.7043    0.6445    0.0000 C   0  0  0  0  0  0  0  0  0  0  0  0
   -1.4589   -1.4192    0.0000 C   0  0  0  0  0  0  0  0  0  0  0  0
    1.4850   -1.4192    0.0000 C   0  0  0  0  0  0  0  0  0  0  0  0
   -1.4865    1.4142    0.0000 C   0  0  0  0  0  0  0  0  0  0  0  0
    1.4573    1.4142    0.0000 C   0  0  0  0  0  0  0  0  0  0  0  0
   -0.4132   -2.4374    0.0000 C   0  0  0  0  0  0  0  0  0  0  0  0
    0.4118   -2.4374    0.0000 C   0  0  0  0  0  0  0  0  0  0  0  0
   -0.4407    2.4324    0.0000 C   0  0  0  0  0  0  0  0  0  0  0  0
    0.3842    2.4324    0.0000 C   0  0  0  0  0  0  0  0  0  0  0  0
   -2.5045   -0.4286    0.0000 C   0  0  0  0  0  0  0  0  0  0  0  0
    2.5031   -0.4012    0.0000 C   0  0  0  0  0  0  0  0  0  0  0  0
   -2.5045    0.3961    0.0000 C   0  0  0  0  0  0  0  0  0  0  0  0
    2.5031    0.4236    0.0000 C   0  0  0  0  0  0  0  0  0  0  0  0
  2  6  1  0
  2  7  1  0
  3  8  1  0
  3  9  1  0
  4 10  2  0
  4 12  1  0
  5 11  2  0
  5 13  1  0
  6 14  2  0
  6 18  1  0
  7 15  2  0
  7 19  1  0
  8 16  1  0
  8 20  2  0
  9 17  1  0
  9 21  2  0
 10 14  1  0
 10 22  1  0
 11 15  1  0
 11 23  1  0
 12 16  2  0
 12 24  1  0
 13 17  2  0
 13 25  1  0
 18 19  2  0
 20 21  1  0
 22 24  2  0
 23 25  2  0
M  CHG  3   1   5   2  -1   3  -1
M  END
>  <DRUGBANK_ID>  (1) 
DB01710

>  <SECONDARY_ACCESSION_NUMBERS>  (1) 
EXPT02632

>  <COMMON_NAME>  (1) 
Porphyrin Fe(III)

$$$$
