
     RDKit          2D

  6  5  0  0  0  0  0  0  0  0999 V2000
   -4.5302    5.3625    0.0000 C   0  0  0  0  0  0  0  0  0  0  0  0
   -3.8157    4.9500    0.0000 C   0  0  0  0  0  0  0  0  0  0  0  0
   -3.1012    5.3625    0.0000 C   0  0  0  0  0  0  0  0  0  0  0  0
   -2.3868    4.9500    0.0000 C   0  0  0  0  0  0  0  0  0  0  0  0
   -3.8157    4.1250    0.0000 O   0  0  0  0  0  0  0  0  0  0  0  0
   -3.1012    6.1875    0.0000 O   0  0  0  0  0  0  0  0  0  0  0  0
  1  2  1  0
  2  3  1  0
  2  5  2  0
  3  4  1  6
  3  6  1  0
M  END
>  <DRUGBANK_ID>  (1) 
DB04364

>  <SECONDARY_ACCESSION_NUMBERS>  (1) 
EXPT01701

>  <COMMON_NAME>  (1) 
(R)-acetoin

>  <SYNONYMS>  (1) 
(R)-2-acetoin; (R)-3-hydroxy-2-butanone; (R)-3-hydroxybutan-2-one; (R)-dimethylketol

$$$$
