LY2
     RDKit          2D

 23 26  0  0  0  0  0  0  0  0999 V2000
   -1.2242   -0.2431    0.0000 N   0  0  0  0  0  0  0  0  0  0  0  0
   -1.9386   -0.6556    0.0000 C   0  0  0  0  0  0  0  0  0  0  0  0
   -1.2242    0.5819    0.0000 C   0  0  0  0  0  0  0  0  0  0  0  0
   -0.5097   -0.6556    0.0000 C   0  0  0  0  0  0  0  0  0  0  0  0
   -2.6531   -0.2431    0.0000 C   0  0  0  0  0  0  0  0  0  0  0  0
   -2.6531    0.5819    0.0000 O   0  0  0  0  0  0  0  0  0  0  0  0
   -1.9386    0.9944    0.0000 C   0  0  0  0  0  0  0  0  0  0  0  0
    2.3482   -1.4806    0.0000 C   0  0  0  0  0  0  0  0  0  0  0  0
    1.6337   -1.8931    0.0000 C   0  0  0  0  0  0  0  0  0  0  0  0
    2.3482   -0.6556    0.0000 C   0  0  0  0  0  0  0  0  0  0  0  0
    0.9192   -1.4806    0.0000 C   0  0  0  0  0  0  0  0  0  0  0  0
    0.9192   -0.6556    0.0000 C   0  0  0  0  0  0  0  0  0  0  0  0
    0.2048   -1.8931    0.0000 C   0  0  0  0  0  0  0  0  0  0  0  0
    1.6337   -0.2431    0.0000 C   0  0  0  0  0  0  0  0  0  0  0  0
    0.2048   -0.2431    0.0000 O   0  0  0  0  0  0  0  0  0  0  0  0
    1.6337    0.5819    0.0000 C   0  0  0  0  0  0  0  0  0  0  0  0
    0.9192    0.9944    0.0000 C   0  0  0  0  0  0  0  0  0  0  0  0
    0.9192    1.8194    0.0000 C   0  0  0  0  0  0  0  0  0  0  0  0
    2.3482    0.9944    0.0000 C   0  0  0  0  0  0  0  0  0  0  0  0
    2.3482    1.8194    0.0000 C   0  0  0  0  0  0  0  0  0  0  0  0
    1.6337    2.2319    0.0000 C   0  0  0  0  0  0  0  0  0  0  0  0
   -0.5097   -1.4806    0.0000 C   0  0  0  0  0  0  0  0  0  0  0  0
    0.2048   -2.7181    0.0000 O   0  0  0  0  0  0  0  0  0  0  0  0
  1  2  1  0
  1  3  1  0
  1  4  1  0
  2  5  1  0
  3  7  1  0
  4 15  1  0
  4 22  2  0
  5  6  1  0
  6  7  1  0
  8  9  2  0
  8 10  1  0
  9 11  1  0
 10 14  2  0
 11 12  2  0
 11 13  1  0
 12 14  1  0
 12 15  1  0
 13 22  1  0
 13 23  2  0
 14 16  1  0
 16 17  2  0
 16 19  1  0
 17 18  1  0
 18 21  2  0
 19 20  2  0
 20 21  1  0
M  END
>  <DRUGBANK_ID>  (1) 
DB02656

>  <SECONDARY_ACCESSION_NUMBERS>  (1) 
EXPT02073

>  <COMMON_NAME>  (1) 
LY-294002

>  <CAS_NUMBER>  (1) 
154447-36-6

>  <UNII>  (1) 
31M2U1DVID

>  <SYNONYMS>  (1) 
2-(4-morpholinyl)-8-phenyl-4H-1-benzopyran-4-one

$$$$
