
     RDKit          2D

 36 38  0  0  1  0  0  0  0  0999 V2000
   17.2520   -9.2686    0.0000 C   0  0  0  0  0  0  0  0  0  0  0  0
   18.2116   -9.0395    0.0000 N   0  0  0  0  0  0  0  0  0  0  0  0
   16.6110   -8.7937    0.0000 O   0  0  0  0  0  0  0  0  0  0  0  0
   17.0094  -10.0763    0.0000 C   0  0  0  0  0  0  0  0  0  0  0  0
   18.9312   -9.4423    0.0000 C   0  0  0  0  0  0  0  0  0  0  0  0
   18.2049   -8.2142    0.0000 C   0  0  0  0  0  0  0  0  0  0  0  0
   15.9349   -9.2858    0.0000 C   0  0  0  0  0  0  0  0  0  0  0  0
   16.1844  -10.0763    0.0000 C   0  0  0  0  0  0  0  0  0  0  0  0
   17.4946  -10.7414    0.0000 O   0  0  0  0  0  0  0  0  0  0  0  0
   19.6513   -9.0190    0.0000 N   0  0  0  0  0  0  0  0  0  0  0  0
   18.9448  -10.2663    0.0000 O   0  0  0  0  0  0  0  0  0  0  0  0
   18.9133   -7.7855    0.0000 C   0  0  0  0  0  0  0  0  0  0  0  0
   15.1478   -9.0328    0.0000 C   0  0  0  0  0  0  0  0  0  0  0  0
   15.6923  -10.7380    0.0000 O   0  0  0  0  0  0  0  0  0  0  0  0
   19.6404   -8.1909    0.0000 C   0  0  0  0  0  0  0  0  0  0  0  0
   14.5620   -9.6084    0.0000 O   0  0  0  0  0  0  0  0  0  0  0  0
   20.3546   -7.7724    0.0000 O   0  0  0  0  0  0  0  0  0  0  0  0
   13.7370   -9.6084    0.0000 P   0  0  0  0  0  0  0  0  0  0  0  0
   12.9120   -9.6084    0.0000 O   0  0  0  0  0  0  0  0  0  0  0  0
   13.7335  -10.4333    0.0000 O   0  0  0  0  0  0  0  0  0  0  0  0
   13.7335   -8.7833    0.0000 O   0  0  0  0  0  0  0  0  0  0  0  0
   12.0904   -9.6049    0.0000 P   0  0  0  0  0  0  0  0  0  0  0  0
   11.2620   -9.6049    0.0000 O   0  0  0  0  0  0  0  0  0  0  0  0
   12.0835  -10.4264    0.0000 O   0  0  0  0  0  0  0  0  0  0  0  0
   12.0835   -8.7799    0.0000 O   0  0  0  0  0  0  0  0  0  0  0  0
   10.5478  -10.0137    0.0000 C   0  0  0  0  0  0  0  0  0  0  0  0
    9.8373   -9.6049    0.0000 O   0  0  0  0  0  0  0  0  0  0  0  0
   10.5478  -10.8385    0.0000 C   0  0  0  0  0  0  0  0  0  0  0  0
    9.1233  -10.0137    0.0000 C   0  0  0  0  0  0  0  0  0  0  0  0
    9.8373  -11.2515    0.0000 C   0  0  0  0  0  0  0  0  0  0  0  0
   11.2620  -11.2515    0.0000 O   0  0  0  0  0  0  0  0  0  0  0  0
    9.1233  -10.8385    0.0000 C   0  0  0  0  0  0  0  0  0  0  0  0
    8.4092   -9.6049    0.0000 C   0  0  0  0  0  0  0  0  0  0  0  0
    9.8373  -12.0765    0.0000 O   0  0  0  0  0  0  0  0  0  0  0  0
    8.4092  -11.2515    0.0000 O   0  0  0  0  0  0  0  0  0  0  0  0
    7.6995  -10.0137    0.0000 O   0  0  0  0  0  0  0  0  0  0  0  0
  1  2  1  1
  1  3  1  0
  1  4  1  0
  2  5  1  0
  2  6  1  0
  3  7  1  0
  4  8  1  0
  4  9  1  6
  5 10  1  0
  5 11  2  0
  6 12  2  0
  7 13  1  1
  7  8  1  0
  8 14  1  6
 10 15  1  0
 12 15  1  0
 13 16  1  0
 15 17  2  0
 16 18  1  0
 18 19  1  0
 18 20  1  0
 18 21  2  0
 19 22  1  0
 22 23  1  0
 22 24  1  0
 22 25  2  0
 26 23  1  6
 26 27  1  0
 26 28  1  0
 27 29  1  0
 28 30  1  0
 28 31  1  6
 29 32  1  0
 29 33  1  1
 30 34  1  1
 30 32  1  0
 32 35  1  6
 33 36  1  0
M  END
>  <DRUGBANK_ID>  (1) 
DB01861

>  <SECONDARY_ACCESSION_NUMBERS>  (1) 
EXPT01669; EXPT03198; DB04355

>  <COMMON_NAME>  (1) 
Uridine diphosphate glucose

>  <CAS_NUMBER>  (1) 
133-89-1

>  <UNII>  (1) 
V50K1D7P4Y

>  <SYNONYMS>  (1) 
5'-Diphosphoglucose; Co-galactoisomerase; Co-waldenase; Cogalactoisomerase; UDP-Glucose; UDPG; Uridine 5'-pyrophosphate glucose ester; Uridine-5'-Diphosphoglucose

$$$$
