
     RDKit          2D

 13 13  0  0  0  0  0  0  0  0999 V2000
    1.3167    0.9369    0.0000 O   0  0  0  0  0  0  0  0  0  0  0  0
    0.6492    2.2470    0.0000 O   0  0  0  0  0  0  0  0  0  0  0  0
    1.9843    2.2470    0.0000 O   0  0  0  0  0  0  0  0  0  0  0  0
   -0.1122   -1.5382    0.0000 N   0  0  0  0  0  0  0  0  0  0  0  0
   -0.8268   -2.7758    0.0000 N   0  0  0  0  0  0  0  0  0  0  0  0
   -1.5413   -1.5382    0.0000 N   0  0  0  0  0  0  0  0  0  0  0  0
    0.6022   -0.3006    0.0000 C   0  0  0  0  0  0  0  0  0  0  0  0
   -0.1122   -0.7132    0.0000 C   0  0  0  0  0  0  0  0  0  0  0  0
    0.6022    0.5243    0.0000 C   0  0  0  0  0  0  0  0  0  0  0  0
    0.9042    3.0316    0.0000 C   0  0  0  0  0  0  0  0  0  0  0  0
    1.7292    3.0316    0.0000 C   0  0  0  0  0  0  0  0  0  0  0  0
   -0.8268   -1.9507    0.0000 C   0  0  0  0  0  0  0  0  0  0  0  0
    1.3167    1.7620    0.0000 B   0  0  0  0  0  0  0  0  0  0  0  0
  1  9  1  0
  1 13  1  0
  2 10  1  0
  2 13  1  0
  3 11  1  0
  3 13  1  0
  4  8  1  0
  4 12  2  3
  5 12  1  0
  6 12  1  0
  7  8  1  0
  7  9  1  0
 10 11  1  0
M  CHG  1   4   1
M  END
>  <DRUGBANK_ID>  (1) 
DB03129

>  <SECONDARY_ACCESSION_NUMBERS>  (1) 
EXPT02858

>  <COMMON_NAME>  (1) 
Diamino-N-[3-(1,3,2-dioxaborolan-2-yloxy)propyl]methaniminium

>  <SYNONYMS>  (1) 
[3-(1,3,2-dioxaborolan-2-yloxy)propyl]guanidine

$$$$
