DUX
     RDKit          2D

 35 39  0  0  0  0  0  0  0  0999 V2000
    1.7406    1.6153    0.0000 F   0  0  0  0  0  0  0  0  0  0  0  0
    1.7406    0.7903    0.0000 C   0  0  0  0  0  0  0  0  0  0  0  0
    2.4080    0.3054    0.0000 C   0  0  0  0  0  0  0  0  0  0  0  0
    2.1531   -0.4793    0.0000 C   0  0  0  0  0  0  0  0  0  0  0  0
    2.6380   -1.1467    0.0000 N   0  0  0  0  0  0  0  0  0  0  0  0
    3.4585   -1.0605    0.0000 C   0  0  0  0  0  0  0  0  0  0  0  0
    3.9434   -1.7279    0.0000 N   0  0  0  0  0  0  0  0  0  0  0  0
    3.6079   -2.4816    0.0000 C   0  0  0  0  0  0  0  0  0  0  0  0
    2.7874   -2.5678    0.0000 C   0  0  0  0  0  0  0  0  0  0  0  0
    2.3025   -1.9004    0.0000 C   0  0  0  0  0  0  0  0  0  0  0  0
    4.0928   -3.1490    0.0000 O   0  0  0  0  0  0  0  0  0  0  0  0
    3.7941   -0.3068    0.0000 O   0  0  0  0  0  0  0  0  0  0  0  0
    1.3281   -0.4793    0.0000 O   0  0  0  0  0  0  0  0  0  0  0  0
    1.0732    0.3054    0.0000 C   0  0  0  0  0  0  0  0  0  0  0  0
    0.2885    0.5603    0.0000 C   0  0  0  0  0  0  0  0  0  0  0  0
   -0.3245    0.0083    0.0000 O   0  0  0  0  0  0  0  0  0  0  0  0
   -1.1092    0.2632    0.0000 C   0  0  0  0  0  0  0  0  0  0  0  0
   -1.8938    0.5181    0.0000 C   0  0  0  0  0  0  0  0  0  0  0  0
   -2.5069   -0.0339    0.0000 C   0  0  0  0  0  0  0  0  0  0  0  0
   -3.2915    0.2211    0.0000 C   0  0  0  0  0  0  0  0  0  0  0  0
   -3.4630    1.0280    0.0000 C   0  0  0  0  0  0  0  0  0  0  0  0
   -2.8499    1.5801    0.0000 C   0  0  0  0  0  0  0  0  0  0  0  0
   -2.0653    1.3251    0.0000 C   0  0  0  0  0  0  0  0  0  0  0  0
   -0.8542    1.0478    0.0000 C   0  0  0  0  0  0  0  0  0  0  0  0
   -1.4063    1.6609    0.0000 C   0  0  0  0  0  0  0  0  0  0  0  0
   -1.1513    2.4455    0.0000 C   0  0  0  0  0  0  0  0  0  0  0  0
   -0.3444    2.6171    0.0000 C   0  0  0  0  0  0  0  0  0  0  0  0
    0.2077    2.0040    0.0000 C   0  0  0  0  0  0  0  0  0  0  0  0
   -0.0473    1.2194    0.0000 C   0  0  0  0  0  0  0  0  0  0  0  0
   -1.3641   -0.5214    0.0000 C   0  0  0  0  0  0  0  0  0  0  0  0
   -0.8121   -1.1345    0.0000 C   0  0  0  0  0  0  0  0  0  0  0  0
   -1.0670   -1.9191    0.0000 C   0  0  0  0  0  0  0  0  0  0  0  0
   -1.8740   -2.0907    0.0000 C   0  0  0  0  0  0  0  0  0  0  0  0
   -2.4260   -1.4776    0.0000 C   0  0  0  0  0  0  0  0  0  0  0  0
   -2.1711   -0.6929    0.0000 C   0  0  0  0  0  0  0  0  0  0  0  0
  2  1  1  1
  2  3  1  0
  2 14  1  0
  3  4  1  0
  4  5  1  6
  4 13  1  0
  5  6  1  0
  5 10  1  0
  6  7  1  0
  6 12  2  0
  7  8  1  0
  8  9  1  0
  8 11  2  0
  9 10  2  0
 13 14  1  0
 14 15  1  6
 15 16  1  0
 16 17  1  0
 17 18  1  0
 17 24  1  0
 17 30  1  0
 18 19  2  0
 18 23  1  0
 19 20  1  0
 20 21  2  0
 21 22  1  0
 22 23  2  0
 24 25  2  0
 24 29  1  0
 25 26  1  0
 26 27  2  0
 27 28  1  0
 28 29  2  0
 30 31  2  0
 30 35  1  0
 31 32  1  0
 32 33  2  0
 33 34  1  0
 34 35  2  0
M  END
>  <DRUGBANK_ID>  (1) 
DB04685

>  <COMMON_NAME>  (1) 
1-{(2S,5S)-4-FLUORO-5-[(TRITYLOXY)METHYL]TETRAHYDROFURAN-2-YL}PYRIMIDINE-2,4(1H,3H)-DIONE

$$$$
