
     RDKit          2D

 43 45  0  0  0  0  0  0  0  0999 V2000
   -6.3223   -3.1612    0.0000 C   0  0  0  0  0  0  0  0  0  0  0  0
   -7.7423   -2.7807    0.0000 N   0  0  0  0  0  0  0  0  0  0  0  0
   -6.9354   -2.6092    0.0000 C   0  0  0  0  0  0  0  0  0  0  0  0
   -6.8491   -1.7887    0.0000 N   0  0  0  0  0  0  0  0  0  0  0  0
   -7.6028   -1.4532    0.0000 C   0  0  0  0  0  0  0  0  0  0  0  0
   -8.1548   -2.0663    0.0000 C   0  0  0  0  0  0  0  0  0  0  0  0
   -6.1347   -1.3762    0.0000 C   0  0  0  0  0  0  0  0  0  0  0  0
   -5.4202   -1.7887    0.0000 C   0  0  0  0  0  0  0  0  0  0  0  0
   -4.7057   -1.3762    0.0000 C   0  0  0  0  0  0  0  0  0  0  0  0
   -3.9912   -1.7887    0.0000 C   0  0  0  0  0  0  0  0  0  0  0  0
   -3.2768   -1.3762    0.0000 C   0  0  0  0  0  0  0  0  0  0  0  0
   -2.5623   -1.7887    0.0000 C   0  0  0  0  0  0  0  0  0  0  0  0
   -1.8478   -1.3762    0.0000 C   0  0  0  0  0  0  0  0  0  0  0  0
   -1.8478   -0.5512    0.0000 C   0  0  0  0  0  0  0  0  0  0  0  0
   -2.5623   -0.1387    0.0000 C   0  0  0  0  0  0  0  0  0  0  0  0
   -3.2768   -0.5512    0.0000 C   0  0  0  0  0  0  0  0  0  0  0  0
   -1.1334   -0.1387    0.0000 C   0  0  0  0  0  0  0  0  0  0  0  0
   -0.4189   -0.5512    0.0000 C   0  0  0  0  0  0  0  0  0  0  0  0
   -0.4189   -1.3762    0.0000 O   0  0  0  0  0  0  0  0  0  0  0  0
    0.2955   -0.1387    0.0000 N   0  0  0  0  0  0  0  0  0  0  0  0
    1.0099   -0.5512    0.0000 C   0  0  0  0  0  0  0  0  0  0  0  0
    1.7244   -0.1387    0.0000 C   0  0  0  0  0  0  0  0  0  0  0  0
    1.7244    0.6862    0.0000 O   0  0  0  0  0  0  0  0  0  0  0  0
    1.0099   -1.3762    0.0000 C   0  0  0  0  0  0  0  0  0  0  0  0
    1.7244   -1.7887    0.0000 O   0  0  0  0  0  0  0  0  0  0  0  0
    2.4389   -0.5512    0.0000 N   0  0  0  0  0  0  0  0  0  0  0  0
    3.1534   -0.1387    0.0000 C   0  0  0  0  0  0  0  0  0  0  0  0
    3.8679   -0.5512    0.0000 C   0  0  0  0  0  0  0  0  0  0  0  0
    3.8679   -1.3762    0.0000 O   0  0  0  0  0  0  0  0  0  0  0  0
    3.1534    0.6862    0.0000 C   0  0  0  0  0  0  0  0  0  0  0  0
    2.4389    1.0987    0.0000 C   0  0  0  0  0  0  0  0  0  0  0  0
    2.4389    1.9237    0.0000 C   0  0  0  0  0  0  0  0  0  0  0  0
    1.7244    2.3362    0.0000 C   0  0  0  0  0  0  0  0  0  0  0  0
    1.7244    3.1612    0.0000 N   0  0  0  0  0  0  0  0  0  0  0  0
    4.5824   -0.1387    0.0000 N   0  0  0  0  0  0  0  0  0  0  0  0
    5.2969   -0.5512    0.0000 C   0  0  0  0  0  0  0  0  0  0  0  0
    6.0112   -0.1387    0.0000 C   0  0  0  0  0  0  0  0  0  0  0  0
    6.7258   -0.5512    0.0000 C   0  0  0  0  0  0  0  0  0  0  0  0
    7.4403   -0.1387    0.0000 C   0  0  0  0  0  0  0  0  0  0  0  0
    8.1548   -0.5512    0.0000 C   0  0  0  0  0  0  0  0  0  0  0  0
    8.1548   -1.3762    0.0000 C   0  0  0  0  0  0  0  0  0  0  0  0
    7.4403   -1.7887    0.0000 C   0  0  0  0  0  0  0  0  0  0  0  0
    6.7258   -1.3762    0.0000 C   0  0  0  0  0  0  0  0  0  0  0  0
  3  1  1  0
  3  2  2  0
  3  4  1  0
  5  4  1  0
  6  2  1  0
  6  5  2  0
  7  4  1  0
  8  7  1  0
  9  8  1  0
 10  9  1  0
 11 10  1  0
 11 16  1  0
 12 11  2  0
 13 12  1  0
 14 13  2  0
 14 15  1  0
 14 17  1  0
 16 15  2  0
 17 18  1  0
 18 19  2  0
 18 20  1  0
 21 20  1  0
 21 22  1  0
 21 24  1  6
 22 23  2  0
 22 26  1  0
 24 25  1  0
 27 26  1  0
 27 28  1  0
 27 30  1  1
 28 29  2  0
 28 35  1  0
 30 31  1  0
 32 31  1  0
 32 33  1  0
 33 34  1  0
 36 35  1  0
 36 37  1  0
 37 38  1  0
 38 39  1  0
 40 39  1  0
 40 41  1  0
 42 41  1  0
 43 38  1  0
 43 42  1  0
M  END
>  <DRUGBANK_ID>  (1) 
DB02477

>  <SECONDARY_ACCESSION_NUMBERS>  (1) 
EXPT02176

>  <COMMON_NAME>  (1) 
N-({4-[4-(2-Methyl-1H-imidazol-1-yl)butyl]phenyl}acetyl)-L-seryl-N-(2-cyclohexylethyl)-L-lysinamide

>  <CAS_NUMBER>  (1) 
164931-25-3

$$$$
