
     RDKit          2D

 27 29  0  0  0  0  0  0  0  0999 V2000
   -1.1912    0.3347    0.0000 C   0  0  0  0  0  0  0  0  0  0  0  0
   -0.5238    0.8196    0.0000 C   0  0  0  0  0  0  0  0  0  0  0  0
    0.2299    0.4841    0.0000 C   0  0  0  0  0  0  0  0  0  0  0  0
    0.3161   -0.3364    0.0000 C   0  0  0  0  0  0  0  0  0  0  0  0
   -0.3513   -0.8213    0.0000 C   0  0  0  0  0  0  0  0  0  0  0  0
   -1.1050   -0.4858    0.0000 C   0  0  0  0  0  0  0  0  0  0  0  0
    1.0698   -0.6720    0.0000 C   0  0  0  0  0  0  0  0  0  0  0  0
    1.8768   -0.8435    0.0000 C   0  0  0  0  0  0  0  0  0  0  0  0
    2.4899   -0.2915    0.0000 O   0  0  0  0  0  0  0  0  0  0  0  0
    1.9630   -1.6640    0.0000 N   0  0  0  0  0  0  0  0  0  0  0  0
    1.2093   -1.9995    0.0000 C   0  0  0  0  0  0  0  0  0  0  0  0
    1.0378   -2.8065    0.0000 O   0  0  0  0  0  0  0  0  0  0  0  0
    0.6573   -1.3864    0.0000 N   0  0  0  0  0  0  0  0  0  0  0  0
    2.6775   -2.0765    0.0000 C   0  0  0  0  0  0  0  0  0  0  0  0
    3.3920   -1.6640    0.0000 C   0  0  0  0  0  0  0  0  0  0  0  0
    4.1064   -2.0765    0.0000 C   0  0  0  0  0  0  0  0  0  0  0  0
    4.8209   -1.6640    0.0000 C   0  0  0  0  0  0  0  0  0  0  0  0
    5.5354   -2.0765    0.0000 C   0  0  0  0  0  0  0  0  0  0  0  0
    6.2498   -1.6640    0.0000 O   0  0  0  0  0  0  0  0  0  0  0  0
    5.5354   -2.9015    0.0000 O   0  0  0  0  0  0  0  0  0  0  0  0
    4.8209   -0.8390    0.0000 N   0  0  0  0  0  0  0  0  0  0  0  0
    1.3247    0.1127    0.0000 C   0  0  0  0  0  0  0  0  0  0  0  0
    0.7727    0.7258    0.0000 C   0  0  0  0  0  0  0  0  0  0  0  0
    1.0276    1.5104    0.0000 C   0  0  0  0  0  0  0  0  0  0  0  0
    1.8346    1.6819    0.0000 C   0  0  0  0  0  0  0  0  0  0  0  0
    2.3867    1.0688    0.0000 C   0  0  0  0  0  0  0  0  0  0  0  0
    2.1317    0.2842    0.0000 C   0  0  0  0  0  0  0  0  0  0  0  0
  1  2  2  0
  1  6  1  0
  2  3  1  0
  3  4  2  0
  4  5  1  0
  4  7  1  0
  5  6  2  0
  7  8  1  0
  7 13  1  0
  7 22  1  0
  8  9  2  0
  8 10  1  0
 10 11  1  0
 10 14  1  0
 11 12  2  0
 11 13  1  0
 14 15  1  0
 15 16  1  0
 16 17  1  0
 17 18  1  0
 17 21  1  0
 18 19  2  0
 18 20  1  0
 22 23  2  0
 22 27  1  0
 23 24  1  0
 24 25  2  0
 25 26  1  0
 26 27  2  0
M  END
>  <DRUGBANK_ID>  (1) 
DB13396

>  <COMMON_NAME>  (1) 
Neocitrullamon

>  <CAS_NUMBER>  (1) 
38964-88-4

>  <UNII>  (1) 
7L5LMT7B2H

>  <SYNONYMS>  (1) 
amino(diphenylhydantoin) valeric acid; Citrullamon V; Phenytoin-3-norvaline

$$$$
