
     RDKit          2D

 32 35  0  0  0  0  0  0  0  0999 V2000
    0.7145   -6.1875    0.0000 C   0  0  0  0  0  0  0  0  0  0  0  0
    1.4289   -6.6000    0.0000 C   0  0  0  0  0  0  0  0  0  0  0  0
    2.1434   -6.1875    0.0000 C   0  0  0  0  0  0  0  0  0  0  0  0
    1.4289   -7.4250    0.0000 C   0  0  0  0  0  0  0  0  0  0  0  0
    2.0964   -7.9099    0.0000 N   0  0  0  0  0  0  0  0  0  0  0  0
    1.8414   -8.6945    0.0000 C   0  0  0  0  0  0  0  0  0  0  0  0
    1.0164   -8.6945    0.0000 O   0  0  0  0  0  0  0  0  0  0  0  0
    0.7615   -7.9099    0.0000 N   0  0  0  0  0  0  0  0  0  0  0  0
    2.3264   -9.3620    0.0000 N   0  0  0  0  0  0  0  0  0  0  0  0
    3.1468   -9.2757    0.0000 C   0  0  0  0  0  0  0  0  0  0  0  0
    3.6318   -9.9432    0.0000 C   0  0  0  0  0  0  0  0  0  0  0  0
    3.2962  -10.6969    0.0000 C   0  0  0  0  0  0  0  0  0  0  0  0
    2.4757  -10.7831    0.0000 C   0  0  0  0  0  0  0  0  0  0  0  0
    1.9908  -10.1157    0.0000 C   0  0  0  0  0  0  0  0  0  0  0  0
    3.7811  -11.3643    0.0000 C   0  0  0  0  0  0  0  0  0  0  0  0
    4.6016  -11.2781    0.0000 O   0  0  0  0  0  0  0  0  0  0  0  0
    5.0865  -11.9455    0.0000 C   0  0  0  0  0  0  0  0  0  0  0  0
    5.9070  -11.8593    0.0000 C   0  0  0  0  0  0  0  0  0  0  0  0
    6.3919  -12.5267    0.0000 C   0  0  0  0  0  0  0  0  0  0  0  0
    6.0564  -13.2804    0.0000 C   0  0  0  0  0  0  0  0  0  0  0  0
    5.2359  -13.3666    0.0000 N   0  0  0  0  0  0  0  0  0  0  0  0
    4.7510  -12.6992    0.0000 C   0  0  0  0  0  0  0  0  0  0  0  0
    6.5413  -13.9478    0.0000 C   0  0  0  0  0  0  0  0  0  0  0  0
    7.3618  -13.8616    0.0000 C   0  0  0  0  0  0  0  0  0  0  0  0
    7.8467  -14.5290    0.0000 C   0  0  0  0  0  0  0  0  0  0  0  0
    7.5112  -15.2827    0.0000 C   0  0  0  0  0  0  0  0  0  0  0  0
    6.6907  -15.3689    0.0000 C   0  0  0  0  0  0  0  0  0  0  0  0
    6.2057  -14.7015    0.0000 C   0  0  0  0  0  0  0  0  0  0  0  0
    7.9961  -15.9501    0.0000 S   0  0  0  0  0  0  0  0  0  0  0  0
    8.4810  -16.6176    0.0000 O   0  0  0  0  0  0  0  0  0  0  0  0
    7.3286  -16.4351    0.0000 O   0  0  0  0  0  0  0  0  0  0  0  0
    8.6635  -15.4652    0.0000 C   0  0  0  0  0  0  0  0  0  0  0  0
  1  2  1  0
  2  3  1  0
  2  4  1  0
  4  5  1  0
  4  8  2  0
  5  6  2  0
  6  7  1  0
  6  9  1  0
  7  8  1  0
  9 10  1  0
  9 14  1  0
 10 11  1  0
 11 12  1  0
 12 13  1  0
 12 15  1  0
 13 14  1  0
 15 16  1  0
 16 17  1  0
 17 18  2  0
 17 22  1  0
 18 19  1  0
 19 20  2  0
 20 21  1  0
 20 23  1  0
 21 22  2  0
 23 24  2  0
 23 28  1  0
 24 25  1  0
 25 26  2  0
 26 27  1  0
 26 29  1  0
 27 28  2  0
 29 30  2  0
 29 31  2  0
 29 32  1  0
M  END
>  <DRUGBANK_ID>  (1) 
DB12627

>  <COMMON_NAME>  (1) 
GSK-1292263

>  <CAS_NUMBER>  (1) 
1032823-75-8

>  <UNII>  (1) 
R1J57STA6O

$$$$
