
     RDKit          2D

 13 12  0  0  1  0  0  0  0  0999 V2000
   22.2164  -15.6487    0.0000 O   0  0  0  0  0  0  0  0  0  0  0  0
   21.5020  -17.7111    0.0000 O   0  0  0  0  0  0  0  0  0  0  0  0
   22.9309  -17.7111    0.0000 O   0  0  0  0  0  0  0  0  0  0  0  0
   20.7876  -15.6487    0.0000 O   0  0  0  0  0  0  0  0  0  0  0  0
   24.3597  -16.8862    0.0000 O   0  0  0  0  0  0  0  0  0  0  0  0
   19.3587  -16.4736    0.0000 O   0  0  0  0  0  0  0  0  0  0  0  0
   20.0732  -17.7111    0.0000 O   0  0  0  0  0  0  0  0  0  0  0  0
   22.2164  -16.4736    0.0000 C   0  0  0  0  0  0  0  0  0  0  0  0
   21.5020  -16.8862    0.0000 C   0  0  0  0  0  0  0  0  0  0  0  0
   22.9309  -16.8862    0.0000 C   0  0  0  0  0  0  0  0  0  0  0  0
   20.7876  -16.4736    0.0000 C   0  0  0  0  0  0  0  0  0  0  0  0
   23.6452  -16.4736    0.0000 C   0  0  0  0  0  0  0  0  0  0  0  0
   20.0732  -16.8862    0.0000 C   0  0  0  0  0  0  0  0  0  0  0  0
  5 12  1  0
  6 13  1  0
  7 13  2  0
  8  1  1  6
  8  9  1  0
  8 10  1  0
  9  2  1  6
  9 11  1  0
 10  3  1  1
 10 12  1  0
 11  4  1  6
 11 13  1  0
M  END
>  <DRUGBANK_ID>  (1) 
DB13180

>  <SECONDARY_ACCESSION_NUMBERS>  (1) 
DB09408

>  <COMMON_NAME>  (1) 
Gluconic Acid

>  <CAS_NUMBER>  (1) 
526-95-4

>  <UNII>  (1) 
R4R8J0Q44B

>  <SYNONYMS>  (1) 
D-Gluconic Acid; Dextronic acid; Maltonic acid

$$$$
