
     RDKit          2D

 14 14  0  0  1  0  0  0  0  0999 V2000
    1.1478    0.0874    0.0000 C   0  0  0  0  0  0  0  0  0  0  0  0
    1.8603    0.5000    0.0000 C   0  0  0  0  0  0  0  0  0  0  0  0
    0.7271   -0.6249    0.0000 C   0  0  0  0  0  0  0  0  0  0  0  0
    1.8521    1.3250    0.0000 O   0  0  0  0  0  0  0  0  0  0  0  0
    0.4354    0.5000    0.0000 N   0  0  0  0  0  0  0  0  0  0  0  0
   -0.0979   -0.6207    0.0000 C   0  0  0  0  0  0  0  0  0  0  0  0
    2.5729    0.0916    0.0000 O   0  0  0  0  0  0  0  0  0  0  0  0
   -1.7479   -0.6082    0.0000 C   0  0  0  0  0  0  0  0  0  0  0  0
   -0.5021    0.1000    0.0000 C   0  0  0  0  0  0  0  0  0  0  0  0
   -0.5103   -1.3250    0.0000 C   0  0  0  0  0  0  0  0  0  0  0  0
   -1.3353   -1.3250    0.0000 C   0  0  0  0  0  0  0  0  0  0  0  0
   -1.3270    0.1042    0.0000 C   0  0  0  0  0  0  0  0  0  0  0  0
   -2.5729   -0.6082    0.0000 O   0  0  0  0  0  0  0  0  0  0  0  0
    1.5521   -0.6249    0.0000 C   0  0  0  0  0  0  0  0  0  0  0  0
  1  2  1  0
  1  3  1  0
  1 14  1  1
  4  2  2  0
  5  1  1  0
  6  3  1  0
  7  2  1  0
  8 11  1  0
  9  6  2  0
 10  6  1  0
 11 10  2  0
 12  9  1  0
 12  8  2  0
 13  8  1  0
M  END
>  <DRUGBANK_ID>  (1) 
DB00765

>  <SECONDARY_ACCESSION_NUMBERS>  (1) 
APRD01112

>  <COMMON_NAME>  (1) 
Metyrosine

>  <CAS_NUMBER>  (1) 
672-87-7

>  <UNII>  (1) 
DOQ0J0TPF7

>  <SYNONYMS>  (1) 
(-)-alpha-Methyl-L-tyrosine; (–)-α-methyl-L-tyrosine; (S)-alpha-Methyltyrosine; Methyltyrosine; Metirosin; Metirosina; Métirosine; Metirosine; Metirosinum; Metyrosine; α-methyl-L-p-tyrosine; α-methyl-p-tyrosine; α-methyl-para-tyrosine; α-MPT

$$$$
