809
     RDKit          2D

 25 28  0  0  0  0  0  0  0  0999 V2000
    0.6500   -2.2945    0.0000 O   0  0  0  0  0  0  0  0  0  0  0  0
    0.8215   -1.4875    0.0000 C   0  0  0  0  0  0  0  0  0  0  0  0
    1.5752   -1.1519    0.0000 N   0  0  0  0  0  0  0  0  0  0  0  0
    1.4889   -0.3315    0.0000 C   0  0  0  0  0  0  0  0  0  0  0  0
    2.1020    0.2206    0.0000 O   0  0  0  0  0  0  0  0  0  0  0  0
    0.6820   -0.1599    0.0000 C   0  0  0  0  0  0  0  0  0  0  0  0
    0.2695   -0.8744    0.0000 C   0  0  0  0  0  0  0  0  0  0  0  0
   -0.5555   -0.8744    0.0000 C   0  0  0  0  0  0  0  0  0  0  0  0
   -1.1076   -1.4875    0.0000 C   0  0  0  0  0  0  0  0  0  0  0  0
   -0.9360   -2.2945    0.0000 C   0  0  0  0  0  0  0  0  0  0  0  0
   -1.5491   -2.8465    0.0000 C   0  0  0  0  0  0  0  0  0  0  0  0
   -1.3776   -3.6535    0.0000 O   0  0  0  0  0  0  0  0  0  0  0  0
   -1.8612   -1.1519    0.0000 C   0  0  0  0  0  0  0  0  0  0  0  0
   -1.7750   -0.3315    0.0000 N   0  0  0  0  0  0  0  0  0  0  0  0
   -2.3881    0.2206    0.0000 C   0  0  0  0  0  0  0  0  0  0  0  0
   -0.9680   -0.1599    0.0000 C   0  0  0  0  0  0  0  0  0  0  0  0
   -0.5555    0.5545    0.0000 C   0  0  0  0  0  0  0  0  0  0  0  0
    0.2695    0.5545    0.0000 C   0  0  0  0  0  0  0  0  0  0  0  0
    0.6820    1.2690    0.0000 C   0  0  0  0  0  0  0  0  0  0  0  0
    0.2695    1.9835    0.0000 C   0  0  0  0  0  0  0  0  0  0  0  0
    1.5070    1.2690    0.0000 C   0  0  0  0  0  0  0  0  0  0  0  0
    1.9195    0.5545    0.0000 Cl  0  0  0  0  0  0  0  0  0  0  0  0
    1.9195    1.9835    0.0000 C   0  0  0  0  0  0  0  0  0  0  0  0
    1.5070    2.6980    0.0000 C   0  0  0  0  0  0  0  0  0  0  0  0
    0.6820    2.6980    0.0000 C   0  0  0  0  0  0  0  0  0  0  0  0
  1  2  2  0
  2  3  1  0
  2  7  1  0
  3  4  1  0
  4  5  2  0
  4  6  1  0
  6  7  2  0
  6 18  1  0
  7  8  1  0
  8  9  1  0
  8 16  2  0
  9 10  1  0
  9 13  2  0
 10 11  1  0
 11 12  1  0
 13 14  1  0
 14 15  1  0
 14 16  1  0
 16 17  1  0
 17 18  2  0
 18 19  1  0
 19 20  2  0
 19 21  1  0
 20 25  1  0
 21 22  1  0
 21 23  2  0
 23 24  1  0
 24 25  2  0
M  END
>  <DRUGBANK_ID>  (1) 
DB07257

>  <COMMON_NAME>  (1) 
4-(2-chlorophenyl)-8-(2-hydroxyethyl)-6-methylpyrrolo[3,4-e]indole-1,3(2H,6H)-dione

$$$$
