MIA
     RDKit          2D

 30 32  0  0  0  0  0  0  0  0999 V2000
   -5.7866    0.9456    0.0000 O   0  0  0  0  0  0  0  0  0  0  0  0
   -5.0330    0.6100    0.0000 P   0  0  0  0  0  0  0  0  0  0  0  0
   -5.3685   -0.1437    0.0000 O   0  0  0  0  0  0  0  0  0  0  0  0
   -4.6974    1.3637    0.0000 O   0  0  0  0  0  0  0  0  0  0  0  0
   -4.2793    0.2744    0.0000 O   0  0  0  0  0  0  0  0  0  0  0  0
   -3.6118    0.7594    0.0000 C   0  0  0  0  0  0  0  0  0  0  0  0
   -2.8582    0.4238    0.0000 C   0  0  0  0  0  0  0  0  0  0  0  0
   -2.1437    0.8363    0.0000 O   0  0  0  0  0  0  0  0  0  0  0  0
   -2.6866   -0.3832    0.0000 C   0  0  0  0  0  0  0  0  0  0  0  0
   -3.2387   -0.9963    0.0000 O   0  0  0  0  0  0  0  0  0  0  0  0
   -1.8662   -0.4694    0.0000 C   0  0  0  0  0  0  0  0  0  0  0  0
   -1.4537   -1.1839    0.0000 O   0  0  0  0  0  0  0  0  0  0  0  0
   -1.5306    0.2843    0.0000 C   0  0  0  0  0  0  0  0  0  0  0  0
   -0.7236    0.4558    0.0000 N   0  0  0  0  0  0  0  0  0  0  0  0
   -0.3881    1.2095    0.0000 C   0  0  0  0  0  0  0  0  0  0  0  0
    0.4324    1.1232    0.0000 N   0  0  0  0  0  0  0  0  0  0  0  0
    0.6039    0.3163    0.0000 C   0  0  0  0  0  0  0  0  0  0  0  0
    1.3184   -0.0962    0.0000 C   0  0  0  0  0  0  0  0  0  0  0  0
    2.0329    0.3163    0.0000 N   0  0  0  0  0  0  0  0  0  0  0  0
    1.3184   -0.9212    0.0000 N   0  0  0  0  0  0  0  0  0  0  0  0
    0.6039   -1.3337    0.0000 C   0  0  0  0  0  0  0  0  0  0  0  0
   -0.1105   -0.9212    0.0000 N   0  0  0  0  0  0  0  0  0  0  0  0
   -0.1105   -0.0962    0.0000 C   0  0  0  0  0  0  0  0  0  0  0  0
    0.6039   -2.1587    0.0000 S   0  0  0  0  0  0  0  0  0  0  0  0
   -0.1105   -2.5712    0.0000 C   0  0  0  0  0  0  0  0  0  0  0  0
    2.7473   -0.0962    0.0000 C   0  0  0  0  0  0  0  0  0  0  0  0
    3.4618    0.3163    0.0000 C   0  0  0  0  0  0  0  0  0  0  0  0
    4.1763   -0.0962    0.0000 C   0  0  0  0  0  0  0  0  0  0  0  0
    4.8908    0.3163    0.0000 C   0  0  0  0  0  0  0  0  0  0  0  0
    4.1763   -0.9212    0.0000 C   0  0  0  0  0  0  0  0  0  0  0  0
  1  2  1  0
  2  3  2  0
  2  4  1  0
  2  5  1  0
  5  6  1  0
  7  6  1  1
  7  8  1  0
  7  9  1  0
  8 13  1  0
  9 10  1  6
  9 11  1  0
 11 12  1  6
 11 13  1  0
 13 14  1  1
 14 15  1  0
 14 23  1  0
 15 16  2  0
 16 17  1  0
 17 18  1  0
 17 23  2  0
 18 19  1  0
 18 20  2  0
 19 26  1  0
 20 21  1  0
 21 22  2  0
 21 24  1  0
 22 23  1  0
 24 25  1  0
 26 27  1  0
 27 28  1  0
 28 29  1  0
 28 30  1  0
M  END
>  <DRUGBANK_ID>  (1) 
DB08185

>  <COMMON_NAME>  (1) 
2-METHYLTHIO-N6-ISOPENTENYL-ADENOSINE-5'-MONOPHOSPHATE

$$$$
