
     RDKit          2D

 20 21  0  0  1  0  0  0  0  0999 V2000
    0.3683    0.3860    0.0000 C   0  0  0  0  0  0  0  0  0  0  0  0
   -0.3461   -0.0265    0.0000 O   0  0  0  0  0  0  0  0  0  0  0  0
   -0.3461   -0.8515    0.0000 C   0  0  0  0  0  0  0  0  0  0  0  0
    0.3683   -1.2640    0.0000 C   0  0  0  0  0  0  0  0  0  0  0  0
    0.3683   -2.0890    0.0000 C   0  0  0  0  0  0  0  0  0  0  0  0
   -0.3461   -2.5015    0.0000 C   0  0  0  0  0  0  0  0  0  0  0  0
   -1.0606   -2.0890    0.0000 C   0  0  0  0  0  0  0  0  0  0  0  0
   -1.0606   -1.2640    0.0000 C   0  0  0  0  0  0  0  0  0  0  0  0
   -1.7751   -2.5015    0.0000 C   0  0  0  0  0  0  0  0  0  0  0  0
   -2.0572   -1.7262    0.0000 O   0  0  0  0  0  0  0  0  0  0  0  0
   -1.2448   -3.1335    0.0000 C   0  0  0  0  0  0  0  0  0  0  0  0
   -1.5269   -3.9087    0.0000 C   0  0  0  0  0  0  0  0  0  0  0  0
   -0.9966   -4.5407    0.0000 O   0  0  0  0  0  0  0  0  0  0  0  0
   -2.3394   -4.0520    0.0000 C   0  0  0  0  0  0  0  0  0  0  0  0
   -2.8697   -3.4200    0.0000 C   0  0  0  0  0  0  0  0  0  0  0  0
   -2.5875   -2.6447    0.0000 C   0  0  0  0  0  0  0  0  0  0  0  0
   -3.1178   -2.0127    0.0000 C   0  0  0  0  0  0  0  0  0  0  0  0
   -2.8357   -1.2375    0.0000 N   0  0  0  0  0  0  0  0  0  0  0  0
   -3.3660   -0.6055    0.0000 C   0  0  0  0  0  0  0  0  0  0  0  0
   -2.0232   -1.0942    0.0000 C   0  0  0  0  0  0  0  0  0  0  0  0
  1  2  1  0
  2  3  1  0
  3  4  2  0
  3  8  1  0
  4  5  1  0
  5  6  2  0
  6  7  1  0
  7  8  2  0
  9  7  1  0
  9 10  1  1
  9 11  1  0
  9 16  1  0
 12 11  1  0
 12 13  1  1
 12 14  1  0
 14 15  1  0
 16 15  1  0
 16 17  1  1
 17 18  1  0
 18 19  1  0
 18 20  1  0
M  END
>  <DRUGBANK_ID>  (1) 
DB16100

>  <COMMON_NAME>  (1) 
Axomadol

>  <CAS_NUMBER>  (1) 
187219-99-4

>  <UNII>  (1) 
9J92U4CVS0

>  <SYNONYMS>  (1) 
Axomadol; Bn-110 free base; Bn110 free base; Grt-151 free base; Grt151 free base

$$$$
