BP7
     RDKit          2D

 14 15  0  0  0  0  0  0  0  0999 V2000
   -0.2358   -0.1300    0.0000 C   0  0  0  0  0  0  0  0  0  0  0  0
    0.4786   -0.5425    0.0000 C   0  0  0  0  0  0  0  0  0  0  0  0
    0.4786   -1.3675    0.0000 C   0  0  0  0  0  0  0  0  0  0  0  0
    1.1931   -1.7800    0.0000 O   0  0  0  0  0  0  0  0  0  0  0  0
   -0.2358   -1.7800    0.0000 C   0  0  0  0  0  0  0  0  0  0  0  0
   -0.2358   -2.6050    0.0000 O   0  0  0  0  0  0  0  0  0  0  0  0
   -0.9503   -1.3675    0.0000 C   0  0  0  0  0  0  0  0  0  0  0  0
   -0.9503   -0.5425    0.0000 C   0  0  0  0  0  0  0  0  0  0  0  0
   -0.2358    0.6950    0.0000 C   0  0  0  0  0  0  0  0  0  0  0  0
   -0.9503    1.1075    0.0000 C   0  0  0  0  0  0  0  0  0  0  0  0
   -0.9503    1.9325    0.0000 C   0  0  0  0  0  0  0  0  0  0  0  0
   -0.2358    2.3450    0.0000 C   0  0  0  0  0  0  0  0  0  0  0  0
    0.4786    1.9325    0.0000 C   0  0  0  0  0  0  0  0  0  0  0  0
    0.4786    1.1075    0.0000 C   0  0  0  0  0  0  0  0  0  0  0  0
  1  2  2  0
  1  8  1  0
  1  9  1  0
  2  3  1  0
  3  4  1  0
  3  5  2  0
  5  6  1  0
  5  7  1  0
  7  8  2  0
  9 10  2  0
  9 14  1  0
 10 11  1  0
 11 12  2  0
 12 13  1  0
 13 14  2  0
M  END
>  <DRUGBANK_ID>  (1) 
DB07478

>  <COMMON_NAME>  (1) 
3,4-Biphenyldiol

>  <CAS_NUMBER>  (1) 
92-05-7

>  <UNII>  (1) 
T7L7XJ8RU1

>  <SYNONYMS>  (1) 
4-Phenyl-1,2-benzenediol; 4-Phenylcatechol; 4-Phenylpyrocatechol; Biphenyl-3,4-diol

$$$$
