
     RDKit          2D

 38 41  0  0  1  0  0  0  0  0999 V2000
   -5.5853   -3.4014    0.0000 C   0  0  0  0  0  0  0  0  0  0  0  0
   -5.5853   -1.6065    0.0000 C   0  0  0  0  0  0  0  0  0  0  0  0
   -4.8316   -1.9421    0.0000 C   0  0  0  0  0  0  0  0  0  0  0  0
   -0.5683   -1.4940    0.0000 C   0  0  0  0  0  0  0  0  0  0  0  0
    3.3523    1.1104    0.0000 C   0  0  0  0  0  0  0  0  0  0  0  0
    0.6538    1.5229    0.0000 C   0  0  0  0  0  0  0  0  0  0  0  0
   -6.2527   -2.9164    0.0000 C   0  0  0  0  0  0  0  0  0  0  0  0
    0.0992   -1.0091    0.0000 C   0  0  0  0  0  0  0  0  0  0  0  0
   -6.2527   -2.0914    0.0000 C   0  0  0  0  0  0  0  0  0  0  0  0
    1.9233    1.9354    0.0000 C   0  0  0  0  0  0  0  0  0  0  0  0
    0.8838   -1.2640    0.0000 C   0  0  0  0  0  0  0  0  0  0  0  0
    1.3687   -0.5966    0.0000 C   0  0  0  0  0  0  0  0  0  0  0  0
    2.6378    2.3479    0.0000 C   0  0  0  0  0  0  0  0  0  0  0  0
    1.9233    1.1104    0.0000 C   0  0  0  0  0  0  0  0  0  0  0  0
   -7.5223   -2.5039    0.0000 C   0  0  0  0  0  0  0  0  0  0  0  0
    0.8838    0.0709    0.0000 C   0  0  0  0  0  0  0  0  0  0  0  0
   -8.3473   -2.5039    0.0000 C   0  0  0  0  0  0  0  0  0  0  0  0
    2.6378    3.1729    0.0000 N   0  0  0  0  0  0  0  0  0  0  0  0
    3.3523    1.9354    0.0000 N   0  0  0  0  0  0  0  0  0  0  0  0
    2.6378    0.6979    0.0000 N   0  0  0  0  0  0  0  0  0  0  0  0
    1.1387    2.1904    0.0000 N   0  0  0  0  0  0  0  0  0  0  0  0
   -7.0374   -3.1714    0.0000 N   0  0  0  0  0  0  0  0  0  0  0  0
    1.1387    0.8555    0.0000 N   0  0  0  0  0  0  0  0  0  0  0  0
    1.1387   -2.0486    0.0000 O   0  0  0  0  0  0  0  0  0  0  0  0
    2.1937   -0.5966    0.0000 O   0  0  0  0  0  0  0  0  0  0  0  0
   -8.7598   -3.2184    0.0000 O   0  0  0  0  0  0  0  0  0  0  0  0
   -8.7598   -1.7895    0.0000 O   0  0  0  0  0  0  0  0  0  0  0  0
   -3.0749   -1.0390    0.0000 O   0  0  0  0  0  0  0  0  0  0  0  0
   -3.7461   -2.5464    0.0000 O   0  0  0  0  0  0  0  0  0  0  0  0
   -2.4743   -0.9759    0.0000 O   0  0  0  0  0  0  0  0  0  0  0  0
   -1.5045   -2.3108    0.0000 O   0  0  0  0  0  0  0  0  0  0  0  0
   -4.1642   -1.4572    0.0000 O   0  0  0  0  0  0  0  0  0  0  0  0
   -1.3220   -1.1584    0.0000 O   0  0  0  0  0  0  0  0  0  0  0  0
    0.0992   -0.1841    0.0000 O   0  0  0  0  0  0  0  0  0  0  0  0
   -2.6568   -2.1283    0.0000 O   0  0  0  0  0  0  0  0  0  0  0  0
   -3.4105   -1.7927    0.0000 P   0  0  0  0  0  0  0  0  0  0  0  0
   -1.9894   -1.6433    0.0000 P   0  0  0  0  0  0  0  0  0  0  0  0
   -7.0374   -1.8365    0.0000 S   0  0  0  0  0  0  0  0  0  0  0  0
  3  2  1  0
  7  1  1  0
  8  4  1  1
  9  2  1  0
  9  7  2  0
 11  8  1  0
 11 24  1  6
 12 11  1  0
 12 25  1  6
 13 10  2  0
 14 10  1  0
 16 12  1  0
 16 23  1  1
 17 15  1  0
 18 13  1  0
 19  5  2  0
 19 13  1  0
 20  5  1  0
 20 14  2  0
 21  6  2  0
 21 10  1  0
 22  7  1  0
 22 15  2  0
 23  6  1  0
 23 14  1  0
 26 17  1  0
 27 17  2  0
 32  3  1  0
 33  4  1  0
 34  8  1  0
 34 16  1  0
 36 28  1  0
 36 29  2  0
 36 32  1  0
 36 35  1  0
 37 30  1  0
 37 31  2  0
 37 33  1  0
 37 35  1  0
 38  9  1  0
 38 15  1  0
M  CHG  3  26  -1  28  -1  30  -1
M  END
>  <DRUGBANK_ID>  (1) 
DB04362

>  <SECONDARY_ACCESSION_NUMBERS>  (1) 
EXPT00469

>  <COMMON_NAME>  (1) 
Adenosine Diphosphate 5-(Beta-Ethyl)-4-Methyl-Thiazole-2-Carboxylic Acid

$$$$
