
     RDKit          2D

 10 10  0  0  0  0  0  0  0  0999 V2000
    0.7146    0.2062    0.0000 C   0  0  0  0  0  0  0  0  0  0  0  0
    0.7146   -0.6187    0.0000 C   0  0  0  0  0  0  0  0  0  0  0  0
    0.0000    0.6187    0.0000 C   0  0  0  0  0  0  0  0  0  0  0  0
    0.0000   -1.0313    0.0000 C   0  0  0  0  0  0  0  0  0  0  0  0
   -0.7145    0.2062    0.0000 C   0  0  0  0  0  0  0  0  0  0  0  0
   -0.7145   -0.6187    0.0000 C   0  0  0  0  0  0  0  0  0  0  0  0
    0.0000   -1.8563    0.0000 N   0  0  0  0  0  0  0  0  0  0  0  0
    0.0000    1.4438    0.0000 C   0  0  0  0  0  0  0  0  0  0  0  0
    0.7144    1.8563    0.0000 C   0  0  0  0  0  0  0  0  0  0  0  0
   -0.7145    1.8563    0.0000 C   0  0  0  0  0  0  0  0  0  0  0  0
  2  1  2  0
  3  1  1  0
  3  8  1  0
  4  2  1  0
  4  7  1  0
  5  3  2  0
  6  4  2  0
  6  5  1  0
  8  9  1  0
  8 10  1  0
M  END
>  <DRUGBANK_ID>  (1) 
DB02114

>  <SECONDARY_ACCESSION_NUMBERS>  (1) 
EXPT01936

>  <COMMON_NAME>  (1) 
Cumidine

>  <CAS_NUMBER>  (1) 
99-88-7

>  <UNII>  (1) 
0D54T7V7XL

>  <SYNONYMS>  (1) 
4-(1-methylethyl)aniline; 4-Amino-1-isopropylbenzene; 4-Aminocumene; 4-Isopropylaniline; p-Cumidine; p-Isopropylaniline; para-isopropylaniline

$$$$
