IP6
     RDKit          2D

 24 27  0  0  0  0  0  0  0  0999 V2000
    2.9574   -1.2739    0.0000 N   0  0  0  0  0  0  0  0  0  0  0  0
    2.2430   -1.6864    0.0000 C   0  0  0  0  0  0  0  0  0  0  0  0
    2.2430   -2.5114    0.0000 N   0  0  0  0  0  0  0  0  0  0  0  0
    1.5285   -2.9239    0.0000 C   0  0  0  0  0  0  0  0  0  0  0  0
    0.8140   -2.5114    0.0000 C   0  0  0  0  0  0  0  0  0  0  0  0
    0.8140   -1.6864    0.0000 C   0  0  0  0  0  0  0  0  0  0  0  0
    1.5285   -1.2739    0.0000 C   0  0  0  0  0  0  0  0  0  0  0  0
    1.5285   -0.4489    0.0000 N   0  0  0  0  0  0  0  0  0  0  0  0
    0.8140   -0.0364    0.0000 C   0  0  0  0  0  0  0  0  0  0  0  0
    0.8140    0.7886    0.0000 C   0  0  0  0  0  0  0  0  0  0  0  0
    1.5285    1.2011    0.0000 C   0  0  0  0  0  0  0  0  0  0  0  0
    1.5285    2.0261    0.0000 C   0  0  0  0  0  0  0  0  0  0  0  0
    0.8140    2.4386    0.0000 C   0  0  0  0  0  0  0  0  0  0  0  0
    0.0996    2.0261    0.0000 C   0  0  0  0  0  0  0  0  0  0  0  0
    0.0996    1.2011    0.0000 C   0  0  0  0  0  0  0  0  0  0  0  0
   -0.6149    2.4386    0.0000 C   0  0  0  0  0  0  0  0  0  0  0  0
   -0.6149    3.2636    0.0000 C   0  0  0  0  0  0  0  0  0  0  0  0
   -1.3294    3.6761    0.0000 C   0  0  0  0  0  0  0  0  0  0  0  0
   -2.0439    3.2636    0.0000 C   0  0  0  0  0  0  0  0  0  0  0  0
   -2.8285    3.5185    0.0000 C   0  0  0  0  0  0  0  0  0  0  0  0
   -3.3134    2.8511    0.0000 C   0  0  0  0  0  0  0  0  0  0  0  0
   -2.8285    2.1836    0.0000 N   0  0  0  0  0  0  0  0  0  0  0  0
   -2.0439    2.4386    0.0000 C   0  0  0  0  0  0  0  0  0  0  0  0
   -1.3294    2.0261    0.0000 C   0  0  0  0  0  0  0  0  0  0  0  0
  1  2  1  0
  2  3  2  0
  2  7  1  0
  3  4  1  0
  4  5  2  0
  5  6  1  0
  6  7  2  0
  7  8  1  0
  8  9  1  0
  9 10  1  0
 10 15  1  0
 10 11  2  0
 11 12  1  0
 12 13  2  0
 13 14  1  0
 14 16  1  0
 14 15  2  0
 16 24  1  0
 16 17  2  0
 17 18  1  0
 18 19  2  0
 19 20  1  0
 19 23  1  0
 20 21  2  0
 21 22  1  0
 22 23  1  0
 23 24  2  0
M  END
>  <DRUGBANK_ID>  (1) 
DB07993

>  <COMMON_NAME>  (1) 
N~3~-[3-(1H-INDOL-6-YL)BENZYL]PYRIDINE-2,3-DIAMINE

$$$$
