
     RDKit          2D

 24 24  0  0  1  0  0  0  0  0999 V2000
    0.0000    4.9499    0.0000 C   0  0  0  0  0  0  0  0  0  0  0  0
    0.7145    3.7125    0.0000 C   0  0  0  0  0  0  0  0  0  0  0  0
   -2.8579    4.9499    0.0000 C   0  0  0  0  0  0  0  0  0  0  0  0
   -1.4289    2.4749    0.0000 C   0  0  0  0  0  0  0  0  0  0  0  0
    0.7145   -0.4125    0.0000 C   0  0  0  0  0  0  0  0  0  0  0  0
    1.4289    0.0000    0.0000 C   0  0  0  0  0  0  0  0  0  0  0  0
    0.0000    0.0000    0.0000 C   0  0  0  0  0  0  0  0  0  0  0  0
    1.4289    0.8250    0.0000 C   0  0  0  0  0  0  0  0  0  0  0  0
    0.0000    0.8250    0.0000 C   0  0  0  0  0  0  0  0  0  0  0  0
   -1.4289    4.9499    0.0000 C   0  0  0  0  0  0  0  0  0  0  0  0
   -1.4289    5.7750    0.0000 C   0  0  0  0  0  0  0  0  0  0  0  0
   -0.7145    3.7125    0.0000 C   0  0  0  0  0  0  0  0  0  0  0  0
    0.7145    2.0625    0.0000 C   0  0  0  0  0  0  0  0  0  0  0  0
   -0.7145    4.5375    0.0000 C   0  0  0  0  0  0  0  0  0  0  0  0
    0.0000    3.3000    0.0000 C   0  0  0  0  0  0  0  0  0  0  0  0
   -2.8579    5.7750    0.0000 C   0  0  0  0  0  0  0  0  0  0  0  0
    0.7145    1.2374    0.0000 C   0  0  0  0  0  0  0  0  0  0  0  0
   -2.1434    6.1875    0.0000 C   0  0  0  0  0  0  0  0  0  0  0  0
    0.0000    2.4749    0.0000 C   0  0  0  0  0  0  0  0  0  0  0  0
   -3.5724    6.1875    0.0000 C   0  0  0  0  0  0  0  0  0  0  0  0
   -2.1434    7.0125    0.0000 N   0  0  0  0  0  0  0  0  0  0  0  0
   -4.2868    5.7750    0.0000 O   0  0  0  0  0  0  0  0  0  0  0  0
   -3.5724    7.0125    0.0000 O   0  0  0  0  0  0  0  0  0  0  0  0
   -0.7145    2.0625    0.0000 O   0  0  0  0  0  0  0  0  0  0  0  0
  6  5  2  0
  7  5  1  0
  8  6  1  0
  9  7  2  0
 11 10  2  0
 14  1  1  0
 14 10  1  0
 14 12  2  0
 15  2  1  1
 15 12  1  0
 16  3  1  6
 17  8  2  0
 17  9  1  0
 17 13  1  0
 18 11  1  0
 18 16  1  0
 18 21  1  1
 19 13  1  1
 19 15  1  0
 19 24  1  0
 20 16  1  0
 22 20  2  0
 23 20  1  0
 24  4  1  0
M  END
>  <DRUGBANK_ID>  (1) 
DB01850

>  <SECONDARY_ACCESSION_NUMBERS>  (1) 
EXPT02162

>  <COMMON_NAME>  (1) 
(2S,3S,8S,9S)-3-amino-9-methoxy-2,6,8-trimethyl-10-phenyldeca-4,6-dienoic acid

$$$$
