
     RDKit          2D

 35 38  0  0  0  0  0  0  0  0999 V2000
   -9.1814    4.4759    0.0000 C   0  0  0  0  0  0  0  0  0  0  0  0
   -4.8946    5.3009    0.0000 C   0  0  0  0  0  0  0  0  0  0  0  0
   -5.6091    6.5384    0.0000 C   0  0  0  0  0  0  0  0  0  0  0  0
   -4.1801    5.7134    0.0000 C   0  0  0  0  0  0  0  0  0  0  0  0
   -4.8946    6.9509    0.0000 C   0  0  0  0  0  0  0  0  0  0  0  0
   -8.4669    4.0634    0.0000 C   0  0  0  0  0  0  0  0  0  0  0  0
   -6.6255    1.1438    0.0000 C   0  0  0  0  0  0  0  0  0  0  0  0
   -6.3706    1.9285    0.0000 C   0  0  0  0  0  0  0  0  0  0  0  0
   -2.0367    6.9509    0.0000 C   0  0  0  0  0  0  0  0  0  0  0  0
   -2.7512    8.1884    0.0000 C   0  0  0  0  0  0  0  0  0  0  0  0
   -1.3222    7.3634    0.0000 C   0  0  0  0  0  0  0  0  0  0  0  0
   -2.0367    8.6009    0.0000 C   0  0  0  0  0  0  0  0  0  0  0  0
   -8.4669    5.7134    0.0000 C   0  0  0  0  0  0  0  0  0  0  0  0
   -9.1814    5.3009    0.0000 C   0  0  0  0  0  0  0  0  0  0  0  0
   -5.6091    5.7134    0.0000 C   0  0  0  0  0  0  0  0  0  0  0  0
   -4.1801    6.5384    0.0000 C   0  0  0  0  0  0  0  0  0  0  0  0
   -7.7525    5.3009    0.0000 C   0  0  0  0  0  0  0  0  0  0  0  0
   -7.7525    4.4759    0.0000 C   0  0  0  0  0  0  0  0  0  0  0  0
   -7.4505    1.1438    0.0000 C   0  0  0  0  0  0  0  0  0  0  0  0
   -7.0380    2.4134    0.0000 C   0  0  0  0  0  0  0  0  0  0  0  0
   -7.0380    5.7134    0.0000 C   0  0  0  0  0  0  0  0  0  0  0  0
   -9.8959    5.7134    0.0000 Cl  0  0  0  0  0  0  0  0  0  0  0  0
   -7.9354    0.4764    0.0000 Cl  0  0  0  0  0  0  0  0  0  0  0  0
   -6.3235    5.3009    0.0000 N   0  0  0  0  0  0  0  0  0  0  0  0
   -7.0380    4.0634    0.0000 N   0  0  0  0  0  0  0  0  0  0  0  0
   -2.7512    7.3634    0.0000 N   0  0  0  0  0  0  0  0  0  0  0  0
   -7.0380    6.5384    0.0000 O   0  0  0  0  0  0  0  0  0  0  0  0
   -6.2130    3.2384    0.0000 O   0  0  0  0  0  0  0  0  0  0  0  0
   -7.8630    3.2384    0.0000 O   0  0  0  0  0  0  0  0  0  0  0  0
   -3.0531    6.2364    0.0000 O   0  0  0  0  0  0  0  0  0  0  0  0
   -3.8781    7.6654    0.0000 O   0  0  0  0  0  0  0  0  0  0  0  0
   -1.3222    8.1884    0.0000 O   0  0  0  0  0  0  0  0  0  0  0  0
   -7.7054    1.9285    0.0000 S   0  0  0  0  0  0  0  0  0  0  0  0
   -7.0380    3.2384    0.0000 S   0  0  0  0  0  0  0  0  0  0  0  0
   -3.4656    6.9509    0.0000 S   0  0  0  0  0  0  0  0  0  0  0  0
  4  2  2  0
  5  3  1  0
  6  1  2  0
  8  7  1  0
 11  9  1  0
 12 10  1  0
 14  1  1  0
 14 13  2  0
 15  2  1  0
 15  3  2  0
 16  4  1  0
 16  5  2  0
 17 13  1  0
 18  6  1  0
 18 17  2  0
 19  7  2  0
 20  8  2  0
 21 17  1  0
 22 14  1  0
 23 19  1  0
 24 15  1  0
 24 21  1  0
 25 18  1  0
 26  9  1  0
 26 10  1  0
 27 21  2  0
 32 11  1  0
 32 12  1  0
 33 19  1  0
 33 20  1  0
 34 20  1  0
 34 25  1  0
 34 28  2  0
 34 29  2  0
 35 16  1  0
 35 26  1  0
 35 30  2  0
 35 31  2  0
M  END
>  <DRUGBANK_ID>  (1) 
DB12805

>  <COMMON_NAME>  (1) 
Ataciguat

>  <CAS_NUMBER>  (1) 
254877-67-3

>  <UNII>  (1) 
QP166M390Q

>  <SYNONYMS>  (1) 
Ataciguat

$$$$
