
     RDKit          2D

  9  8  0  0  0  0  0  0  0  0999 V2000
   -0.2063    0.7144    0.0000 C   0  0  0  0  0  0  0  0  0  0  0  0
    0.2062    0.0000    0.0000 C   0  0  0  0  0  0  0  0  0  0  0  0
    1.0318    0.0000    0.0000 O   0  0  0  0  0  0  0  0  0  0  0  0
   -0.2063   -0.7145    0.0000 C   0  0  0  0  0  0  0  0  0  0  0  0
   -1.0317   -0.7145    0.0000 O   0  0  0  0  0  0  0  0  0  0  0  0
    0.2062   -1.4289    0.0000 C   0  0  0  0  0  0  0  0  0  0  0  0
    1.0318   -1.4289    0.0000 O   0  0  0  0  0  0  0  0  0  0  0  0
   -1.0317    0.7144    0.0000 O   0  0  0  0  0  0  0  0  0  0  0  0
    0.2062    1.4289    0.0000 O   0  0  0  0  0  0  0  0  0  0  0  0
  1  2  1  0
  1  8  2  0
  1  9  1  0
  2  3  1  1
  2  4  1  0
  4  5  1  1
  4  6  1  0
  6  7  1  0
M  END
>  <DRUGBANK_ID>  (1) 
DB14228

>  <COMMON_NAME>  (1) 
Threonic acid

>  <CAS_NUMBER>  (1) 
3909-12-4

>  <UNII>  (1) 
NTD0MI8XRT

>  <SYNONYMS>  (1) 
2,3,4-Trihydroxy-(threo)-butanoic acid; DL-threonic acid; Threo-2,3,4-trihydroxybutyric acid

$$$$
