
     RDKit          2D

 14 14  0  0  0  0  0  0  0  0999 V2000
   -0.3297   -0.8227    0.0000 C   0  0  0  0  0  0  0  0  0  0  0  0
   -2.2820    0.5872    0.0000 C   0  0  0  0  0  0  0  0  0  0  0  0
    1.2352    0.6294    0.0000 C   0  0  0  0  0  0  0  0  0  0  0  0
   -0.8843    0.8843    0.0000 C   0  0  0  0  0  0  0  0  0  0  0  0
    0.1553   -0.1553    0.0000 C   0  0  0  0  0  0  0  0  0  0  0  0
   -1.4974    0.3323    0.0000 C   0  0  0  0  0  0  0  0  0  0  0  0
    0.5678    1.1143    0.0000 C   0  0  0  0  0  0  0  0  0  0  0  0
   -2.8951    0.0352    0.0000 Cl  0  0  0  0  0  0  0  0  0  0  0  0
    0.9803   -0.1553    0.0000 N   0  0  0  0  0  0  0  0  0  0  0  0
   -0.0997    0.6294    0.0000 N   0  0  0  0  0  0  0  0  0  0  0  0
    0.5678    1.9393    0.0000 N   0  0  0  0  0  0  0  0  0  0  0  0
   -1.3259   -0.4747    0.0000 O   0  0  0  0  0  0  0  0  0  0  0  0
   -0.1467    2.3518    0.0000 O   0  0  0  0  0  0  0  0  0  0  0  0
    1.2822    2.3518    0.0000 O   0  0  0  0  0  0  0  0  0  0  0  0
  5  1  1  0
  6  2  1  0
  6  4  1  0
  7  3  2  0
  8  2  1  0
  9  3  1  0
  9  5  2  0
 10  4  1  0
 10  5  1  0
 10  7  1  0
 11  7  1  0
 12  6  1  0
 13 11  1  0
 14 11  2  0
M  CHG  2  11   1  13  -1
M  END
>  <DRUGBANK_ID>  (1) 
DB13026

>  <COMMON_NAME>  (1) 
Ornidazole

>  <CAS_NUMBER>  (1) 
16773-42-5

>  <UNII>  (1) 
62XCK0G93T

>  <SYNONYMS>  (1) 
ornidazol; Ornidazole

$$$$
