
     RDKit          2D

 30 33  0  0  0  0  0  0  0  0999 V2000
    3.3741   -0.7181    0.0000 C   0  0  0  0  0  0  0  0  0  0  0  0
    4.1274   -0.3818    0.0000 O   0  0  0  0  0  0  0  0  0  0  0  0
    4.6794   -0.9952    0.0000 C   0  0  0  0  0  0  0  0  0  0  0  0
    4.2664   -1.7096    0.0000 C   0  0  0  0  0  0  0  0  0  0  0  0
    3.4596   -1.5376    0.0000 C   0  0  0  0  0  0  0  0  0  0  0  0
    0.4088   -0.2978    0.0000 C   0  0  0  0  0  0  0  0  0  0  0  0
    0.4144    0.5272    0.0000 C   0  0  0  0  0  0  0  0  0  0  0  0
    1.2338   -0.3034    0.0000 N   0  0  0  0  0  0  0  0  0  0  0  0
    1.2350    0.5217    0.0000 C   0  0  0  0  0  0  0  0  0  0  0  0
    1.9461    0.9311    0.0000 S   0  0  0  0  0  0  0  0  0  0  0  0
    2.6608    0.5197    0.0000 C   0  0  0  0  0  0  0  0  0  0  0  0
    2.6597   -0.3053    0.0000 C   0  0  0  0  0  0  0  0  0  0  0  0
    1.9439   -0.7192    0.0000 C   0  0  0  0  0  0  0  0  0  0  0  0
   -0.4136    0.5300    0.0000 N   0  0  0  0  0  0  0  0  0  0  0  0
   -2.5537    0.9587    0.0000 C   0  0  0  0  0  0  0  0  0  0  0  0
   -1.8422    0.5427    0.0000 C   0  0  0  0  0  0  0  0  0  0  0  0
   -1.1250    0.9490    0.0000 C   0  0  0  0  0  0  0  0  0  0  0  0
   -3.3102    0.6317    0.0000 N   0  0  0  0  0  0  0  0  0  0  0  0
   -3.8583    1.2472    0.0000 C   0  0  0  0  0  0  0  0  0  0  0  0
   -3.4423    1.9588    0.0000 S   0  0  0  0  0  0  0  0  0  0  0  0
   -2.6372    1.7830    0.0000 C   0  0  0  0  0  0  0  0  0  0  0  0
   -4.6794    1.1655    0.0000 N   0  0  0  0  0  0  0  0  0  0  0  0
   -1.8478   -0.2824    0.0000 N   0  0  0  0  0  0  0  0  0  0  0  0
   -1.1359   -0.6998    0.0000 O   0  0  0  0  0  0  0  0  0  0  0  0
   -1.1417   -1.5248    0.0000 C   0  0  0  0  0  0  0  0  0  0  0  0
   -0.1785   -0.8771    0.0000 O   0  0  0  0  0  0  0  0  0  0  0  0
   -1.1181    1.7740    0.0000 O   0  0  0  0  0  0  0  0  0  0  0  0
    1.9417   -1.5442    0.0000 C   0  0  0  0  0  0  0  0  0  0  0  0
    2.6552   -1.9588    0.0000 O   0  0  0  0  0  0  0  0  0  0  0  0
    1.2260   -1.9548    0.0000 O   0  0  0  0  0  0  0  0  0  0  0  0
  1  2  1  0
  1 12  1  1
  2  3  1  0
  3  4  1  0
  4  5  1  0
  5  1  1  0
  6  7  1  0
  6 26  2  0
  7  9  1  0
  7 14  1  1
  8  6  1  0
  8  9  1  0
  8 13  1  0
  9 10  1  1
 10 11  1  0
 11 12  1  0
 12 13  2  0
 13 28  1  0
 15 18  1  0
 15 16  1  0
 16 17  1  0
 16 23  2  0
 17 14  1  0
 17 27  2  0
 18 19  2  0
 19 20  1  0
 19 22  1  0
 20 21  1  0
 21 15  2  0
 23 24  1  0
 24 25  1  0
 28 29  1  0
 28 30  2  0
M  END
>  <DRUGBANK_ID>  (1) 
DB11505

>  <COMMON_NAME>  (1) 
Cefovecin

>  <UNII>  (1) 
0D1OL46ZIE

>  <SYNONYMS>  (1) 
Cefovecin

$$$$
