
     RDKit          2D

 33 36  0  0  0  0  0  0  0  0999 V2000
    1.7868   -1.5938    0.0000 C   0  0  0  0  0  0  0  0  0  0  0  0
    1.0718   -1.1812    0.0000 C   0  0  0  0  0  0  0  0  0  0  0  0
    0.3568   -1.5938    0.0000 O   0  0  0  0  0  0  0  0  0  0  0  0
    0.3568   -2.4188    0.0000 C   0  0  0  0  0  0  0  0  0  0  0  0
   -0.3568   -2.8313    0.0000 C   0  0  0  0  0  0  0  0  0  0  0  0
   -0.3568   -3.6563    0.0000 O   0  0  0  0  0  0  0  0  0  0  0  0
    1.7868   -2.4188    0.0000 C   0  0  0  0  0  0  0  0  0  0  0  0
    1.0718   -2.8313    0.0000 C   0  0  0  0  0  0  0  0  0  0  0  0
    1.0718   -3.6563    0.0000 O   0  0  0  0  0  0  0  0  0  0  0  0
    1.0718   -0.3563    0.0000 O   0  0  0  0  0  0  0  0  0  0  0  0
    0.3568    0.0562    0.0000 C   0  0  0  0  0  0  0  0  0  0  0  0
   -0.3568   -0.3563    0.0000 C   0  0  0  0  0  0  0  0  0  0  0  0
   -0.3568   -1.1812    0.0000 O   0  0  0  0  0  0  0  0  0  0  0  0
   -0.3568    1.2938    0.0000 O   0  0  0  0  0  0  0  0  0  0  0  0
    0.3568    0.8812    0.0000 C   0  0  0  0  0  0  0  0  0  0  0  0
    1.0718    1.2938    0.0000 C   0  0  0  0  0  0  0  0  0  0  0  0
    1.0718    2.1188    0.0000 C   0  0  0  0  0  0  0  0  0  0  0  0
    1.7868    2.5313    0.0000 C   0  0  0  0  0  0  0  0  0  0  0  0
    2.5004    2.1188    0.0000 C   0  0  0  0  0  0  0  0  0  0  0  0
    3.2155    2.5313    0.0000 O   0  0  0  0  0  0  0  0  0  0  0  0
   -2.5005    0.0562    0.0000 C   0  0  0  0  0  0  0  0  0  0  0  0
   -1.7869   -0.3563    0.0000 C   0  0  0  0  0  0  0  0  0  0  0  0
   -1.0718    0.0562    0.0000 C   0  0  0  0  0  0  0  0  0  0  0  0
   -1.0718    0.8812    0.0000 C   0  0  0  0  0  0  0  0  0  0  0  0
   -1.7869    1.2938    0.0000 C   0  0  0  0  0  0  0  0  0  0  0  0
   -2.5005    0.8812    0.0000 C   0  0  0  0  0  0  0  0  0  0  0  0
   -3.2155    1.2938    0.0000 O   0  0  0  0  0  0  0  0  0  0  0  0
   -1.7869   -1.1812    0.0000 O   0  0  0  0  0  0  0  0  0  0  0  0
    1.7868    0.8812    0.0000 C   0  0  0  0  0  0  0  0  0  0  0  0
    2.5004    1.2938    0.0000 C   0  0  0  0  0  0  0  0  0  0  0  0
    3.2155    0.8812    0.0000 O   0  0  0  0  0  0  0  0  0  0  0  0
    2.5012   -1.1812    0.0000 O   0  0  0  0  0  0  0  0  0  0  0  0
    2.5012   -2.8314    0.0000 O   0  0  0  0  0  0  0  0  0  0  0  0
  1  2  1  0
  1  7  1  0
  1 32  1  6
  2  3  1  0
  2 10  1  1
  3  4  1  0
  4  5  1  1
  4  8  1  0
  5  6  1  0
  7  8  1  0
  7 33  1  1
  8  9  1  6
 10 11  1  0
 11 12  1  0
 11 15  2  0
 12 13  2  0
 12 23  1  0
 14 15  1  0
 14 24  1  0
 15 16  1  0
 16 17  2  0
 16 29  1  0
 17 18  1  0
 18 19  2  0
 19 20  1  0
 19 30  1  0
 21 22  1  0
 21 26  2  0
 22 23  2  0
 22 28  1  0
 23 24  1  0
 24 25  2  0
 25 26  1  0
 26 27  1  0
 29 30  2  0
 30 31  1  0
M  END
>  <DRUGBANK_ID>  (1) 
DB12665

>  <COMMON_NAME>  (1) 
Isoquercetin

>  <CAS_NUMBER>  (1) 
482-35-9

>  <UNII>  (1) 
6HN2PC637T

>  <SYNONYMS>  (1) 
Quercetin 3-O-glucopyranoside; Quercetin-3-O-glucoside

$$$$
