BBH
     RDKit          2D

 29 31  0  0  0  0  0  0  0  0999 V2000
    0.0597   -1.6118    0.0000 C   0  0  0  0  0  0  0  0  0  0  0  0
    0.7741   -2.0243    0.0000 C   0  0  0  0  0  0  0  0  0  0  0  0
    0.7741   -2.8493    0.0000 C   0  0  0  0  0  0  0  0  0  0  0  0
    0.0597   -3.2618    0.0000 C   0  0  0  0  0  0  0  0  0  0  0  0
   -0.6548   -2.8493    0.0000 C   0  0  0  0  0  0  0  0  0  0  0  0
   -0.6548   -2.0243    0.0000 C   0  0  0  0  0  0  0  0  0  0  0  0
    0.0597   -4.0868    0.0000 O   0  0  0  0  0  0  0  0  0  0  0  0
   -0.6548   -4.4993    0.0000 C   0  0  0  0  0  0  0  0  0  0  0  0
    0.0597   -0.7868    0.0000 S   0  0  0  0  0  0  0  0  0  0  0  0
    0.8847   -0.7868    0.0000 O   0  0  0  0  0  0  0  0  0  0  0  0
   -0.7653   -0.7868    0.0000 O   0  0  0  0  0  0  0  0  0  0  0  0
    0.0597    0.0382    0.0000 N   0  0  0  0  0  0  0  0  0  0  0  0
   -0.6548    0.4507    0.0000 C   0  0  0  0  0  0  0  0  0  0  0  0
   -0.6548    1.2757    0.0000 C   0  0  0  0  0  0  0  0  0  0  0  0
    0.0597    1.6882    0.0000 C   0  0  0  0  0  0  0  0  0  0  0  0
    0.7741    1.2757    0.0000 N   0  0  0  0  0  0  0  0  0  0  0  0
    0.7741    0.4507    0.0000 C   0  0  0  0  0  0  0  0  0  0  0  0
    0.0597    2.5132    0.0000 O   0  0  0  0  0  0  0  0  0  0  0  0
   -1.3693    0.0382    0.0000 C   0  0  0  0  0  0  0  0  0  0  0  0
   -1.3693   -0.7868    0.0000 N   0  0  0  0  0  0  0  0  0  0  0  0
   -2.0838   -1.1993    0.0000 O   0  0  0  0  0  0  0  0  0  0  0  0
   -2.0838    0.4507    0.0000 O   0  0  0  0  0  0  0  0  0  0  0  0
    1.4886    1.6882    0.0000 C   0  0  0  0  0  0  0  0  0  0  0  0
    2.2031    3.7507    0.0000 C   0  0  0  0  0  0  0  0  0  0  0  0
    2.2031    2.9257    0.0000 C   0  0  0  0  0  0  0  0  0  0  0  0
    1.4886    2.5132    0.0000 C   0  0  0  0  0  0  0  0  0  0  0  0
    0.7741    2.9257    0.0000 C   0  0  0  0  0  0  0  0  0  0  0  0
    0.7741    3.7507    0.0000 C   0  0  0  0  0  0  0  0  0  0  0  0
    1.4886    4.1632    0.0000 C   0  0  0  0  0  0  0  0  0  0  0  0
  1  2  2  0
  1  6  1  0
  1  9  1  0
  2  3  1  0
  3  4  2  0
  4  5  1  0
  4  7  1  0
  5  6  2  0
  7  8  1  0
  9 10  2  0
  9 11  2  0
  9 12  1  0
 12 13  1  0
 12 17  1  0
 13 14  1  0
 13 19  1  1
 14 15  1  0
 15 16  1  0
 15 18  2  0
 16 17  1  0
 16 23  1  0
 19 20  1  0
 19 22  2  0
 20 21  1  0
 23 26  1  0
 24 25  2  0
 24 29  1  0
 25 26  1  0
 26 27  2  0
 27 28  1  0
 28 29  2  0
M  END
>  <DRUGBANK_ID>  (1) 
DB04140

>  <SECONDARY_ACCESSION_NUMBERS>  (1) 
EXPT00633

>  <COMMON_NAME>  (1) 
1-Benzyl-3-(4-Methoxy-Benzenesulfonyl)-6-Oxo-Hexahydro-Pyrimidine-4-Carboxylic Acid Hydroxyamide

$$$$
