
     RDKit          2D

 11 11  0  0  0  0  0  0  0  0999 V2000
   -2.5443   -3.5082    0.0000 N   0  0  0  0  0  0  0  0  0  0  0  0
   -1.8298   -3.0957    0.0000 C   0  0  0  0  0  0  0  0  0  0  0  0
   -1.1154   -3.5082    0.0000 C   0  0  0  0  0  0  0  0  0  0  0  0
   -0.4009   -3.0957    0.0000 C   0  0  0  0  0  0  0  0  0  0  0  0
    0.3136   -3.5082    0.0000 C   0  0  0  0  0  0  0  0  0  0  0  0
    1.0280   -3.0957    0.0000 O   0  0  0  0  0  0  0  0  0  0  0  0
    1.7425   -3.5082    0.0000 B   0  0  0  0  0  0  0  0  0  0  0  0
    2.4962   -3.1727    0.0000 O   0  0  0  0  0  0  0  0  0  0  0  0
    3.0482   -3.7858    0.0000 C   0  0  0  0  0  0  0  0  0  0  0  0
    2.6357   -4.5002    0.0000 C   0  0  0  0  0  0  0  0  0  0  0  0
    1.8287   -4.3287    0.0000 O   0  0  0  0  0  0  0  0  0  0  0  0
  1  2  1  0
  2  3  1  0
  3  4  1  0
  4  5  1  0
  5  6  1  0
  6  7  1  0
  7  8  1  0
  7 11  1  0
  8  9  1  0
  9 10  1  0
 10 11  1  0
M  CHG  1   1   1
M  END
>  <DRUGBANK_ID>  (1) 
DB02308

>  <SECONDARY_ACCESSION_NUMBERS>  (1) 
EXPT01310

>  <COMMON_NAME>  (1) 
4-(1,3,2-Dioxaborolan-2-Yloxy)Butan-1-Aminium

$$$$
