
     RDKit          2D

 30 33  0  0  1  0  0  0  0  0999 V2000
   -0.2360   -0.1121    0.0000 C   0  0  0  0  0  0  0  0  0  0  0  0
    0.5562    0.1182    0.0000 C   0  0  0  0  0  0  0  0  0  0  0  0
    1.1517   -0.4527    0.0000 C   0  0  0  0  0  0  0  0  0  0  0  0
    0.9551   -1.2539    0.0000 N   0  0  0  0  0  0  0  0  0  0  0  0
    1.4877   -1.8839    0.0000 C   0  0  0  0  0  0  0  0  0  0  0  0
    2.3123   -1.9097    0.0000 C   0  0  0  0  0  0  0  0  0  0  0  0
    2.7469   -1.2084    0.0000 C   0  0  0  0  0  0  0  0  0  0  0  0
    3.5715   -1.2342    0.0000 C   0  0  0  0  0  0  0  0  0  0  0  0
    3.9615   -1.9612    0.0000 C   0  0  0  0  0  0  0  0  0  0  0  0
    3.5269   -2.6624    0.0000 C   0  0  0  0  0  0  0  0  0  0  0  0
    2.7023   -2.6367    0.0000 C   0  0  0  0  0  0  0  0  0  0  0  0
    2.2677   -3.3379    0.0000 N   0  0  0  0  0  0  0  0  0  0  0  0
    1.4431   -3.3122    0.0000 C   0  0  0  0  0  0  0  0  0  0  0  0
    1.0531   -2.5852    0.0000 C   0  0  0  0  0  0  0  0  0  0  0  0
    0.2519   -2.3885    0.0000 N   0  0  0  0  0  0  0  0  0  0  0  0
    0.1913   -1.5657    0.0000 C   0  0  0  0  0  0  0  0  0  0  0  0
   -0.5099   -1.1311    0.0000 O   0  0  0  0  0  0  0  0  0  0  0  0
   -0.3781   -2.9211    0.0000 C   0  0  0  0  0  0  0  0  0  0  0  0
    4.0061   -0.5330    0.0000 C   0  0  0  0  0  0  0  0  0  0  0  0
    3.6161    0.1940    0.0000 C   0  0  0  0  0  0  0  0  0  0  0  0
    4.0508    0.8953    0.0000 C   0  0  0  0  0  0  0  0  0  0  0  0
    4.8754    0.8695    0.0000 C   0  0  0  0  0  0  0  0  0  0  0  0
    5.2653    0.1425    0.0000 N   0  0  0  0  0  0  0  0  0  0  0  0
    4.8307   -0.5587    0.0000 C   0  0  0  0  0  0  0  0  0  0  0  0
    3.6608    1.6223    0.0000 C   0  0  0  0  0  0  0  0  0  0  0  0
    3.2708    2.3493    0.0000 C   0  0  0  0  0  0  0  0  0  0  0  0
    2.9338    1.2323    0.0000 C   0  0  0  0  0  0  0  0  0  0  0  0
    4.3878    2.0123    0.0000 O   0  0  0  0  0  0  0  0  0  0  0  0
    0.7528    0.9195    0.0000 O   0  0  0  0  0  0  0  0  0  0  0  0
    0.1573    1.4904    0.0000 C   0  0  0  0  0  0  0  0  0  0  0  0
  2  1  1  6
  2  3  1  0
  2 29  1  0
  3  4  1  0
  4  5  1  0
  4 16  1  0
  5  6  2  0
  5 14  1  0
  6  7  1  0
  6 11  1  0
  7  8  2  0
  8  9  1  0
  8 19  1  0
  9 10  2  0
 10 11  1  0
 11 12  2  0
 12 13  1  0
 13 14  2  0
 14 15  1  0
 15 16  1  0
 15 18  1  0
 16 17  2  0
 19 20  2  0
 19 24  1  0
 20 21  1  0
 21 22  2  0
 21 25  1  0
 22 23  1  0
 23 24  2  0
 25 26  1  0
 25 27  1  0
 25 28  1  0
 29 30  1  0
M  END
>  <DRUGBANK_ID>  (1) 
DB12167

>  <COMMON_NAME>  (1) 
LY-3023414

>  <CAS_NUMBER>  (1) 
1386874-06-1

>  <UNII>  (1) 
C88817F47Y

>  <SYNONYMS>  (1) 
Samotolisib

$$$$
