3B9
     RDKit          2D

 32 35  0  0  0  0  0  0  0  0999 V2000
    2.9719   -0.3408    0.0000 C   0  0  0  0  0  0  0  0  0  0  0  0
   -4.8873    0.0717    0.0000 C   0  0  0  0  0  0  0  0  0  0  0  0
   -4.1728    1.3092    0.0000 C   0  0  0  0  0  0  0  0  0  0  0  0
   -3.4583    0.0717    0.0000 C   0  0  0  0  0  0  0  0  0  0  0  0
   -1.3149   -0.3408    0.0000 C   0  0  0  0  0  0  0  0  0  0  0  0
   -3.4583    0.8967    0.0000 C   0  0  0  0  0  0  0  0  0  0  0  0
   -2.7439    1.3092    0.0000 C   0  0  0  0  0  0  0  0  0  0  0  0
   -2.0294    0.8967    0.0000 C   0  0  0  0  0  0  0  0  0  0  0  0
   -2.0294    0.0717    0.0000 C   0  0  0  0  0  0  0  0  0  0  0  0
   -0.6004   -0.7533    0.0000 C   0  0  0  0  0  0  0  0  0  0  0  0
   -4.8873    0.8967    0.0000 N   0  0  0  0  0  0  0  0  0  0  0  0
   -4.1728   -0.3408    0.0000 N   0  0  0  0  0  0  0  0  0  0  0  0
   -2.7439   -0.3408    0.0000 N   0  0  0  0  0  0  0  0  0  0  0  0
   -5.6017   -0.3408    0.0000 N   0  0  0  0  0  0  0  0  0  0  0  0
   -4.1728    2.1342    0.0000 N   0  0  0  0  0  0  0  0  0  0  0  0
   -1.7274   -1.0552    0.0000 C   0  0  0  0  0  0  0  0  0  0  0  0
   -0.9024    0.3737    0.0000 C   0  0  0  0  0  0  0  0  0  0  0  0
    0.1140   -0.3408    0.0000 N   0  0  0  0  0  0  0  0  0  0  0  0
    0.8285   -0.7533    0.0000 C   0  0  0  0  0  0  0  0  0  0  0  0
    0.8285   -1.5783    0.0000 O   0  0  0  0  0  0  0  0  0  0  0  0
    1.5430   -0.3408    0.0000 C   0  0  0  0  0  0  0  0  0  0  0  0
    2.2574   -0.7533    0.0000 C   0  0  0  0  0  0  0  0  0  0  0  0
    2.9719    0.4842    0.0000 C   0  0  0  0  0  0  0  0  0  0  0  0
    2.2574    0.8967    0.0000 C   0  0  0  0  0  0  0  0  0  0  0  0
    1.5430    0.4842    0.0000 C   0  0  0  0  0  0  0  0  0  0  0  0
    3.6864    0.8967    0.0000 O   0  0  0  0  0  0  0  0  0  0  0  0
    4.4008    0.4842    0.0000 C   0  0  0  0  0  0  0  0  0  0  0  0
    5.1153    0.8967    0.0000 C   0  0  0  0  0  0  0  0  0  0  0  0
    5.8298    0.4842    0.0000 C   0  0  0  0  0  0  0  0  0  0  0  0
    5.8298   -0.3408    0.0000 C   0  0  0  0  0  0  0  0  0  0  0  0
    5.1153   -0.7533    0.0000 C   0  0  0  0  0  0  0  0  0  0  0  0
    4.4008   -0.3408    0.0000 C   0  0  0  0  0  0  0  0  0  0  0  0
  1 22  2  0
  1 23  1  0
  2 11  2  0
  2 12  1  0
  2 14  1  0
  3  6  2  0
  3 11  1  0
  3 15  1  0
  4  6  1  0
  4 12  2  0
  4 13  1  0
  5  9  1  0
  5 10  1  0
  5 16  1  0
  5 17  1  0
  6  7  1  0
  7  8  2  0
  8  9  1  0
  9 13  2  0
 10 18  1  0
 18 19  1  0
 19 20  2  0
 19 21  1  0
 21 22  1  0
 21 25  2  0
 23 24  2  0
 23 26  1  0
 24 25  1  0
 26 27  1  0
 27 28  2  0
 27 32  1  0
 28 29  1  0
 29 30  2  0
 30 31  1  0
 31 32  2  0
M  END
>  <DRUGBANK_ID>  (1) 
DB07041

>  <COMMON_NAME>  (1) 
N-[2-(2,4-diaminopyrido[2,3-d]pyrimidin-7-yl)-2-methylpropyl]-4-phenoxybenzamide

$$$$
