IGP
     RDKit          2D

 19 20  0  0  0  0  0  0  0  0999 V2000
   -1.4809   -0.1139    0.0000 C   0  0  0  0  0  0  0  0  0  0  0  0
   -2.9098   -0.1139    0.0000 P   0  0  0  0  0  0  0  0  0  0  0  0
   -3.6243   -0.5264    0.0000 O   0  0  0  0  0  0  0  0  0  0  0  0
   -2.4973   -0.8284    0.0000 O   0  0  0  0  0  0  0  0  0  0  0  0
   -3.3223    0.6006    0.0000 O   0  0  0  0  0  0  0  0  0  0  0  0
   -2.1953    0.2986    0.0000 O   0  0  0  0  0  0  0  0  0  0  0  0
   -0.7664    0.2986    0.0000 C   0  0  0  0  0  0  0  0  0  0  0  0
   -0.7664    1.1236    0.0000 O   0  0  0  0  0  0  0  0  0  0  0  0
   -0.0519   -0.1139    0.0000 C   0  0  0  0  0  0  0  0  0  0  0  0
   -0.0519   -0.9389    0.0000 O   0  0  0  0  0  0  0  0  0  0  0  0
    0.6625    0.2986    0.0000 C   0  0  0  0  0  0  0  0  0  0  0  0
    1.4162   -0.0370    0.0000 C   0  0  0  0  0  0  0  0  0  0  0  0
    1.9682    0.5761    0.0000 C   0  0  0  0  0  0  0  0  0  0  0  0
    1.6712   -0.8216    0.0000 C   0  0  0  0  0  0  0  0  0  0  0  0
    0.7488    1.1191    0.0000 C   0  0  0  0  0  0  0  0  0  0  0  0
    1.5557    1.2906    0.0000 N   0  0  0  0  0  0  0  0  0  0  0  0
    2.7752    0.4046    0.0000 C   0  0  0  0  0  0  0  0  0  0  0  0
    2.4781   -0.9931    0.0000 C   0  0  0  0  0  0  0  0  0  0  0  0
    3.0302   -0.3800    0.0000 C   0  0  0  0  0  0  0  0  0  0  0  0
  1  6  1  0
  1  7  1  0
  2  3  1  0
  2  4  1  0
  2  5  2  0
  2  6  1  0
  7  8  1  1
  7  9  1  0
  9 10  1  6
  9 11  1  0
 11 12  1  0
 11 15  2  0
 12 13  2  0
 12 14  1  0
 13 16  1  0
 13 17  1  0
 14 18  2  0
 15 16  1  0
 17 19  2  0
 18 19  1  0
M  END
>  <DRUGBANK_ID>  (1) 
DB04143

>  <SECONDARY_ACCESSION_NUMBERS>  (1) 
EXPT01850

>  <COMMON_NAME>  (1) 
Indole-3-Glycerol Phosphate

$$$$
