
     RDKit          2D

  8  7  0  0  0  0  0  0  0  0999 V2000
   -0.3572   -0.2061    0.0000 C   0  0  0  0  0  0  0  0  0  0  0  0
    0.3572    0.2063    0.0000 C   0  0  0  0  0  0  0  0  0  0  0  0
   -1.7862   -0.2061    0.0000 O   0  0  0  0  0  0  0  0  0  0  0  0
    1.7862    0.2062    0.0000 O   0  0  0  0  0  0  0  0  0  0  0  0
   -0.3572   -1.0312    0.0000 O   0  0  0  0  0  0  0  0  0  0  0  0
    0.3572    1.0312    0.0000 O   0  0  0  0  0  0  0  0  0  0  0  0
   -1.0717    0.2063    0.0000 C   0  0  0  0  0  0  0  0  0  0  0  0
    1.0717   -0.2062    0.0000 C   0  0  0  0  0  0  0  0  0  0  0  0
  1  7  1  0
  1  2  1  0
  1  5  1  1
  2  8  1  0
  2  6  1  6
  3  7  1  0
  4  8  1  0
M  END
>  <DRUGBANK_ID>  (1) 
DB04481

>  <SECONDARY_ACCESSION_NUMBERS>  (1) 
EXPT02232

>  <COMMON_NAME>  (1) 
Erythritol

>  <CAS_NUMBER>  (1) 
149-32-6

>  <UNII>  (1) 
RA96B954X6

>  <SYNONYMS>  (1) 
(2R,3S)-butane-1,2,3,4-tetrol; Erythrit; Erythrite; Erythritol; Erythro-tetritol; Erythrol; L-erythritol; Mesoerythritol; Phycite; Phycitol

$$$$
