
     RDKit          2D

 36 38  0  0  0  0  0  0  0  0999 V2000
   -1.0895   -1.7970    0.0000 P   0  0  0  0  0  0  0  0  0  0  0  0
   -0.3750   -0.5595    0.0000 P   0  0  0  0  0  0  0  0  0  0  0  0
    1.1401    1.9108    0.0000 O   0  0  0  0  0  0  0  0  0  0  0  0
   -2.5184   -2.6220    0.0000 O   0  0  0  0  0  0  0  0  0  0  0  0
    1.9791   -0.0521    0.0000 O   0  0  0  0  0  0  0  0  0  0  0  0
    3.1800    1.2817    0.0000 O   0  0  0  0  0  0  0  0  0  0  0  0
   -1.0895   -2.6220    0.0000 O   0  0  0  0  0  0  0  0  0  0  0  0
   -2.5184   -5.0970    0.0000 O   0  0  0  0  0  0  0  0  0  0  0  0
   -3.9474   -4.2720    0.0000 O   0  0  0  0  0  0  0  0  0  0  0  0
    0.3394   -0.1470    0.0000 O   0  0  0  0  0  0  0  0  0  0  0  0
   -1.0895   -4.2720    0.0000 O   0  0  0  0  0  0  0  0  0  0  0  0
   -1.0895   -0.9720    0.0000 O   0  0  0  0  0  0  0  0  0  0  0  0
   -3.9474   -1.7970    0.0000 O   0  0  0  0  0  0  0  0  0  0  0  0
    3.5880    2.2548    0.0000 O   0  0  0  0  0  0  0  0  0  0  0  0
   -0.2645   -1.7970    0.0000 O   0  0  0  0  0  0  0  0  0  0  0  0
   -0.7875    0.1548    0.0000 O   0  0  0  0  0  0  0  0  0  0  0  0
   -1.9145   -1.7970    0.0000 O   0  0  0  0  0  0  0  0  0  0  0  0
    0.0374   -1.2740    0.0000 O   0  0  0  0  0  0  0  0  0  0  0  0
    3.2893    5.0970    0.0000 O   0  0  0  0  0  0  0  0  0  0  0  0
    2.2826    2.8361    0.0000 N   0  0  0  0  0  0  0  0  0  0  0  0
    3.4387    3.6759    0.0000 N   0  0  0  0  0  0  0  0  0  0  0  0
    1.8076    0.7548    0.0000 C   0  0  0  0  0  0  0  0  0  0  0  0
    2.3596    1.3679    0.0000 C   0  0  0  0  0  0  0  0  0  0  0  0
    1.0538    1.0904    0.0000 C   0  0  0  0  0  0  0  0  0  0  0  0
    1.9471    2.0823    0.0000 C   0  0  0  0  0  0  0  0  0  0  0  0
   -2.5184   -4.2720    0.0000 C   0  0  0  0  0  0  0  0  0  0  0  0
   -3.2328   -3.8595    0.0000 C   0  0  0  0  0  0  0  0  0  0  0  0
   -1.8039   -3.8595    0.0000 C   0  0  0  0  0  0  0  0  0  0  0  0
   -3.2328   -3.0345    0.0000 C   0  0  0  0  0  0  0  0  0  0  0  0
   -1.8039   -3.0345    0.0000 C   0  0  0  0  0  0  0  0  0  0  0  0
    0.3394    0.6779    0.0000 C   0  0  0  0  0  0  0  0  0  0  0  0
   -3.9474   -2.6220    0.0000 C   0  0  0  0  0  0  0  0  0  0  0  0
    3.1031    2.9223    0.0000 C   0  0  0  0  0  0  0  0  0  0  0  0
    1.7977    3.5035    0.0000 C   0  0  0  0  0  0  0  0  0  0  0  0
    2.1333    4.2571    0.0000 C   0  0  0  0  0  0  0  0  0  0  0  0
    2.9537    4.3434    0.0000 C   0  0  0  0  0  0  0  0  0  0  0  0
  1  7  1  0
  1 12  1  0
  1 15  1  0
  1 17  2  0
  2 10  1  0
  2 12  1  0
  2 16  1  0
  2 18  2  0
  3 24  1  0
  3 25  1  0
  4 29  1  0
  4 30  1  0
 10 31  1  0
 13 32  1  0
 14 33  2  0
 19 36  2  0
 20 33  1  0
 20 34  1  0
 21 33  1  0
 21 36  1  0
 22  5  1  6
 22 23  1  0
 22 24  1  0
 23  6  1  6
 23 25  1  0
 24 31  1  1
 25 20  1  1
 26  8  1  1
 26 27  1  0
 26 28  1  0
 27  9  1  6
 27 29  1  0
 28 11  1  1
 28 30  1  0
 29 32  1  1
 30  7  1  6
 34 35  2  0
 35 36  1  0
M  END
>  <DRUGBANK_ID>  (1) 
DB02421

>  <SECONDARY_ACCESSION_NUMBERS>  (1) 
EXPT03175

>  <COMMON_NAME>  (1) 
Uridine-5'-diphosphate-mannose

$$$$
