
     RDKit          2D

 32 35  0  0  1  0  0  0  0  0999 V2000
    8.1546   -2.3680    0.0000 Cl  0  0  0  0  0  0  0  0  0  0  0  0
    6.7416   -2.1550    0.0000 O   0  0  0  0  0  0  0  0  0  0  0  0
    4.0630    1.5562    0.0000 O   0  0  0  0  0  0  0  0  0  0  0  0
    6.2196   -0.8249    0.0000 N   0  0  0  0  0  0  0  0  0  0  0  0
    9.9366   -0.1336    0.0000 N   0  0  0  0  0  0  0  0  0  0  0  0
    2.6976    1.1351    0.0000 N   0  0  0  0  0  0  0  0  0  0  0  0
    4.5494   -0.0205    0.0000 C   0  0  0  0  0  0  0  0  0  0  0  0
    5.0638    0.6245    0.0000 C   0  0  0  0  0  0  0  0  0  0  0  0
    5.8888    0.6245    0.0000 C   0  0  0  0  0  0  0  0  0  0  0  0
    4.7329   -0.8249    0.0000 C   0  0  0  0  0  0  0  0  0  0  0  0
    6.4032   -0.0205    0.0000 C   0  0  0  0  0  0  0  0  0  0  0  0
    3.7451    0.1631    0.0000 C   0  0  0  0  0  0  0  0  0  0  0  0
    5.4763   -1.1827    0.0000 C   0  0  0  0  0  0  0  0  0  0  0  0
   10.6318   -0.5777    0.0000 C   0  0  0  0  0  0  0  0  0  0  0  0
   10.1441    0.6650    0.0000 C   0  0  0  0  0  0  0  0  0  0  0  0
   11.2690   -0.0537    0.0000 C   0  0  0  0  0  0  0  0  0  0  0  0
   10.9677    0.7143    0.0000 C   0  0  0  0  0  0  0  0  0  0  0  0
    4.0155   -1.2979    0.0000 C   0  0  0  0  0  0  0  0  0  0  0  0
    9.1686   -0.4349    0.0000 C   0  0  0  0  0  0  0  0  0  0  0  0
    6.8646   -1.3392    0.0000 C   0  0  0  0  0  0  0  0  0  0  0  0
    5.5537   -2.0386    0.0000 C   0  0  0  0  0  0  0  0  0  0  0  0
    3.5019    0.9515    0.0000 C   0  0  0  0  0  0  0  0  0  0  0  0
    7.6326   -1.0378    0.0000 C   0  0  0  0  0  0  0  0  0  0  0  0
    4.0732   -2.1554    0.0000 C   0  0  0  0  0  0  0  0  0  0  0  0
    4.8474   -2.5282    0.0000 C   0  0  0  0  0  0  0  0  0  0  0  0
    9.0456   -1.2507    0.0000 C   0  0  0  0  0  0  0  0  0  0  0  0
    8.5236    0.0794    0.0000 C   0  0  0  0  0  0  0  0  0  0  0  0
    8.2776   -1.5522    0.0000 C   0  0  0  0  0  0  0  0  0  0  0  0
    7.7556   -0.2220    0.0000 C   0  0  0  0  0  0  0  0  0  0  0  0
    2.4543    1.9234    0.0000 C   0  0  0  0  0  0  0  0  0  0  0  0
    3.0155    2.5282    0.0000 C   0  0  0  0  0  0  0  0  0  0  0  0
    1.6500    2.1070    0.0000 C   0  0  0  0  0  0  0  0  0  0  0  0
  1 28  1  0
  2 20  2  0
  3 22  2  0
  4 11  1  0
  4 13  1  0
  4 20  1  0
  5 14  1  0
  5 15  1  0
  5 19  1  0
  6 22  1  0
  6 30  1  0
  7  8  1  0
  7 10  1  0
  7 12  1  1
  8  9  1  0
  9 11  1  0
 10 13  2  0
 10 18  1  0
 12 22  1  0
 13 21  1  0
 14 16  1  0
 15 17  1  0
 16 17  1  0
 18 24  2  0
 19 26  2  0
 19 27  1  0
 20 23  1  0
 21 25  2  0
 23 28  2  0
 23 29  1  0
 24 25  1  0
 26 28  1  0
 27 29  2  0
 30 31  1  0
 30 32  1  0
M  END
>  <DRUGBANK_ID>  (1) 
DB05838

>  <COMMON_NAME>  (1) 
OPC-51803

>  <UNII>  (1) 
1IGV6WTK9I

$$$$
