
     RDKit          2D

  3  0  0  0  0  0  0  0  0  0999 V2000
   -0.4125    0.0000    0.0000 Ca  0  0  0  0  0 15  0  0  0  0  0  0
    0.4125   -0.8250    0.0000 Cl  0  0  0  0  0  0  0  0  0  0  0  0
    0.4125    0.8250    0.0000 Cl  0  0  0  0  0  0  0  0  0  0  0  0
M  CHG  3   1   2   2  -1   3  -1
M  END
>  <DRUGBANK_ID>  (1) 
DB01164

>  <SECONDARY_ACCESSION_NUMBERS>  (1) 
APRD00840

>  <COMMON_NAME>  (1) 
Calcium chloride

>  <CAS_NUMBER>  (1) 
10043-52-4

>  <UNII>  (1) 
OFM21057LP

>  <SYNONYMS>  (1) 
Calcio cloruro; Calcium chloride anhydrous; Calcium chloride, anhydrous; calcium(2+) chloride

$$$$
