
     RDKit          2D

 29 33  0  0  0  0  0  0  0  0999 V2000
    0.7145   -1.1083    0.0000 C   0  0  0  0  0  0  0  0  0  0  0  0
    1.4312   -1.5207    0.0000 C   0  0  0  0  0  0  0  0  0  0  0  0
   -0.0020   -1.5207    0.0000 C   0  0  0  0  0  0  0  0  0  0  0  0
    1.4312   -2.3457    0.0000 C   0  0  0  0  0  0  0  0  0  0  0  0
   -0.0020   -2.3457    0.0000 C   0  0  0  0  0  0  0  0  0  0  0  0
    0.7145   -0.2833    0.0000 C   0  0  0  0  0  0  0  0  0  0  0  0
    2.2145   -1.2665    0.0000 C   0  0  0  0  0  0  0  0  0  0  0  0
   -0.7145   -1.1083    0.0000 C   0  0  0  0  0  0  0  0  0  0  0  0
    0.7145    1.3665    0.0000 C   0  0  0  0  0  0  0  0  0  0  0  0
    0.7145   -2.7583    0.0000 C   0  0  0  0  0  0  0  0  0  0  0  0
    2.6977   -1.9333    0.0000 O   0  0  0  0  0  0  0  0  0  0  0  0
   -0.0020    0.9541    0.0000 C   0  0  0  0  0  0  0  0  0  0  0  0
    1.4312    0.9541    0.0000 C   0  0  0  0  0  0  0  0  0  0  0  0
   -1.4270   -1.5207    0.0000 C   0  0  0  0  0  0  0  0  0  0  0  0
   -1.4270   -2.3457    0.0000 C   0  0  0  0  0  0  0  0  0  0  0  0
   -0.0020    0.1291    0.0000 C   0  0  0  0  0  0  0  0  0  0  0  0
    1.4312    0.1291    0.0000 C   0  0  0  0  0  0  0  0  0  0  0  0
   -0.7145   -2.7583    0.0000 C   0  0  0  0  0  0  0  0  0  0  0  0
    2.2145   -2.5999    0.0000 C   0  0  0  0  0  0  0  0  0  0  0  0
   -2.2145   -1.2665    0.0000 O   0  0  0  0  0  0  0  0  0  0  0  0
   -2.2145   -2.5999    0.0000 O   0  0  0  0  0  0  0  0  0  0  0  0
   -2.6977   -1.9333    0.0000 C   0  0  0  0  0  0  0  0  0  0  0  0
    2.4687   -0.4791    0.0000 O   0  0  0  0  0  0  0  0  0  0  0  0
    0.7145    2.3457    0.0000 O   0  0  0  0  0  0  0  0  0  0  0  0
    2.1436    1.3665    0.0000 O   0  0  0  0  0  0  0  0  0  0  0  0
   -0.7145    1.3665    0.0000 O   0  0  0  0  0  0  0  0  0  0  0  0
    1.4312    2.7583    0.0000 C   0  0  0  0  0  0  0  0  0  0  0  0
    2.1436    2.1915    0.0000 C   0  0  0  0  0  0  0  0  0  0  0  0
   -0.7145    2.1915    0.0000 C   0  0  0  0  0  0  0  0  0  0  0  0
  1  6  1  1
  2  1  1  0
  3  1  1  0
  4  2  2  0
  4 10  1  0
  5  3  2  0
  7  2  1  0
  8  3  1  0
  9 13  2  0
  9 12  1  0
 10  5  1  0
 11  7  1  0
 12 16  2  0
 13 17  1  0
 14  8  2  0
 15 18  2  0
 15 14  1  0
 16  6  1  0
 17  6  2  0
 18  5  1  0
 19  4  1  0
 19 11  1  0
 20 14  1  0
 21 15  1  0
 22 20  1  0
 22 21  1  0
 23  7  2  0
 24  9  1  0
 25 13  1  0
 26 12  1  0
 27 24  1  0
 28 25  1  0
 29 26  1  0
M  END
>  <DRUGBANK_ID>  (1) 
DB15590

>  <COMMON_NAME>  (1) 
beta-Apopicropodophyllin

>  <CAS_NUMBER>  (1) 
477-52-1

>  <SYNONYMS>  (1) 
beta-Apopicropodophyllin; Î²-apopicropodophyllin

$$$$
