ET0
     RDKit          2D

 16 17  0  0  0  0  0  0  0  0999 V2000
   -0.5018   -1.5713    0.0000 N   0  0  0  0  0  0  0  0  0  0  0  0
    0.2828   -1.3164    0.0000 C   0  0  0  0  0  0  0  0  0  0  0  0
   -1.8186    1.5043    0.0000 C   0  0  0  0  0  0  0  0  0  0  0  0
    0.9973   -0.0789    0.0000 C   0  0  0  0  0  0  0  0  0  0  0  0
   -0.7567    0.5482    0.0000 C   0  0  0  0  0  0  0  0  0  0  0  0
    0.9973   -1.7289    0.0000 C   0  0  0  0  0  0  0  0  0  0  0  0
    1.7118   -0.4914    0.0000 C   0  0  0  0  0  0  0  0  0  0  0  0
   -2.6256    1.6759    0.0000 O   0  0  0  0  0  0  0  0  0  0  0  0
   -1.2666    2.1174    0.0000 O   0  0  0  0  0  0  0  0  0  0  0  0
   -1.5637    0.7197    0.0000 C   0  0  0  0  0  0  0  0  0  0  0  0
   -0.5018   -0.2364    0.0000 C   0  0  0  0  0  0  0  0  0  0  0  0
   -0.9867   -0.9039    0.0000 C   0  0  0  0  0  0  0  0  0  0  0  0
    0.2828   -0.4914    0.0000 C   0  0  0  0  0  0  0  0  0  0  0  0
    1.7118   -1.3164    0.0000 C   0  0  0  0  0  0  0  0  0  0  0  0
    2.4263   -0.0789    0.0000 O   0  0  0  0  0  0  0  0  0  0  0  0
    2.4263    0.7461    0.0000 C   0  0  0  0  0  0  0  0  0  0  0  0
  1 12  1  0
  2  1  1  0
  2 13  2  0
  3  8  2  0
  3  9  1  0
  4 13  1  0
  5 10  1  0
  6  2  1  0
  7  4  2  0
 10  3  1  0
 11  5  1  0
 11 12  2  0
 13 11  1  0
 14  6  2  0
 14  7  1  0
 15  7  1  0
 16 15  1  0
M  END
>  <DRUGBANK_ID>  (1) 
DB07723

>  <COMMON_NAME>  (1) 
3-(5-methoxy-1H-indol-3-yl)propanoic acid

>  <UNII>  (1) 
CS268A9K9W

$$$$
