LAZ
     RDKit          2D

 13 13  0  0  0  0  0  0  0  0999 V2000
   -0.0081   -1.3559    0.0000 O   0  0  0  0  0  0  0  0  0  0  0  0
   -0.0081   -0.5309    0.0000 C   0  0  0  0  0  0  0  0  0  0  0  0
    0.7064   -0.1184    0.0000 N   0  0  0  0  0  0  0  0  0  0  0  0
    1.4208   -0.5309    0.0000 C   0  0  0  0  0  0  0  0  0  0  0  0
    2.1353   -0.1184    0.0000 C   0  0  0  0  0  0  0  0  0  0  0  0
    2.8498   -0.5309    0.0000 O   0  0  0  0  0  0  0  0  0  0  0  0
   -0.7226   -0.1184    0.0000 C   0  0  0  0  0  0  0  0  0  0  0  0
   -1.4370   -0.5309    0.0000 C   0  0  0  0  0  0  0  0  0  0  0  0
   -2.1515   -0.1184    0.0000 C   0  0  0  0  0  0  0  0  0  0  0  0
   -2.1515    0.7066    0.0000 C   0  0  0  0  0  0  0  0  0  0  0  0
   -2.8660    1.1191    0.0000 Cl  0  0  0  0  0  0  0  0  0  0  0  0
   -1.4370    1.1191    0.0000 C   0  0  0  0  0  0  0  0  0  0  0  0
   -0.7226    0.7066    0.0000 C   0  0  0  0  0  0  0  0  0  0  0  0
  1  2  2  0
  2  3  1  0
  2  7  1  0
  3  4  1  0
  4  5  1  0
  5  6  1  0
  7  8  2  0
  7 13  1  0
  8  9  1  0
  9 10  2  0
 10 11  1  0
 10 12  1  0
 12 13  2  0
M  END
>  <DRUGBANK_ID>  (1) 
DB08082

>  <COMMON_NAME>  (1) 
N-(2-AMINOETHYL)-P-CHLOROBENZAMIDE

>  <UNII>  (1) 
9CYV9RP6X6

$$$$
