BZN
     RDKit          2D

 29 31  0  0  0  0  0  0  0  0999 V2000
    0.8038   -0.4054    0.0000 C   0  0  0  0  0  0  0  0  0  0  0  0
    0.0501   -0.0698    0.0000 C   0  0  0  0  0  0  0  0  0  0  0  0
    0.1363    0.7507    0.0000 C   0  0  0  0  0  0  0  0  0  0  0  0
    0.9433    0.9222    0.0000 C   0  0  0  0  0  0  0  0  0  0  0  0
   -0.4768    1.3027    0.0000 C   0  0  0  0  0  0  0  0  0  0  0  0
    1.3558    0.2077    0.0000 N   0  0  0  0  0  0  0  0  0  0  0  0
   -0.6644   -0.4823    0.0000 C   0  0  0  0  0  0  0  0  0  0  0  0
   -0.6644   -1.3073    0.0000 N   0  0  0  0  0  0  0  0  0  0  0  0
   -1.3789   -1.7198    0.0000 C   0  0  0  0  0  0  0  0  0  0  0  0
   -1.3789   -2.5448    0.0000 C   0  0  0  0  0  0  0  0  0  0  0  0
   -0.6644   -2.9573    0.0000 C   0  0  0  0  0  0  0  0  0  0  0  0
   -2.0933   -2.9573    0.0000 C   0  0  0  0  0  0  0  0  0  0  0  0
    0.0501   -1.7198    0.0000 S   0  0  0  0  0  0  0  0  0  0  0  0
   -0.3624   -2.4343    0.0000 O   0  0  0  0  0  0  0  0  0  0  0  0
    0.4626   -1.0054    0.0000 O   0  0  0  0  0  0  0  0  0  0  0  0
    0.7646   -2.1323    0.0000 C   0  0  0  0  0  0  0  0  0  0  0  0
    1.4790   -1.7198    0.0000 C   0  0  0  0  0  0  0  0  0  0  0  0
    2.1935   -2.1323    0.0000 C   0  0  0  0  0  0  0  0  0  0  0  0
    2.1935   -2.9573    0.0000 C   0  0  0  0  0  0  0  0  0  0  0  0
    1.4790   -3.3698    0.0000 C   0  0  0  0  0  0  0  0  0  0  0  0
    0.7646   -2.9573    0.0000 C   0  0  0  0  0  0  0  0  0  0  0  0
   -0.3053    2.1097    0.0000 O   0  0  0  0  0  0  0  0  0  0  0  0
   -0.9183    2.6617    0.0000 C   0  0  0  0  0  0  0  0  0  0  0  0
   -0.7468    3.4687    0.0000 C   0  0  0  0  0  0  0  0  0  0  0  0
   -1.3599    4.0207    0.0000 C   0  0  0  0  0  0  0  0  0  0  0  0
   -1.1884    4.8277    0.0000 C   0  0  0  0  0  0  0  0  0  0  0  0
   -0.4038    5.0826    0.0000 C   0  0  0  0  0  0  0  0  0  0  0  0
    0.2093    4.5306    0.0000 C   0  0  0  0  0  0  0  0  0  0  0  0
    0.0378    3.7236    0.0000 C   0  0  0  0  0  0  0  0  0  0  0  0
  1  2  1  0
  1  6  1  0
  2  3  1  0
  2  7  1  6
  3  4  1  0
  3  5  1  1
  4  6  1  0
  5 22  1  0
  7  8  1  0
  8  9  1  0
  8 13  1  0
  9 10  1  0
 10 11  1  0
 10 12  1  0
 13 14  2  0
 13 15  2  0
 13 16  1  0
 16 17  2  0
 16 21  1  0
 17 18  1  0
 18 19  2  0
 19 20  1  0
 20 21  2  0
 22 23  1  0
 23 24  1  0
 24 25  2  0
 24 29  1  0
 25 26  1  0
 26 27  2  0
 27 28  1  0
 28 29  2  0
M  END
>  <DRUGBANK_ID>  (1) 
DB07505

>  <COMMON_NAME>  (1) 
N-({(3R,4R)-4-[(benzyloxy)methyl]pyrrolidin-3-yl}methyl)-N-(2-methylpropyl)benzenesulfonamide

$$$$
