
     RDKit          2D

  9  8  0  0  0  0  0  0  0  0999 V2000
    0.8250    0.8250    0.0000 O   0  0  0  0  0  0  0  0  0  0  0  0
    0.8250   -0.8250    0.0000 O   0  0  0  0  0  0  0  0  0  0  0  0
    0.8250    0.0000    0.0000 Cr  0  0  0  0  0  6  0  0  0  0  0  0
    0.0000    0.0000    0.0000 O   0  0  0  0  0  0  0  0  0  0  0  0
   -0.8250    0.8250    0.0000 O   0  0  0  0  0  0  0  0  0  0  0  0
   -0.8250   -0.8250    0.0000 O   0  0  0  0  0  0  0  0  0  0  0  0
   -0.8250    0.0000    0.0000 Cr  0  0  0  0  0  6  0  0  0  0  0  0
    1.6500    0.0000    0.0000 O   0  0  0  0  0  0  0  0  0  0  0  0
   -1.6500    0.0000    0.0000 O   0  0  0  0  0  0  0  0  0  0  0  0
  3  1  2  0
  3  2  2  0
  3  8  1  0
  3  4  1  0
  7  4  1  0
  7  5  2  0
  7  6  2  0
  7  9  1  0
M  CHG  2   8  -1   9  -1
M  END
>  <DRUGBANK_ID>  (1) 
DB14182

>  <COMMON_NAME>  (1) 
Dichromate

>  <CAS_NUMBER>  (1) 
13907-47-6

>  <UNII>  (1) 
9LKY4BFN2V

>  <SYNONYMS>  (1) 
Bichromate; Dichromat; Dichromate ion; dichromate ion(2−); dichromate(2−)

$$$$
