
     RDKit          2D

 17 18  0  0  0  0  0  0  0  0999 V2000
   -0.8473   -0.1689    0.0000 N   0  0  0  0  0  0  0  0  0  0  0  0
   -1.5618   -0.5814    0.0000 C   0  0  0  0  0  0  0  0  0  0  0  0
   -0.0937   -0.5045    0.0000 C   0  0  0  0  0  0  0  0  0  0  0  0
   -0.7611    0.6515    0.0000 N   0  0  0  0  0  0  0  0  0  0  0  0
   -2.2763   -0.1688    0.0000 C   0  0  0  0  0  0  0  0  0  0  0  0
   -1.5619   -1.4064    0.0000 C   0  0  0  0  0  0  0  0  0  0  0  0
    0.4583    0.1085    0.0000 C   0  0  0  0  0  0  0  0  0  0  0  0
    0.0776   -1.3115    0.0000 O   0  0  0  0  0  0  0  0  0  0  0  0
    0.0458    0.8230    0.0000 C   0  0  0  0  0  0  0  0  0  0  0  0
   -2.9908   -0.5813    0.0000 C   0  0  0  0  0  0  0  0  0  0  0  0
   -2.2764   -1.8188    0.0000 C   0  0  0  0  0  0  0  0  0  0  0  0
    1.2787    0.0221    0.0000 C   0  0  0  0  0  0  0  0  0  0  0  0
    0.3814    1.5766    0.0000 O   0  0  0  0  0  0  0  0  0  0  0  0
   -2.9908   -1.4063    0.0000 C   0  0  0  0  0  0  0  0  0  0  0  0
    1.7637    0.6895    0.0000 C   0  0  0  0  0  0  0  0  0  0  0  0
    2.5842    0.6033    0.0000 C   0  0  0  0  0  0  0  0  0  0  0  0
    3.0691    1.2707    0.0000 C   0  0  0  0  0  0  0  0  0  0  0  0
  1  2  1  0
  1  3  1  0
  1  4  1  0
  2  5  2  0
  2  6  1  0
  3  7  1  0
  3  8  2  0
  4  9  1  0
  5 10  1  0
  6 11  2  0
  7 12  1  0
  7  9  1  0
  9 13  2  0
 10 14  2  0
 11 14  1  0
 12 15  1  0
 15 16  1  0
 16 17  1  0
M  END
>  <DRUGBANK_ID>  (1) 
DB13629

>  <COMMON_NAME>  (1) 
Mofebutazone

>  <CAS_NUMBER>  (1) 
2210-63-1

>  <UNII>  (1) 
SPW36WUI5Z

>  <SYNONYMS>  (1) 
Mofebutazona; Mofebutazone; Mofebutazonum

$$$$
