
     RDKit          2D

 34 36  0  0  0  0  0  0  0  0999 V2000
    3.5755   10.8500    0.0000 C   0  0  0  0  0  0  0  0  0  0  0  0
    4.0402   10.1683    0.0000 C   0  0  0  0  0  0  0  0  0  0  0  0
    3.6822    9.4250    0.0000 C   0  0  0  0  0  0  0  0  0  0  0  0
    4.1470    8.7434    0.0000 C   0  0  0  0  0  0  0  0  0  0  0  0
    3.7890    8.0001    0.0000 C   0  0  0  0  0  0  0  0  0  0  0  0
    4.2538    7.3184    0.0000 C   0  0  0  0  0  0  0  0  0  0  0  0
    3.8958    6.5751    0.0000 C   0  0  0  0  0  0  0  0  0  0  0  0
    4.3606    5.8935    0.0000 C   0  0  0  0  0  0  0  0  0  0  0  0
    4.0026    5.1502    0.0000 C   0  0  0  0  0  0  0  0  0  0  0  0
    4.4673    4.4685    0.0000 C   0  0  0  0  0  0  0  0  0  0  0  0
    4.1094    3.7252    0.0000 C   0  0  0  0  0  0  0  0  0  0  0  0
    4.5741    3.0436    0.0000 C   0  0  0  0  0  0  0  0  0  0  0  0
    4.2162    2.3003    0.0000 N   0  0  0  0  0  0  0  0  0  0  0  0
    4.7305    1.6553    0.0000 C   0  0  0  0  0  0  0  0  0  0  0  0
    5.5189    1.8985    0.0000 C   0  0  0  0  0  0  0  0  0  0  0  0
    6.1237    1.3373    0.0000 C   0  0  0  0  0  0  0  0  0  0  0  0
    5.9401    0.5330    0.0000 C   0  0  0  0  0  0  0  0  0  0  0  0
    5.1517    0.2898    0.0000 C   0  0  0  0  0  0  0  0  0  0  0  0
    4.5470    0.8510    0.0000 C   0  0  0  0  0  0  0  0  0  0  0  0
    3.8037    0.4930    0.0000 N   0  0  0  0  0  0  0  0  0  0  0  0
    3.0604    0.8510    0.0000 C   0  0  0  0  0  0  0  0  0  0  0  0
    2.8768    1.6553    0.0000 C   0  0  0  0  0  0  0  0  0  0  0  0
    2.0884    1.8985    0.0000 C   0  0  0  0  0  0  0  0  0  0  0  0
    1.4837    1.3373    0.0000 C   0  0  0  0  0  0  0  0  0  0  0  0
    1.6673    0.5330    0.0000 C   0  0  0  0  0  0  0  0  0  0  0  0
    2.4556    0.2898    0.0000 C   0  0  0  0  0  0  0  0  0  0  0  0
    2.6392   -0.5145    0.0000 O   0  0  0  0  0  0  0  0  0  0  0  0
    3.3912    2.3003    0.0000 C   0  0  0  0  0  0  0  0  0  0  0  0
    3.0332    3.0436    0.0000 O   0  0  0  0  0  0  0  0  0  0  0  0
    4.9682   -0.5145    0.0000 O   0  0  0  0  0  0  0  0  0  0  0  0
    6.9120    1.5805    0.0000 O   0  0  0  0  0  0  0  0  0  0  0  0
    5.2900    4.5302    0.0000 C   0  0  0  0  0  0  0  0  0  0  0  0
    5.0765    7.3801    0.0000 C   0  0  0  0  0  0  0  0  0  0  0  0
    4.8629   10.2300    0.0000 C   0  0  0  0  0  0  0  0  0  0  0  0
  1  2  1  0
  2  3  2  3
  2 34  1  0
  3  4  1  0
  4  5  1  0
  5  6  1  0
  6  7  2  0
  6 33  1  0
  7  8  1  0
  8  9  1  0
  9 10  1  0
 10 11  2  0
 10 32  1  0
 11 12  1  0
 12 13  1  0
 13 14  1  0
 13 28  1  0
 14 15  2  0
 14 19  1  0
 15 16  1  0
 16 17  2  0
 16 31  1  0
 17 18  1  0
 18 19  2  0
 18 30  1  0
 19 20  1  0
 20 21  1  0
 21 22  2  0
 21 26  1  0
 22 23  1  0
 22 28  1  0
 23 24  2  0
 24 25  1  0
 25 26  2  0
 26 27  1  0
 28 29  2  0
M  END
>  <DRUGBANK_ID>  (1) 
DB12420

>  <SECONDARY_ACCESSION_NUMBERS>  (1) 
DB05923

>  <COMMON_NAME>  (1) 
Diazepinomicin

>  <CAS_NUMBER>  (1) 
733035-26-2

>  <UNII>  (1) 
YPH994Y0RF

>  <SYNONYMS>  (1) 
4,6,8-trihydroxy-10-(3,7,11-trimethyldodeca-2,6,10-trienyl)-5,10-dihydrodibenzo(b,e)(1,4)diazepin-11-one; DIAZEPINOMICIN

$$$$
