
     RDKit          2D

 19 20  0  0  0  0  0  0  0  0999 V2000
   -0.5787    1.8667    0.0000 N   0  0  0  0  0  0  0  0  0  0  0  0
   -0.5787    1.0417    0.0000 C   0  0  0  0  0  0  0  0  0  0  0  0
    0.1333    0.6333    0.0000 N   0  0  0  0  0  0  0  0  0  0  0  0
    0.8454    1.0417    0.0000 C   0  0  0  0  0  0  0  0  0  0  0  0
    0.8454    1.8667    0.0000 C   0  0  0  0  0  0  0  0  0  0  0  0
    0.1333    2.2833    0.0000 C   0  0  0  0  0  0  0  0  0  0  0  0
   -1.2925    0.6281    0.0000 O   0  0  0  0  0  0  0  0  0  0  0  0
    0.1328   -0.1918    0.0000 C   0  0  0  0  0  0  0  0  0  0  0  0
   -0.5345   -0.6769    0.0000 O   0  0  0  0  0  0  0  0  0  0  0  0
   -0.2795   -1.4615    0.0000 C   0  0  0  0  0  0  0  0  0  0  0  0
    0.5454   -1.4615    0.0000 C   0  0  0  0  0  0  0  0  0  0  0  0
    0.8002   -0.6769    0.0000 C   0  0  0  0  0  0  0  0  0  0  0  0
   -0.7644   -2.1289    0.0000 C   0  0  0  0  0  0  0  0  0  0  0  0
   -1.5849   -2.0428    0.0000 O   0  0  0  0  0  0  0  0  0  0  0  0
    0.1333    3.1084    0.0000 N   0  0  0  0  0  0  0  0  0  0  0  0
    1.5849   -0.4219    0.0000 O   0  0  0  0  0  0  0  0  0  0  0  0
    0.5380   -2.2833    0.0000 C   0  0  0  0  0  0  0  0  0  0  0  0
    1.3688   -1.4085    0.0000 O   0  0  0  0  0  0  0  0  0  0  0  0
    0.5338   -3.1084    0.0000 C   0  0  0  0  0  0  0  0  0  0  0  0
  1  2  1  0
  1  6  2  0
  2  7  2  0
  2  3  1  0
  3  4  1  0
  4  5  2  0
  5  6  1  0
  6 15  1  0
  8  3  1  1
  8  9  1  0
  9 10  1  0
 10 11  1  0
 10 13  1  1
 11 12  1  0
 11 17  1  0
 11 18  1  6
 12  8  1  0
 12 16  1  6
 13 14  1  0
 17 19  3  0
M  END
>  <DRUGBANK_ID>  (1) 
DB06656

>  <COMMON_NAME>  (1) 
TAS-106

>  <CAS_NUMBER>  (1) 
180300-43-0

>  <UNII>  (1) 
Y3O05I09ZK

>  <SYNONYMS>  (1) 
3'-C-Ethynylcytidine; 4-Amino-1-((2R,3R,4R,5R)-4-ethynyl-3,4-dihydroxy-5-(hydroxymethyl)oxolan-2-yl)pyrimidin-2-one

$$$$
