
     RDKit          2D

 27 31  0  0  0  0  0  0  0  0999 V2000
    0.8975   -0.6834    0.0000 C   0  0  0  0  0  0  0  0  0  0  0  0
    0.1831   -1.0959    0.0000 C   0  0  0  0  0  0  0  0  0  0  0  0
    0.8975    0.1415    0.0000 C   0  0  0  0  0  0  0  0  0  0  0  0
    1.6822   -0.9383    0.0000 C   0  0  0  0  0  0  0  0  0  0  0  0
    0.9838   -1.5039    0.0000 O   0  0  0  0  0  0  0  0  0  0  0  0
   -0.5313   -0.6834    0.0000 C   0  0  0  0  0  0  0  0  0  0  0  0
    0.1831   -1.9209    0.0000 C   0  0  0  0  0  0  0  0  0  0  0  0
    1.6822    0.3965    0.0000 C   0  0  0  0  0  0  0  0  0  0  0  0
    0.1831    0.5540    0.0000 C   0  0  0  0  0  0  0  0  0  0  0  0
    0.9838    0.9620    0.0000 C   0  0  0  0  0  0  0  0  0  0  0  0
    2.1671   -0.2709    0.0000 C   0  0  0  0  0  0  0  0  0  0  0  0
   -1.2458   -1.0959    0.0000 C   0  0  0  0  0  0  0  0  0  0  0  0
   -0.5313    0.1415    0.0000 C   0  0  0  0  0  0  0  0  0  0  0  0
   -0.5313   -2.3334    0.0000 C   0  0  0  0  0  0  0  0  0  0  0  0
    1.9371    1.1811    0.0000 C   0  0  0  0  0  0  0  0  0  0  0  0
   -1.2458   -1.9209    0.0000 C   0  0  0  0  0  0  0  0  0  0  0  0
   -1.9602   -0.6834    0.0000 C   0  0  0  0  0  0  0  0  0  0  0  0
   -1.2458   -0.2709    0.0000 C   0  0  0  0  0  0  0  0  0  0  0  0
    1.4522    1.8485    0.0000 C   0  0  0  0  0  0  0  0  0  0  0  0
    2.7217    1.4360    0.0000 C   0  0  0  0  0  0  0  0  0  0  0  0
   -1.9602   -2.3334    0.0000 C   0  0  0  0  0  0  0  0  0  0  0  0
   -2.6747   -1.0959    0.0000 C   0  0  0  0  0  0  0  0  0  0  0  0
    1.9371    2.5160    0.0000 O   0  0  0  0  0  0  0  0  0  0  0  0
    2.7217    2.2610    0.0000 C   0  0  0  0  0  0  0  0  0  0  0  0
   -2.6747   -1.9209    0.0000 C   0  0  0  0  0  0  0  0  0  0  0  0
    3.3892    2.7459    0.0000 O   0  0  0  0  0  0  0  0  0  0  0  0
   -3.3892   -2.3334    0.0000 O   0  0  0  0  0  0  0  0  0  0  0  0
  1  2  1  0
  1  3  1  0
  1  4  1  0
  1  5  1  1
  2  6  1  0
  2  7  1  6
  3  8  1  0
  3  9  1  0
  3 10  1  1
  4 11  1  0
  6 12  1  0
  6 13  1  1
  7 14  1  0
  8 15  1  1
  8 11  1  0
  9 13  1  0
 12 16  1  0
 12 17  1  0
 12 18  1  1
 16 14  1  6
 15 19  1  0
 15 20  2  0
 16 21  1  0
 17 22  1  0
 19 23  1  0
 20 24  1  0
 21 25  1  0
 22 25  1  0
 23 24  1  0
 24 26  2  0
 25 27  1  1
M  END
>  <DRUGBANK_ID>  (1) 
DB04177

>  <SECONDARY_ACCESSION_NUMBERS>  (1) 
EXPT01294

>  <COMMON_NAME>  (1) 
Digitoxigenin

>  <CAS_NUMBER>  (1) 
143-62-4

>  <UNII>  (1) 
S63WOD4VOL

>  <SYNONYMS>  (1) 
Cerberigenin; Echujetin; Evonogenin; Thevetigenin

$$$$
