LRG
     RDKit          2D

 24 26  0  0  0  0  0  0  0  0999 V2000
   -3.1111    1.0225    0.0000 C   0  0  0  0  0  0  0  0  0  0  0  0
   -3.8256    0.6100    0.0000 C   0  0  0  0  0  0  0  0  0  0  0  0
   -3.8256   -0.2150    0.0000 C   0  0  0  0  0  0  0  0  0  0  0  0
   -3.1111   -0.6275    0.0000 C   0  0  0  0  0  0  0  0  0  0  0  0
   -2.3967   -0.2150    0.0000 C   0  0  0  0  0  0  0  0  0  0  0  0
   -2.3967    0.6100    0.0000 C   0  0  0  0  0  0  0  0  0  0  0  0
   -1.6822    1.0225    0.0000 C   0  0  0  0  0  0  0  0  0  0  0  0
   -0.9677    0.6100    0.0000 C   0  0  0  0  0  0  0  0  0  0  0  0
   -0.9677   -0.2150    0.0000 C   0  0  0  0  0  0  0  0  0  0  0  0
   -1.6822   -0.6275    0.0000 O   0  0  0  0  0  0  0  0  0  0  0  0
   -0.2533   -0.6275    0.0000 O   0  0  0  0  0  0  0  0  0  0  0  0
   -0.2533    1.0225    0.0000 O   0  0  0  0  0  0  0  0  0  0  0  0
    0.4612    0.6100    0.0000 C   0  0  0  0  0  0  0  0  0  0  0  0
    1.1757    1.0225    0.0000 C   0  0  0  0  0  0  0  0  0  0  0  0
    1.8902    0.6100    0.0000 C   0  0  0  0  0  0  0  0  0  0  0  0
    0.4612   -0.2150    0.0000 C   0  0  0  0  0  0  0  0  0  0  0  0
    1.1757   -0.6275    0.0000 C   0  0  0  0  0  0  0  0  0  0  0  0
    1.8902   -0.2150    0.0000 C   0  0  0  0  0  0  0  0  0  0  0  0
    2.6046   -0.6275    0.0000 C   0  0  0  0  0  0  0  0  0  0  0  0
    2.6046   -1.4525    0.0000 C   0  0  0  0  0  0  0  0  0  0  0  0
    3.3191   -1.8650    0.0000 C   0  0  0  0  0  0  0  0  0  0  0  0
    4.0336   -1.4525    0.0000 C   0  0  0  0  0  0  0  0  0  0  0  0
    4.0336   -0.6275    0.0000 C   0  0  0  0  0  0  0  0  0  0  0  0
    3.3191   -0.2150    0.0000 C   0  0  0  0  0  0  0  0  0  0  0  0
  1  6  2  0
  2  1  1  0
  3  4  1  0
  3  2  2  0
  4  5  2  0
  5  6  1  0
  6  7  1  0
  8  7  1  6
  8  9  1  0
  8 12  1  0
  9 11  2  0
  9 10  1  0
 12 13  1  0
 13 14  2  0
 15 14  1  0
 16 13  1  0
 17 16  2  0
 17 18  1  0
 18 15  2  0
 19 24  1  0
 19 18  1  0
 20 19  2  0
 21 22  2  0
 21 20  1  0
 22 23  1  0
 23 24  2  0
M  END
>  <DRUGBANK_ID>  (1) 
DB08121

>  <COMMON_NAME>  (1) 
(2S)-2-(biphenyl-4-yloxy)-3-phenylpropanoic acid

$$$$
