
     RDKit          2D

 27 29  0  0  1  0  0  0  0  0999 V2000
   -3.5551    3.0952    0.0000 C   0  0  0  0  0  0  0  0  0  0  0  0
   -2.7481    2.9237    0.0000 N   0  0  0  0  0  0  0  0  0  0  0  0
   -2.1961    3.5368    0.0000 N   0  0  0  0  0  0  0  0  0  0  0  0
   -1.3891    3.3652    0.0000 N   0  0  0  0  0  0  0  0  0  0  0  0
   -1.1342    2.5806    0.0000 C   0  0  0  0  0  0  0  0  0  0  0  0
   -0.3805    2.2451    0.0000 C   0  0  0  0  0  0  0  0  0  0  0  0
   -0.4667    1.4246    0.0000 N   0  0  0  0  0  0  0  0  0  0  0  0
   -1.2737    1.2531    0.0000 C   0  0  0  0  0  0  0  0  0  0  0  0
   -1.6862    1.9675    0.0000 N   0  0  0  0  0  0  0  0  0  0  0  0
   -2.4932    2.1391    0.0000 C   0  0  0  0  0  0  0  0  0  0  0  0
   -3.0452    1.5260    0.0000 O   0  0  0  0  0  0  0  0  0  0  0  0
    0.3340    2.6576    0.0000 C   0  0  0  0  0  0  0  0  0  0  0  0
    0.3340    3.4826    0.0000 O   0  0  0  0  0  0  0  0  0  0  0  0
    1.0484    2.2451    0.0000 N   0  0  0  0  0  0  0  0  0  0  0  0
    1.7629    2.6576    0.0000 C   0  0  0  0  0  0  0  0  0  0  0  0
    1.7629    3.4826    0.0000 O   0  0  0  0  0  0  0  0  0  0  0  0
    2.4774    2.2451    0.0000 O   0  0  0  0  0  0  0  0  0  0  0  0
    3.1918    2.6576    0.0000 C   0  0  0  0  0  0  0  0  0  0  0  0
    3.9063    2.2451    0.0000 C   0  0  0  0  0  0  0  0  0  0  0  0
    4.6208    2.6576    0.0000 C   0  0  0  0  0  0  0  0  0  0  0  0
    5.3353    2.2451    0.0000 C   0  0  0  0  0  0  0  0  0  0  0  0
    5.3353    1.4201    0.0000 C   0  0  0  0  0  0  0  0  0  0  0  0
    4.6208    1.0076    0.0000 C   0  0  0  0  0  0  0  0  0  0  0  0
    3.9063    1.4201    0.0000 C   0  0  0  0  0  0  0  0  0  0  0  0
    6.0497    1.0076    0.0000 C   0  0  0  0  0  0  0  0  0  0  0  0
    6.7642    1.4201    0.0000 C   0  0  0  0  0  0  0  0  0  0  0  0
    6.0497    0.1826    0.0000 C   0  0  0  0  0  0  0  0  0  0  0  0
  1  2  1  0
  2  3  1  0
  2 10  1  0
  3  4  2  0
  4  5  1  0
  5  6  2  0
  5  9  1  0
  6  7  1  0
  6 12  1  0
  7  8  2  0
  8  9  1  0
  9 10  1  0
 10 11  2  0
 12 13  2  0
 12 14  1  0
 14 15  1  0
 15 16  2  0
 15 17  1  0
 17 18  1  0
 18 19  1  0
 19 20  2  0
 19 24  1  0
 20 21  1  0
 22 21  1  0
 22 23  1  0
 22 25  1  1
 23 24  1  0
 25 26  1  0
 25 27  2  0
M  END
>  <DRUGBANK_ID>  (1) 
DB17100

>  <COMMON_NAME>  (1) 
NEO-212

>  <CAS_NUMBER>  (1) 
1361198-79-9

>  <UNII>  (1) 
237TB781D9

>  <SYNONYMS>  (1) 
(s)-perillyl alcohol temozolomide carbamate; Carbamic acid, n-((3,4-dihydro-3-methyl-4-oxoimidazo(5,1-d)-1,2,3,5-tetrazin-8-yl)carbonyl)-, ((4s)-4-(1-methylethenyl)-1-cyclohexen-1-yl)methyl ester; Tmz-poh carbamate

$$$$
