
     RDKit          2D

 33 36  0  0  0  0  0  0  0  0999 V2000
    0.7145   -7.3542    0.0000 C   0  0  0  0  0  0  0  0  0  0  0  0
    0.0000   -6.9417    0.0000 C   0  0  0  0  0  0  0  0  0  0  0  0
    0.0000   -6.1167    0.0000 C   0  0  0  0  0  0  0  0  0  0  0  0
    0.7145   -5.7042    0.0000 C   0  0  0  0  0  0  0  0  0  0  0  0
    1.4289   -6.1167    0.0000 C   0  0  0  0  0  0  0  0  0  0  0  0
    1.4289   -6.9417    0.0000 C   0  0  0  0  0  0  0  0  0  0  0  0
    2.1434   -5.7042    0.0000 C   0  0  0  0  0  0  0  0  0  0  0  0
    2.1434   -4.8792    0.0000 O   0  0  0  0  0  0  0  0  0  0  0  0
    2.8579   -6.1167    0.0000 N   0  0  0  0  0  0  0  0  0  0  0  0
    3.5724   -5.7042    0.0000 C   0  0  0  0  0  0  0  0  0  0  0  0
    4.2868   -6.1167    0.0000 C   0  0  0  0  0  0  0  0  0  0  0  0
    4.2868   -6.9417    0.0000 O   0  0  0  0  0  0  0  0  0  0  0  0
    5.0013   -5.7042    0.0000 N   0  0  0  0  0  0  0  0  0  0  0  0
    5.7158   -6.1167    0.0000 C   0  0  0  0  0  0  0  0  0  0  0  0
    6.5127   -5.9032    0.0000 C   0  0  0  0  0  0  0  0  0  0  0  0
    6.7262   -6.7001    0.0000 N   0  0  0  0  0  0  0  0  0  0  0  0
    5.9293   -6.9136    0.0000 C   0  0  0  0  0  0  0  0  0  0  0  0
    7.4407   -7.1126    0.0000 C   0  0  0  0  0  0  0  0  0  0  0  0
    8.1551   -6.7001    0.0000 C   0  0  0  0  0  0  0  0  0  0  0  0
    8.8696   -7.1126    0.0000 C   0  0  0  0  0  0  0  0  0  0  0  0
    8.8696   -7.9376    0.0000 C   0  0  0  0  0  0  0  0  0  0  0  0
    8.1551   -8.3501    0.0000 C   0  0  0  0  0  0  0  0  0  0  0  0
    7.4407   -7.9376    0.0000 C   0  0  0  0  0  0  0  0  0  0  0  0
    9.6941   -7.9664    0.0000 O   0  0  0  0  0  0  0  0  0  0  0  0
    9.3068   -8.6372    0.0000 C   0  0  0  0  0  0  0  0  0  0  0  0
   10.1298   -8.6948    0.0000 S   0  0  0  0  0  0  0  0  0  0  0  0
   10.3294   -9.4953    0.0000 C   0  0  0  0  0  0  0  0  0  0  0  0
    9.6297   -9.9325    0.0000 N   0  0  0  0  0  0  0  0  0  0  0  0
    8.9977   -9.4022    0.0000 C   0  0  0  0  0  0  0  0  0  0  0  0
   -0.7145   -5.7042    0.0000 C   0  0  0  0  0  0  0  0  0  0  0  0
   -1.4289   -5.2917    0.0000 F   0  0  0  0  0  0  0  0  0  0  0  0
   -0.3020   -4.9898    0.0000 F   0  0  0  0  0  0  0  0  0  0  0  0
   -1.1270   -6.4187    0.0000 F   0  0  0  0  0  0  0  0  0  0  0  0
  1  2  2  0
  1  6  1  0
  2  3  1  0
  3  4  2  0
  3 30  1  0
  4  5  1  0
  5  6  2  0
  5  7  1  0
  7  8  2  0
  7  9  1  0
  9 10  1  0
 10 11  1  0
 11 12  2  0
 11 13  1  0
 13 14  1  0
 14 15  1  0
 14 17  1  0
 15 16  1  0
 16 17  1  0
 18 16  1  1
 18 19  1  0
 18 23  1  0
 19 20  1  0
 20 21  1  0
 21 22  1  0
 21 24  1  6
 21 25  1  0
 22 23  1  0
 25 26  1  0
 25 29  2  0
 26 27  1  0
 27 28  2  0
 28 29  1  0
 30 31  1  0
 30 32  1  0
 30 33  1  0
M  END
>  <DRUGBANK_ID>  (1) 
DB12632

>  <COMMON_NAME>  (1) 
JNJ-41443532

>  <CAS_NUMBER>  (1) 
1228650-83-6

>  <UNII>  (1) 
0OJB0LES1A

$$$$
