
     RDKit          2D

 34 37  0  0  0  0  0  0  0  0999 V2000
   -1.1831    0.4992    0.0000 C   0  0  0  0  0  0  0  0  0  0  0  0
   -0.3984    0.7541    0.0000 C   0  0  0  0  0  0  0  0  0  0  0  0
    0.3862    1.0091    0.0000 C   0  0  0  0  0  0  0  0  0  0  0  0
   -0.6534    1.5387    0.0000 C   0  0  0  0  0  0  0  0  0  0  0  0
   -0.1014    2.1518    0.0000 O   0  0  0  0  0  0  0  0  0  0  0  0
   -0.1435   -0.0305    0.0000 N   0  0  0  0  0  0  0  0  0  0  0  0
   -0.6284   -0.6979    0.0000 C   0  0  0  0  0  0  0  0  0  0  0  0
   -0.1435   -1.3654    0.0000 C   0  0  0  0  0  0  0  0  0  0  0  0
    0.6411   -1.1104    0.0000 C   0  0  0  0  0  0  0  0  0  0  0  0
    0.6411   -0.2854    0.0000 C   0  0  0  0  0  0  0  0  0  0  0  0
    1.3556    0.1271    0.0000 N   0  0  0  0  0  0  0  0  0  0  0  0
    2.0701   -0.2854    0.0000 C   0  0  0  0  0  0  0  0  0  0  0  0
    2.0701   -1.1104    0.0000 N   0  0  0  0  0  0  0  0  0  0  0  0
    1.3556   -1.5229    0.0000 C   0  0  0  0  0  0  0  0  0  0  0  0
    2.7845    0.1271    0.0000 N   0  0  0  0  0  0  0  0  0  0  0  0
   -0.3984   -2.1500    0.0000 C   0  0  0  0  0  0  0  0  0  0  0  0
    0.1536   -2.7631    0.0000 O   0  0  0  0  0  0  0  0  0  0  0  0
   -1.2054   -2.3215    0.0000 C   0  0  0  0  0  0  0  0  0  0  0  0
   -1.4604   -3.1062    0.0000 C   0  0  0  0  0  0  0  0  0  0  0  0
   -2.2673   -3.2777    0.0000 C   0  0  0  0  0  0  0  0  0  0  0  0
   -2.8194   -2.6646    0.0000 C   0  0  0  0  0  0  0  0  0  0  0  0
   -2.5644   -1.8800    0.0000 N   0  0  0  0  0  0  0  0  0  0  0  0
   -1.7575   -1.7084    0.0000 C   0  0  0  0  0  0  0  0  0  0  0  0
   -2.5223   -4.0623    0.0000 N   0  0  0  0  0  0  0  0  0  0  0  0
   -3.3292   -4.2338    0.0000 C   0  0  0  0  0  0  0  0  0  0  0  0
   -3.8813   -3.6207    0.0000 O   0  0  0  0  0  0  0  0  0  0  0  0
   -3.5842   -5.0184    0.0000 C   0  0  0  0  0  0  0  0  0  0  0  0
   -4.3912   -5.1900    0.0000 C   0  0  0  0  0  0  0  0  0  0  0  0
   -4.6461   -5.9746    0.0000 C   0  0  0  0  0  0  0  0  0  0  0  0
   -5.4531   -6.1461    0.0000 C   0  0  0  0  0  0  0  0  0  0  0  0
   -6.0051   -5.5330    0.0000 C   0  0  0  0  0  0  0  0  0  0  0  0
   -5.7502   -4.7484    0.0000 C   0  0  0  0  0  0  0  0  0  0  0  0
   -4.9432   -4.5769    0.0000 N   0  0  0  0  0  0  0  0  0  0  0  0
   -6.8121   -5.7046    0.0000 Cl  0  0  0  0  0  0  0  0  0  0  0  0
  1  2  1  0
  2  3  1  0
  2  4  1  0
  2  6  1  0
  4  5  1  0
  6  7  1  0
  6 10  1  0
  7  8  2  0
  8  9  1  0
  8 16  1  0
  9 10  2  0
  9 14  1  0
 10 11  1  0
 11 12  2  0
 12 13  1  0
 12 15  1  0
 13 14  2  0
 16 17  2  0
 16 18  1  0
 18 19  2  0
 18 23  1  0
 19 20  1  0
 20 21  2  0
 20 24  1  0
 21 22  1  0
 22 23  2  0
 24 25  1  0
 25 26  2  0
 25 27  1  0
 27 28  1  0
 28 29  2  0
 28 33  1  0
 29 30  1  0
 30 31  2  0
 31 32  1  0
 31 34  1  0
 32 33  2  0
M  END
>  <DRUGBANK_ID>  (1) 
DB12269

>  <COMMON_NAME>  (1) 
PF-06273340

>  <CAS_NUMBER>  (1) 
1402438-74-7

>  <UNII>  (1) 
I136775ABW

$$$$
