
     RDKit          2D

 19 14  0  0  0  0  0  0  0  0999 V2000
   -5.4022    2.3676    0.0000 O   0  0  0  0  0  0  0  0  0  0  0  0
   -4.6686    2.7443    0.0000 C   0  0  0  0  0  0  0  0  0  0  0  0
   -3.9727    2.2916    0.0000 C   0  0  0  0  0  0  0  0  0  0  0  0
   -4.0199    1.4671    0.0000 O   0  0  0  0  0  0  0  0  0  0  0  0
   -3.2389    2.6687    0.0000 C   0  0  0  0  0  0  0  0  0  0  0  0
   -3.2389    3.4935    0.0000 O   0  0  0  0  0  0  0  0  0  0  0  0
   -2.5435    2.2206    0.0000 C   0  0  0  0  0  0  0  0  0  0  0  0
   -2.5435    1.3958    0.0000 O   0  0  0  0  0  0  0  0  0  0  0  0
   -1.8097    2.5974    0.0000 C   0  0  0  0  0  0  0  0  0  0  0  0
   -1.8097    3.4222    0.0000 O   0  0  0  0  0  0  0  0  0  0  0  0
   -1.1141    2.1449    0.0000 C   0  0  0  0  0  0  0  0  0  0  0  0
   -0.3804    2.5218    0.0000 O   0  0  0  0  0  0  0  0  0  0  0  0
    5.8107    1.8018    0.0000 Na  0  0  0  0  0 15  0  0  0  0  0  0
    6.1376   -2.1515    0.0000 Al  0  0  0  0  0 15  0  0  0  0  0  0
   -0.2273   -2.1546    0.0000 O   0  0  0  0  0  0  0  0  0  0  0  0
    0.1833   -2.8684    0.0000 C   0  0  0  0  0  0  0  0  0  0  0  0
   -0.2273   -3.5827    0.0000 O   0  0  0  0  0  0  0  0  0  0  0  0
    1.0100   -2.8684    0.0000 O   0  0  0  0  0  0  0  0  0  0  0  0
   -5.6325   -2.6364    0.0000 O   0  0  0  0  0  0  0  0  0  0  0  0
  2  1  1  0
  2  3  1  0
  3  4  1  0
  3  5  1  0
  5  6  1  0
  5  7  1  0
  7  8  1  0
  7  9  1  0
  9 10  1  0
  9 11  1  0
 11 12  1  0
 16 15  1  0
 16 17  1  0
 16 18  2  0
M  CHG  5  13   1  14   3  15  -1  17  -1  19  -1
M  END
>  <DRUGBANK_ID>  (1) 
DB15908

>  <COMMON_NAME>  (1) 
Alexitol sodium

>  <CAS_NUMBER>  (1) 
66813-51-2

>  <UNII>  (1) 
JDN69ZV6XV

>  <SYNONYMS>  (1) 
Alexitol sodium; Sodium polyhydroxyaluminium monocarbonate hexitol complex

$$$$
