
     RDKit          2D

 21 23  0  0  0  0  0  0  0  0999 V2000
   -1.4289    2.5536    0.0000 C   0  0  0  0  0  0  0  0  0  0  0  0
   -1.4289    1.7286    0.0000 N   0  0  0  0  0  0  0  0  0  0  0  0
   -2.1434    1.3161    0.0000 C   0  0  0  0  0  0  0  0  0  0  0  0
   -0.7144    1.3161    0.0000 C   0  0  0  0  0  0  0  0  0  0  0  0
   -0.7144    0.4911    0.0000 C   0  0  0  0  0  0  0  0  0  0  0  0
    0.0000    0.0786    0.0000 C   0  0  0  0  0  0  0  0  0  0  0  0
    0.0000   -0.7463    0.0000 C   0  0  0  0  0  0  0  0  0  0  0  0
    0.7432   -1.1043    0.0000 C   0  0  0  0  0  0  0  0  0  0  0  0
    1.3480   -0.5431    0.0000 C   0  0  0  0  0  0  0  0  0  0  0  0
    2.1363   -0.7863    0.0000 C   0  0  0  0  0  0  0  0  0  0  0  0
    2.3199   -1.5906    0.0000 C   0  0  0  0  0  0  0  0  0  0  0  0
    1.7151   -2.1518    0.0000 C   0  0  0  0  0  0  0  0  0  0  0  0
    0.9268   -1.9086    0.0000 C   0  0  0  0  0  0  0  0  0  0  0  0
    0.4124   -2.5536    0.0000 C   0  0  0  0  0  0  0  0  0  0  0  0
   -0.4125   -2.5536    0.0000 O   0  0  0  0  0  0  0  0  0  0  0  0
   -0.9269   -1.9086    0.0000 C   0  0  0  0  0  0  0  0  0  0  0  0
   -0.7433   -1.1043    0.0000 C   0  0  0  0  0  0  0  0  0  0  0  0
   -1.3481   -0.5431    0.0000 C   0  0  0  0  0  0  0  0  0  0  0  0
   -2.1364   -0.7863    0.0000 C   0  0  0  0  0  0  0  0  0  0  0  0
   -2.3199   -1.5906    0.0000 C   0  0  0  0  0  0  0  0  0  0  0  0
   -1.7152   -2.1518    0.0000 C   0  0  0  0  0  0  0  0  0  0  0  0
  1  2  1  0
  2  3  1  0
  2  4  1  0
  4  5  1  0
  5  6  1  0
  6  7  2  0
  7  8  1  0
  7 17  1  0
  8  9  2  0
  8 13  1  0
  9 10  1  0
 10 11  2  0
 11 12  1  0
 12 13  2  0
 13 14  1  0
 14 15  1  0
 15 16  1  0
 16 17  2  0
 16 21  1  0
 17 18  1  0
 18 19  2  0
 19 20  1  0
 20 21  2  0
M  END
>  <DRUGBANK_ID>  (1) 
DB14750

>  <COMMON_NAME>  (1) 
Cidoxepin

>  <CAS_NUMBER>  (1) 
3607-18-9

>  <UNII>  (1) 
F96TTB8728

>  <SYNONYMS>  (1) 
(Z)-Doxepin; Cidoxepin; Cidoxepina; Cidoxepinum

$$$$
