
     RDKit          2D

 25 28  0  0  0  0  0  0  0  0999 V2000
   -0.4884   -0.1783    0.0000 C   0  0  0  0  0  0  0  0  0  0  0  0
    0.2294   -0.5749    0.0000 C   0  0  0  0  0  0  0  0  0  0  0  0
   -1.1850   -0.5891    0.0000 C   0  0  0  0  0  0  0  0  0  0  0  0
   -0.4871    0.6467    0.0000 C   0  0  0  0  0  0  0  0  0  0  0  0
    0.9311   -0.1510    0.0000 C   0  0  0  0  0  0  0  0  0  0  0  0
    0.2431   -1.4040    0.0000 C   0  0  0  0  0  0  0  0  0  0  0  0
   -1.1885   -1.4056    0.0000 C   0  0  0  0  0  0  0  0  0  0  0  0
   -1.9111   -0.1824    0.0000 C   0  0  0  0  0  0  0  0  0  0  0  0
   -1.1901    0.2472    0.0000 C   0  0  0  0  0  0  0  0  0  0  0  0
    0.1935    1.0633    0.0000 C   0  0  0  0  0  0  0  0  0  0  0  0
    0.9327    0.6690    0.0000 C   0  0  0  0  0  0  0  0  0  0  0  0
    1.7245   -0.3839    0.0000 C   0  0  0  0  0  0  0  0  0  0  0  0
   -0.4852   -1.8253    0.0000 C   0  0  0  0  0  0  0  0  0  0  0  0
   -1.9086   -1.8371    0.0000 C   0  0  0  0  0  0  0  0  0  0  0  0
   -2.6332   -0.5926    0.0000 C   0  0  0  0  0  0  0  0  0  0  0  0
    1.7056    0.9322    0.0000 C   0  0  0  0  0  0  0  0  0  0  0  0
    0.9133    1.4950    0.0000 C   0  0  0  0  0  0  0  0  0  0  0  0
    2.1855    0.2775    0.0000 C   0  0  0  0  0  0  0  0  0  0  0  0
   -2.6332   -1.4419    0.0000 C   0  0  0  0  0  0  0  0  0  0  0  0
   -1.9069   -2.6630    0.0000 Cl  0  0  0  0  0  0  0  0  0  0  0  0
    1.9826    1.7229    0.0000 O   0  0  0  0  0  0  0  0  0  0  0  0
   -3.3411   -1.8769    0.0000 O   0  0  0  0  0  0  0  0  0  0  0  0
    2.7822    1.8906    0.0000 C   0  0  0  0  0  0  0  0  0  0  0  0
    3.3411    1.2959    0.0000 C   0  0  0  0  0  0  0  0  0  0  0  0
    3.0269    2.6630    0.0000 O   0  0  0  0  0  0  0  0  0  0  0  0
  1  2  1  0
  1  3  1  0
  1  4  1  1
  2  5  1  0
  2  6  1  6
  3  7  1  0
  3  8  1  0
  3  9  1  1
  4 10  1  0
  5 11  1  0
  5 12  1  1
  6 13  1  0
  7 14  2  0
  7 13  1  0
  8 15  1  0
 10 11  1  0
 11 16  1  0
 11 17  1  1
 12 18  1  0
 14 19  1  0
 14 20  1  0
 15 19  1  0
 16 21  1  1
 16 18  1  0
 19 22  2  0
 21 23  1  0
 23 24  1  0
 23 25  2  0
M  END
>  <DRUGBANK_ID>  (1) 
DB15984

>  <COMMON_NAME>  (1) 
Clostebol acetate

>  <CAS_NUMBER>  (1) 
855-19-6

>  <UNII>  (1) 
780ZZX4P14

>  <SYNONYMS>  (1) 
4-Chlorotestosterone acetate; Chlorotestosterone acetate; Clostebol acetate

$$$$
