791
     RDKit          2D

 13 13  0  0  0  0  0  0  0  0999 V2000
    1.3935    0.8384    0.0000 C   0  0  0  0  0  0  0  0  0  0  0  0
    1.3935    0.0134    0.0000 C   0  0  0  0  0  0  0  0  0  0  0  0
    0.6790   -0.3991    0.0000 C   0  0  0  0  0  0  0  0  0  0  0  0
   -0.0355    0.0134    0.0000 C   0  0  0  0  0  0  0  0  0  0  0  0
   -0.0355    0.8384    0.0000 C   0  0  0  0  0  0  0  0  0  0  0  0
    0.6790    1.2509    0.0000 C   0  0  0  0  0  0  0  0  0  0  0  0
   -0.7499   -0.3991    0.0000 C   0  0  0  0  0  0  0  0  0  0  0  0
   -1.4644    0.0134    0.0000 C   0  0  0  0  0  0  0  0  0  0  0  0
   -0.7499   -1.2241    0.0000 C   0  0  0  0  0  0  0  0  0  0  0  0
   -2.1789   -0.3991    0.0000 O   0  0  0  0  0  0  0  0  0  0  0  0
   -1.4644    0.8384    0.0000 O   0  0  0  0  0  0  0  0  0  0  0  0
   -1.4644   -1.6366    0.0000 O   0  0  0  0  0  0  0  0  0  0  0  0
   -0.0355   -1.6366    0.0000 O   0  0  0  0  0  0  0  0  0  0  0  0
  1  2  2  0
  1  6  1  0
  2  3  1  0
  3  4  2  0
  4  5  1  0
  4  7  1  0
  5  6  2  0
  7  8  1  0
  7  9  1  0
  8 10  1  0
  8 11  2  0
  9 12  1  0
  9 13  2  0
M  END
>  <DRUGBANK_ID>  (1) 
DB04080

>  <SECONDARY_ACCESSION_NUMBERS>  (1) 
EXPT00305

>  <COMMON_NAME>  (1) 
RU78191

>  <UNII>  (1) 
92EX195E1G

$$$$
