
     RDKit          2D

 25 27  0  0  1  0  0  0  0  0999 V2000
    3.7935    1.0313    0.0000 O   0  0  0  0  0  0  0  0  0  0  0  0
    8.0804    1.0313    0.0000 O   0  0  0  0  0  0  0  0  0  0  0  0
    5.9370   -0.2063    0.0000 N   0  0  0  0  0  0  0  0  0  0  0  0
    5.2224    0.2063    0.0000 C   0  0  0  0  0  0  0  0  0  0  0  0
    6.6515    0.2063    0.0000 C   0  0  0  0  0  0  0  0  0  0  0  0
    5.2224    1.0313    0.0000 C   0  0  0  0  0  0  0  0  0  0  0  0
    6.6515    1.0313    0.0000 C   0  0  0  0  0  0  0  0  0  0  0  0
    5.9370    1.4438    0.0000 C   0  0  0  0  0  0  0  0  0  0  0  0
    4.5080   -0.2063    0.0000 C   0  0  0  0  0  0  0  0  0  0  0  0
    7.3659   -0.2063    0.0000 C   0  0  0  0  0  0  0  0  0  0  0  0
    5.9370   -1.0313    0.0000 C   0  0  0  0  0  0  0  0  0  0  0  0
    3.7935    0.2063    0.0000 C   0  0  0  0  0  0  0  0  0  0  0  0
    8.0804    0.2063    0.0000 C   0  0  0  0  0  0  0  0  0  0  0  0
    3.0791   -0.2063    0.0000 C   0  0  0  0  0  0  0  0  0  0  0  0
    8.7949   -0.2063    0.0000 C   0  0  0  0  0  0  0  0  0  0  0  0
    3.0791   -1.0313    0.0000 C   0  0  0  0  0  0  0  0  0  0  0  0
    2.3645    0.2063    0.0000 C   0  0  0  0  0  0  0  0  0  0  0  0
    8.7949   -1.0313    0.0000 C   0  0  0  0  0  0  0  0  0  0  0  0
    9.5094    0.2063    0.0000 C   0  0  0  0  0  0  0  0  0  0  0  0
    2.3645   -1.4438    0.0000 C   0  0  0  0  0  0  0  0  0  0  0  0
    1.6500   -0.2063    0.0000 C   0  0  0  0  0  0  0  0  0  0  0  0
    1.6500   -1.0313    0.0000 C   0  0  0  0  0  0  0  0  0  0  0  0
    9.5094   -1.4438    0.0000 C   0  0  0  0  0  0  0  0  0  0  0  0
   10.2239   -0.2063    0.0000 C   0  0  0  0  0  0  0  0  0  0  0  0
   10.2239   -1.0313    0.0000 C   0  0  0  0  0  0  0  0  0  0  0  0
  2 13  2  0
  3  4  1  0
  3  5  1  0
  3 11  1  0
  4  6  1  0
  4  9  1  6
  5  7  1  0
  5 10  1  6
  6  8  1  0
  7  8  1  0
  9 12  1  0
 10 13  1  0
 12  1  1  1
 12 14  1  0
 13 15  1  0
 14 16  2  0
 14 17  1  0
 15 18  2  0
 15 19  1  0
 16 20  1  0
 17 21  2  0
 18 23  1  0
 19 24  2  0
 20 22  2  0
 21 22  1  0
 23 25  2  0
 24 25  1  0
M  END
>  <DRUGBANK_ID>  (1) 
DB05137

>  <COMMON_NAME>  (1) 
Lobeline

>  <CAS_NUMBER>  (1) 
90-69-7

>  <UNII>  (1) 
D0P25S3P81

>  <SYNONYMS>  (1) 
Lobelina; Lobeline

$$$$
