
     RDKit          2D

 26 29  0  0  0  0  0  0  0  0999 V2000
   -2.2539    2.0329    0.0000 C   0  0  0  0  0  0  0  0  0  0  0  0
   -1.8414    2.7474    0.0000 C   0  0  0  0  0  0  0  0  0  0  0  0
   -1.0164    2.7474    0.0000 C   0  0  0  0  0  0  0  0  0  0  0  0
   -0.6039    2.0329    0.0000 C   0  0  0  0  0  0  0  0  0  0  0  0
   -1.0164    1.3184    0.0000 C   0  0  0  0  0  0  0  0  0  0  0  0
   -1.8414    1.3184    0.0000 C   0  0  0  0  0  0  0  0  0  0  0  0
   -2.2539    0.6039    0.0000 C   0  0  0  0  0  0  0  0  0  0  0  0
   -1.8414   -0.1105    0.0000 C   0  0  0  0  0  0  0  0  0  0  0  0
   -2.2539   -0.8250    0.0000 C   0  0  0  0  0  0  0  0  0  0  0  0
   -1.8414   -1.5395    0.0000 C   0  0  0  0  0  0  0  0  0  0  0  0
   -1.0164   -1.5395    0.0000 C   0  0  0  0  0  0  0  0  0  0  0  0
   -0.6039   -2.2539    0.0000 C   0  0  0  0  0  0  0  0  0  0  0  0
    0.2211   -2.2539    0.0000 C   0  0  0  0  0  0  0  0  0  0  0  0
    0.6336   -1.5395    0.0000 C   0  0  0  0  0  0  0  0  0  0  0  0
    0.2211   -0.8250    0.0000 C   0  0  0  0  0  0  0  0  0  0  0  0
   -0.6039   -0.8250    0.0000 C   0  0  0  0  0  0  0  0  0  0  0  0
   -1.0164   -0.1105    0.0000 N   0  0  0  0  0  0  0  0  0  0  0  0
    0.6336   -0.1105    0.0000 C   0  0  0  0  0  0  0  0  0  0  0  0
    1.4586   -0.1105    0.0000 C   0  0  0  0  0  0  0  0  0  0  0  0
    1.8711   -0.8250    0.0000 C   0  0  0  0  0  0  0  0  0  0  0  0
    1.4586   -1.5395    0.0000 C   0  0  0  0  0  0  0  0  0  0  0  0
   -2.2539   -2.2539    0.0000 C   0  0  0  0  0  0  0  0  0  0  0  0
   -1.8414   -2.9684    0.0000 O   0  0  0  0  0  0  0  0  0  0  0  0
   -3.0789   -2.2539    0.0000 O   0  0  0  0  0  0  0  0  0  0  0  0
   -3.0789   -0.8250    0.0000 O   0  0  0  0  0  0  0  0  0  0  0  0
   -0.6039    3.4618    0.0000 Cl  0  0  0  0  0  0  0  0  0  0  0  0
  1  2  2  0
  1  6  1  0
  2  3  1  0
  3  4  2  0
  3 26  1  0
  4  5  1  0
  5  6  2  0
  6  7  1  0
  7  8  1  0
  8  9  2  0
  8 17  1  0
  9 10  1  0
  9 25  1  0
 10 11  2  0
 10 22  1  0
 11 12  1  0
 11 16  1  0
 12 13  2  0
 13 14  1  0
 14 15  2  0
 14 21  1  0
 15 16  1  0
 15 18  1  0
 16 17  2  0
 18 19  1  0
 19 20  1  0
 20 21  1  0
 22 23  2  0
 22 24  1  0
M  END
>  <DRUGBANK_ID>  (1) 
DB12211

>  <COMMON_NAME>  (1) 
PSI-697

>  <CAS_NUMBER>  (1) 
851546-61-7

>  <UNII>  (1) 
LH1XC916ME

$$$$
