
     RDKit          2D

 31 34  0  0  0  0  0  0  0  0999 V2000
    0.2566    1.3869    0.0000 N   0  0  0  0  0  0  0  0  0  0  0  0
   -0.4591    1.8108    0.0000 C   0  0  0  0  0  0  0  0  0  0  0  0
   -0.1531    0.6663    0.0000 C   0  0  0  0  0  0  0  0  0  0  0  0
   -0.8736    1.0996    0.0000 C   0  0  0  0  0  0  0  0  0  0  0  0
    1.0807    1.3869    0.0000 C   0  0  0  0  0  0  0  0  0  0  0  0
    1.5046    0.6663    0.0000 C   0  0  0  0  0  0  0  0  0  0  0  0
    0.2566   -0.0540    0.0000 S   0  0  0  0  0  0  0  0  0  0  0  0
    2.7432   -0.0023    0.0000 N   0  0  0  0  0  0  0  0  0  0  0  0
   -1.4198    1.6977    0.0000 N   0  0  0  0  0  0  0  0  0  0  0  0
    1.5187    2.1168    0.0000 C   0  0  0  0  0  0  0  0  0  0  0  0
   -2.2299    1.5234    0.0000 C   0  0  0  0  0  0  0  0  0  0  0  0
    2.3335    0.6758    0.0000 C   0  0  0  0  0  0  0  0  0  0  0  0
    1.0807   -0.0540    0.0000 C   0  0  0  0  0  0  0  0  0  0  0  0
   -2.7761    2.1451    0.0000 C   0  0  0  0  0  0  0  0  0  0  0  0
    4.0477   -2.1027    0.0000 C   0  0  0  0  0  0  0  0  0  0  0  0
   -3.5815    1.9661    0.0000 C   0  0  0  0  0  0  0  0  0  0  0  0
   -0.4450    2.6678    0.0000 O   0  0  0  0  0  0  0  0  0  0  0  0
   -4.2313    2.4324    0.0000 S   0  0  0  0  0  0  0  0  0  0  0  0
    3.6050   -1.4104    0.0000 C   0  0  0  0  0  0  0  0  0  0  0  0
    1.1043    2.8373    0.0000 O   0  0  0  0  0  0  0  0  0  0  0  0
   -4.8812    1.9332    0.0000 C   0  0  0  0  0  0  0  0  0  0  0  0
    2.3523    2.0933    0.0000 O   0  0  0  0  0  0  0  0  0  0  0  0
   -3.8264    1.1985    0.0000 C   0  0  0  0  0  0  0  0  0  0  0  0
   -2.4795    0.7511    0.0000 O   0  0  0  0  0  0  0  0  0  0  0  0
    3.6804   -2.8373    0.0000 O   0  0  0  0  0  0  0  0  0  0  0  0
   -4.6317    1.1985    0.0000 C   0  0  0  0  0  0  0  0  0  0  0  0
    2.3523   -0.7322    0.0000 C   0  0  0  0  0  0  0  0  0  0  0  0
    3.5674    0.0117    0.0000 C   0  0  0  0  0  0  0  0  0  0  0  0
    3.9912   -0.6899    0.0000 C   0  0  0  0  0  0  0  0  0  0  0  0
    2.7620   -1.4293    0.0000 C   0  0  0  0  0  0  0  0  0  0  0  0
    4.8812   -2.0651    0.0000 N   0  0  0  0  0  0  0  0  0  0  0  0
  2  1  1  0
  2  4  1  0
  3  1  1  0
  4  3  1  0
  4  9  1  6
  5  1  1  0
  6  5  2  0
  3  7  1  6
  7 13  1  0
  8 12  1  0
 10  5  1  0
 11  9  1  0
 12  6  1  0
 13  6  1  0
 14 11  1  0
 15 19  1  0
 16 14  1  0
 17  2  2  0
 18 16  1  0
 19 29  2  0
 20 10  1  0
 21 18  1  0
 22 10  2  0
 23 16  2  0
 24 11  2  0
 25 15  2  0
 26 23  1  0
 26 21  2  0
 27  8  1  0
 28  8  2  0
 29 28  1  0
 30 27  2  0
 30 19  1  0
 31 15  1  0
M  CHG  2   8   1  20  -1
M  END
>  <DRUGBANK_ID>  (1) 
DB11385

>  <COMMON_NAME>  (1) 
Cefalonium

>  <CAS_NUMBER>  (1) 
5575-21-3

>  <UNII>  (1) 
K2P920217W

>  <SYNONYMS>  (1) 
Cefalonio; Cefalonium; Cephalonium

$$$$
