
     RDKit          2D

 20 20  0  0  0  0  0  0  0  0999 V2000
   -1.4256    0.2036    0.0000 C   0  0  0  0  0  0  0  0  0  0  0  0
   -1.4280   -0.6169    0.0000 C   0  0  0  0  0  0  0  0  0  0  0  0
   -2.1375    0.6119    0.0000 C   0  0  0  0  0  0  0  0  0  0  0  0
   -0.7110    0.6162    0.0000 C   0  0  0  0  0  0  0  0  0  0  0  0
   -2.1425   -1.0295    0.0000 C   0  0  0  0  0  0  0  0  0  0  0  0
   -2.8520    0.1993    0.0000 C   0  0  0  0  0  0  0  0  0  0  0  0
   -2.8546   -0.6213    0.0000 C   0  0  0  0  0  0  0  0  0  0  0  0
   -0.7134    1.4341    0.0000 O   0  0  0  0  0  0  0  0  0  0  0  0
   -0.0039    0.2052    0.0000 N   0  0  0  0  0  0  0  0  0  0  0  0
   -3.5690   -1.0338    0.0000 N   0  0  0  0  0  0  0  0  0  0  0  0
   -3.5668    0.6123    0.0000 Cl  0  0  0  0  0  0  0  0  0  0  0  0
   -0.7134   -1.0299    0.0000 O   0  0  0  0  0  0  0  0  0  0  0  0
    2.1397    0.6173    0.0000 N   0  0  0  0  0  0  0  0  0  0  0  0
    0.7106    0.6178    0.0000 C   0  0  0  0  0  0  0  0  0  0  0  0
    1.4252    0.2047    0.0000 C   0  0  0  0  0  0  0  0  0  0  0  0
    2.1395    1.4428    0.0000 C   0  0  0  0  0  0  0  0  0  0  0  0
    2.8545    0.2044    0.0000 C   0  0  0  0  0  0  0  0  0  0  0  0
   -0.7130   -1.8553    0.0000 C   0  0  0  0  0  0  0  0  0  0  0  0
    2.8540    1.8553    0.0000 C   0  0  0  0  0  0  0  0  0  0  0  0
    3.5690    0.6169    0.0000 C   0  0  0  0  0  0  0  0  0  0  0  0
  2  1  2  0
  3  1  1  0
  4  1  1  0
  5  2  1  0
  6  3  2  0
  7  5  2  0
  7  6  1  0
  8  4  2  0
  9  4  1  0
 10  7  1  0
 11  6  1  0
 12  2  1  0
 14  9  1  0
 15 13  1  0
 15 14  1  0
 16 13  1  0
 17 13  1  0
 18 12  1  0
 19 16  1  0
 20 17  1  0
M  END
>  <DRUGBANK_ID>  (1) 
DB01233

>  <SECONDARY_ACCESSION_NUMBERS>  (1) 
APRD00665

>  <COMMON_NAME>  (1) 
Metoclopramide

>  <CAS_NUMBER>  (1) 
364-62-5

>  <UNII>  (1) 
L4YEB44I46

>  <SYNONYMS>  (1) 
2-methoxy-4-amino-5-chloro-N,N-(dimethylaminoethyl)benzamide; 2-methoxy-5-chloroprocainamide; 4-amino-5-chloro-2-methoxy-N-(Î²-diethylaminoethyl)benzamide; 4-amino-5-chloro-N-(2-(diethylamino)ethyl)-o-anisamide; Metoclopramida; Metoclopramide; Metoclopramidum

$$$$
