
     RDKit          2D

 32 35  0  0  0  0  0  0  0  0999 V2000
   -3.6145   -1.9955    0.0000 O   0  0  0  0  0  0  0  0  0  0  0  0
   -4.3290   -1.5831    0.0000 S   0  0  0  0  0  0  0  0  0  0  0  0
   -5.0435   -1.9955    0.0000 O   0  0  0  0  0  0  0  0  0  0  0  0
   -3.9165   -0.8686    0.0000 O   0  0  0  0  0  0  0  0  0  0  0  0
   -4.7415   -0.8686    0.0000 O   0  0  0  0  0  0  0  0  0  0  0  0
   -2.1587   -0.3288    0.0000 C   0  0  0  0  0  0  0  0  0  0  0  0
   -2.8813   -0.7255    0.0000 C   0  0  0  0  0  0  0  0  0  0  0  0
   -2.8813   -1.5647    0.0000 C   0  0  0  0  0  0  0  0  0  0  0  0
   -2.1587   -1.9769    0.0000 C   0  0  0  0  0  0  0  0  0  0  0  0
   -1.4590   -1.5647    0.0000 C   0  0  0  0  0  0  0  0  0  0  0  0
   -0.7441   -1.9769    0.0000 C   0  0  0  0  0  0  0  0  0  0  0  0
   -1.4590   -0.7255    0.0000 C   0  0  0  0  0  0  0  0  0  0  0  0
   -0.7441    0.4792    0.0000 C   0  0  0  0  0  0  0  0  0  0  0  0
   -0.0133    0.8992    0.0000 C   0  0  0  0  0  0  0  0  0  0  0  0
    0.6863    0.4792    0.0000 C   0  0  0  0  0  0  0  0  0  0  0  0
    0.6863   -0.3288    0.0000 C   0  0  0  0  0  0  0  0  0  0  0  0
    1.4711   -0.5856    0.0000 C   0  0  0  0  0  0  0  0  0  0  0  0
    1.9374    0.0673    0.0000 C   0  0  0  0  0  0  0  0  0  0  0  0
    1.4711    0.7356    0.0000 C   0  0  0  0  0  0  0  0  0  0  0  0
    0.6863    1.3266    0.0000 C   0  0  0  0  0  0  0  0  0  0  0  0
   -1.4590    0.0829    0.0000 C   0  0  0  0  0  0  0  0  0  0  0  0
   -0.7441   -0.3288    0.0000 C   0  0  0  0  0  0  0  0  0  0  0  0
    0.7567    1.9955    0.0000 C   0  0  0  0  0  0  0  0  0  0  0  0
   -0.0133   -0.7255    0.0000 C   0  0  0  0  0  0  0  0  0  0  0  0
   -0.0133   -1.5647    0.0000 C   0  0  0  0  0  0  0  0  0  0  0  0
    2.9000    1.5830    0.0000 C   0  0  0  0  0  0  0  0  0  0  0  0
    3.6144    1.9955    0.0000 C   0  0  0  0  0  0  0  0  0  0  0  0
    4.3290    1.5830    0.0000 C   0  0  0  0  0  0  0  0  0  0  0  0
    4.3290    0.7580    0.0000 C   0  0  0  0  0  0  0  0  0  0  0  0
    2.1856    1.9955    0.0000 C   0  0  0  0  0  0  0  0  0  0  0  0
    1.4711    1.5830    0.0000 C   0  0  0  0  0  0  0  0  0  0  0  0
    5.0435    1.9955    0.0000 C   0  0  0  0  0  0  0  0  0  0  0  0
  1  2  1  0
  2  3  1  0
  2  4  2  0
  2  5  2  0
  6 12  1  0
  7  6  1  0
  8  9  1  0
  8  7  1  0
  8  1  1  1
  9 10  1  0
 10 12  1  0
 11 25  1  0
 11 10  2  0
 12 22  1  0
 12 21  1  1
 22 13  1  1
 13 14  1  0
 14 15  1  0
 15 20  1  1
 16 15  1  0
 16 17  1  1
 19 18  1  1
 18 17  1  0
 19 15  1  0
 24 16  1  0
 24 22  1  0
 24 25  1  6
 27 26  1  0
 28 27  1  0
 29 28  1  0
 30 26  1  0
 30 31  1  0
 31 19  1  0
 31 23  1  6
 32 28  1  0
M  END
>  <DRUGBANK_ID>  (1) 
DB01990

>  <SECONDARY_ACCESSION_NUMBERS>  (1) 
EXPT00810; DBSALT002202

>  <COMMON_NAME>  (1) 
Cholesterol sulfate

>  <CAS_NUMBER>  (1) 
1256-86-6

>  <UNII>  (1) 
KU576NT9O9

>  <SYNONYMS>  (1) 
Cholest-5-en-3beta-ol sulfate; Cholesterol 3-sulfate; Cholesterol 3-sulphate; Cholesterol hydrogen sulfate; Cholesterol hydrogen sulphate; Cholesterol sulphate; Cholesterol-Sulfate; Cholesteryl sulphate

$$$$
