
     RDKit          2D

 26 30  0  0  1  0  0  0  0  0999 V2000
   -1.5600   -3.1422    0.0000 C   0  0  0  0  0  0  0  0  0  0  0  0
   -0.7350   -3.1422    0.0000 C   0  0  0  0  0  0  0  0  0  0  0  0
   -0.3225   -2.4277    0.0000 C   0  0  0  0  0  0  0  0  0  0  0  0
    0.5025   -2.4277    0.0000 N   0  0  0  0  0  0  0  0  0  0  0  0
    0.9150   -1.7132    0.0000 C   0  0  0  0  0  0  0  0  0  0  0  0
    1.7400   -1.7132    0.0000 C   0  0  0  0  0  0  0  0  0  0  0  0
    2.1525   -2.4277    0.0000 C   0  0  0  0  0  0  0  0  0  0  0  0
    2.9775   -2.4277    0.0000 O   0  0  0  0  0  0  0  0  0  0  0  0
    1.7400   -3.1422    0.0000 N   0  0  0  0  0  0  0  0  0  0  0  0
    0.9150   -3.1422    0.0000 C   0  0  0  0  0  0  0  0  0  0  0  0
    0.5025   -3.8566    0.0000 O   0  0  0  0  0  0  0  0  0  0  0  0
    2.1525   -3.8566    0.0000 C   0  0  0  0  0  0  0  0  0  0  0  0
    1.7400   -4.5711    0.0000 C   0  0  0  0  0  0  0  0  0  0  0  0
    2.1525   -5.2856    0.0000 C   0  0  0  0  0  0  0  0  0  0  0  0
    1.9949   -0.9286    0.0000 N   0  0  0  0  0  0  0  0  0  0  0  0
    1.3275   -0.4437    0.0000 C   0  0  0  0  0  0  0  0  0  0  0  0
    0.6600   -0.9286    0.0000 N   0  0  0  0  0  0  0  0  0  0  0  0
    1.3275    0.3813    0.0000 C   0  0  0  0  0  0  0  0  0  0  0  0
    0.5515    0.0320    0.0000 C   0  0  0  0  0  0  0  0  0  0  0  0
    0.4608    0.8646    0.0000 C   0  0  0  0  0  0  0  0  0  0  0  0
    1.3275    0.8902    0.0000 C   0  0  0  0  0  0  0  0  0  0  0  0
    2.1941    0.8646    0.0000 C   0  0  0  0  0  0  0  0  0  0  0  0
    2.1034    0.0320    0.0000 C   0  0  0  0  0  0  0  0  0  0  0  0
    2.1286    1.6971    0.0000 C   0  0  0  0  0  0  0  0  0  0  0  0
    1.3275    1.4072    0.0000 C   0  0  0  0  0  0  0  0  0  0  0  0
    0.5263    1.6971    0.0000 C   0  0  0  0  0  0  0  0  0  0  0  0
  1  2  1  0
  2  3  1  0
  3  4  1  0
  4  5  1  0
  4 10  1  0
  5  6  2  0
  5 17  1  0
  6  7  1  0
  6 15  1  0
  7  8  2  0
  7  9  1  0
  9 10  1  0
  9 12  1  0
 10 11  2  0
 12 13  1  0
 13 14  1  0
 15 16  1  0
 16 17  2  0
 16 18  1  0
 18 19  1  0
 18 23  1  0
 18 25  1  0
 20 19  1  1
 20 21  1  0
 20 26  1  0
 22 21  1  6
 22 23  1  0
 22 24  1  0
 24 25  1  0
 25 26  1  0
M  END
>  <DRUGBANK_ID>  (1) 
DB12670

>  <SECONDARY_ACCESSION_NUMBERS>  (1) 
DB05360

>  <COMMON_NAME>  (1) 
Rolofylline

>  <CAS_NUMBER>  (1) 
136199-02-5

>  <UNII>  (1) 
7805S5HIHX

>  <SYNONYMS>  (1) 
Rolofylline

$$$$
