
     RDKit          2D

 19 21  0  0  0  0  0  0  0  0999 V2000
   -0.2775   -1.0312    0.0000 C   0  0  0  0  0  0  0  0  0  0  0  0
   -0.2775   -0.2062    0.0000 C   0  0  0  0  0  0  0  0  0  0  0  0
   -0.9920    0.2062    0.0000 C   0  0  0  0  0  0  0  0  0  0  0  0
   -1.7065   -0.2062    0.0000 C   0  0  0  0  0  0  0  0  0  0  0  0
   -1.7065   -1.0312    0.0000 C   0  0  0  0  0  0  0  0  0  0  0  0
   -0.9920   -1.4437    0.0000 N   0  0  0  0  0  0  0  0  0  0  0  0
    1.1513    1.4437    0.0000 C   0  0  0  0  0  0  0  0  0  0  0  0
    0.4369    1.0312    0.0000 C   0  0  0  0  0  0  0  0  0  0  0  0
    0.4369    0.2062    0.0000 C   0  0  0  0  0  0  0  0  0  0  0  0
    1.1513   -0.2062    0.0000 C   0  0  0  0  0  0  0  0  0  0  0  0
    1.8658    1.0312    0.0000 C   0  0  0  0  0  0  0  0  0  0  0  0
    1.8658    0.2062    0.0000 N   0  0  0  0  0  0  0  0  0  0  0  0
    2.6504   -0.0486    0.0000 C   0  0  0  0  0  0  0  0  0  0  0  0
    3.1353    0.6187    0.0000 C   0  0  0  0  0  0  0  0  0  0  0  0
    2.6504    1.2862    0.0000 N   0  0  0  0  0  0  0  0  0  0  0  0
    0.4369   -1.4437    0.0000 C   0  0  0  0  0  0  0  0  0  0  0  0
   -2.4210   -1.4437    0.0000 O   0  0  0  0  0  0  0  0  0  0  0  0
   -2.4210    0.2062    0.0000 C   0  0  0  0  0  0  0  0  0  0  0  0
   -3.1354    0.6187    0.0000 N   0  0  0  0  0  0  0  0  0  0  0  0
  1  2  2  0
  1  6  1  0
  1 16  1  0
  2  3  1  0
  3  4  2  0
  4  5  1  0
  4 18  1  0
  5  6  1  0
  5 17  2  0
  7  8  2  0
  8  9  1  0
  9 10  2  0
  9  2  1  0
 11 12  1  0
 11  7  1  0
 12 13  1  0
 12 10  1  0
 13 14  2  0
 14 15  1  0
 15 11  2  0
 18 19  3  0
M  END
>  <DRUGBANK_ID>  (1) 
DB16847

>  <COMMON_NAME>  (1) 
Olprinone

>  <CAS_NUMBER>  (1) 
106730-54-5

>  <UNII>  (1) 
4Y8BMI9YGC

>  <SYNONYMS>  (1) 
Loprinone; Olprinone

$$$$
