R64
     RDKit          2D

 30 33  0  0  0  0  0  0  0  0999 V2000
   -2.2375    1.0591    0.0000 O   0  0  0  0  0  0  0  0  0  0  0  0
   -1.4170    1.1453    0.0000 C   0  0  0  0  0  0  0  0  0  0  0  0
   -1.0814    0.3916    0.0000 C   0  0  0  0  0  0  0  0  0  0  0  0
   -1.6945   -0.1604    0.0000 C   0  0  0  0  0  0  0  0  0  0  0  0
   -1.6945   -0.9854    0.0000 C   0  0  0  0  0  0  0  0  0  0  0  0
   -2.4090   -1.3979    0.0000 C   0  0  0  0  0  0  0  0  0  0  0  0
   -3.1235   -0.9854    0.0000 C   0  0  0  0  0  0  0  0  0  0  0  0
   -3.1235   -0.1604    0.0000 C   0  0  0  0  0  0  0  0  0  0  0  0
   -2.4090    0.2521    0.0000 C   0  0  0  0  0  0  0  0  0  0  0  0
   -1.0045    1.8598    0.0000 C   0  0  0  0  0  0  0  0  0  0  0  0
   -0.1795    1.8598    0.0000 O   0  0  0  0  0  0  0  0  0  0  0  0
   -1.4170    2.5742    0.0000 C   0  0  0  0  0  0  0  0  0  0  0  0
   -2.2375    2.6605    0.0000 N   0  0  0  0  0  0  0  0  0  0  0  0
   -2.7895    2.0474    0.0000 C   0  0  0  0  0  0  0  0  0  0  0  0
   -2.4090    3.4674    0.0000 C   0  0  0  0  0  0  0  0  0  0  0  0
   -1.6945    3.8799    0.0000 C   0  0  0  0  0  0  0  0  0  0  0  0
   -1.0814    3.3279    0.0000 N   0  0  0  0  0  0  0  0  0  0  0  0
   -0.2745    0.2201    0.0000 C   0  0  0  0  0  0  0  0  0  0  0  0
   -0.9801   -1.3979    0.0000 O   0  0  0  0  0  0  0  0  0  0  0  0
   -0.2656   -0.9854    0.0000 C   0  0  0  0  0  0  0  0  0  0  0  0
    0.4489   -1.3979    0.0000 C   0  0  0  0  0  0  0  0  0  0  0  0
    1.1633   -0.9854    0.0000 C   0  0  0  0  0  0  0  0  0  0  0  0
    1.8778   -1.3979    0.0000 N   0  0  0  0  0  0  0  0  0  0  0  0
    2.5923   -0.9854    0.0000 C   0  0  0  0  0  0  0  0  0  0  0  0
    3.3068   -1.3979    0.0000 C   0  0  0  0  0  0  0  0  0  0  0  0
    4.0212   -0.9854    0.0000 C   0  0  0  0  0  0  0  0  0  0  0  0
    4.7357   -1.3979    0.0000 C   0  0  0  0  0  0  0  0  0  0  0  0
    4.7357   -2.2229    0.0000 C   0  0  0  0  0  0  0  0  0  0  0  0
    4.0212   -2.6354    0.0000 N   0  0  0  0  0  0  0  0  0  0  0  0
    3.3068   -2.2229    0.0000 C   0  0  0  0  0  0  0  0  0  0  0  0
  1  2  1  0
  1  9  1  0
  2  3  2  0
  2 10  1  0
  3  4  1  0
  3 18  1  0
  4  5  1  0
  4  9  2  0
  5  6  2  0
  5 19  1  0
  6  7  1  0
  7  8  2  0
  8  9  1  0
 10 11  2  0
 10 12  1  0
 12 13  1  0
 12 17  2  0
 13 14  1  0
 13 15  1  0
 15 16  2  0
 16 17  1  0
 19 20  1  0
 20 21  1  0
 21 22  1  0
 22 23  1  0
 23 24  1  0
 24 25  1  0
 25 26  2  0
 25 30  1  0
 26 27  1  0
 27 28  2  0
 28 29  1  0
 29 30  2  0
M  END
>  <DRUGBANK_ID>  (1) 
DB03062

>  <SECONDARY_ACCESSION_NUMBERS>  (1) 
EXPT02748

>  <COMMON_NAME>  (1) 
(1-Methyl-1h-Imidazol-2-Yl)-(3-Methyl-4-{3-[(Pyridin-3-Ylmethyl)-Amino]-Propoxy}-Benzofuran-2-Yl)-Methanone

$$$$
