
     RDKit          2D

 36 40  0  0  0  0  0  0  0  0999 V2000
    4.3415    0.3031    0.0000 C   0  0  0  0  0  0  0  0  0  0  0  0
    5.0560   -0.1093    0.0000 C   0  0  0  0  0  0  0  0  0  0  0  0
    5.7705    0.3031    0.0000 C   0  0  0  0  0  0  0  0  0  0  0  0
    5.0560   -0.9343    0.0000 N   0  0  0  0  0  0  0  0  0  0  0  0
    5.7234   -1.4192    0.0000 C   0  0  0  0  0  0  0  0  0  0  0  0
    5.4685   -2.2038    0.0000 N   0  0  0  0  0  0  0  0  0  0  0  0
    4.6435   -2.2038    0.0000 C   0  0  0  0  0  0  0  0  0  0  0  0
    4.3885   -1.4192    0.0000 C   0  0  0  0  0  0  0  0  0  0  0  0
    3.6039   -1.1643    0.0000 C   0  0  0  0  0  0  0  0  0  0  0  0
    2.9365   -1.6492    0.0000 N   0  0  0  0  0  0  0  0  0  0  0  0
    2.2690   -1.1643    0.0000 C   0  0  0  0  0  0  0  0  0  0  0  0
    2.5240   -0.3797    0.0000 C   0  0  0  0  0  0  0  0  0  0  0  0
    3.3490   -0.3797    0.0000 N   0  0  0  0  0  0  0  0  0  0  0  0
    2.0390    0.2877    0.0000 C   0  0  0  0  0  0  0  0  0  0  0  0
    2.3746    1.0414    0.0000 O   0  0  0  0  0  0  0  0  0  0  0  0
    1.2185    0.2015    0.0000 N   0  0  0  0  0  0  0  0  0  0  0  0
    0.7336    0.8689    0.0000 C   0  0  0  0  0  0  0  0  0  0  0  0
   -0.0867    0.7827    0.0000 C   0  0  0  0  0  0  0  0  0  0  0  0
   -0.5717    1.4501    0.0000 C   0  0  0  0  0  0  0  0  0  0  0  0
   -0.2361    2.2038    0.0000 C   0  0  0  0  0  0  0  0  0  0  0  0
    0.5843    2.2900    0.0000 C   0  0  0  0  0  0  0  0  0  0  0  0
    1.0692    1.6226    0.0000 C   0  0  0  0  0  0  0  0  0  0  0  0
   -0.7210    2.8712    0.0000 N   0  0  0  0  0  0  0  0  0  0  0  0
   -1.5415    2.7850    0.0000 C   0  0  0  0  0  0  0  0  0  0  0  0
   -2.0265    3.4524    0.0000 C   0  0  0  0  0  0  0  0  0  0  0  0
   -1.6909    4.2061    0.0000 N   0  0  0  0  0  0  0  0  0  0  0  0
   -2.1758    4.8736    0.0000 C   0  0  0  0  0  0  0  0  0  0  0  0
   -0.8704    4.2923    0.0000 C   0  0  0  0  0  0  0  0  0  0  0  0
   -0.3855    3.6249    0.0000 C   0  0  0  0  0  0  0  0  0  0  0  0
    4.1585   -2.8713    0.0000 C   0  0  0  0  0  0  0  0  0  0  0  0
    4.4941   -3.6249    0.0000 C   0  0  0  0  0  0  0  0  0  0  0  0
    4.0092   -4.2924    0.0000 C   0  0  0  0  0  0  0  0  0  0  0  0
    3.1887   -4.2062    0.0000 C   0  0  0  0  0  0  0  0  0  0  0  0
    2.7038   -4.8736    0.0000 F   0  0  0  0  0  0  0  0  0  0  0  0
    2.8531   -3.4525    0.0000 C   0  0  0  0  0  0  0  0  0  0  0  0
    3.3380   -2.7850    0.0000 C   0  0  0  0  0  0  0  0  0  0  0  0
  1  2  1  0
  2  3  1  0
  2  4  1  0
  4  5  1  0
  4  8  1  0
  5  6  2  0
  6  7  1  0
  7  8  2  0
  7 30  1  0
  8  9  1  0
  9 10  2  0
  9 13  1  0
 10 11  1  0
 11 12  2  0
 12 13  1  0
 12 14  1  0
 14 15  2  0
 14 16  1  0
 16 17  1  0
 17 18  2  0
 17 22  1  0
 18 19  1  0
 19 20  2  0
 20 21  1  0
 20 23  1  0
 21 22  2  0
 23 24  1  0
 23 29  1  0
 24 25  1  0
 25 26  1  0
 26 27  1  0
 26 28  1  0
 28 29  1  0
 30 31  2  0
 30 36  1  0
 31 32  1  0
 32 33  2  0
 33 34  1  0
 33 35  1  0
 35 36  2  0
M  END
>  <DRUGBANK_ID>  (1) 
DB18083

>  <COMMON_NAME>  (1) 
INS018_055

>  <SYNONYMS>  (1) 
5’-(4-fluorophenyl)-3’-isopropyl-N-(4-(4-methylpiperazin-1-yl)phenyl)-1H,3’H-[2,4’-biimidazole]-4-carboxamide

$$$$
