
     RDKit          2D

 40 44  0  0  0  0  0  0  0  0999 V2000
   -2.7787   -0.8748    0.0000 C   0  0  0  0  0  0  0  0  0  0  0  0
   -3.0218   -1.6632    0.0000 C   0  0  0  0  0  0  0  0  0  0  0  0
   -2.4607   -2.2679    0.0000 C   0  0  0  0  0  0  0  0  0  0  0  0
   -1.6564   -2.0844    0.0000 C   0  0  0  0  0  0  0  0  0  0  0  0
   -1.4132   -1.2960    0.0000 C   0  0  0  0  0  0  0  0  0  0  0  0
   -1.9744   -0.6913    0.0000 C   0  0  0  0  0  0  0  0  0  0  0  0
   -1.7312    0.0970    0.0000 C   0  0  0  0  0  0  0  0  0  0  0  0
    1.4132   -1.2960    0.0000 C   0  0  0  0  0  0  0  0  0  0  0  0
    1.6563   -2.0844    0.0000 C   0  0  0  0  0  0  0  0  0  0  0  0
    2.4606   -2.2679    0.0000 C   0  0  0  0  0  0  0  0  0  0  0  0
    3.0219   -1.6632    0.0000 C   0  0  0  0  0  0  0  0  0  0  0  0
    2.7786   -0.8748    0.0000 C   0  0  0  0  0  0  0  0  0  0  0  0
    1.9743   -0.6913    0.0000 C   0  0  0  0  0  0  0  0  0  0  0  0
    1.7311    0.0970    0.0000 C   0  0  0  0  0  0  0  0  0  0  0  0
   -0.9269    0.2806    0.0000 C   0  0  0  0  0  0  0  0  0  0  0  0
   -0.4125   -0.3643    0.0000 C   0  0  0  0  0  0  0  0  0  0  0  0
   -0.7704   -1.1076    0.0000 O   0  0  0  0  0  0  0  0  0  0  0  0
    0.4124   -0.3643    0.0000 C   0  0  0  0  0  0  0  0  0  0  0  0
    0.7704   -1.1076    0.0000 O   0  0  0  0  0  0  0  0  0  0  0  0
    0.9269    0.2806    0.0000 C   0  0  0  0  0  0  0  0  0  0  0  0
   -2.1563    1.2979    0.0000 C   0  0  0  0  0  0  0  0  0  0  0  0
   -2.2792    0.4821    0.0000 C   0  0  0  0  0  0  0  0  0  0  0  0
   -3.0472    0.1808    0.0000 C   0  0  0  0  0  0  0  0  0  0  0  0
   -3.6922    0.6951    0.0000 C   0  0  0  0  0  0  0  0  0  0  0  0
   -3.5692    1.5108    0.0000 C   0  0  0  0  0  0  0  0  0  0  0  0
   -2.8013    1.8122    0.0000 C   0  0  0  0  0  0  0  0  0  0  0  0
    3.5693    1.5108    0.0000 C   0  0  0  0  0  0  0  0  0  0  0  0
    3.6922    0.6951    0.0000 C   0  0  0  0  0  0  0  0  0  0  0  0
    3.0472    0.1808    0.0000 C   0  0  0  0  0  0  0  0  0  0  0  0
    2.2793    0.4821    0.0000 C   0  0  0  0  0  0  0  0  0  0  0  0
    2.1563    1.2979    0.0000 C   0  0  0  0  0  0  0  0  0  0  0  0
    2.8012    1.8122    0.0000 C   0  0  0  0  0  0  0  0  0  0  0  0
    0.7432    1.0849    0.0000 N   0  0  0  0  0  0  0  0  0  0  0  0
    0.0000    1.4428    0.0000 C   0  0  0  0  0  0  0  0  0  0  0  0
   -0.7433    1.0849    0.0000 N   0  0  0  0  0  0  0  0  0  0  0  0
    0.0000    2.2678    0.0000 O   0  0  0  0  0  0  0  0  0  0  0  0
    1.3883    1.5993    0.0000 C   0  0  0  0  0  0  0  0  0  0  0  0
   -1.3883    1.5993    0.0000 C   0  0  0  0  0  0  0  0  0  0  0  0
    4.2143    2.0252    0.0000 N   0  0  0  0  0  0  0  0  0  0  0  0
   -4.2143    2.0252    0.0000 N   0  0  0  0  0  0  0  0  0  0  0  0
  1  2  2  0
  2  3  1  0
  3  4  2  0
  4  5  1  0
  5  6  2  0
  6  1  1  0
  6  7  1  0
  8  9  2  0
  9 10  1  0
 10 11  2  0
 11 12  1  0
 12 13  2  0
 13  8  1  0
 13 14  1  0
 15  7  1  1
 15 35  1  0
 16 17  1  1
 16 15  1  0
 16 18  1  0
 18 20  1  0
 18 19  1  6
 20 14  1  6
 20 33  1  0
 21 22  2  0
 22 23  1  0
 23 24  2  0
 24 25  1  0
 25 26  2  0
 25 40  1  0
 26 21  1  0
 27 28  2  0
 27 39  1  0
 28 29  1  0
 29 30  2  0
 30 31  1  0
 31 32  2  0
 32 27  1  0
 33 34  1  0
 33 37  1  0
 34 35  1  0
 34 36  2  0
 35 38  1  0
 37 31  1  0
 38 21  1  0
M  END
>  <DRUGBANK_ID>  (1) 
DB02102

>  <SECONDARY_ACCESSION_NUMBERS>  (1) 
EXPT00197; DB02886

>  <COMMON_NAME>  (1) 
Mozenavir

>  <CAS_NUMBER>  (1) 
174391-92-5

>  <UNII>  (1) 
64OO8946ER

>  <SYNONYMS>  (1) 
Mozenavir; Moz√©navir; Mozenavirum

$$$$
