
     RDKit          2D

 28 31  0  0  1  0  0  0  0  0999 V2000
    1.8198    0.2868    0.0000 N   0  0  0  0  0  0  0  0  0  0  0  0
    1.0352    0.0319    0.0000 N   0  0  0  0  0  0  0  0  0  0  0  0
    0.5503    0.6993    0.0000 C   0  0  0  0  0  0  0  0  0  0  0  0
    1.0352    1.3668    0.0000 N   0  0  0  0  0  0  0  0  0  0  0  0
    1.8198    1.1118    0.0000 C   0  0  0  0  0  0  0  0  0  0  0  0
    2.4872    1.5968    0.0000 C   0  0  0  0  0  0  0  0  0  0  0  0
    3.2409    1.2613    0.0000 C   0  0  0  0  0  0  0  0  0  0  0  0
    3.9084    1.7462    0.0000 C   0  0  0  0  0  0  0  0  0  0  0  0
    4.6620    1.4107    0.0000 C   0  0  0  0  0  0  0  0  0  0  0  0
    4.7483    0.5901    0.0000 C   0  0  0  0  0  0  0  0  0  0  0  0
    4.0808    0.1053    0.0000 C   0  0  0  0  0  0  0  0  0  0  0  0
    3.3272    0.4408    0.0000 C   0  0  0  0  0  0  0  0  0  0  0  0
   -0.2746    0.6993    0.0000 C   0  0  0  0  0  0  0  0  0  0  0  0
   -0.6871    1.4139    0.0000 O   0  0  0  0  0  0  0  0  0  0  0  0
   -0.6871   -0.0150    0.0000 N   0  0  0  0  0  0  0  0  0  0  0  0
   -1.5121   -0.0150    0.0000 C   0  0  0  0  0  0  0  0  0  0  0  0
   -1.8701   -0.7582    0.0000 C   0  0  0  0  0  0  0  0  0  0  0  0
   -2.6744   -0.9419    0.0000 N   0  0  0  0  0  0  0  0  0  0  0  0
   -3.3194   -0.4274    0.0000 C   0  0  0  0  0  0  0  0  0  0  0  0
   -3.3194    0.3974    0.0000 C   0  0  0  0  0  0  0  0  0  0  0  0
   -2.6744    0.9117    0.0000 O   0  0  0  0  0  0  0  0  0  0  0  0
   -1.8701    0.7282    0.0000 C   0  0  0  0  0  0  0  0  0  0  0  0
   -4.0339    0.8100    0.0000 C   0  0  0  0  0  0  0  0  0  0  0  0
   -4.7484    0.3974    0.0000 C   0  0  0  0  0  0  0  0  0  0  0  0
   -4.7484   -0.4274    0.0000 C   0  0  0  0  0  0  0  0  0  0  0  0
   -4.0339   -0.8399    0.0000 C   0  0  0  0  0  0  0  0  0  0  0  0
   -2.8580   -1.7462    0.0000 C   0  0  0  0  0  0  0  0  0  0  0  0
   -1.3557   -1.4033    0.0000 O   0  0  0  0  0  0  0  0  0  0  0  0
  1  2  1  0
  1  5  1  0
  2  3  2  0
  3  4  1  0
  3 13  1  0
  4  5  2  0
  5  6  1  0
  6  7  1  0
  7  8  2  0
  7 12  1  0
  8  9  1  0
  9 10  2  0
 10 11  1  0
 11 12  2  0
 13 14  2  0
 13 15  1  0
 16 15  1  6
 16 22  1  0
 17 16  1  0
 17 28  2  0
 18 17  1  0
 18 27  1  0
 19 18  1  0
 20 19  2  0
 21 20  1  0
 21 22  1  0
 23 20  1  0
 24 23  2  0
 25 24  1  0
 26 25  2  0
 26 19  1  0
M  END
>  <DRUGBANK_ID>  (1) 
DB16875

>  <COMMON_NAME>  (1) 
GSK-2982772

>  <CAS_NUMBER>  (1) 
1622848-92-3

>  <UNII>  (1) 
T5W3M0VO9B

$$$$
