
     RDKit          2D

 18 18  0  0  0  0  0  0  0  0999 V2000
   -1.4437   -0.6592    0.0000 C   0  0  0  0  0  0  0  0  0  0  0  0
   -0.6187   -0.6592    0.0000 S   0  0  0  0  0  0  0  0  0  0  0  0
   -1.8562    0.0553    0.0000 C   0  0  0  0  0  0  0  0  0  0  0  0
   -1.8562   -1.3737    0.0000 C   0  0  0  0  0  0  0  0  0  0  0  0
    0.2062   -0.6592    0.0000 N   0  0  0  0  0  0  0  0  0  0  0  0
   -0.6187    0.1656    0.0000 O   0  0  0  0  0  0  0  0  0  0  0  0
   -0.6187   -1.4842    0.0000 O   0  0  0  0  0  0  0  0  0  0  0  0
   -2.6812    0.0553    0.0000 C   0  0  0  0  0  0  0  0  0  0  0  0
   -2.6812   -1.3737    0.0000 C   0  0  0  0  0  0  0  0  0  0  0  0
    0.6187    0.0553    0.0000 C   0  0  0  0  0  0  0  0  0  0  0  0
   -3.0936   -0.6592    0.0000 C   0  0  0  0  0  0  0  0  0  0  0  0
    1.4437    0.0553    0.0000 N   0  0  0  0  0  0  0  0  0  0  0  0
    0.2062    0.7695    0.0000 O   0  0  0  0  0  0  0  0  0  0  0  0
   -3.9187   -0.6592    0.0000 N   0  0  0  0  0  0  0  0  0  0  0  0
    1.8562    0.7695    0.0000 C   0  0  0  0  0  0  0  0  0  0  0  0
    2.6812    0.7695    0.0000 C   0  0  0  0  0  0  0  0  0  0  0  0
    3.0936    1.4842    0.0000 C   0  0  0  0  0  0  0  0  0  0  0  0
    3.9187    1.4842    0.0000 C   0  0  0  0  0  0  0  0  0  0  0  0
  1  2  1  0
  1  3  2  0
  1  4  1  0
  2  5  1  0
  2  6  2  0
  2  7  2  0
  3  8  1  0
  4  9  2  0
  5 10  1  0
  8 11  2  0
  9 11  1  0
 10 12  1  0
 10 13  2  0
 11 14  1  0
 12 15  1  0
 15 16  1  0
 16 17  1  0
 17 18  1  0
M  END
>  <DRUGBANK_ID>  (1) 
DB13406

>  <COMMON_NAME>  (1) 
Carbutamide

>  <CAS_NUMBER>  (1) 
339-43-5

>  <UNII>  (1) 
E3K8P4869P

>  <SYNONYMS>  (1) 
Carbutamida; Carbutamide; Carbutamidum

$$$$
