617
     RDKit          2D

 21 22  0  0  0  0  0  0  0  0999 V2000
   -1.9629    0.9246    0.0000 C   0  0  0  0  0  0  0  0  0  0  0  0
   -2.6774   -1.1379    0.0000 C   0  0  0  0  0  0  0  0  0  0  0  0
    0.1805   -0.3129    0.0000 C   0  0  0  0  0  0  0  0  0  0  0  0
   -1.2484    1.3371    0.0000 O   0  0  0  0  0  0  0  0  0  0  0  0
   -2.6774    1.3371    0.0000 O   0  0  0  0  0  0  0  0  0  0  0  0
   -1.2484   -1.1379    0.0000 C   0  0  0  0  0  0  0  0  0  0  0  0
   -0.5340    0.0996    0.0000 N   0  0  0  0  0  0  0  0  0  0  0  0
   -1.9629   -1.5504    0.0000 C   0  0  0  0  0  0  0  0  0  0  0  0
    0.1805   -1.1379    0.0000 O   0  0  0  0  0  0  0  0  0  0  0  0
   -1.2484   -0.3129    0.0000 C   0  0  0  0  0  0  0  0  0  0  0  0
   -1.9629    0.0996    0.0000 C   0  0  0  0  0  0  0  0  0  0  0  0
   -2.6774   -0.3129    0.0000 C   0  0  0  0  0  0  0  0  0  0  0  0
    0.8950    0.0996    0.0000 C   0  0  0  0  0  0  0  0  0  0  0  0
    1.6094   -0.3129    0.0000 O   0  0  0  0  0  0  0  0  0  0  0  0
    2.3239    0.0996    0.0000 C   0  0  0  0  0  0  0  0  0  0  0  0
    3.0384   -0.3129    0.0000 C   0  0  0  0  0  0  0  0  0  0  0  0
    3.7529    0.0996    0.0000 C   0  0  0  0  0  0  0  0  0  0  0  0
    3.7529    0.9246    0.0000 C   0  0  0  0  0  0  0  0  0  0  0  0
    3.0384    1.3371    0.0000 C   0  0  0  0  0  0  0  0  0  0  0  0
    2.3239    0.9246    0.0000 C   0  0  0  0  0  0  0  0  0  0  0  0
    4.4673    1.3371    0.0000 Cl  0  0  0  0  0  0  0  0  0  0  0  0
  1  5  2  0
  1 11  1  0
  1  4  1  0
  2 12  2  0
  2  8  1  0
  3  7  1  0
  3  9  2  0
  3 13  1  0
  6  8  2  0
  6 10  1  0
  7 10  1  0
 10 11  2  0
 11 12  1  0
 13 14  1  0
 14 15  1  0
 15 20  1  0
 15 16  2  0
 16 17  1  0
 17 18  2  0
 18 19  1  0
 18 21  1  0
 19 20  2  0
M  END
>  <DRUGBANK_ID>  (1) 
DB07185

>  <COMMON_NAME>  (1) 
2-{[(4-CHLOROPHENOXY)ACETYL]AMINO}BENZOIC ACID

$$$$
