DTC
     RDKit          2D

 25 28  0  0  0  0  0  0  0  0999 V2000
    0.2418   -1.2907    0.0000 O   0  0  0  0  0  0  0  0  0  0  0  0
    0.9563   -1.7032    0.0000 C   0  0  0  0  0  0  0  0  0  0  0  0
    1.6708   -1.2907    0.0000 C   0  0  0  0  0  0  0  0  0  0  0  0
    1.6708   -0.4657    0.0000 C   0  0  0  0  0  0  0  0  0  0  0  0
    2.3852   -0.0532    0.0000 O   0  0  0  0  0  0  0  0  0  0  0  0
    0.9563   -0.0532    0.0000 C   0  0  0  0  0  0  0  0  0  0  0  0
    0.9563    0.7718    0.0000 C   0  0  0  0  0  0  0  0  0  0  0  0
    0.2418   -0.4657    0.0000 C   0  0  0  0  0  0  0  0  0  0  0  0
   -0.4727   -0.0532    0.0000 O   0  0  0  0  0  0  0  0  0  0  0  0
    2.3852   -1.7032    0.0000 C   0  0  0  0  0  0  0  0  0  0  0  0
    2.3852   -2.5282    0.0000 C   0  0  0  0  0  0  0  0  0  0  0  0
    1.6708   -2.9407    0.0000 C   0  0  0  0  0  0  0  0  0  0  0  0
    0.9563   -2.5282    0.0000 C   0  0  0  0  0  0  0  0  0  0  0  0
   -1.9016    0.7718    0.0000 C   0  0  0  0  0  0  0  0  0  0  0  0
   -1.1871    1.1843    0.0000 C   0  0  0  0  0  0  0  0  0  0  0  0
   -1.1871    2.0093    0.0000 C   0  0  0  0  0  0  0  0  0  0  0  0
   -1.9016    2.4218    0.0000 C   0  0  0  0  0  0  0  0  0  0  0  0
   -2.6161    2.0093    0.0000 C   0  0  0  0  0  0  0  0  0  0  0  0
   -2.6161    1.1843    0.0000 C   0  0  0  0  0  0  0  0  0  0  0  0
   -0.4727    2.4218    0.0000 O   0  0  0  0  0  0  0  0  0  0  0  0
    0.2418    2.0093    0.0000 C   0  0  0  0  0  0  0  0  0  0  0  0
    0.9563    2.4218    0.0000 O   0  0  0  0  0  0  0  0  0  0  0  0
    0.2418    1.1843    0.0000 C   0  0  0  0  0  0  0  0  0  0  0  0
   -0.4727    0.7718    0.0000 C   0  0  0  0  0  0  0  0  0  0  0  0
   -0.9576    0.1043    0.0000 O   0  0  0  0  0  0  0  0  0  0  0  0
  1  2  1  0
  1  8  1  0
  2  3  2  0
  2 13  1  0
  3  4  1  0
  3 10  1  0
  4  5  2  0
  4  6  1  0
  6  7  1  6
  6  8  1  0
  8  9  2  0
 10 11  2  0
 11 12  1  0
 12 13  2  0
 14 15  2  0
 14 19  1  0
 15 16  1  0
 15 24  1  0
 16 17  2  0
 16 20  1  0
 17 18  1  0
 18 19  2  0
 20 21  1  0
 21 22  2  0
 21 23  1  0
 23  7  1  1
 23 24  1  0
 24 25  2  0
M  END
>  <DRUGBANK_ID>  (1) 
DB04392

>  <SECONDARY_ACCESSION_NUMBERS>  (1) 
EXPT01281

>  <COMMON_NAME>  (1) 
Bishydroxy[2h-1-Benzopyran-2-One,1,2-Benzopyrone]

$$$$
