
     RDKit          2D

 12 11  0  0  0  0  0  0  0  0999 V2000
    2.1656    0.2108    0.0000 C   0  0  0  0  0  0  0  0  0  0  0  0
   -2.1467    0.2108    0.0000 C   0  0  0  0  0  0  0  0  0  0  0  0
    2.1656    1.0349    0.0000 O   0  0  0  0  0  0  0  0  0  0  0  0
   -2.8749   -0.2108    0.0000 O   0  0  0  0  0  0  0  0  0  0  0  0
    2.8749   -0.2108    0.0000 O   0  0  0  0  0  0  0  0  0  0  0  0
   -2.1467    1.0349    0.0000 O   0  0  0  0  0  0  0  0  0  0  0  0
   -1.4375   -0.2108    0.0000 C   0  0  0  0  0  0  0  0  0  0  0  0
    1.4565   -0.2108    0.0000 C   0  0  0  0  0  0  0  0  0  0  0  0
    0.7282    0.2108    0.0000 C   0  0  0  0  0  0  0  0  0  0  0  0
   -0.7092    0.2108    0.0000 C   0  0  0  0  0  0  0  0  0  0  0  0
    0.0191   -0.2108    0.0000 C   0  0  0  0  0  0  0  0  0  0  0  0
    1.4565   -1.0349    0.0000 N   0  0  0  0  0  0  0  0  0  0  0  0
  3  1  2  0
  4  2  1  0
  5  1  1  0
  6  2  2  0
  7  2  1  0
  8  1  1  0
  8 12  1  1
  9  8  1  0
 10  7  1  0
 11  9  1  0
 11 10  1  0
M  END
>  <DRUGBANK_ID>  (1) 
DB03134

>  <SECONDARY_ACCESSION_NUMBERS>  (1) 
EXPT02383

>  <COMMON_NAME>  (1) 
L-2-aminopimelic acid

>  <CAS_NUMBER>  (1) 
26630-55-7

>  <UNII>  (1) 
0603E10Z5S

>  <SYNONYMS>  (1) 
(2S)-2-Aminoheptanedioic acid; (S)-2-aminoheptanedioic acid; 2-Aminopimelic acid; L-alpha-Aminopimelic acid; L-Î±-aminopimelic acid

$$$$
