DRS
     RDKit          2D

 26 27  0  0  0  0  0  0  0  0999 V2000
    2.6624   -0.7119    0.0000 C   0  0  0  0  0  0  0  0  0  0  0  0
    1.9120   -1.0129    0.0000 C   0  0  0  0  0  0  0  0  0  0  0  0
    1.7976   -1.8131    0.0000 C   0  0  0  0  0  0  0  0  0  0  0  0
    1.2762   -0.5135    0.0000 C   0  0  0  0  0  0  0  0  0  0  0  0
    0.6492   -1.0505    0.0000 C   0  0  0  0  0  0  0  0  0  0  0  0
    1.0419   -1.7571    0.0000 O   0  0  0  0  0  0  0  0  0  0  0  0
   -0.1399   -1.3001    0.0000 N   0  0  0  0  0  0  0  0  0  0  0  0
   -0.9661   -1.2421    0.0000 C   0  0  0  0  0  0  0  0  0  0  0  0
   -1.1763   -2.0228    0.0000 C   0  0  0  0  0  0  0  0  0  0  0  0
   -1.9574   -2.2311    0.0000 O   0  0  0  0  0  0  0  0  0  0  0  0
   -0.6053   -2.5950    0.0000 O   0  0  0  0  0  0  0  0  0  0  0  0
   -1.7139   -0.8757    0.0000 C   0  0  0  0  0  0  0  0  0  0  0  0
   -2.1208   -0.1361    0.0000 C   0  0  0  0  0  0  0  0  0  0  0  0
   -2.7707    0.3781    0.0000 C   0  0  0  0  0  0  0  0  0  0  0  0
   -2.6635    1.1912    0.0000 C   0  0  0  0  0  0  0  0  0  0  0  0
   -1.3768    0.2095    0.0000 C   0  0  0  0  0  0  0  0  0  0  0  0
   -1.2744    1.0095    0.0000 C   0  0  0  0  0  0  0  0  0  0  0  0
   -1.9090    1.5247    0.0000 C   0  0  0  0  0  0  0  0  0  0  0  0
   -1.4243    2.2049    0.0000 O   0  0  0  0  0  0  0  0  0  0  0  0
   -0.7326    2.6671    0.0000 C   0  0  0  0  0  0  0  0  0  0  0  0
    0.0984    2.7463    0.0000 C   0  0  0  0  0  0  0  0  0  0  0  0
    0.8624    2.4322    0.0000 C   0  0  0  0  0  0  0  0  0  0  0  0
    1.4269    1.8305    0.0000 C   0  0  0  0  0  0  0  0  0  0  0  0
    1.7045    1.0534    0.0000 C   0  0  0  0  0  0  0  0  0  0  0  0
    2.5050    1.1660    0.0000 O   0  0  0  0  0  0  0  0  0  0  0  0
    1.6518    0.2282    0.0000 N   0  0  0  0  0  0  0  0  0  0  0  0
  1  2  1  0
  2  3  1  0
  4  2  1  1
  4  5  1  0
  4 26  1  0
  5  6  2  0
  5  7  1  0
  7  8  1  0
  8  9  1  6
  8 12  1  0
  9 10  2  0
  9 11  1  0
 12 13  1  0
 13 14  2  0
 13 16  1  0
 14 15  1  0
 15 18  2  0
 16 17  2  0
 17 18  1  0
 18 19  1  0
 19 20  1  0
 20 21  1  0
 21 22  1  0
 22 23  1  0
 23 24  1  0
 24 25  2  0
 24 26  1  0
M  END
>  <DRUGBANK_ID>  (1) 
DB07679

>  <COMMON_NAME>  (1) 
(9S,12S)-9-(1-methylethyl)-7,10-dioxo-2-oxa-8,11-diazabicyclo[12.2.2]octadeca-1(16),14,17-triene-12-carboxylic acid

$$$$
