7X3
     RDKit          2D

 29 31  0  0  0  0  0  0  0  0999 V2000
    5.0339    9.1221    0.0000 C   0  0  0  0  0  0  0  0  0  0  0  0
    5.7484    8.7096    0.0000 O   0  0  0  0  0  0  0  0  0  0  0  0
    5.7484    7.8846    0.0000 C   0  0  0  0  0  0  0  0  0  0  0  0
    6.4628    7.4721    0.0000 C   0  0  0  0  0  0  0  0  0  0  0  0
    6.4628    6.6471    0.0000 C   0  0  0  0  0  0  0  0  0  0  0  0
    5.7484    6.2346    0.0000 C   0  0  0  0  0  0  0  0  0  0  0  0
    5.7484    5.4096    0.0000 N   0  0  0  0  0  0  0  0  0  0  0  0
    6.4628    4.9971    0.0000 C   0  0  0  0  0  0  0  0  0  0  0  0
    7.1773    5.4096    0.0000 N   0  0  0  0  0  0  0  0  0  0  0  0
    7.8918    4.9971    0.0000 C   0  0  0  0  0  0  0  0  0  0  0  0
    7.8918    4.1721    0.0000 N   0  0  0  0  0  0  0  0  0  0  0  0
    7.1773    3.7596    0.0000 C   0  0  0  0  0  0  0  0  0  0  0  0
    7.1773    2.9346    0.0000 N   0  0  0  0  0  0  0  0  0  0  0  0
    6.4628    2.5221    0.0000 C   0  0  0  0  0  0  0  0  0  0  0  0
    6.4628    1.6971    0.0000 C   0  0  0  0  0  0  0  0  0  0  0  0
    5.7484    1.2846    0.0000 C   0  0  0  0  0  0  0  0  0  0  0  0
    5.7484    0.4596    0.0000 O   0  0  0  0  0  0  0  0  0  0  0  0
    5.0339    0.0471    0.0000 C   0  0  0  0  0  0  0  0  0  0  0  0
    5.0339    1.6971    0.0000 C   0  0  0  0  0  0  0  0  0  0  0  0
    4.3194    1.2846    0.0000 O   0  0  0  0  0  0  0  0  0  0  0  0
    4.3194    0.4596    0.0000 C   0  0  0  0  0  0  0  0  0  0  0  0
    5.0339    2.5221    0.0000 C   0  0  0  0  0  0  0  0  0  0  0  0
    4.3194    2.9346    0.0000 O   0  0  0  0  0  0  0  0  0  0  0  0
    4.3194    3.7596    0.0000 C   0  0  0  0  0  0  0  0  0  0  0  0
    5.7484    2.9346    0.0000 C   0  0  0  0  0  0  0  0  0  0  0  0
    6.4628    4.1721    0.0000 N   0  0  0  0  0  0  0  0  0  0  0  0
    5.0339    6.6471    0.0000 C   0  0  0  0  0  0  0  0  0  0  0  0
    5.0339    7.4721    0.0000 C   0  0  0  0  0  0  0  0  0  0  0  0
    4.3194    7.8846    0.0000 Cl  0  0  0  0  0  0  0  0  0  0  0  0
  1  2  1  0
  2  3  1  0
  3  4  2  0
  3 28  1  0
  4  5  1  0
  5  6  2  0
  6  7  1  0
  6 27  1  0
  7  8  1  0
  8  9  2  0
  8 26  1  0
  9 10  1  0
 10 11  2  0
 11 12  1  0
 12 13  1  0
 12 26  2  0
 13 14  1  0
 14 15  2  0
 14 25  1  0
 15 16  1  0
 16 17  1  0
 16 19  2  0
 17 18  1  0
 19 20  1  0
 19 22  1  0
 20 21  1  0
 22 23  1  0
 22 25  2  0
 23 24  1  0
 27 28  2  0
 28 29  1  0
M  END
>  <DRUGBANK_ID>  (1) 
DB07251

>  <COMMON_NAME>  (1) 
N'-(3-CHLORO-4-METHOXY-PHENYL)-N-(3,4,5-TRIMETHOXYPHENYL)-1,3,5-TRIAZINE-2,4-DIAMINE

$$$$
