
     RDKit          2D

 27 30  0  0  1  0  0  0  0  0999 V2000
    3.3523    1.9354    0.0000 C   0  0  0  0  0  0  0  0  0  0  0  0
    3.3523    1.1104    0.0000 N   0  0  0  0  0  0  0  0  0  0  0  0
    2.6378    0.6979    0.0000 C   0  0  0  0  0  0  0  0  0  0  0  0
    1.9233    1.1104    0.0000 C   0  0  0  0  0  0  0  0  0  0  0  0
    1.9233    1.9354    0.0000 C   0  0  0  0  0  0  0  0  0  0  0  0
    2.6378    2.3479    0.0000 N   0  0  0  0  0  0  0  0  0  0  0  0
    1.1387    2.1904    0.0000 N   0  0  0  0  0  0  0  0  0  0  0  0
    0.6538    1.5229    0.0000 C   0  0  0  0  0  0  0  0  0  0  0  0
    1.1387    0.8555    0.0000 N   0  0  0  0  0  0  0  0  0  0  0  0
    0.8838    2.9750    0.0000 C   0  0  0  0  0  0  0  0  0  0  0  0
    0.0992    3.2299    0.0000 C   0  0  0  0  0  0  0  0  0  0  0  0
    0.0992    4.0549    0.0000 C   0  0  0  0  0  0  0  0  0  0  0  0
    0.8838    4.3099    0.0000 C   0  0  0  0  0  0  0  0  0  0  0  0
    1.3687    3.6424    0.0000 O   0  0  0  0  0  0  0  0  0  0  0  0
    1.1387    5.0945    0.0000 C   0  0  0  0  0  0  0  0  0  0  0  0
    0.5867    5.7076    0.0000 O   0  0  0  0  0  0  0  0  0  0  0  0
    0.8416    6.4922    0.0000 N   0  0  0  0  0  0  0  0  0  0  0  0
    0.2896    7.1053    0.0000 O   0  0  0  0  0  0  0  0  0  0  0  0
    1.6486    6.6637    0.0000 O   0  0  0  0  0  0  0  0  0  0  0  0
   -0.5683    4.5399    0.0000 O   0  0  0  0  0  0  0  0  0  0  0  0
   -0.5683    2.7450    0.0000 O   0  0  0  0  0  0  0  0  0  0  0  0
    2.6378   -0.1271    0.0000 N   0  0  0  0  0  0  0  0  0  0  0  0
    1.9233   -0.5396    0.0000 C   0  0  0  0  0  0  0  0  0  0  0  0
    1.8371   -1.3600    0.0000 C   0  0  0  0  0  0  0  0  0  0  0  0
    1.0301   -1.5316    0.0000 C   0  0  0  0  0  0  0  0  0  0  0  0
    0.6176   -0.8171    0.0000 C   0  0  0  0  0  0  0  0  0  0  0  0
    1.1697   -0.2040    0.0000 C   0  0  0  0  0  0  0  0  0  0  0  0
  1  2  2  0
  1  6  1  0
  2  3  1  0
  3  4  2  0
  3 22  1  0
  4  5  1  0
  4  9  1  0
  5  6  2  0
  5  7  1  0
  7  8  1  0
  8  9  2  0
 10  7  1  1
 10 11  1  0
 10 14  1  0
 11 12  1  0
 11 21  1  6
 12 13  1  0
 12 20  1  6
 13 14  1  0
 13 15  1  1
 15 16  1  0
 16 17  1  0
 17 18  2  0
 17 19  1  0
 22 23  1  0
 23 24  1  0
 23 27  1  0
 24 25  1  0
 25 26  1  0
 26 27  1  0
M  CHG  2  17   1  19  -1
M  END
>  <DRUGBANK_ID>  (1) 
DB13122

>  <COMMON_NAME>  (1) 
Trabodenoson

>  <CAS_NUMBER>  (1) 
871108-05-3

>  <UNII>  (1) 
1T237110W4

>  <SYNONYMS>  (1) 
Trabodenoson

$$$$
