
     RDKit          2D

 12 13  0  0  0  0  0  0  0  0999 V2000
    0.0001   -0.4122    0.0000 C   0  0  0  0  0  0  0  0  0  0  0  0
   -0.0001    0.4127    0.0000 C   0  0  0  0  0  0  0  0  0  0  0  0
   -0.7142   -0.8249    0.0000 C   0  0  0  0  0  0  0  0  0  0  0  0
    0.7147   -0.8245    0.0000 C   0  0  0  0  0  0  0  0  0  0  0  0
   -0.7147    0.8249    0.0000 C   0  0  0  0  0  0  0  0  0  0  0  0
    0.7142    0.8254    0.0000 N   0  0  0  0  0  0  0  0  0  0  0  0
   -1.4287   -0.4127    0.0000 C   0  0  0  0  0  0  0  0  0  0  0  0
   -0.7139   -1.6499    0.0000 Cl  0  0  0  0  0  0  0  0  0  0  0  0
    1.4290   -0.4117    0.0000 C   0  0  0  0  0  0  0  0  0  0  0  0
   -1.4290    0.4122    0.0000 C   0  0  0  0  0  0  0  0  0  0  0  0
   -0.7150    1.6499    0.0000 O   0  0  0  0  0  0  0  0  0  0  0  0
    1.4288    0.4132    0.0000 C   0  0  0  0  0  0  0  0  0  0  0  0
  1  2  1  0
  1  3  2  0
  1  4  1  0
  2  5  2  0
  2  6  1  0
  3  7  1  0
  3  8  1  0
  4  9  2  0
  5 10  1  0
  5 11  1  0
  6 12  2  0
  7 10  2  0
  9 12  1  0
M  END
>  <DRUGBANK_ID>  (1) 
DB15933

>  <COMMON_NAME>  (1) 
Cloxyquin

>  <CAS_NUMBER>  (1) 
130-16-5

>  <UNII>  (1) 
BPF36H1G6S

>  <SYNONYMS>  (1) 
5-Chloro-8-hydroxyquinoline; Cloxiquina; Cloxiquine; Cloxiquinum; Cloxyquin

$$$$
