
     RDKit          2D

 33 36  0  0  0  0  0  0  0  0999 V2000
    0.0768    0.9256    0.0000 C   0  0  0  0  0  0  0  0  0  0  0  0
    0.8838    0.7541    0.0000 C   0  0  0  0  0  0  0  0  0  0  0  0
    1.4358    1.3672    0.0000 C   0  0  0  0  0  0  0  0  0  0  0  0
    1.1387   -0.0305    0.0000 C   0  0  0  0  0  0  0  0  0  0  0  0
    1.9233   -0.2854    0.0000 C   0  0  0  0  0  0  0  0  0  0  0  0
    2.6378    0.1271    0.0000 N   0  0  0  0  0  0  0  0  0  0  0  0
    3.3523   -0.2854    0.0000 C   0  0  0  0  0  0  0  0  0  0  0  0
    4.0668    0.1271    0.0000 N   0  0  0  0  0  0  0  0  0  0  0  0
    4.0668    0.9521    0.0000 C   0  0  0  0  0  0  0  0  0  0  0  0
    3.3523    1.3646    0.0000 C   0  0  0  0  0  0  0  0  0  0  0  0
    3.3523    2.1896    0.0000 C   0  0  0  0  0  0  0  0  0  0  0  0
    4.0668    2.6021    0.0000 C   0  0  0  0  0  0  0  0  0  0  0  0
    4.0668    3.4271    0.0000 N   0  0  0  0  0  0  0  0  0  0  0  0
    4.7812    2.1896    0.0000 C   0  0  0  0  0  0  0  0  0  0  0  0
    4.7812    1.3646    0.0000 C   0  0  0  0  0  0  0  0  0  0  0  0
    3.3523   -1.1104    0.0000 C   0  0  0  0  0  0  0  0  0  0  0  0
    2.6378   -1.5229    0.0000 C   0  0  0  0  0  0  0  0  0  0  0  0
    2.6378   -2.3479    0.0000 N   0  0  0  0  0  0  0  0  0  0  0  0
    1.9233   -2.7604    0.0000 C   0  0  0  0  0  0  0  0  0  0  0  0
    1.9233   -3.5854    0.0000 C   0  0  0  0  0  0  0  0  0  0  0  0
    1.2089   -3.9979    0.0000 C   0  0  0  0  0  0  0  0  0  0  0  0
    0.4944   -3.5854    0.0000 C   0  0  0  0  0  0  0  0  0  0  0  0
    0.4944   -2.7604    0.0000 C   0  0  0  0  0  0  0  0  0  0  0  0
    1.2089   -2.3479    0.0000 C   0  0  0  0  0  0  0  0  0  0  0  0
   -0.2201   -3.9979    0.0000 S   0  0  0  0  0  0  0  0  0  0  0  0
   -0.6326   -3.2835    0.0000 O   0  0  0  0  0  0  0  0  0  0  0  0
    0.1924   -4.7124    0.0000 O   0  0  0  0  0  0  0  0  0  0  0  0
   -0.9345   -4.4104    0.0000 N   0  0  0  0  0  0  0  0  0  0  0  0
   -0.9345   -5.2354    0.0000 C   0  0  0  0  0  0  0  0  0  0  0  0
   -1.6490   -3.9979    0.0000 C   0  0  0  0  0  0  0  0  0  0  0  0
    1.9233   -1.1104    0.0000 N   0  0  0  0  0  0  0  0  0  0  0  0
    1.1387   -1.3654    0.0000 N   0  0  0  0  0  0  0  0  0  0  0  0
    0.6538   -0.6979    0.0000 C   0  0  0  0  0  0  0  0  0  0  0  0
  1  2  1  0
  2  3  1  0
  2  4  1  0
  4  5  2  0
  4 33  1  0
  5  6  1  0
  5 31  1  0
  6  7  2  0
  7  8  1  0
  7 16  1  0
  9  8  1  1
  9 10  1  0
  9 15  1  0
 10 11  1  0
 11 12  1  0
 12 13  1  6
 12 14  1  0
 14 15  1  0
 16 17  2  0
 17 18  1  0
 17 31  1  0
 18 19  1  0
 19 20  2  0
 19 24  1  0
 20 21  1  0
 21 22  2  0
 22 23  1  0
 22 25  1  0
 23 24  2  0
 25 26  2  0
 25 27  2  0
 25 28  1  0
 28 29  1  0
 28 30  1  0
 31 32  1  0
 32 33  2  0
M  END
>  <DRUGBANK_ID>  (1) 
DB01888

>  <SECONDARY_ACCESSION_NUMBERS>  (1) 
EXPT01046

>  <COMMON_NAME>  (1) 
4-[5-(Trans-4-Aminocyclohexylamino)-3-Isopropylpyrazolo[1,5-a]Pyrimidin-7-Ylamino]-N,N-Dimethylbenzenesulfonamide

$$$$
