
     RDKit          2D

 28 31  0  0  1  0  0  0  0  0999 V2000
    0.1759    3.9129    0.0000 C   0  0  0  0  0  0  0  0  0  0  0  0
   -0.0708    4.7002    0.0000 N   0  0  0  0  0  0  0  0  0  0  0  0
   -0.8528    4.9633    0.0000 C   0  0  0  0  0  0  0  0  0  0  0  0
   -0.8441    5.7883    0.0000 C   0  0  0  0  0  0  0  0  0  0  0  0
   -0.0569    6.0350    0.0000 C   0  0  0  0  0  0  0  0  0  0  0  0
    0.4210    5.3625    0.0000 C   0  0  0  0  0  0  0  0  0  0  0  0
    1.1440    5.7599    0.0000 C   0  0  0  0  0  0  0  0  0  0  0  0
    1.1355    4.9500    0.0000 C   0  0  0  0  0  0  0  0  0  0  0  0
    1.1355    4.1250    0.0000 C   0  0  0  0  0  0  0  0  0  0  0  0
    1.8500    3.7125    0.0000 S   0  0  0  0  0  0  0  0  0  0  0  0
    1.4375    2.9980    0.0000 O   0  0  0  0  0  0  0  0  0  0  0  0
    2.2625    4.4270    0.0000 O   0  0  0  0  0  0  0  0  0  0  0  0
    2.5645    3.3000    0.0000 N   0  0  0  0  0  0  0  0  0  0  0  0
    2.5645    2.4750    0.0000 C   0  0  0  0  0  0  0  0  0  0  0  0
    1.8500    2.0625    0.0000 O   0  0  0  0  0  0  0  0  0  0  0  0
    3.2789    2.0625    0.0000 N   0  0  0  0  0  0  0  0  0  0  0  0
    3.2789    1.2375    0.0000 C   0  0  0  0  0  0  0  0  0  0  0  0
    3.9934    0.8250    0.0000 C   0  0  0  0  0  0  0  0  0  0  0  0
    4.7780    1.0799    0.0000 C   0  0  0  0  0  0  0  0  0  0  0  0
    5.2629    0.4125    0.0000 C   0  0  0  0  0  0  0  0  0  0  0  0
    4.7780   -0.2549    0.0000 C   0  0  0  0  0  0  0  0  0  0  0  0
    3.9934    0.0000    0.0000 C   0  0  0  0  0  0  0  0  0  0  0  0
    3.2789   -0.4125    0.0000 C   0  0  0  0  0  0  0  0  0  0  0  0
    2.5645    0.0000    0.0000 C   0  0  0  0  0  0  0  0  0  0  0  0
    1.7798   -0.2549    0.0000 C   0  0  0  0  0  0  0  0  0  0  0  0
    1.2949    0.4125    0.0000 C   0  0  0  0  0  0  0  0  0  0  0  0
    1.7798    1.0799    0.0000 C   0  0  0  0  0  0  0  0  0  0  0  0
    2.5645    0.8250    0.0000 C   0  0  0  0  0  0  0  0  0  0  0  0
  1  2  1  0
  2  3  1  0
  3  4  1  0
  4  5  1  0
  6  5  1  0
  6  2  1  0
  6  7  1  1
  6  8  1  0
  8  9  2  0
  9 10  1  0
 10 11  2  0
 10 12  2  0
 10 13  1  0
 13 14  1  0
 14 15  2  0
 14 16  1  0
 16 17  1  0
 17 18  2  0
 17 28  1  0
 18 19  1  0
 18 22  1  0
 19 20  1  0
 20 21  1  0
 21 22  1  0
 22 23  2  0
 23 24  1  0
 24 25  1  0
 24 28  2  0
 25 26  1  0
 26 27  1  0
 27 28  1  0
M  END
>  <DRUGBANK_ID>  (1) 
DB18184

>  <COMMON_NAME>  (1) 
ZYIL-1

>  <CAS_NUMBER>  (1) 
2455519-86-3

>  <UNII>  (1) 
P9ZQS28F8C

$$$$
