
     RDKit          2D

 31 34  0  0  1  0  0  0  0  0999 V2000
   -1.5884   -0.6204    0.0000 C   0  0  0  0  0  0  0  0  0  0  0  0
   -0.8739   -1.0329    0.0000 C   0  0  0  0  0  0  0  0  0  0  0  0
   -0.8739   -1.8579    0.0000 C   0  0  0  0  0  0  0  0  0  0  0  0
   -0.2065   -2.3429    0.0000 N   0  0  0  0  0  0  0  0  0  0  0  0
   -0.4614   -3.1275    0.0000 C   0  0  0  0  0  0  0  0  0  0  0  0
   -1.2864   -3.1275    0.0000 C   0  0  0  0  0  0  0  0  0  0  0  0
   -1.5414   -2.3429    0.0000 S   0  0  0  0  0  0  0  0  0  0  0  0
    0.0235   -3.7949    0.0000 C   0  0  0  0  0  0  0  0  0  0  0  0
    0.8440   -3.7087    0.0000 C   0  0  0  0  0  0  0  0  0  0  0  0
    1.3289   -4.3761    0.0000 C   0  0  0  0  0  0  0  0  0  0  0  0
    0.9933   -5.1298    0.0000 C   0  0  0  0  0  0  0  0  0  0  0  0
    0.1729   -5.2160    0.0000 C   0  0  0  0  0  0  0  0  0  0  0  0
   -0.3121   -4.5486    0.0000 C   0  0  0  0  0  0  0  0  0  0  0  0
    1.4783   -5.7972    0.0000 C   0  0  0  0  0  0  0  0  0  0  0  0
    1.9632   -6.4647    0.0000 N   0  0  0  0  0  0  0  0  0  0  0  0
   -0.1595   -0.6204    0.0000 C   0  0  0  0  0  0  0  0  0  0  0  0
    0.2530   -1.3349    0.0000 C   0  0  0  0  0  0  0  0  0  0  0  0
    1.0780   -1.3349    0.0000 N   0  0  0  0  0  0  0  0  0  0  0  0
    1.5630   -0.6675    0.0000 C   0  0  0  0  0  0  0  0  0  0  0  0
    2.3476   -0.9224    0.0000 N   0  0  0  0  0  0  0  0  0  0  0  0
    2.3476   -1.7474    0.0000 C   0  0  0  0  0  0  0  0  0  0  0  0
    1.5630   -2.0024    0.0000 N   0  0  0  0  0  0  0  0  0  0  0  0
   -0.5720    0.0940    0.0000 C   0  0  0  0  0  0  0  0  0  0  0  0
   -1.3970    0.0940    0.0000 C   0  0  0  0  0  0  0  0  0  0  0  0
   -1.8095    0.8085    0.0000 C   0  0  0  0  0  0  0  0  0  0  0  0
   -1.3970    1.5230    0.0000 C   0  0  0  0  0  0  0  0  0  0  0  0
   -0.5720    1.5230    0.0000 C   0  0  0  0  0  0  0  0  0  0  0  0
   -0.1595    0.8085    0.0000 C   0  0  0  0  0  0  0  0  0  0  0  0
    0.6655    0.8085    0.0000 F   0  0  0  0  0  0  0  0  0  0  0  0
   -1.8095    2.2374    0.0000 F   0  0  0  0  0  0  0  0  0  0  0  0
    0.5550   -0.2079    0.0000 O   0  0  0  0  0  0  0  0  0  0  0  0
  2  1  1  6
  2  3  1  0
  2 16  1  0
  3  4  2  0
  3  7  1  0
  4  5  1  0
  5  6  2  0
  5  8  1  0
  6  7  1  0
  8  9  2  0
  8 13  1  0
  9 10  1  0
 10 11  2  0
 11 12  1  0
 11 14  1  0
 12 13  2  0
 14 15  3  0
 16 17  1  0
 16 23  1  0
 16 31  1  6
 17 18  1  0
 18 19  1  0
 18 22  1  0
 19 20  2  0
 20 21  1  0
 21 22  2  0
 23 24  2  0
 23 28  1  0
 24 25  1  0
 25 26  2  0
 26 27  1  0
 26 30  1  0
 27 28  2  0
 28 29  1  0
M  END
>  <DRUGBANK_ID>  (1) 
DB06440

>  <COMMON_NAME>  (1) 
Ravuconazole

>  <CAS_NUMBER>  (1) 
182760-06-1

>  <UNII>  (1) 
95YH599JWV

>  <SYNONYMS>  (1) 
Ravuconazole

$$$$
