
     RDKit          2D

 25 25  0  0  0  0  0  0  0  0999 V2000
   -0.3540   -1.0357    0.0000 C   0  0  0  0  0  0  0  0  0  0  0  0
   -1.7859   -0.9961    0.0000 C   0  0  0  0  0  0  0  0  0  0  0  0
   -1.0725   -2.2359    0.0000 C   0  0  0  0  0  0  0  0  0  0  0  0
   -0.3540   -1.8332    0.0000 C   0  0  0  0  0  0  0  0  0  0  0  0
   -1.0725   -0.6303    0.0000 C   0  0  0  0  0  0  0  0  0  0  0  0
   -1.7859   -1.8332    0.0000 C   0  0  0  0  0  0  0  0  0  0  0  0
    0.3539   -0.6067    0.0000 C   0  0  0  0  0  0  0  0  0  0  0  0
    1.6989    2.7703    0.0000 C   0  0  0  0  0  0  0  0  0  0  0  0
    2.5439    3.1493    0.0000 C   0  0  0  0  0  0  0  0  0  0  0  0
   -2.4860   -0.6067    0.0000 C   0  0  0  0  0  0  0  0  0  0  0  0
   -1.0725   -3.0493    0.0000 C   0  0  0  0  0  0  0  0  0  0  0  0
    1.0436    0.6382    0.0000 C   0  0  0  0  0  0  0  0  0  0  0  0
    1.7437    1.8464    0.0000 C   0  0  0  0  0  0  0  0  0  0  0  0
    0.3539    0.2356    0.0000 C   0  0  0  0  0  0  0  0  0  0  0  0
    1.0436    1.4542    0.0000 C   0  0  0  0  0  0  0  0  0  0  0  0
    3.1993    2.5571    0.0000 O   0  0  0  0  0  0  0  0  0  0  0  0
    2.6782    3.8863    0.0000 O   0  0  0  0  0  0  0  0  0  0  0  0
    1.2304   -0.9725    0.0000 C   0  0  0  0  0  0  0  0  0  0  0  0
   -2.9203   -1.2884    0.0000 C   0  0  0  0  0  0  0  0  0  0  0  0
   -3.1993   -0.1723    0.0000 C   0  0  0  0  0  0  0  0  0  0  0  0
   -1.0725   -3.8863    0.0000 C   0  0  0  0  0  0  0  0  0  0  0  0
   -0.2460   -3.0493    0.0000 C   0  0  0  0  0  0  0  0  0  0  0  0
   -1.8701   -3.0493    0.0000 C   0  0  0  0  0  0  0  0  0  0  0  0
   -2.0675    0.1250    0.0000 C   0  0  0  0  0  0  0  0  0  0  0  0
    2.6307    1.3674    0.0000 C   0  0  0  0  0  0  0  0  0  0  0  0
  2  5  2  0
  3  4  1  0
  4  1  2  0
  5  1  1  0
  6  2  1  0
  6  3  2  0
  7  1  1  0
  8 13  2  0
  9  8  1  0
 10  2  1  0
 11  3  1  0
 12 14  1  0
 13 15  1  0
 14  7  2  0
 15 12  2  0
 16  9  2  0
 17  9  1  0
 18  7  1  0
 19 10  1  0
 20 10  1  0
 21 11  1  0
 22 11  1  0
 23 11  1  0
 24 10  1  0
 25 13  1  0
M  END
>  <DRUGBANK_ID>  (1) 
DB05785

>  <COMMON_NAME>  (1) 
LGD-1550

>  <CAS_NUMBER>  (1) 
178600-20-9

>  <UNII>  (1) 
H62AOA2IYF

$$$$
