
     RDKit          2D

 38 41  0  0  0  0  0  0  0  0999 V2000
   -0.1876    1.5150    0.0000 C   0  0  0  0  0  0  0  0  0  0  0  0
    7.8592   -2.8875    0.0000 C   0  0  0  0  0  0  0  0  0  0  0  0
   -4.4816    2.8687    0.0000 C   0  0  0  0  0  0  0  0  0  0  0  0
   -4.1461    2.1150    0.0000 C   0  0  0  0  0  0  0  0  0  0  0  0
   -3.9967    3.5361    0.0000 C   0  0  0  0  0  0  0  0  0  0  0  0
   -3.3256    2.0288    0.0000 C   0  0  0  0  0  0  0  0  0  0  0  0
   -3.1762    3.4499    0.0000 C   0  0  0  0  0  0  0  0  0  0  0  0
    3.5724    2.8875    0.0000 C   0  0  0  0  0  0  0  0  0  0  0  0
    2.8579    1.6500    0.0000 C   0  0  0  0  0  0  0  0  0  0  0  0
    2.8579    3.3000    0.0000 C   0  0  0  0  0  0  0  0  0  0  0  0
    2.1434    2.0625    0.0000 C   0  0  0  0  0  0  0  0  0  0  0  0
    7.1447   -0.8250    0.0000 C   0  0  0  0  0  0  0  0  0  0  0  0
    6.4302   -2.0625    0.0000 C   0  0  0  0  0  0  0  0  0  0  0  0
    6.4302   -0.4125    0.0000 C   0  0  0  0  0  0  0  0  0  0  0  0
    5.7158   -1.6500    0.0000 C   0  0  0  0  0  0  0  0  0  0  0  0
   -0.0000    3.3000    0.0000 C   0  0  0  0  0  0  0  0  0  0  0  0
    0.7145    2.8875    0.0000 C   0  0  0  0  0  0  0  0  0  0  0  0
    4.2868    1.6500    0.0000 C   0  0  0  0  0  0  0  0  0  0  0  0
    3.5724    0.4125    0.0000 C   0  0  0  0  0  0  0  0  0  0  0  0
   -0.8007    2.0670    0.0000 C   0  0  0  0  0  0  0  0  0  0  0  0
    3.5724    2.0625    0.0000 C   0  0  0  0  0  0  0  0  0  0  0  0
   -2.8407    2.6962    0.0000 C   0  0  0  0  0  0  0  0  0  0  0  0
    7.1447   -1.6500    0.0000 C   0  0  0  0  0  0  0  0  0  0  0  0
    2.1434    2.8875    0.0000 C   0  0  0  0  0  0  0  0  0  0  0  0
    5.7158   -0.8250    0.0000 C   0  0  0  0  0  0  0  0  0  0  0  0
   -0.7145    2.8875    0.0000 C   0  0  0  0  0  0  0  0  0  0  0  0
    3.5724   -0.4125    0.0000 C   0  0  0  0  0  0  0  0  0  0  0  0
   -2.0202    2.6100    0.0000 C   0  0  0  0  0  0  0  0  0  0  0  0
    5.0013    0.4125    0.0000 C   0  0  0  0  0  0  0  0  0  0  0  0
   -1.4681    3.2231    0.0000 N   0  0  0  0  0  0  0  0  0  0  0  0
    4.2868    0.8250    0.0000 N   0  0  0  0  0  0  0  0  0  0  0  0
    4.2868   -0.8250    0.0000 O   0  0  0  0  0  0  0  0  0  0  0  0
    2.8579   -0.8250    0.0000 O   0  0  0  0  0  0  0  0  0  0  0  0
    5.7158    0.8250    0.0000 O   0  0  0  0  0  0  0  0  0  0  0  0
    7.8592   -2.0625    0.0000 O   0  0  0  0  0  0  0  0  0  0  0  0
    1.4289    3.3000    0.0000 O   0  0  0  0  0  0  0  0  0  0  0  0
   -1.6077    1.8955    0.0000 O   0  0  0  0  0  0  0  0  0  0  0  0
    5.0013   -0.4125    0.0000 O   0  0  0  0  0  0  0  0  0  0  0  0
  4  3  2  0
  5  3  1  0
  6  4  1  0
  7  5  2  0
 10  8  2  0
 11  9  1  0
 14 12  2  0
 15 13  1  0
 17 16  1  0
 20  1  1  0
 21  8  1  0
 21  9  2  0
 21 18  1  0
 22  6  2  0
 22  7  1  0
 23 12  1  0
 23 13  2  0
 24 10  1  0
 24 11  2  0
 25 14  1  0
 25 15  2  0
 26 16  1  0
 26 20  2  0
 27 19  1  0
 28 22  1  0
 30 26  1  0
 30 28  2  0
 31 18  1  0
 31 19  1  0
 31 29  1  0
 32 27  2  0
 33 27  1  0
 34 29  2  0
 35  2  1  0
 35 23  1  0
 36 17  1  0
 36 24  1  0
 37 20  1  0
 37 28  1  0
 38 25  1  0
 38 29  1  0
M  END
>  <DRUGBANK_ID>  (1) 
DB06510

>  <COMMON_NAME>  (1) 
Muraglitazar

>  <CAS_NUMBER>  (1) 
331741-94-7

>  <UNII>  (1) 
W1MKM70WQI

>  <SYNONYMS>  (1) 
Muraglitazar

$$$$
