
     RDKit          2D

 26 29  0  0  1  0  0  0  0  0999 V2000
    2.1265   -1.1368    0.0000 C   0  0  0  0  0  0  0  0  0  0  0  0
    2.6666   -0.5132    0.0000 O   0  0  0  0  0  0  0  0  0  0  0  0
    3.4767   -0.6691    0.0000 C   0  0  0  0  0  0  0  0  0  0  0  0
    3.7467   -1.4486    0.0000 C   0  0  0  0  0  0  0  0  0  0  0  0
    4.5569   -1.6046    0.0000 C   0  0  0  0  0  0  0  0  0  0  0  0
    5.0970   -0.9809    0.0000 C   0  0  0  0  0  0  0  0  0  0  0  0
    4.8269   -0.2014    0.0000 C   0  0  0  0  0  0  0  0  0  0  0  0
    4.0168   -0.0454    0.0000 C   0  0  0  0  0  0  0  0  0  0  0  0
    3.7467    0.7341    0.0000 O   0  0  0  0  0  0  0  0  0  0  0  0
    2.9366    0.8900    0.0000 C   0  0  0  0  0  0  0  0  0  0  0  0
    5.3670    0.4223    0.0000 C   0  0  0  0  0  0  0  0  0  0  0  0
    6.1771    0.2664    0.0000 N   0  0  0  0  0  0  0  0  0  0  0  0
    6.7172    0.8900    0.0000 C   0  0  0  0  0  0  0  0  0  0  0  0
    7.5274    0.7341    0.0000 C   0  0  0  0  0  0  0  0  0  0  0  0
    7.7974   -0.0454    0.0000 C   0  0  0  0  0  0  0  0  0  0  0  0
    8.6075   -0.2014    0.0000 C   0  0  0  0  0  0  0  0  0  0  0  0
    8.8776   -0.9809    0.0000 C   0  0  0  0  0  0  0  0  0  0  0  0
    8.3375   -1.6046    0.0000 C   0  0  0  0  0  0  0  0  0  0  0  0
    7.5274   -1.4486    0.0000 C   0  0  0  0  0  0  0  0  0  0  0  0
    7.2573   -0.6691    0.0000 C   0  0  0  0  0  0  0  0  0  0  0  0
    6.4472   -0.5132    0.0000 C   0  0  0  0  0  0  0  0  0  0  0  0
    5.9071   -1.1368    0.0000 C   0  0  0  0  0  0  0  0  0  0  0  0
    8.6075   -2.3841    0.0000 O   0  0  0  0  0  0  0  0  0  0  0  0
    8.0675   -3.0077    0.0000 C   0  0  0  0  0  0  0  0  0  0  0  0
    9.6877   -1.1368    0.0000 O   0  0  0  0  0  0  0  0  0  0  0  0
   10.2278   -0.5132    0.0000 C   0  0  0  0  0  0  0  0  0  0  0  0
  1  2  1  0
  2  3  1  0
  3  4  2  0
  3  8  1  0
  4  5  1  0
  5  6  2  0
  6  7  1  0
  6 22  1  0
  7  8  2  0
  7 11  1  0
  8  9  1  0
  9 10  1  0
 11 12  1  0
 12 13  1  0
 13 14  1  0
 14 15  1  0
 15 16  2  0
 15 20  1  0
 16 17  1  0
 17 18  2  0
 17 25  1  0
 18 19  1  0
 18 23  1  0
 19 20  2  0
 20 21  1  0
 21 12  1  0
 21 22  1  6
 23 24  1  0
 25 26  1  0
M  END
>  <DRUGBANK_ID>  (1) 
DB12093

>  <COMMON_NAME>  (1) 
Tetrahydropalmatine

>  <CAS_NUMBER>  (1) 
483-14-7

>  <UNII>  (1) 
3X69CO5I79

$$$$
