
     RDKit          2D

 33 36  0  0  0  0  0  0  0  0999 V2000
   -2.6430    1.5911    0.0000 C   0  0  0  0  0  0  0  0  0  0  0  0
   -2.6430    2.4161    0.0000 C   0  0  0  0  0  0  0  0  0  0  0  0
   -1.9285    2.8286    0.0000 C   0  0  0  0  0  0  0  0  0  0  0  0
   -1.9285    1.1786    0.0000 C   0  0  0  0  0  0  0  0  0  0  0  0
   -1.2141    1.5911    0.0000 C   0  0  0  0  0  0  0  0  0  0  0  0
   -1.2141    2.4161    0.0000 C   0  0  0  0  0  0  0  0  0  0  0  0
   -0.4996    2.8286    0.0000 S   0  0  0  0  0  0  0  0  0  0  0  0
    0.2148    2.4161    0.0000 N   0  0  0  0  0  0  0  0  0  0  0  0
    0.2148    1.5911    0.0000 C   0  0  0  0  0  0  0  0  0  0  0  0
   -0.4995    1.1786    0.0000 C   0  0  0  0  0  0  0  0  0  0  0  0
   -0.4995    0.3535    0.0000 O   0  0  0  0  0  0  0  0  0  0  0  0
   -1.2748    0.0714    0.0000 C   0  0  0  0  0  0  0  0  0  0  0  0
   -1.4180   -0.7410    0.0000 C   0  0  0  0  0  0  0  0  0  0  0  0
   -1.7172    0.4426    0.0000 O   0  0  0  0  0  0  0  0  0  0  0  0
   -2.1933   -1.0232    0.0000 C   0  0  0  0  0  0  0  0  0  0  0  0
   -2.3366   -1.8356    0.0000 C   0  0  0  0  0  0  0  0  0  0  0  0
   -3.1118   -2.1178    0.0000 C   0  0  0  0  0  0  0  0  0  0  0  0
   -3.2551   -2.9303    0.0000 C   0  0  0  0  0  0  0  0  0  0  0  0
   -2.6230   -3.4606    0.0000 C   0  0  0  0  0  0  0  0  0  0  0  0
   -1.8478   -3.1784    0.0000 C   0  0  0  0  0  0  0  0  0  0  0  0
   -1.7045   -2.3660    0.0000 C   0  0  0  0  0  0  0  0  0  0  0  0
    0.0306    3.4606    0.0000 O   0  0  0  0  0  0  0  0  0  0  0  0
   -1.0299    3.4606    0.0000 O   0  0  0  0  0  0  0  0  0  0  0  0
    0.9293    2.8286    0.0000 C   0  0  0  0  0  0  0  0  0  0  0  0
    0.9293    1.1786    0.0000 C   0  0  0  0  0  0  0  0  0  0  0  0
    0.9293    0.3536    0.0000 N   0  0  0  0  0  0  0  0  0  0  0  0
    1.7045    0.0714    0.0000 C   0  0  0  0  0  0  0  0  0  0  0  0
    1.6438    1.5911    0.0000 O   0  0  0  0  0  0  0  0  0  0  0  0
    2.3366    0.6017    0.0000 C   0  0  0  0  0  0  0  0  0  0  0  0
    3.1118    0.3196    0.0000 C   0  0  0  0  0  0  0  0  0  0  0  0
    3.2551   -0.4928    0.0000 C   0  0  0  0  0  0  0  0  0  0  0  0
    2.6230   -1.0231    0.0000 C   0  0  0  0  0  0  0  0  0  0  0  0
    1.8478   -0.7410    0.0000 N   0  0  0  0  0  0  0  0  0  0  0  0
  1  2  2  0
  1  4  1  0
  2  3  1  0
  3  6  2  0
  5  4  2  0
  5 10  1  0
  5  6  1  0
  6  7  1  0
  7  8  1  0
  7 22  2  0
  7 23  2  0
  8  9  1  0
  8 24  1  0
  9 10  2  0
  9 25  1  0
 10 11  1  0
 11 12  1  0
 12 13  1  0
 12 14  2  0
 13 15  2  0
 15 16  1  0
 16 17  2  0
 17 18  1  0
 18 19  2  0
 19 20  1  0
 20 21  2  0
 21 16  1  0
 25 26  1  0
 25 28  2  0
 26 27  1  0
 27 29  2  0
 29 30  1  0
 30 31  2  0
 31 32  1  0
 32 33  2  0
 33 27  1  0
M  END
>  <DRUGBANK_ID>  (1) 
DB15883

>  <COMMON_NAME>  (1) 
Piroxicam cinnamate

>  <CAS_NUMBER>  (1) 
87234-24-0

>  <UNII>  (1) 
7E8Q32N75N

>  <SYNONYMS>  (1) 
Cinnoxicam; Piroxicam cinnamate; Piroxicam cinnamic acid ester

$$$$
