JN5
     RDKit          2D

 27 30  0  0  0  0  0  0  0  0999 V2000
   -3.0567   -1.9425    0.0000 C   0  0  0  0  0  0  0  0  0  0  0  0
   -3.4692   -2.6570    0.0000 C   0  0  0  0  0  0  0  0  0  0  0  0
   -4.2942   -2.6570    0.0000 C   0  0  0  0  0  0  0  0  0  0  0  0
   -4.7067   -1.9425    0.0000 N   0  0  0  0  0  0  0  0  0  0  0  0
   -4.2942   -1.2280    0.0000 C   0  0  0  0  0  0  0  0  0  0  0  0
   -3.4692   -1.2280    0.0000 C   0  0  0  0  0  0  0  0  0  0  0  0
   -3.0567   -0.5135    0.0000 C   0  0  0  0  0  0  0  0  0  0  0  0
   -2.2317   -0.5135    0.0000 C   0  0  0  0  0  0  0  0  0  0  0  0
   -1.8192    0.2009    0.0000 N   0  0  0  0  0  0  0  0  0  0  0  0
   -0.9942    0.2009    0.0000 C   0  0  0  0  0  0  0  0  0  0  0  0
   -0.5817    0.9154    0.0000 N   0  0  0  0  0  0  0  0  0  0  0  0
   -0.5817   -0.5135    0.0000 N   0  0  0  0  0  0  0  0  0  0  0  0
    0.2433   -0.5135    0.0000 C   0  0  0  0  0  0  0  0  0  0  0  0
    0.6558    0.2009    0.0000 C   0  0  0  0  0  0  0  0  0  0  0  0
    0.2433    0.9154    0.0000 C   0  0  0  0  0  0  0  0  0  0  0  0
    0.6558    1.6299    0.0000 C   0  0  0  0  0  0  0  0  0  0  0  0
    0.2433    2.3443    0.0000 C   0  0  0  0  0  0  0  0  0  0  0  0
   -0.1692    3.0588    0.0000 N   0  0  0  0  0  0  0  0  0  0  0  0
    1.4808    1.6299    0.0000 C   0  0  0  0  0  0  0  0  0  0  0  0
    1.9657    2.2973    0.0000 N   0  0  0  0  0  0  0  0  0  0  0  0
    2.7503    2.0424    0.0000 C   0  0  0  0  0  0  0  0  0  0  0  0
    3.4648    2.4549    0.0000 C   0  0  0  0  0  0  0  0  0  0  0  0
    4.1793    2.0424    0.0000 C   0  0  0  0  0  0  0  0  0  0  0  0
    4.1793    1.2174    0.0000 C   0  0  0  0  0  0  0  0  0  0  0  0
    3.4648    0.8049    0.0000 C   0  0  0  0  0  0  0  0  0  0  0  0
    2.7503    1.2174    0.0000 C   0  0  0  0  0  0  0  0  0  0  0  0
    1.9657    0.9624    0.0000 S   0  0  0  0  0  0  0  0  0  0  0  0
  1  2  2  0
  3  2  1  0
  4  3  2  0
  5  4  1  0
  5  6  2  0
  6  1  1  0
  7  6  1  0
  7  8  1  0
  9  8  1  0
  9 10  1  0
 10 11  2  0
 11 15  1  0
 12 10  1  0
 12 13  2  0
 13 14  1  0
 14 15  2  0
 15 16  1  0
 16 19  1  0
 16 17  1  1
 17 18  3  0
 19 20  2  0
 20 21  1  0
 21 22  2  0
 22 23  1  0
 24 23  2  0
 25 24  1  0
 26 21  1  0
 26 25  2  0
 27 19  1  0
 27 26  1  0
M  END
>  <DRUGBANK_ID>  (1) 
DB08022

>  <COMMON_NAME>  (1) 
(2S)-1,3-benzothiazol-2-yl{2-[(2-pyridin-3-ylethyl)amino]pyrimidin-4-yl}ethanenitrile

$$$$
