P4T
     RDKit          2D

 16 17  0  0  0  0  0  0  0  0999 V2000
   22.1191   37.6907    0.0000 N   0  0  0  0  0  0  0  0  0  0  0  0
   21.8642   36.9061    0.0000 C   0  0  0  0  0  0  0  0  0  0  0  0
   22.3491   36.2387    0.0000 N   0  0  0  0  0  0  0  0  0  0  0  0
   21.4517   38.1757    0.0000 C   0  0  0  0  0  0  0  0  0  0  0  0
   20.7842   37.6907    0.0000 C   0  0  0  0  0  0  0  0  0  0  0  0
   19.9996   37.9457    0.0000 C   0  0  0  0  0  0  0  0  0  0  0  0
   21.4517   39.0007    0.0000 C   0  0  0  0  0  0  0  0  0  0  0  0
   23.1696   36.3249    0.0000 C   0  0  0  0  0  0  0  0  0  0  0  0
   23.5051   37.0786    0.0000 C   0  0  0  0  0  0  0  0  0  0  0  0
   24.3256   37.1648    0.0000 C   0  0  0  0  0  0  0  0  0  0  0  0
   24.8105   36.4974    0.0000 C   0  0  0  0  0  0  0  0  0  0  0  0
   24.4750   35.7437    0.0000 C   0  0  0  0  0  0  0  0  0  0  0  0
   23.6545   35.6575    0.0000 C   0  0  0  0  0  0  0  0  0  0  0  0
   21.0392   36.9061    0.0000 S   0  0  0  0  0  0  0  0  0  0  0  0
   19.3865   37.3937    0.0000 C   0  0  0  0  0  0  0  0  0  0  0  0
   19.8281   38.7527    0.0000 O   0  0  0  0  0  0  0  0  0  0  0  0
  1  2  2  0
  1  4  1  0
  2  3  1  0
  2 14  1  0
  3  8  1  0
  4  5  2  0
  4  7  1  0
  5  6  1  0
  5 14  1  0
  6 15  1  0
  6 16  2  0
  8  9  2  0
  8 13  1  0
  9 10  1  0
 10 11  2  0
 11 12  1  0
 12 13  2  0
M  END
>  <DRUGBANK_ID>  (1) 
DB08359

>  <COMMON_NAME>  (1) 
2-PHENYLAMINO-4-METHYL-5-ACETYL THIAZOLE

$$$$
