BAF
     RDKit          2D

 18 17  0  0  0  0  0  0  0  0999 V2000
   -3.0427    0.0703    0.0000 N   0  0  0  0  0  0  0  0  0  0  0  0
   -3.7573   -0.3422    0.0000 C   0  0  0  0  0  0  0  0  0  0  0  0
   -4.4718    0.0703    0.0000 O   0  0  0  0  0  0  0  0  0  0  0  0
   -2.3283   -0.3422    0.0000 C   0  0  0  0  0  0  0  0  0  0  0  0
   -2.3283   -1.1673    0.0000 C   0  0  0  0  0  0  0  0  0  0  0  0
   -1.6137    0.0703    0.0000 N   0  0  0  0  0  0  0  0  0  0  0  0
   -0.8992   -0.3422    0.0000 C   0  0  0  0  0  0  0  0  0  0  0  0
   -0.8992   -1.1673    0.0000 O   0  0  0  0  0  0  0  0  0  0  0  0
   -0.1847    0.0703    0.0000 C   0  0  0  0  0  0  0  0  0  0  0  0
   -0.1847    0.8954    0.0000 C   0  0  0  0  0  0  0  0  0  0  0  0
    0.5298   -0.3422    0.0000 N   0  0  0  0  0  0  0  0  0  0  0  0
    1.2444    0.0703    0.0000 C   0  0  0  0  0  0  0  0  0  0  0  0
    1.2444    0.8954    0.0000 O   0  0  0  0  0  0  0  0  0  0  0  0
    1.9589   -0.3422    0.0000 O   0  0  0  0  0  0  0  0  0  0  0  0
    2.6734    0.0703    0.0000 C   0  0  0  0  0  0  0  0  0  0  0  0
    3.3880    0.4828    0.0000 C   0  0  0  0  0  0  0  0  0  0  0  0
    3.0859   -0.6442    0.0000 C   0  0  0  0  0  0  0  0  0  0  0  0
    2.2609    0.7848    0.0000 C   0  0  0  0  0  0  0  0  0  0  0  0
  1  2  1  0
  1  4  1  0
  2  3  2  0
  4  5  1  1
  4  6  1  0
  6  7  1  0
  7  8  2  0
  7  9  1  0
  9 10  1  6
  9 11  1  0
 11 12  1  0
 12 13  2  0
 12 14  1  0
 14 15  1  0
 15 16  1  0
 15 17  1  0
 15 18  1  0
M  END
>  <DRUGBANK_ID>  (1) 
DB07433

>  <COMMON_NAME>  (1) 
(TERT-BUTYLOXYCARBONYL)-ALANYL-AMINO ETHYL-FORMAMIDE

$$$$
