
     RDKit          2D

 36 41  0  0  0  0  0  0  0  0999 V2000
   -1.1829   -4.0380    0.0000 C   0  0  0  0  0  0  0  0  0  0  0  0
   -0.3759   -3.8665    0.0000 C   0  0  0  0  0  0  0  0  0  0  0  0
   -0.0404   -3.1128    0.0000 C   0  0  0  0  0  0  0  0  0  0  0  0
    0.7801   -3.1991    0.0000 S   0  0  0  0  0  0  0  0  0  0  0  0
    0.9516   -4.0060    0.0000 C   0  0  0  0  0  0  0  0  0  0  0  0
    0.2372   -4.4185    0.0000 N   0  0  0  0  0  0  0  0  0  0  0  0
    1.7053   -4.3416    0.0000 C   0  0  0  0  0  0  0  0  0  0  0  0
    2.3727   -3.8567    0.0000 C   0  0  0  0  0  0  0  0  0  0  0  0
    3.1264   -4.1922    0.0000 C   0  0  0  0  0  0  0  0  0  0  0  0
    3.2127   -5.0127    0.0000 C   0  0  0  0  0  0  0  0  0  0  0  0
    2.5452   -5.4976    0.0000 N   0  0  0  0  0  0  0  0  0  0  0  0
    1.7915   -5.1621    0.0000 C   0  0  0  0  0  0  0  0  0  0  0  0
   -0.4529   -2.3984    0.0000 C   0  0  0  0  0  0  0  0  0  0  0  0
   -1.2779   -2.3984    0.0000 O   0  0  0  0  0  0  0  0  0  0  0  0
   -0.0404   -1.6839    0.0000 N   0  0  0  0  0  0  0  0  0  0  0  0
   -0.4529   -0.9694    0.0000 C   0  0  0  0  0  0  0  0  0  0  0  0
   -1.2779   -0.9694    0.0000 C   0  0  0  0  0  0  0  0  0  0  0  0
   -1.6904   -0.2549    0.0000 C   0  0  0  0  0  0  0  0  0  0  0  0
   -1.2779    0.4595    0.0000 C   0  0  0  0  0  0  0  0  0  0  0  0
   -0.4529    0.4595    0.0000 C   0  0  0  0  0  0  0  0  0  0  0  0
   -0.0404   -0.2549    0.0000 C   0  0  0  0  0  0  0  0  0  0  0  0
    0.7846   -0.2549    0.0000 C   0  0  0  0  0  0  0  0  0  0  0  0
    1.2695    0.4125    0.0000 C   0  0  0  0  0  0  0  0  0  0  0  0
    2.0542    0.1576    0.0000 N   0  0  0  0  0  0  0  0  0  0  0  0
    2.8388    0.4125    0.0000 C   0  0  0  0  0  0  0  0  0  0  0  0
    3.3237   -0.2549    0.0000 C   0  0  0  0  0  0  0  0  0  0  0  0
    2.8388   -0.9224    0.0000 S   0  0  0  0  0  0  0  0  0  0  0  0
    2.0542   -0.6674    0.0000 C   0  0  0  0  0  0  0  0  0  0  0  0
    1.2695   -0.9224    0.0000 N   0  0  0  0  0  0  0  0  0  0  0  0
    3.0937    1.1971    0.0000 C   0  0  0  0  0  0  0  0  0  0  0  0
    3.9007    1.3686    0.0000 N   0  0  0  0  0  0  0  0  0  0  0  0
    4.1556    2.1533    0.0000 C   0  0  0  0  0  0  0  0  0  0  0  0
    4.9626    2.3248    0.0000 C   0  0  0  0  0  0  0  0  0  0  0  0
    5.5146    1.7117    0.0000 O   0  0  0  0  0  0  0  0  0  0  0  0
    5.2597    0.9271    0.0000 C   0  0  0  0  0  0  0  0  0  0  0  0
    4.4527    0.7556    0.0000 C   0  0  0  0  0  0  0  0  0  0  0  0
  1  2  1  0
  2  3  2  0
  2  6  1  0
  3  4  1  0
  3 13  1  0
  4  5  1  0
  5  6  2  0
  5  7  1  0
  7  8  2  0
  7 12  1  0
  8  9  1  0
  9 10  2  0
 10 11  1  0
 11 12  2  0
 13 14  2  0
 13 15  1  0
 15 16  1  0
 16 17  2  0
 16 21  1  0
 17 18  1  0
 18 19  2  0
 19 20  1  0
 20 21  2  0
 21 22  1  0
 22 23  2  0
 22 29  1  0
 23 24  1  0
 24 25  1  0
 24 28  1  0
 25 26  2  0
 25 30  1  0
 26 27  1  0
 27 28  1  0
 28 29  2  0
 30 31  1  0
 31 32  1  0
 31 36  1  0
 32 33  1  0
 33 34  1  0
 34 35  1  0
 35 36  1  0
M  END
>  <DRUGBANK_ID>  (1) 
DB12186

>  <COMMON_NAME>  (1) 
SRT-2104

>  <CAS_NUMBER>  (1) 
1093403-33-8

>  <UNII>  (1) 
4521NR0J09

$$$$
