
     RDKit          2D

 28 27  0  0  1  0  0  0  0  0999 V2000
   -2.0329   -1.6500    0.0000 C   0  0  0  0  0  0  0  0  0  0  0  0
   -1.3184   -1.2375    0.0000 S   0  0  0  0  0  0  0  0  0  0  0  0
   -0.9059   -1.9520    0.0000 O   0  0  0  0  0  0  0  0  0  0  0  0
   -1.7309   -0.5230    0.0000 O   0  0  0  0  0  0  0  0  0  0  0  0
   -0.6039   -0.8250    0.0000 O   0  0  0  0  0  0  0  0  0  0  0  0
    0.1105   -1.2375    0.0000 C   0  0  0  0  0  0  0  0  0  0  0  0
    0.8250   -0.8250    0.0000 C   0  0  0  0  0  0  0  0  0  0  0  0
    1.5395   -1.2375    0.0000 C   0  0  0  0  0  0  0  0  0  0  0  0
    1.5395   -2.0625    0.0000 C   0  0  0  0  0  0  0  0  0  0  0  0
    2.2539   -2.4750    0.0000 C   0  0  0  0  0  0  0  0  0  0  0  0
    2.9684   -2.0625    0.0000 C   0  0  0  0  0  0  0  0  0  0  0  0
    3.6829   -2.4750    0.0000 O   0  0  0  0  0  0  0  0  0  0  0  0
    4.3974   -2.0625    0.0000 S   0  0  0  0  0  0  0  0  0  0  0  0
    5.1118   -1.6500    0.0000 O   0  0  0  0  0  0  0  0  0  0  0  0
    4.8099   -2.7770    0.0000 O   0  0  0  0  0  0  0  0  0  0  0  0
    3.9849   -1.3480    0.0000 C   0  0  0  0  0  0  0  0  0  0  0  0
    2.2539   -3.3000    0.0000 O   0  0  0  0  0  0  0  0  0  0  0  0
    1.5395   -3.7125    0.0000 S   0  0  0  0  0  0  0  0  0  0  0  0
    1.1270   -2.9980    0.0000 O   0  0  0  0  0  0  0  0  0  0  0  0
    1.9520   -4.4270    0.0000 O   0  0  0  0  0  0  0  0  0  0  0  0
    0.8250   -4.1250    0.0000 C   0  0  0  0  0  0  0  0  0  0  0  0
    0.8250   -2.4750    0.0000 O   0  0  0  0  0  0  0  0  0  0  0  0
    2.2539   -0.8250    0.0000 O   0  0  0  0  0  0  0  0  0  0  0  0
    0.8250    0.0000    0.0000 O   0  0  0  0  0  0  0  0  0  0  0  0
    1.5395    0.4125    0.0000 S   0  0  0  0  0  0  0  0  0  0  0  0
    1.9520   -0.3020    0.0000 O   0  0  0  0  0  0  0  0  0  0  0  0
    1.1270    1.1270    0.0000 O   0  0  0  0  0  0  0  0  0  0  0  0
    2.2539    0.8250    0.0000 C   0  0  0  0  0  0  0  0  0  0  0  0
  1  2  1  0
  2  3  2  0
  2  4  2  0
  2  5  1  0
  5  6  1  0
  7  6  1  1
  7  8  1  0
  7 24  1  0
  8  9  1  0
  8 23  1  1
  9 10  1  0
  9 22  1  1
 10 11  1  1
 10 17  1  0
 11 12  1  0
 12 13  1  0
 13 14  2  0
 13 15  2  0
 13 16  1  0
 17 18  1  0
 18 19  2  0
 18 20  2  0
 18 21  1  0
 24 25  1  0
 25 26  2  0
 25 27  2  0
 25 28  1  0
M  END
>  <DRUGBANK_ID>  (1) 
DB13334

>  <COMMON_NAME>  (1) 
Mannosulfan

>  <CAS_NUMBER>  (1) 
7518-35-6

>  <UNII>  (1) 
135FQ40L36

>  <SYNONYMS>  (1) 
Mannosulfan

$$$$
