
     RDKit          2D

 19 20  0  0  0  0  0  0  0  0999 V2000
    0.6213   -2.5047    0.0000 O   0  0  0  0  0  0  0  0  0  0  0  0
    0.2092   -1.7900    0.0000 C   0  0  0  0  0  0  0  0  0  0  0  0
    0.6213   -1.0753    0.0000 C   0  0  0  0  0  0  0  0  0  0  0  0
    0.2092   -0.3606    0.0000 C   0  0  0  0  0  0  0  0  0  0  0  0
    0.6213    0.3606    0.0000 C   0  0  0  0  0  0  0  0  0  0  0  0
    0.2092    1.0753    0.0000 C   0  0  0  0  0  0  0  0  0  0  0  0
    0.6213    1.7900    0.0000 C   0  0  0  0  0  0  0  0  0  0  0  0
    1.4455    1.7900    0.0000 C   0  0  0  0  0  0  0  0  0  0  0  0
    1.8576    2.5047    0.0000 C   0  0  0  0  0  0  0  0  0  0  0  0
    1.4455    3.2195    0.0000 C   0  0  0  0  0  0  0  0  0  0  0  0
    0.6213    3.2195    0.0000 C   0  0  0  0  0  0  0  0  0  0  0  0
    0.2092    2.5047    0.0000 C   0  0  0  0  0  0  0  0  0  0  0  0
   -0.6213   -0.3606    0.0000 C   0  0  0  0  0  0  0  0  0  0  0  0
   -1.0334   -1.0753    0.0000 C   0  0  0  0  0  0  0  0  0  0  0  0
   -1.8576   -1.0753    0.0000 O   0  0  0  0  0  0  0  0  0  0  0  0
   -0.6213   -1.7900    0.0000 C   0  0  0  0  0  0  0  0  0  0  0  0
   -1.0334   -2.5047    0.0000 C   0  0  0  0  0  0  0  0  0  0  0  0
   -1.8576   -2.5047    0.0000 C   0  0  0  0  0  0  0  0  0  0  0  0
   -0.6213   -3.2195    0.0000 C   0  0  0  0  0  0  0  0  0  0  0  0
  1  2  1  0
  2  3  2  0
  2 16  1  0
  3  4  1  0
  4  5  1  0
  4 13  2  0
  5  6  2  0
  6  7  1  0
  7  8  2  0
  7 12  1  0
  8  9  1  0
  9 10  2  0
 10 11  1  0
 11 12  2  0
 13 14  1  0
 14 15  1  0
 14 16  2  0
 16 17  1  0
 17 18  1  0
 17 19  1  0
M  END
>  <DRUGBANK_ID>  (1) 
DB06083

>  <COMMON_NAME>  (1) 
Tapinarof

>  <CAS_NUMBER>  (1) 
79338-84-4

>  <UNII>  (1) 
84HW7D0V04

>  <SYNONYMS>  (1) 
3,5-Dihydroxy-4-isopropyl-trans-stilbene; Benvitimod; Tapinarof

$$$$
