
     RDKit          2D

 27 30  0  0  1  0  0  0  0  0999 V2000
    3.7637    1.8273    0.0000 O   0  0  0  0  0  0  0  0  0  0  0  0
    6.2785    0.3490    0.0000 O   0  0  0  0  0  0  0  0  0  0  0  0
    2.5060   -0.3702    0.0000 O   0  0  0  0  0  0  0  0  0  0  0  0
    3.7408   -1.0897    0.0000 O   0  0  0  0  0  0  0  0  0  0  0  0
    3.7495   -2.5500    0.0000 O   0  0  0  0  0  0  0  0  0  0  0  0
    2.4748    1.0898    0.0000 C   0  0  0  0  0  0  0  0  0  0  0  0
    2.9102    0.3490    0.0000 C   0  0  0  0  0  0  0  0  0  0  0  0
    2.9045    1.8339    0.0000 C   0  0  0  0  0  0  0  0  0  0  0  0
    3.7694    0.3622    0.0000 C   0  0  0  0  0  0  0  0  0  0  0  0
    4.1819    1.0766    0.0000 C   0  0  0  0  0  0  0  0  0  0  0  0
    5.0068    1.0766    0.0000 C   0  0  0  0  0  0  0  0  0  0  0  0
    4.1819   -0.3523    0.0000 C   0  0  0  0  0  0  0  0  0  0  0  0
    5.0068   -0.3523    0.0000 C   0  0  0  0  0  0  0  0  0  0  0  0
    5.4193    0.3622    0.0000 C   0  0  0  0  0  0  0  0  0  0  0  0
    1.6499    1.0866    0.0000 C   0  0  0  0  0  0  0  0  0  0  0  0
    6.7138    1.0898    0.0000 C   0  0  0  0  0  0  0  0  0  0  0  0
    2.4947    2.5500    0.0000 C   0  0  0  0  0  0  0  0  0  0  0  0
    5.4479   -1.0897    0.0000 C   0  0  0  0  0  0  0  0  0  0  0  0
    5.4249    1.8273    0.0000 C   0  0  0  0  0  0  0  0  0  0  0  0
    6.2842    1.8339    0.0000 C   0  0  0  0  0  0  0  0  0  0  0  0
    6.2727   -1.0801    0.0000 C   0  0  0  0  0  0  0  0  0  0  0  0
    7.4299    1.4995    0.0000 C   0  0  0  0  0  0  0  0  0  0  0  0
    7.4267    0.6746    0.0000 C   0  0  0  0  0  0  0  0  0  0  0  0
    5.0240   -1.8372    0.0000 C   0  0  0  0  0  0  0  0  0  0  0  0
    4.1647   -1.8372    0.0000 C   0  0  0  0  0  0  0  0  0  0  0  0
    6.6935   -1.7897    0.0000 C   0  0  0  0  0  0  0  0  0  0  0  0
    7.5184   -1.7802    0.0000 C   0  0  0  0  0  0  0  0  0  0  0  0
  1  8  1  0
  1 10  1  0
  2 14  1  0
  2 16  1  0
  4 12  1  0
  4 25  1  0
  5 25  2  0
  6  7  1  0
  6  8  1  0
  6 15  1  6
  7  3  1  1
  7  9  1  0
  8 17  1  1
  9 10  2  0
  9 12  1  0
 10 11  1  0
 11 14  2  0
 11 19  1  0
 12 13  2  0
 13 14  1  0
 13 18  1  0
 16 20  1  0
 16 22  1  0
 16 23  1  0
 18 21  1  0
 18 24  2  0
 19 20  2  0
 21 26  1  0
 24 25  1  0
 26 27  1  0
M  END
>  <DRUGBANK_ID>  (1) 
DB04886

>  <COMMON_NAME>  (1) 
Calanolide A

>  <CAS_NUMBER>  (1) 
142632-32-4

>  <UNII>  (1) 
S5A9TQN46W

>  <SYNONYMS>  (1) 
(+)-calanolide A

$$$$
