
     RDKit          2D

  8  8  0  0  0  0  0  0  0  0999 V2000
    1.2352    0.6294    0.0000 C   0  0  0  0  0  0  0  0  0  0  0  0
    0.1553   -0.1553    0.0000 C   0  0  0  0  0  0  0  0  0  0  0  0
    0.5678    1.1143    0.0000 C   0  0  0  0  0  0  0  0  0  0  0  0
    0.5678    1.9393    0.0000 C   0  0  0  0  0  0  0  0  0  0  0  0
   -0.0997    0.6294    0.0000 N   0  0  0  0  0  0  0  0  0  0  0  0
   -0.1467    2.3518    0.0000 O   0  0  0  0  0  0  0  0  0  0  0  0
    1.2822    2.3518    0.0000 O   0  0  0  0  0  0  0  0  0  0  0  0
    0.9803   -0.1553    0.0000 S   0  0  0  0  0  0  0  0  0  0  0  0
  3  1  1  0
  4  3  1  0
  5  2  1  0
  5  3  1  0
  6  4  2  0
  7  4  1  0
  8  1  1  0
  8  2  1  0
M  END
>  <DRUGBANK_ID>  (1) 
DB12856

>  <COMMON_NAME>  (1) 
Timonacic

>  <CAS_NUMBER>  (1) 
444-27-9

>  <UNII>  (1) 
E5913T3IBL

>  <SYNONYMS>  (1) 
ATC; Timonacic

$$$$
