
     RDKit          2D

 21 22  0  0  0  0  0  0  0  0999 V2000
    0.5483   -2.0534    0.0000 C   0  0  0  0  0  0  0  0  0  0  0  0
    1.3734   -2.0534    0.0000 C   0  0  0  0  0  0  0  0  0  0  0  0
    1.6302   -1.2691    0.0000 C   0  0  0  0  0  0  0  0  0  0  0  0
    0.9609   -0.7823    0.0000 O   0  0  0  0  0  0  0  0  0  0  0  0
    0.2957   -1.2691    0.0000 C   0  0  0  0  0  0  0  0  0  0  0  0
   -0.4890   -1.0145    0.0000 C   0  0  0  0  0  0  0  0  0  0  0  0
    0.0625   -2.7202    0.0000 O   0  0  0  0  0  0  0  0  0  0  0  0
    1.8576   -2.7214    0.0000 O   0  0  0  0  0  0  0  0  0  0  0  0
   -0.6609   -0.2076    0.0000 O   0  0  0  0  0  0  0  0  0  0  0  0
   -1.4851   -0.2073    0.0000 P   0  0  0  0  0  0  0  0  0  0  0  0
   -2.3061   -0.2073    0.0000 O   0  0  0  0  0  0  0  0  0  0  0  0
   -1.4851    0.6135    0.0000 O   0  0  0  0  0  0  0  0  0  0  0  0
   -1.4893   -1.0282    0.0000 O   0  0  0  0  0  0  0  0  0  0  0  0
    2.3029    0.6568    0.0000 C   0  0  0  0  0  0  0  0  0  0  0  0
    1.5859    0.2437    0.0000 N   0  0  0  0  0  0  0  0  0  0  0  0
    0.8718    0.6578    0.0000 C   0  0  0  0  0  0  0  0  0  0  0  0
    0.8732    1.4849    0.0000 N   0  0  0  0  0  0  0  0  0  0  0  0
    1.5948    1.8964    0.0000 C   0  0  0  0  0  0  0  0  0  0  0  0
    2.3061    1.4799    0.0000 C   0  0  0  0  0  0  0  0  0  0  0  0
    0.1566    0.2466    0.0000 O   0  0  0  0  0  0  0  0  0  0  0  0
    1.5996    2.7214    0.0000 N   0  0  0  0  0  0  0  0  0  0  0  0
  1  2  1  0
  1  7  1  6
  2  3  1  0
  2  8  1  1
  3  4  1  0
  3 15  1  1
  4  5  1  0
  5  1  1  0
  5  6  1  1
  6  9  1  0
  9 10  1  0
 10 11  1  0
 10 12  2  0
 10 13  1  0
 14 15  1  0
 15 16  1  0
 16 20  2  0
 16 17  1  0
 17 18  2  0
 18 19  1  0
 18 21  1  0
 19 14  2  0
M  END
>  <DRUGBANK_ID>  (1) 
DB02456

>  <SECONDARY_ACCESSION_NUMBERS>  (1) 
EXPT00831

>  <COMMON_NAME>  (1) 
Aracytidine 5'-monophosphate

>  <CAS_NUMBER>  (1) 
7075-11-8

>  <UNII>  (1) 
Y73692GHI4

>  <SYNONYMS>  (1) 
1-beta-D-Arabinofuranosylcytosine 5'-phosphate; Ara-5'-CMP; Aracytidine 5'-phosphate; Cytosine arabinose-5'-phosphate; Cytosine arabinoside 5'MP; Cytosine arabinoside monophosphate

$$$$
