X98
     RDKit          2D

 33 37  0  0  0  0  0  0  0  0999 V2000
   -0.5006   -1.0110    0.0000 C   0  0  0  0  0  0  0  0  0  0  0  0
    0.2139   -1.4235    0.0000 O   0  0  0  0  0  0  0  0  0  0  0  0
   -0.5006   -0.1860    0.0000 C   0  0  0  0  0  0  0  0  0  0  0  0
    0.2139    0.2265    0.0000 C   0  0  0  0  0  0  0  0  0  0  0  0
    0.2139    1.0515    0.0000 N   0  0  0  0  0  0  0  0  0  0  0  0
   -0.5006    1.4640    0.0000 C   0  0  0  0  0  0  0  0  0  0  0  0
   -0.5006    2.2890    0.0000 C   0  0  0  0  0  0  0  0  0  0  0  0
    0.2139    2.7015    0.0000 N   0  0  0  0  0  0  0  0  0  0  0  0
    0.9284    2.2890    0.0000 C   0  0  0  0  0  0  0  0  0  0  0  0
    1.6428    2.7015    0.0000 C   0  0  0  0  0  0  0  0  0  0  0  0
    2.3573    2.2890    0.0000 C   0  0  0  0  0  0  0  0  0  0  0  0
    2.3573    1.4640    0.0000 C   0  0  0  0  0  0  0  0  0  0  0  0
    1.6428    1.0515    0.0000 C   0  0  0  0  0  0  0  0  0  0  0  0
    0.9284    1.4640    0.0000 C   0  0  0  0  0  0  0  0  0  0  0  0
   -1.2151    1.0515    0.0000 O   0  0  0  0  0  0  0  0  0  0  0  0
   -1.2151    2.7015    0.0000 C   0  0  0  0  0  0  0  0  0  0  0  0
   -1.9295    2.2890    0.0000 C   0  0  0  0  0  0  0  0  0  0  0  0
   -2.6440    2.7015    0.0000 C   0  0  0  0  0  0  0  0  0  0  0  0
   -2.6440    3.5265    0.0000 C   0  0  0  0  0  0  0  0  0  0  0  0
   -1.9295    3.9390    0.0000 C   0  0  0  0  0  0  0  0  0  0  0  0
   -1.2151    3.5265    0.0000 C   0  0  0  0  0  0  0  0  0  0  0  0
   -1.2151   -1.4235    0.0000 N   0  0  0  0  0  0  0  0  0  0  0  0
   -1.3013   -2.2440    0.0000 C   0  0  0  0  0  0  0  0  0  0  0  0
   -0.6882   -2.7960    0.0000 C   0  0  0  0  0  0  0  0  0  0  0  0
   -0.8597   -3.6030    0.0000 O   0  0  0  0  0  0  0  0  0  0  0  0
   -2.1083   -2.4155    0.0000 C   0  0  0  0  0  0  0  0  0  0  0  0
   -2.5208   -1.7011    0.0000 C   0  0  0  0  0  0  0  0  0  0  0  0
   -1.9687   -1.0880    0.0000 C   0  0  0  0  0  0  0  0  0  0  0  0
    0.0964   -2.5411    0.0000 N   0  0  0  0  0  0  0  0  0  0  0  0
    0.3514   -1.7565    0.0000 C   0  0  0  0  0  0  0  0  0  0  0  0
    0.7639   -3.0260    0.0000 C   0  0  0  0  0  0  0  0  0  0  0  0
    1.4313   -2.5411    0.0000 C   0  0  0  0  0  0  0  0  0  0  0  0
    1.1764   -1.7565    0.0000 C   0  0  0  0  0  0  0  0  0  0  0  0
  1  2  2  0
  1  3  1  0
  1 22  1  0
  3  4  1  0
  4  5  1  0
  5  6  1  0
  5 14  1  0
  6  7  1  0
  6 15  2  0
  7  8  2  0
  7 16  1  0
  8  9  1  0
  9 10  1  0
  9 14  2  0
 10 11  2  0
 11 12  1  0
 12 13  2  0
 13 14  1  0
 16 17  2  0
 16 21  1  0
 17 18  1  0
 18 19  2  0
 19 20  1  0
 20 21  2  0
 22 23  1  0
 22 28  1  0
 23 24  1  6
 23 26  1  0
 24 25  2  0
 24 29  1  0
 26 27  1  0
 27 28  1  0
 29 30  1  0
 29 31  1  0
 30 33  1  0
 31 32  1  0
 32 33  1  0
M  END
>  <DRUGBANK_ID>  (1) 
DB08738

>  <COMMON_NAME>  (1) 
1-{3-oxo-3-[(2S)-2-(pyrrolidin-1-ylcarbonyl)pyrrolidin-1-yl]propyl}-3-phenylquinoxalin-2(1H)-one

$$$$
