
     RDKit          2D

 34 37  0  0  1  0  0  0  0  0999 V2000
    2.1434   -0.4125    0.0000 C   0  0  0  0  0  0  0  0  0  0  0  0
    2.1434   -1.2375    0.0000 O   0  0  0  0  0  0  0  0  0  0  0  0
    1.4289   -1.6500    0.0000 C   0  0  0  0  0  0  0  0  0  0  0  0
    1.4289   -2.4750    0.0000 C   0  0  0  0  0  0  0  0  0  0  0  0
    0.7145   -2.8875    0.0000 C   0  0  0  0  0  0  0  0  0  0  0  0
    0.7145   -3.7125    0.0000 C   0  0  0  0  0  0  0  0  0  0  0  0
    1.4289   -4.1250    0.0000 C   0  0  0  0  0  0  0  0  0  0  0  0
    1.4289   -4.9500    0.0000 C   0  0  0  0  0  0  0  0  0  0  0  0
    2.0964   -5.4349    0.0000 C   0  0  0  0  0  0  0  0  0  0  0  0
    1.8414   -6.2195    0.0000 C   0  0  0  0  0  0  0  0  0  0  0  0
    2.3264   -6.8870    0.0000 N   0  0  0  0  0  0  0  0  0  0  0  0
    3.1468   -6.8007    0.0000 C   0  0  0  0  0  0  0  0  0  0  0  0
    3.4824   -6.0471    0.0000 O   0  0  0  0  0  0  0  0  0  0  0  0
    3.6318   -7.4682    0.0000 C   0  0  0  0  0  0  0  0  0  0  0  0
    4.4522   -7.3820    0.0000 C   0  0  0  0  0  0  0  0  0  0  0  0
    4.9372   -8.0494    0.0000 C   0  0  0  0  0  0  0  0  0  0  0  0
    4.6016   -8.8031    0.0000 C   0  0  0  0  0  0  0  0  0  0  0  0
    3.7811   -8.8893    0.0000 C   0  0  0  0  0  0  0  0  0  0  0  0
    3.2962   -8.2219    0.0000 C   0  0  0  0  0  0  0  0  0  0  0  0
    5.0865   -9.4705    0.0000 N   0  0  0  0  0  0  0  0  0  0  0  0
    5.9070   -9.3843    0.0000 C   0  0  0  0  0  0  0  0  0  0  0  0
    6.3919  -10.0517    0.0000 C   0  0  0  0  0  0  0  0  0  0  0  0
    7.2124   -9.9655    0.0000 C   0  0  0  0  0  0  0  0  0  0  0  0
    6.0564  -10.8054    0.0000 N   0  0  0  0  0  0  0  0  0  0  0  0
    5.2359  -10.8916    0.0000 C   0  0  0  0  0  0  0  0  0  0  0  0
    4.9003  -11.6453    0.0000 C   0  0  0  0  0  0  0  0  0  0  0  0
    4.7510  -10.2242    0.0000 C   0  0  0  0  0  0  0  0  0  0  0  0
    1.0164   -6.2195    0.0000 N   0  0  0  0  0  0  0  0  0  0  0  0
    0.7615   -5.4349    0.0000 N   0  0  0  0  0  0  0  0  0  0  0  0
    0.0000   -2.4750    0.0000 C   0  0  0  0  0  0  0  0  0  0  0  0
    0.0000   -1.6500    0.0000 C   0  0  0  0  0  0  0  0  0  0  0  0
   -0.7145   -1.2375    0.0000 O   0  0  0  0  0  0  0  0  0  0  0  0
   -0.7145   -0.4125    0.0000 C   0  0  0  0  0  0  0  0  0  0  0  0
    0.7145   -1.2375    0.0000 C   0  0  0  0  0  0  0  0  0  0  0  0
  1  2  1  0
  2  3  1  0
  3  4  2  0
  3 34  1  0
  4  5  1  0
  5  6  1  0
  5 30  2  0
  6  7  1  0
  7  8  1  0
  8  9  2  0
  8 29  1  0
  9 10  1  0
 10 11  1  0
 10 28  2  0
 11 12  1  0
 12 13  2  0
 12 14  1  0
 14 15  2  0
 14 19  1  0
 15 16  1  0
 16 17  2  0
 17 18  1  0
 17 20  1  0
 18 19  2  0
 20 21  1  0
 20 27  1  0
 22 21  1  0
 22 23  1  6
 22 24  1  0
 25 24  1  0
 25 26  1  6
 25 27  1  0
 28 29  1  0
 30 31  1  0
 31 32  1  0
 31 34  2  0
 32 33  1  0
M  END
>  <DRUGBANK_ID>  (1) 
DB18442

>  <COMMON_NAME>  (1) 
ABSK-091

>  <CAS_NUMBER>  (1) 
1035270-39-3

>  <SYNONYMS>  (1) 
Benzamide, n-(5-(2-(3,5-dimethoxyphenyl)ethyl)-1h-pyrazol-3-yl)-4-((3r,5s)-3,5-dimethyl-1-piperazinyl)-, rel-

$$$$
