
     RDKit          2D

 18 19  0  0  0  0  0  0  0  0999 V2000
    2.9840   -4.8408    0.0000 C   0  0  0  0  0  0  0  0  0  0  0  0
    3.4689   -4.1734    0.0000 C   0  0  0  0  0  0  0  0  0  0  0  0
    2.1635   -4.7546    0.0000 C   0  0  0  0  0  0  0  0  0  0  0  0
    3.6183   -2.7523    0.0000 C   0  0  0  0  0  0  0  0  0  0  0  0
    3.2827   -1.9986    0.0000 C   0  0  0  0  0  0  0  0  0  0  0  0
    4.5926   -1.3312    0.0000 C   0  0  0  0  0  0  0  0  0  0  0  0
    4.8476   -0.5465    0.0000 C   0  0  0  0  0  0  0  0  0  0  0  0
    1.0074   -3.9147    0.0000 C   0  0  0  0  0  0  0  0  0  0  0  0
    3.1333   -3.4197    0.0000 C   0  0  0  0  0  0  0  0  0  0  0  0
    1.8279   -4.0009    0.0000 C   0  0  0  0  0  0  0  0  0  0  0  0
    3.7676   -1.3312    0.0000 C   0  0  0  0  0  0  0  0  0  0  0  0
    4.1801   -0.0616    0.0000 C   0  0  0  0  0  0  0  0  0  0  0  0
    2.3128   -3.3335    0.0000 N   0  0  0  0  0  0  0  0  0  0  0  0
    4.1801    0.7634    0.0000 N   0  0  0  0  0  0  0  0  0  0  0  0
    0.5225   -4.5820    0.0000 O   0  0  0  0  0  0  0  0  0  0  0  0
    3.4656    1.1759    0.0000 O   0  0  0  0  0  0  0  0  0  0  0  0
    4.8946    1.1759    0.0000 O   0  0  0  0  0  0  0  0  0  0  0  0
    3.5127   -0.5465    0.0000 O   0  0  0  0  0  0  0  0  0  0  0  0
  2  1  2  0
  3  1  1  0
  5  4  2  0
  7  6  1  0
  9  2  1  0
  9  4  1  0
 10  3  2  0
 10  8  1  0
 11  5  1  0
 11  6  2  0
 12  7  2  0
 13  9  2  0
 13 10  1  0
 14 12  1  0
 15  8  1  0
 16 14  2  0
 17 14  1  0
 18 11  1  0
 18 12  1  0
M  CHG  2  14   1  17  -1
M  END
>  <DRUGBANK_ID>  (1) 
DB11436

>  <COMMON_NAME>  (1) 
Nifurpirinol

>  <CAS_NUMBER>  (1) 
13411-16-0

>  <UNII>  (1) 
7O5A98XY8U

>  <SYNONYMS>  (1) 
Furpyrinol; Nifurpirinol; Nifurpirinolum

$$$$
