
     RDKit          2D

 20 21  0  0  1  0  0  0  0  0999 V2000
    0.0000   -2.4750    0.0000 C   0  0  0  0  0  0  0  0  0  0  0  0
    0.7145   -2.8875    0.0000 C   0  0  0  0  0  0  0  0  0  0  0  0
    1.4289   -2.4750    0.0000 N   0  0  0  0  0  0  0  0  0  0  0  0
    1.4289   -1.6500    0.0000 C   0  0  0  0  0  0  0  0  0  0  0  0
    2.1434   -2.8875    0.0000 C   0  0  0  0  0  0  0  0  0  0  0  0
    2.1434   -3.7125    0.0000 O   0  0  0  0  0  0  0  0  0  0  0  0
    2.8579   -2.4750    0.0000 O   0  0  0  0  0  0  0  0  0  0  0  0
    3.5724   -2.8875    0.0000 C   0  0  0  0  0  0  0  0  0  0  0  0
    4.2868   -2.4750    0.0000 C   0  0  0  0  0  0  0  0  0  0  0  0
    5.0013   -2.8875    0.0000 C   0  0  0  0  0  0  0  0  0  0  0  0
    5.0013   -3.7125    0.0000 C   0  0  0  0  0  0  0  0  0  0  0  0
    5.7859   -3.9674    0.0000 C   0  0  0  0  0  0  0  0  0  0  0  0
    6.2708   -3.3000    0.0000 C   0  0  0  0  0  0  0  0  0  0  0  0
    5.7859   -2.6326    0.0000 C   0  0  0  0  0  0  0  0  0  0  0  0
    6.0409   -1.8479    0.0000 N   0  0  0  0  0  0  0  0  0  0  0  0
    6.8478   -1.6764    0.0000 C   0  0  0  0  0  0  0  0  0  0  0  0
    7.1028   -0.8918    0.0000 C   0  0  0  0  0  0  0  0  0  0  0  0
    7.3577   -0.1072    0.0000 C   0  0  0  0  0  0  0  0  0  0  0  0
    4.2868   -4.1250    0.0000 C   0  0  0  0  0  0  0  0  0  0  0  0
    3.5724   -3.7125    0.0000 C   0  0  0  0  0  0  0  0  0  0  0  0
  1  2  1  0
  2  3  1  0
  3  4  1  0
  3  5  1  0
  5  6  2  0
  5  7  1  0
  7  8  1  0
  8  9  2  0
  8 20  1  0
  9 10  1  0
 10 11  2  0
 11 12  1  0
 11 19  1  0
 12 13  1  0
 14 13  1  0
 14 10  1  0
 14 15  1  6
 15 16  1  0
 16 17  1  0
 17 18  3  0
 19 20  2  0
M  END
>  <DRUGBANK_ID>  (1) 
DB16213

>  <COMMON_NAME>  (1) 
Ladostigil

>  <CAS_NUMBER>  (1) 
209394-27-4

>  <UNII>  (1) 
SW3H1USR4Q

>  <SYNONYMS>  (1) 
Ladostigil; Tv-3326 free base

$$$$
