
     RDKit          2D

 29 27  0  0  0  0  0  0  0  0999 V2000
    2.9314   -0.8250    0.0000 C   0  0  0  0  0  0  0  0  0  0  0  0
   -0.6408   -0.4125    0.0000 C   0  0  0  0  0  0  0  0  0  0  0  0
   -1.3553   -0.8250    0.0000 C   0  0  0  0  0  0  0  0  0  0  0  0
    2.2169   -0.4125    0.0000 C   0  0  0  0  0  0  0  0  0  0  0  0
   -2.0698   -0.4125    0.0000 C   0  0  0  0  0  0  0  0  0  0  0  0
    2.2169    0.4125    0.0000 C   0  0  0  0  0  0  0  0  0  0  0  0
   -2.7842   -0.8250    0.0000 C   0  0  0  0  0  0  0  0  0  0  0  0
    1.5025    0.8250    0.0000 C   0  0  0  0  0  0  0  0  0  0  0  0
   -3.4987   -0.4125    0.0000 C   0  0  0  0  0  0  0  0  0  0  0  0
   -4.2132   -0.8250    0.0000 C   0  0  0  0  0  0  0  0  0  0  0  0
    0.7880    0.4125    0.0000 C   0  0  0  0  0  0  0  0  0  0  0  0
   -4.9277   -0.4125    0.0000 C   0  0  0  0  0  0  0  0  0  0  0  0
    0.7880   -0.4125    0.0000 C   0  0  0  0  0  0  0  0  0  0  0  0
    3.6459   -0.4125    0.0000 O   0  0  0  0  0  0  0  0  0  0  0  0
   -1.3553   -1.6500    0.0000 O   0  0  0  0  0  0  0  0  0  0  0  0
   -2.0698    0.4125    0.0000 O   0  0  0  0  0  0  0  0  0  0  0  0
    2.9314    0.8250    0.0000 O   0  0  0  0  0  0  0  0  0  0  0  0
   -2.7842   -1.6500    0.0000 O   0  0  0  0  0  0  0  0  0  0  0  0
    1.5025    1.6500    0.0000 O   0  0  0  0  0  0  0  0  0  0  0  0
   -3.4987    0.4125    0.0000 O   0  0  0  0  0  0  0  0  0  0  0  0
   -4.2132   -1.6500    0.0000 O   0  0  0  0  0  0  0  0  0  0  0  0
    0.0735    0.8250    0.0000 O   0  0  0  0  0  0  0  0  0  0  0  0
   -4.9277    0.4125    0.0000 O   0  0  0  0  0  0  0  0  0  0  0  0
   -5.6421   -0.8250    0.0000 O   0  0  0  0  0  0  0  0  0  0  0  0
    0.0735   -0.8250    0.0000 O   0  0  0  0  0  0  0  0  0  0  0  0
    1.5025   -0.8250    0.0000 O   0  0  0  0  0  0  0  0  0  0  0  0
   -6.3566   -1.2375    0.0000 Fe  0  0  0  0  0 15  0  0  0  0  0  0
    6.3566   -0.2341    0.0000 O   0  0  0  0  0  0  0  0  0  0  0  0
    5.5316   -0.2341    0.0000 O   0  0  0  0  0  0  0  0  0  0  0  0
  3  2  1  0
  4  1  1  1
  4 26  1  0
  5  3  1  0
  6  4  1  0
  6  8  1  0
  6 17  1  6
  7  5  1  0
  8 11  1  0
  8 19  1  1
  9  7  1  0
 10  9  1  0
 11 13  1  0
 11 22  1  6
 12 10  1  0
 13 25  1  6
 13 26  1  0
 14  1  1  0
 15  3  1  0
 16  5  1  0
 18  7  1  0
 20  9  1  0
 21 10  1  0
 23 12  2  0
 24 12  1  0
 25  2  1  0
 29 28  1  0
M  CHG  2  24  -1  27   1
M  END
>  <DRUGBANK_ID>  (1) 
DB11417

>  <COMMON_NAME>  (1) 
Gleptoferron

>  <CAS_NUMBER>  (1) 
57680-55-4

>  <UNII>  (1) 
898723IQHQ

>  <SYNONYMS>  (1) 
Gleptoferron; Gleptoferronum

$$$$
