
     RDKit          2D

 35 38  0  0  1  0  0  0  0  0999 V2000
   -3.2426    1.1270    0.0000 C   0  0  0  0  0  0  0  0  0  0  0  0
   -1.1801    3.2704    0.0000 C   0  0  0  0  0  0  0  0  0  0  0  0
   -2.0051    3.2704    0.0000 C   0  0  0  0  0  0  0  0  0  0  0  0
   -0.7676    2.5559    0.0000 C   0  0  0  0  0  0  0  0  0  0  0  0
   -2.4176    2.5559    0.0000 C   0  0  0  0  0  0  0  0  0  0  0  0
    3.9934    0.8250    0.0000 C   0  0  0  0  0  0  0  0  0  0  0  0
    3.2789    1.2375    0.0000 C   0  0  0  0  0  0  0  0  0  0  0  0
   -1.1801    0.4125    0.0000 C   0  0  0  0  0  0  0  0  0  0  0  0
    0.0574   -0.3020    0.0000 C   0  0  0  0  0  0  0  0  0  0  0  0
    3.2789   -0.4125    0.0000 C   0  0  0  0  0  0  0  0  0  0  0  0
   -0.7676   -1.7309    0.0000 C   0  0  0  0  0  0  0  0  0  0  0  0
    3.9934    0.0000    0.0000 C   0  0  0  0  0  0  0  0  0  0  0  0
   -0.7676   -0.3020    0.0000 C   0  0  0  0  0  0  0  0  0  0  0  0
   -1.1801    1.8414    0.0000 C   0  0  0  0  0  0  0  0  0  0  0  0
   -1.1801   -1.0164    0.0000 C   0  0  0  0  0  0  0  0  0  0  0  0
   -0.7676    1.1270    0.0000 C   0  0  0  0  0  0  0  0  0  0  0  0
    0.4699    0.4125    0.0000 C   0  0  0  0  0  0  0  0  0  0  0  0
    2.5645    0.8250    0.0000 C   0  0  0  0  0  0  0  0  0  0  0  0
    2.5645    0.0000    0.0000 C   0  0  0  0  0  0  0  0  0  0  0  0
   -2.0051    1.8414    0.0000 C   0  0  0  0  0  0  0  0  0  0  0  0
    0.0574   -1.7309    0.0000 C   0  0  0  0  0  0  0  0  0  0  0  0
    0.0574    1.1270    0.0000 C   0  0  0  0  0  0  0  0  0  0  0  0
    4.7079   -0.4125    0.0000 C   0  0  0  0  0  0  0  0  0  0  0  0
    1.2949    0.4125    0.0000 C   0  0  0  0  0  0  0  0  0  0  0  0
   -2.0051   -1.0164    0.0000 C   0  0  0  0  0  0  0  0  0  0  0  0
    5.4223   -0.0000    0.0000 N   0  0  0  0  0  0  0  0  0  0  0  0
    4.7079   -1.2375    0.0000 N   0  0  0  0  0  0  0  0  0  0  0  0
    1.7798    1.0799    0.0000 N   0  0  0  0  0  0  0  0  0  0  0  0
    1.7798   -0.2549    0.0000 N   0  0  0  0  0  0  0  0  0  0  0  0
    0.4699   -2.4454    0.0000 O   0  0  0  0  0  0  0  0  0  0  0  0
    0.4699   -1.0164    0.0000 O   0  0  0  0  0  0  0  0  0  0  0  0
    0.4699    1.8414    0.0000 O   0  0  0  0  0  0  0  0  0  0  0  0
   -2.4176   -1.7309    0.0000 O   0  0  0  0  0  0  0  0  0  0  0  0
   -2.4176   -0.3020    0.0000 O   0  0  0  0  0  0  0  0  0  0  0  0
   -2.4176    1.1270    0.0000 O   0  0  0  0  0  0  0  0  0  0  0  0
  3  2  2  0
  4  2  1  0
  5  3  1  0
  7  6  2  0
 12  6  1  0
 12 10  2  0
 13  8  2  0
 13  9  1  0
 14  4  2  0
 15 11  1  1
 15 13  1  0
 15 25  1  0
 16  8  1  0
 16 14  1  0
 17  9  2  0
 18  7  1  0
 19 10  1  0
 19 18  2  0
 20  5  2  0
 20 14  1  0
 21 11  1  0
 22 16  2  0
 22 17  1  0
 23 12  1  0
 24 17  1  0
 26 23  2  0
 27 23  1  0
 28 18  1  0
 28 24  2  0
 29 19  1  0
 29 24  1  0
 30 21  2  0
 31 21  1  0
 32 22  1  0
 33 25  2  0
 34 25  1  0
 35  1  1  0
 35 20  1  0
M  CHG  2  31  -1  32  -1
M  END
>  <DRUGBANK_ID>  (1) 
DB02084

>  <SECONDARY_ACCESSION_NUMBERS>  (1) 
EXPT00149

>  <COMMON_NAME>  (1) 
CRA_17312

$$$$
