
     RDKit          2D

 36 37  0  0  1  0  0  0  0  0999 V2000
   -0.7145   -2.6664    0.0000 C   0  0  0  0  0  0  0  0  0  0  0  0
   -0.3020   -1.9520    0.0000 O   0  0  0  0  0  0  0  0  0  0  0  0
   -0.7145   -1.2375    0.0000 C   0  0  0  0  0  0  0  0  0  0  0  0
   -1.5395   -1.2375    0.0000 C   0  0  0  0  0  0  0  0  0  0  0  0
   -1.9520   -1.9520    0.0000 O   0  0  0  0  0  0  0  0  0  0  0  0
   -0.3020   -0.5230    0.0000 C   0  0  0  0  0  0  0  0  0  0  0  0
   -0.7145    0.1914    0.0000 O   0  0  0  0  0  0  0  0  0  0  0  0
   -1.5395    0.1914    0.0000 C   0  0  0  0  0  0  0  0  0  0  0  0
   -1.9520   -0.5230    0.0000 O   0  0  0  0  0  0  0  0  0  0  0  0
   -2.7770   -0.5230    0.0000 C   0  0  0  0  0  0  0  0  0  0  0  0
   -3.1895   -1.2375    0.0000 C   0  0  0  0  0  0  0  0  0  0  0  0
   -4.0145   -1.2375    0.0000 O   0  0  0  0  0  0  0  0  0  0  0  0
   -3.1895    0.1914    0.0000 C   0  0  0  0  0  0  0  0  0  0  0  0
   -4.0145    0.1914    0.0000 O   0  0  0  0  0  0  0  0  0  0  0  0
   -2.7770    0.9059    0.0000 C   0  0  0  0  0  0  0  0  0  0  0  0
   -3.1895    1.6204    0.0000 O   0  0  0  0  0  0  0  0  0  0  0  0
   -1.9520    0.9059    0.0000 C   0  0  0  0  0  0  0  0  0  0  0  0
   -1.5395    1.6204    0.0000 N   0  0  0  0  0  0  0  0  0  0  0  0
   -1.9520    2.3349    0.0000 C   0  0  0  0  0  0  0  0  0  0  0  0
   -1.5395    3.0493    0.0000 C   0  0  0  0  0  0  0  0  0  0  0  0
   -2.7770    2.3349    0.0000 O   0  0  0  0  0  0  0  0  0  0  0  0
    0.5230   -0.5230    0.0000 C   0  0  0  0  0  0  0  0  0  0  0  0
    0.9355    0.1914    0.0000 O   0  0  0  0  0  0  0  0  0  0  0  0
    0.9355   -1.2375    0.0000 C   0  0  0  0  0  0  0  0  0  0  0  0
    0.5230   -1.9520    0.0000 O   0  0  0  0  0  0  0  0  0  0  0  0
    1.7605   -1.2375    0.0000 C   0  0  0  0  0  0  0  0  0  0  0  0
    2.1730   -1.9520    0.0000 O   0  0  0  0  0  0  0  0  0  0  0  0
   -1.5395   -2.6664    0.0000 O   0  0  0  0  0  0  0  0  0  0  0  0
   -1.9520   -3.3809    0.0000 C   0  0  0  0  0  0  0  0  0  0  0  0
   -2.7770   -3.3809    0.0000 C   0  0  0  0  0  0  0  0  0  0  0  0
   -1.5395   -4.0954    0.0000 C   0  0  0  0  0  0  0  0  0  0  0  0
   -1.9520   -4.8099    0.0000 O   0  0  0  0  0  0  0  0  0  0  0  0
   -0.7145   -4.0954    0.0000 C   0  0  0  0  0  0  0  0  0  0  0  0
   -0.3020   -4.8099    0.0000 O   0  0  0  0  0  0  0  0  0  0  0  0
   -0.3020   -3.3809    0.0000 C   0  0  0  0  0  0  0  0  0  0  0  0
    0.5230   -3.3809    0.0000 O   0  0  0  0  0  0  0  0  0  0  0  0
  1  2  1  1
  1 28  1  0
  3  2  1  0
  3  4  1  1
  4  5  2  0
  6  3  1  0
  6  7  1  1
  6 22  1  0
  8  7  1  1
  8  9  1  0
 10  9  1  0
 10 11  1  6
 11 12  1  0
 13 10  1  0
 13 14  1  6
 13 15  1  0
 15 16  1  6
 15 17  1  0
 17  8  1  0
 17 18  1  1
 18 19  1  0
 19 20  1  0
 19 21  2  0
 22 23  1  1
 22 24  1  0
 24 25  1  1
 24 26  1  0
 26 27  1  0
 29 28  1  0
 29 30  1  6
 31 29  1  0
 31 32  1  6
 31 33  1  0
 33 34  1  6
 33 35  1  0
 35  1  1  0
 35 36  1  1
M  END
>  <DRUGBANK_ID>  (1) 
DB17689

>  <COMMON_NAME>  (1) 
Trisaccharide A

>  <CAS_NUMBER>  (1) 
49777-13-1

>  <UNII>  (1) 
P104QT2V1B

>  <SYNONYMS>  (1) 
3-o-(2-acetamido-2-deoxy-.alpha.-d-galactopyranosyl)-2-o-(.alpha.-l-fucopyranosyl)-d-galactose; A trisaccharide; A-trisaccharide; Bg-a trisaccharide; Blood-group a trisaccharide

$$$$
