
     RDKit          2D

 17 16  0  0  0  0  0  0  0  0999 V2000
    0.7145    0.5066    0.0000 C   0  0  0  0  0  0  0  0  0  0  0  0
    0.0000    0.0941    0.0000 C   0  0  0  0  0  0  0  0  0  0  0  0
   -0.7146    0.5066    0.0000 C   0  0  0  0  0  0  0  0  0  0  0  0
   -0.7146    1.3317    0.0000 C   0  0  0  0  0  0  0  0  0  0  0  0
    1.4289    0.0941    0.0000 O   0  0  0  0  0  0  0  0  0  0  0  0
    0.7145    1.3317    0.0000 O   0  0  0  0  0  0  0  0  0  0  0  0
   -1.4290    1.7442    0.0000 O   0  0  0  0  0  0  0  0  0  0  0  0
    0.0000    1.7442    0.0000 O   0  0  0  0  0  0  0  0  0  0  0  0
    0.0000   -0.7309    0.0000 C   0  0  0  0  0  0  0  0  0  0  0  0
    0.7145   -1.1434    0.0000 P   0  0  0  0  0  0  0  0  0  0  0  0
    1.4289   -1.5559    0.0000 O   0  0  0  0  0  0  0  0  0  0  0  0
    0.3872   -1.7063    0.0000 O   0  0  0  0  0  0  0  0  0  0  0  0
    1.1270   -0.4289    0.0000 O   0  0  0  0  0  0  0  0  0  0  0  0
   -0.7146   -1.1434    0.0000 P   0  0  0  0  0  0  0  0  0  0  0  0
   -1.4290   -1.5559    0.0000 O   0  0  0  0  0  0  0  0  0  0  0  0
   -1.1270   -0.4289    0.0000 O   0  0  0  0  0  0  0  0  0  0  0  0
   -0.3777   -1.7442    0.0000 O   0  0  0  0  0  0  0  0  0  0  0  0
  1  2  1  0
  1  5  2  0
  1  6  1  0
  2  3  1  0
  2  9  1  0
  3  4  1  0
  4  7  2  0
  4  8  1  0
  9 10  1  0
  9 14  1  0
 10 11  1  0
 10 12  1  0
 10 13  2  0
 14 15  1  0
 14 16  2  0
 14 17  1  0
M  END
>  <DRUGBANK_ID>  (1) 
DB16004

>  <COMMON_NAME>  (1) 
Butedronic acid

>  <CAS_NUMBER>  (1) 
51395-42-7

>  <UNII>  (1) 
26PB1U68YF

>  <SYNONYMS>  (1) 
Butedronic acid

$$$$
