
     RDKit          2D

 40 39  0  0  0  0  0  0  0  0999 V2000
    1.0718    0.4127    0.0000 C   0  0  0  0  0  0  0  0  0  0  0  0
    0.3572    0.8251    0.0000 C   0  0  0  0  0  0  0  0  0  0  0  0
   -0.3571    0.4127    0.0000 C   0  0  0  0  0  0  0  0  0  0  0  0
    2.5007    0.4127    0.0000 C   0  0  0  0  0  0  0  0  0  0  0  0
    1.7862    0.8251    0.0000 C   0  0  0  0  0  0  0  0  0  0  0  0
    3.9297    0.4127    0.0000 C   0  0  0  0  0  0  0  0  0  0  0  0
    3.2151    0.8251    0.0000 C   0  0  0  0  0  0  0  0  0  0  0  0
    4.6441    0.8251    0.0000 C   0  0  0  0  0  0  0  0  0  0  0  0
    5.3585    0.4127    0.0000 C   0  0  0  0  0  0  0  0  0  0  0  0
    6.0731    0.8251    0.0000 C   0  0  0  0  0  0  0  0  0  0  0  0
    4.6441    1.6499    0.0000 O   0  0  0  0  0  0  0  0  0  0  0  0
    5.3585   -0.4125    0.0000 N   0  0  0  0  0  0  0  0  0  0  0  0
    6.7874    0.4125    0.0000 O   0  0  0  0  0  0  0  0  0  0  0  0
   -1.0716    0.8251    0.0000 C   0  0  0  0  0  0  0  0  0  0  0  0
   -1.7860    0.4126    0.0000 C   0  0  0  0  0  0  0  0  0  0  0  0
   -2.5005    0.8250    0.0000 C   0  0  0  0  0  0  0  0  0  0  0  0
   -3.2150    0.4126    0.0000 C   0  0  0  0  0  0  0  0  0  0  0  0
   -3.9295    0.8249    0.0000 C   0  0  0  0  0  0  0  0  0  0  0  0
   -4.6439    0.4125    0.0000 C   0  0  0  0  0  0  0  0  0  0  0  0
   -5.3584    0.8249    0.0000 C   0  0  0  0  0  0  0  0  0  0  0  0
   -6.0729    0.4125    0.0000 C   0  0  0  0  0  0  0  0  0  0  0  0
    5.3585   -1.2375    0.0000 C   0  0  0  0  0  0  0  0  0  0  0  0
    6.0730   -1.6499    0.0000 O   0  0  0  0  0  0  0  0  0  0  0  0
    4.6440   -1.6499    0.0000 C   0  0  0  0  0  0  0  0  0  0  0  0
    3.9296   -1.2375    0.0000 C   0  0  0  0  0  0  0  0  0  0  0  0
    3.2151   -1.6499    0.0000 C   0  0  0  0  0  0  0  0  0  0  0  0
    2.5006   -1.2375    0.0000 C   0  0  0  0  0  0  0  0  0  0  0  0
    1.7861   -1.6499    0.0000 C   0  0  0  0  0  0  0  0  0  0  0  0
    1.0717   -1.2375    0.0000 C   0  0  0  0  0  0  0  0  0  0  0  0
    0.3572   -1.6499    0.0000 C   0  0  0  0  0  0  0  0  0  0  0  0
   -0.3572   -1.2375    0.0000 C   0  0  0  0  0  0  0  0  0  0  0  0
   -1.0716   -1.6499    0.0000 C   0  0  0  0  0  0  0  0  0  0  0  0
   -1.7861   -1.2375    0.0000 C   0  0  0  0  0  0  0  0  0  0  0  0
   -2.5006   -1.6499    0.0000 C   0  0  0  0  0  0  0  0  0  0  0  0
   -3.2151   -1.2375    0.0000 C   0  0  0  0  0  0  0  0  0  0  0  0
   -3.9295   -1.6499    0.0000 C   0  0  0  0  0  0  0  0  0  0  0  0
   -4.6440   -1.2375    0.0000 C   0  0  0  0  0  0  0  0  0  0  0  0
   -5.3585   -1.6499    0.0000 C   0  0  0  0  0  0  0  0  0  0  0  0
   -6.0729   -1.2375    0.0000 C   0  0  0  0  0  0  0  0  0  0  0  0
   -6.7874   -1.6499    0.0000 C   0  0  0  0  0  0  0  0  0  0  0  0
  1  5  1  0
  2  1  1  0
  3  2  1  0
  3 14  1  0
  4  7  1  0
  5  4  1  0
  7  6  1  0
  8  6  1  0
  8 11  1  1
  8  9  1  0
  9 12  1  0
  9 10  1  6
 10 13  1  0
 12 22  1  0
 14 15  1  0
 15 16  1  0
 16 17  1  0
 17 18  1  0
 18 19  1  0
 19 20  1  0
 20 21  1  0
 22 23  2  0
 22 24  1  0
 24 25  1  0
 25 26  1  0
 26 27  1  0
 27 28  1  0
 28 29  1  0
 29 30  1  0
 30 31  1  0
 31 32  1  0
 32 33  1  0
 33 34  1  0
 34 35  1  0
 35 36  1  0
 36 37  1  0
 37 38  1  0
 38 39  1  0
 39 40  1  0
M  END
>  <DRUGBANK_ID>  (1) 
DB14706

>  <COMMON_NAME>  (1) 
Ceramide NG

>  <CAS_NUMBER>  (1) 
2304-80-5

>  <UNII>  (1) 
8AD8CNQ956

>  <SYNONYMS>  (1) 
1-stearoyl-C18-sphingosine; Ceramide 2; Ceramide 2 pure; Ceramide II; Ceramide NS; N-(octadecanoyl)-dihydroceramide; N-(octadecanoyl)-sphinganine; N-(octodecanoyl)-sphinganine; N-(stearoyl)-dihydroceramide; N-octodecanoyldihydroceramide; N-octodecanoyldihydrosphingosine; N-octodecanoylsphinganine; N-stearoyldihydroceramide; N-stearoyldihydrosphingosine; N-stearoylsphinganine; palmitoyl-c16-dihydrosphingosine

$$$$
