
     RDKit          2D

 42 47  0  0  0  0  0  0  0  0999 V2000
    1.0082   -2.5289    0.0000 O   0  0  0  0  0  0  0  0  0  0  0  0
   -0.9303   -3.4230    0.0000 O   0  0  0  0  0  0  0  0  0  0  0  0
    1.5824   -4.1536    0.0000 O   0  0  0  0  0  0  0  0  0  0  0  0
   -1.7692   -2.7827    0.0000 O   0  0  0  0  0  0  0  0  0  0  0  0
   -2.8394    0.6504    0.0000 O   0  0  0  0  0  0  0  0  0  0  0  0
   -4.5232   -1.6587    0.0000 O   0  0  0  0  0  0  0  0  0  0  0  0
    0.7807   -1.0764    0.0000 N   0  0  0  0  0  0  0  0  0  0  0  0
   -0.9272   -1.6281    0.0000 N   0  0  0  0  0  0  0  0  0  0  0  0
    0.7807    0.2512    0.0000 N   0  0  0  0  0  0  0  0  0  0  0  0
    2.2758   -1.2376    0.0000 N   0  0  0  0  0  0  0  0  0  0  0  0
    2.2758    1.2374    0.0000 N   0  0  0  0  0  0  0  0  0  0  0  0
    2.9903    0.0000    0.0000 N   0  0  0  0  0  0  0  0  0  0  0  0
   -0.2606   -2.1142    0.0000 C   0  0  0  0  0  0  0  0  0  0  0  0
   -0.2620   -2.9392    0.0000 C   0  0  0  0  0  0  0  0  0  0  0  0
    0.5244   -1.8607    0.0000 C   0  0  0  0  0  0  0  0  0  0  0  0
    0.5221   -3.1956    0.0000 C   0  0  0  0  0  0  0  0  0  0  0  0
    0.7757   -3.9806    0.0000 C   0  0  0  0  0  0  0  0  0  0  0  0
    1.5613   -0.8250    0.0000 C   0  0  0  0  0  0  0  0  0  0  0  0
    0.2992   -0.4125    0.0000 C   0  0  0  0  0  0  0  0  0  0  0  0
   -1.6815   -1.9624    0.0000 C   0  0  0  0  0  0  0  0  0  0  0  0
    1.5613    0.0000    0.0000 C   0  0  0  0  0  0  0  0  0  0  0  0
    2.2758    0.4124    0.0000 C   0  0  0  0  0  0  0  0  0  0  0  0
   -2.3481   -1.4763    0.0000 C   0  0  0  0  0  0  0  0  0  0  0  0
    2.9903   -0.8250    0.0000 C   0  0  0  0  0  0  0  0  0  0  0  0
   -3.1024   -1.8106    0.0000 C   0  0  0  0  0  0  0  0  0  0  0  0
   -2.2604   -0.6560    0.0000 C   0  0  0  0  0  0  0  0  0  0  0  0
    2.9903    1.6499    0.0000 C   0  0  0  0  0  0  0  0  0  0  0  0
   -2.9271   -0.1699    0.0000 C   0  0  0  0  0  0  0  0  0  0  0  0
   -3.7690   -1.3245    0.0000 C   0  0  0  0  0  0  0  0  0  0  0  0
    2.9903    2.4749    0.0000 C   0  0  0  0  0  0  0  0  0  0  0  0
   -3.6813   -0.5041    0.0000 C   0  0  0  0  0  0  0  0  0  0  0  0
    3.7048    2.8874    0.0000 C   0  0  0  0  0  0  0  0  0  0  0  0
    2.2758    2.8874    0.0000 C   0  0  0  0  0  0  0  0  0  0  0  0
    3.7048    3.7124    0.0000 C   0  0  0  0  0  0  0  0  0  0  0  0
    4.4423    2.4463    0.0000 C   0  0  0  0  0  0  0  0  0  0  0  0
    2.2758    3.7124    0.0000 C   0  0  0  0  0  0  0  0  0  0  0  0
    2.9903    4.1249    0.0000 C   0  0  0  0  0  0  0  0  0  0  0  0
    4.4423    4.1536    0.0000 C   0  0  0  0  0  0  0  0  0  0  0  0
    5.1898    2.8703    0.0000 C   0  0  0  0  0  0  0  0  0  0  0  0
    5.1898    3.7296    0.0000 C   0  0  0  0  0  0  0  0  0  0  0  0
   -3.5060    1.1364    0.0000 C   0  0  0  0  0  0  0  0  0  0  0  0
   -5.1898   -1.1727    0.0000 C   0  0  0  0  0  0  0  0  0  0  0  0
  1 15  1  0
  1 16  1  0
  3 17  1  0
  4 20  2  0
  5 28  1  0
  5 41  1  0
  6 29  1  0
  6 42  1  0
  7 18  1  0
  7 19  1  0
  8 20  1  0
  9 19  2  0
  9 21  1  0
 10 18  1  0
 10 24  2  0
 11 22  1  0
 11 27  1  0
 12 22  2  0
 12 24  1  0
 13  8  1  1
 13 14  1  0
 13 15  1  0
 14  2  1  1
 14 16  1  0
 15  7  1  6
 16 17  1  6
 18 21  2  0
 20 23  1  0
 21 22  1  0
 23 25  2  0
 23 26  1  0
 25 29  1  0
 26 28  2  0
 27 30  1  0
 28 31  1  0
 29 31  2  0
 30 32  1  0
 30 33  2  0
 32 34  2  0
 32 35  1  0
 33 36  1  0
 34 37  1  0
 34 38  1  0
 35 39  2  0
 36 37  2  0
 38 40  2  0
 39 40  1  0
M  END
>  <DRUGBANK_ID>  (1) 
DB03331

>  <SECONDARY_ACCESSION_NUMBERS>  (1) 
EXPT02362

>  <COMMON_NAME>  (1) 
N-naphthalen-1-ylmethyl-2'-[3,5-dimethoxybenzamido]-2'-deoxy-adenosine

>  <SYNONYMS>  (1) 
2'-Deoxy-2'-[(3,5-dimethoxybenzoyl)amino]-N-(1-naphthylmethyl)adenosine

$$$$
