
     RDKit          2D

 18 19  0  0  0  0  0  0  0  0999 V2000
   -0.1357    0.8250    0.0000 O   0  0  0  0  0  0  0  0  0  0  0  0
    0.5787   -0.4125    0.0000 O   0  0  0  0  0  0  0  0  0  0  0  0
    1.2932    1.6500    0.0000 O   0  0  0  0  0  0  0  0  0  0  0  0
    2.7221    0.8250    0.0000 O   0  0  0  0  0  0  0  0  0  0  0  0
    2.7221   -0.8250    0.0000 O   0  0  0  0  0  0  0  0  0  0  0  0
   -0.1357   -0.8250    0.0000 O   0  0  0  0  0  0  0  0  0  0  0  0
   -1.5646   -1.6500    0.0000 O   0  0  0  0  0  0  0  0  0  0  0  0
   -2.2792   -0.4125    0.0000 N   0  0  0  0  0  0  0  0  0  0  0  0
    1.2932    0.8250    0.0000 C   0  0  0  0  0  0  0  0  0  0  0  0
    0.5787    0.4125    0.0000 C   0  0  0  0  0  0  0  0  0  0  0  0
    2.0077    0.4125    0.0000 C   0  0  0  0  0  0  0  0  0  0  0  0
   -0.8502    0.4125    0.0000 C   0  0  0  0  0  0  0  0  0  0  0  0
    2.0077   -0.4125    0.0000 C   0  0  0  0  0  0  0  0  0  0  0  0
   -1.5646    0.8250    0.0000 C   0  0  0  0  0  0  0  0  0  0  0  0
   -0.8502   -0.4125    0.0000 C   0  0  0  0  0  0  0  0  0  0  0  0
    1.2932   -0.8250    0.0000 C   0  0  0  0  0  0  0  0  0  0  0  0
   -2.2792    0.4125    0.0000 C   0  0  0  0  0  0  0  0  0  0  0  0
   -1.5646   -0.8250    0.0000 C   0  0  0  0  0  0  0  0  0  0  0  0
  2 10  1  0
  2 16  1  0
  7 18  2  0
  8 17  1  0
  8 18  1  0
  9  3  1  6
  9 10  1  0
  9 11  1  0
 10  1  1  1
 11  4  1  1
 11 13  1  0
 12  1  1  1
 12 14  1  0
 12 15  1  0
 13  5  1  6
 13 16  1  0
 14 17  1  0
 15  6  1  6
 15 18  1  0
M  END
>  <DRUGBANK_ID>  (1) 
DB03717

>  <SECONDARY_ACCESSION_NUMBERS>  (1) 
EXPT03258

>  <COMMON_NAME>  (1) 
3-Hydroxy-4-(3,4,5-trihydroxy-tetrahydro-pyran-2-yloxy)-piperidin-2-one

>  <CAS_NUMBER>  (1) 
284045-95-0

$$$$
