
     RDKit          2D

 17 18  0  0  0  0  0  0  0  0999 V2000
   -0.0000    2.4750    0.0000 C   0  0  0  0  0  0  0  0  0  0  0  0
   -1.4289    2.4750    0.0000 C   0  0  0  0  0  0  0  0  0  0  0  0
   -0.0000    3.3000    0.0000 C   0  0  0  0  0  0  0  0  0  0  0  0
   -1.4289    3.3000    0.0000 C   0  0  0  0  0  0  0  0  0  0  0  0
    1.4289    4.9500    0.0000 C   0  0  0  0  0  0  0  0  0  0  0  0
   -0.0000    5.7750    0.0000 C   0  0  0  0  0  0  0  0  0  0  0  0
   -0.7145    2.0625    0.0000 C   0  0  0  0  0  0  0  0  0  0  0  0
   -0.7145    3.7125    0.0000 C   0  0  0  0  0  0  0  0  0  0  0  0
    1.4289    5.7750    0.0000 C   0  0  0  0  0  0  0  0  0  0  0  0
    0.7145    6.1875    0.0000 C   0  0  0  0  0  0  0  0  0  0  0  0
    0.7145    4.5375    0.0000 C   0  0  0  0  0  0  0  0  0  0  0  0
   -0.0000    4.9500    0.0000 C   0  0  0  0  0  0  0  0  0  0  0  0
   -0.7145    1.2375    0.0000 Cl  0  0  0  0  0  0  0  0  0  0  0  0
    2.1434    6.1875    0.0000 Cl  0  0  0  0  0  0  0  0  0  0  0  0
    0.7145    7.0125    0.0000 Cl  0  0  0  0  0  0  0  0  0  0  0  0
    0.7145    3.7125    0.0000 Cl  0  0  0  0  0  0  0  0  0  0  0  0
   -0.7145    4.5375    0.0000 S   0  0  0  0  0  0  0  0  0  0  0  0
  3  1  2  0
  4  2  1  0
  7  1  1  0
  7  2  2  0
  8  3  1  0
  8  4  2  0
  9  5  2  0
 10  6  2  0
 10  9  1  0
 11  5  1  0
 12  6  1  0
 12 11  2  0
 13  7  1  0
 14  9  1  0
 15 10  1  0
 16 11  1  0
 17  8  1  0
 17 12  1  0
M  END
>  <DRUGBANK_ID>  (1) 
DB12838

>  <COMMON_NAME>  (1) 
Tetrasul

>  <CAS_NUMBER>  (1) 
2227-13-6

>  <UNII>  (1) 
BEO7JP5U0R

$$$$
