
     RDKit          2D

 25 29  0  0  0  0  0  0  0  0999 V2000
    2.8579    1.7935    0.0000 O   0  0  0  0  0  0  0  0  0  0  0  0
    2.1434    1.3809    0.0000 C   0  0  0  0  0  0  0  0  0  0  0  0
    1.4289    0.1434    0.0000 C   0  0  0  0  0  0  0  0  0  0  0  0
    2.1434    0.5559    0.0000 C   0  0  0  0  0  0  0  0  0  0  0  0
    0.0000    0.1434    0.0000 C   0  0  0  0  0  0  0  0  0  0  0  0
    0.7145    0.5559    0.0000 C   0  0  0  0  0  0  0  0  0  0  0  0
   -0.7145    0.5559    0.0000 C   0  0  0  0  0  0  0  0  0  0  0  0
    0.7145    1.3809    0.0000 C   0  0  0  0  0  0  0  0  0  0  0  0
   -0.7145    1.3809    0.0000 C   0  0  0  0  0  0  0  0  0  0  0  0
   -1.4289    0.1434    0.0000 C   0  0  0  0  0  0  0  0  0  0  0  0
    1.4289    1.7935    0.0000 C   0  0  0  0  0  0  0  0  0  0  0  0
    0.0000    1.7935    0.0000 O   0  0  0  0  0  0  0  0  0  0  0  0
   -1.4289    1.7935    0.0000 C   0  0  0  0  0  0  0  0  0  0  0  0
   -2.1434    0.5559    0.0000 C   0  0  0  0  0  0  0  0  0  0  0  0
   -2.1434    1.3809    0.0000 C   0  0  0  0  0  0  0  0  0  0  0  0
   -2.8579    1.7935    0.0000 O   0  0  0  0  0  0  0  0  0  0  0  0
    0.4125   -1.1261    0.0000 C   0  0  0  0  0  0  0  0  0  0  0  0
    0.6674   -0.3413    0.0000 O   0  0  0  0  0  0  0  0  0  0  0  0
   -0.4125   -1.1261    0.0000 C   0  0  0  0  0  0  0  0  0  0  0  0
   -0.6674   -0.3413    0.0000 C   0  0  0  0  0  0  0  0  0  0  0  0
   -1.4744   -0.1698    0.0000 C   0  0  0  0  0  0  0  0  0  0  0  0
   -2.0264   -0.7830    0.0000 C   0  0  0  0  0  0  0  0  0  0  0  0
   -0.9645   -1.7392    0.0000 C   0  0  0  0  0  0  0  0  0  0  0  0
    0.8974   -1.7935    0.0000 O   0  0  0  0  0  0  0  0  0  0  0  0
   -1.7715   -1.5676    0.0000 C   0  0  0  0  0  0  0  0  0  0  0  0
  2  1  1  0
  3  4  1  0
  4  2  2  0
  5 20  1  0
  5  6  1  0
  5  7  1  0
  6  3  2  0
  6  8  1  0
  7  9  2  0
  7 10  1  0
  8 11  2  0
  8 12  1  0
  9 12  1  0
  9 13  1  0
 10 14  2  0
 11  2  1  0
 13 15  2  0
 14 15  1  0
 15 16  1  0
 17 18  1  0
 17 24  2  0
 18  5  1  0
 19 17  1  0
 19 20  2  0
 20 21  1  0
 21 22  2  0
 22 25  1  0
 23 19  1  0
 25 23  2  0
M  END
>  <DRUGBANK_ID>  (1) 
DB00693

>  <SECONDARY_ACCESSION_NUMBERS>  (1) 
APRD00979; EXPT01447; DB07777

>  <COMMON_NAME>  (1) 
Fluorescein

>  <CAS_NUMBER>  (1) 
2321-07-5

>  <UNII>  (1) 
TPY09G7XIR

>  <SYNONYMS>  (1) 
3,6-fluorandiol; 3',6'-dihydroxyfluoran; 9-(o-carboxyphenyl)-6-hydroxy-3-isoxanthenone; 9-(o-carboxyphenyl)-6-hydroxy-3H-xanthen-3-one; C.I. Solvent Yellow 94; D and C Yellow No. 7; D&C Yellow No. 7; Fluorescein; Fluoresceina; Fluoresce√≠na; Fluoresceine; Fluoreszein; Japan Yellow 201; Resorcinolphthalein; Solvent Yellow 94; Yellow fluorescein

$$$$
