
     RDKit          2D

 37 41  0  0  1  0  0  0  0  0999 V2000
    3.0123    0.3620    0.0000 C   0  0  0  0  0  0  0  0  0  0  0  0
    3.7969    0.6170    0.0000 C   0  0  0  0  0  0  0  0  0  0  0  0
    4.4100    0.0649    0.0000 C   0  0  0  0  0  0  0  0  0  0  0  0
    3.9684    1.4239    0.0000 C   0  0  0  0  0  0  0  0  0  0  0  0
    4.7531    1.6789    0.0000 O   0  0  0  0  0  0  0  0  0  0  0  0
    3.3553    1.9760    0.0000 N   0  0  0  0  0  0  0  0  0  0  0  0
    2.5707    1.7210    0.0000 C   0  0  0  0  0  0  0  0  0  0  0  0
    1.9576    2.2731    0.0000 C   0  0  0  0  0  0  0  0  0  0  0  0
    2.1291    3.0800    0.0000 C   0  0  0  0  0  0  0  0  0  0  0  0
    2.9138    3.3350    0.0000 C   0  0  0  0  0  0  0  0  0  0  0  0
    3.5269    2.7829    0.0000 C   0  0  0  0  0  0  0  0  0  0  0  0
    2.9138    4.1600    0.0000 N   0  0  0  0  0  0  0  0  0  0  0  0
    2.1291    4.4149    0.0000 C   0  0  0  0  0  0  0  0  0  0  0  0
    1.8742    5.1995    0.0000 C   0  0  0  0  0  0  0  0  0  0  0  0
    1.6442    3.7475    0.0000 N   0  0  0  0  0  0  0  0  0  0  0  0
    0.8192    3.7475    0.0000 C   0  0  0  0  0  0  0  0  0  0  0  0
    0.4613    4.4908    0.0000 C   0  0  0  0  0  0  0  0  0  0  0  0
   -0.3430    4.6744    0.0000 C   0  0  0  0  0  0  0  0  0  0  0  0
   -0.9881    4.1600    0.0000 C   0  0  0  0  0  0  0  0  0  0  0  0
   -0.9881    3.3350    0.0000 C   0  0  0  0  0  0  0  0  0  0  0  0
   -0.3430    2.8206    0.0000 C   0  0  0  0  0  0  0  0  0  0  0  0
    0.4613    3.0042    0.0000 C   0  0  0  0  0  0  0  0  0  0  0  0
   -0.5748    3.7475    0.0000 N   0  0  0  0  0  0  0  0  0  0  0  0
   -1.3998    3.7475    0.0000 C   0  0  0  0  0  0  0  0  0  0  0  0
   -1.8123    4.4619    0.0000 C   0  0  0  0  0  0  0  0  0  0  0  0
   -2.6373    4.4619    0.0000 C   0  0  0  0  0  0  0  0  0  0  0  0
   -3.0498    3.7475    0.0000 N   0  0  0  0  0  0  0  0  0  0  0  0
   -2.6373    3.0330    0.0000 C   0  0  0  0  0  0  0  0  0  0  0  0
   -1.8123    3.0330    0.0000 C   0  0  0  0  0  0  0  0  0  0  0  0
   -3.0498    2.3185    0.0000 O   0  0  0  0  0  0  0  0  0  0  0  0
   -3.0498    5.1764    0.0000 C   0  0  0  0  0  0  0  0  0  0  0  0
   -3.8748    5.1764    0.0000 C   0  0  0  0  0  0  0  0  0  0  0  0
   -4.2873    5.8909    0.0000 C   0  0  0  0  0  0  0  0  0  0  0  0
   -3.8748    6.6054    0.0000 C   0  0  0  0  0  0  0  0  0  0  0  0
   -3.0498    6.6054    0.0000 C   0  0  0  0  0  0  0  0  0  0  0  0
   -2.6373    7.3198    0.0000 F   0  0  0  0  0  0  0  0  0  0  0  0
   -2.6373    5.8909    0.0000 C   0  0  0  0  0  0  0  0  0  0  0  0
  1  2  1  0
  2  3  1  0
  2  4  1  0
  4  5  2  0
  4  6  1  0
  6  7  1  0
  6 11  1  0
  7  8  1  0
  8  9  1  0
  9 10  2  0
  9 15  1  0
 10 11  1  0
 10 12  1  0
 12 13  2  0
 13 14  1  0
 13 15  1  0
 16 15  1  1
 16 17  1  0
 16 22  1  0
 18 17  1  1
 18 19  1  0
 18 23  1  0
 19 20  1  0
 21 20  1  1
 21 22  1  0
 21 23  1  0
 23 24  1  0
 24 25  1  0
 26 25  1  6
 26 27  1  0
 26 31  1  0
 27 28  1  0
 28 29  1  0
 28 30  2  0
 31 32  2  0
 31 37  1  0
 32 33  1  0
 33 34  2  0
 34 35  1  0
 35 36  1  0
 35 37  2  0
M  END
>  <DRUGBANK_ID>  (1) 
DB14813

>  <COMMON_NAME>  (1) 
PF-232798

>  <CAS_NUMBER>  (1) 
849753-15-7

>  <UNII>  (1) 
63P7W7886U

>  <SYNONYMS>  (1) 
PF-00232798

$$$$
