
     RDKit          2D

  3  0  0  0  0  0  0  0  0  0999 V2000
    1.0312   -0.0062    0.0000 Cl  0  0  0  0  0  0  0  0  0  0  0  0
   -1.0312   -0.0062    0.0000 Cl  0  0  0  0  0  0  0  0  0  0  0  0
   -0.1062    0.0062    0.0000 Zn  0  0  0  0  0 15  0  0  0  0  0  0
M  CHG  3   1  -1   2  -1   3   2
M  END
>  <DRUGBANK_ID>  (1) 
DB14533

>  <SECONDARY_ACCESSION_NUMBERS>  (1) 
DBSALT001307

>  <COMMON_NAME>  (1) 
Zinc chloride

>  <CAS_NUMBER>  (1) 
7646-85-7

>  <UNII>  (1) 
86Q357L16B

>  <SYNONYMS>  (1) 
Zinc chloride

$$$$
