
     RDKit          2D

 27 29  0  0  0  0  0  0  0  0999 V2000
    2.8476    0.8511    0.0000 S   0  0  0  0  0  0  0  0  0  0  0  0
    3.5694    0.4422    0.0000 C   0  0  0  0  0  0  0  0  0  0  0  0
    3.5820   -0.3838    0.0000 C   0  0  0  0  0  0  0  0  0  0  0  0
    2.2551    1.4269    0.0000 O   0  0  0  0  0  0  0  0  0  0  0  0
    3.4234    1.4435    0.0000 O   0  0  0  0  0  0  0  0  0  0  0  0
    2.1384    0.4297    0.0000 N   0  0  0  0  0  0  0  0  0  0  0  0
    3.6070   -2.0278    0.0000 N   0  0  0  0  0  0  0  0  0  0  0  0
   -2.1425    0.3921    0.0000 C   0  0  0  0  0  0  0  0  0  0  0  0
    4.3039   -0.7845    0.0000 C   0  0  0  0  0  0  0  0  0  0  0  0
   -1.4332    0.8094    0.0000 C   0  0  0  0  0  0  0  0  0  0  0  0
   -2.8602    0.7968    0.0000 C   0  0  0  0  0  0  0  0  0  0  0  0
   -4.2913    1.6104    0.0000 C   0  0  0  0  0  0  0  0  0  0  0  0
    1.4207    0.8387    0.0000 C   0  0  0  0  0  0  0  0  0  0  0  0
   -0.0062    0.8261    0.0000 N   0  0  0  0  0  0  0  0  0  0  0  0
   -5.0131    2.0068    0.0000 Br  0  0  0  0  0  0  0  0  0  0  0  0
   -2.8684    1.6230    0.0000 C   0  0  0  0  0  0  0  0  0  0  0  0
   -3.5694    0.3796    0.0000 C   0  0  0  0  0  0  0  0  0  0  0  0
    4.2746    0.8677    0.0000 C   0  0  0  0  0  0  0  0  0  0  0  0
   -3.5862    2.0278    0.0000 C   0  0  0  0  0  0  0  0  0  0  0  0
   -4.2871    0.7844    0.0000 C   0  0  0  0  0  0  0  0  0  0  0  0
    4.3163   -1.6064    0.0000 C   0  0  0  0  0  0  0  0  0  0  0  0
    2.8810   -0.8010    0.0000 C   0  0  0  0  0  0  0  0  0  0  0  0
   -0.7155    0.4046    0.0000 C   0  0  0  0  0  0  0  0  0  0  0  0
    5.0006    0.4631    0.0000 C   0  0  0  0  0  0  0  0  0  0  0  0
    2.8894   -1.6272    0.0000 C   0  0  0  0  0  0  0  0  0  0  0  0
    0.7113    0.4171    0.0000 C   0  0  0  0  0  0  0  0  0  0  0  0
    5.0131   -0.3629    0.0000 C   0  0  0  0  0  0  0  0  0  0  0  0
  2  1  1  0
  3  2  1  0
  4  1  2  0
  5  1  2  0
  6  1  1  0
  7 21  2  0
  7 25  1  0
  8 10  2  0
  9  3  2  0
 10 23  1  0
 11  8  1  0
 12 19  2  0
 13  6  1  0
 14 26  1  0
 15 12  1  0
 16 11  2  0
 17 11  1  0
 18  2  2  0
 19 16  1  0
 20 17  2  0
 20 12  1  0
 21  9  1  0
 22  3  1  0
 23 14  1  0
 24 18  1  0
 24 27  2  0
 25 22  2  0
 26 13  1  0
 27  9  1  0
M  END
>  <DRUGBANK_ID>  (1) 
DB07995

>  <COMMON_NAME>  (1) 
H-89

>  <CAS_NUMBER>  (1) 
127243-85-0

>  <UNII>  (1) 
M876330O56

>  <SYNONYMS>  (1) 
N-[2-(4-bromocinnamylamino)ethyl]isoquinoline-5-sulfonamide

$$$$
