
     RDKit          2D

 17 19  0  0  0  0  0  0  0  0999 V2000
   28.6022  -19.1936    0.0000 O   0  0  0  0  0  0  0  0  0  0  0  0
   28.6022  -21.6684    0.0000 O   0  0  0  0  0  0  0  0  0  0  0  0
   27.8878  -19.6060    0.0000 C   0  0  0  0  0  0  0  0  0  0  0  0
   29.3165  -19.6060    0.0000 C   0  0  0  0  0  0  0  0  0  0  0  0
   28.6022  -20.8435    0.0000 C   0  0  0  0  0  0  0  0  0  0  0  0
   27.1735  -19.1936    0.0000 C   0  0  0  0  0  0  0  0  0  0  0  0
   29.3165  -20.4310    0.0000 C   0  0  0  0  0  0  0  0  0  0  0  0
   27.8878  -20.4310    0.0000 C   0  0  0  0  0  0  0  0  0  0  0  0
   30.0541  -19.1650    0.0000 C   0  0  0  0  0  0  0  0  0  0  0  0
   26.4590  -19.6060    0.0000 C   0  0  0  0  0  0  0  0  0  0  0  0
   27.1735  -18.3687    0.0000 C   0  0  0  0  0  0  0  0  0  0  0  0
   30.0541  -20.8721    0.0000 C   0  0  0  0  0  0  0  0  0  0  0  0
   30.8014  -19.5889    0.0000 C   0  0  0  0  0  0  0  0  0  0  0  0
   25.7447  -19.1936    0.0000 C   0  0  0  0  0  0  0  0  0  0  0  0
   26.4590  -17.9562    0.0000 C   0  0  0  0  0  0  0  0  0  0  0  0
   30.8014  -20.4481    0.0000 C   0  0  0  0  0  0  0  0  0  0  0  0
   25.7447  -18.3687    0.0000 C   0  0  0  0  0  0  0  0  0  0  0  0
  1  3  1  0
  1  4  1  0
  2  5  2  0
  3  6  1  0
  3  8  2  0
  4  7  2  0
  4  9  1  0
  5  7  1  0
  5  8  1  0
  6 10  2  0
  6 11  1  0
  7 12  1  0
  9 13  2  0
 10 14  1  0
 11 15  2  0
 12 16  2  0
 13 16  1  0
 14 17  2  0
 15 17  1  0
M  END
>  <DRUGBANK_ID>  (1) 
DB07776

>  <SECONDARY_ACCESSION_NUMBERS>  (1) 
DB11139

>  <COMMON_NAME>  (1) 
Flavone

>  <CAS_NUMBER>  (1) 
525-82-6

>  <UNII>  (1) 
S2V45N7G3B

>  <SYNONYMS>  (1) 
2-Phenyl-4-benzopyron; 2-Phenyl-4-chromone; 2-phenyl-4H-1-benzopyran-4-one; 2-phenyl-4H-benzopyran-4-one; 2-phenyl-Î³-benzopyrone; 2-Phenylbenzopyran-4-one; 2-phenylchromone; Flavon

$$$$
