
     RDKit          2D

 34 38  0  0  1  0  0  0  0  0999 V2000
   -4.7701    2.7315    0.0000 C   0  0  0  0  0  0  0  0  0  0  0  0
   -3.9451    2.7315    0.0000 C   0  0  0  0  0  0  0  0  0  0  0  0
   -3.9451    1.9065    0.0000 C   0  0  0  0  0  0  0  0  0  0  0  0
   -3.9451    3.5565    0.0000 C   0  0  0  0  0  0  0  0  0  0  0  0
   -3.1201    2.7315    0.0000 C   0  0  0  0  0  0  0  0  0  0  0  0
   -2.6351    3.3989    0.0000 N   0  0  0  0  0  0  0  0  0  0  0  0
   -1.8505    3.1440    0.0000 N   0  0  0  0  0  0  0  0  0  0  0  0
   -1.8505    2.3190    0.0000 C   0  0  0  0  0  0  0  0  0  0  0  0
   -2.6351    2.0640    0.0000 O   0  0  0  0  0  0  0  0  0  0  0  0
   -1.1831    1.8341    0.0000 C   0  0  0  0  0  0  0  0  0  0  0  0
   -0.3984    2.0890    0.0000 C   0  0  0  0  0  0  0  0  0  0  0  0
    0.0865    1.4216    0.0000 C   0  0  0  0  0  0  0  0  0  0  0  0
   -0.3984    0.7541    0.0000 C   0  0  0  0  0  0  0  0  0  0  0  0
   -1.1831    1.0091    0.0000 O   0  0  0  0  0  0  0  0  0  0  0  0
   -0.1435   -0.0305    0.0000 N   0  0  0  0  0  0  0  0  0  0  0  0
   -0.6284   -0.6979    0.0000 C   0  0  0  0  0  0  0  0  0  0  0  0
   -0.1435   -1.3654    0.0000 N   0  0  0  0  0  0  0  0  0  0  0  0
    0.6411   -1.1104    0.0000 C   0  0  0  0  0  0  0  0  0  0  0  0
    0.6411   -0.2854    0.0000 C   0  0  0  0  0  0  0  0  0  0  0  0
    1.3556    0.1271    0.0000 N   0  0  0  0  0  0  0  0  0  0  0  0
    2.0701   -0.2854    0.0000 C   0  0  0  0  0  0  0  0  0  0  0  0
    2.0701   -1.1104    0.0000 N   0  0  0  0  0  0  0  0  0  0  0  0
    1.3556   -1.5229    0.0000 C   0  0  0  0  0  0  0  0  0  0  0  0
    1.3556   -2.3479    0.0000 N   0  0  0  0  0  0  0  0  0  0  0  0
    0.6411   -2.7604    0.0000 C   0  0  0  0  0  0  0  0  0  0  0  0
   -0.0734   -2.3479    0.0000 C   0  0  0  0  0  0  0  0  0  0  0  0
   -0.7878   -2.7604    0.0000 C   0  0  0  0  0  0  0  0  0  0  0  0
   -0.7878   -3.5854    0.0000 C   0  0  0  0  0  0  0  0  0  0  0  0
   -0.0734   -3.9979    0.0000 C   0  0  0  0  0  0  0  0  0  0  0  0
    0.6411   -3.5854    0.0000 C   0  0  0  0  0  0  0  0  0  0  0  0
    1.3556   -3.9979    0.0000 F   0  0  0  0  0  0  0  0  0  0  0  0
   -1.5023   -3.9979    0.0000 Cl  0  0  0  0  0  0  0  0  0  0  0  0
    0.9115    1.4216    0.0000 O   0  0  0  0  0  0  0  0  0  0  0  0
   -0.1435    2.8736    0.0000 O   0  0  0  0  0  0  0  0  0  0  0  0
  1  2  1  0
  2  3  1  0
  2  4  1  0
  2  5  1  0
  5  6  2  0
  5  9  1  0
  6  7  1  0
  7  8  2  0
  8  9  1  0
 10  8  1  6
 10 11  1  0
 10 14  1  0
 11 12  1  0
 11 34  1  1
 12 13  1  0
 12 33  1  1
 13 14  1  0
 13 15  1  6
 15 16  1  0
 15 19  1  0
 16 17  2  0
 17 18  1  0
 18 19  2  0
 18 23  1  0
 19 20  1  0
 20 21  2  0
 21 22  1  0
 22 23  2  0
 23 24  1  0
 24 25  1  0
 25 26  2  0
 25 30  1  0
 26 27  1  0
 27 28  2  0
 28 29  1  0
 28 32  1  0
 29 30  2  0
 30 31  1  0
M  END
>  <DRUGBANK_ID>  (1) 
DB12760

>  <COMMON_NAME>  (1) 
GW-493838

>  <CAS_NUMBER>  (1) 
253124-46-8

>  <UNII>  (1) 
93OG0JL22O

$$$$
