
     RDKit          2D

  9  8  0  0  0  0  0  0  0  0999 V2000
    0.0000    0.0000    0.0000 N   0  0  0  0  0  0  0  0  0  0  0  0
    3.5047    0.6164    0.0000 Cl  0  0  0  0  0  0  0  0  0  0  0  0
    2.7696    0.2419    0.0000 Te  0  0  0  0  0  5  0  0  0  0  0  0
    2.7696    1.0669    0.0000 Cl  0  0  0  0  0  0  0  0  0  0  0  0
    2.0346    0.6164    0.0000 Cl  0  0  0  0  0  0  0  0  0  0  0  0
    3.4371   -0.2431    0.0000 O   0  0  0  0  0  0  0  0  0  0  0  0
    3.1821   -1.0277    0.0000 C   0  0  0  0  0  0  0  0  0  0  0  0
    2.3571   -1.0277    0.0000 C   0  0  0  0  0  0  0  0  0  0  0  0
    2.1022   -0.2431    0.0000 O   0  0  0  0  0  0  0  0  0  0  0  0
  2  3  1  0
  3  4  1  0
  3  5  1  0
  3  6  1  0
  3  9  1  0
  6  7  1  0
  7  8  1  0
  8  9  1  0
M  CHG  2   1   1   3  -1
M  END
>  <DRUGBANK_ID>  (1) 
DB17740

>  <COMMON_NAME>  (1) 
Ammonium trichlorotellurate

>  <CAS_NUMBER>  (1) 
106566-58-9

>  <UNII>  (1) 
708681952A

>  <SYNONYMS>  (1) 
Ammonium trichloro [dioxoethylene-O,O') tellurium (IV); Ammonium trichloro(dioxyethylene-o,o')tellurium(iv); Ammonium trichlorotellurate; Ossirene

$$$$
