
     RDKit          2D

 26 29  0  0  0  0  0  0  0  0999 V2000
    2.2933   -0.8465    0.0000 C   0  0  0  0  0  0  0  0  0  0  0  0
    0.7942   -1.8292    0.0000 C   0  0  0  0  0  0  0  0  0  0  0  0
    2.2933    0.4882    0.0000 C   0  0  0  0  0  0  0  0  0  0  0  0
    0.7942    0.6457    0.0000 C   0  0  0  0  0  0  0  0  0  0  0  0
    2.7782   -0.1792    0.0000 C   0  0  0  0  0  0  0  0  0  0  0  0
   -0.6347   -1.0042    0.0000 C   0  0  0  0  0  0  0  0  0  0  0  0
    0.0797    0.2332    0.0000 C   0  0  0  0  0  0  0  0  0  0  0  0
    0.0797   -2.2417    0.0000 C   0  0  0  0  0  0  0  0  0  0  0  0
   -0.6347   -1.8292    0.0000 C   0  0  0  0  0  0  0  0  0  0  0  0
   -1.3493   -0.5917    0.0000 C   0  0  0  0  0  0  0  0  0  0  0  0
   -1.3493   -2.2417    0.0000 C   0  0  0  0  0  0  0  0  0  0  0  0
   -2.0637   -1.0042    0.0000 C   0  0  0  0  0  0  0  0  0  0  0  0
    0.7942   -1.0042    0.0000 C   0  0  0  0  0  0  0  0  0  0  0  0
    0.0797   -0.5917    0.0000 C   0  0  0  0  0  0  0  0  0  0  0  0
    1.5087    0.2332    0.0000 C   0  0  0  0  0  0  0  0  0  0  0  0
    1.5087    1.0582    0.0000 C   0  0  0  0  0  0  0  0  0  0  0  0
    1.5087   -0.5917    0.0000 C   0  0  0  0  0  0  0  0  0  0  0  0
   -2.7782   -2.2417    0.0000 O   0  0  0  0  0  0  0  0  0  0  0  0
   -2.0637   -1.8292    0.0000 C   0  0  0  0  0  0  0  0  0  0  0  0
   -0.6347   -0.1792    0.0000 C   0  0  0  0  0  0  0  0  0  0  0  0
    2.4648    1.2952    0.0000 O   0  0  0  0  0  0  0  0  0  0  0  0
   -2.7782   -0.5917    0.0000 C   0  0  0  0  0  0  0  0  0  0  0  0
    1.8517    1.8472    0.0000 C   0  0  0  0  0  0  0  0  0  0  0  0
    1.0671    1.5923    0.0000 C   0  0  0  0  0  0  0  0  0  0  0  0
    0.4540    2.1443    0.0000 C   0  0  0  0  0  0  0  0  0  0  0  0
    2.0232    2.6542    0.0000 O   0  0  0  0  0  0  0  0  0  0  0  0
  2  8  1  0
  3  5  1  0
  3 21  1  1
  4  7  1  0
  5  1  1  0
  6  9  1  0
  6 10  1  0
  6 20  1  1
  9  8  1  1
  9 11  1  0
 10 12  1  0
 11 19  1  0
 12 19  1  0
 12 22  1  6
 13 14  1  0
 13  2  1  6
 14  6  1  0
 14  7  1  1
 15  3  1  0
 15  4  1  0
 15 16  1  1
 17 13  1  0
 17 15  1  0
 17  1  1  1
 19 18  2  0
 21 23  1  0
 23 24  1  0
 23 26  2  0
 24 25  1  0
M  END
>  <DRUGBANK_ID>  (1) 
DB14655

>  <SECONDARY_ACCESSION_NUMBERS>  (1) 
DBSALT001342

>  <COMMON_NAME>  (1) 
Drostanolone propionate

>  <CAS_NUMBER>  (1) 
521-12-0

>  <UNII>  (1) 
X20UZ57G4O

>  <SYNONYMS>  (1) 
17β-Hydroxy-2α-methyl-5α-androstan-3-one propionate; 2M-DHTP; 2MDTP; 2α-Methyl-4,5-dihydrotestosterone propionate; Blackburn Compound; Dromostanolone propionate; Drostanolone propionate; Emdisterone; Testosterone, 4,5α-dihydro-2α-methyl-, propionate

$$$$
