
     RDKit          2D

 28 30  0  0  0  0  0  0  0  0999 V2000
   -3.4729    0.4838    0.0000 C   0  0  0  0  0  0  0  0  0  0  0  0
   -4.2827    0.6559    0.0000 C   0  0  0  0  0  0  0  0  0  0  0  0
   -4.8342    0.0421    0.0000 O   0  0  0  0  0  0  0  0  0  0  0  0
   -4.5801   -0.7430    0.0000 C   0  0  0  0  0  0  0  0  0  0  0  0
   -3.7703   -0.9151    0.0000 C   0  0  0  0  0  0  0  0  0  0  0  0
   -3.2188   -0.3012    0.0000 N   0  0  0  0  0  0  0  0  0  0  0  0
   -2.4123   -0.4689    0.0000 C   0  0  0  0  0  0  0  0  0  0  0  0
   -2.1573   -1.2504    0.0000 O   0  0  0  0  0  0  0  0  0  0  0  0
   -1.8606    0.1454    0.0000 C   0  0  0  0  0  0  0  0  0  0  0  0
   -1.0508   -0.0266    0.0000 N   0  0  0  0  0  0  0  0  0  0  0  0
   -0.7970   -0.8121    0.0000 C   0  0  0  0  0  0  0  0  0  0  0  0
    0.0262   -0.8066    0.0000 C   0  0  0  0  0  0  0  0  0  0  0  0
    0.2755   -0.0231    0.0000 C   0  0  0  0  0  0  0  0  0  0  0  0
   -0.3819    0.4586    0.0000 C   0  0  0  0  0  0  0  0  0  0  0  0
   -1.2827   -1.4902    0.0000 O   0  0  0  0  0  0  0  0  0  0  0  0
   -2.1155    0.9268    0.0000 C   0  0  0  0  0  0  0  0  0  0  0  0
    0.5156   -1.4702    0.0000 N   0  0  0  0  0  0  0  0  0  0  0  0
    1.3358   -1.3812    0.0000 S   0  0  0  0  0  0  0  0  0  0  0  0
    1.2470   -0.5604    0.0000 O   0  0  0  0  0  0  0  0  0  0  0  0
    1.4236   -2.2061    0.0000 O   0  0  0  0  0  0  0  0  0  0  0  0
    2.1566   -1.2926    0.0000 C   0  0  0  0  0  0  0  0  0  0  0  0
    2.4908   -0.5403    0.0000 C   0  0  0  0  0  0  0  0  0  0  0  0
    3.3110   -0.4514    0.0000 C   0  0  0  0  0  0  0  0  0  0  0  0
    3.9268   -0.9951    0.0000 C   0  0  0  0  0  0  0  0  0  0  0  0
    4.6376   -0.5701    0.0000 C   0  0  0  0  0  0  0  0  0  0  0  0
    4.4614    0.2182    0.0000 C   0  0  0  0  0  0  0  0  0  0  0  0
    3.6434    0.3061    0.0000 S   0  0  0  0  0  0  0  0  0  0  0  0
    5.0209    0.8363    0.0000 Cl  0  0  0  0  0  0  0  0  0  0  0  0
  1  2  1  0
  1  6  1  0
  2  3  1  0
  3  4  1  0
  4  5  1  0
  5  6  1  0
  6  7  1  0
  7  8  2  0
  7  9  1  0
  9 16  1  6
  9 10  1  0
 10 11  1  0
 11 12  1  0
 11 15  2  0
 12 17  1  6
 12 13  1  0
 13 14  1  0
 14 10  1  0
 17 18  1  0
 18 19  2  0
 18 20  2  0
 18 21  1  0
 21 22  2  0
 22 23  1  0
 23 24  2  0
 24 25  1  0
 25 26  2  0
 26 27  1  0
 26 28  1  0
 27 23  1  0
M  END
>  <DRUGBANK_ID>  (1) 
DB07278

>  <COMMON_NAME>  (1) 
GW-813893

>  <CAS_NUMBER>  (1) 
478644-12-1

>  <UNII>  (1) 
1Y3JD5PEMS

$$$$
