
     RDKit          2D

  9  9  0  0  1  0  0  0  0  0999 V2000
   -0.7145   -0.4125    0.0000 C   0  0  0  0  0  0  0  0  0  0  0  0
    1.4289   -0.0000    0.0000 C   0  0  0  0  0  0  0  0  0  0  0  0
    1.4289    0.8250    0.0000 C   0  0  0  0  0  0  0  0  0  0  0  0
    0.0000   -0.0000    0.0000 C   0  0  0  0  0  0  0  0  0  0  0  0
    0.7145   -0.4125    0.0000 C   0  0  0  0  0  0  0  0  0  0  0  0
    0.7145    1.2375    0.0000 C   0  0  0  0  0  0  0  0  0  0  0  0
    0.7145   -1.2375    0.0000 O   0  0  0  0  0  0  0  0  0  0  0  0
    0.7145    2.0625    0.0000 O   0  0  0  0  0  0  0  0  0  0  0  0
    0.0000    0.8250    0.0000 O   0  0  0  0  0  0  0  0  0  0  0  0
  3  2  1  0
  4  1  1  1
  5  2  1  0
  5  4  1  0
  5  7  1  6
  6  3  1  0
  6  8  1  1
  9  4  1  0
  9  6  1  0
M  END
>  <DRUGBANK_ID>  (1) 
DB03872

>  <SECONDARY_ACCESSION_NUMBERS>  (1) 
EXPT00876

>  <COMMON_NAME>  (1) 
2,3-Dideoxyfucose

$$$$
