
     RDKit          2D

  8  7  0  0  0  0  0  0  0  0999 V2000
   -0.7145    0.2062    0.0000 C   0  0  0  0  0  0  0  0  0  0  0  0
    0.0000   -0.2062    0.0000 C   0  0  0  0  0  0  0  0  0  0  0  0
    0.7145    0.2062    0.0000 C   0  0  0  0  0  0  0  0  0  0  0  0
   -1.4289   -0.2062    0.0000 O   0  0  0  0  0  0  0  0  0  0  0  0
   -0.7145    1.0312    0.0000 O   0  0  0  0  0  0  0  0  0  0  0  0
    1.4289   -0.2062    0.0000 O   0  0  0  0  0  0  0  0  0  0  0  0
    0.7145    1.0312    0.0000 O   0  0  0  0  0  0  0  0  0  0  0  0
    0.0000   -1.0312    0.0000 O   0  0  0  0  0  0  0  0  0  0  0  0
  2  1  1  0
  3  2  1  0
  4  1  1  0
  5  1  2  0
  6  3  1  0
  7  3  2  0
  8  2  2  0
M  END
>  <DRUGBANK_ID>  (1) 
DB03589

>  <SECONDARY_ACCESSION_NUMBERS>  (1) 
EXPT02110

>  <COMMON_NAME>  (1) 
Mesoxalic acid

>  <CAS_NUMBER>  (1) 
473-90-5

>  <UNII>  (1) 
62R514HE48

>  <SYNONYMS>  (1) 
alpha-Ketomalonic acid; Ketomalonic acid; Oxomalonic acid

$$$$
