
     RDKit          2D

 24 26  0  0  0  0  0  0  0  0999 V2000
   -0.9355   -2.0625    0.0000 C   0  0  0  0  0  0  0  0  0  0  0  0
   -1.6500   -1.6500    0.0000 C   0  0  0  0  0  0  0  0  0  0  0  0
   -1.6500   -0.8250    0.0000 C   0  0  0  0  0  0  0  0  0  0  0  0
   -0.9355   -0.4125    0.0000 C   0  0  0  0  0  0  0  0  0  0  0  0
   -0.2211   -0.8250    0.0000 C   0  0  0  0  0  0  0  0  0  0  0  0
   -0.2211   -1.6500    0.0000 C   0  0  0  0  0  0  0  0  0  0  0  0
   -0.9355    0.4125    0.0000 C   0  0  0  0  0  0  0  0  0  0  0  0
   -0.1105    0.4125    0.0000 C   0  0  0  0  0  0  0  0  0  0  0  0
    0.3020    1.1270    0.0000 C   0  0  0  0  0  0  0  0  0  0  0  0
    1.1270    1.1270    0.0000 C   0  0  0  0  0  0  0  0  0  0  0  0
    1.5395    0.4125    0.0000 C   0  0  0  0  0  0  0  0  0  0  0  0
    1.1270   -0.3020    0.0000 C   0  0  0  0  0  0  0  0  0  0  0  0
    0.3020   -0.3020    0.0000 C   0  0  0  0  0  0  0  0  0  0  0  0
    2.3645    0.4125    0.0000 F   0  0  0  0  0  0  0  0  0  0  0  0
   -1.7605    0.4125    0.0000 C   0  0  0  0  0  0  0  0  0  0  0  0
   -2.1730   -0.3020    0.0000 C   0  0  0  0  0  0  0  0  0  0  0  0
   -2.9980   -0.3020    0.0000 C   0  0  0  0  0  0  0  0  0  0  0  0
   -3.4105    0.4125    0.0000 C   0  0  0  0  0  0  0  0  0  0  0  0
   -2.9980    1.1270    0.0000 C   0  0  0  0  0  0  0  0  0  0  0  0
   -2.1730    1.1270    0.0000 C   0  0  0  0  0  0  0  0  0  0  0  0
   -4.2355    0.4125    0.0000 F   0  0  0  0  0  0  0  0  0  0  0  0
   -0.9355    1.2375    0.0000 C   0  0  0  0  0  0  0  0  0  0  0  0
   -0.2211    1.6500    0.0000 O   0  0  0  0  0  0  0  0  0  0  0  0
   -1.6500    1.6500    0.0000 N   0  0  0  0  0  0  0  0  0  0  0  0
  1  2  2  0
  1  6  1  0
  2  3  1  0
  3  4  2  0
  4  5  1  0
  4  7  1  0
  5  6  2  0
  7  8  1  0
  7 15  1  0
  7 22  1  0
  8  9  2  0
  8 13  1  0
  9 10  1  0
 10 11  2  0
 11 12  1  0
 11 14  1  0
 12 13  2  0
 15 16  2  0
 15 20  1  0
 16 17  1  0
 17 18  2  0
 18 19  1  0
 18 21  1  0
 19 20  2  0
 22 23  2  0
 22 24  1  0
M  END
>  <DRUGBANK_ID>  (1) 
DB06280

>  <COMMON_NAME>  (1) 
Senicapoc

>  <CAS_NUMBER>  (1) 
289656-45-7

>  <UNII>  (1) 
TS6G201A6Q

>  <SYNONYMS>  (1) 
2,2-Bis(4-fluorophenyl)-2-phenylacetamide; Bis(4-fluorophenyl)phenylacetamide; Senicapoc

$$$$
