ZYZ
     RDKit          2D

 24 24  0  0  0  0  0  0  0  0999 V2000
   -3.0631    1.6608    0.0000 Se  0  0  0  0  0  4  0  0  0  0  0  0
   -2.6506    0.9464    0.0000 C   0  0  0  0  0  0  0  0  0  0  0  0
    1.8869    0.2319    0.0000 N   0  0  0  0  0  0  0  0  0  0  0  0
   -1.8256    0.9464    0.0000 C   0  0  0  0  0  0  0  0  0  0  0  0
   -1.4131    1.6608    0.0000 C   0  0  0  0  0  0  0  0  0  0  0  0
   -0.1756   -0.4826    0.0000 O   0  0  0  0  0  0  0  0  0  0  0  0
   -0.5881    1.6608    0.0000 C   0  0  0  0  0  0  0  0  0  0  0  0
    1.0619   -1.1970    0.0000 O   0  0  0  0  0  0  0  0  0  0  0  0
   -0.1756    0.9464    0.0000 C   0  0  0  0  0  0  0  0  0  0  0  0
    1.8869   -1.1970    0.0000 O   0  0  0  0  0  0  0  0  0  0  0  0
   -0.5881    0.2319    0.0000 C   0  0  0  0  0  0  0  0  0  0  0  0
    3.1244   -0.4826    0.0000 O   0  0  0  0  0  0  0  0  0  0  0  0
   -1.4131    0.2319    0.0000 C   0  0  0  0  0  0  0  0  0  0  0  0
    0.6494    0.9464    0.0000 C   0  0  0  0  0  0  0  0  0  0  0  0
    1.0619    0.2319    0.0000 C   0  0  0  0  0  0  0  0  0  0  0  0
    0.6494   -0.4826    0.0000 C   0  0  0  0  0  0  0  0  0  0  0  0
    2.2994   -0.4826    0.0000 C   0  0  0  0  0  0  0  0  0  0  0  0
    0.6494   -1.9115    0.0000 C   0  0  0  0  0  0  0  0  0  0  0  0
    3.5369   -1.1970    0.0000 C   0  0  0  0  0  0  0  0  0  0  0  0
    3.9494   -1.9115    0.0000 C   0  0  0  0  0  0  0  0  0  0  0  0
    4.2513   -0.7845    0.0000 C   0  0  0  0  0  0  0  0  0  0  0  0
    2.8224   -1.6095    0.0000 C   0  0  0  0  0  0  0  0  0  0  0  0
   -3.8881    1.6608    0.0000 O   0  0  0  0  0  0  0  0  0  0  0  0
   -2.6506    2.3753    0.0000 O   0  0  0  0  0  0  0  0  0  0  0  0
  1 23  1  0
  1 24  2  0
  2  1  1  0
  4  2  1  0
  5  4  2  0
  7  5  1  0
  8 18  1  0
  8 16  1  0
  9  7  2  0
  9 11  1  0
 10 17  2  0
 11 13  2  0
 12 17  1  0
 13  4  1  0
 14  9  1  0
 15  3  1  0
 15 14  1  6
 15 16  1  0
 16  6  2  0
 17  3  1  0
 19 12  1  0
 19 20  1  0
 21 19  1  0
 22 19  1  0
M  END
>  <DRUGBANK_ID>  (1) 
DB08783

>  <COMMON_NAME>  (1) 
(4-{(2S)-2-[(tert-butoxycarbonyl)amino]-3-methoxy-3-oxopropyl}phenyl)methaneseleninic acid

$$$$
