BBB
     RDKit          2D

 29 31  0  0  0  0  0  0  0  0999 V2000
   -3.7052   -0.7904    0.0000 O   0  0  0  0  0  0  0  0  0  0  0  0
   -2.9907   -0.3779    0.0000 C   0  0  0  0  0  0  0  0  0  0  0  0
   -2.2762   -0.7904    0.0000 C   0  0  0  0  0  0  0  0  0  0  0  0
   -1.5618   -0.3779    0.0000 O   0  0  0  0  0  0  0  0  0  0  0  0
   -0.8473   -0.7904    0.0000 C   0  0  0  0  0  0  0  0  0  0  0  0
   -0.1328   -0.3779    0.0000 N   0  0  0  0  0  0  0  0  0  0  0  0
   -0.1328    0.4471    0.0000 C   0  0  0  0  0  0  0  0  0  0  0  0
   -0.8473    0.8596    0.0000 O   0  0  0  0  0  0  0  0  0  0  0  0
    0.5817    0.8596    0.0000 N   0  0  0  0  0  0  0  0  0  0  0  0
    1.2961    0.4471    0.0000 C   0  0  0  0  0  0  0  0  0  0  0  0
    2.0106    0.8596    0.0000 O   0  0  0  0  0  0  0  0  0  0  0  0
    0.5817   -0.7904    0.0000 C   0  0  0  0  0  0  0  0  0  0  0  0
    1.2961   -0.3779    0.0000 C   0  0  0  0  0  0  0  0  0  0  0  0
    2.0106   -0.7904    0.0000 C   0  0  0  0  0  0  0  0  0  0  0  0
    2.7251   -0.3779    0.0000 C   0  0  0  0  0  0  0  0  0  0  0  0
    2.7251    0.4471    0.0000 C   0  0  0  0  0  0  0  0  0  0  0  0
    3.4395    0.8596    0.0000 C   0  0  0  0  0  0  0  0  0  0  0  0
    4.1540    0.4471    0.0000 C   0  0  0  0  0  0  0  0  0  0  0  0
    3.4395   -0.7904    0.0000 C   0  0  0  0  0  0  0  0  0  0  0  0
    4.1540   -0.3779    0.0000 C   0  0  0  0  0  0  0  0  0  0  0  0
    4.8685   -0.7904    0.0000 O   0  0  0  0  0  0  0  0  0  0  0  0
    5.5830   -0.3779    0.0000 C   0  0  0  0  0  0  0  0  0  0  0  0
    6.2974   -0.7904    0.0000 C   0  0  0  0  0  0  0  0  0  0  0  0
    7.0119   -0.3779    0.0000 C   0  0  0  0  0  0  0  0  0  0  0  0
    7.7264   -0.7904    0.0000 C   0  0  0  0  0  0  0  0  0  0  0  0
    7.7264   -1.6154    0.0000 C   0  0  0  0  0  0  0  0  0  0  0  0
    7.0119   -2.0279    0.0000 C   0  0  0  0  0  0  0  0  0  0  0  0
    6.2974   -1.6154    0.0000 C   0  0  0  0  0  0  0  0  0  0  0  0
    0.5817   -1.6154    0.0000 O   0  0  0  0  0  0  0  0  0  0  0  0
  1  2  1  0
  2  3  1  0
  3  4  1  0
  4  5  1  0
  5  6  1  0
  6  7  1  0
  6 12  1  0
  7  8  2  0
  7  9  1  0
  9 10  1  0
 10 11  2  0
 10 13  1  0
 12 13  2  0
 12 29  1  0
 13 14  1  0
 14 15  1  0
 15 16  2  0
 15 19  1  0
 16 17  1  0
 17 18  2  0
 18 20  1  0
 19 20  2  0
 20 21  1  0
 21 22  1  0
 22 23  1  0
 23 24  2  0
 23 28  1  0
 24 25  1  0
 25 26  2  0
 26 27  1  0
 27 28  2  0
M  END
>  <DRUGBANK_ID>  (1) 
DB07439

>  <COMMON_NAME>  (1) 
1-((2-HYDROXYETHOXY)METHYL)-5-(3-(BENZYLOXY)BENZYL)-6-HYDROXYPYRIMIDINE-2,4(1H,3H)-DIONE

$$$$
