
     RDKit          2D

 26 30  0  0  1  0  0  0  0  0999 V2000
   -2.1434   -0.4125    0.0000 C   0  0  0  0  0  0  0  0  0  0  0  0
    2.4454   -0.7145    0.0000 C   0  0  0  0  0  0  0  0  0  0  0  0
    3.2704   -0.7145    0.0000 C   0  0  0  0  0  0  0  0  0  0  0  0
   -0.9207    0.4125    0.0000 C   0  0  0  0  0  0  0  0  0  0  0  0
    1.4289    2.4750    0.0000 C   0  0  0  0  0  0  0  0  0  0  0  0
    1.4289    0.8250    0.0000 C   0  0  0  0  0  0  0  0  0  0  0  0
   -1.4289    0.8250    0.0000 C   0  0  0  0  0  0  0  0  0  0  0  0
    0.0000    0.0000    0.0000 C   0  0  0  0  0  0  0  0  0  0  0  0
    3.5724    1.2375    0.0000 C   0  0  0  0  0  0  0  0  0  0  0  0
    2.8579    0.0000    0.0000 C   0  0  0  0  0  0  0  0  0  0  0  0
   -0.7145   -0.4125    0.0000 C   0  0  0  0  0  0  0  0  0  0  0  0
   -0.7145    1.2375    0.0000 C   0  0  0  0  0  0  0  0  0  0  0  0
    2.1434    2.0625    0.0000 C   0  0  0  0  0  0  0  0  0  0  0  0
    3.5724    2.0625    0.0000 C   0  0  0  0  0  0  0  0  0  0  0  0
    0.7145    2.0625    0.0000 C   0  0  0  0  0  0  0  0  0  0  0  0
    2.1434    1.2375    0.0000 C   0  0  0  0  0  0  0  0  0  0  0  0
    0.7145    1.2375    0.0000 C   0  0  0  0  0  0  0  0  0  0  0  0
    2.8579    2.4750    0.0000 C   0  0  0  0  0  0  0  0  0  0  0  0
    4.2868    2.4750    0.0000 C   0  0  0  0  0  0  0  0  0  0  0  0
   -0.0000    2.4750    0.0000 F   0  0  0  0  0  0  0  0  0  0  0  0
   -1.4289   -0.0000    0.0000 N   0  0  0  0  0  0  0  0  0  0  0  0
    0.0000    0.8250    0.0000 N   0  0  0  0  0  0  0  0  0  0  0  0
    2.8579    0.8250    0.0000 N   0  0  0  0  0  0  0  0  0  0  0  0
    2.8579    3.3000    0.0000 O   0  0  0  0  0  0  0  0  0  0  0  0
    4.2868    3.3000    0.0000 O   0  0  0  0  0  0  0  0  0  0  0  0
    5.0013    2.0625    0.0000 O   0  0  0  0  0  0  0  0  0  0  0  0
  3  2  1  0
 10  2  1  0
 10  3  1  0
 11  4  1  0
 11  8  1  1
 12  4  1  0
 12  7  1  1
 13  5  2  0
 14  9  2  0
 15  5  1  0
 16  6  2  0
 16 13  1  0
 17  6  1  0
 17 15  2  0
 18 13  1  0
 18 14  1  0
 19 14  1  0
 20 15  1  0
 21  1  1  0
 21  7  1  0
 21 11  1  0
 22  8  1  0
 22 12  1  0
 22 17  1  0
 23  9  1  0
 23 10  1  0
 23 16  1  0
 24 18  2  0
 25 19  2  0
 26 19  1  0
M  END
>  <DRUGBANK_ID>  (1) 
DB11393

>  <COMMON_NAME>  (1) 
Danofloxacin

>  <CAS_NUMBER>  (1) 
112398-08-0

>  <UNII>  (1) 
24CU1YS91D

>  <SYNONYMS>  (1) 
Danofloxacin; Danofloxacine; Danofloxacino; Danofloxacinum

$$$$
