
     RDKit          2D

 30 29  0  0  0  0  0  0  0  0999 V2000
   -6.9020    3.9849    0.0000 C   0  0  0  0  0  0  0  0  0  0  0  0
    5.9585    3.9849    0.0000 C   0  0  0  0  0  0  0  0  0  0  0  0
   -3.3296   -1.3776    0.0000 C   0  0  0  0  0  0  0  0  0  0  0  0
   -6.1875    3.5724    0.0000 C   0  0  0  0  0  0  0  0  0  0  0  0
    5.2440    3.5724    0.0000 C   0  0  0  0  0  0  0  0  0  0  0  0
   -2.6151   -0.9651    0.0000 C   0  0  0  0  0  0  0  0  0  0  0  0
   -5.4730    3.9849    0.0000 C   0  0  0  0  0  0  0  0  0  0  0  0
    4.5296    3.9849    0.0000 C   0  0  0  0  0  0  0  0  0  0  0  0
   -2.6151   -0.1401    0.0000 C   0  0  0  0  0  0  0  0  0  0  0  0
   -4.7586    3.5724    0.0000 C   0  0  0  0  0  0  0  0  0  0  0  0
    3.8151    3.5724    0.0000 C   0  0  0  0  0  0  0  0  0  0  0  0
   -1.9007    0.2724    0.0000 C   0  0  0  0  0  0  0  0  0  0  0  0
   -4.0441    3.9849    0.0000 C   0  0  0  0  0  0  0  0  0  0  0  0
    3.1006    3.9849    0.0000 C   0  0  0  0  0  0  0  0  0  0  0  0
   -1.9007    1.0974    0.0000 C   0  0  0  0  0  0  0  0  0  0  0  0
   -3.3296    3.5724    0.0000 C   0  0  0  0  0  0  0  0  0  0  0  0
    2.3862    3.5724    0.0000 C   0  0  0  0  0  0  0  0  0  0  0  0
   -1.1862    1.5099    0.0000 C   0  0  0  0  0  0  0  0  0  0  0  0
   -1.1862    3.9849    0.0000 C   0  0  0  0  0  0  0  0  0  0  0  0
    0.2427    3.9849    0.0000 C   0  0  0  0  0  0  0  0  0  0  0  0
   -0.4717    3.5724    0.0000 C   0  0  0  0  0  0  0  0  0  0  0  0
   -2.6151    3.9849    0.0000 C   0  0  0  0  0  0  0  0  0  0  0  0
    1.6717    3.9849    0.0000 C   0  0  0  0  0  0  0  0  0  0  0  0
   -1.1862    2.3349    0.0000 C   0  0  0  0  0  0  0  0  0  0  0  0
   -2.6151    4.8099    0.0000 O   0  0  0  0  0  0  0  0  0  0  0  0
    1.6717    4.8099    0.0000 O   0  0  0  0  0  0  0  0  0  0  0  0
   -1.9007    2.7474    0.0000 O   0  0  0  0  0  0  0  0  0  0  0  0
   -1.9007    3.5724    0.0000 O   0  0  0  0  0  0  0  0  0  0  0  0
    0.9572    3.5724    0.0000 O   0  0  0  0  0  0  0  0  0  0  0  0
   -0.4717    2.7474    0.0000 O   0  0  0  0  0  0  0  0  0  0  0  0
  4  1  1  0
  5  2  1  0
  6  3  1  0
  7  4  1  0
  8  5  1  0
  9  6  1  0
 10  7  1  0
 11  8  1  0
 12  9  1  0
 13 10  1  0
 14 11  1  0
 15 12  1  0
 16 13  1  0
 17 14  1  0
 18 15  1  0
 21 19  1  0
 21 20  1  0
 22 16  1  0
 23 17  1  0
 24 18  1  0
 25 22  2  0
 26 23  2  0
 27 24  2  0
 28 19  1  0
 28 22  1  0
 29 20  1  0
 29 23  1  0
 30 21  1  0
 30 24  1  0
M  END
>  <DRUGBANK_ID>  (1) 
DB11677

>  <COMMON_NAME>  (1) 
Triheptanoin

>  <CAS_NUMBER>  (1) 
620-67-7

>  <UNII>  (1) 
2P6O7CFW5K

>  <SYNONYMS>  (1) 
Glycerol triheptanoate; Glyceryl triheptanoate; Trienanthoin; Triheptanoic glyceride; Triheptanoin; Triheptylin; Trioenanthoin

$$$$
