
     RDKit          2D

 29 31  0  0  0  0  0  0  0  0999 V2000
   -0.0981   -0.9351    0.0000 Cl  0  0  0  0  0  0  0  0  0  0  0  0
   -3.4717    3.5571    0.0000 Cl  0  0  0  0  0  0  0  0  0  0  0  0
   -1.0206    3.8133    0.0000 O   0  0  0  0  0  0  0  0  0  0  0  0
    0.7729    2.5749    0.0000 O   0  0  0  0  0  0  0  0  0  0  0  0
   -0.3800    1.7294    0.0000 N   0  0  0  0  0  0  0  0  0  0  0  0
    1.7379    1.1572    0.0000 N   0  0  0  0  0  0  0  0  0  0  0  0
    2.7543   -2.5834    0.0000 N   0  0  0  0  0  0  0  0  0  0  0  0
    1.3280   -2.5834    0.0000 N   0  0  0  0  0  0  0  0  0  0  0  0
   -0.8668    2.3955    0.0000 C   0  0  0  0  0  0  0  0  0  0  0  0
   -1.6867    2.3102    0.0000 C   0  0  0  0  0  0  0  0  0  0  0  0
    1.3280   -0.1153    0.0000 C   0  0  0  0  0  0  0  0  0  0  0  0
    0.9181    1.1572    0.0000 C   0  0  0  0  0  0  0  0  0  0  0  0
   -0.5337    3.1471    0.0000 C   0  0  0  0  0  0  0  0  0  0  0  0
    1.3280   -0.9351    0.0000 C   0  0  0  0  0  0  0  0  0  0  0  0
    0.4313    1.8234    0.0000 C   0  0  0  0  0  0  0  0  0  0  0  0
    0.6619    0.3715    0.0000 C   0  0  0  0  0  0  0  0  0  0  0  0
    2.7543   -3.4034    0.0000 C   0  0  0  0  0  0  0  0  0  0  0  0
    1.9941    0.3715    0.0000 C   0  0  0  0  0  0  0  0  0  0  0  0
    2.0454   -2.1735    0.0000 C   0  0  0  0  0  0  0  0  0  0  0  0
    2.0454   -1.3450    0.0000 C   0  0  0  0  0  0  0  0  0  0  0  0
   -2.1735    2.9763    0.0000 C   0  0  0  0  0  0  0  0  0  0  0  0
   -2.0198    1.5586    0.0000 C   0  0  0  0  0  0  0  0  0  0  0  0
    0.6191   -1.3450    0.0000 C   0  0  0  0  0  0  0  0  0  0  0  0
    3.4717   -3.8133    0.0000 C   0  0  0  0  0  0  0  0  0  0  0  0
    2.0454   -3.8133    0.0000 C   0  0  0  0  0  0  0  0  0  0  0  0
   -2.9848    2.8909    0.0000 C   0  0  0  0  0  0  0  0  0  0  0  0
   -2.8396    1.4732    0.0000 C   0  0  0  0  0  0  0  0  0  0  0  0
    0.6191   -2.1735    0.0000 C   0  0  0  0  0  0  0  0  0  0  0  0
   -3.3265    2.1394    0.0000 C   0  0  0  0  0  0  0  0  0  0  0  0
  1 23  1  0
  2 26  1  0
  3 13  1  0
  4 15  2  0
  5 15  1  0
  6 12  1  0
  6 18  1  0
  7 17  1  0
  7 19  1  0
  8 19  2  0
  8 28  1  0
  9  5  1  0
  9 10  1  0
  9 13  1  1
 10 21  2  0
 10 22  1  0
 11 14  1  0
 11 16  1  0
 11 18  2  0
 12 15  1  0
 12 16  2  0
 14 20  2  0
 14 23  1  0
 17 24  1  0
 17 25  1  0
 19 20  1  0
 21 26  1  0
 22 27  2  0
 23 28  2  0
 26 29  2  0
 27 29  1  0
M  END
>  <DRUGBANK_ID>  (1) 
DB13930

>  <COMMON_NAME>  (1) 
Ulixertinib

>  <CAS_NUMBER>  (1) 
869886-67-9

>  <UNII>  (1) 
16ZDH50O1U

>  <SYNONYMS>  (1) 
Ulixertinib

$$$$
