
     RDKit          2D

 15 15  0  0  1  0  0  0  0  0999 V2000
    1.2822    2.3518    0.0000 C   0  0  0  0  0  0  0  0  0  0  0  0
   -0.3297   -0.8227    0.0000 C   0  0  0  0  0  0  0  0  0  0  0  0
    2.0198    0.8843    0.0000 C   0  0  0  0  0  0  0  0  0  0  0  0
    0.5678    1.9393    0.0000 C   0  0  0  0  0  0  0  0  0  0  0  0
    0.1553   -0.1553    0.0000 C   0  0  0  0  0  0  0  0  0  0  0  0
    2.6329    0.3323    0.0000 C   0  0  0  0  0  0  0  0  0  0  0  0
    0.5678    1.1143    0.0000 C   0  0  0  0  0  0  0  0  0  0  0  0
    0.9803   -0.1553    0.0000 C   0  0  0  0  0  0  0  0  0  0  0  0
   -1.1501   -0.7365    0.0000 N   0  0  0  0  0  0  0  0  0  0  0  0
   -0.1467    2.3518    0.0000 N   0  0  0  0  0  0  0  0  0  0  0  0
   -0.0997    0.6294    0.0000 N   0  0  0  0  0  0  0  0  0  0  0  0
    1.2352    0.6294    0.0000 N   0  0  0  0  0  0  0  0  0  0  0  0
    3.4175    0.5872    0.0000 O   0  0  0  0  0  0  0  0  0  0  0  0
    2.4614   -0.4747    0.0000 O   0  0  0  0  0  0  0  0  0  0  0  0
    1.4652   -0.8227    0.0000 O   0  0  0  0  0  0  0  0  0  0  0  0
  4  1  1  1
  4 10  1  0
  5  2  1  6
  6  3  1  0
  7  4  1  0
  8  5  1  0
  9  2  1  0
 11  5  1  0
  7 11  1  6
 12  3  1  0
 12  7  1  0
 12  8  1  0
 13  6  2  0
 14  6  1  0
 15  8  2  0
M  END
>  <DRUGBANK_ID>  (1) 
DB03094

>  <SECONDARY_ACCESSION_NUMBERS>  (1) 
EXPT00055

>  <COMMON_NAME>  (1) 
3,5-Dihydro-5-Methylidene-4h-Imidazol-4-On

$$$$
