
     RDKit          2D

 17 17  0  0  0  0  0  0  0  0999 V2000
   -0.5661    5.6456    0.0000 C   0  0  0  0  0  0  0  0  0  0  0  0
    0.1482    6.0581    0.0000 C   0  0  0  0  0  0  0  0  0  0  0  0
    4.4354    6.0581    0.0000 C   0  0  0  0  0  0  0  0  0  0  0  0
    3.7208    5.6456    0.0000 C   0  0  0  0  0  0  0  0  0  0  0  0
    6.0431    4.6535    0.0000 C   0  0  0  0  0  0  0  0  0  0  0  0
    2.2917    5.6456    0.0000 C   0  0  0  0  0  0  0  0  0  0  0  0
    6.4556    5.3679    0.0000 C   0  0  0  0  0  0  0  0  0  0  0  0
    5.1498    5.6456    0.0000 C   0  0  0  0  0  0  0  0  0  0  0  0
    1.5773    6.0581    0.0000 C   0  0  0  0  0  0  0  0  0  0  0  0
    7.2762    5.4542    0.0000 C   0  0  0  0  0  0  0  0  0  0  0  0
    5.9036    5.9811    0.0000 N   0  0  0  0  0  0  0  0  0  0  0  0
    1.5773    6.8831    0.0000 O   0  0  0  0  0  0  0  0  0  0  0  0
    7.6118    6.2079    0.0000 O   0  0  0  0  0  0  0  0  0  0  0  0
    7.7611    4.7867    0.0000 O   0  0  0  0  0  0  0  0  0  0  0  0
    0.8628    5.6456    0.0000 O   0  0  0  0  0  0  0  0  0  0  0  0
    3.0063    6.0581    0.0000 S   0  0  0  0  0  0  0  0  0  0  0  0
    5.2361    4.8250    0.0000 S   0  0  0  0  0  0  0  0  0  0  0  0
  2  1  1  0
  4  3  1  0
  7  5  1  0
  8  3  1  0
  9  6  1  0
 10  7  1  0
 11  7  1  0
 11  8  1  0
 12  9  2  0
 13 10  2  0
 14 10  1  0
 15  2  1  0
 15  9  1  0
 16  4  1  0
 16  6  1  0
 17  5  1  0
 17  8  1  0
M  END
>  <DRUGBANK_ID>  (1) 
DB08939

>  <COMMON_NAME>  (1) 
Letosteine

>  <CAS_NUMBER>  (1) 
53943-88-7

>  <UNII>  (1) 
6MVF9U95DW

>  <SYNONYMS>  (1) 
letosteina; Letosteine

$$$$
