
     RDKit          2D

 29 33  0  0  0  0  0  0  0  0999 V2000
    3.7121   -3.0679    0.0000 C   0  0  0  0  0  0  0  0  0  0  0  0
    4.1021   -2.3409    0.0000 C   0  0  0  0  0  0  0  0  0  0  0  0
    4.9267   -2.3152    0.0000 C   0  0  0  0  0  0  0  0  0  0  0  0
    5.3167   -1.5882    0.0000 C   0  0  0  0  0  0  0  0  0  0  0  0
    4.8821   -0.8869    0.0000 C   0  0  0  0  0  0  0  0  0  0  0  0
    4.0575   -0.9127    0.0000 C   0  0  0  0  0  0  0  0  0  0  0  0
    3.6675   -1.6397    0.0000 C   0  0  0  0  0  0  0  0  0  0  0  0
    2.8429   -1.6655    0.0000 C   0  0  0  0  0  0  0  0  0  0  0  0
    2.4083   -0.9642    0.0000 N   0  0  0  0  0  0  0  0  0  0  0  0
    2.7983   -0.2372    0.0000 C   0  0  0  0  0  0  0  0  0  0  0  0
    3.5995   -0.0406    0.0000 N   0  0  0  0  0  0  0  0  0  0  0  0
    3.6601    0.7822    0.0000 C   0  0  0  0  0  0  0  0  0  0  0  0
    2.8963    1.0941    0.0000 C   0  0  0  0  0  0  0  0  0  0  0  0
    2.3637    0.4640    0.0000 N   0  0  0  0  0  0  0  0  0  0  0  0
    1.5391    0.4383    0.0000 C   0  0  0  0  0  0  0  0  0  0  0  0
    1.1491   -0.2887    0.0000 C   0  0  0  0  0  0  0  0  0  0  0  0
    0.3245   -0.3145    0.0000 C   0  0  0  0  0  0  0  0  0  0  0  0
   -0.1101    0.3867    0.0000 N   0  0  0  0  0  0  0  0  0  0  0  0
   -0.9347    0.3610    0.0000 C   0  0  0  0  0  0  0  0  0  0  0  0
   -1.3693    1.0622    0.0000 C   0  0  0  0  0  0  0  0  0  0  0  0
   -2.1939    1.0365    0.0000 C   0  0  0  0  0  0  0  0  0  0  0  0
   -2.6285    1.7377    0.0000 C   0  0  0  0  0  0  0  0  0  0  0  0
   -2.2386    2.4647    0.0000 C   0  0  0  0  0  0  0  0  0  0  0  0
   -1.4140    2.4905    0.0000 C   0  0  0  0  0  0  0  0  0  0  0  0
   -0.9793    1.7892    0.0000 C   0  0  0  0  0  0  0  0  0  0  0  0
    0.2799    1.1137    0.0000 C   0  0  0  0  0  0  0  0  0  0  0  0
    1.1045    1.1395    0.0000 C   0  0  0  0  0  0  0  0  0  0  0  0
    1.5837   -0.9900    0.0000 C   0  0  0  0  0  0  0  0  0  0  0  0
    1.1937   -1.7170    0.0000 O   0  0  0  0  0  0  0  0  0  0  0  0
  1  2  1  0
  2  3  2  0
  2  7  1  0
  3  4  1  0
  4  5  2  0
  5  6  1  0
  6  7  2  0
  7  8  1  0
  8  9  1  0
  9 10  1  0
  9 28  1  0
 10 11  2  0
 10 14  1  0
 11 12  1  0
 12 13  1  0
 13 14  1  0
 14 15  1  0
 15 16  2  0
 15 27  1  0
 16 17  1  0
 16 28  1  0
 17 18  1  0
 18 19  1  0
 18 26  1  0
 19 20  1  0
 20 21  2  0
 20 25  1  0
 21 22  1  0
 22 23  2  0
 23 24  1  0
 24 25  2  0
 26 27  1  0
 28 29  2  0
M  END
>  <DRUGBANK_ID>  (1) 
DB14844

>  <COMMON_NAME>  (1) 
Dordaviprone

>  <CAS_NUMBER>  (1) 
1616632-77-9

>  <UNII>  (1) 
9U35A31JAI

>  <SYNONYMS>  (1) 
2,4,6,7,8,9-Hexahydro-4-((2-methylphenyl)methyl)-7-phenylmethyl)imidazo)(1,2-a)pyrido(3,4-e)pyrimidin-5(1H)-one; 7-benzyl-4-(2-methylbenzyl)-1,2,6,7,8,9-hexahydroimidazo(1,2-A)pyrido(3,4-E)pyrimidin-5(4H)-one

$$$$
