OES
     RDKit          2D

 13 12  0  0  0  0  0  0  0  0999 V2000
   -3.5725   -0.1879    0.0000 C   0  0  0  0  0  0  0  0  0  0  0  0
   -2.8580    0.2246    0.0000 C   0  0  0  0  0  0  0  0  0  0  0  0
   -2.1436   -0.1879    0.0000 C   0  0  0  0  0  0  0  0  0  0  0  0
   -1.4291    0.2246    0.0000 C   0  0  0  0  0  0  0  0  0  0  0  0
   -0.7146   -0.1879    0.0000 C   0  0  0  0  0  0  0  0  0  0  0  0
   -0.0001    0.2246    0.0000 C   0  0  0  0  0  0  0  0  0  0  0  0
    0.7143   -0.1879    0.0000 C   0  0  0  0  0  0  0  0  0  0  0  0
    1.4288    0.2246    0.0000 C   0  0  0  0  0  0  0  0  0  0  0  0
    2.1433   -0.1879    0.0000 S   0  0  0  0  0  0  0  0  0  0  0  0
    2.8577    0.2246    0.0000 C   0  0  0  0  0  0  0  0  0  0  0  0
    3.5722   -0.1879    0.0000 C   0  0  0  0  0  0  0  0  0  0  0  0
    2.1433   -1.0129    0.0000 O   0  0  0  0  0  0  0  0  0  0  0  0
    4.2867    0.2246    0.0000 O   0  0  0  0  0  0  0  0  0  0  0  0
  1  2  1  0
  2  3  1  0
  3  4  1  0
  4  5  1  0
  5  6  1  0
  6  7  1  0
  7  8  1  0
  8  9  1  0
  9 10  1  0
  9 12  2  0
 10 11  1  0
 11 13  1  0
M  END
>  <DRUGBANK_ID>  (1) 
DB02415

>  <SECONDARY_ACCESSION_NUMBERS>  (1) 
EXPT02420

>  <COMMON_NAME>  (1) 
N-Octyl-2-Hydroxyethyl Sulfoxide

$$$$
