SXO
     RDKit          2D

 31 30  0  0  0  0  0  0  0  0999 V2000
   -8.4788    0.4490    0.0000 O   0  0  0  0  0  0  0  0  0  0  0  0
   -7.7417    0.0783    0.0000 P   0  0  0  0  0  0  0  0  0  0  0  0
   -8.1124   -0.6587    0.0000 O   0  0  0  0  0  0  0  0  0  0  0  0
   -7.3711    0.8154    0.0000 O   0  0  0  0  0  0  0  0  0  0  0  0
   -7.0047   -0.2923    0.0000 O   0  0  0  0  0  0  0  0  0  0  0  0
   -6.3152    0.1607    0.0000 C   0  0  0  0  0  0  0  0  0  0  0  0
   -5.5781   -0.2099    0.0000 C   0  0  0  0  0  0  0  0  0  0  0  0
   -5.9487   -0.9470    0.0000 C   0  0  0  0  0  0  0  0  0  0  0  0
   -5.2075    0.5271    0.0000 C   0  0  0  0  0  0  0  0  0  0  0  0
   -4.8411   -0.5806    0.0000 C   0  0  0  0  0  0  0  0  0  0  0  0
   -4.7935   -1.4042    0.0000 O   0  0  0  0  0  0  0  0  0  0  0  0
   -4.1515   -0.1276    0.0000 C   0  0  0  0  0  0  0  0  0  0  0  0
   -4.1991    0.6960    0.0000 O   0  0  0  0  0  0  0  0  0  0  0  0
   -3.4145   -0.4982    0.0000 N   0  0  0  0  0  0  0  0  0  0  0  0
   -2.7250   -0.0452    0.0000 C   0  0  0  0  0  0  0  0  0  0  0  0
   -1.9879   -0.4159    0.0000 C   0  0  0  0  0  0  0  0  0  0  0  0
   -1.2984    0.0371    0.0000 C   0  0  0  0  0  0  0  0  0  0  0  0
   -1.3460    0.8608    0.0000 O   0  0  0  0  0  0  0  0  0  0  0  0
   -0.5614   -0.3335    0.0000 N   0  0  0  0  0  0  0  0  0  0  0  0
    0.1282    0.1195    0.0000 C   0  0  0  0  0  0  0  0  0  0  0  0
    0.8652   -0.2511    0.0000 C   0  0  0  0  0  0  0  0  0  0  0  0
    1.5547    0.2019    0.0000 S   0  0  0  0  0  0  0  0  0  0  0  0
    2.2918   -0.1688    0.0000 C   0  0  0  0  0  0  0  0  0  0  0  0
    2.3393   -0.9924    0.0000 O   0  0  0  0  0  0  0  0  0  0  0  0
    2.9813    0.2842    0.0000 C   0  0  0  0  0  0  0  0  0  0  0  0
    3.7183   -0.0864    0.0000 C   0  0  0  0  0  0  0  0  0  0  0  0
    4.4079    0.3666    0.0000 C   0  0  0  0  0  0  0  0  0  0  0  0
    5.1449   -0.0040    0.0000 C   0  0  0  0  0  0  0  0  0  0  0  0
    5.8344    0.4490    0.0000 C   0  0  0  0  0  0  0  0  0  0  0  0
    6.5715    0.0783    0.0000 C   0  0  0  0  0  0  0  0  0  0  0  0
    7.2610    0.5313    0.0000 C   0  0  0  0  0  0  0  0  0  0  0  0
  2  1  1  0
  2  5  1  0
  2  3  1  0
  4  2  2  0
  5  6  1  0
  6  7  1  0
  7 10  1  0
  7  8  1  0
  9  7  1  0
 10 12  1  0
 10 11  1  1
 12 14  1  0
 13 12  2  0
 14 15  1  0
 15 16  1  0
 17 16  1  0
 17 18  2  0
 19 17  1  0
 20 19  1  0
 21 20  1  0
 22 21  1  0
 23 22  1  0
 23 24  2  0
 25 23  1  0
 26 25  1  0
 26 27  1  0
 28 27  1  0
 28 29  1  0
 29 30  1  0
 31 30  1  0
M  END
>  <DRUGBANK_ID>  (1) 
DB08586

>  <COMMON_NAME>  (1) 
S-[2-({N-[(2S)-2-hydroxy-3,3-dimethyl-4-(phosphonooxy)butanoyl]-beta-alanyl}amino)ethyl] octanethioate

$$$$
