RB1
     RDKit          2D

 22 24  0  0  0  0  0  0  0  0999 V2000
   -0.9286    2.9064    0.0000 C   0  0  0  0  0  0  0  0  0  0  0  0
   -0.6737    2.1218    0.0000 C   0  0  0  0  0  0  0  0  0  0  0  0
   -1.4583    1.8668    0.0000 C   0  0  0  0  0  0  0  0  0  0  0  0
    0.1110    2.3767    0.0000 C   0  0  0  0  0  0  0  0  0  0  0  0
   -0.4187    1.3371    0.0000 N   0  0  0  0  0  0  0  0  0  0  0  0
   -0.9036    0.6697    0.0000 N   0  0  0  0  0  0  0  0  0  0  0  0
    0.3659    1.0822    0.0000 C   0  0  0  0  0  0  0  0  0  0  0  0
    1.0804    1.4947    0.0000 N   0  0  0  0  0  0  0  0  0  0  0  0
    1.7948    1.0822    0.0000 C   0  0  0  0  0  0  0  0  0  0  0  0
    1.7948    0.2572    0.0000 N   0  0  0  0  0  0  0  0  0  0  0  0
    1.0804   -0.1553    0.0000 C   0  0  0  0  0  0  0  0  0  0  0  0
    1.0804   -0.9803    0.0000 N   0  0  0  0  0  0  0  0  0  0  0  0
    0.3659    0.2572    0.0000 C   0  0  0  0  0  0  0  0  0  0  0  0
   -0.4187    0.0023    0.0000 C   0  0  0  0  0  0  0  0  0  0  0  0
   -0.6737   -0.7824    0.0000 C   0  0  0  0  0  0  0  0  0  0  0  0
   -0.1216   -1.3955    0.0000 C   0  0  0  0  0  0  0  0  0  0  0  0
    0.6853   -1.2239    0.0000 C   0  0  0  0  0  0  0  0  0  0  0  0
   -0.3766   -2.1801    0.0000 C   0  0  0  0  0  0  0  0  0  0  0  0
    0.1755   -2.7932    0.0000 C   0  0  0  0  0  0  0  0  0  0  0  0
    0.9824   -2.6217    0.0000 C   0  0  0  0  0  0  0  0  0  0  0  0
    1.2374   -1.8370    0.0000 C   0  0  0  0  0  0  0  0  0  0  0  0
    2.0444   -1.6655    0.0000 O   0  0  0  0  0  0  0  0  0  0  0  0
  1  2  1  0
  2  3  1  0
  2  4  1  0
  2  5  1  0
  5  6  1  0
  5  7  1  0
  6 14  2  0
  7  8  2  0
  7 13  1  0
  8  9  1  0
  9 10  2  0
 10 11  1  0
 11 12  1  0
 11 13  2  0
 13 14  1  0
 14 15  1  0
 15 16  1  0
 16 17  2  0
 16 18  1  0
 17 21  1  0
 18 19  2  0
 19 20  1  0
 20 21  2  0
 21 22  1  0
M  END
>  <DRUGBANK_ID>  (1) 
DB08461

>  <COMMON_NAME>  (1) 
3-[(4-AMINO-1-TERT-BUTYL-1H-PYRAZOLO[3,4-D]PYRIMIDIN-3-YL)METHYL]PHENOL

$$$$
