
     RDKit          2D

 16 15  0  0  1  0  0  0  0  0999 V2000
    4.9204   -1.5395    0.0000 C   0  0  0  0  0  0  0  0  0  0  0  0
    2.7770   -0.3020    0.0000 C   0  0  0  0  0  0  0  0  0  0  0  0
    4.9204   -0.7145    0.0000 C   0  0  0  0  0  0  0  0  0  0  0  0
    2.0625   -0.7145    0.0000 C   0  0  0  0  0  0  0  0  0  0  0  0
    3.4914   -0.7145    0.0000 C   0  0  0  0  0  0  0  0  0  0  0  0
    5.6349   -0.3020    0.0000 C   0  0  0  0  0  0  0  0  0  0  0  0
    1.3480   -0.3020    0.0000 C   0  0  0  0  0  0  0  0  0  0  0  0
    6.3493   -0.7145    0.0000 C   0  0  0  0  0  0  0  0  0  0  0  0
    2.0625   -1.5395    0.0000 N   0  0  0  0  0  0  0  0  0  0  0  0
    5.6349    0.5230    0.0000 N   0  0  0  0  0  0  0  0  0  0  0  0
    3.4914   -1.5395    0.0000 O   0  0  0  0  0  0  0  0  0  0  0  0
    0.6336   -0.7145    0.0000 O   0  0  0  0  0  0  0  0  0  0  0  0
    1.3480    0.5230    0.0000 O   0  0  0  0  0  0  0  0  0  0  0  0
    7.0638   -0.3020    0.0000 O   0  0  0  0  0  0  0  0  0  0  0  0
    6.3493   -1.5395    0.0000 O   0  0  0  0  0  0  0  0  0  0  0  0
    4.2059   -0.3020    0.0000 O   0  0  0  0  0  0  0  0  0  0  0  0
  3  1  1  1
  4  2  1  0
  4  9  1  6
  5  2  1  0
  5 11  1  1
  6  3  1  0
  6 10  1  6
  7  4  1  0
  8  6  1  0
 12  7  2  0
 13  7  1  0
 14  8  2  0
 15  8  1  0
 16  3  1  0
 16  5  1  0
M  END
>  <DRUGBANK_ID>  (1) 
DB01817

>  <SECONDARY_ACCESSION_NUMBERS>  (1) 
EXPT00445

>  <COMMON_NAME>  (1) 
Threonine-Aspartic Ester

$$$$
