
     RDKit          2D

 25 27  0  0  0  0  0  0  0  0999 V2000
    2.9883    2.1141    0.0000 C   0  0  0  0  0  0  0  0  0  0  0  0
    3.5404    1.5010    0.0000 N   0  0  0  0  0  0  0  0  0  0  0  0
    4.2078    1.0161    0.0000 C   0  0  0  0  0  0  0  0  0  0  0  0
    3.9529    0.2314    0.0000 C   0  0  0  0  0  0  0  0  0  0  0  0
    3.1279    0.2314    0.0000 C   0  0  0  0  0  0  0  0  0  0  0  0
    2.8729    1.0161    0.0000 C   0  0  0  0  0  0  0  0  0  0  0  0
    2.0883    1.2710    0.0000 C   0  0  0  0  0  0  0  0  0  0  0  0
    1.9168    2.0780    0.0000 O   0  0  0  0  0  0  0  0  0  0  0  0
    1.1322    2.3329    0.0000 C   0  0  0  0  0  0  0  0  0  0  0  0
    0.5191    1.7809    0.0000 O   0  0  0  0  0  0  0  0  0  0  0  0
    0.9606    3.1399    0.0000 C   0  0  0  0  0  0  0  0  0  0  0  0
    0.7891    3.9469    0.0000 C   0  0  0  0  0  0  0  0  0  0  0  0
    0.0045    4.2018    0.0000 C   0  0  0  0  0  0  0  0  0  0  0  0
   -0.1670    5.0088    0.0000 C   0  0  0  0  0  0  0  0  0  0  0  0
    0.4460    5.5608    0.0000 C   0  0  0  0  0  0  0  0  0  0  0  0
    1.2307    5.3059    0.0000 C   0  0  0  0  0  0  0  0  0  0  0  0
    1.4022    4.4989    0.0000 C   0  0  0  0  0  0  0  0  0  0  0  0
    1.7676    3.3114    0.0000 C   0  0  0  0  0  0  0  0  0  0  0  0
    2.0225    4.0960    0.0000 C   0  0  0  0  0  0  0  0  0  0  0  0
    2.8295    4.2676    0.0000 C   0  0  0  0  0  0  0  0  0  0  0  0
    3.3815    3.6545    0.0000 C   0  0  0  0  0  0  0  0  0  0  0  0
    3.1266    2.8699    0.0000 C   0  0  0  0  0  0  0  0  0  0  0  0
    2.3196    2.6983    0.0000 C   0  0  0  0  0  0  0  0  0  0  0  0
    0.1537    2.9684    0.0000 O   0  0  0  0  0  0  0  0  0  0  0  0
    4.0924    2.1141    0.0000 C   0  0  0  0  0  0  0  0  0  0  0  0
  1  2  1  0
  2  3  1  0
  2  6  1  0
  2 25  1  0
  3  4  1  0
  4  5  1  0
  5  6  1  0
  6  7  1  0
  7  8  1  0
  8  9  1  0
  9 10  2  0
  9 11  1  0
 11 12  1  0
 11 18  1  0
 11 24  1  0
 12 13  2  0
 12 17  1  0
 13 14  1  0
 14 15  2  0
 15 16  1  0
 16 17  2  0
 18 19  2  0
 18 23  1  0
 19 20  1  0
 20 21  2  0
 21 22  1  0
 22 23  2  0
M  CHG  1   2   1
M  END
>  <DRUGBANK_ID>  (1) 
DB13507

>  <COMMON_NAME>  (1) 
Poldine

>  <CAS_NUMBER>  (1) 
596-50-9

>  <UNII>  (1) 
8R92106W2F

$$$$
