AT5
     RDKit          2D

 23 23  0  0  0  0  0  0  0  0999 V2000
    0.0373   -1.5539    0.0000 O   0  0  0  0  0  0  0  0  0  0  0  0
    0.0373   -0.7289    0.0000 C   0  0  0  0  0  0  0  0  0  0  0  0
    0.7518   -0.3164    0.0000 C   0  0  0  0  0  0  0  0  0  0  0  0
    1.4663   -0.7289    0.0000 C   0  0  0  0  0  0  0  0  0  0  0  0
    2.1808   -0.3164    0.0000 C   0  0  0  0  0  0  0  0  0  0  0  0
    2.1808    0.5086    0.0000 C   0  0  0  0  0  0  0  0  0  0  0  0
    2.8952   -0.7289    0.0000 C   0  0  0  0  0  0  0  0  0  0  0  0
    2.8952   -1.5539    0.0000 Cl  0  0  0  0  0  0  0  0  0  0  0  0
    3.6097   -0.3164    0.0000 C   0  0  0  0  0  0  0  0  0  0  0  0
    4.3242   -0.7289    0.0000 Cl  0  0  0  0  0  0  0  0  0  0  0  0
    0.7518    0.5086    0.0000 C   0  0  0  0  0  0  0  0  0  0  0  0
   -0.6771   -0.3164    0.0000 C   0  0  0  0  0  0  0  0  0  0  0  0
   -1.3916   -0.7289    0.0000 C   0  0  0  0  0  0  0  0  0  0  0  0
   -2.1061   -0.3164    0.0000 N   0  0  0  0  0  0  0  0  0  0  0  0
   -2.1061    0.5086    0.0000 C   0  0  0  0  0  0  0  0  0  0  0  0
   -1.3916    0.9211    0.0000 C   0  0  0  0  0  0  0  0  0  0  0  0
   -0.6771    0.5086    0.0000 C   0  0  0  0  0  0  0  0  0  0  0  0
    0.0373    0.9211    0.0000 O   0  0  0  0  0  0  0  0  0  0  0  0
   -1.3916    1.7461    0.0000 O   0  0  0  0  0  0  0  0  0  0  0  0
   -0.6771    2.1586    0.0000 C   0  0  0  0  0  0  0  0  0  0  0  0
   -2.8205    0.9211    0.0000 O   0  0  0  0  0  0  0  0  0  0  0  0
   -3.5350    0.5086    0.0000 C   0  0  0  0  0  0  0  0  0  0  0  0
   -1.3916   -1.5539    0.0000 O   0  0  0  0  0  0  0  0  0  0  0  0
  1  2  2  0
  2  3  1  0
  2 12  1  0
  3  4  1  0
  3 11  1  1
  4  5  1  0
  5  6  1  6
  5  7  1  0
  7  8  1  0
  7  9  1  6
  9 10  1  0
 12 13  1  0
 12 17  2  0
 13 14  1  0
 13 23  2  0
 14 15  1  0
 15 16  2  0
 15 21  1  0
 16 17  1  0
 16 19  1  0
 17 18  1  0
 19 20  1  0
 21 22  1  0
M  END
>  <DRUGBANK_ID>  (1) 
DB04631

>  <COMMON_NAME>  (1) 
Atpenin A5

>  <CAS_NUMBER>  (1) 
119509-24-9

>  <SYNONYMS>  (1) 
3-[(2S,4S,5R)-5,6-dichloro-2,4-dimethyl-1-oxohexyl]-4-hydroxy-5,6-dimethoxy-2(1H)-pyridinone

$$$$
