
     RDKit          2D

 26 25  0  0  0  0  0  0  0  0999 V2000
   -0.4145    0.0073    0.0000 C   0  0  0  0  0  0  0  0  0  0  0  0
    0.4103    0.0073    0.0000 C   0  0  0  0  0  0  0  0  0  0  0  0
   -1.2394    0.0073    0.0000 C   0  0  0  0  0  0  0  0  0  0  0  0
   -0.4145    0.8322    0.0000 F   0  0  0  0  0  0  0  0  0  0  0  0
   -0.4145   -0.8322    0.0000 F   0  0  0  0  0  0  0  0  0  0  0  0
    1.2604    0.0073    0.0000 C   0  0  0  0  0  0  0  0  0  0  0  0
    0.4103    0.8322    0.0000 F   0  0  0  0  0  0  0  0  0  0  0  0
    0.4103   -0.8322    0.0000 F   0  0  0  0  0  0  0  0  0  0  0  0
   -2.0769    0.0073    0.0000 C   0  0  0  0  0  0  0  0  0  0  0  0
   -1.2394    0.8322    0.0000 F   0  0  0  0  0  0  0  0  0  0  0  0
   -1.2394   -0.8322    0.0000 F   0  0  0  0  0  0  0  0  0  0  0  0
    2.0770    0.0073    0.0000 C   0  0  0  0  0  0  0  0  0  0  0  0
    1.2604    0.8322    0.0000 F   0  0  0  0  0  0  0  0  0  0  0  0
    1.2604   -0.8322    0.0000 F   0  0  0  0  0  0  0  0  0  0  0  0
   -2.9019    0.0073    0.0000 C   0  0  0  0  0  0  0  0  0  0  0  0
   -2.0769    0.8322    0.0000 F   0  0  0  0  0  0  0  0  0  0  0  0
   -2.0769   -0.8322    0.0000 F   0  0  0  0  0  0  0  0  0  0  0  0
    2.9208    0.0073    0.0000 C   0  0  0  0  0  0  0  0  0  0  0  0
    2.0770    0.8322    0.0000 F   0  0  0  0  0  0  0  0  0  0  0  0
    2.0770   -0.8322    0.0000 F   0  0  0  0  0  0  0  0  0  0  0  0
   -2.9019    0.8322    0.0000 F   0  0  0  0  0  0  0  0  0  0  0  0
   -3.7457    0.0073    0.0000 F   0  0  0  0  0  0  0  0  0  0  0  0
   -2.9019   -0.8322    0.0000 F   0  0  0  0  0  0  0  0  0  0  0  0
    2.9208    0.8322    0.0000 F   0  0  0  0  0  0  0  0  0  0  0  0
    3.7457    0.0073    0.0000 F   0  0  0  0  0  0  0  0  0  0  0  0
    2.9208   -0.8322    0.0000 F   0  0  0  0  0  0  0  0  0  0  0  0
  1  2  1  0
  1  3  1  0
  1  4  1  0
  1  5  1  0
  2  6  1  0
  2  7  1  0
  2  8  1  0
  3  9  1  0
  3 10  1  0
  3 11  1  0
  6 12  1  0
  6 13  1  0
  6 14  1  0
  9 15  1  0
  9 16  1  0
  9 17  1  0
 12 18  1  0
 12 19  1  0
 12 20  1  0
 15 21  1  0
 15 22  1  0
 15 23  1  0
 18 24  1  0
 18 25  1  0
 18 26  1  0
M  END
>  <DRUGBANK_ID>  (1) 
DB15997

>  <COMMON_NAME>  (1) 
Perfluorooctane

>  <CAS_NUMBER>  (1) 
307-34-6

>  <UNII>  (1) 
6P60ZBK0QL

>  <SYNONYMS>  (1) 
n-Perfluorooctane; Octadecafluorooctane

$$$$
