
     RDKit          2D

 21 24  0  0  0  0  0  0  0  0999 V2000
    1.5030    0.6785    0.0000 C   0  0  0  0  0  0  0  0  0  0  0  0
    1.5030   -0.1301    0.0000 C   0  0  0  0  0  0  0  0  0  0  0  0
    0.0720   -0.1301    0.0000 C   0  0  0  0  0  0  0  0  0  0  0  0
    0.8031   -0.5269    0.0000 C   0  0  0  0  0  0  0  0  0  0  0  0
   -0.6434   -0.5269    0.0000 C   0  0  0  0  0  0  0  0  0  0  0  0
    2.2888    0.9353    0.0000 C   0  0  0  0  0  0  0  0  0  0  0  0
    0.8031    1.0987    0.0000 C   0  0  0  0  0  0  0  0  0  0  0  0
    0.0720    0.6785    0.0000 C   0  0  0  0  0  0  0  0  0  0  0  0
    2.2888   -0.3867    0.0000 C   0  0  0  0  0  0  0  0  0  0  0  0
    2.7554    0.2663    0.0000 C   0  0  0  0  0  0  0  0  0  0  0  0
    0.8031   -1.3591    0.0000 C   0  0  0  0  0  0  0  0  0  0  0  0
   -0.6434   -1.3591    0.0000 C   0  0  0  0  0  0  0  0  0  0  0  0
    0.0720   -1.7711    0.0000 C   0  0  0  0  0  0  0  0  0  0  0  0
   -0.6434    0.2820    0.0000 C   0  0  0  0  0  0  0  0  0  0  0  0
   -1.3513   -0.1301    0.0000 C   0  0  0  0  0  0  0  0  0  0  0  0
   -1.3513   -1.7711    0.0000 C   0  0  0  0  0  0  0  0  0  0  0  0
   -2.0747   -0.5269    0.0000 C   0  0  0  0  0  0  0  0  0  0  0  0
   -2.0747   -1.3591    0.0000 C   0  0  0  0  0  0  0  0  0  0  0  0
   -2.7554   -1.7409    0.0000 O   0  0  0  0  0  0  0  0  0  0  0  0
    2.5481    1.7711    0.0000 O   0  0  0  0  0  0  0  0  0  0  0  0
    1.5030    1.4725    0.0000 C   0  0  0  0  0  0  0  0  0  0  0  0
  1 21  1  1
  2  1  1  0
  4  2  1  0
  4  3  1  0
  5  3  1  0
  5 14  1  1
  6  1  1  0
  7  1  1  0
  3  8  1  1
  8  7  1  0
  2  9  1  1
 10  6  1  0
 10  9  1  0
  4 11  1  6
 12  5  1  0
 13 11  1  0
 13 12  1  0
 15  5  1  0
 16 12  2  0
 17 15  2  0
 18 16  1  0
 18 17  1  0
 19 18  2  0
 20  6  2  0
M  END
>  <DRUGBANK_ID>  (1) 
DB07373

>  <COMMON_NAME>  (1) 
Boldione

>  <CAS_NUMBER>  (1) 
897-06-3

>  <UNII>  (1) 
2166Q8568W

>  <SYNONYMS>  (1) 
1-Dehydroandrostenedione; 1,4-Androstadiene-3,17-dione; Androsta-1,4-diene-3,17-dione; Androstadienedione

$$$$
