MR5
     RDKit          2D

 18 20  0  0  0  0  0  0  0  0999 V2000
   -0.1916   -0.7392    0.0000 C   0  0  0  0  0  0  0  0  0  0  0  0
   -1.0166   -0.7392    0.0000 C   0  0  0  0  0  0  0  0  0  0  0  0
   -1.4291   -1.4536    0.0000 Br  0  0  0  0  0  0  0  0  0  0  0  0
   -1.4291   -0.0247    0.0000 C   0  0  0  0  0  0  0  0  0  0  0  0
   -2.2541   -0.0247    0.0000 O   0  0  0  0  0  0  0  0  0  0  0  0
   -1.0166    0.6898    0.0000 C   0  0  0  0  0  0  0  0  0  0  0  0
   -1.4291    1.4042    0.0000 Br  0  0  0  0  0  0  0  0  0  0  0  0
   -0.1916    0.6898    0.0000 C   0  0  0  0  0  0  0  0  0  0  0  0
    0.2209   -0.0247    0.0000 C   0  0  0  0  0  0  0  0  0  0  0  0
    1.0459   -0.0247    0.0000 C   0  0  0  0  0  0  0  0  0  0  0  0
    1.5308   -0.6921    0.0000 O   0  0  0  0  0  0  0  0  0  0  0  0
    2.3155   -0.4372    0.0000 C   0  0  0  0  0  0  0  0  0  0  0  0
    3.0299   -0.8497    0.0000 C   0  0  0  0  0  0  0  0  0  0  0  0
    3.7444   -0.4372    0.0000 C   0  0  0  0  0  0  0  0  0  0  0  0
    3.7444    0.3878    0.0000 C   0  0  0  0  0  0  0  0  0  0  0  0
    3.0299    0.8003    0.0000 C   0  0  0  0  0  0  0  0  0  0  0  0
    2.3155    0.3878    0.0000 C   0  0  0  0  0  0  0  0  0  0  0  0
    1.5308    0.6427    0.0000 N   0  0  0  0  0  0  0  0  0  0  0  0
  1  2  2  0
  1  9  1  0
  2  3  1  0
  2  4  1  0
  4  5  1  0
  4  6  2  0
  6  7  1  0
  6  8  1  0
  8  9  2  0
  9 10  1  0
 10 11  1  0
 10 18  2  0
 11 12  1  0
 12 17  2  0
 12 13  1  0
 13 14  2  0
 14 15  1  0
 15 16  2  0
 16 17  1  0
 17 18  1  0
M  END
>  <DRUGBANK_ID>  (1) 
DB08206

>  <COMMON_NAME>  (1) 
4-(1,3-BENZOXAZOL-2-YL)-2,6-DIBROMOPHENOL

$$$$
