C94
     RDKit          2D

 27 29  0  0  0  0  0  0  0  0999 V2000
   -0.7180    3.4153    0.0000 O   0  0  0  0  0  0  0  0  0  0  0  0
   -0.7180    2.5903    0.0000 S   0  0  0  0  0  0  0  0  0  0  0  0
   -1.5430    2.5903    0.0000 O   0  0  0  0  0  0  0  0  0  0  0  0
    0.1070    2.5903    0.0000 N   0  0  0  0  0  0  0  0  0  0  0  0
   -0.7180    1.7653    0.0000 C   0  0  0  0  0  0  0  0  0  0  0  0
   -0.0035    1.3528    0.0000 C   0  0  0  0  0  0  0  0  0  0  0  0
    0.7110    1.7653    0.0000 C   0  0  0  0  0  0  0  0  0  0  0  0
    1.4254    2.1778    0.0000 F   0  0  0  0  0  0  0  0  0  0  0  0
    1.1235    1.0508    0.0000 F   0  0  0  0  0  0  0  0  0  0  0  0
    0.5395    2.5723    0.0000 F   0  0  0  0  0  0  0  0  0  0  0  0
   -0.0035    0.5278    0.0000 C   0  0  0  0  0  0  0  0  0  0  0  0
   -0.7180    0.1153    0.0000 C   0  0  0  0  0  0  0  0  0  0  0  0
   -1.4324    0.5278    0.0000 C   0  0  0  0  0  0  0  0  0  0  0  0
   -1.4324    1.3528    0.0000 C   0  0  0  0  0  0  0  0  0  0  0  0
   -0.7180   -0.7097    0.0000 C   0  0  0  0  0  0  0  0  0  0  0  0
   -0.0505   -1.1946    0.0000 O   0  0  0  0  0  0  0  0  0  0  0  0
   -1.3854   -1.1946    0.0000 C   0  0  0  0  0  0  0  0  0  0  0  0
   -1.1305   -1.9793    0.0000 C   0  0  0  0  0  0  0  0  0  0  0  0
   -0.3055   -1.9793    0.0000 C   0  0  0  0  0  0  0  0  0  0  0  0
    0.1795   -2.6467    0.0000 C   0  0  0  0  0  0  0  0  0  0  0  0
    0.9999   -2.5605    0.0000 C   0  0  0  0  0  0  0  0  0  0  0  0
    1.4124   -1.8460    0.0000 S   0  0  0  0  0  0  0  0  0  0  0  0
    2.2194   -2.0175    0.0000 C   0  0  0  0  0  0  0  0  0  0  0  0
    2.8325   -1.4655    0.0000 N   0  0  0  0  0  0  0  0  0  0  0  0
    2.3056   -2.8380    0.0000 N   0  0  0  0  0  0  0  0  0  0  0  0
    1.5520   -3.1736    0.0000 C   0  0  0  0  0  0  0  0  0  0  0  0
    1.3804   -3.9805    0.0000 O   0  0  0  0  0  0  0  0  0  0  0  0
  1  2  2  0
  2  3  2  0
  2  4  1  0
  2  5  1  0
  5  6  2  0
  5 14  1  0
  6  7  1  0
  6 11  1  0
  7  8  1  0
  7  9  1  0
  7 10  1  0
 11 12  2  0
 12 13  1  0
 12 15  1  0
 13 14  2  0
 15 16  1  0
 15 17  2  0
 16 19  1  0
 17 18  1  0
 18 19  2  0
 19 20  1  0
 20 21  2  0
 21 22  1  0
 21 26  1  0
 22 23  1  0
 23 24  2  0
 23 25  1  0
 25 26  1  0
 26 27  2  0
M  END
>  <DRUGBANK_ID>  (1) 
DB07538

>  <COMMON_NAME>  (1) 
4-{5-[(Z)-(2-IMINO-4-OXO-1,3-THIAZOLIDIN-5-YLIDENE)METHYL]FURAN-2-YL}-2-(TRIFLUOROMETHYL)BENZENESULFONAMIDE

$$$$
