1101
     RDKit          2D

 25 26  0  0  1  0  0  0  0  0999 V2000
    5.9370   -0.0354    0.0000 F   0  0  0  0  0  0  0  0  0  0  0  0
    5.1754   -2.9954    0.0000 O   0  0  0  0  0  0  0  0  0  0  0  0
    3.0559   -2.7404    0.0000 O   0  0  0  0  0  0  0  0  0  0  0  0
    3.6105   -4.4474    0.0000 O   0  0  0  0  0  0  0  0  0  0  0  0
    3.0791   -1.6854    0.0000 O   0  0  0  0  0  0  0  0  0  0  0  0
    3.7935    2.0272    0.0000 O   0  0  0  0  0  0  0  0  0  0  0  0
    3.0791    0.7896    0.0000 O   0  0  0  0  0  0  0  0  0  0  0  0
    4.5080   -1.6854    0.0000 N   0  0  0  0  0  0  0  0  0  0  0  0
    3.7935   -0.4479    0.0000 N   0  0  0  0  0  0  0  0  0  0  0  0
    4.5080    0.7896    0.0000 N   0  0  0  0  0  0  0  0  0  0  0  0
    3.8405   -2.9954    0.0000 C   0  0  0  0  0  0  0  0  0  0  0  0
    4.0955   -3.7800    0.0000 C   0  0  0  0  0  0  0  0  0  0  0  0
    4.5080   -2.5104    0.0000 C   0  0  0  0  0  0  0  0  0  0  0  0
    4.9205   -3.7800    0.0000 C   0  0  0  0  0  0  0  0  0  0  0  0
    5.4054   -4.4474    0.0000 C   0  0  0  0  0  0  0  0  0  0  0  0
    5.2224   -1.2729    0.0000 C   0  0  0  0  0  0  0  0  0  0  0  0
    3.7935   -1.2729    0.0000 C   0  0  0  0  0  0  0  0  0  0  0  0
    5.2224   -0.4479    0.0000 C   0  0  0  0  0  0  0  0  0  0  0  0
    4.5080   -0.0354    0.0000 C   0  0  0  0  0  0  0  0  0  0  0  0
    2.3645    3.6772    0.0000 C   0  0  0  0  0  0  0  0  0  0  0  0
    3.0791    3.2647    0.0000 C   0  0  0  0  0  0  0  0  0  0  0  0
    2.3645    4.5022    0.0000 C   0  0  0  0  0  0  0  0  0  0  0  0
    3.0791    2.4397    0.0000 C   0  0  0  0  0  0  0  0  0  0  0  0
    3.7935    1.2021    0.0000 C   0  0  0  0  0  0  0  0  0  0  0  0
    1.6500    4.9147    0.0000 C   0  0  0  0  0  0  0  0  0  0  0  0
  1 18  1  0
  2 13  1  0
  2 14  1  0
  5 17  2  0
  6 23  1  0
  6 24  1  0
  7 24  2  0
  8 16  1  0
  8 17  1  0
  9 17  1  0
  9 19  2  0
 10 19  1  0
 10 24  1  0
 11  3  1  1
 11 12  1  0
 11 13  1  0
 12  4  1  1
 12 14  1  0
 13  8  1  6
 14 15  1  6
 16 18  2  0
 18 19  1  0
 20 21  1  0
 20 22  1  0
 21 23  1  0
 22 25  1  0
M  END
>  <DRUGBANK_ID>  (1) 
DB01101

>  <SECONDARY_ACCESSION_NUMBERS>  (1) 
APRD00203

>  <COMMON_NAME>  (1) 
Capecitabine

>  <CAS_NUMBER>  (1) 
154361-50-9

>  <UNII>  (1) 
6804DJ8Z9U

>  <SYNONYMS>  (1) 
(1-(5-Deoxy-beta-D-ribofuranosyl)-5-fluoro-1,2-dihydro-2-oxo-4-pyrimidinyl)-carbamic acid pentyl ester; Capecitabin; Capecitabina; Capecitabine; Capécitabine; Capecitabinum; Pentyl [1-(5-deoxy-β-D-ribofuranosyl)-5-fluoro-2-oxo-1,2-dihydropyrimidin-4-yl]carbamate; pentyl 1-(5-deoxy-β-D-ribofuranosyl)-5-fluoro-1,2-dihydro-2-oxo-4-pyrimidinecarbamate

$$$$
