GPP
     RDKit          2D

 19 18  0  0  0  0  0  0  0  0999 V2000
    0.1594   -1.6260    0.0000 C   0  0  0  0  0  0  0  0  0  0  0  0
    0.8739   -1.2135    0.0000 O   0  0  0  0  0  0  0  0  0  0  0  0
   -0.5551   -1.2135    0.0000 C   0  0  0  0  0  0  0  0  0  0  0  0
   -0.5551   -0.3885    0.0000 C   0  0  0  0  0  0  0  0  0  0  0  0
    0.1594    0.0240    0.0000 C   0  0  0  0  0  0  0  0  0  0  0  0
   -1.2696    0.0240    0.0000 C   0  0  0  0  0  0  0  0  0  0  0  0
   -1.2696    0.8490    0.0000 C   0  0  0  0  0  0  0  0  0  0  0  0
   -1.9840    1.2615    0.0000 C   0  0  0  0  0  0  0  0  0  0  0  0
   -1.9840    2.0865    0.0000 C   0  0  0  0  0  0  0  0  0  0  0  0
   -2.6985    2.4990    0.0000 C   0  0  0  0  0  0  0  0  0  0  0  0
   -1.2696    2.4990    0.0000 C   0  0  0  0  0  0  0  0  0  0  0  0
    1.5883   -1.6260    0.0000 P   0  0  0  0  0  0  0  0  0  0  0  0
    1.1758   -2.3405    0.0000 O   0  0  0  0  0  0  0  0  0  0  0  0
    2.0008   -0.9115    0.0000 O   0  0  0  0  0  0  0  0  0  0  0  0
    2.3028   -2.0385    0.0000 O   0  0  0  0  0  0  0  0  0  0  0  0
    3.0173   -1.6260    0.0000 P   0  0  0  0  0  0  0  0  0  0  0  0
    3.7317   -1.2135    0.0000 O   0  0  0  0  0  0  0  0  0  0  0  0
    3.4298   -2.3405    0.0000 O   0  0  0  0  0  0  0  0  0  0  0  0
    2.6048   -0.9115    0.0000 O   0  0  0  0  0  0  0  0  0  0  0  0
  1  2  1  0
  1  3  1  0
  3  4  2  0
  4  5  1  0
  4  6  1  0
  6  7  1  0
  7  8  1  0
  8  9  2  3
  9 10  1  0
  9 11  1  0
 12  2  1  0
 12 13  2  0
 12 14  1  0
 12 15  1  0
 15 16  1  0
 16 17  2  0
 16 18  1  0
 16 19  1  0
M  END
>  <DRUGBANK_ID>  (1) 
DB02552

>  <SECONDARY_ACCESSION_NUMBERS>  (1) 
EXPT01640

>  <COMMON_NAME>  (1) 
Geranyl Diphosphate

>  <UNII>  (1) 
7X7DBM66JG

$$$$
