INQ
     RDKit          2D

 29 32  0  0  0  0  0  0  0  0999 V2000
   -3.6807    0.5107    0.0000 S   0  0  0  0  0  0  0  0  0  0  0  0
   -4.5057    0.5107    0.0000 O   0  0  0  0  0  0  0  0  0  0  0  0
   -3.6807   -0.3143    0.0000 N   0  0  0  0  0  0  0  0  0  0  0  0
   -2.8557    0.5107    0.0000 C   0  0  0  0  0  0  0  0  0  0  0  0
   -2.3708   -0.1568    0.0000 C   0  0  0  0  0  0  0  0  0  0  0  0
   -1.5862    0.0982    0.0000 C   0  0  0  0  0  0  0  0  0  0  0  0
   -1.5862    0.9232    0.0000 C   0  0  0  0  0  0  0  0  0  0  0  0
   -2.3708    1.1781    0.0000 S   0  0  0  0  0  0  0  0  0  0  0  0
   -0.8717   -0.3143    0.0000 C   0  0  0  0  0  0  0  0  0  0  0  0
   -0.1572    0.0982    0.0000 C   0  0  0  0  0  0  0  0  0  0  0  0
   -0.1572    0.9232    0.0000 N   0  0  0  0  0  0  0  0  0  0  0  0
   -0.8717    1.3357    0.0000 S   0  0  0  0  0  0  0  0  0  0  0  0
   -1.2590    2.0641    0.0000 O   0  0  0  0  0  0  0  0  0  0  0  0
   -0.4844    2.0641    0.0000 O   0  0  0  0  0  0  0  0  0  0  0  0
    0.5572   -0.3143    0.0000 C   0  0  0  0  0  0  0  0  0  0  0  0
    1.2717   -1.5518    0.0000 C   0  0  0  0  0  0  0  0  0  0  0  0
    1.2717   -2.3768    0.0000 C   0  0  0  0  0  0  0  0  0  0  0  0
    0.5572   -2.7893    0.0000 O   0  0  0  0  0  0  0  0  0  0  0  0
   -0.1572   -2.3768    0.0000 C   0  0  0  0  0  0  0  0  0  0  0  0
   -0.1572   -1.5518    0.0000 C   0  0  0  0  0  0  0  0  0  0  0  0
    0.5572   -1.1393    0.0000 N   0  0  0  0  0  0  0  0  0  0  0  0
    1.2717    0.9232    0.0000 C   0  0  0  0  0  0  0  0  0  0  0  0
    0.5572    1.3357    0.0000 C   0  0  0  0  0  0  0  0  0  0  0  0
    0.5572    2.1607    0.0000 C   0  0  0  0  0  0  0  0  0  0  0  0
    1.2717    2.5732    0.0000 C   0  0  0  0  0  0  0  0  0  0  0  0
    1.9862    2.1607    0.0000 C   0  0  0  0  0  0  0  0  0  0  0  0
    1.9862    1.3357    0.0000 C   0  0  0  0  0  0  0  0  0  0  0  0
    2.7006    0.9232    0.0000 O   0  0  0  0  0  0  0  0  0  0  0  0
   -3.6807    1.3357    0.0000 O   0  0  0  0  0  0  0  0  0  0  0  0
  1  2  2  0
  1  3  1  0
  1  4  1  0
  1 29  2  0
  4  5  2  0
  4  8  1  0
  5  6  1  0
  6  7  2  0
  6  9  1  0
  7  8  1  0
  7 12  1  0
  9 10  2  0
 10 11  1  0
 10 15  1  0
 11 12  1  0
 11 23  1  0
 12 13  2  0
 12 14  2  0
 15 21  1  0
 16 17  1  0
 16 21  1  0
 17 18  1  0
 18 19  1  0
 19 20  1  0
 20 21  1  0
 22 23  2  0
 22 27  1  0
 23 24  1  0
 24 25  2  0
 25 26  1  0
 26 27  2  0
 27 28  1  0
M  END
>  <DRUGBANK_ID>  (1) 
DB03262

>  <SECONDARY_ACCESSION_NUMBERS>  (1) 
EXPT01890

>  <COMMON_NAME>  (1) 
Al-6619, [2h-Thieno[3,2-E]-1,2-Thiazine-6-Sulfonamide,2-(3-Hydroxyphenyl)-3-(4-Morpholinyl)-, 1,1-Dioxide]

$$$$
