ST8
     RDKit          2D

 27 29  0  0  0  0  0  0  0  0999 V2000
    0.4866    0.8710    0.0000 C   0  0  0  0  0  0  0  0  0  0  0  0
   -0.9424   -1.6040    0.0000 C   0  0  0  0  0  0  0  0  0  0  0  0
   -0.9424   -2.4290    0.0000 C   0  0  0  0  0  0  0  0  0  0  0  0
   -0.2279   -2.8415    0.0000 C   0  0  0  0  0  0  0  0  0  0  0  0
   -0.2279   -3.6665    0.0000 C   0  0  0  0  0  0  0  0  0  0  0  0
   -0.9424   -4.0790    0.0000 C   0  0  0  0  0  0  0  0  0  0  0  0
   -1.6568   -3.6665    0.0000 C   0  0  0  0  0  0  0  0  0  0  0  0
   -1.6568   -2.8415    0.0000 C   0  0  0  0  0  0  0  0  0  0  0  0
    0.4866    3.3460    0.0000 C   0  0  0  0  0  0  0  0  0  0  0  0
    1.2010    3.7585    0.0000 C   0  0  0  0  0  0  0  0  0  0  0  0
    1.9155    3.3460    0.0000 C   0  0  0  0  0  0  0  0  0  0  0  0
    1.9155    2.5210    0.0000 C   0  0  0  0  0  0  0  0  0  0  0  0
    0.4866    4.9960    0.0000 N   0  0  0  0  0  0  0  0  0  0  0  0
    0.4866    0.0460    0.0000 N   0  0  0  0  0  0  0  0  0  0  0  0
   -0.2279   -0.3665    0.0000 C   0  0  0  0  0  0  0  0  0  0  0  0
   -0.2279   -1.1915    0.0000 O   0  0  0  0  0  0  0  0  0  0  0  0
   -0.9424    0.0460    0.0000 C   0  0  0  0  0  0  0  0  0  0  0  0
   -1.6568   -0.3665    0.0000 N   0  0  0  0  0  0  0  0  0  0  0  0
   -1.6568    1.2835    0.0000 N   0  0  0  0  0  0  0  0  0  0  0  0
   -0.9424    0.8710    0.0000 C   0  0  0  0  0  0  0  0  0  0  0  0
   -0.2279    1.2835    0.0000 N   0  0  0  0  0  0  0  0  0  0  0  0
    1.2010    1.2835    0.0000 N   0  0  0  0  0  0  0  0  0  0  0  0
    1.2010    2.1085    0.0000 C   0  0  0  0  0  0  0  0  0  0  0  0
    0.4866    2.5210    0.0000 C   0  0  0  0  0  0  0  0  0  0  0  0
    1.2010    4.5835    0.0000 C   0  0  0  0  0  0  0  0  0  0  0  0
   -2.3713    0.0460    0.0000 O   0  0  0  0  0  0  0  0  0  0  0  0
    1.9155    4.9960    0.0000 O   0  0  0  0  0  0  0  0  0  0  0  0
  1 14  2  0
  1 21  1  0
  1 22  1  0
  2  3  1  0
  2 16  1  0
  3  4  1  0
  3  8  1  0
  4  5  1  0
  5  6  1  0
  6  7  1  0
  7  8  1  0
  9 10  2  0
  9 24  1  0
 10 11  1  0
 10 25  1  0
 11 12  2  0
 12 23  1  0
 13 25  1  0
 14 15  1  0
 15 16  1  0
 15 17  2  0
 17 18  1  0
 17 20  1  0
 18 26  2  0
 19 20  1  0
 20 21  2  0
 22 23  1  0
 23 24  2  0
 25 27  2  0
M  END
>  <DRUGBANK_ID>  (1) 
DB08572

>  <COMMON_NAME>  (1) 
4-{[4-AMINO-6-(CYCLOHEXYLMETHOXY)-5-NITROSOPYRIMIDIN-2-YL]AMINO}BENZAMIDE

$$$$
