024
     RDKit          2D

 27 29  0  0  0  0  0  0  0  0999 V2000
    0.3053   -1.5870    0.0000 S   0  0  0  0  0  0  0  0  0  0  0  0
    0.0504   -2.3716    0.0000 C   0  0  0  0  0  0  0  0  0  0  0  0
   -0.7746   -2.3716    0.0000 C   0  0  0  0  0  0  0  0  0  0  0  0
   -1.0296   -1.5870    0.0000 C   0  0  0  0  0  0  0  0  0  0  0  0
   -0.3621   -1.1021    0.0000 C   0  0  0  0  0  0  0  0  0  0  0  0
    0.5353   -3.0390    0.0000 C   0  0  0  0  0  0  0  0  0  0  0  0
    0.1997   -3.7927    0.0000 O   0  0  0  0  0  0  0  0  0  0  0  0
    1.3558   -2.9528    0.0000 O   0  0  0  0  0  0  0  0  0  0  0  0
   -0.3621   -0.2771    0.0000 C   0  0  0  0  0  0  0  0  0  0  0  0
   -1.0766    0.1354    0.0000 C   0  0  0  0  0  0  0  0  0  0  0  0
   -1.0766    0.9604    0.0000 C   0  0  0  0  0  0  0  0  0  0  0  0
   -0.3621    1.3729    0.0000 C   0  0  0  0  0  0  0  0  0  0  0  0
    0.3523    0.9604    0.0000 C   0  0  0  0  0  0  0  0  0  0  0  0
    0.3523    0.1354    0.0000 C   0  0  0  0  0  0  0  0  0  0  0  0
   -1.8142   -1.3320    0.0000 Br  0  0  0  0  0  0  0  0  0  0  0  0
   -1.2596   -3.0390    0.0000 O   0  0  0  0  0  0  0  0  0  0  0  0
   -0.9240   -3.7927    0.0000 C   0  0  0  0  0  0  0  0  0  0  0  0
   -1.4089   -4.4602    0.0000 C   0  0  0  0  0  0  0  0  0  0  0  0
   -1.0734   -5.2138    0.0000 O   0  0  0  0  0  0  0  0  0  0  0  0
   -2.2294   -4.3739    0.0000 O   0  0  0  0  0  0  0  0  0  0  0  0
   -1.7911    1.3729    0.0000 N   0  0  0  0  0  0  0  0  0  0  0  0
   -1.7911    2.1979    0.0000 C   0  0  0  0  0  0  0  0  0  0  0  0
   -2.5055    2.6104    0.0000 C   0  0  0  0  0  0  0  0  0  0  0  0
   -2.5055    3.4354    0.0000 C   0  0  0  0  0  0  0  0  0  0  0  0
   -1.7911    3.8479    0.0000 C   0  0  0  0  0  0  0  0  0  0  0  0
   -1.0766    3.4354    0.0000 C   0  0  0  0  0  0  0  0  0  0  0  0
   -1.0766    2.6104    0.0000 C   0  0  0  0  0  0  0  0  0  0  0  0
  1  2  1  0
  1  5  1  0
  2  3  2  0
  2  6  1  0
  3  4  1  0
  3 16  1  0
  4  5  2  0
  4 15  1  0
  5  9  1  0
  6  7  2  0
  6  8  1  0
  9 10  2  0
  9 14  1  0
 10 11  1  0
 11 12  2  0
 11 21  1  0
 12 13  1  0
 13 14  2  0
 16 17  1  0
 17 18  1  0
 18 19  1  0
 18 20  2  0
 21 22  1  0
 22 23  1  0
 22 27  1  0
 23 24  1  0
 24 25  1  0
 25 26  1  0
 26 27  1  0
M  END
>  <DRUGBANK_ID>  (1) 
DB06829

>  <COMMON_NAME>  (1) 
4-BROMO-3-(CARBOXYMETHOXY)-5-[3-(CYCLOHEXYLAMINO)PHENYL]THIOPHENE-2-CARBOXYLIC ACID

$$$$
