CBT
     RDKit          2D

 22 24  0  0  0  0  0  0  0  0999 V2000
   -3.5963   -0.7564    0.0000 Cl  0  0  0  0  0  0  0  0  0  0  0  0
   -2.8818   -0.3439    0.0000 C   0  0  0  0  0  0  0  0  0  0  0  0
   -2.8818    0.4811    0.0000 C   0  0  0  0  0  0  0  0  0  0  0  0
   -2.1673    0.8936    0.0000 C   0  0  0  0  0  0  0  0  0  0  0  0
   -2.1673   -0.7564    0.0000 C   0  0  0  0  0  0  0  0  0  0  0  0
   -1.4528   -0.3439    0.0000 C   0  0  0  0  0  0  0  0  0  0  0  0
   -1.4528    0.4811    0.0000 C   0  0  0  0  0  0  0  0  0  0  0  0
   -0.7384    0.8936    0.0000 C   0  0  0  0  0  0  0  0  0  0  0  0
   -0.0239    0.4811    0.0000 N   0  0  0  0  0  0  0  0  0  0  0  0
   -0.0239   -0.3439    0.0000 C   0  0  0  0  0  0  0  0  0  0  0  0
    0.6435   -0.8288    0.0000 N   0  0  0  0  0  0  0  0  0  0  0  0
    0.3886   -1.6134    0.0000 N   0  0  0  0  0  0  0  0  0  0  0  0
   -0.4364   -1.6134    0.0000 N   0  0  0  0  0  0  0  0  0  0  0  0
   -0.6913   -0.8288    0.0000 N   0  0  0  0  0  0  0  0  0  0  0  0
    0.6906    0.8936    0.0000 C   0  0  0  0  0  0  0  0  0  0  0  0
    1.4050    0.4811    0.0000 C   0  0  0  0  0  0  0  0  0  0  0  0
    2.1195    0.8936    0.0000 C   0  0  0  0  0  0  0  0  0  0  0  0
    2.8340    0.4811    0.0000 C   0  0  0  0  0  0  0  0  0  0  0  0
    2.8340   -0.3439    0.0000 C   0  0  0  0  0  0  0  0  0  0  0  0
    3.5485   -0.7564    0.0000 Cl  0  0  0  0  0  0  0  0  0  0  0  0
    2.1195   -0.7564    0.0000 C   0  0  0  0  0  0  0  0  0  0  0  0
    1.4050   -0.3439    0.0000 C   0  0  0  0  0  0  0  0  0  0  0  0
  1  2  1  0
  2  3  2  0
  2  5  1  0
  3  4  1  0
  4  7  2  0
  5  6  2  0
  6  7  1  0
  7  8  1  0
  8  9  1  0
  9 10  1  0
  9 15  1  0
 10 11  2  0
 10 14  1  0
 11 12  1  0
 12 13  1  0
 13 14  2  0
 15 16  1  0
 16 17  2  0
 16 22  1  0
 17 18  1  0
 18 19  2  0
 19 20  1  0
 19 21  1  0
 21 22  2  0
M  END
>  <DRUGBANK_ID>  (1) 
DB04037

>  <SECONDARY_ACCESSION_NUMBERS>  (1) 
EXPT00852

>  <COMMON_NAME>  (1) 
N,N-Bis(4-Chlorobenzyl)-1h-1,2,3,4-Tetraazol-5-Amine

$$$$
