
     RDKit          2D

 11 11  0  0  1  0  0  0  0  0999 V2000
   -1.7861    1.3333    0.0000 C   0  0  0  0  0  0  0  0  0  0  0  0
   -1.0717    0.9207    0.0000 C   0  0  0  0  0  0  0  0  0  0  0  0
   -0.3572    1.3332    0.0000 O   0  0  0  0  0  0  0  0  0  0  0  0
    0.3572    0.9208    0.0000 C   0  0  0  0  0  0  0  0  0  0  0  0
    1.0717    1.3332    0.0000 O   0  0  0  0  0  0  0  0  0  0  0  0
    0.3572    0.0957    0.0000 C   0  0  0  0  0  0  0  0  0  0  0  0
    1.0717   -0.3168    0.0000 O   0  0  0  0  0  0  0  0  0  0  0  0
   -0.3572   -0.3168    0.0000 C   0  0  0  0  0  0  0  0  0  0  0  0
   -0.3572   -1.1418    0.0000 O   0  0  0  0  0  0  0  0  0  0  0  0
   -1.0717    0.0958    0.0000 C   0  0  0  0  0  0  0  0  0  0  0  0
   -1.7862   -0.3167    0.0000 O   0  0  0  0  0  0  0  0  0  0  0  0
  2  1  1  6
  2  3  1  0
  2 10  1  0
  3  4  1  0
  4  5  1  6
  4  6  1  0
  6  7  1  1
  6  8  1  0
  8  9  1  6
  8 10  1  0
 10 11  1  6
M  END
>  <DRUGBANK_ID>  (1) 
DB03283

>  <SECONDARY_ACCESSION_NUMBERS>  (1) 
EXPT01510

>  <COMMON_NAME>  (1) 
beta-L-fucose

>  <CAS_NUMBER>  (1) 
13224-93-6

>  <UNII>  (1) 
3MLV1G4S4M

>  <SYNONYMS>  (1) 
6-deoxy-beta-L-galactopyranose; beta-L-fucopyranose

$$$$
