
     RDKit          2D

 34 35  0  0  1  0  0  0  0  0999 V2000
   -3.5724    7.8375    0.0000 C   0  0  0  0  0  0  0  0  0  0  0  0
   -2.8579    8.2500    0.0000 C   0  0  0  0  0  0  0  0  0  0  0  0
   -2.1434    7.8375    0.0000 C   0  0  0  0  0  0  0  0  0  0  0  0
   -1.4289    8.2500    0.0000 C   0  0  0  0  0  0  0  0  0  0  0  0
   -0.7145    7.8375    0.0000 C   0  0  0  0  0  0  0  0  0  0  0  0
   -0.0000    8.2500    0.0000 C   0  0  0  0  0  0  0  0  0  0  0  0
    0.7145    7.8375    0.0000 C   0  0  0  0  0  0  0  0  0  0  0  0
    1.4289    8.2500    0.0000 C   0  0  0  0  0  0  0  0  0  0  0  0
    2.1434    7.8375    0.0000 C   0  0  0  0  0  0  0  0  0  0  0  0
    2.8579    8.2500    0.0000 C   0  0  0  0  0  0  0  0  0  0  0  0
    3.5724    7.8375    0.0000 C   0  0  0  0  0  0  0  0  0  0  0  0
    8.5737    9.0750    0.0000 C   0  0  0  0  0  0  0  0  0  0  0  0
    5.7158    5.7750    0.0000 C   0  0  0  0  0  0  0  0  0  0  0  0
    8.5737    8.2500    0.0000 C   0  0  0  0  0  0  0  0  0  0  0  0
    5.7158    6.6000    0.0000 C   0  0  0  0  0  0  0  0  0  0  0  0
    9.2881    7.8375    0.0000 C   0  0  0  0  0  0  0  0  0  0  0  0
    9.2881    7.0125    0.0000 C   0  0  0  0  0  0  0  0  0  0  0  0
    6.4302    7.8375    0.0000 C   0  0  0  0  0  0  0  0  0  0  0  0
    8.5737    6.6000    0.0000 C   0  0  0  0  0  0  0  0  0  0  0  0
    5.7158    8.2500    0.0000 C   0  0  0  0  0  0  0  0  0  0  0  0
    6.4302    7.0125    0.0000 C   0  0  0  0  0  0  0  0  0  0  0  0
    5.0013    7.8375    0.0000 C   0  0  0  0  0  0  0  0  0  0  0  0
    7.8592    7.0125    0.0000 C   0  0  0  0  0  0  0  0  0  0  0  0
    9.2881    9.4875    0.0000 O   0  0  0  0  0  0  0  0  0  0  0  0
    5.0013    5.3625    0.0000 O   0  0  0  0  0  0  0  0  0  0  0  0
   10.0026    8.2500    0.0000 O   0  0  0  0  0  0  0  0  0  0  0  0
   10.0026    6.6000    0.0000 O   0  0  0  0  0  0  0  0  0  0  0  0
    7.1447    8.2500    0.0000 O   0  0  0  0  0  0  0  0  0  0  0  0
    8.5737    5.7750    0.0000 O   0  0  0  0  0  0  0  0  0  0  0  0
    5.7158    9.0750    0.0000 O   0  0  0  0  0  0  0  0  0  0  0  0
    4.2868    8.2500    0.0000 O   0  0  0  0  0  0  0  0  0  0  0  0
    7.8592    7.8375    0.0000 O   0  0  0  0  0  0  0  0  0  0  0  0
    5.0013    7.0125    0.0000 O   0  0  0  0  0  0  0  0  0  0  0  0
    7.1447    6.6000    0.0000 O   0  0  0  0  0  0  0  0  0  0  0  0
  2  1  1  0
  3  2  1  0
  4  3  1  0
  5  4  1  0
  6  5  1  0
  7  6  1  0
  8  7  1  0
  9  8  1  0
 10  9  1  0
 11 10  1  0
 14 12  1  6
 15 13  1  1
 16 14  1  0
 16 26  1  1
 17 16  1  0
 17 27  1  6
 18 28  1  1
 19 17  1  0
 19 29  1  1
 20 18  1  0
 20 30  1  6
 21 15  1  0
 21 18  1  0
 21 34  1  6
 22 20  1  0
 22 31  1  1
 23 19  1  0
 23 34  1  1
 24 12  1  0
 25 13  1  0
 31 11  1  0
 32 14  1  0
 32 23  1  0
 33 15  1  0
 33 22  1  0
M  END
>  <DRUGBANK_ID>  (1) 
DB02686

>  <SECONDARY_ACCESSION_NUMBERS>  (1) 
EXPT03188

>  <COMMON_NAME>  (1) 
Undecyl-Beta-D-Maltopyranoside

$$$$
