
     RDKit          2D

 21 22  0  0  0  0  0  0  0  0999 V2000
   -3.9295    0.8410    0.0000 C   0  0  0  0  0  0  0  0  0  0  0  0
   -3.2151    0.4285    0.0000 C   0  0  0  0  0  0  0  0  0  0  0  0
   -2.5006    0.8410    0.0000 C   0  0  0  0  0  0  0  0  0  0  0  0
   -1.7861    0.4285    0.0000 C   0  0  0  0  0  0  0  0  0  0  0  0
   -1.0717    0.8410    0.0000 C   0  0  0  0  0  0  0  0  0  0  0  0
   -0.3572    0.4285    0.0000 C   0  0  0  0  0  0  0  0  0  0  0  0
    0.3572    0.8410    0.0000 C   0  0  0  0  0  0  0  0  0  0  0  0
    1.0717    0.4285    0.0000 C   0  0  0  0  0  0  0  0  0  0  0  0
    1.0717   -0.3964    0.0000 N   0  0  0  0  0  0  0  0  0  0  0  0
    1.7391   -0.8814    0.0000 C   0  0  0  0  0  0  0  0  0  0  0  0
    1.4842   -1.6660    0.0000 C   0  0  0  0  0  0  0  0  0  0  0  0
    0.6592   -1.6660    0.0000 C   0  0  0  0  0  0  0  0  0  0  0  0
    0.4042   -0.8814    0.0000 C   0  0  0  0  0  0  0  0  0  0  0  0
    1.7861    0.8410    0.0000 C   0  0  0  0  0  0  0  0  0  0  0  0
    1.7861    1.6660    0.0000 O   0  0  0  0  0  0  0  0  0  0  0  0
    2.5006    0.4285    0.0000 C   0  0  0  0  0  0  0  0  0  0  0  0
    3.2151    0.8410    0.0000 C   0  0  0  0  0  0  0  0  0  0  0  0
    3.9295    0.4285    0.0000 C   0  0  0  0  0  0  0  0  0  0  0  0
    3.9295   -0.3964    0.0000 C   0  0  0  0  0  0  0  0  0  0  0  0
    3.2151   -0.8089    0.0000 C   0  0  0  0  0  0  0  0  0  0  0  0
    2.5006   -0.3964    0.0000 C   0  0  0  0  0  0  0  0  0  0  0  0
  1  2  1  0
  2  3  1  0
  3  4  1  0
  4  5  1  0
  5  6  1  0
  6  7  1  0
  7  8  1  0
  8  9  1  0
  8 14  1  0
  9 10  1  0
  9 13  1  0
 10 11  1  0
 11 12  1  0
 12 13  1  0
 14 15  2  0
 14 16  1  0
 16 17  2  0
 16 21  1  0
 17 18  1  0
 18 19  2  0
 19 20  1  0
 20 21  2  0
M  END
>  <DRUGBANK_ID>  (1) 
DB05531

>  <COMMON_NAME>  (1) 
alpha-Pyrrolidinononanophenone

>  <CAS_NUMBER>  (1) 
13415-58-2

>  <UNII>  (1) 
S3FKL8RY1D

>  <SYNONYMS>  (1) 
alpha-Pnp; alpha-Pyrrolidinononanophenone

$$$$
