
     RDKit          2D

 12 12  0  0  0  0  0  0  0  0999 V2000
    0.3572   -0.4125    0.0000 C   0  0  0  0  0  0  0  0  0  0  0  0
    0.3572   -1.2374    0.0000 O   0  0  0  0  0  0  0  0  0  0  0  0
   -0.3572    0.0000    0.0000 C   0  0  0  0  0  0  0  0  0  0  0  0
   -1.0716   -0.4125    0.0000 O   0  0  0  0  0  0  0  0  0  0  0  0
   -0.3572    0.8250    0.0000 C   0  0  0  0  0  0  0  0  0  0  0  0
    1.0717    0.8250    0.0000 C   0  0  0  0  0  0  0  0  0  0  0  0
    1.7861    1.2374    0.0000 O   0  0  0  0  0  0  0  0  0  0  0  0
    1.7861   -0.4125    0.0000 O   0  0  0  0  0  0  0  0  0  0  0  0
    0.3572    1.2374    0.0000 O   0  0  0  0  0  0  0  0  0  0  0  0
    1.0717    0.0000    0.0000 C   0  0  0  0  0  0  0  0  0  0  0  0
   -1.0716    1.2374    0.0000 C   0  0  0  0  0  0  0  0  0  0  0  0
   -1.7861    0.8250    0.0000 O   0  0  0  0  0  0  0  0  0  0  0  0
  1 10  1  0
  1  2  1  6
  3  1  1  0
  3  4  1  6
  5  3  1  0
  5  9  1  0
  5 11  1  1
  6 10  1  0
  6  7  1  0
  9  6  1  0
 10  8  1  6
 11 12  1  0
M  END
>  <DRUGBANK_ID>  (1) 
DB03989

>  <SECONDARY_ACCESSION_NUMBERS>  (1) 
EXPT00500

>  <COMMON_NAME>  (1) 
D-Allopyranose

>  <CAS_NUMBER>  (1) 
2595-97-3

>  <UNII>  (1) 
SV1ATP0KYY

>  <SYNONYMS>  (1) 
D-Allose

$$$$
