BYS
     RDKit          2D

 25 27  0  0  0  0  0  0  0  0999 V2000
   -0.7354    0.2029    0.0000 C   0  0  0  0  0  0  0  0  0  0  0  0
   -0.7354    1.0279    0.0000 C   0  0  0  0  0  0  0  0  0  0  0  0
   -0.0209    1.4404    0.0000 O   0  0  0  0  0  0  0  0  0  0  0  0
   -1.4498    1.4404    0.0000 O   0  0  0  0  0  0  0  0  0  0  0  0
   -1.4498   -0.2096    0.0000 C   0  0  0  0  0  0  0  0  0  0  0  0
   -2.1643    0.2029    0.0000 C   0  0  0  0  0  0  0  0  0  0  0  0
   -2.8788   -0.2096    0.0000 C   0  0  0  0  0  0  0  0  0  0  0  0
   -3.5932    0.2029    0.0000 C   0  0  0  0  0  0  0  0  0  0  0  0
   -3.5932    1.0279    0.0000 C   0  0  0  0  0  0  0  0  0  0  0  0
   -2.8788    1.4404    0.0000 C   0  0  0  0  0  0  0  0  0  0  0  0
   -2.1643    1.0279    0.0000 C   0  0  0  0  0  0  0  0  0  0  0  0
   -0.0209   -0.2096    0.0000 C   0  0  0  0  0  0  0  0  0  0  0  0
   -0.0209   -1.0346    0.0000 C   0  0  0  0  0  0  0  0  0  0  0  0
    0.6936   -1.4471    0.0000 O   0  0  0  0  0  0  0  0  0  0  0  0
   -0.7354   -1.4471    0.0000 O   0  0  0  0  0  0  0  0  0  0  0  0
    0.6936    0.2029    0.0000 C   0  0  0  0  0  0  0  0  0  0  0  0
    1.4081   -0.2096    0.0000 C   0  0  0  0  0  0  0  0  0  0  0  0
    2.1225    0.2029    0.0000 C   0  0  0  0  0  0  0  0  0  0  0  0
    2.8370   -0.2096    0.0000 C   0  0  0  0  0  0  0  0  0  0  0  0
    3.6216    0.0453    0.0000 O   0  0  0  0  0  0  0  0  0  0  0  0
    4.1065   -0.6221    0.0000 C   0  0  0  0  0  0  0  0  0  0  0  0
    3.6216   -1.2896    0.0000 O   0  0  0  0  0  0  0  0  0  0  0  0
    2.8370   -1.0346    0.0000 C   0  0  0  0  0  0  0  0  0  0  0  0
    2.1225   -1.4471    0.0000 C   0  0  0  0  0  0  0  0  0  0  0  0
    1.4081   -1.0346    0.0000 C   0  0  0  0  0  0  0  0  0  0  0  0
  1  2  1  0
  1  5  1  6
  1 12  1  0
  2  3  2  0
  2  4  1  0
  5  6  1  0
  6  7  2  0
  6 11  1  0
  7  8  1  0
  8  9  2  0
  9 10  1  0
 10 11  2  0
 12 13  1  0
 12 16  1  6
 13 14  2  0
 13 15  1  0
 16 17  1  0
 17 18  2  0
 17 25  1  0
 18 19  1  0
 19 20  1  0
 19 23  2  0
 20 21  1  0
 21 22  1  0
 22 23  1  0
 23 24  1  0
 24 25  2  0
M  END
>  <DRUGBANK_ID>  (1) 
DB02450

>  <SECONDARY_ACCESSION_NUMBERS>  (1) 
EXPT00786

>  <COMMON_NAME>  (1) 
2-Benzo[1,3]Dioxol-5-Ylmethyl-3-Benzyl-Succinic Acid

$$$$
