WAI
     RDKit          2D

 30 33  0  0  0  0  0  0  0  0999 V2000
   -1.4300   -0.3862    0.0000 C   0  0  0  0  0  0  0  0  0  0  0  0
   -0.7155   -0.7987    0.0000 C   0  0  0  0  0  0  0  0  0  0  0  0
   -0.7155   -1.6237    0.0000 C   0  0  0  0  0  0  0  0  0  0  0  0
   -1.4300   -2.0362    0.0000 N   0  0  0  0  0  0  0  0  0  0  0  0
   -2.1445   -1.6237    0.0000 C   0  0  0  0  0  0  0  0  0  0  0  0
   -2.1445   -0.7987    0.0000 C   0  0  0  0  0  0  0  0  0  0  0  0
   -1.4300    0.4388    0.0000 C   0  0  0  0  0  0  0  0  0  0  0  0
   -2.1445    0.8513    0.0000 C   0  0  0  0  0  0  0  0  0  0  0  0
   -2.1445    1.6763    0.0000 C   0  0  0  0  0  0  0  0  0  0  0  0
   -1.4300    2.0888    0.0000 N   0  0  0  0  0  0  0  0  0  0  0  0
   -0.7155    1.6763    0.0000 C   0  0  0  0  0  0  0  0  0  0  0  0
   -0.7155    0.8513    0.0000 N   0  0  0  0  0  0  0  0  0  0  0  0
   -0.0011    2.0888    0.0000 N   0  0  0  0  0  0  0  0  0  0  0  0
   -0.0011    2.9138    0.0000 C   0  0  0  0  0  0  0  0  0  0  0  0
   -0.7155    3.3263    0.0000 C   0  0  0  0  0  0  0  0  0  0  0  0
   -0.7155    4.1513    0.0000 C   0  0  0  0  0  0  0  0  0  0  0  0
   -0.0011    4.5638    0.0000 C   0  0  0  0  0  0  0  0  0  0  0  0
    0.7134    4.1513    0.0000 C   0  0  0  0  0  0  0  0  0  0  0  0
    0.7134    3.3263    0.0000 C   0  0  0  0  0  0  0  0  0  0  0  0
   -0.0011    5.3888    0.0000 C   0  0  0  0  0  0  0  0  0  0  0  0
   -1.4300    4.5638    0.0000 Cl  0  0  0  0  0  0  0  0  0  0  0  0
   -0.0011   -2.0362    0.0000 N   0  0  0  0  0  0  0  0  0  0  0  0
    0.7134   -1.6237    0.0000 C   0  0  0  0  0  0  0  0  0  0  0  0
    1.4279   -2.0362    0.0000 C   0  0  0  0  0  0  0  0  0  0  0  0
    1.4279   -2.8612    0.0000 N   0  0  0  0  0  0  0  0  0  0  0  0
    0.7134   -3.2737    0.0000 C   0  0  0  0  0  0  0  0  0  0  0  0
   -0.0011   -2.8612    0.0000 C   0  0  0  0  0  0  0  0  0  0  0  0
    2.1423   -3.2737    0.0000 C   0  0  0  0  0  0  0  0  0  0  0  0
    2.1423   -4.0987    0.0000 C   0  0  0  0  0  0  0  0  0  0  0  0
    2.8568   -4.5112    0.0000 N   0  0  0  0  0  0  0  0  0  0  0  0
  1  2  2  0
  1  6  1  0
  1  7  1  0
  2  3  1  0
  3  4  2  0
  3 22  1  0
  4  5  1  0
  5  6  2  0
  7  8  2  0
  7 12  1  0
  8  9  1  0
  9 10  2  0
 10 11  1  0
 11 12  2  0
 11 13  1  0
 13 14  1  0
 14 15  2  0
 14 19  1  0
 15 16  1  0
 16 17  2  0
 16 21  1  0
 17 18  1  0
 17 20  1  0
 18 19  2  0
 22 23  1  0
 22 27  1  0
 23 24  1  0
 24 25  1  0
 25 26  1  0
 25 28  1  0
 26 27  1  0
 28 29  1  0
 29 30  1  0
M  END
>  <DRUGBANK_ID>  (1) 
DB03916

>  <SECONDARY_ACCESSION_NUMBERS>  (1) 
EXPT03239

>  <COMMON_NAME>  (1) 
4-{2-[4-(2-Aminoethyl)Piperazin-1-Yl]Pyridin-4-Yl}-N-(3-Chloro-4-Methylphenyl)Pyrimidin-2-Amine

$$$$
