4TZ
     RDKit          2D

 26 28  0  0  0  0  0  0  0  0999 V2000
    3.0136   -1.7836    0.0000 S   0  0  0  0  0  0  0  0  0  0  0  0
    3.0136   -2.6086    0.0000 O   0  0  0  0  0  0  0  0  0  0  0  0
    3.8386   -1.7836    0.0000 O   0  0  0  0  0  0  0  0  0  0  0  0
    3.0136   -0.9586    0.0000 O   0  0  0  0  0  0  0  0  0  0  0  0
    2.1886   -1.7836    0.0000 N   0  0  0  0  0  0  0  0  0  0  0  0
   -0.5588    0.2789    0.0000 N   0  0  0  0  0  0  0  0  0  0  0  0
   -0.5588   -0.5461    0.0000 N   0  0  0  0  0  0  0  0  0  0  0  0
   -0.1463   -1.8156    0.0000 N   0  0  0  0  0  0  0  0  0  0  0  0
   -0.9713   -1.8156    0.0000 N   0  0  0  0  0  0  0  0  0  0  0  0
   -4.1311    2.3414    0.0000 N   0  0  0  0  0  0  0  0  0  0  0  0
    0.1087   -1.0310    0.0000 C   0  0  0  0  0  0  0  0  0  0  0  0
   -1.2262   -1.0310    0.0000 C   0  0  0  0  0  0  0  0  0  0  0  0
   -1.2732    0.6914    0.0000 C   0  0  0  0  0  0  0  0  0  0  0  0
   -1.9877    0.2789    0.0000 C   0  0  0  0  0  0  0  0  0  0  0  0
   -2.7022    0.6914    0.0000 C   0  0  0  0  0  0  0  0  0  0  0  0
   -2.7022    1.5164    0.0000 C   0  0  0  0  0  0  0  0  0  0  0  0
   -1.9877    1.9289    0.0000 C   0  0  0  0  0  0  0  0  0  0  0  0
   -1.2732    1.5164    0.0000 C   0  0  0  0  0  0  0  0  0  0  0  0
   -3.4166    1.9289    0.0000 C   0  0  0  0  0  0  0  0  0  0  0  0
    0.1557    0.6914    0.0000 C   0  0  0  0  0  0  0  0  0  0  0  0
    0.8702    0.2789    0.0000 C   0  0  0  0  0  0  0  0  0  0  0  0
    1.5847    0.6914    0.0000 C   0  0  0  0  0  0  0  0  0  0  0  0
    2.2991    0.2789    0.0000 C   0  0  0  0  0  0  0  0  0  0  0  0
    2.2991   -0.5461    0.0000 C   0  0  0  0  0  0  0  0  0  0  0  0
    1.5847   -0.9586    0.0000 C   0  0  0  0  0  0  0  0  0  0  0  0
    0.8702   -0.5461    0.0000 C   0  0  0  0  0  0  0  0  0  0  0  0
  1  2  2  0
  1  3  2  0
  1  4  1  0
  1  5  1  0
  4 24  1  0
  6  7  1  0
  6 13  1  0
  6 20  1  0
  7 11  1  0
  7 12  1  0
  8  9  1  0
  8 11  2  0
  9 12  2  0
 10 19  3  0
 13 14  2  0
 13 18  1  0
 14 15  1  0
 15 16  2  0
 16 17  1  0
 16 19  1  0
 17 18  2  0
 20 21  1  0
 21 22  2  0
 21 26  1  0
 22 23  1  0
 23 24  2  0
 24 25  1  0
 25 26  2  0
M  END
>  <DRUGBANK_ID>  (1) 
DB04601

>  <COMMON_NAME>  (1) 
4-[(4-O-SULFAMOYLBENZYL)(4-CYANOPHENYL)AMINO]-4H-[1,2,4]-TRIAZOLE

$$$$
