553
     RDKit          2D

 20 22  0  0  0  0  0  0  0  0999 V2000
    1.1708   -2.0625    0.0000 O   0  0  0  0  0  0  0  0  0  0  0  0
    1.1708   -1.2375    0.0000 C   0  0  0  0  0  0  0  0  0  0  0  0
    1.8852   -0.8250    0.0000 N   0  0  0  0  0  0  0  0  0  0  0  0
    1.8852    0.0000    0.0000 C   0  0  0  0  0  0  0  0  0  0  0  0
    1.1708    0.4125    0.0000 C   0  0  0  0  0  0  0  0  0  0  0  0
    1.1708    1.2375    0.0000 C   0  0  0  0  0  0  0  0  0  0  0  0
    1.8852    1.6500    0.0000 C   0  0  0  0  0  0  0  0  0  0  0  0
    1.8852    2.4750    0.0000 F   0  0  0  0  0  0  0  0  0  0  0  0
    0.4563    0.0000    0.0000 C   0  0  0  0  0  0  0  0  0  0  0  0
   -0.3283    0.2549    0.0000 N   0  0  0  0  0  0  0  0  0  0  0  0
    0.4563   -0.8250    0.0000 C   0  0  0  0  0  0  0  0  0  0  0  0
   -0.3283   -1.0800    0.0000 C   0  0  0  0  0  0  0  0  0  0  0  0
   -0.8132   -0.4125    0.0000 C   0  0  0  0  0  0  0  0  0  0  0  0
   -1.6382   -0.4125    0.0000 C   0  0  0  0  0  0  0  0  0  0  0  0
   -2.0507   -1.1270    0.0000 C   0  0  0  0  0  0  0  0  0  0  0  0
   -2.8757   -1.1270    0.0000 C   0  0  0  0  0  0  0  0  0  0  0  0
   -2.0507    0.3019    0.0000 N   0  0  0  0  0  0  0  0  0  0  0  0
   -2.8757    0.3019    0.0000 C   0  0  0  0  0  0  0  0  0  0  0  0
   -3.2882   -0.4125    0.0000 N   0  0  0  0  0  0  0  0  0  0  0  0
   -3.2882    1.0164    0.0000 N   0  0  0  0  0  0  0  0  0  0  0  0
  2  1  2  0
  2 11  1  0
  3  2  1  0
  4  3  1  0
  4  5  1  0
  5  6  1  1
  5  9  1  0
  7  6  1  0
  8  7  1  0
  9 11  2  0
  9 10  1  0
 10 13  1  0
 11 12  1  0
 12 13  2  0
 13 14  1  0
 14 15  2  0
 15 16  1  0
 17 14  1  0
 17 18  2  0
 18 19  1  0
 19 16  2  0
 20 18  1  0
M  END
>  <DRUGBANK_ID>  (1) 
DB07149

>  <COMMON_NAME>  (1) 
(7S)-2-(2-aminopyrimidin-4-yl)-7-(2-fluoroethyl)-1,5,6,7-tetrahydro-4H-pyrrolo[3,2-c]pyridin-4-one

$$$$
