7X2
     RDKit          2D

 30 33  0  0  0  0  0  0  0  0999 V2000
    6.8881   -0.3960    0.0000 C   0  0  0  0  0  0  0  0  0  0  0  0
    6.1736    0.0165    0.0000 O   0  0  0  0  0  0  0  0  0  0  0  0
    6.1736    0.8415    0.0000 C   0  0  0  0  0  0  0  0  0  0  0  0
    5.4591    1.2540    0.0000 C   0  0  0  0  0  0  0  0  0  0  0  0
    5.4591    2.0790    0.0000 C   0  0  0  0  0  0  0  0  0  0  0  0
    4.7447    2.4915    0.0000 N   0  0  0  0  0  0  0  0  0  0  0  0
    4.7447    3.3165    0.0000 C   0  0  0  0  0  0  0  0  0  0  0  0
    4.0302    3.7290    0.0000 N   0  0  0  0  0  0  0  0  0  0  0  0
    4.0302    4.5540    0.0000 C   0  0  0  0  0  0  0  0  0  0  0  0
    4.7447    4.9665    0.0000 C   0  0  0  0  0  0  0  0  0  0  0  0
    5.4591    4.5540    0.0000 C   0  0  0  0  0  0  0  0  0  0  0  0
    6.1736    4.9665    0.0000 N   0  0  0  0  0  0  0  0  0  0  0  0
    6.1736    5.7915    0.0000 C   0  0  0  0  0  0  0  0  0  0  0  0
    5.4591    6.2040    0.0000 C   0  0  0  0  0  0  0  0  0  0  0  0
    4.6745    5.9491    0.0000 O   0  0  0  0  0  0  0  0  0  0  0  0
    4.1896    6.6165    0.0000 C   0  0  0  0  0  0  0  0  0  0  0  0
    4.6745    7.2839    0.0000 O   0  0  0  0  0  0  0  0  0  0  0  0
    5.4591    7.0290    0.0000 C   0  0  0  0  0  0  0  0  0  0  0  0
    6.1736    7.4415    0.0000 C   0  0  0  0  0  0  0  0  0  0  0  0
    6.8881    7.0290    0.0000 C   0  0  0  0  0  0  0  0  0  0  0  0
    6.8881    6.2040    0.0000 C   0  0  0  0  0  0  0  0  0  0  0  0
    7.6026    5.7915    0.0000 Cl  0  0  0  0  0  0  0  0  0  0  0  0
    5.4591    3.7290    0.0000 N   0  0  0  0  0  0  0  0  0  0  0  0
    6.1736    2.4915    0.0000 C   0  0  0  0  0  0  0  0  0  0  0  0
    6.8881    2.0790    0.0000 C   0  0  0  0  0  0  0  0  0  0  0  0
    7.6026    2.4915    0.0000 O   0  0  0  0  0  0  0  0  0  0  0  0
    8.3170    2.0790    0.0000 C   0  0  0  0  0  0  0  0  0  0  0  0
    6.8881    1.2540    0.0000 C   0  0  0  0  0  0  0  0  0  0  0  0
    7.6026    0.8415    0.0000 O   0  0  0  0  0  0  0  0  0  0  0  0
    8.3170    1.2540    0.0000 C   0  0  0  0  0  0  0  0  0  0  0  0
  1  2  1  0
  2  3  1  0
  3  4  2  0
  3 28  1  0
  4  5  1  0
  5  6  1  0
  5 24  2  0
  6  7  1  0
  7  8  2  0
  7 23  1  0
  8  9  1  0
  9 10  2  0
 10 11  1  0
 11 12  1  0
 11 23  2  0
 12 13  1  0
 13 14  2  0
 13 21  1  0
 14 15  1  0
 14 18  1  0
 15 16  1  0
 16 17  1  0
 17 18  1  0
 18 19  2  0
 19 20  1  0
 20 21  2  0
 21 22  1  0
 24 25  1  0
 25 26  1  0
 25 28  2  0
 26 27  1  0
 28 29  1  0
 29 30  1  0
M  END
>  <DRUGBANK_ID>  (1) 
DB07250

>  <COMMON_NAME>  (1) 
N'-(5-CHLORO-1,3-BENZODIOXOL-4-YL)-N-(3,4,5- TRIMETHOXYPHENYL)PYRIMIDINE-2,4-DIAMINE

$$$$
