
     RDKit          2D

 15 14  0  0  0  0  0  0  0  0999 V2000
    7.6861   -0.2062    0.0000 O   0  0  0  0  0  0  0  0  0  0  0  0
    6.9716    1.0312    0.0000 O   0  0  0  0  0  0  0  0  0  0  0  0
    4.8281   -1.0312    0.0000 O   0  0  0  0  0  0  0  0  0  0  0  0
    3.3991   -0.2062    0.0000 N   0  0  0  0  0  0  0  0  0  0  0  0
    9.8295    0.2062    0.0000 C   0  0  0  0  0  0  0  0  0  0  0  0
   10.5440   -0.2062    0.0000 C   0  0  0  0  0  0  0  0  0  0  0  0
    9.1150   -0.2062    0.0000 C   0  0  0  0  0  0  0  0  0  0  0  0
   11.2585    0.2062    0.0000 C   0  0  0  0  0  0  0  0  0  0  0  0
    8.4005    0.2062    0.0000 C   0  0  0  0  0  0  0  0  0  0  0  0
   11.9729   -0.2062    0.0000 C   0  0  0  0  0  0  0  0  0  0  0  0
    6.2571   -0.2062    0.0000 C   0  0  0  0  0  0  0  0  0  0  0  0
    5.5426    0.2062    0.0000 C   0  0  0  0  0  0  0  0  0  0  0  0
    6.9716    0.2062    0.0000 C   0  0  0  0  0  0  0  0  0  0  0  0
    4.8281   -0.2062    0.0000 C   0  0  0  0  0  0  0  0  0  0  0  0
    4.1137    0.2062    0.0000 C   0  0  0  0  0  0  0  0  0  0  0  0
  1  9  1  0
  1 13  1  0
  2 13  2  0
  3 14  2  0
  4 15  1  0
  5  6  1  0
  5  7  1  0
  6  8  1  0
  7  9  1  0
  8 10  1  0
 11 12  1  0
 11 13  1  0
 12 14  1  0
 14 15  1  0
M  END
>  <DRUGBANK_ID>  (1) 
DB06261

>  <COMMON_NAME>  (1) 
Hexaminolevulinate

>  <CAS_NUMBER>  (1) 
140898-97-1

>  <UNII>  (1) 
G7H20TKI67

>  <SYNONYMS>  (1) 
4-Hexyloxycarbonyl-2-oxobutylammoniumchloride; Hexaminolevulinato; Hexyl 5-amino-4-oxopentanoate hydrochloride; Hexyl(5-amino-4-oxopentanoat)-hydrochlorid; Pentanoic acid, 5-amino-4-oxo-, hexyl ester, hydrochloride

$$$$
