
     RDKit          2D

 10  9  0  0  0  0  0  0  0  0999 V2000
    0.0000    0.2062    0.0000 C   0  0  0  0  0  0  0  0  0  0  0  0
    0.7145   -0.2062    0.0000 C   0  0  0  0  0  0  0  0  0  0  0  0
   -0.7144   -0.2062    0.0000 N   0  0  0  0  0  0  0  0  0  0  0  0
    1.4289    0.2062    0.0000 C   0  0  0  0  0  0  0  0  0  0  0  0
    0.7145   -1.0312    0.0000 N   0  0  0  0  0  0  0  0  0  0  0  0
   -1.4289    0.2062    0.0000 N   0  0  0  0  0  0  0  0  0  0  0  0
   -0.7144   -1.0312    0.0000 O   0  0  0  0  0  0  0  0  0  0  0  0
    2.1434   -0.2062    0.0000 O   0  0  0  0  0  0  0  0  0  0  0  0
    1.4289    1.0312    0.0000 O   0  0  0  0  0  0  0  0  0  0  0  0
   -2.1433   -0.2062    0.0000 O   0  0  0  0  0  0  0  0  0  0  0  0
  1  3  1  0
  2  1  1  0
  2  4  1  0
  2  5  1  1
  3  6  1  0
  3  7  1  0
  4  8  1  0
  4  9  2  0
  6 10  2  0
M  END
>  <DRUGBANK_ID>  (1) 
DB05540

>  <COMMON_NAME>  (1) 
Alanosine

>  <CAS_NUMBER>  (1) 
5854-93-3

>  <UNII>  (1) 
2CNI71214Y

>  <SYNONYMS>  (1) 
Alanosina; Alanosine; Alanosinum; L-Alanosine

$$$$
