
     RDKit          2D

 29 32  0  0  0  0  0  0  0  0999 V2000
   -2.3643    2.1030    0.0000 C   0  0  0  0  0  0  0  0  0  0  0  0
   -2.1928    1.2960    0.0000 C   0  0  0  0  0  0  0  0  0  0  0  0
   -1.4080    1.0411    0.0000 C   0  0  0  0  0  0  0  0  0  0  0  0
   -1.2366    0.2341    0.0000 C   0  0  0  0  0  0  0  0  0  0  0  0
   -1.8497   -0.3179    0.0000 C   0  0  0  0  0  0  0  0  0  0  0  0
   -2.6343   -0.0630    0.0000 C   0  0  0  0  0  0  0  0  0  0  0  0
   -2.8058    0.7440    0.0000 C   0  0  0  0  0  0  0  0  0  0  0  0
   -2.5358    2.9099    0.0000 N   0  0  0  0  0  0  0  0  0  0  0  0
   -1.6782   -1.1249    0.0000 C   0  0  0  0  0  0  0  0  0  0  0  0
   -3.0982   -1.5053    0.0000 C   0  0  0  0  0  0  0  0  0  0  0  0
   -3.5107   -2.2198    0.0000 N   0  0  0  0  0  0  0  0  0  0  0  0
   -2.9587   -2.8330    0.0000 C   0  0  0  0  0  0  0  0  0  0  0  0
   -2.2050   -2.4973    0.0000 C   0  0  0  0  0  0  0  0  0  0  0  0
   -2.2912   -1.6769    0.0000 N   0  0  0  0  0  0  0  0  0  0  0  0
   -1.4905   -2.9099    0.0000 C   0  0  0  0  0  0  0  0  0  0  0  0
   -0.7760   -2.4973    0.0000 N   0  0  0  0  0  0  0  0  0  0  0  0
   -0.0615   -2.9099    0.0000 C   0  0  0  0  0  0  0  0  0  0  0  0
    0.6528   -2.4973    0.0000 C   0  0  0  0  0  0  0  0  0  0  0  0
    0.6528   -1.6723    0.0000 N   0  0  0  0  0  0  0  0  0  0  0  0
   -0.0615   -1.2598    0.0000 C   0  0  0  0  0  0  0  0  0  0  0  0
   -0.7760   -1.6723    0.0000 C   0  0  0  0  0  0  0  0  0  0  0  0
    1.3673   -2.9099    0.0000 O   0  0  0  0  0  0  0  0  0  0  0  0
    1.3673   -1.2598    0.0000 C   0  0  0  0  0  0  0  0  0  0  0  0
    2.0818   -1.6723    0.0000 C   0  0  0  0  0  0  0  0  0  0  0  0
    2.7962   -1.2598    0.0000 C   0  0  0  0  0  0  0  0  0  0  0  0
    2.7962   -0.4349    0.0000 C   0  0  0  0  0  0  0  0  0  0  0  0
    2.0818   -0.0223    0.0000 C   0  0  0  0  0  0  0  0  0  0  0  0
    1.3673   -0.4349    0.0000 C   0  0  0  0  0  0  0  0  0  0  0  0
    3.5107   -1.6723    0.0000 Cl  0  0  0  0  0  0  0  0  0  0  0  0
  1  2  1  0
  1  8  3  0
  2  3  2  0
  2  7  1  0
  3  4  1  0
  4  5  2  0
  5  6  1  0
  5  9  1  0
  6  7  2  0
  9 14  1  0
 10 11  2  0
 10 14  1  0
 11 12  1  0
 12 13  2  0
 13 14  1  0
 13 15  1  0
 15 16  1  0
 16 17  1  0
 16 21  1  0
 17 18  1  0
 18 19  1  0
 18 22  2  0
 19 20  1  0
 19 23  1  0
 20 21  1  0
 23 24  2  0
 23 28  1  0
 24 25  1  0
 25 26  2  0
 25 29  1  0
 26 27  1  0
 27 28  2  0
M  END
>  <DRUGBANK_ID>  (1) 
DB07227

>  <COMMON_NAME>  (1) 
L-778123

>  <CAS_NUMBER>  (1) 
183499-57-2

>  <UNII>  (1) 
31ZXM8ZKQ3

$$$$
