244
     RDKit          2D

 11 11  0  0  0  0  0  0  0  0999 V2000
    2.0930    0.2063    0.0000 O   0  0  0  0  0  0  0  0  0  0  0  0
    4.2365    1.4438    0.0000 O   0  0  0  0  0  0  0  0  0  0  0  0
    2.8075    1.4438    0.0000 O   0  0  0  0  0  0  0  0  0  0  0  0
    4.9509   -1.4438    0.0000 N   0  0  0  0  0  0  0  0  0  0  0  0
    3.5220    0.2063    0.0000 C   0  0  0  0  0  0  0  0  0  0  0  0
    4.2365   -1.0313    0.0000 C   0  0  0  0  0  0  0  0  0  0  0  0
    4.2365   -0.2063    0.0000 C   0  0  0  0  0  0  0  0  0  0  0  0
    2.8075   -0.2063    0.0000 C   0  0  0  0  0  0  0  0  0  0  0  0
    3.5220   -1.4438    0.0000 C   0  0  0  0  0  0  0  0  0  0  0  0
    2.8075   -1.0313    0.0000 C   0  0  0  0  0  0  0  0  0  0  0  0
    3.5220    1.0313    0.0000 C   0  0  0  0  0  0  0  0  0  0  0  0
  1  8  1  0
  2 11  1  0
  3 11  2  0
  4  6  1  0
  5  7  2  0
  5  8  1  0
  5 11  1  0
  6  7  1  0
  6  9  2  0
  8 10  2  0
  9 10  1  0
M  END
>  <DRUGBANK_ID>  (1) 
DB00244

>  <SECONDARY_ACCESSION_NUMBERS>  (1) 
APRD01098; DB05376; DB06396

>  <COMMON_NAME>  (1) 
Mesalazine

>  <CAS_NUMBER>  (1) 
89-57-6

>  <UNII>  (1) 
4Q81I59GXC

>  <SYNONYMS>  (1) 
3-carboxy-4-hydroxyaniline; 5-aminosalicylic acid; 5-ASA; m-Aminosalicylic acid; Mesalamine; Mesalazina; MÃ©salazine; Mesalazine; Mesalazinum; p-Aminosalicylsaeure

$$$$
