
     RDKit          2D

 20 21  0  0  0  0  0  0  0  0999 V2000
    2.5007    2.6813    0.0000 Br  0  0  0  0  0  0  0  0  0  0  0  0
    0.3572   -2.6813    0.0000 F   0  0  0  0  0  0  0  0  0  0  0  0
   -1.7861    0.2062    0.0000 O   0  0  0  0  0  0  0  0  0  0  0  0
   -2.5007   -1.0312    0.0000 O   0  0  0  0  0  0  0  0  0  0  0  0
   -0.3572    0.2062    0.0000 N   0  0  0  0  0  0  0  0  0  0  0  0
   -0.3572    1.0312    0.0000 C   0  0  0  0  0  0  0  0  0  0  0  0
    0.3572    1.4437    0.0000 C   0  0  0  0  0  0  0  0  0  0  0  0
   -1.0716    1.4437    0.0000 C   0  0  0  0  0  0  0  0  0  0  0  0
    0.3572    2.2687    0.0000 C   0  0  0  0  0  0  0  0  0  0  0  0
    1.0717    1.0312    0.0000 C   0  0  0  0  0  0  0  0  0  0  0  0
   -1.0716   -0.2062    0.0000 C   0  0  0  0  0  0  0  0  0  0  0  0
   -1.0716   -1.0312    0.0000 C   0  0  0  0  0  0  0  0  0  0  0  0
    1.0717    2.6813    0.0000 C   0  0  0  0  0  0  0  0  0  0  0  0
    1.7862    1.4437    0.0000 C   0  0  0  0  0  0  0  0  0  0  0  0
   -1.7861   -1.4437    0.0000 C   0  0  0  0  0  0  0  0  0  0  0  0
    1.7862    2.2687    0.0000 C   0  0  0  0  0  0  0  0  0  0  0  0
   -0.3572   -1.4437    0.0000 C   0  0  0  0  0  0  0  0  0  0  0  0
   -1.7861   -2.2687    0.0000 C   0  0  0  0  0  0  0  0  0  0  0  0
   -0.3572   -2.2687    0.0000 C   0  0  0  0  0  0  0  0  0  0  0  0
   -1.0716   -2.6813    0.0000 C   0  0  0  0  0  0  0  0  0  0  0  0
  1 16  1  0
  2 19  1  0
  3 11  2  0
  4 15  1  0
  5 11  1  0
  6  5  1  0
  6  7  1  0
  6  8  1  6
  7  9  2  0
  7 10  1  0
  9 13  1  0
 10 14  2  0
 11 12  1  0
 12 15  2  0
 12 17  1  0
 13 16  2  0
 14 16  1  0
 15 18  1  0
 17 19  2  0
 18 20  2  0
 19 20  1  0
M  END
>  <DRUGBANK_ID>  (1) 
DB02880

>  <SECONDARY_ACCESSION_NUMBERS>  (1) 
EXPT00680

>  <COMMON_NAME>  (1) 
N-[(1R)-1-(4-Bromophenyl)ethyl]-5-fluoro-2-hydroxybenzamide

>  <CAS_NUMBER>  (1) 
163669-81-6

$$$$
