PPL
     RDKit          2D

 13 13  0  0  0  0  0  0  0  0999 V2000
   -0.2730    1.3659    0.0000 N   0  0  0  0  0  0  0  0  0  0  0  0
   -0.2730    0.5409    0.0000 C   0  0  0  0  0  0  0  0  0  0  0  0
   -0.9875    0.1284    0.0000 C   0  0  0  0  0  0  0  0  0  0  0  0
   -1.7020    0.5409    0.0000 C   0  0  0  0  0  0  0  0  0  0  0  0
   -1.7020    1.3659    0.0000 C   0  0  0  0  0  0  0  0  0  0  0  0
   -0.9875    1.7784    0.0000 C   0  0  0  0  0  0  0  0  0  0  0  0
    0.4415    0.1284    0.0000 C   0  0  0  0  0  0  0  0  0  0  0  0
    1.1559    0.5409    0.0000 O   0  0  0  0  0  0  0  0  0  0  0  0
    0.4415   -0.6966    0.0000 N   0  0  0  0  0  0  0  0  0  0  0  0
    1.1559   -1.1091    0.0000 C   0  0  0  0  0  0  0  0  0  0  0  0
    1.8704   -1.5216    0.0000 C   0  0  0  0  0  0  0  0  0  0  0  0
    0.7434   -1.8236    0.0000 C   0  0  0  0  0  0  0  0  0  0  0  0
    1.5684   -0.3947    0.0000 C   0  0  0  0  0  0  0  0  0  0  0  0
  1  2  1  0
  1  6  1  0
  2  3  1  0
  2  7  1  6
  3  4  1  0
  4  5  1  0
  5  6  1  0
  7  8  2  0
  7  9  1  0
  9 10  1  0
 10 11  1  0
 10 12  1  0
 10 13  1  0
M  END
>  <DRUGBANK_ID>  (1) 
DB08421

>  <COMMON_NAME>  (1) 
PIPERIDINE-2-CARBOXYLIC ACID TERT-BUTYLAMIDE

$$$$
