
     RDKit          2D

 17 20  0  0  0  0  0  0  0  0999 V2000
    0.3020   -1.9520    0.0000 C   0  0  0  0  0  0  0  0  0  0  0  0
    1.1270   -1.9520    0.0000 C   0  0  0  0  0  0  0  0  0  0  0  0
    1.1270    2.7770    0.0000 C   0  0  0  0  0  0  0  0  0  0  0  0
    0.3020    2.7770    0.0000 C   0  0  0  0  0  0  0  0  0  0  0  0
    2.9684    1.2375    0.0000 C   0  0  0  0  0  0  0  0  0  0  0  0
    2.5559    1.9520    0.0000 C   0  0  0  0  0  0  0  0  0  0  0  0
    0.0000    0.0000    0.0000 C   0  0  0  0  0  0  0  0  0  0  0  0
    0.7145   -0.4125    0.0000 C   0  0  0  0  0  0  0  0  0  0  0  0
    0.0000    0.8250    0.0000 C   0  0  0  0  0  0  0  0  0  0  0  0
    0.7145    1.2375    0.0000 C   0  0  0  0  0  0  0  0  0  0  0  0
    1.4289    0.8250    0.0000 C   0  0  0  0  0  0  0  0  0  0  0  0
    1.4289    0.0000    0.0000 C   0  0  0  0  0  0  0  0  0  0  0  0
    0.7145   -1.2375    0.0000 N   0  0  0  0  0  0  0  0  0  0  0  0
    0.7145    2.0625    0.0000 N   0  0  0  0  0  0  0  0  0  0  0  0
    2.1434    1.2375    0.0000 N   0  0  0  0  0  0  0  0  0  0  0  0
   -0.7145    1.2375    0.0000 O   0  0  0  0  0  0  0  0  0  0  0  0
    2.1434   -0.4125    0.0000 O   0  0  0  0  0  0  0  0  0  0  0  0
  2  1  1  0
  4  3  1  0
  6  5  1  0
  8  7  2  0
  9  7  1  0
 10  9  1  0
 11 10  2  0
 12  8  1  0
 12 11  1  0
 13  1  1  0
 13  2  1  0
 13  8  1  0
 14  3  1  0
 14  4  1  0
 14 10  1  0
 15  5  1  0
 15  6  1  0
 15 11  1  0
 16  9  2  0
 17 12  2  0
M  END
>  <DRUGBANK_ID>  (1) 
DB13304

>  <COMMON_NAME>  (1) 
Triaziquone

>  <CAS_NUMBER>  (1) 
68-76-8

>  <UNII>  (1) 
F3D5D9P25I

>  <SYNONYMS>  (1) 
triazicuona; Triaziquone

$$$$
