
     RDKit          2D

 29 32  0  0  0  0  0  0  0  0999 V2000
   -2.3808   -1.0027    0.0000 N   0  0  0  0  0  0  0  0  0  0  0  0
   -2.9310   -0.3896    0.0000 C   0  0  0  0  0  0  0  0  0  0  0  0
    4.0828    0.1775    0.0000 C   0  0  0  0  0  0  0  0  0  0  0  0
   -2.5183    0.3323    0.0000 O   0  0  0  0  0  0  0  0  0  0  0  0
   -1.6302   -0.6647    0.0000 C   0  0  0  0  0  0  0  0  0  0  0  0
    4.8391    0.5100    0.0000 C   0  0  0  0  0  0  0  0  0  0  0  0
    4.1801   -0.6475    0.0000 C   0  0  0  0  0  0  0  0  0  0  0  0
    5.3892   -0.0973    0.0000 N   0  0  0  0  0  0  0  0  0  0  0  0
   -1.7104    0.1603    0.0000 C   0  0  0  0  0  0  0  0  0  0  0  0
    4.9767   -0.8136    0.0000 O   0  0  0  0  0  0  0  0  0  0  0  0
    3.3607    0.5787    0.0000 C   0  0  0  0  0  0  0  0  0  0  0  0
   -3.7447   -0.4756    0.0000 C   0  0  0  0  0  0  0  0  0  0  0  0
    5.0052    1.3179    0.0000 O   0  0  0  0  0  0  0  0  0  0  0  0
    3.5670   -1.1976    0.0000 O   0  0  0  0  0  0  0  0  0  0  0  0
   -0.9197   -1.0772    0.0000 C   0  0  0  0  0  0  0  0  0  0  0  0
    2.6559    0.1603    0.0000 C   0  0  0  0  0  0  0  0  0  0  0  0
    1.2291   -0.6647    0.0000 C   0  0  0  0  0  0  0  0  0  0  0  0
   -0.2034   -0.6647    0.0000 C   0  0  0  0  0  0  0  0  0  0  0  0
    2.6559   -0.6647    0.0000 C   0  0  0  0  0  0  0  0  0  0  0  0
    1.9339    0.5730    0.0000 C   0  0  0  0  0  0  0  0  0  0  0  0
    1.9339   -1.0772    0.0000 C   0  0  0  0  0  0  0  0  0  0  0  0
    1.2291    0.1603    0.0000 C   0  0  0  0  0  0  0  0  0  0  0  0
    0.5071   -1.0772    0.0000 O   0  0  0  0  0  0  0  0  0  0  0  0
   -1.0974    0.7105    0.0000 C   0  0  0  0  0  0  0  0  0  0  0  0
   -4.0828   -1.2262    0.0000 C   0  0  0  0  0  0  0  0  0  0  0  0
   -4.2374    0.1948    0.0000 C   0  0  0  0  0  0  0  0  0  0  0  0
   -5.0511    0.1088    0.0000 C   0  0  0  0  0  0  0  0  0  0  0  0
   -4.8965   -1.3179    0.0000 C   0  0  0  0  0  0  0  0  0  0  0  0
   -5.3892   -0.6475    0.0000 C   0  0  0  0  0  0  0  0  0  0  0  0
  2  1  2  0
  3 11  1  0
  4  2  1  0
  5  1  1  0
  6  3  1  0
  7  3  1  0
  8  6  1  0
  8 10  1  0
  9  5  2  0
  9  4  1  0
 10  7  1  0
 11 16  1  0
 12  2  1  0
 13  6  2  0
 14  7  2  0
 15  5  1  0
 16 20  1  0
 16 19  2  0
 17 23  1  0
 18 15  1  0
 19 21  1  0
 20 22  2  0
 21 17  2  0
 22 17  1  0
 23 18  1  0
 24  9  1  0
 25 12  2  0
 26 12  1  0
 27 26  2  0
 28 25  1  0
 29 27  1  0
 29 28  2  0
M  END
>  <DRUGBANK_ID>  (1) 
DB04971

>  <COMMON_NAME>  (1) 
Reglitazar

>  <CAS_NUMBER>  (1) 
170861-63-9

>  <UNII>  (1) 
P9UTN18JVV

>  <SYNONYMS>  (1) 
Reglitazar; Reglixane

$$$$
