
     RDKit          2D

 37 40  0  0  0  0  0  0  0  0999 V2000
    1.9478    0.4727    0.0000 C   0  0  0  0  0  0  0  0  0  0  0  0
    1.2074    0.1195    0.0000 C   0  0  0  0  0  0  0  0  0  0  0  0
    1.0251   -0.6892    0.0000 C   0  0  0  0  0  0  0  0  0  0  0  0
    1.5377   -1.3383    0.0000 C   0  0  0  0  0  0  0  0  0  0  0  0
    2.3579   -1.3383    0.0000 C   0  0  0  0  0  0  0  0  0  0  0  0
    2.6882    0.1195    0.0000 C   0  0  0  0  0  0  0  0  0  0  0  0
    1.9478    1.2928    0.0000 O   0  0  0  0  0  0  0  0  0  0  0  0
    2.8705   -0.6892    0.0000 N   0  0  0  0  0  0  0  0  0  0  0  0
    4.3057   -1.5093    0.0000 C   0  0  0  0  0  0  0  0  0  0  0  0
    5.6954   -1.8282    0.0000 C   0  0  0  0  0  0  0  0  0  0  0  0
    4.1235   -2.3180    0.0000 C   0  0  0  0  0  0  0  0  0  0  0  0
    4.7271   -2.8761    0.0000 C   0  0  0  0  0  0  0  0  0  0  0  0
    5.5131   -2.6370    0.0000 C   0  0  0  0  0  0  0  0  0  0  0  0
    5.0916   -1.2700    0.0000 N   0  0  0  0  0  0  0  0  0  0  0  0
    3.5880   -1.0992    0.0000 S   0  0  0  0  0  0  0  0  0  0  0  0
    3.9981   -0.3929    0.0000 O   0  0  0  0  0  0  0  0  0  0  0  0
    3.1780   -1.8168    0.0000 O   0  0  0  0  0  0  0  0  0  0  0  0
    0.5581    0.6322    0.0000 N   0  0  0  0  0  0  0  0  0  0  0  0
   -0.1481    0.2107    0.0000 C   0  0  0  0  0  0  0  0  0  0  0  0
   -0.1481   -0.6094    0.0000 O   0  0  0  0  0  0  0  0  0  0  0  0
   -0.8656    0.6322    0.0000 C   0  0  0  0  0  0  0  0  0  0  0  0
   -0.8656    1.4523    0.0000 C   0  0  0  0  0  0  0  0  0  0  0  0
   -1.2757    2.1700    0.0000 C   0  0  0  0  0  0  0  0  0  0  0  0
   -0.8656    2.8761    0.0000 C   0  0  0  0  0  0  0  0  0  0  0  0
   -2.0959    2.1700    0.0000 C   0  0  0  0  0  0  0  0  0  0  0  0
   -1.5719    0.2107    0.0000 N   0  0  0  0  0  0  0  0  0  0  0  0
   -2.2895    0.6322    0.0000 C   0  0  0  0  0  0  0  0  0  0  0  0
   -2.2895    1.4523    0.0000 O   0  0  0  0  0  0  0  0  0  0  0  0
   -3.0071    0.2107    0.0000 C   0  0  0  0  0  0  0  0  0  0  0  0
   -3.6678    0.7005    0.0000 C   0  0  0  0  0  0  0  0  0  0  0  0
   -3.2577   -0.5638    0.0000 O   0  0  0  0  0  0  0  0  0  0  0  0
   -4.0779   -0.5638    0.0000 C   0  0  0  0  0  0  0  0  0  0  0  0
   -4.3398    0.2107    0.0000 C   0  0  0  0  0  0  0  0  0  0  0  0
   -5.1486    0.3929    0.0000 C   0  0  0  0  0  0  0  0  0  0  0  0
   -5.6954   -0.2220    0.0000 C   0  0  0  0  0  0  0  0  0  0  0  0
   -5.4447   -1.0080    0.0000 C   0  0  0  0  0  0  0  0  0  0  0  0
   -4.6359   -1.1788    0.0000 C   0  0  0  0  0  0  0  0  0  0  0  0
  1  2  1  0
  1  6  1  0
  1  7  2  0
  2  3  1  0
  2 18  1  6
  3  4  1  0
  4  5  1  0
  5  8  1  0
  6  8  1  0
  8 15  1  0
  9 15  1  0
  9 14  1  0
  9 11  2  0
 10 14  2  0
 10 13  1  0
 11 12  1  0
 12 13  2  0
 15 17  2  0
 15 16  2  0
 18 19  1  0
 19 21  1  0
 19 20  2  0
 21 26  1  0
 21 22  1  1
 22 23  1  0
 23 24  1  0
 23 25  1  0
 26 27  1  0
 27 29  1  0
 27 28  2  0
 29 31  1  0
 29 30  2  0
 30 33  1  0
 31 32  1  0
 32 37  1  0
 32 33  2  0
 33 34  1  0
 34 35  2  0
 35 36  1  0
 36 37  2  0
M  END
>  <DRUGBANK_ID>  (1) 
DB03642

>  <SECONDARY_ACCESSION_NUMBERS>  (1) 
EXPT00107

>  <COMMON_NAME>  (1) 
N-[(2S)-4-Methyl-1-oxo-1-{[(4S)-3-oxo-1-(2-pyridinylsulfonyl)-4-azepanyl]amino}-2-pentanyl]-1-benzofuran-2-carboxamide

$$$$
