2C5
     RDKit          2D

 33 36  0  0  0  0  0  0  0  0999 V2000
   -0.2903    0.2528    0.0000 O   0  0  0  0  0  0  0  0  0  0  0  0
    0.5302    0.1666    0.0000 C   0  0  0  0  0  0  0  0  0  0  0  0
    0.8658   -0.5871    0.0000 C   0  0  0  0  0  0  0  0  0  0  0  0
    1.6863   -0.6734    0.0000 C   0  0  0  0  0  0  0  0  0  0  0  0
    2.0218   -1.4270    0.0000 C   0  0  0  0  0  0  0  0  0  0  0  0
    1.5369   -2.0945    0.0000 C   0  0  0  0  0  0  0  0  0  0  0  0
    0.7164   -2.0082    0.0000 C   0  0  0  0  0  0  0  0  0  0  0  0
    0.3808   -1.2546    0.0000 C   0  0  0  0  0  0  0  0  0  0  0  0
   -0.9246   -1.8358    0.0000 C   0  0  0  0  0  0  0  0  0  0  0  0
   -1.7450   -1.7495    0.0000 C   0  0  0  0  0  0  0  0  0  0  0  0
   -2.2300   -2.4170    0.0000 Cl  0  0  0  0  0  0  0  0  0  0  0  0
    1.8724   -2.8481    0.0000 C   0  0  0  0  0  0  0  0  0  0  0  0
   -2.0806   -0.9959    0.0000 C   0  0  0  0  0  0  0  0  0  0  0  0
    2.2080   -3.6018    0.0000 N   0  0  0  0  0  0  0  0  0  0  0  0
   -0.4396   -1.1683    0.0000 C   0  0  0  0  0  0  0  0  0  0  0  0
   -1.5957   -0.3284    0.0000 C   0  0  0  0  0  0  0  0  0  0  0  0
   -0.7752   -0.4147    0.0000 C   0  0  0  0  0  0  0  0  0  0  0  0
   -0.6258    1.0065    0.0000 C   0  0  0  0  0  0  0  0  0  0  0  0
    2.0951    1.6186    0.0000 N   0  0  0  0  0  0  0  0  0  0  0  0
    1.8401    0.8340    0.0000 C   0  0  0  0  0  0  0  0  0  0  0  0
    1.0151    0.8340    0.0000 C   0  0  0  0  0  0  0  0  0  0  0  0
    0.7602    1.6186    0.0000 N   0  0  0  0  0  0  0  0  0  0  0  0
    1.4276    2.1035    0.0000 C   0  0  0  0  0  0  0  0  0  0  0  0
   -0.0244    1.8736    0.0000 C   0  0  0  0  0  0  0  0  0  0  0  0
   -1.7819    1.8464    0.0000 N   0  0  0  0  0  0  0  0  0  0  0  0
   -1.4463    1.0927    0.0000 C   0  0  0  0  0  0  0  0  0  0  0  0
   -1.9312    0.4253    0.0000 C   0  0  0  0  0  0  0  0  0  0  0  0
   -2.7517    0.5115    0.0000 C   0  0  0  0  0  0  0  0  0  0  0  0
   -3.0873    1.2652    0.0000 C   0  0  0  0  0  0  0  0  0  0  0  0
   -2.6023    1.9326    0.0000 C   0  0  0  0  0  0  0  0  0  0  0  0
   -3.9077    1.3514    0.0000 C   0  0  0  0  0  0  0  0  0  0  0  0
   -4.7282    1.4376    0.0000 N   0  0  0  0  0  0  0  0  0  0  0  0
   -2.9379    2.6863    0.0000 Cl  0  0  0  0  0  0  0  0  0  0  0  0
  1 18  1  0
  2  1  1  1
  2  3  1  0
  2 21  1  0
  3  4  2  0
  3  8  1  0
  4  5  1  0
  5  6  2  0
  6  7  1  0
  6 12  1  0
  7  8  2  0
  9 10  2  0
  9 15  1  0
 10 11  1  0
 10 13  1  0
 12 14  3  0
 13 16  2  0
 15 17  2  0
 16 17  1  0
 16 27  1  0
 18 26  1  0
 19 20  1  0
 19 23  2  0
 20 21  2  0
 21 22  1  0
 22 23  1  0
 22 24  1  0
 25 26  2  0
 25 30  1  0
 26 27  1  0
 27 28  2  0
 28 29  1  0
 29 30  2  0
 29 31  1  0
 30 33  1  0
 31 32  3  0
M  END
>  <DRUGBANK_ID>  (1) 
DB06953

>  <COMMON_NAME>  (1) 
2-CHLORO-5-(3-CHLORO-PHENYL)-6-[(4-CYANO-PHENYL)-(3-METHYL-3H-IMIDAZOL-4-YL)- METHOXYMETHYL]-NICOTINONITRILE

$$$$
