
     RDKit          2D

 19 20  0  0  0  0  0  0  0  0999 V2000
    0.2449   -0.3404    0.0000 C   0  0  0  0  0  0  0  0  0  0  0  0
    0.2449   -1.1654    0.0000 S   0  0  0  0  0  0  0  0  0  0  0  0
    0.9593   -1.5779    0.0000 C   0  0  0  0  0  0  0  0  0  0  0  0
    0.9593   -2.4029    0.0000 C   0  0  0  0  0  0  0  0  0  0  0  0
    1.6268   -2.8879    0.0000 C   0  0  0  0  0  0  0  0  0  0  0  0
    1.3718   -3.6725    0.0000 N   0  0  0  0  0  0  0  0  0  0  0  0
    0.5468   -3.6725    0.0000 C   0  0  0  0  0  0  0  0  0  0  0  0
    0.0619   -4.3399    0.0000 O   0  0  0  0  0  0  0  0  0  0  0  0
    0.2919   -2.8879    0.0000 O   0  0  0  0  0  0  0  0  0  0  0  0
    1.8568   -4.3399    0.0000 N   0  0  0  0  0  0  0  0  0  0  0  0
    1.5212   -5.0936    0.0000 C   0  0  0  0  0  0  0  0  0  0  0  0
    2.0061   -5.7610    0.0000 C   0  0  0  0  0  0  0  0  0  0  0  0
    2.8311   -5.7610    0.0000 C   0  0  0  0  0  0  0  0  0  0  0  0
    3.0861   -6.5456    0.0000 C   0  0  0  0  0  0  0  0  0  0  0  0
    2.4186   -7.0306    0.0000 C   0  0  0  0  0  0  0  0  0  0  0  0
    1.7512   -6.5456    0.0000 O   0  0  0  0  0  0  0  0  0  0  0  0
    2.4186   -7.8556    0.0000 N   0  0  0  0  0  0  0  0  0  0  0  0
    3.1331   -8.2681    0.0000 O   0  0  0  0  0  0  0  0  0  0  0  0
    1.7041   -8.2681    0.0000 O   0  0  0  0  0  0  0  0  0  0  0  0
  1  2  1  0
  2  3  1  0
  3  4  1  0
  4  5  1  0
  4  9  1  0
  5  6  1  0
  6  7  1  0
  6 10  1  0
  7  8  2  0
  7  9  1  0
 10 11  2  0
 11 12  1  0
 12 13  2  0
 12 16  1  0
 13 14  1  0
 14 15  2  0
 15 16  1  0
 15 17  1  0
 17 18  2  0
 17 19  1  0
M  CHG  2  17   1  19  -1
M  END
>  <DRUGBANK_ID>  (1) 
DB13724

>  <COMMON_NAME>  (1) 
Nifuratel

>  <CAS_NUMBER>  (1) 
4936-47-4

>  <UNII>  (1) 
U60U6P08SP

>  <SYNONYMS>  (1) 
Nifuratel

$$$$
