
     RDKit          2D

 20 20  0  0  0  0  0  0  0  0999 V2000
    0.0000    0.6187    0.0000 P   0  0  0  0  0  0  0  0  0  0  0  0
    0.0000   -0.2062    0.0000 O   0  0  0  0  0  0  0  0  0  0  0  0
    0.8250    0.6187    0.0000 O   0  0  0  0  0  0  0  0  0  0  0  0
   -0.8250    0.6187    0.0000 O   0  0  0  0  0  0  0  0  0  0  0  0
   -0.7144   -1.4437    0.0000 C   0  0  0  0  0  0  0  0  0  0  0  0
    0.7144    1.8562    0.0000 C   0  0  0  0  0  0  0  0  0  0  0  0
    0.0000    1.4437    0.0000 C   0  0  0  0  0  0  0  0  0  0  0  0
    0.7144    2.6812    0.0000 C   0  0  0  0  0  0  0  0  0  0  0  0
   -0.7144   -0.6187    0.0000 C   0  0  0  0  0  0  0  0  0  0  0  0
   -1.4289   -1.8562    0.0000 C   0  0  0  0  0  0  0  0  0  0  0  0
    1.4289    3.0937    0.0000 C   0  0  0  0  0  0  0  0  0  0  0  0
    0.0000   -1.8562    0.0000 C   0  0  0  0  0  0  0  0  0  0  0  0
    1.4289    3.9187    0.0000 C   0  0  0  0  0  0  0  0  0  0  0  0
   -1.4289   -2.6812    0.0000 C   0  0  0  0  0  0  0  0  0  0  0  0
    2.1434    4.3312    0.0000 C   0  0  0  0  0  0  0  0  0  0  0  0
   -0.7144   -3.0937    0.0000 C   0  0  0  0  0  0  0  0  0  0  0  0
   -2.1434   -3.0937    0.0000 C   0  0  0  0  0  0  0  0  0  0  0  0
   -0.7144   -3.9187    0.0000 C   0  0  0  0  0  0  0  0  0  0  0  0
   -2.1434   -3.9187    0.0000 C   0  0  0  0  0  0  0  0  0  0  0  0
   -1.4289   -4.3312    0.0000 C   0  0  0  0  0  0  0  0  0  0  0  0
  1  2  1  0
  1  3  1  0
  1  4  2  0
  1  7  1  0
  2  9  1  0
  5  9  1  0
  5 10  1  0
  5 12  1  1
  6  7  1  0
  6  8  1  0
  8 11  1  0
 10 14  1  0
 11 13  1  0
 13 15  1  0
 14 16  2  0
 14 17  1  0
 16 18  1  0
 17 19  2  0
 18 20  2  0
 19 20  1  0
M  END
>  <DRUGBANK_ID>  (1) 
DB06966

>  <COMMON_NAME>  (1) 
Hexylphosphonic acid (S)-2-methyl-3-phenylpropyl ester

$$$$
