
     RDKit          2D

  6  4  0  0  0  0  0  0  0  0999 V2000
    0.0000    0.0000    0.0000 Al  0  0  0  0  0 15  0  0  0  0  0  0
    2.8286   -0.8250    0.0000 O   0  0  0  0  0  0  0  0  0  0  0  0
    2.8286    0.0000    0.0000 P   0  0  0  0  0  0  0  0  0  0  0  0
    2.8286    0.8250    0.0000 O   0  0  0  0  0  0  0  0  0  0  0  0
    3.6536    0.0000    0.0000 O   0  0  0  0  0  0  0  0  0  0  0  0
    2.0036    0.0000    0.0000 O   0  0  0  0  0  0  0  0  0  0  0  0
  2  3  1  0
  3  4  1  0
  3  5  1  0
  3  6  2  0
M  CHG  4   1   3   2  -1   4  -1   5  -1
M  END
>  <DRUGBANK_ID>  (1) 
DB14517

>  <SECONDARY_ACCESSION_NUMBERS>  (1) 
DBSALT002422

>  <COMMON_NAME>  (1) 
Aluminium phosphate

>  <CAS_NUMBER>  (1) 
7784-30-7

>  <UNII>  (1) 
F92V3S521O

>  <SYNONYMS>  (1) 
Aluminum phosphate

$$$$
