186
     RDKit          2D

 30 31  0  0  0  0  0  0  0  0999 V2000
   -1.3702    0.8056    0.0000 O   0  0  0  0  0  0  0  0  0  0  0  0
   -1.3702   -0.0194    0.0000 C   0  0  0  0  0  0  0  0  0  0  0  0
   -2.0847   -0.4319    0.0000 O   0  0  0  0  0  0  0  0  0  0  0  0
   -2.7991   -0.0194    0.0000 C   0  0  0  0  0  0  0  0  0  0  0  0
   -3.5136   -0.4319    0.0000 C   0  0  0  0  0  0  0  0  0  0  0  0
   -3.5136   -1.2569    0.0000 C   0  0  0  0  0  0  0  0  0  0  0  0
   -4.2281   -1.6694    0.0000 C   0  0  0  0  0  0  0  0  0  0  0  0
   -4.9426   -1.2569    0.0000 C   0  0  0  0  0  0  0  0  0  0  0  0
   -4.9426   -0.4319    0.0000 C   0  0  0  0  0  0  0  0  0  0  0  0
   -4.2281   -0.0194    0.0000 C   0  0  0  0  0  0  0  0  0  0  0  0
   -0.6557   -0.4319    0.0000 N   0  0  0  0  0  0  0  0  0  0  0  0
    0.0587   -0.0194    0.0000 C   0  0  0  0  0  0  0  0  0  0  0  0
    0.0587    0.8056    0.0000 C   0  0  0  0  0  0  0  0  0  0  0  0
    0.7732    1.2181    0.0000 C   0  0  0  0  0  0  0  0  0  0  0  0
    0.7732    2.0431    0.0000 C   0  0  0  0  0  0  0  0  0  0  0  0
    1.4877    2.4556    0.0000 C   0  0  0  0  0  0  0  0  0  0  0  0
    2.2021    2.0431    0.0000 C   0  0  0  0  0  0  0  0  0  0  0  0
    2.2021    1.2181    0.0000 C   0  0  0  0  0  0  0  0  0  0  0  0
    1.4877    0.8056    0.0000 C   0  0  0  0  0  0  0  0  0  0  0  0
    0.7732   -0.4319    0.0000 C   0  0  0  0  0  0  0  0  0  0  0  0
    0.7732   -1.2569    0.0000 O   0  0  0  0  0  0  0  0  0  0  0  0
    1.4877   -0.0194    0.0000 N   0  0  0  0  0  0  0  0  0  0  0  0
    2.2021   -0.4319    0.0000 C   0  0  0  0  0  0  0  0  0  0  0  0
    2.2021   -1.2569    0.0000 C   0  0  0  0  0  0  0  0  0  0  0  0
    2.9166   -0.0194    0.0000 C   0  0  0  0  0  0  0  0  0  0  0  0
    3.6311   -0.4319    0.0000 C   0  0  0  0  0  0  0  0  0  0  0  0
    4.3456   -0.0194    0.0000 C   0  0  0  0  0  0  0  0  0  0  0  0
    4.3456    0.8056    0.0000 O   0  0  0  0  0  0  0  0  0  0  0  0
    5.0600   -0.4319    0.0000 C   0  0  0  0  0  0  0  0  0  0  0  0
    5.7745   -0.0194    0.0000 O   0  0  0  0  0  0  0  0  0  0  0  0
  1  2  2  0
  2  3  1  0
  2 11  1  0
  3  4  1  0
  4  5  1  0
  5  6  2  0
  5 10  1  0
  6  7  1  0
  7  8  2  0
  8  9  1  0
  9 10  2  0
 12 11  1  0
 12 13  1  6
 12 20  1  0
 13 14  1  0
 14 15  2  0
 14 19  1  0
 15 16  1  0
 16 17  2  0
 17 18  1  0
 18 19  2  0
 20 21  2  0
 20 22  1  0
 22 23  1  0
 23 24  1  6
 23 25  1  0
 25 26  2  0
 26 27  1  0
 27 28  2  0
 27 29  1  0
 29 30  2  0
M  END
>  <DRUGBANK_ID>  (1) 
DB01810

>  <SECONDARY_ACCESSION_NUMBERS>  (1) 
EXPT00058

>  <COMMON_NAME>  (1) 
[1-(1-Methyl-4,5-Dioxo-Pent-2-Enylcarbamoyl)-2-Phenyl-Ethyl]-Carbamic Acid Benzyl Ester

$$$$
