
     RDKit          2D

 16 17  0  0  1  0  0  0  0  0999 V2000
    3.3523    1.1104    0.0000 C   0  0  0  0  0  0  0  0  0  0  0  0
    3.3523    1.9354    0.0000 C   0  0  0  0  0  0  0  0  0  0  0  0
    2.6378    0.6979    0.0000 C   0  0  0  0  0  0  0  0  0  0  0  0
    0.8838    2.9750    0.0000 C   0  0  0  0  0  0  0  0  0  0  0  0
    0.6538    1.5229    0.0000 C   0  0  0  0  0  0  0  0  0  0  0  0
    1.1387    2.1904    0.0000 C   0  0  0  0  0  0  0  0  0  0  0  0
    2.6378    2.3479    0.0000 C   0  0  0  0  0  0  0  0  0  0  0  0
    0.0768    3.1465    0.0000 C   0  0  0  0  0  0  0  0  0  0  0  0
    1.9233    1.1104    0.0000 C   0  0  0  0  0  0  0  0  0  0  0  0
    1.9233    1.9354    0.0000 C   0  0  0  0  0  0  0  0  0  0  0  0
   -0.1781    3.9312    0.0000 C   0  0  0  0  0  0  0  0  0  0  0  0
    2.6378    3.1729    0.0000 N   0  0  0  0  0  0  0  0  0  0  0  0
   -0.4752    2.5334    0.0000 N   0  0  0  0  0  0  0  0  0  0  0  0
    1.1387    0.8555    0.0000 N   0  0  0  0  0  0  0  0  0  0  0  0
   -0.9851    4.1027    0.0000 O   0  0  0  0  0  0  0  0  0  0  0  0
    0.3739    4.5442    0.0000 O   0  0  0  0  0  0  0  0  0  0  0  0
  2  1  2  0
  3  1  1  0
  6  4  1  0
  6  5  2  0
  7  2  1  0
  8  4  1  0
  8 13  1  6
  9  3  2  0
 10  6  1  0
 10  7  2  0
 10  9  1  0
 11  8  1  0
 12  7  1  0
 14  5  1  0
 14  9  1  0
 15 11  2  0
 16 11  1  0
M  END
>  <DRUGBANK_ID>  (1) 
DB02286

>  <SECONDARY_ACCESSION_NUMBERS>  (1) 
EXPT00218

>  <COMMON_NAME>  (1) 
2-amino-3-(4-amino-1H-indol-3-yl)propanoic acid

$$$$
