
     RDKit          2D

 30 35  0  0  0  0  0  0  0  0999 V2000
   -1.5915    0.1677    0.0000 O   0  0  0  0  0  0  0  0  0  0  0  0
   -1.3710   -0.6271    0.0000 C   0  0  0  0  0  0  0  0  0  0  0  0
   -1.9493   -1.2154    0.0000 C   0  0  0  0  0  0  0  0  0  0  0  0
   -2.7480   -1.0088    0.0000 C   0  0  0  0  0  0  0  0  0  0  0  0
   -3.3263   -1.5971    0.0000 C   0  0  0  0  0  0  0  0  0  0  0  0
   -3.1059   -2.3920    0.0000 C   0  0  0  0  0  0  0  0  0  0  0  0
   -2.3073   -2.5987    0.0000 C   0  0  0  0  0  0  0  0  0  0  0  0
   -1.7291   -2.0104    0.0000 C   0  0  0  0  0  0  0  0  0  0  0  0
   -0.5724   -0.8338    0.0000 O   0  0  0  0  0  0  0  0  0  0  0  0
    0.5235   -0.2085    0.0000 O   0  0  0  0  0  0  0  0  0  0  0  0
   -0.1906    0.3128    0.0000 C   0  0  0  0  0  0  0  0  0  0  0  0
    0.0465    0.9198    0.0000 C   0  0  0  0  0  0  0  0  0  0  0  0
    1.2045    0.3115    0.0000 C   0  0  0  0  0  0  0  0  0  0  0  0
    3.3263   -0.2596    0.0000 C   0  0  0  0  0  0  0  0  0  0  0  0
    2.5032   -0.3132    0.0000 O   0  0  0  0  0  0  0  0  0  0  0  0
    2.0451    0.3729    0.0000 C   0  0  0  0  0  0  0  0  0  0  0  0
    2.4205    1.1183    0.0000 C   0  0  0  0  0  0  0  0  0  0  0  0
    1.9421    1.8192    0.0000 C   0  0  0  0  0  0  0  0  0  0  0  0
    1.0729    1.8631    0.0000 C   0  0  0  0  0  0  0  0  0  0  0  0
    0.2823    2.3757    0.0000 C   0  0  0  0  0  0  0  0  0  0  0  0
   -0.6106    1.9271    0.0000 C   0  0  0  0  0  0  0  0  0  0  0  0
   -0.1676    1.7601    0.0000 C   0  0  0  0  0  0  0  0  0  0  0  0
   -0.9668    2.2062    0.0000 C   0  0  0  0  0  0  0  0  0  0  0  0
   -1.0132    0.7560    0.0000 C   0  0  0  0  0  0  0  0  0  0  0  0
   -1.5062    1.6343    0.0000 C   0  0  0  0  0  0  0  0  0  0  0  0
    0.8343    1.0648    0.0000 C   0  0  0  0  0  0  0  0  0  0  0  0
   -0.6743    0.2282    0.0000 C   0  0  0  0  0  0  0  0  0  0  0  0
   -1.2942    1.2589    0.0000 N   0  0  0  0  0  0  0  0  0  0  0  0
   -1.4647    0.4552    0.0000 C   0  0  0  0  0  0  0  0  0  0  0  0
   -2.0169    1.6566    0.0000 C   0  0  0  0  0  0  0  0  0  0  0  0
  1  2  1  0
  1 24  1  0
  2  9  2  0
  3  2  1  0
  3  8  1  0
  4  3  2  0
  4  5  1  0
  5  6  2  0
  7  6  1  0
  8  7  2  0
 11 12  1  0
 11 24  1  0
 11 10  1  1
 12 22  1  0
 12 26  1  0
 12 27  1  6
 13 10  1  0
 13 26  2  0
 15 14  1  0
 15 16  1  0
 16 13  1  0
 17 18  1  0
 17 16  2  0
 18 19  2  0
 19 26  1  0
 20 19  1  0
 21 22  1  0
 21 20  1  6
 21 28  1  0
 22 23  1  1
 24 25  2  0
 25 23  1  0
 28 29  1  0
 28 30  1  0
 29 27  1  0
M  END
>  <DRUGBANK_ID>  (1) 
DB15465

>  <COMMON_NAME>  (1) 
Benzhydrocodone

>  <CAS_NUMBER>  (1) 
1259440-61-3

>  <UNII>  (1) 
75MS0AAZ9I

>  <SYNONYMS>  (1) 
Benzhydrocodone

$$$$
