
     RDKit          2D

 26 27  0  0  0  0  0  0  0  0999 V2000
   -1.4306    0.9762    0.0000 C   0  0  0  0  0  0  0  0  0  0  0  0
   -1.4333    0.1482    0.0000 C   0  0  0  0  0  0  0  0  0  0  0  0
   -0.7214   -0.2656    0.0000 C   0  0  0  0  0  0  0  0  0  0  0  0
   -0.7248    1.3891    0.0000 C   0  0  0  0  0  0  0  0  0  0  0  0
   -0.0048    0.9829    0.0000 C   0  0  0  0  0  0  0  0  0  0  0  0
   -0.0063    0.1485    0.0000 C   0  0  0  0  0  0  0  0  0  0  0  0
    0.7123   -0.2684    0.0000 C   0  0  0  0  0  0  0  0  0  0  0  0
    1.4304    0.1445    0.0000 N   0  0  0  0  0  0  0  0  0  0  0  0
    1.4335    0.9791    0.0000 C   0  0  0  0  0  0  0  0  0  0  0  0
    0.7108    1.3957    0.0000 C   0  0  0  0  0  0  0  0  0  0  0  0
    2.1472    1.3914    0.0000 C   0  0  0  0  0  0  0  0  0  0  0  0
    2.8621    0.9783    0.0000 N   0  0  0  0  0  0  0  0  0  0  0  0
    3.5753    1.3904    0.0000 C   0  0  0  0  0  0  0  0  0  0  0  0
    2.1472    2.2146    0.0000 O   0  0  0  0  0  0  0  0  0  0  0  0
   -2.1470   -0.2641    0.0000 N   0  0  0  0  0  0  0  0  0  0  0  0
   -2.8615    0.1486    0.0000 S   0  0  0  0  0  0  0  0  0  0  0  0
   -3.5753    0.5610    0.0000 O   0  0  0  0  0  0  0  0  0  0  0  0
   -2.4488    0.8629    0.0000 O   0  0  0  0  0  0  0  0  0  0  0  0
   -3.2734   -0.5647    0.0000 O   0  0  0  0  0  0  0  0  0  0  0  0
    2.1440   -0.2678    0.0000 C   0  0  0  0  0  0  0  0  0  0  0  0
    2.8612    0.1437    0.0000 O   0  0  0  0  0  0  0  0  0  0  0  0
    2.1429   -1.0924    0.0000 O   0  0  0  0  0  0  0  0  0  0  0  0
    2.8565   -1.5056    0.0000 C   0  0  0  0  0  0  0  0  0  0  0  0
    2.4363   -2.2146    0.0000 C   0  0  0  0  0  0  0  0  0  0  0  0
    3.2609   -0.7897    0.0000 C   0  0  0  0  0  0  0  0  0  0  0  0
    3.5631   -1.9168    0.0000 C   0  0  0  0  0  0  0  0  0  0  0  0
  1  2  2  0
  2 15  1  0
  2  3  1  0
  3  6  2  0
  4  1  1  0
  5  6  1  0
  5 10  1  0
  5  4  2  0
  6  7  1  0
  7  8  1  0
  8  9  1  0
  8 20  1  0
  9 10  1  0
  9 11  1  1
 11 12  1  0
 11 14  2  0
 12 13  1  0
 15 16  1  0
 16 17  2  0
 16 18  2  0
 16 19  1  0
 20 21  2  0
 20 22  1  0
 22 23  1  0
 23 24  1  0
 23 25  1  0
 23 26  1  0
M  END
>  <DRUGBANK_ID>  (1) 
DB06887

>  <COMMON_NAME>  (1) 
[(3S)-3-(Methylcarbamoyl)-2-{[(2-methyl-2-propanyl)oxy]carbonyl}-1,2,3,4-tetrahydro-7-isoquinolinyl]sulfamic acid

$$$$
