
     RDKit          2D

 38 43  0  0  0  0  0  0  0  0999 V2000
    7.4145    0.8385    0.0000 C   0  0  0  0  0  0  0  0  0  0  0  0
    6.6655    1.1843    0.0000 O   0  0  0  0  0  0  0  0  0  0  0  0
    5.9915    0.7086    0.0000 C   0  0  0  0  0  0  0  0  0  0  0  0
    5.2425    1.0544    0.0000 N   0  0  0  0  0  0  0  0  0  0  0  0
    4.5685    0.5786    0.0000 C   0  0  0  0  0  0  0  0  0  0  0  0
    4.6435   -0.2429    0.0000 C   0  0  0  0  0  0  0  0  0  0  0  0
    5.3925   -0.5888    0.0000 C   0  0  0  0  0  0  0  0  0  0  0  0
    6.0665   -0.1130    0.0000 C   0  0  0  0  0  0  0  0  0  0  0  0
    7.0107   -0.4410    0.0000 N   0  0  0  0  0  0  0  0  0  0  0  0
    7.5963   -1.0222    0.0000 S   0  0  0  0  0  0  0  0  0  0  0  0
    7.8980   -0.2543    0.0000 O   0  0  0  0  0  0  0  0  0  0  0  0
    8.4208   -0.9950    0.0000 O   0  0  0  0  0  0  0  0  0  0  0  0
    7.9478   -1.7685    0.0000 C   0  0  0  0  0  0  0  0  0  0  0  0
    8.7699   -1.8373    0.0000 C   0  0  0  0  0  0  0  0  0  0  0  0
    9.1214   -2.5837    0.0000 C   0  0  0  0  0  0  0  0  0  0  0  0
    8.6508   -3.2613    0.0000 C   0  0  0  0  0  0  0  0  0  0  0  0
    9.0022   -4.0077    0.0000 F   0  0  0  0  0  0  0  0  0  0  0  0
    7.8286   -3.1925    0.0000 C   0  0  0  0  0  0  0  0  0  0  0  0
    7.4771   -2.4461    0.0000 C   0  0  0  0  0  0  0  0  0  0  0  0
    7.3417   -4.0654    0.0000 C   0  0  0  0  0  0  0  0  0  0  0  0
    7.9550   -4.6171    0.0000 O   0  0  0  0  0  0  0  0  0  0  0  0
    6.6677   -4.5412    0.0000 N   0  0  0  0  0  0  0  0  0  0  0  0
    5.8716   -4.7577    0.0000 C   0  0  0  0  0  0  0  0  0  0  0  0
    5.0494   -4.6889    0.0000 C   0  0  0  0  0  0  0  0  0  0  0  0
    4.3925   -5.1879    0.0000 C   0  0  0  0  0  0  0  0  0  0  0  0
    3.7149   -4.7173    0.0000 C   0  0  0  0  0  0  0  0  0  0  0  0
    3.9531   -3.9274    0.0000 C   0  0  0  0  0  0  0  0  0  0  0  0
    4.7779   -3.9099    0.0000 S   0  0  0  0  0  0  0  0  0  0  0  0
    3.3634   -3.0156    0.0000 C   0  0  0  0  0  0  0  0  0  0  0  0
    2.6019   -3.3331    0.0000 N   0  0  0  0  0  0  0  0  0  0  0  0
    1.9462   -2.8325    0.0000 C   0  0  0  0  0  0  0  0  0  0  0  0
    2.0519   -2.0143    0.0000 N   0  0  0  0  0  0  0  0  0  0  0  0
    2.8134   -1.6967    0.0000 C   0  0  0  0  0  0  0  0  0  0  0  0
    3.0869   -0.9184    0.0000 C   0  0  0  0  0  0  0  0  0  0  0  0
    2.6179   -0.2396    0.0000 C   0  0  0  0  0  0  0  0  0  0  0  0
    3.9116   -0.9380    0.0000 C   0  0  0  0  0  0  0  0  0  0  0  0
    4.1479   -1.7284    0.0000 S   0  0  0  0  0  0  0  0  0  0  0  0
    3.4691   -2.1974    0.0000 C   0  0  0  0  0  0  0  0  0  0  0  0
  1  2  1  0
  2  3  1  0
  3  4  2  0
  3  8  1  0
  4  5  1  0
  5  6  2  0
  6  7  1  0
  6 36  1  0
  7  8  2  0
  8  9  1  0
  9 10  1  0
 10 11  2  0
 10 12  2  0
 10 13  1  0
 13 14  2  0
 13 19  1  0
 14 15  1  0
 15 16  2  0
 16 17  1  0
 16 18  1  0
 18 19  2  0
 18 20  1  0
 20 21  2  0
 20 22  1  0
 22 23  1  0
 23 24  1  0
 24 25  2  0
 24 28  1  0
 25 26  1  0
 26 27  2  0
 27 28  1  0
 27 29  1  0
 29 30  1  0
 29 38  2  0
 30 31  2  0
 31 32  1  0
 32 33  2  0
 33 34  1  0
 33 38  1  0
 34 35  1  0
 34 36  2  0
 36 37  1  0
 37 38  1  0
M  END
>  <DRUGBANK_ID>  (1) 
DB18114

>  <COMMON_NAME>  (1) 
AUM-302

>  <CAS_NUMBER>  (1) 
1414455-21-2

>  <UNII>  (1) 
F7WQK85U32

>  <SYNONYMS>  (1) 
19H-22,25-Epithio-4,6:7,11:14,18-trimetheno-12H-pyrimido[5,4-j][1,9,2,5,17]dithiatriazacyclotricosin-19-one, 17-fluoro-20,21-dihydro-10-methoxy-29-methyl-, 13,13-dioxide

$$$$
