DY6
     RDKit          2D

 31 34  0  0  0  0  0  0  0  0999 V2000
    1.3511   -0.2192    0.0000 N   0  0  0  0  0  0  0  0  0  0  0  0
    0.6366   -0.6317    0.0000 S   0  0  0  0  0  0  0  0  0  0  0  0
    2.0655   -0.6317    0.0000 C   0  0  0  0  0  0  0  0  0  0  0  0
    1.3511    0.6058    0.0000 C   0  0  0  0  0  0  0  0  0  0  0  0
   -0.0779   -1.0442    0.0000 C   0  0  0  0  0  0  0  0  0  0  0  0
    0.2241    0.0828    0.0000 O   0  0  0  0  0  0  0  0  0  0  0  0
    1.0491   -1.3462    0.0000 O   0  0  0  0  0  0  0  0  0  0  0  0
    2.7800   -0.2192    0.0000 C   0  0  0  0  0  0  0  0  0  0  0  0
    2.0655    1.0183    0.0000 C   0  0  0  0  0  0  0  0  0  0  0  0
   -0.7923   -0.6317    0.0000 C   0  0  0  0  0  0  0  0  0  0  0  0
   -0.0779   -1.8692    0.0000 C   0  0  0  0  0  0  0  0  0  0  0  0
    2.7800    0.6058    0.0000 C   0  0  0  0  0  0  0  0  0  0  0  0
    3.4945   -0.6317    0.0000 C   0  0  0  0  0  0  0  0  0  0  0  0
   -1.5068   -1.0442    0.0000 C   0  0  0  0  0  0  0  0  0  0  0  0
   -0.7923   -2.2817    0.0000 C   0  0  0  0  0  0  0  0  0  0  0  0
    3.4945    1.0183    0.0000 C   0  0  0  0  0  0  0  0  0  0  0  0
    4.2090   -0.2192    0.0000 C   0  0  0  0  0  0  0  0  0  0  0  0
   -2.2213   -0.6317    0.0000 C   0  0  0  0  0  0  0  0  0  0  0  0
   -1.5068   -1.8692    0.0000 C   0  0  0  0  0  0  0  0  0  0  0  0
    4.2090    0.6058    0.0000 C   0  0  0  0  0  0  0  0  0  0  0  0
   -2.2213    0.1933    0.0000 N   0  0  0  0  0  0  0  0  0  0  0  0
   -2.9357   -1.0442    0.0000 O   0  0  0  0  0  0  0  0  0  0  0  0
   -2.9357    0.6058    0.0000 C   0  0  0  0  0  0  0  0  0  0  0  0
   -2.9357    1.4308    0.0000 C   0  0  0  0  0  0  0  0  0  0  0  0
   -3.6502    0.1933    0.0000 C   0  0  0  0  0  0  0  0  0  0  0  0
   -3.6502    1.8433    0.0000 C   0  0  0  0  0  0  0  0  0  0  0  0
   -2.2213    1.8433    0.0000 C   0  0  0  0  0  0  0  0  0  0  0  0
   -4.3647    0.6058    0.0000 C   0  0  0  0  0  0  0  0  0  0  0  0
   -4.3647    1.4308    0.0000 C   0  0  0  0  0  0  0  0  0  0  0  0
   -2.2213    2.6683    0.0000 O   0  0  0  0  0  0  0  0  0  0  0  0
   -1.5068    1.4308    0.0000 O   0  0  0  0  0  0  0  0  0  0  0  0
  1  2  1  0
  1  4  1  0
  2  6  2  0
  3  1  1  0
  4  9  1  0
  5  2  1  0
  5 11  1  0
  7  2  2  0
  8  3  1  0
  8 12  2  0
 10  5  2  0
 12  9  1  0
 13  8  1  0
 14 10  1  0
 14 19  2  0
 15 11  2  0
 16 12  1  0
 17 13  2  0
 17 20  1  0
 18 14  1  0
 19 15  1  0
 20 16  2  0
 21 18  1  0
 22 18  2  0
 23 21  1  0
 24 23  2  0
 24 27  1  0
 25 23  1  0
 26 24  1  0
 27 30  1  0
 28 25  2  0
 29 26  2  0
 29 28  1  0
 31 27  2  0
M  END
>  <DRUGBANK_ID>  (1) 
DB07691

>  <COMMON_NAME>  (1) 
2-({[3-(3,4-dihydroisoquinolin-2(1H)-ylsulfonyl)phenyl]carbonyl}amino)benzoic acid

$$$$
