
     RDKit          2D

 24 26  0  0  0  0  0  0  0  0999 V2000
    3.9934    0.8250    0.0000 C   0  0  0  0  0  0  0  0  0  0  0  0
    3.2789    1.2375    0.0000 C   0  0  0  0  0  0  0  0  0  0  0  0
    0.0574    1.1270    0.0000 C   0  0  0  0  0  0  0  0  0  0  0  0
   -1.1801    0.4125    0.0000 C   0  0  0  0  0  0  0  0  0  0  0  0
   -1.1801    1.8414    0.0000 C   0  0  0  0  0  0  0  0  0  0  0  0
    3.2789   -0.4125    0.0000 C   0  0  0  0  0  0  0  0  0  0  0  0
    1.7798   -0.2549    0.0000 C   0  0  0  0  0  0  0  0  0  0  0  0
   -0.7676    1.1270    0.0000 C   0  0  0  0  0  0  0  0  0  0  0  0
    3.9934    0.0000    0.0000 C   0  0  0  0  0  0  0  0  0  0  0  0
    2.5645    0.0000    0.0000 C   0  0  0  0  0  0  0  0  0  0  0  0
    0.4699    0.4125    0.0000 C   0  0  0  0  0  0  0  0  0  0  0  0
   -0.7676   -0.3020    0.0000 C   0  0  0  0  0  0  0  0  0  0  0  0
    2.5645    0.8250    0.0000 C   0  0  0  0  0  0  0  0  0  0  0  0
    1.2949    0.4125    0.0000 C   0  0  0  0  0  0  0  0  0  0  0  0
   -0.7676    2.5559    0.0000 C   0  0  0  0  0  0  0  0  0  0  0  0
    0.0574   -0.3020    0.0000 C   0  0  0  0  0  0  0  0  0  0  0  0
    4.7079   -0.4125    0.0000 C   0  0  0  0  0  0  0  0  0  0  0  0
   -1.1801   -1.0164    0.0000 Br  0  0  0  0  0  0  0  0  0  0  0  0
    5.4223   -0.0000    0.0000 N   0  0  0  0  0  0  0  0  0  0  0  0
    4.7079   -1.2375    0.0000 N   0  0  0  0  0  0  0  0  0  0  0  0
    1.7798    1.0799    0.0000 N   0  0  0  0  0  0  0  0  0  0  0  0
   -1.1801    3.2704    0.0000 O   0  0  0  0  0  0  0  0  0  0  0  0
    0.0574    2.5559    0.0000 O   0  0  0  0  0  0  0  0  0  0  0  0
    0.4699   -1.0164    0.0000 O   0  0  0  0  0  0  0  0  0  0  0  0
  2  1  2  0
  8  3  2  0
  8  4  1  0
  8  5  1  0
  9  1  1  0
  9  6  2  0
 10  6  1  0
 10  7  1  0
 11  3  1  0
 12  4  2  0
 13  2  1  0
 13 10  2  0
 14  7  2  0
 14 11  1  0
 15  5  1  0
 16 11  2  0
 16 12  1  0
 17  9  1  0
 18 12  1  0
 19 17  2  0
 20 17  1  0
 21 13  1  0
 21 14  1  0
 22 15  2  0
 23 15  1  0
 24 16  1  0
M  CHG  1  23  -1
M  END
>  <DRUGBANK_ID>  (1) 
DB04563

>  <SECONDARY_ACCESSION_NUMBERS>  (1) 
EXPT00276

>  <COMMON_NAME>  (1) 
CRA_9678

$$$$
