
     RDKit          2D

 32 32  0  0  1  0  0  0  0  0999 V2000
    5.0013  -10.3125    0.0000 O   0  0  0  0  0  0  0  0  0  0  0  0
    5.7158   -9.9000    0.0000 C   0  0  0  0  0  0  0  0  0  0  0  0
    5.7158   -9.0750    0.0000 O   0  0  0  0  0  0  0  0  0  0  0  0
    6.4302  -10.3125    0.0000 C   0  0  0  0  0  0  0  0  0  0  0  0
    7.1447   -9.9000    0.0000 C   0  0  0  0  0  0  0  0  0  0  0  0
    7.8592  -10.3125    0.0000 C   0  0  0  0  0  0  0  0  0  0  0  0
    8.5737   -9.9000    0.0000 N   0  0  0  0  0  0  0  0  0  0  0  0
    9.2881  -10.3125    0.0000 C   0  0  0  0  0  0  0  0  0  0  0  0
    9.2881  -11.1375    0.0000 O   0  0  0  0  0  0  0  0  0  0  0  0
   10.0026   -9.9000    0.0000 N   0  0  0  0  0  0  0  0  0  0  0  0
   10.7171  -10.3125    0.0000 C   0  0  0  0  0  0  0  0  0  0  0  0
   11.4315   -9.9000    0.0000 C   0  0  0  0  0  0  0  0  0  0  0  0
   12.1460  -10.3125    0.0000 C   0  0  0  0  0  0  0  0  0  0  0  0
   12.8605   -9.9000    0.0000 C   0  0  0  0  0  0  0  0  0  0  0  0
   13.5749  -10.3125    0.0000 C   0  0  0  0  0  0  0  0  0  0  0  0
   14.2894   -9.9000    0.0000 N   0  0  0  0  0  0  0  0  0  0  0  0
   15.0039  -10.3125    0.0000 C   0  0  0  0  0  0  0  0  0  0  0  0
   15.0039  -11.1375    0.0000 O   0  0  0  0  0  0  0  0  0  0  0  0
   15.7184   -9.9000    0.0000 N   0  0  0  0  0  0  0  0  0  0  0  0
   16.4328  -10.3125    0.0000 C   0  0  0  0  0  0  0  0  0  0  0  0
   17.1473   -9.9000    0.0000 C   0  0  0  0  0  0  0  0  0  0  0  0
   17.8618  -10.3125    0.0000 C   0  0  0  0  0  0  0  0  0  0  0  0
   17.8618  -11.1375    0.0000 C   0  0  0  0  0  0  0  0  0  0  0  0
   18.5762  -11.5500    0.0000 I   0  0  0  0  0  0  0  0  0  0  0  0
   17.1473  -11.5500    0.0000 C   0  0  0  0  0  0  0  0  0  0  0  0
   16.4328  -11.1375    0.0000 C   0  0  0  0  0  0  0  0  0  0  0  0
   10.7171  -11.1375    0.0000 C   0  0  0  0  0  0  0  0  0  0  0  0
   11.4315  -11.5500    0.0000 O   0  0  0  0  0  0  0  0  0  0  0  0
   10.0026  -11.5500    0.0000 O   0  0  0  0  0  0  0  0  0  0  0  0
    7.8592  -11.1375    0.0000 C   0  0  0  0  0  0  0  0  0  0  0  0
    8.5737  -11.5500    0.0000 O   0  0  0  0  0  0  0  0  0  0  0  0
    7.1447  -11.5500    0.0000 O   0  0  0  0  0  0  0  0  0  0  0  0
  1  2  1  0
  2  3  2  0
  2  4  1  0
  4  5  1  0
  6  5  1  6
  6  7  1  0
  6 30  1  0
  7  8  1  0
  8  9  2  0
  8 10  1  0
 11 10  1  0
 11 12  1  1
 11 27  1  0
 12 13  1  0
 13 14  1  0
 14 15  1  0
 15 16  1  0
 16 17  1  0
 17 18  2  0
 17 19  1  0
 19 20  1  0
 20 21  2  0
 20 26  1  0
 21 22  1  0
 22 23  2  0
 23 24  1  0
 23 25  1  0
 25 26  2  0
 27 28  1  0
 27 29  2  0
 30 31  1  0
 30 32  2  0
M  ISO  1  24 131
M  END
>  <DRUGBANK_ID>  (1) 
DB14978

>  <COMMON_NAME>  (1) 
MIP-1095 I-131

>  <CAS_NUMBER>  (1) 
1258980-67-4

>  <UNII>  (1) 
7DM27RQ9V0

>  <SYNONYMS>  (1) 
131I-MIP-1095

$$$$
