
     RDKit          2D

 25 27  0  0  0  0  0  0  0  0999 V2000
    5.3071   -2.6919    0.0000 C   0  0  0  0  0  0  0  0  0  0  0  0
    4.4821   -2.6919    0.0000 C   0  0  0  0  0  0  0  0  0  0  0  0
    4.2272   -1.9072    0.0000 S   0  0  0  0  0  0  0  0  0  0  0  0
    4.8946   -1.4223    0.0000 C   0  0  0  0  0  0  0  0  0  0  0  0
    5.5620   -1.9072    0.0000 C   0  0  0  0  0  0  0  0  0  0  0  0
    4.8946   -0.5973    0.0000 C   0  0  0  0  0  0  0  0  0  0  0  0
    4.1801   -0.1848    0.0000 O   0  0  0  0  0  0  0  0  0  0  0  0
    5.6091   -0.1848    0.0000 N   0  0  0  0  0  0  0  0  0  0  0  0
    5.6091    0.6402    0.0000 C   0  0  0  0  0  0  0  0  0  0  0  0
    4.8946    1.0527    0.0000 C   0  0  0  0  0  0  0  0  0  0  0  0
    4.8946    1.8777    0.0000 C   0  0  0  0  0  0  0  0  0  0  0  0
    5.6091    2.2902    0.0000 C   0  0  0  0  0  0  0  0  0  0  0  0
    6.3235    1.8777    0.0000 C   0  0  0  0  0  0  0  0  0  0  0  0
    6.3235    1.0527    0.0000 C   0  0  0  0  0  0  0  0  0  0  0  0
    7.0380    0.6402    0.0000 C   0  0  0  0  0  0  0  0  0  0  0  0
    7.7525    1.0527    0.0000 N   0  0  0  0  0  0  0  0  0  0  0  0
    8.4669    0.6402    0.0000 C   0  0  0  0  0  0  0  0  0  0  0  0
    9.1814    1.0527    0.0000 C   0  0  0  0  0  0  0  0  0  0  0  0
    9.8959    0.6402    0.0000 C   0  0  0  0  0  0  0  0  0  0  0  0
    9.8959   -0.1848    0.0000 C   0  0  0  0  0  0  0  0  0  0  0  0
    9.1814   -0.5973    0.0000 C   0  0  0  0  0  0  0  0  0  0  0  0
    8.4669   -0.1848    0.0000 C   0  0  0  0  0  0  0  0  0  0  0  0
   10.6104   -0.5973    0.0000 O   0  0  0  0  0  0  0  0  0  0  0  0
    5.6091    3.1152    0.0000 Br  0  0  0  0  0  0  0  0  0  0  0  0
    4.1801    0.6402    0.0000 Br  0  0  0  0  0  0  0  0  0  0  0  0
  1  2  2  0
  1  5  1  0
  2  3  1  0
  3  4  1  0
  4  5  2  0
  4  6  1  0
  6  7  2  0
  6  8  1  0
  8  9  1  0
  9 10  2  0
  9 14  1  0
 10 11  1  0
 10 25  1  0
 11 12  2  0
 12 13  1  0
 12 24  1  0
 13 14  2  0
 14 15  1  0
 15 16  1  0
 17 16  1  1
 17 18  1  0
 17 22  1  0
 18 19  1  0
 19 20  1  0
 20 21  1  0
 20 23  1  6
 21 22  1  0
M  END
>  <DRUGBANK_ID>  (1) 
DB13239

>  <COMMON_NAME>  (1) 
Neltenexine

>  <CAS_NUMBER>  (1) 
99453-84-6

>  <UNII>  (1) 
U942DGM90X

>  <SYNONYMS>  (1) 
Neltenexine

$$$$
