
     RDKit          2D

 18 20  0  0  0  0  0  0  0  0999 V2000
   -0.4374    0.7374    0.0000 O   0  0  0  0  0  0  0  0  0  0  0  0
    0.3874    0.8249    0.0000 C   0  0  0  0  0  0  0  0  0  0  0  0
   -0.6124   -0.0708    0.0000 C   0  0  0  0  0  0  0  0  0  0  0  0
    0.1082   -0.4874    0.0000 C   0  0  0  0  0  0  0  0  0  0  0  0
    0.7249    0.0667    0.0000 C   0  0  0  0  0  0  0  0  0  0  0  0
   -1.3249   -0.4833    0.0000 C   0  0  0  0  0  0  0  0  0  0  0  0
   -1.3249   -1.3124    0.0000 C   0  0  0  0  0  0  0  0  0  0  0  0
    0.1082   -1.3124    0.0000 C   0  0  0  0  0  0  0  0  0  0  0  0
   -0.6124   -1.7248    0.0000 C   0  0  0  0  0  0  0  0  0  0  0  0
    1.6331    2.9623    0.0000 N   0  0  0  0  0  0  0  0  0  0  0  0
    0.7999    1.5374    0.0000 C   0  0  0  0  0  0  0  0  0  0  0  0
   -2.0374   -0.0749    0.0000 Br  0  0  0  0  0  0  0  0  0  0  0  0
   -0.6124   -2.5498    0.0000 O   0  0  0  0  0  0  0  0  0  0  0  0
    2.0374    2.2415    0.0000 C   0  0  0  0  0  0  0  0  0  0  0  0
    0.8082    2.9623    0.0000 C   0  0  0  0  0  0  0  0  0  0  0  0
    1.6249    1.5290    0.0000 C   0  0  0  0  0  0  0  0  0  0  0  0
    0.3874    2.2498    0.0000 C   0  0  0  0  0  0  0  0  0  0  0  0
   -1.3249   -2.9623    0.0000 C   0  0  0  0  0  0  0  0  0  0  0  0
  2  1  1  0
  3  1  1  0
  4  3  2  0
  5  2  2  0
  5  4  1  0
  6  3  1  0
  7  6  2  0
  8  4  1  0
  9  7  1  0
  9  8  2  0
 10 15  1  0
 10 14  1  0
 11  2  1  0
 12  6  1  0
 13  9  1  0
 14 16  1  0
 15 17  1  0
 16 11  1  0
 17 11  1  0
 18 13  1  0
M  END
>  <DRUGBANK_ID>  (1) 
DB13876

>  <COMMON_NAME>  (1) 
Brofaromine

>  <CAS_NUMBER>  (1) 
63638-91-5

>  <UNII>  (1) 
6WV4B8Q07H

>  <SYNONYMS>  (1) 
Brofaromine; Consonar

$$$$
