
     RDKit          2D

 31 32  0  0  0  0  0  0  0  0999 V2000
    5.2908   -6.5946    0.0000 C   0  0  0  0  0  0  0  0  0  0  0  0
    4.4658   -6.5946    0.0000 C   0  0  0  0  0  0  0  0  0  0  0  0
    4.0533   -7.3091    0.0000 C   0  0  0  0  0  0  0  0  0  0  0  0
    4.0533   -5.8801    0.0000 N   0  0  0  0  0  0  0  0  0  0  0  0
    3.2283   -5.8801    0.0000 C   0  0  0  0  0  0  0  0  0  0  0  0
    2.8158   -5.1657    0.0000 C   0  0  0  0  0  0  0  0  0  0  0  0
    1.9908   -5.1657    0.0000 N   0  0  0  0  0  0  0  0  0  0  0  0
    1.5783   -4.4512    0.0000 C   0  0  0  0  0  0  0  0  0  0  0  0
    1.9908   -3.7367    0.0000 O   0  0  0  0  0  0  0  0  0  0  0  0
    0.7533   -4.4512    0.0000 C   0  0  0  0  0  0  0  0  0  0  0  0
    0.2684   -5.1186    0.0000 C   0  0  0  0  0  0  0  0  0  0  0  0
   -0.5162   -4.8637    0.0000 S   0  0  0  0  0  0  0  0  0  0  0  0
   -0.5162   -4.0387    0.0000 C   0  0  0  0  0  0  0  0  0  0  0  0
    0.2684   -3.7837    0.0000 N   0  0  0  0  0  0  0  0  0  0  0  0
   -1.1837   -3.5538    0.0000 N   0  0  0  0  0  0  0  0  0  0  0  0
   -1.9374   -3.8893    0.0000 C   0  0  0  0  0  0  0  0  0  0  0  0
   -2.0236   -4.7098    0.0000 O   0  0  0  0  0  0  0  0  0  0  0  0
   -2.6048   -3.4044    0.0000 C   0  0  0  0  0  0  0  0  0  0  0  0
   -3.3585   -3.7400    0.0000 C   0  0  0  0  0  0  0  0  0  0  0  0
   -4.0259   -3.2550    0.0000 C   0  0  0  0  0  0  0  0  0  0  0  0
   -3.9397   -2.4346    0.0000 C   0  0  0  0  0  0  0  0  0  0  0  0
   -3.1860   -2.0990    0.0000 C   0  0  0  0  0  0  0  0  0  0  0  0
   -2.5186   -2.5839    0.0000 C   0  0  0  0  0  0  0  0  0  0  0  0
   -1.7649   -2.2484    0.0000 O   0  0  0  0  0  0  0  0  0  0  0  0
   -4.6071   -1.9496    0.0000 O   0  0  0  0  0  0  0  0  0  0  0  0
   -5.3608   -2.2852    0.0000 C   0  0  0  0  0  0  0  0  0  0  0  0
   -4.7796   -3.5906    0.0000 O   0  0  0  0  0  0  0  0  0  0  0  0
   -5.4470   -3.1057    0.0000 C   0  0  0  0  0  0  0  0  0  0  0  0
    4.4658   -5.1657    0.0000 C   0  0  0  0  0  0  0  0  0  0  0  0
    4.0533   -4.4512    0.0000 C   0  0  0  0  0  0  0  0  0  0  0  0
    5.2908   -5.1657    0.0000 C   0  0  0  0  0  0  0  0  0  0  0  0
  1  2  1  0
  2  3  1  0
  2  4  1  0
  4  5  1  0
  4 29  1  0
  5  6  1  0
  6  7  1  0
  7  8  1  0
  8  9  2  0
  8 10  1  0
 10 11  2  0
 10 14  1  0
 11 12  1  0
 12 13  1  0
 13 14  2  0
 13 15  1  0
 15 16  1  0
 16 17  2  0
 16 18  1  0
 18 19  2  0
 18 23  1  0
 19 20  1  0
 20 21  2  0
 20 27  1  0
 21 22  1  0
 21 25  1  0
 22 23  2  0
 23 24  1  0
 25 26  1  0
 27 28  1  0
 29 30  1  0
 29 31  1  0
M  END
>  <DRUGBANK_ID>  (1) 
DB12482

>  <COMMON_NAME>  (1) 
Acotiamide

>  <CAS_NUMBER>  (1) 
185106-16-5

>  <UNII>  (1) 
D42OWK5383

>  <SYNONYMS>  (1) 
Acotiamide

$$$$
