
     RDKit          2D

 17 18  0  0  0  0  0  0  0  0999 V2000
    1.7096    0.3359    0.0000 Zn  0  0  0  0  0  2  0  0  0  0  0  0
    1.9690   -0.4593    0.0000 O   0  0  0  0  0  0  0  0  0  0  0  0
    1.3014   -1.7691    0.0000 O   0  0  0  0  0  0  0  0  0  0  0  0
   -0.3488    1.0419    0.0000 O   0  0  0  0  0  0  0  0  0  0  0  0
    0.8846    0.3359    0.0000 N   0  0  0  0  0  0  0  0  0  0  0  0
   -1.4588   -0.9440    0.0000 N   0  0  0  0  0  0  0  0  0  0  0  0
   -1.8670    0.3189    0.0000 N   0  0  0  0  0  0  0  0  0  0  0  0
    2.1264    1.0419    0.0000 N   0  0  0  0  0  0  0  0  0  0  0  0
    0.6379   -0.4593    0.0000 C   0  0  0  0  0  0  0  0  0  0  0  0
    1.3014   -0.9440    0.0000 C   0  0  0  0  0  0  0  0  0  0  0  0
    0.4763    1.0419    0.0000 C   0  0  0  0  0  0  0  0  0  0  0  0
   -0.0807   -0.8633    0.0000 C   0  0  0  0  0  0  0  0  0  0  0  0
   -0.7953   -0.4593    0.0000 C   0  0  0  0  0  0  0  0  0  0  0  0
    0.8846    1.7691    0.0000 C   0  0  0  0  0  0  0  0  0  0  0  0
   -1.0419    0.3359    0.0000 C   0  0  0  0  0  0  0  0  0  0  0  0
   -2.1264   -0.4593    0.0000 C   0  0  0  0  0  0  0  0  0  0  0  0
    1.7096    1.7691    0.0000 C   0  0  0  0  0  0  0  0  0  0  0  0
  1  2  1  0
  1  5  1  0
  2 10  1  0
  3 10  2  0
  4 11  2  0
  5  9  1  0
  5 11  1  0
  6 13  1  0
  6 16  1  0
  7 15  1  0
  7 16  2  0
  8 17  1  0
  9 10  1  0
  9 12  1  6
 11 14  1  0
 12 13  1  0
 13 15  2  0
 14 17  1  0
M  END
>  <DRUGBANK_ID>  (1) 
DB09221

>  <COMMON_NAME>  (1) 
Polaprezinc

>  <CAS_NUMBER>  (1) 
107667-60-7

>  <UNII>  (1) 
0WA1B15A1Z

>  <SYNONYMS>  (1) 
beta-Alanyl-L-histidinato zinc; Polaprezinc; Zinc L-carnosine

$$$$
