AAX
     RDKit          2D

 34 38  0  0  0  0  0  0  0  0999 V2000
   -1.4731   -1.2362    0.0000 O   0  0  0  0  0  0  0  0  0  0  0  0
   -2.2981   -1.2362    0.0000 S   0  0  0  0  0  0  0  0  0  0  0  0
   -3.1231   -1.2362    0.0000 O   0  0  0  0  0  0  0  0  0  0  0  0
   -2.2981   -2.0612    0.0000 N   0  0  0  0  0  0  0  0  0  0  0  0
   -3.0126   -2.4737    0.0000 C   0  0  0  0  0  0  0  0  0  0  0  0
   -3.0126   -3.2987    0.0000 C   0  0  0  0  0  0  0  0  0  0  0  0
   -2.6001   -4.0132    0.0000 C   0  0  0  0  0  0  0  0  0  0  0  0
   -3.4251   -4.0132    0.0000 C   0  0  0  0  0  0  0  0  0  0  0  0
   -2.2981   -0.4112    0.0000 C   0  0  0  0  0  0  0  0  0  0  0  0
   -3.0126    0.0013    0.0000 C   0  0  0  0  0  0  0  0  0  0  0  0
   -3.0126    0.8263    0.0000 C   0  0  0  0  0  0  0  0  0  0  0  0
   -1.5837    0.0013    0.0000 C   0  0  0  0  0  0  0  0  0  0  0  0
   -1.5837    0.8263    0.0000 C   0  0  0  0  0  0  0  0  0  0  0  0
   -2.2981    1.2388    0.0000 C   0  0  0  0  0  0  0  0  0  0  0  0
   -2.2981    2.0638    0.0000 O   0  0  0  0  0  0  0  0  0  0  0  0
   -1.5837    2.4763    0.0000 C   0  0  0  0  0  0  0  0  0  0  0  0
   -0.8692    1.2388    0.0000 N   0  0  0  0  0  0  0  0  0  0  0  0
   -0.1547    0.8263    0.0000 C   0  0  0  0  0  0  0  0  0  0  0  0
    0.5990    1.1619    0.0000 O   0  0  0  0  0  0  0  0  0  0  0  0
    1.1510    0.5488    0.0000 C   0  0  0  0  0  0  0  0  0  0  0  0
    0.7385   -0.1657    0.0000 C   0  0  0  0  0  0  0  0  0  0  0  0
   -0.0685    0.0058    0.0000 N   0  0  0  0  0  0  0  0  0  0  0  0
    1.9715    0.6350    0.0000 C   0  0  0  0  0  0  0  0  0  0  0  0
    2.3070    1.3887    0.0000 C   0  0  0  0  0  0  0  0  0  0  0  0
    3.1275    1.4749    0.0000 C   0  0  0  0  0  0  0  0  0  0  0  0
    3.6124    0.8075    0.0000 C   0  0  0  0  0  0  0  0  0  0  0  0
    3.2769    0.0538    0.0000 C   0  0  0  0  0  0  0  0  0  0  0  0
    2.4564   -0.0324    0.0000 C   0  0  0  0  0  0  0  0  0  0  0  0
    3.4631    2.2286    0.0000 C   0  0  0  0  0  0  0  0  0  0  0  0
    2.9781    2.8960    0.0000 C   0  0  0  0  0  0  0  0  0  0  0  0
    3.3137    3.6497    0.0000 N   0  0  0  0  0  0  0  0  0  0  0  0
    4.1342    3.7359    0.0000 C   0  0  0  0  0  0  0  0  0  0  0  0
    4.6191    3.0685    0.0000 C   0  0  0  0  0  0  0  0  0  0  0  0
    4.2835    2.3148    0.0000 C   0  0  0  0  0  0  0  0  0  0  0  0
  1  2  2  0
  2  3  2  0
  2  4  1  0
  2  9  1  0
  4  5  1  0
  5  6  1  0
  6  7  1  0
  6  8  1  0
  7  8  1  0
  9 10  2  0
  9 12  1  0
 10 11  1  0
 11 14  2  0
 12 13  2  0
 13 14  1  0
 13 17  1  0
 14 15  1  0
 15 16  1  0
 17 18  1  0
 18 19  1  0
 18 22  2  0
 19 20  1  0
 20 21  2  0
 20 23  1  0
 21 22  1  0
 23 24  2  0
 23 28  1  0
 24 25  1  0
 25 26  2  0
 25 29  1  0
 26 27  1  0
 27 28  2  0
 29 30  2  0
 29 34  1  0
 30 31  1  0
 31 32  2  0
 32 33  1  0
 33 34  2  0
M  END
>  <DRUGBANK_ID>  (1) 
DB07333

>  <COMMON_NAME>  (1) 
N-(CYCLOPROPYLMETHYL)-4-(METHYLOXY)-3-({5-[3-(3-PYRIDINYL)PHENYL]-1,3-OXAZOL-2-YL}AMINO)BENZENESULFONAMIDE

$$$$
