
     RDKit          2D

 12 12  0  0  0  0  0  0  0  0999 V2000
   -0.7146    0.6188    0.0000 C   0  0  0  0  0  0  0  0  0  0  0  0
   -1.4290    0.2062    0.0000 C   0  0  0  0  0  0  0  0  0  0  0  0
   -1.4290   -0.6188    0.0000 C   0  0  0  0  0  0  0  0  0  0  0  0
   -0.7146   -1.0313    0.0000 C   0  0  0  0  0  0  0  0  0  0  0  0
    0.0000   -0.6188    0.0000 C   0  0  0  0  0  0  0  0  0  0  0  0
    0.0000    0.2062    0.0000 C   0  0  0  0  0  0  0  0  0  0  0  0
   -0.7146    1.4439    0.0000 N   0  0  0  0  0  0  0  0  0  0  0  0
   -1.4290    1.8564    0.0000 O   0  0  0  0  0  0  0  0  0  0  0  0
    0.0000    1.8564    0.0000 O   0  0  0  0  0  0  0  0  0  0  0  0
    0.7146   -1.0313    0.0000 N   0  0  0  0  0  0  0  0  0  0  0  0
    1.4291   -0.6188    0.0000 O   0  0  0  0  0  0  0  0  0  0  0  0
    0.7146   -1.8564    0.0000 O   0  0  0  0  0  0  0  0  0  0  0  0
  1  2  2  0
  1  6  1  0
  1  7  1  0
  2  3  1  0
  3  4  2  0
  4  5  1  0
  5  6  2  0
  5 10  1  0
  7  8  2  0
  7  9  1  0
 10 11  1  0
 10 12  2  0
M  CHG  4   7   1   9  -1  10   1  11  -1
M  END
>  <DRUGBANK_ID>  (1) 
DB02680

>  <SECONDARY_ACCESSION_NUMBERS>  (1) 
EXPT02350

>  <COMMON_NAME>  (1) 
1,3-Dinitrobenzene

>  <CAS_NUMBER>  (1) 
99-65-0

>  <UNII>  (1) 
DK8B627BU0

>  <SYNONYMS>  (1) 
1,3-dinitro-benzene; 2,4-Dinitrobenzene; m-Dinitrobenzene; m-DNB; meta-Dinitrobenzene

$$$$
