333
     RDKit          2D

 28 32  0  0  0  0  0  0  0  0999 V2000
   -2.5259   -2.6156    0.0000 C   0  0  0  0  0  0  0  0  0  0  0  0
   -3.2403   -3.0281    0.0000 C   0  0  0  0  0  0  0  0  0  0  0  0
   -4.0250   -2.7732    0.0000 O   0  0  0  0  0  0  0  0  0  0  0  0
   -4.5099   -3.4406    0.0000 C   0  0  0  0  0  0  0  0  0  0  0  0
   -4.0250   -4.1081    0.0000 O   0  0  0  0  0  0  0  0  0  0  0  0
   -3.2403   -3.8531    0.0000 C   0  0  0  0  0  0  0  0  0  0  0  0
   -2.5259   -4.2656    0.0000 C   0  0  0  0  0  0  0  0  0  0  0  0
   -1.8114   -3.8531    0.0000 C   0  0  0  0  0  0  0  0  0  0  0  0
   -1.8114   -3.0281    0.0000 C   0  0  0  0  0  0  0  0  0  0  0  0
   -1.0969   -2.6156    0.0000 O   0  0  0  0  0  0  0  0  0  0  0  0
   -1.0969   -1.7906    0.0000 C   0  0  0  0  0  0  0  0  0  0  0  0
   -0.3825   -1.3781    0.0000 N   0  0  0  0  0  0  0  0  0  0  0  0
   -1.8114   -1.3781    0.0000 C   0  0  0  0  0  0  0  0  0  0  0  0
   -1.8114   -0.5531    0.0000 C   0  0  0  0  0  0  0  0  0  0  0  0
   -1.0969   -0.1406    0.0000 N   0  0  0  0  0  0  0  0  0  0  0  0
   -0.3825   -0.5531    0.0000 C   0  0  0  0  0  0  0  0  0  0  0  0
    0.3320   -0.1406    0.0000 O   0  0  0  0  0  0  0  0  0  0  0  0
    1.0465   -0.5531    0.0000 C   0  0  0  0  0  0  0  0  0  0  0  0
    1.7610   -0.1406    0.0000 C   0  0  0  0  0  0  0  0  0  0  0  0
    2.4754   -0.5531    0.0000 C   0  0  0  0  0  0  0  0  0  0  0  0
    1.0465   -1.3781    0.0000 C   0  0  0  0  0  0  0  0  0  0  0  0
    1.7610   -1.7906    0.0000 C   0  0  0  0  0  0  0  0  0  0  0  0
    2.4754   -1.3781    0.0000 C   0  0  0  0  0  0  0  0  0  0  0  0
    3.1899   -1.7906    0.0000 N   0  0  0  0  0  0  0  0  0  0  0  0
    3.9436   -1.4551    0.0000 C   0  0  0  0  0  0  0  0  0  0  0  0
    4.4956   -2.0682    0.0000 C   0  0  0  0  0  0  0  0  0  0  0  0
    4.0831   -2.7826    0.0000 N   0  0  0  0  0  0  0  0  0  0  0  0
    3.2761   -2.6111    0.0000 C   0  0  0  0  0  0  0  0  0  0  0  0
  1  9  2  0
  1  2  1  0
  2  3  1  0
  2  6  2  0
  3  4  1  0
  4  5  1  0
  5  6  1  0
  6  7  1  0
  7  8  2  0
  8  9  1  0
  9 10  1  0
 10 11  1  0
 11 13  1  0
 11 12  2  0
 12 16  1  0
 13 14  2  0
 14 15  1  0
 15 16  2  0
 16 17  1  0
 17 18  1  0
 18 19  2  0
 18 21  1  0
 19 20  1  0
 20 23  2  0
 21 22  2  0
 22 23  1  0
 23 24  1  0
 24 25  1  0
 24 28  1  0
 25 26  2  0
 26 27  1  0
 27 28  2  0
M  END
>  <DRUGBANK_ID>  (1) 
DB07008

>  <COMMON_NAME>  (1) 
4-(1,3-BENZODIOXOL-5-YLOXY)-2-[4-(1H-IMIDAZOL-1-YL)PHENOXY]PYRIMIDINE

$$$$
