
     RDKit          2D

 29 31  0  0  0  0  0  0  0  0999 V2000
    0.2557    0.1755    0.0000 C   0  0  0  0  0  0  0  0  0  0  0  0
    0.9702    0.5880    0.0000 C   0  0  0  0  0  0  0  0  0  0  0  0
   -0.4589    0.5881    0.0000 C   0  0  0  0  0  0  0  0  0  0  0  0
    0.9701    1.4131    0.0000 C   0  0  0  0  0  0  0  0  0  0  0  0
   -0.4589    1.4130    0.0000 C   0  0  0  0  0  0  0  0  0  0  0  0
    0.2556    1.8256    0.0000 O   0  0  0  0  0  0  0  0  0  0  0  0
    0.2556   -0.6495    0.0000 O   0  0  0  0  0  0  0  0  0  0  0  0
   -0.4590   -1.0619    0.0000 C   0  0  0  0  0  0  0  0  0  0  0  0
   -1.1734   -0.6494    0.0000 O   0  0  0  0  0  0  0  0  0  0  0  0
   -1.1733    1.8255    0.0000 C   0  0  0  0  0  0  0  0  0  0  0  0
   -1.8879    1.4130    0.0000 C   0  0  0  0  0  0  0  0  0  0  0  0
   -2.6024    0.1755    0.0000 C   0  0  0  0  0  0  0  0  0  0  0  0
   -1.8879   -1.0619    0.0000 C   0  0  0  0  0  0  0  0  0  0  0  0
   -2.6024   -0.6494    0.0000 C   0  0  0  0  0  0  0  0  0  0  0  0
   -2.6024    1.8256    0.0000 C   0  0  0  0  0  0  0  0  0  0  0  0
   -3.3168    0.5881    0.0000 C   0  0  0  0  0  0  0  0  0  0  0  0
   -3.3168    1.4130    0.0000 C   0  0  0  0  0  0  0  0  0  0  0  0
   -0.4591   -1.8869    0.0000 C   0  0  0  0  0  0  0  0  0  0  0  0
   -1.8879   -1.8868    0.0000 C   0  0  0  0  0  0  0  0  0  0  0  0
   -1.1735   -2.2993    0.0000 C   0  0  0  0  0  0  0  0  0  0  0  0
    1.7538    1.6701    0.0000 C   0  0  0  0  0  0  0  0  0  0  0  0
    2.4219    1.1861    0.0000 C   0  0  0  0  0  0  0  0  0  0  0  0
    2.0076    2.4551    0.0000 N   0  0  0  0  0  0  0  0  0  0  0  0
    3.0886    1.6719    0.0000 S   0  0  0  0  0  0  0  0  0  0  0  0
    2.8328    2.4563    0.0000 C   0  0  0  0  0  0  0  0  0  0  0  0
    3.3168    3.1243    0.0000 O   0  0  0  0  0  0  0  0  0  0  0  0
   -1.1737   -3.1243    0.0000 C   0  0  0  0  0  0  0  0  0  0  0  0
   -2.6024    2.6506    0.0000 C   0  0  0  0  0  0  0  0  0  0  0  0
    0.9509    2.2413    0.0000 O   0  0  0  0  0  0  0  0  0  0  0  0
  1  7  1  0
  1  2  1  6
  3  1  1  0
  4  2  1  0
  4 21  1  0
  4 29  1  6
  5  3  1  0
  5 10  1  1
  6  4  1  0
  6  5  1  0
  8  7  1  0
  8  9  2  0
 11 10  1  0
 14 12  2  0
 14 13  1  0
 15 11  1  0
 15 28  1  1
 16 12  1  0
 17 15  1  0
 17 16  2  0
 18  8  1  0
 19 13  1  0
 20 18  2  0
 20 19  1  0
 20 27  1  0
 21 22  1  1
 23 21  1  0
 24 22  1  0
 25 23  1  0
 25 24  1  0
 25 26  2  0
M  END
>  <DRUGBANK_ID>  (1) 
DB02621

>  <SECONDARY_ACCESSION_NUMBERS>  (1) 
EXPT02004

>  <COMMON_NAME>  (1) 
Latrunculin A

>  <CAS_NUMBER>  (1) 
76343-93-6

>  <UNII>  (1) 
SRQ9WWM084

>  <SYNONYMS>  (1) 
(+)-latrunculin A; (4R)-4-[(1R,4Z,8E,10Z,12S,15R,17R)-17-hydroxy-5,12-dimethyl-3-oxo-2,16-dioxabicyclo[13.3.1]nonadeca-4,8,10-trien-17-yl]-1,3-thiazolidin-2-one; LAT-A; LatA

$$$$
