498
     RDKit          2D

 17 19  0  0  0  0  0  0  0  0999 V2000
    4.1159    1.4482    0.0000 O   0  0  0  0  0  0  0  0  0  0  0  0
    4.1159   -1.4482    0.0000 O   0  0  0  0  0  0  0  0  0  0  0  0
    4.3412    0.0000    0.0000 C   0  0  0  0  0  0  0  0  0  0  0  0
    3.8597    0.6639    0.0000 C   0  0  0  0  0  0  0  0  0  0  0  0
    3.8597   -0.6639    0.0000 C   0  0  0  0  0  0  0  0  0  0  0  0
    3.0791    0.4125    0.0000 C   0  0  0  0  0  0  0  0  0  0  0  0
    3.0791   -0.4125    0.0000 C   0  0  0  0  0  0  0  0  0  0  0  0
    5.1662    0.0000    0.0000 C   0  0  0  0  0  0  0  0  0  0  0  0
    2.3645    0.8250    0.0000 C   0  0  0  0  0  0  0  0  0  0  0  0
    2.3645   -0.8250    0.0000 C   0  0  0  0  0  0  0  0  0  0  0  0
    5.5787    0.7145    0.0000 C   0  0  0  0  0  0  0  0  0  0  0  0
    5.5787   -0.7145    0.0000 C   0  0  0  0  0  0  0  0  0  0  0  0
    1.6500    0.4125    0.0000 C   0  0  0  0  0  0  0  0  0  0  0  0
    1.6500   -0.4125    0.0000 C   0  0  0  0  0  0  0  0  0  0  0  0
    6.4037    0.7145    0.0000 C   0  0  0  0  0  0  0  0  0  0  0  0
    6.4037   -0.7145    0.0000 C   0  0  0  0  0  0  0  0  0  0  0  0
    6.8162    0.0000    0.0000 C   0  0  0  0  0  0  0  0  0  0  0  0
  1  4  2  0
  2  5  2  0
  3  4  1  0
  3  5  1  0
  3  8  1  0
  4  6  1  0
  5  7  1  0
  6  7  2  0
  6  9  1  0
  7 10  1  0
  8 11  2  0
  8 12  1  0
  9 13  2  0
 10 14  2  0
 11 15  1  0
 12 16  2  0
 13 14  1  0
 15 17  2  0
 16 17  1  0
M  END
>  <DRUGBANK_ID>  (1) 
DB00498

>  <SECONDARY_ACCESSION_NUMBERS>  (1) 
APRD00166

>  <COMMON_NAME>  (1) 
Phenindione

>  <CAS_NUMBER>  (1) 
83-12-5

>  <UNII>  (1) 
5M7Y6274ZE

>  <SYNONYMS>  (1) 
2-phenyl-1,3-diketohydrindene; 2-Phenyl-1,3-indandione; 2-phenyl-1,3(2H)-Indenedione; Fenindiona; Fenindione; Phenindion; Ph√©nindione; Phenindione; Phenindionum; PID

$$$$
