
     RDKit          2D

 27 29  0  0  0  0  0  0  0  0999 V2000
   -2.1434   -1.2375    0.0000 C   0  0  0  0  0  0  0  0  0  0  0  0
   -1.4289   -2.4750    0.0000 C   0  0  0  0  0  0  0  0  0  0  0  0
   -2.8579   -1.6500    0.0000 C   0  0  0  0  0  0  0  0  0  0  0  0
   -2.1434   -2.8875    0.0000 C   0  0  0  0  0  0  0  0  0  0  0  0
    0.0000    0.0000    0.0000 C   0  0  0  0  0  0  0  0  0  0  0  0
    0.0000   -1.6500    0.0000 C   0  0  0  0  0  0  0  0  0  0  0  0
    1.4289   -2.4750    0.0000 C   0  0  0  0  0  0  0  0  0  0  0  0
   -0.7145   -0.4125    0.0000 C   0  0  0  0  0  0  0  0  0  0  0  0
    0.7145   -0.4125    0.0000 C   0  0  0  0  0  0  0  0  0  0  0  0
   -0.7145   -1.2375    0.0000 C   0  0  0  0  0  0  0  0  0  0  0  0
    0.7145   -1.2375    0.0000 C   0  0  0  0  0  0  0  0  0  0  0  0
    2.1434   -0.4125    0.0000 C   0  0  0  0  0  0  0  0  0  0  0  0
    2.1434   -1.2375    0.0000 C   0  0  0  0  0  0  0  0  0  0  0  0
   -1.4289   -0.0000    0.0000 C   0  0  0  0  0  0  0  0  0  0  0  0
   -2.1434    0.4125    0.0000 F   0  0  0  0  0  0  0  0  0  0  0  0
   -1.8414   -0.7145    0.0000 F   0  0  0  0  0  0  0  0  0  0  0  0
   -1.0164    0.7145    0.0000 F   0  0  0  0  0  0  0  0  0  0  0  0
    1.4289   -0.0000    0.0000 N   0  0  0  0  0  0  0  0  0  0  0  0
   -1.4289   -1.6500    0.0000 N   0  0  0  0  0  0  0  0  0  0  0  0
    1.4289   -1.6500    0.0000 N   0  0  0  0  0  0  0  0  0  0  0  0
    2.8579   -0.0000    0.0000 O   0  0  0  0  0  0  0  0  0  0  0  0
    2.8579   -1.6500    0.0000 O   0  0  0  0  0  0  0  0  0  0  0  0
    0.3020   -2.1730    0.0000 O   0  0  0  0  0  0  0  0  0  0  0  0
    1.1270   -3.6020    0.0000 O   0  0  0  0  0  0  0  0  0  0  0  0
    0.0000   -3.3000    0.0000 O   0  0  0  0  0  0  0  0  0  0  0  0
   -2.8579   -2.4750    0.0000 O   0  0  0  0  0  0  0  0  0  0  0  0
    0.7145   -2.8875    0.0000 P   0  0  0  0  0  0  0  0  0  0  0  0
  3  1  1  0
  4  2  1  0
  8  5  2  0
  9  5  1  0
 10  6  2  0
 10  8  1  0
 11  6  1  0
 11  9  2  0
 13 12  1  0
 14  8  1  0
 15 14  1  0
 16 14  1  0
 17 14  1  0
 18  9  1  0
 18 12  1  0
 19  1  1  0
 19  2  1  0
 19 10  1  0
 20  7  1  0
 20 11  1  0
 20 13  1  0
 21 12  2  0
 22 13  2  0
 26  3  1  0
 26  4  1  0
 27  7  1  0
 27 23  1  0
 27 24  1  0
 27 25  2  0
M  END
>  <DRUGBANK_ID>  (1) 
DB12393

>  <COMMON_NAME>  (1) 
Fanapanel

>  <CAS_NUMBER>  (1) 
161605-73-8

>  <UNII>  (1) 
E3AP71EM0O

>  <SYNONYMS>  (1) 
Fanapanel

$$$$
