
     RDKit          2D

 35 38  0  0  1  0  0  0  0  0999 V2000
    7.0058   -2.0326    0.0000 C   0  0  0  0  0  0  0  0  0  0  0  0
    7.0058   -2.8576    0.0000 C   0  0  0  0  0  0  0  0  0  0  0  0
    6.2913   -3.2701    0.0000 C   0  0  0  0  0  0  0  0  0  0  0  0
    6.2913   -4.0951    0.0000 O   0  0  0  0  0  0  0  0  0  0  0  0
    5.5769   -2.8576    0.0000 N   0  0  0  0  0  0  0  0  0  0  0  0
    4.8624   -3.2701    0.0000 C   0  0  0  0  0  0  0  0  0  0  0  0
    4.8624   -4.0951    0.0000 C   0  0  0  0  0  0  0  0  0  0  0  0
    5.5769   -4.5076    0.0000 C   0  0  0  0  0  0  0  0  0  0  0  0
    5.5769   -5.3326    0.0000 C   0  0  0  0  0  0  0  0  0  0  0  0
    4.8624   -5.7451    0.0000 C   0  0  0  0  0  0  0  0  0  0  0  0
    4.1479   -5.3326    0.0000 C   0  0  0  0  0  0  0  0  0  0  0  0
    4.1479   -4.5076    0.0000 C   0  0  0  0  0  0  0  0  0  0  0  0
    4.1479   -2.8576    0.0000 C   0  0  0  0  0  0  0  0  0  0  0  0
    4.1479   -2.0326    0.0000 O   0  0  0  0  0  0  0  0  0  0  0  0
    3.4335   -3.2701    0.0000 N   0  0  0  0  0  0  0  0  0  0  0  0
    3.3472   -4.0906    0.0000 C   0  0  0  0  0  0  0  0  0  0  0  0
    2.5402   -4.2621    0.0000 C   0  0  0  0  0  0  0  0  0  0  0  0
    2.1277   -3.5477    0.0000 C   0  0  0  0  0  0  0  0  0  0  0  0
    2.6798   -2.9346    0.0000 C   0  0  0  0  0  0  0  0  0  0  0  0
    2.5083   -2.1276    0.0000 C   0  0  0  0  0  0  0  0  0  0  0  0
    1.7546   -1.7920    0.0000 N   0  0  0  0  0  0  0  0  0  0  0  0
    1.8408   -0.9715    0.0000 C   0  0  0  0  0  0  0  0  0  0  0  0
    2.6478   -0.8000    0.0000 C   0  0  0  0  0  0  0  0  0  0  0  0
    3.0603   -1.5145    0.0000 S   0  0  0  0  0  0  0  0  0  0  0  0
    1.2277   -0.4195    0.0000 C   0  0  0  0  0  0  0  0  0  0  0  0
    0.4431   -0.6745    0.0000 O   0  0  0  0  0  0  0  0  0  0  0  0
    1.3992    0.3875    0.0000 C   0  0  0  0  0  0  0  0  0  0  0  0
    0.7862    0.9395    0.0000 C   0  0  0  0  0  0  0  0  0  0  0  0
    0.9577    1.7465    0.0000 C   0  0  0  0  0  0  0  0  0  0  0  0
    1.7423    2.0014    0.0000 C   0  0  0  0  0  0  0  0  0  0  0  0
    2.3554    1.4494    0.0000 C   0  0  0  0  0  0  0  0  0  0  0  0
    2.1839    0.6424    0.0000 C   0  0  0  0  0  0  0  0  0  0  0  0
    1.9138    2.8084    0.0000 F   0  0  0  0  0  0  0  0  0  0  0  0
    7.7203   -3.2701    0.0000 N   0  0  0  0  0  0  0  0  0  0  0  0
    8.4348   -2.8576    0.0000 C   0  0  0  0  0  0  0  0  0  0  0  0
  2  1  1  6
  2  3  1  0
  2 34  1  0
  3  4  2  0
  3  5  1  0
  6  5  1  1
  6  7  1  0
  6 13  1  0
  7  8  1  0
  7 12  1  0
  8  9  1  0
  9 10  1  0
 10 11  1  0
 11 12  1  0
 13 14  2  0
 13 15  1  0
 15 16  1  0
 15 19  1  0
 16 17  1  0
 17 18  1  0
 18 19  1  0
 19 20  1  1
 20 21  2  0
 20 24  1  0
 21 22  1  0
 22 23  2  0
 22 25  1  0
 23 24  1  0
 25 26  2  0
 25 27  1  0
 27 28  2  0
 27 32  1  0
 28 29  1  0
 29 30  2  0
 30 31  1  0
 30 33  1  0
 31 32  2  0
 34 35  1  0
M  END
>  <DRUGBANK_ID>  (1) 
DB12085

>  <COMMON_NAME>  (1) 
LCL-161

>  <CAS_NUMBER>  (1) 
1005342-46-0

>  <UNII>  (1) 
6TNS415Y3P

>  <SYNONYMS>  (1) 
(2S)-N-[(1S)-1-cyclohexyl-2-[(2S)-2-[4-(4-fluorobenzoyl)-1,3-thiazol-2-yl]pyrrolidin-1-yl]-2-oxoethyl]-2-(methylamino)propanamide

$$$$
