
     RDKit          2D

 37 43  0  0  1  0  0  0  0  0999 V2000
    2.0485   -1.2224    0.0000 C   0  0  0  0  0  0  0  0  0  0  0  0
    5.4472    5.4977    0.0000 C   0  0  0  0  0  0  0  0  0  0  0  0
   -1.2371    5.1602    0.0000 C   0  0  0  0  0  0  0  0  0  0  0  0
    5.1309    4.7358    0.0000 C   0  0  0  0  0  0  0  0  0  0  0  0
   -0.9834    4.3752    0.0000 C   0  0  0  0  0  0  0  0  0  0  0  0
    4.3897    1.0290    0.0000 C   0  0  0  0  0  0  0  0  0  0  0  0
    0.8815    1.1179    0.0000 C   0  0  0  0  0  0  0  0  0  0  0  0
    4.7009    1.7936    0.0000 C   0  0  0  0  0  0  0  0  0  0  0  0
    0.5782    1.8580    0.0000 C   0  0  0  0  0  0  0  0  0  0  0  0
    1.3298    0.8614    0.0000 C   0  0  0  0  0  0  0  0  0  0  0  0
    6.2652    5.6047    0.0000 C   0  0  0  0  0  0  0  0  0  0  0  0
   -0.6841    5.7724    0.0000 C   0  0  0  0  0  0  0  0  0  0  0  0
    1.1857   -0.0262    0.0000 C   0  0  0  0  0  0  0  0  0  0  0  0
    3.2652    0.1923    0.0000 C   0  0  0  0  0  0  0  0  0  0  0  0
    6.4506    4.1879    0.0000 C   0  0  0  0  0  0  0  0  0  0  0  0
    0.3763    4.8146    0.0000 C   0  0  0  0  0  0  0  0  0  0  0  0
    3.5642    0.9419    0.0000 C   0  0  0  0  0  0  0  0  0  0  0  0
    5.6325    4.0809    0.0000 C   0  0  0  0  0  0  0  0  0  0  0  0
   -0.1767    4.2024    0.0000 C   0  0  0  0  0  0  0  0  0  0  0  0
    1.8523    0.9683    0.0000 C   0  0  0  0  0  0  0  0  0  0  0  0
    2.4502    0.1783    0.0000 C   0  0  0  0  0  0  0  0  0  0  0  0
    4.1818    2.4500    0.0000 C   0  0  0  0  0  0  0  0  0  0  0  0
    1.1374    2.4595    0.0000 C   0  0  0  0  0  0  0  0  0  0  0  0
    3.0446    1.5883    0.0000 C   0  0  0  0  0  0  0  0  0  0  0  0
    3.3345    2.3525    0.0000 C   0  0  0  0  0  0  0  0  0  0  0  0
    1.9594    2.2958    0.0000 C   0  0  0  0  0  0  0  0  0  0  0  0
    5.3162    3.3189    0.0000 C   0  0  0  0  0  0  0  0  0  0  0  0
    0.0770    3.4174    0.0000 C   0  0  0  0  0  0  0  0  0  0  0  0
    2.1664    1.4557    0.0000 C   0  0  0  0  0  0  0  0  0  0  0  0
    6.7669    4.9498    0.0000 N   0  0  0  0  0  0  0  0  0  0  0  0
    0.1226    5.5996    0.0000 N   0  0  0  0  0  0  0  0  0  0  0  0
    1.9091   -0.4092    0.0000 N   0  0  0  0  0  0  0  0  0  0  0  0
    5.8179    2.6640    0.0000 O   0  0  0  0  0  0  0  0  0  0  0  0
   -0.4760    2.8052    0.0000 O   0  0  0  0  0  0  0  0  0  0  0  0
    4.4982    3.2119    0.0000 O   0  0  0  0  0  0  0  0  0  0  0  0
    0.8837    3.2446    0.0000 O   0  0  0  0  0  0  0  0  0  0  0  0
    2.6231    2.7970    0.0000 O   0  0  0  0  0  0  0  0  0  0  0  0
  4  2  2  0
  5  3  2  0
  8  6  2  0
  9  7  2  0
 11  2  1  0
 12  3  1  0
 13 10  1  0
 17  6  1  0
 17 14  1  0
 18  4  1  0
 18 15  2  0
 19  5  1  0
 19 16  2  0
 20  7  1  6
 21 14  1  1
 21 20  1  0
 22  8  1  0
 23  9  1  0
 23 36  1  6
 24 17  2  0
 25 22  2  0
 25 24  1  0
 26 23  1  0
 27 18  1  0
 28 19  1  0
 29 10  1  1
 29 20  1  0
 29 24  1  0
 29 26  1  0
 30 11  2  0
 30 15  1  0
 31 12  2  0
 31 16  1  0
 32  1  1  0
 32 13  1  0
 32 21  1  0
 33 27  2  0
 34 28  2  0
 35 22  1  0
 35 27  1  0
 36 28  1  0
 37 25  1  0
 26 37  1  6
M  END
>  <DRUGBANK_ID>  (1) 
DB13454

>  <COMMON_NAME>  (1) 
Nicomorphine

>  <CAS_NUMBER>  (1) 
639-48-5

>  <UNII>  (1) 
Y95FRL95FW

>  <SYNONYMS>  (1) 
Nicomorphine

$$$$
