
     RDKit          2D

 11 10  0  0  0  0  0  0  0  0999 V2000
   -0.3306   -0.1759    0.0000 C   0  0  0  0  0  0  0  0  0  0  0  0
   -1.0594   -0.5794    0.0000 C   0  0  0  0  0  0  0  0  0  0  0  0
    0.3377   -0.5972    0.0000 C   0  0  0  0  0  0  0  0  0  0  0  0
   -1.7687   -0.1581    0.0000 C   0  0  0  0  0  0  0  0  0  0  0  0
    1.0648   -0.2009    0.0000 C   0  0  0  0  0  0  0  0  0  0  0  0
   -2.4834   -0.5563    0.0000 N   0  0  0  0  0  0  0  0  0  0  0  0
   -1.7687    0.6612    0.0000 O   0  0  0  0  0  0  0  0  0  0  0  0
    1.7260   -0.6311    0.0000 C   0  0  0  0  0  0  0  0  0  0  0  0
   -3.1642   -0.1226    0.0000 O   0  0  0  0  0  0  0  0  0  0  0  0
    2.4834   -0.2453    0.0000 C   0  0  0  0  0  0  0  0  0  0  0  0
    3.1642   -0.6612    0.0000 C   0  0  0  0  0  0  0  0  0  0  0  0
  1  2  1  0
  1  3  1  0
  2  4  1  0
  3  5  1  0
  4  6  1  0
  4  7  2  0
  5  8  1  0
  6  9  1  0
  8 10  1  0
 10 11  1  0
M  END
>  <DRUGBANK_ID>  (1) 
DB16634

>  <COMMON_NAME>  (1) 
Caprylhydroxamic acid

>  <CAS_NUMBER>  (1) 
7377-03-9

>  <UNII>  (1) 
UPY805K99W

>  <SYNONYMS>  (1) 
Caprylohydroxamic acid; N-Hydroxyoctanamide; Octanohydroxamic acid; Octanoylhydroxamic acid; Taselin

$$$$
