
     RDKit          2D

 29 32  0  0  1  0  0  0  0  0999 V2000
    9.6032   -1.0784    0.0000 Cl  0  0  0  0  0  0  0  0  0  0  0  0
    5.7910   -2.4251    0.0000 O   0  0  0  0  0  0  0  0  0  0  0  0
    2.9446   -0.2116    0.0000 O   0  0  0  0  0  0  0  0  0  0  0  0
    5.2619   -1.0584    0.0000 N   0  0  0  0  0  0  0  0  0  0  0  0
    6.6909   -1.0584    0.0000 N   0  0  0  0  0  0  0  0  0  0  0  0
    8.1428   -1.0870    0.0000 N   0  0  0  0  0  0  0  0  0  0  0  0
    4.5129   -0.7242    0.0000 C   0  0  0  0  0  0  0  0  0  0  0  0
    4.3428    0.0831    0.0000 C   0  0  0  0  0  0  0  0  0  0  0  0
    3.9626   -1.3322    0.0000 C   0  0  0  0  0  0  0  0  0  0  0  0
    4.3751   -2.0468    0.0000 C   0  0  0  0  0  0  0  0  0  0  0  0
    5.1768   -1.8741    0.0000 C   0  0  0  0  0  0  0  0  0  0  0  0
    3.5587    0.3394    0.0000 C   0  0  0  0  0  0  0  0  0  0  0  0
    3.3885    1.1467    0.0000 C   0  0  0  0  0  0  0  0  0  0  0  0
    2.6043    1.4029    0.0000 C   0  0  0  0  0  0  0  0  0  0  0  0
    2.4342    2.2102    0.0000 C   0  0  0  0  0  0  0  0  0  0  0  0
    5.9763   -0.6459    0.0000 C   0  0  0  0  0  0  0  0  0  0  0  0
    3.1376   -1.3322    0.0000 C   0  0  0  0  0  0  0  0  0  0  0  0
    3.9626   -2.7612    0.0000 C   0  0  0  0  0  0  0  0  0  0  0  0
    2.7251   -2.0468    0.0000 C   0  0  0  0  0  0  0  0  0  0  0  0
    3.1376   -2.7612    0.0000 C   0  0  0  0  0  0  0  0  0  0  0  0
    1.6500    2.4665    0.0000 C   0  0  0  0  0  0  0  0  0  0  0  0
    3.0482    2.7612    0.0000 C   0  0  0  0  0  0  0  0  0  0  0  0
    5.9763    0.1791    0.0000 C   0  0  0  0  0  0  0  0  0  0  0  0
    6.6909    0.5916    0.0000 C   0  0  0  0  0  0  0  0  0  0  0  0
    7.4053   -0.6459    0.0000 C   0  0  0  0  0  0  0  0  0  0  0  0
    7.4053    0.1791    0.0000 C   0  0  0  0  0  0  0  0  0  0  0  0
    8.1428    0.6202    0.0000 C   0  0  0  0  0  0  0  0  0  0  0  0
    8.8904    0.1963    0.0000 C   0  0  0  0  0  0  0  0  0  0  0  0
    8.8904   -0.6631    0.0000 C   0  0  0  0  0  0  0  0  0  0  0  0
  1 29  1  0
  2 11  2  0
  3 12  2  0
  4  7  1  0
  4 11  1  0
  4 16  1  0
  5 16  2  0
  5 25  1  0
  6 25  2  0
  6 29  1  0
  7  8  1  0
  7  9  1  0
  8 12  1  0
  9 10  2  0
  9 17  1  0
 10 11  1  0
 10 18  1  0
 12 13  1  0
 13 14  1  0
 14 15  1  0
 15 21  1  0
 15 22  1  0
 16 23  1  0
 17 19  2  0
 18 20  2  0
 19 20  1  0
 23 24  2  0
 24 26  1  0
 25 26  1  0
 26 27  2  0
 27 28  1  0
 28 29  2  0
M  END
>  <DRUGBANK_ID>  (1) 
DB04903

>  <COMMON_NAME>  (1) 
Pagoclone

>  <CAS_NUMBER>  (1) 
133737-32-3

>  <UNII>  (1) 
38VAG2SA33

>  <SYNONYMS>  (1) 
Pagoclone

$$$$
