2733
     RDKit          2D

 11 12  0  0  0  0  0  0  0  0999 V2000
    1.6500    0.6625    0.0000 Cl  0  0  0  0  0  0  0  0  0  0  0  0
    4.5741   -0.8265    0.0000 O   0  0  0  0  0  0  0  0  0  0  0  0
    5.8806   -0.1625    0.0000 O   0  0  0  0  0  0  0  0  0  0  0  0
    4.5741    0.5014    0.0000 N   0  0  0  0  0  0  0  0  0  0  0  0
    3.7935    0.2500    0.0000 C   0  0  0  0  0  0  0  0  0  0  0  0
    3.7935   -0.5750    0.0000 C   0  0  0  0  0  0  0  0  0  0  0  0
    3.0789    0.6625    0.0000 C   0  0  0  0  0  0  0  0  0  0  0  0
    3.0789   -0.9875    0.0000 C   0  0  0  0  0  0  0  0  0  0  0  0
    2.3645    0.2500    0.0000 C   0  0  0  0  0  0  0  0  0  0  0  0
    5.0556   -0.1625    0.0000 C   0  0  0  0  0  0  0  0  0  0  0  0
    2.3645   -0.5750    0.0000 C   0  0  0  0  0  0  0  0  0  0  0  0
  1  9  1  0
  2  6  1  0
  2 10  1  0
  3 10  2  0
  4  5  1  0
  4 10  1  0
  5  6  2  0
  5  7  1  0
  6  8  1  0
  7  9  2  0
  8 11  2  0
  9 11  1  0
M  END
>  <DRUGBANK_ID>  (1) 
DB00356

>  <SECONDARY_ACCESSION_NUMBERS>  (1) 
APRD00308

>  <COMMON_NAME>  (1) 
Chlorzoxazone

>  <CAS_NUMBER>  (1) 
95-25-0

>  <UNII>  (1) 
H0DE420U8G

>  <SYNONYMS>  (1) 
2-hydroxy-5-chlorobenzoxazole; 5-chloro-2-benzoxazolinone; 5-chloro-2-benzoxazolol; 5-chloro-2-benzoxazolone; 5-chloro-2-hydroxybenzoxazole; 5-chloro-2(3H)-benzoxazolone; 5-chloro-3H-benzooxazol-2-one; 5-chlorobenzoxazolidone; 5-chlorobenzoxazolin-2-one; Chlorzoxane; Chlorzoxazon; Chlorzoxazona; Chlorzoxazone; Chlorzoxazonum; Clorzoxazona; Clorzoxazone

$$$$
