230
     RDKit          2D

 34 37  0  0  0  0  0  0  0  0999 V2000
   -0.3472    1.4850    0.0000 N   0  0  0  0  0  0  0  0  0  0  0  0
    2.7912    2.5047    0.0000 N   0  0  0  0  0  0  0  0  0  0  0  0
    0.4374    1.7399    0.0000 C   0  0  0  0  0  0  0  0  0  0  0  0
    1.0505    1.1879    0.0000 C   0  0  0  0  0  0  0  0  0  0  0  0
    1.8351    1.4428    0.0000 C   0  0  0  0  0  0  0  0  0  0  0  0
   -0.5188    0.6780    0.0000 C   0  0  0  0  0  0  0  0  0  0  0  0
    0.0458   -3.7850    0.0000 C   0  0  0  0  0  0  0  0  0  0  0  0
   -1.2596   -3.2038    0.0000 C   0  0  0  0  0  0  0  0  0  0  0  0
    0.3814   -3.0313    0.0000 C   0  0  0  0  0  0  0  0  0  0  0  0
    2.9628    3.3117    0.0000 C   0  0  0  0  0  0  0  0  0  0  0  0
    4.3605    3.0146    0.0000 C   0  0  0  0  0  0  0  0  0  0  0  0
   -1.9708    0.9080    0.0000 C   0  0  0  0  0  0  0  0  0  0  0  0
   -1.3034    0.4231    0.0000 C   0  0  0  0  0  0  0  0  0  0  0  0
   -2.3833   -0.3616    0.0000 C   0  0  0  0  0  0  0  0  0  0  0  0
   -4.0360    0.1260    0.0000 C   0  0  0  0  0  0  0  0  0  0  0  0
    2.0066    2.2498    0.0000 C   0  0  0  0  0  0  0  0  0  0  0  0
    1.3935    2.8018    0.0000 C   0  0  0  0  0  0  0  0  0  0  0  0
    0.6089    2.5469    0.0000 C   0  0  0  0  0  0  0  0  0  0  0  0
    0.8789    0.3809    0.0000 F   0  0  0  0  0  0  0  0  0  0  0  0
    0.0943    0.1260    0.0000 O   0  0  0  0  0  0  0  0  0  0  0  0
   -0.7747   -3.8712    0.0000 C   0  0  0  0  0  0  0  0  0  0  0  0
   -0.9240   -2.4501    0.0000 C   0  0  0  0  0  0  0  0  0  0  0  0
   -0.1036   -2.3639    0.0000 C   0  0  0  0  0  0  0  0  0  0  0  0
    0.5307   -4.4524    0.0000 Cl  0  0  0  0  0  0  0  0  0  0  0  0
   -1.4090   -1.7827    0.0000 N   0  0  0  0  0  0  0  0  0  0  0  0
    3.4043    1.9527    0.0000 C   0  0  0  0  0  0  0  0  0  0  0  0
    3.7474    3.5666    0.0000 C   0  0  0  0  0  0  0  0  0  0  0  0
    4.1890    2.2076    0.0000 C   0  0  0  0  0  0  0  0  0  0  0  0
    2.3497    3.8637    0.0000 O   0  0  0  0  0  0  0  0  0  0  0  0
   -2.6383    0.4231    0.0000 C   0  0  0  0  0  0  0  0  0  0  0  0
   -1.5583   -0.3616    0.0000 N   0  0  0  0  0  0  0  0  0  0  0  0
   -3.4229    0.6780    0.0000 O   0  0  0  0  0  0  0  0  0  0  0  0
   -1.0734   -1.0290    0.0000 C   0  0  0  0  0  0  0  0  0  0  0  0
   -0.2529   -0.9428    0.0000 O   0  0  0  0  0  0  0  0  0  0  0  0
  1  3  1  0
  1  6  1  0
  2 10  1  0
  2 26  1  0
  2 16  1  0
  3 18  1  0
  3  4  2  0
  4  5  1  0
  4 19  1  0
  5 16  2  0
  6 20  2  0
  7 21  2  0
  7 24  1  0
  7  9  1  0
  8 21  1  0
  8 22  2  0
  9 23  2  0
 10 27  1  0
 10 29  2  0
 11 27  2  0
 11 28  1  0
 12 13  1  0
 12 30  1  0
 13  6  1  6
 13 31  1  0
 14 31  1  0
 14 30  1  0
 15 32  1  0
 16 17  1  0
 17 18  2  0
 22 25  1  0
 22 23  1  0
 25 33  1  0
 26 28  2  0
 30 32  1  6
 31 33  1  0
 33 34  2  0
M  END
>  <DRUGBANK_ID>  (1) 
DB06920

>  <COMMON_NAME>  (1) 
Eribaxaban

>  <CAS_NUMBER>  (1) 
536748-46-6

>  <UNII>  (1) 
5FCH6YDY7Z

>  <SYNONYMS>  (1) 
eribaxab√°n; Eribaxaban

$$$$
