
     RDKit          2D

 28 32  0  0  0  0  0  0  0  0999 V2000
    0.5489   -1.6180    0.0000 F   0  0  0  0  0  0  0  0  0  0  0  0
    0.1375   -0.9076    0.0000 C   0  0  0  0  0  0  0  0  0  0  0  0
   -0.2738   -0.1975    0.0000 F   0  0  0  0  0  0  0  0  0  0  0  0
   -0.5726   -1.3192    0.0000 C   0  0  0  0  0  0  0  0  0  0  0  0
   -1.3281   -0.9838    0.0000 N   0  0  0  0  0  0  0  0  0  0  0  0
   -1.8802   -1.5990    0.0000 C   0  0  0  0  0  0  0  0  0  0  0  0
   -1.4659   -2.3143    0.0000 N   0  0  0  0  0  0  0  0  0  0  0  0
   -0.6576   -2.1412    0.0000 N   0  0  0  0  0  0  0  0  0  0  0  0
   -2.6827   -1.4264    0.0000 C   0  0  0  0  0  0  0  0  0  0  0  0
   -2.9398   -0.6464    0.0000 C   0  0  0  0  0  0  0  0  0  0  0  0
   -2.3884   -0.0321    0.0000 C   0  0  0  0  0  0  0  0  0  0  0  0
   -1.5797   -0.1978    0.0000 N   0  0  0  0  0  0  0  0  0  0  0  0
   -2.6454    0.7472    0.0000 C   0  0  0  0  0  0  0  0  0  0  0  0
   -2.0971    1.3582    0.0000 C   0  0  0  0  0  0  0  0  0  0  0  0
   -2.3556    2.1416    0.0000 C   0  0  0  0  0  0  0  0  0  0  0  0
   -3.1622    2.3143    0.0000 N   0  0  0  0  0  0  0  0  0  0  0  0
   -3.7080    1.6957    0.0000 C   0  0  0  0  0  0  0  0  0  0  0  0
   -3.4495    0.9120    0.0000 C   0  0  0  0  0  0  0  0  0  0  0  0
    0.8477   -0.4962    0.0000 C   0  0  0  0  0  0  0  0  0  0  0  0
    0.8477    0.3317    0.0000 C   0  0  0  0  0  0  0  0  0  0  0  0
    1.5623    0.7500    0.0000 C   0  0  0  0  0  0  0  0  0  0  0  0
    2.2736    0.3317    0.0000 C   0  0  0  0  0  0  0  0  0  0  0  0
    2.2736   -0.4962    0.0000 C   0  0  0  0  0  0  0  0  0  0  0  0
    1.5623   -0.9060    0.0000 C   0  0  0  0  0  0  0  0  0  0  0  0
    2.9851   -0.9110    0.0000 C   0  0  0  0  0  0  0  0  0  0  0  0
    3.7080   -0.5022    0.0000 C   0  0  0  0  0  0  0  0  0  0  0  0
    3.7080    0.3256    0.0000 C   0  0  0  0  0  0  0  0  0  0  0  0
    2.9921    0.7450    0.0000 N   0  0  0  0  0  0  0  0  0  0  0  0
  1  2  1  0
  2  3  1  0
  2  4  1  0
  2 19  1  0
  4  5  1  0
  4  8  2  0
  6  5  1  0
  6  9  1  0
  7  6  2  0
  8  7  1  0
  9 10  2  0
 10 11  1  0
 11 12  2  0
 11 13  1  0
 12  5  1  0
 13 14  2  0
 13 18  1  0
 15 14  1  0
 16 15  2  0
 17 16  1  0
 18 17  2  0
 19 20  2  0
 19 24  1  0
 21 20  1  0
 22 21  2  0
 22 28  1  0
 23 22  1  0
 23 25  1  0
 24 23  2  0
 26 25  2  0
 27 26  1  0
 28 27  2  0
M  END
>  <DRUGBANK_ID>  (1) 
DB16883

>  <COMMON_NAME>  (1) 
JNJ-38877618

>  <CAS_NUMBER>  (1) 
943540-74-7

>  <UNII>  (1) 
E0B2IZB5H5

$$$$
