TUO
     RDKit          2D

 23 25  0  0  0  0  0  0  0  0999 V2000
   -1.6783   -0.7986    0.0000 C   0  0  0  0  0  0  0  0  0  0  0  0
   -1.9333   -1.5833    0.0000 C   0  0  0  0  0  0  0  0  0  0  0  0
   -1.3812   -2.1964    0.0000 C   0  0  0  0  0  0  0  0  0  0  0  0
   -0.5743   -2.0248    0.0000 C   0  0  0  0  0  0  0  0  0  0  0  0
   -0.3193   -1.2402    0.0000 C   0  0  0  0  0  0  0  0  0  0  0  0
   -0.8714   -0.6271    0.0000 C   0  0  0  0  0  0  0  0  0  0  0  0
   -0.6164    0.1575    0.0000 C   0  0  0  0  0  0  0  0  0  0  0  0
    0.1682    0.4125    0.0000 C   0  0  0  0  0  0  0  0  0  0  0  0
    0.8827    0.0000    0.0000 C   0  0  0  0  0  0  0  0  0  0  0  0
    1.5971    0.4125    0.0000 C   0  0  0  0  0  0  0  0  0  0  0  0
    2.3116    0.0000    0.0000 S   0  0  0  0  0  0  0  0  0  0  0  0
    3.0261   -0.4125    0.0000 O   0  0  0  0  0  0  0  0  0  0  0  0
    1.8991   -0.7145    0.0000 O   0  0  0  0  0  0  0  0  0  0  0  0
    2.7241    0.7144    0.0000 N   0  0  0  0  0  0  0  0  0  0  0  0
    1.5971    1.2375    0.0000 C   0  0  0  0  0  0  0  0  0  0  0  0
    0.8827    1.6500    0.0000 C   0  0  0  0  0  0  0  0  0  0  0  0
    0.1682    1.2375    0.0000 C   0  0  0  0  0  0  0  0  0  0  0  0
   -0.6164    1.4924    0.0000 N   0  0  0  0  0  0  0  0  0  0  0  0
   -1.1013    0.8250    0.0000 C   0  0  0  0  0  0  0  0  0  0  0  0
   -1.9263    0.8250    0.0000 C   0  0  0  0  0  0  0  0  0  0  0  0
   -2.3388    1.5394    0.0000 O   0  0  0  0  0  0  0  0  0  0  0  0
   -2.3388    0.1105    0.0000 N   0  0  0  0  0  0  0  0  0  0  0  0
   -3.1638    0.1105    0.0000 N   0  0  0  0  0  0  0  0  0  0  0  0
  1  6  2  0
  2  1  1  0
  2  3  2  0
  3  4  1  0
  4  5  2  0
  6  5  1  0
  6  7  1  0
  7  8  1  0
  8 17  1  0
  8  9  2  0
  9 10  1  0
 10 15  2  0
 10 11  1  0
 11 12  2  0
 13 11  2  0
 14 11  1  0
 16 15  1  0
 17 16  2  0
 18 17  1  0
 19  7  2  0
 19 18  1  0
 20 19  1  0
 20 21  2  0
 22 20  1  0
 23 22  1  0
M  END
>  <DRUGBANK_ID>  (1) 
DB08659

>  <COMMON_NAME>  (1) 
2-(hydrazinocarbonyl)-3-phenyl-1H-indole-5-sulfonamide

$$$$
