2D9
     RDKit          2D

 31 34  0  0  0  0  0  0  0  0999 V2000
   -3.2917    3.4560    0.0000 C   0  0  0  0  0  0  0  0  0  0  0  0
   -2.5772    3.0435    0.0000 S   0  0  0  0  0  0  0  0  0  0  0  0
   -2.9897    2.3290    0.0000 O   0  0  0  0  0  0  0  0  0  0  0  0
   -2.1647    3.7580    0.0000 O   0  0  0  0  0  0  0  0  0  0  0  0
   -1.8627    2.6310    0.0000 C   0  0  0  0  0  0  0  0  0  0  0  0
   -1.1483    3.0435    0.0000 C   0  0  0  0  0  0  0  0  0  0  0  0
   -0.4338    2.6310    0.0000 C   0  0  0  0  0  0  0  0  0  0  0  0
   -1.8627    1.8060    0.0000 C   0  0  0  0  0  0  0  0  0  0  0  0
   -1.1483    1.3935    0.0000 C   0  0  0  0  0  0  0  0  0  0  0  0
   -0.4338    1.8060    0.0000 C   0  0  0  0  0  0  0  0  0  0  0  0
    0.2807    1.3935    0.0000 C   0  0  0  0  0  0  0  0  0  0  0  0
    0.2807    0.5685    0.0000 N   0  0  0  0  0  0  0  0  0  0  0  0
    0.9952    0.1560    0.0000 C   0  0  0  0  0  0  0  0  0  0  0  0
    0.9952   -0.6690    0.0000 C   0  0  0  0  0  0  0  0  0  0  0  0
   -0.4338    0.1560    0.0000 C   0  0  0  0  0  0  0  0  0  0  0  0
   -0.4338   -0.6690    0.0000 C   0  0  0  0  0  0  0  0  0  0  0  0
    0.2807   -1.0815    0.0000 N   0  0  0  0  0  0  0  0  0  0  0  0
    0.2807   -1.9065    0.0000 C   0  0  0  0  0  0  0  0  0  0  0  0
   -0.3868   -2.3914    0.0000 C   0  0  0  0  0  0  0  0  0  0  0  0
   -0.1318   -3.1760    0.0000 N   0  0  0  0  0  0  0  0  0  0  0  0
    0.6932   -3.1760    0.0000 N   0  0  0  0  0  0  0  0  0  0  0  0
    0.9481   -2.3914    0.0000 C   0  0  0  0  0  0  0  0  0  0  0  0
    1.7327   -2.1365    0.0000 C   0  0  0  0  0  0  0  0  0  0  0  0
    1.9043   -1.3295    0.0000 C   0  0  0  0  0  0  0  0  0  0  0  0
    2.6889   -1.0746    0.0000 C   0  0  0  0  0  0  0  0  0  0  0  0
    2.8604   -0.2676    0.0000 Cl  0  0  0  0  0  0  0  0  0  0  0  0
    3.3020   -1.6266    0.0000 C   0  0  0  0  0  0  0  0  0  0  0  0
    4.0866   -1.3717    0.0000 O   0  0  0  0  0  0  0  0  0  0  0  0
    3.1305   -2.4336    0.0000 C   0  0  0  0  0  0  0  0  0  0  0  0
    2.3458   -2.6885    0.0000 C   0  0  0  0  0  0  0  0  0  0  0  0
    2.1743   -3.4955    0.0000 O   0  0  0  0  0  0  0  0  0  0  0  0
  1  2  1  0
  2  3  2  0
  2  4  2  0
  2  5  1  0
  5  6  2  0
  5  8  1  0
  6  7  1  0
  7 10  2  0
  8  9  2  0
  9 10  1  0
 10 11  1  0
 11 12  1  0
 12 13  1  0
 12 15  1  0
 13 14  1  0
 14 17  1  0
 15 16  1  0
 16 17  1  0
 17 18  1  0
 18 19  1  0
 18 22  2  0
 19 20  2  0
 20 21  1  0
 21 22  1  0
 22 23  1  0
 23 24  2  0
 23 30  1  0
 24 25  1  0
 25 26  1  0
 25 27  2  0
 27 28  1  0
 27 29  1  0
 29 30  2  0
 30 31  1  0
M  END
>  <DRUGBANK_ID>  (1) 
DB06957

>  <COMMON_NAME>  (1) 
4-CHLORO-6-(4-{4-[4-(METHYLSULFONYL)BENZYL]PIPERAZIN-1-YL}-1H-PYRAZOL-5-YL)BENZENE-1,3-DIOL

$$$$
