
     RDKit          2D

 22 24  0  0  0  0  0  0  0  0999 V2000
    1.1018   -4.4409    0.0000 C   0  0  0  0  0  0  0  0  0  0  0  0
    1.1018   -3.6159    0.0000 C   0  0  0  0  0  0  0  0  0  0  0  0
    1.9268   -3.6159    0.0000 C   0  0  0  0  0  0  0  0  0  0  0  0
    0.2768   -3.6159    0.0000 C   0  0  0  0  0  0  0  0  0  0  0  0
    1.1018   -2.7909    0.0000 N   0  0  0  0  0  0  0  0  0  0  0  0
    0.3873   -2.3784    0.0000 C   0  0  0  0  0  0  0  0  0  0  0  0
    0.3873   -1.5534    0.0000 C   0  0  0  0  0  0  0  0  0  0  0  0
    1.1018   -1.1409    0.0000 C   0  0  0  0  0  0  0  0  0  0  0  0
    1.8163   -1.5534    0.0000 C   0  0  0  0  0  0  0  0  0  0  0  0
    1.8163   -2.3784    0.0000 C   0  0  0  0  0  0  0  0  0  0  0  0
    0.5083   -0.5678    0.0000 C   0  0  0  0  0  0  0  0  0  0  0  0
   -0.2847   -0.7952    0.0000 C   0  0  0  0  0  0  0  0  0  0  0  0
   -0.8782   -0.2221    0.0000 C   0  0  0  0  0  0  0  0  0  0  0  0
   -0.6786    0.5783    0.0000 C   0  0  0  0  0  0  0  0  0  0  0  0
    0.1145    0.8057    0.0000 C   0  0  0  0  0  0  0  0  0  0  0  0
    0.7079    0.2327    0.0000 C   0  0  0  0  0  0  0  0  0  0  0  0
    1.4891   -0.4125    0.0000 C   0  0  0  0  0  0  0  0  0  0  0  0
    1.0519    0.2871    0.0000 C   0  0  0  0  0  0  0  0  0  0  0  0
    1.4392    1.0156    0.0000 C   0  0  0  0  0  0  0  0  0  0  0  0
    2.2637    1.0444    0.0000 C   0  0  0  0  0  0  0  0  0  0  0  0
    2.7009    0.3447    0.0000 C   0  0  0  0  0  0  0  0  0  0  0  0
    2.3136   -0.3837    0.0000 C   0  0  0  0  0  0  0  0  0  0  0  0
  1  2  1  0
  2  3  1  0
  2  4  1  0
  2  5  1  0
  5  6  1  0
  5 10  1  0
  6  7  1  0
  7  8  1  0
  8  9  1  0
  8 11  1  0
  8 17  1  0
  9 10  1  0
 11 12  2  0
 11 16  1  0
 12 13  1  0
 13 14  2  0
 14 15  1  0
 15 16  2  0
 17 18  2  0
 17 22  1  0
 18 19  1  0
 19 20  2  0
 20 21  1  0
 21 22  2  0
M  END
>  <DRUGBANK_ID>  (1) 
DB13502

>  <COMMON_NAME>  (1) 
Budipine

>  <CAS_NUMBER>  (1) 
57982-78-2

>  <UNII>  (1) 
L9026OPI2Z

>  <SYNONYMS>  (1) 
Budipine

$$$$
