
     RDKit          2D

  8  8  0  0  1  0  0  0  0  0999 V2000
   21.8757  -11.3539    0.0000 O   0  0  0  0  0  0  0  0  0  0  0  0
   21.4342  -12.7130    0.0000 O   0  0  0  0  0  0  0  0  0  0  0  0
   19.8105  -12.1360    0.0000 N   0  0  0  0  0  0  0  0  0  0  0  0
   20.4779  -11.6510    0.0000 C   0  0  0  0  0  0  0  0  0  0  0  0
   19.1430  -11.6510    0.0000 C   0  0  0  0  0  0  0  0  0  0  0  0
   20.2230  -10.8664    0.0000 C   0  0  0  0  0  0  0  0  0  0  0  0
   19.3979  -10.8664    0.0000 C   0  0  0  0  0  0  0  0  0  0  0  0
   21.2626  -11.9060    0.0000 C   0  0  0  0  0  0  0  0  0  0  0  0
  1  8  1  0
  2  8  2  0
  3  4  1  0
  3  5  1  0
  4  6  1  0
  4  8  1  6
  5  7  1  0
  6  7  1  0
M  END
>  <DRUGBANK_ID>  (1) 
DB02853

>  <SECONDARY_ACCESSION_NUMBERS>  (1) 
EXPT01259

>  <COMMON_NAME>  (1) 
D-Proline

>  <CAS_NUMBER>  (1) 
344-25-2

>  <UNII>  (1) 
L01Q4LGZ5L

>  <SYNONYMS>  (1) 
(2R)-pyrrolidine-2-carboxylic acid; (R)-2-Carboxypyrrolidine; (R)-pyrrolidine-2-carboxylic acid; D-Prolin; DPR

$$$$
