
     RDKit          2D

 29 33  0  0  0  0  0  0  0  0999 V2000
    3.2578   -1.0172    0.0000 C   0  0  0  0  0  0  0  0  0  0  0  0
    1.9140   -2.1080    0.0000 C   0  0  0  0  0  0  0  0  0  0  0  0
   -2.7891    2.3215    0.0000 C   0  0  0  0  0  0  0  0  0  0  0  0
    1.7005   -1.3111    0.0000 C   0  0  0  0  0  0  0  0  0  0  0  0
    1.1171   -2.3215    0.0000 C   0  0  0  0  0  0  0  0  0  0  0  0
   -3.3412    1.7085    0.0000 C   0  0  0  0  0  0  0  0  0  0  0  0
   -1.9822    2.1500    0.0000 C   0  0  0  0  0  0  0  0  0  0  0  0
   -0.5252   -1.5247    0.0000 C   0  0  0  0  0  0  0  0  0  0  0  0
    1.6181   -0.2872    0.0000 C   0  0  0  0  0  0  0  0  0  0  0  0
    3.2258    1.1173    0.0000 C   0  0  0  0  0  0  0  0  0  0  0  0
    0.9036   -1.5247    0.0000 C   0  0  0  0  0  0  0  0  0  0  0  0
    0.1891   -1.1122    0.0000 C   0  0  0  0  0  0  0  0  0  0  0  0
   -3.0862    0.9238    0.0000 C   0  0  0  0  0  0  0  0  0  0  0  0
   -1.7272    1.3654    0.0000 C   0  0  0  0  0  0  0  0  0  0  0  0
   -1.2397   -1.1122    0.0000 C   0  0  0  0  0  0  0  0  0  0  0  0
    2.3326    0.1252    0.0000 C   0  0  0  0  0  0  0  0  0  0  0  0
   -2.2793    0.7523    0.0000 C   0  0  0  0  0  0  0  0  0  0  0  0
   -2.0243   -0.0322    0.0000 C   0  0  0  0  0  0  0  0  0  0  0  0
    0.1891   -0.2872    0.0000 C   0  0  0  0  0  0  0  0  0  0  0  0
   -3.6383    0.3107    0.0000 F   0  0  0  0  0  0  0  0  0  0  0  0
   -0.9203    1.1939    0.0000 F   0  0  0  0  0  0  0  0  0  0  0  0
    2.4188    0.9457    0.0000 N   0  0  0  0  0  0  0  0  0  0  0  0
    3.6383    0.4028    0.0000 N   0  0  0  0  0  0  0  0  0  0  0  0
   -2.0243   -1.3671    0.0000 N   0  0  0  0  0  0  0  0  0  0  0  0
   -2.5092   -0.6997    0.0000 N   0  0  0  0  0  0  0  0  0  0  0  0
   -0.5252    0.1252    0.0000 N   0  0  0  0  0  0  0  0  0  0  0  0
    3.0862   -0.2102    0.0000 N   0  0  0  0  0  0  0  0  0  0  0  0
   -1.2397   -0.2872    0.0000 N   0  0  0  0  0  0  0  0  0  0  0  0
    0.9036    0.1252    0.0000 O   0  0  0  0  0  0  0  0  0  0  0  0
  4  2  1  0
  5  2  1  0
  6  3  2  0
  7  3  1  0
 11  4  1  0
 11  5  1  0
 12  8  2  0
 12 11  1  0
 13  6  1  0
 14  7  2  0
 15  8  1  0
 16  9  1  0
 17 13  2  0
 17 14  1  0
 18 17  1  0
 19 12  1  0
 20 13  1  0
 21 14  1  0
 22 10  1  0
 22 16  2  0
 23 10  2  0
 24 15  2  0
 25 18  2  0
 25 24  1  0
 26 19  2  0
 27  1  1  0
 27 16  1  0
 27 23  1  0
 28 15  1  0
 28 18  1  0
 28 26  1  0
 29  9  1  0
 29 19  1  0
M  END
>  <DRUGBANK_ID>  (1) 
DB13993

>  <COMMON_NAME>  (1) 
MRK-409

>  <CAS_NUMBER>  (1) 
233275-76-8

>  <UNII>  (1) 
9VSE02330I

$$$$
