
     RDKit          2D

 20 21  0  0  0  0  0  0  0  0999 V2000
    0.4397   -1.4580    0.0000 O   0  0  0  0  0  0  0  0  0  0  0  0
   -1.2102   -1.4580    0.0000 O   0  0  0  0  0  0  0  0  0  0  0  0
   -0.3852   -2.2830    0.0000 O   0  0  0  0  0  0  0  0  0  0  0  0
   -1.8142   -1.4580    0.0000 O   0  0  0  0  0  0  0  0  0  0  0  0
   -1.0996   -0.2205    0.0000 N   0  0  0  0  0  0  0  0  0  0  0  0
   -0.3852   -0.6330    0.0000 C   0  0  0  0  0  0  0  0  0  0  0  0
    0.3292   -0.2205    0.0000 C   0  0  0  0  0  0  0  0  0  0  0  0
    0.3292    0.6044    0.0000 C   0  0  0  0  0  0  0  0  0  0  0  0
    1.0436    1.0169    0.0000 C   0  0  0  0  0  0  0  0  0  0  0  0
    1.0436    1.8419    0.0000 C   0  0  0  0  0  0  0  0  0  0  0  0
   -0.3852    1.0169    0.0000 C   0  0  0  0  0  0  0  0  0  0  0  0
    1.7812    0.5758    0.0000 C   0  0  0  0  0  0  0  0  0  0  0  0
    0.3292    2.2544    0.0000 C   0  0  0  0  0  0  0  0  0  0  0  0
   -0.3852    1.8419    0.0000 C   0  0  0  0  0  0  0  0  0  0  0  0
    1.7812    2.2830    0.0000 C   0  0  0  0  0  0  0  0  0  0  0  0
   -1.8142   -0.6330    0.0000 C   0  0  0  0  0  0  0  0  0  0  0  0
    2.5286    0.9998    0.0000 C   0  0  0  0  0  0  0  0  0  0  0  0
    2.5286    1.8591    0.0000 C   0  0  0  0  0  0  0  0  0  0  0  0
   -2.5286   -0.2205    0.0000 C   0  0  0  0  0  0  0  0  0  0  0  0
   -0.3852   -1.4580    0.0000 B   0  0  0  0  0  0  0  0  0  0  0  0
  1 20  1  0
  2 20  1  0
  3 20  1  0
  4 16  2  0
  5 16  1  0
  6  5  1  0
  6  7  1  1
  6 20  1  0
  7  8  1  0
  8  9  2  0
  8 11  1  0
  9 10  1  0
  9 12  1  0
 10 13  2  0
 10 15  1  0
 11 14  2  0
 12 17  2  0
 13 14  1  0
 15 18  2  0
 16 19  1  0
 17 18  1  0
M  CHG  1  20  -1
M  END
>  <DRUGBANK_ID>  (1) 
DB08565

>  <COMMON_NAME>  (1) 
L-1-naphthyl-2-acetamido-ethane boronic acid

$$$$
