
     RDKit          2D

  4  3  0  0  0  0  0  0  0  0999 V2000
    0.0000   -0.2062    0.0000 Mo  0  0  0  0  0  5  0  0  0  0  0  0
    0.0000    0.6187    0.0000 S   0  0  0  0  0  0  0  0  0  0  0  0
   -0.7145   -0.6187    0.0000 O   0  0  0  0  0  0  0  0  0  0  0  0
    0.7145   -0.6187    0.0000 O   0  0  0  0  0  0  0  0  0  0  0  0
  1  2  1  0
  1  3  2  0
  1  4  2  0
M  END
>  <DRUGBANK_ID>  (1) 
DB03328

>  <SECONDARY_ACCESSION_NUMBERS>  (1) 
EXPT02214

>  <COMMON_NAME>  (1) 
Dioxo(sulfanyl)molybdenum

$$$$
