SB6
     RDKit          2D

 22 25  0  0  0  0  0  0  0  0999 V2000
    2.1881    3.1541    0.0000 F   0  0  0  0  0  0  0  0  0  0  0  0
    1.0321    2.3142    0.0000 C   0  0  0  0  0  0  0  0  0  0  0  0
    1.8526    2.4005    0.0000 C   0  0  0  0  0  0  0  0  0  0  0  0
    2.3375    1.7330    0.0000 C   0  0  0  0  0  0  0  0  0  0  0  0
    2.0020    0.9794    0.0000 C   0  0  0  0  0  0  0  0  0  0  0  0
    1.1815    0.8931    0.0000 C   0  0  0  0  0  0  0  0  0  0  0  0
    0.6966    1.5606    0.0000 C   0  0  0  0  0  0  0  0  0  0  0  0
   -1.9719    0.8170    0.0000 C   0  0  0  0  0  0  0  0  0  0  0  0
   -1.8003    1.6240    0.0000 N   0  0  0  0  0  0  0  0  0  0  0  0
   -1.0157    1.8790    0.0000 C   0  0  0  0  0  0  0  0  0  0  0  0
   -0.4026    1.3269    0.0000 C   0  0  0  0  0  0  0  0  0  0  0  0
   -0.5741    0.5199    0.0000 C   0  0  0  0  0  0  0  0  0  0  0  0
   -1.3588    0.2650    0.0000 C   0  0  0  0  0  0  0  0  0  0  0  0
   -0.0473   -0.8526    0.0000 N   0  0  0  0  0  0  0  0  0  0  0  0
    0.0389   -0.0321    0.0000 C   0  0  0  0  0  0  0  0  0  0  0  0
    0.8459    0.1394    0.0000 C   0  0  0  0  0  0  0  0  0  0  0  0
    1.2584   -0.5750    0.0000 N   0  0  0  0  0  0  0  0  0  0  0  0
    0.7064   -1.1881    0.0000 C   0  0  0  0  0  0  0  0  0  0  0  0
   -0.7618   -1.2651    0.0000 C   0  0  0  0  0  0  0  0  0  0  0  0
   -0.7618   -2.0901    0.0000 C   0  0  0  0  0  0  0  0  0  0  0  0
   -0.3493   -2.8045    0.0000 C   0  0  0  0  0  0  0  0  0  0  0  0
   -1.1743   -2.8045    0.0000 C   0  0  0  0  0  0  0  0  0  0  0  0
  1  3  1  0
  2  3  2  0
  2  7  1  0
  3  4  1  0
  4  5  2  0
  5  6  1  0
  6  7  2  0
  6 16  1  0
  8  9  2  0
  8 13  1  0
  9 10  1  0
 10 11  2  0
 11 12  1  0
 12 13  2  0
 12 15  1  0
 14 15  1  0
 14 18  1  0
 14 19  1  0
 15 16  2  0
 16 17  1  0
 17 18  2  0
 19 20  1  0
 20 21  1  0
 20 22  1  0
 21 22  1  0
M  END
>  <DRUGBANK_ID>  (1) 
DB08522

>  <COMMON_NAME>  (1) 
4-(4-FLUOROPHENYL)-1-CYCLOROPROPYLMETHYL-5-(4-PYRIDYL)-IMIDAZOLE

$$$$
