
     RDKit          2D

 15 15  0  0  0  0  0  0  0  0999 V2000
   -1.0716    0.4125    0.0000 N   0  0  0  0  0  0  0  0  0  0  0  0
   -1.0716   -1.2374    0.0000 N   0  0  0  0  0  0  0  0  0  0  0  0
   -1.7862   -0.8250    0.0000 C   0  0  0  0  0  0  0  0  0  0  0  0
   -2.5006   -1.2374    0.0000 N   0  0  0  0  0  0  0  0  0  0  0  0
   -0.3572   -0.8250    0.0000 C   0  0  0  0  0  0  0  0  0  0  0  0
    0.3571   -1.2374    0.0000 N   0  0  0  0  0  0  0  0  0  0  0  0
   -1.7862    0.0000    0.0000 C   0  0  0  0  0  0  0  0  0  0  0  0
   -2.5006    0.4125    0.0000 Cl  0  0  0  0  0  0  0  0  0  0  0  0
   -0.3572    0.0000    0.0000 C   0  0  0  0  0  0  0  0  0  0  0  0
    1.0716    0.0000    0.0000 N   0  0  0  0  0  0  0  0  0  0  0  0
    2.5006    0.0000    0.0000 N   0  0  0  0  0  0  0  0  0  0  0  0
    1.7862    0.4125    0.0000 C   0  0  0  0  0  0  0  0  0  0  0  0
    1.7862    1.2374    0.0000 N   0  0  0  0  0  0  0  0  0  0  0  0
    0.3571    0.4125    0.0000 C   0  0  0  0  0  0  0  0  0  0  0  0
    0.3571    1.2374    0.0000 O   0  0  0  0  0  0  0  0  0  0  0  0
  1  7  2  0
  1  9  1  0
  2  5  1  0
  3  2  2  0
  3  4  1  0
  5  9  2  0
  5  6  1  0
  7  3  1  0
  7  8  1  0
  9 14  1  0
 10 12  1  0
 12 11  1  0
 12 13  2  0
 14 10  1  0
 14 15  2  0
M  END
>  <DRUGBANK_ID>  (1) 
DB00594

>  <SECONDARY_ACCESSION_NUMBERS>  (1) 
APRD00790; EXPT00514

>  <COMMON_NAME>  (1) 
Amiloride

>  <CAS_NUMBER>  (1) 
2609-46-3

>  <UNII>  (1) 
7DZO8EB0Z3

>  <SYNONYMS>  (1) 
3,5-diamino-N-carbamimidoyl-6-chloropyrazine-2-carboxamide; Amilorid; Amilorida; Amiloride; Amiloridum; Amipramidin; Amipramidine; Amyloride; N-amidino-3,5-diamino-6-chloropyrazinecarboxamide

$$$$
