939
     RDKit          2D

 19 20  0  0  0  0  0  0  0  0999 V2000
    1.6500   -0.9529    0.0000 Cl  0  0  0  0  0  0  0  0  0  0  0  0
    4.5080   -0.9529    0.0000 Cl  0  0  0  0  0  0  0  0  0  0  0  0
    3.0791    2.3472    0.0000 O   0  0  0  0  0  0  0  0  0  0  0  0
    2.3645    1.1096    0.0000 O   0  0  0  0  0  0  0  0  0  0  0  0
    3.0791   -0.1279    0.0000 N   0  0  0  0  0  0  0  0  0  0  0  0
    3.0791   -0.9529    0.0000 C   0  0  0  0  0  0  0  0  0  0  0  0
    3.7935    0.2846    0.0000 C   0  0  0  0  0  0  0  0  0  0  0  0
    2.3645   -2.1904    0.0000 C   0  0  0  0  0  0  0  0  0  0  0  0
    2.3645   -1.3654    0.0000 C   0  0  0  0  0  0  0  0  0  0  0  0
    3.7935    1.1096    0.0000 C   0  0  0  0  0  0  0  0  0  0  0  0
    3.7935   -1.3654    0.0000 C   0  0  0  0  0  0  0  0  0  0  0  0
    3.0791   -2.6029    0.0000 C   0  0  0  0  0  0  0  0  0  0  0  0
    4.5080   -0.1279    0.0000 C   0  0  0  0  0  0  0  0  0  0  0  0
    3.7935   -2.1904    0.0000 C   0  0  0  0  0  0  0  0  0  0  0  0
    4.5080    1.5222    0.0000 C   0  0  0  0  0  0  0  0  0  0  0  0
    1.6500   -2.6029    0.0000 C   0  0  0  0  0  0  0  0  0  0  0  0
    5.2224    0.2846    0.0000 C   0  0  0  0  0  0  0  0  0  0  0  0
    5.2224    1.1096    0.0000 C   0  0  0  0  0  0  0  0  0  0  0  0
    3.0791    1.5222    0.0000 C   0  0  0  0  0  0  0  0  0  0  0  0
  1  9  1  0
  2 11  1  0
  3 19  1  0
  4 19  2  0
  5  6  1  0
  5  7  1  0
  6  9  1  0
  6 11  2  0
  7 10  2  0
  7 13  1  0
  8  9  2  0
  8 12  1  0
  8 16  1  0
 10 15  1  0
 10 19  1  0
 11 14  1  0
 12 14  2  0
 13 17  2  0
 15 18  2  0
 17 18  1  0
M  END
>  <DRUGBANK_ID>  (1) 
DB00939

>  <SECONDARY_ACCESSION_NUMBERS>  (1) 
APRD01090

>  <COMMON_NAME>  (1) 
Meclofenamic acid

>  <CAS_NUMBER>  (1) 
644-62-2

>  <UNII>  (1) 
48I5LU4ZWD

>  <SYNONYMS>  (1) 
Acide méclofénamique; ácido meclofenámico; Acidum meclofenamicum; Meclofenamate; Meclofenamic acid; N-(2,6-dichloro-3-methylphenyl)anthranilic acid; N-(2,6-dichloro-m-tolyl)anthranilic acid; N-(3-methyl-2,6-dichlorophenyl)anthranilic acid

$$$$
