ChEBI
     RDKit          2D

 14 13  0  0  1  0  0  0  0  0999 V2000
    5.8153   -3.4765    0.0000 C   0  0  0  0  0  0  0  0  0  0  0  0
    6.5352   -3.8795    0.0000 C   0  0  0  0  0  0  0  0  0  0  0  0
    7.2408   -3.4765    0.0000 C   0  0  0  0  0  0  0  0  0  0  0  0
    7.9606   -3.8795    0.0000 C   0  0  0  0  0  0  0  0  0  0  0  0
    5.0955   -3.8795    0.0000 C   0  0  0  0  0  0  0  0  0  0  0  0
    4.3756   -3.4621    0.0000 O   0  0  0  0  0  0  0  0  0  0  0  0
    5.0955   -4.7002    0.0000 O   0  0  0  0  0  0  0  0  0  0  0  0
    6.5352   -4.7146    0.0000 C   0  0  0  0  0  0  0  0  0  0  0  0
    5.8153   -5.1178    0.0000 O   0  0  0  0  0  0  0  0  0  0  0  0
    7.2408   -5.1178    0.0000 O   0  0  0  0  0  0  0  0  0  0  0  0
    7.2408   -2.6414    0.0000 C   0  0  0  0  0  0  0  0  0  0  0  0
    7.9606   -2.2382    0.0000 O   0  0  0  0  0  0  0  0  0  0  0  0
    6.5352   -2.2382    0.0000 O   0  0  0  0  0  0  0  0  0  0  0  0
    7.9606   -3.0588    0.0000 O   0  0  0  0  0  0  0  0  0  0  0  0
  2  1  1  1
  3  2  1  0
  3 11  1  0
  3 14  1  0
  3  4  1  1
  5  1  1  0
  6  5  2  0
  7  5  1  0
  8  2  1  0
  9  8  2  0
 10  8  1  0
 12 11  2  0
 13 11  1  0
M  END
>  <DRUGBANK_ID>  (1) 
DB04072

>  <SECONDARY_ACCESSION_NUMBERS>  (1) 
EXPT02174

>  <COMMON_NAME>  (1) 
Alpha-Methylisocitric Acid

$$$$
