
     RDKit          2D

 25 27  0  0  0  0  0  0  0  0999 V2000
   -1.4078    0.0067    0.0000 C   0  0  0  0  0  0  0  0  0  0  0  0
   -1.8253    0.6847    0.0000 C   0  0  0  0  0  0  0  0  0  0  0  0
   -2.1158   -0.4108    0.0000 C   0  0  0  0  0  0  0  0  0  0  0  0
   -0.5994    0.0067    0.0000 C   0  0  0  0  0  0  0  0  0  0  0  0
   -1.0637   -0.7380    0.0000 O   0  0  0  0  0  0  0  0  0  0  0  0
   -2.6603    0.6780    0.0000 C   0  0  0  0  0  0  0  0  0  0  0  0
   -1.4078    1.4095    0.0000 C   0  0  0  0  0  0  0  0  0  0  0  0
   -2.8406   -0.0233    0.0000 C   0  0  0  0  0  0  0  0  0  0  0  0
   -2.1125   -1.2525    0.0000 C   0  0  0  0  0  0  0  0  0  0  0  0
   -0.1754   -0.6880    0.0000 O   0  0  0  0  0  0  0  0  0  0  0  0
   -0.1754    0.6780    0.0000 O   0  0  0  0  0  0  0  0  0  0  0  0
   -3.0811    1.3928    0.0000 C   0  0  0  0  0  0  0  0  0  0  0  0
   -1.8587    2.1309    0.0000 C   0  0  0  0  0  0  0  0  0  0  0  0
   -3.5387   -0.4174    0.0000 C   0  0  0  0  0  0  0  0  0  0  0  0
   -2.8273   -1.6566    0.0000 C   0  0  0  0  0  0  0  0  0  0  0  0
    0.6328   -0.6780    0.0000 C   0  0  0  0  0  0  0  0  0  0  0  0
   -2.6803    2.1209    0.0000 C   0  0  0  0  0  0  0  0  0  0  0  0
   -3.5387   -1.2424    0.0000 C   0  0  0  0  0  0  0  0  0  0  0  0
    1.0471   -1.4027    0.0000 C   0  0  0  0  0  0  0  0  0  0  0  0
    1.8720   -1.4027    0.0000 N   0  0  0  0  0  0  0  0  0  0  0  0
    2.2962   -2.1309    0.0000 C   0  0  0  0  0  0  0  0  0  0  0  0
    2.2796   -0.6880    0.0000 C   0  0  0  0  0  0  0  0  0  0  0  0
    3.1312   -2.1242    0.0000 C   0  0  0  0  0  0  0  0  0  0  0  0
    3.1179   -0.6880    0.0000 C   0  0  0  0  0  0  0  0  0  0  0  0
    3.5387   -1.4161    0.0000 C   0  0  0  0  0  0  0  0  0  0  0  0
  1  2  1  0
  1  3  1  0
  1  4  1  0
  1  5  1  0
  2  6  2  0
  2  7  1  0
  3  8  2  0
  3  9  1  0
  4 10  1  0
  4 11  2  0
  6 12  1  0
  7 13  2  0
  8 14  1  0
  9 15  2  0
 10 16  1  0
 12 17  2  0
 13 17  1  0
 14 18  2  0
 15 18  1  0
 16 19  1  0
 19 20  1  0
 20 21  1  0
 20 22  1  0
 21 23  1  0
 22 24  1  0
 23 25  1  0
 24 25  1  0
M  END
>  <DRUGBANK_ID>  (1) 
DB15888

>  <COMMON_NAME>  (1) 
Pipethanate

>  <CAS_NUMBER>  (1) 
4546-39-8

>  <UNII>  (1) 
P32MG14U83

>  <SYNONYMS>  (1) 
Piperilate; Pipetanato; Pipethanate; Pipethanatum

$$$$
