
     RDKit          2D

 29 32  0  0  0  0  0  0  0  0999 V2000
   -1.3976    1.0597    0.0000 C   0  0  0  0  0  0  0  0  0  0  0  0
   -0.5773    0.9716    0.0000 C   0  0  0  0  0  0  0  0  0  0  0  0
    0.0367    1.5224    0.0000 N   0  0  0  0  0  0  0  0  0  0  0  0
    0.8208    1.2657    0.0000 C   0  0  0  0  0  0  0  0  0  0  0  0
    0.9907    0.4583    0.0000 C   0  0  0  0  0  0  0  0  0  0  0  0
    0.3764   -0.0923    0.0000 N   0  0  0  0  0  0  0  0  0  0  0  0
   -0.4077    0.1643    0.0000 C   0  0  0  0  0  0  0  0  0  0  0  0
   -1.1231   -0.2465    0.0000 N   0  0  0  0  0  0  0  0  0  0  0  0
   -1.7348    0.3067    0.0000 C   0  0  0  0  0  0  0  0  0  0  0  0
   -2.5556    0.2223    0.0000 C   0  0  0  0  0  0  0  0  0  0  0  0
   -3.0390    0.8908    0.0000 C   0  0  0  0  0  0  0  0  0  0  0  0
   -2.7018    1.6437    0.0000 C   0  0  0  0  0  0  0  0  0  0  0  0
   -1.8811    1.7282    0.0000 C   0  0  0  0  0  0  0  0  0  0  0  0
   -3.1852    2.3122    0.0000 Cl  0  0  0  0  0  0  0  0  0  0  0  0
   -1.1249   -1.0715    0.0000 C   0  0  0  0  0  0  0  0  0  0  0  0
   -0.4112   -1.4856    0.0000 C   0  0  0  0  0  0  0  0  0  0  0  0
    0.3039   -1.0747    0.0000 N   0  0  0  0  0  0  0  0  0  0  0  0
    1.0184   -1.4872    0.0000 C   0  0  0  0  0  0  0  0  0  0  0  0
    1.7330   -1.0747    0.0000 C   0  0  0  0  0  0  0  0  0  0  0  0
    2.4473   -1.4872    0.0000 N   0  0  0  0  0  0  0  0  0  0  0  0
    3.1619   -1.0747    0.0000 C   0  0  0  0  0  0  0  0  0  0  0  0
    2.4473   -2.3122    0.0000 C   0  0  0  0  0  0  0  0  0  0  0  0
   -0.4131   -2.3106    0.0000 O   0  0  0  0  0  0  0  0  0  0  0  0
    1.4336    1.8144    0.0000 C   0  0  0  0  0  0  0  0  0  0  0  0
    2.2181    1.5579    0.0000 C   0  0  0  0  0  0  0  0  0  0  0  0
    2.3888    0.7549    0.0000 C   0  0  0  0  0  0  0  0  0  0  0  0
    1.7781    0.2008    0.0000 C   0  0  0  0  0  0  0  0  0  0  0  0
    2.8015    2.1414    0.0000 C   0  0  0  0  0  0  0  0  0  0  0  0
    3.1852    0.5415    0.0000 C   0  0  0  0  0  0  0  0  0  0  0  0
  1  2  1  0
  2  7  2  0
  3  4  2  0
  3  2  1  0
  4 24  1  0
  5  4  1  0
  5 27  1  0
  6  5  2  0
  7  6  1  0
  7  8  1  0
  8 15  1  0
  9  1  2  0
  9  8  1  0
 10  9  1  0
 11 10  2  0
 12 11  1  0
 12 14  1  0
 13 12  2  0
 13  1  1  0
 15 16  1  0
 16 17  1  0
 16 23  2  0
 17 18  1  0
 18 19  1  0
 19 20  1  0
 20 21  1  0
 20 22  1  0
 25 24  2  0
 25 28  1  0
 26 25  1  0
 26 29  1  0
 27 26  2  0
M  END
>  <DRUGBANK_ID>  (1) 
DB05772

>  <COMMON_NAME>  (1) 
Rabeximod

>  <CAS_NUMBER>  (1) 
872178-65-9

>  <UNII>  (1) 
J4D3K58W3Z

>  <SYNONYMS>  (1) 
Rabeximod

$$$$
