
     RDKit          2D

  6  4  0  0  0  0  0  0  0  0999 V2000
   -0.8026   -0.0017    0.0000 S   0  0  0  0  0  0  0  0  0  0  0  0
   -1.6276   -0.0017    0.0000 O   0  0  0  0  0  0  0  0  0  0  0  0
   -0.8026    0.8232    0.0000 O   0  0  0  0  0  0  0  0  0  0  0  0
   -0.8026   -0.8232    0.0000 O   0  0  0  0  0  0  0  0  0  0  0  0
    0.0327   -0.0017    0.0000 O   0  0  0  0  0  0  0  0  0  0  0  0
    1.6276   -0.4988    0.0000 Co  0  0  0  0  0 15  0  0  0  0  0  0
  1  2  2  0
  1  3  2  0
  1  4  1  0
  1  5  1  0
M  CHG  3   4  -1   5  -1   6   2
M  END
>  <DRUGBANK_ID>  (1) 
DB15760

>  <COMMON_NAME>  (1) 
Cobaltous sulfate

>  <CAS_NUMBER>  (1) 
10124-43-3

>  <UNII>  (1) 
H7965X29HX

$$$$
