
     RDKit          2D

 28 28  0  0  0  0  0  0  0  0999 V2000
   -2.4748   -0.0076    0.0000 P   0  0  0  0  0  0  0  0  0  0  0  0
   -1.6536   -0.0113    0.0000 O   0  0  0  0  0  0  0  0  0  0  0  0
   -3.2997   -0.0076    0.0000 O   0  0  0  0  0  0  0  0  0  0  0  0
   -2.4748    0.8136    0.0000 O   0  0  0  0  0  0  0  0  0  0  0  0
   -2.4785   -0.8325    0.0000 O   0  0  0  0  0  0  0  0  0  0  0  0
   -0.8287   -0.0076    0.0000 C   0  0  0  0  0  0  0  0  0  0  0  0
   -0.4162    0.7190    0.0000 C   0  0  0  0  0  0  0  0  0  0  0  0
   -0.4049   -0.7190    0.0000 C   0  0  0  0  0  0  0  0  0  0  0  0
    0.4201    0.7266    0.0000 C   0  0  0  0  0  0  0  0  0  0  0  0
   -0.8325    1.4228    0.0000 O   0  0  0  0  0  0  0  0  0  0  0  0
    0.4162   -0.7151    0.0000 C   0  0  0  0  0  0  0  0  0  0  0  0
   -0.8097   -1.4379    0.0000 O   0  0  0  0  0  0  0  0  0  0  0  0
    0.8287    0.0076    0.0000 C   0  0  0  0  0  0  0  0  0  0  0  0
    0.8287    1.4379    0.0000 O   0  0  0  0  0  0  0  0  0  0  0  0
   -0.8287    2.2439    0.0000 P   0  0  0  0  0  0  0  0  0  0  0  0
    0.8325   -1.4228    0.0000 O   0  0  0  0  0  0  0  0  0  0  0  0
    1.6499    0.0076    0.0000 O   0  0  0  0  0  0  0  0  0  0  0  0
   -1.6536    2.2439    0.0000 O   0  0  0  0  0  0  0  0  0  0  0  0
   -0.8287    3.0689    0.0000 O   0  0  0  0  0  0  0  0  0  0  0  0
   -0.0076    2.2402    0.0000 O   0  0  0  0  0  0  0  0  0  0  0  0
    0.8287   -2.2439    0.0000 P   0  0  0  0  0  0  0  0  0  0  0  0
    2.4709    0.0076    0.0000 P   0  0  0  0  0  0  0  0  0  0  0  0
    1.6536   -2.2477    0.0000 O   0  0  0  0  0  0  0  0  0  0  0  0
    0.0076   -2.2439    0.0000 O   0  0  0  0  0  0  0  0  0  0  0  0
    0.8249   -3.0689    0.0000 O   0  0  0  0  0  0  0  0  0  0  0  0
    3.2959    0.0037    0.0000 O   0  0  0  0  0  0  0  0  0  0  0  0
    2.4748    0.8325    0.0000 O   0  0  0  0  0  0  0  0  0  0  0  0
    2.4672   -0.8136    0.0000 O   0  0  0  0  0  0  0  0  0  0  0  0
  1  2  1  0
  1  3  1  0
  1  4  1  0
  1  5  2  0
  6  2  1  1
  6  7  1  0
  6  8  1  0
  7  9  1  0
  7 10  1  6
  8 11  1  0
  8 12  1  1
  9 13  1  0
  9 14  1  1
 10 15  1  0
 11 16  1  1
 11 13  1  0
 13 17  1  6
 15 18  1  0
 15 19  1  0
 15 20  2  0
 16 21  1  0
 17 22  1  0
 21 23  1  0
 21 24  1  0
 21 25  2  0
 22 26  1  0
 22 27  1  0
 22 28  2  0
M  END
>  <DRUGBANK_ID>  (1) 
DB04300

>  <SECONDARY_ACCESSION_NUMBERS>  (1) 
EXPT01814

>  <COMMON_NAME>  (1) 
(1s,3r,4r,6s)-1,3,4,6-Tetrapkisphosphate

$$$$
