B33
     RDKit          2D

 14 13  0  0  0  0  0  0  0  0999 V2000
    1.7894    0.2048    0.0000 C   0  0  0  0  0  0  0  0  0  0  0  0
    3.2184    0.2048    0.0000 C   0  0  0  0  0  0  0  0  0  0  0  0
    3.9330   -0.2077    0.0000 C   0  0  0  0  0  0  0  0  0  0  0  0
   -4.6412   -0.2077    0.0000 C   0  0  0  0  0  0  0  0  0  0  0  0
   -3.9268    0.2048    0.0000 C   0  0  0  0  0  0  0  0  0  0  0  0
   -3.2122   -0.2077    0.0000 N   0  0  0  0  0  0  0  0  0  0  0  0
   -2.4977    0.2048    0.0000 C   0  0  0  0  0  0  0  0  0  0  0  0
   -1.7832   -0.2077    0.0000 C   0  0  0  0  0  0  0  0  0  0  0  0
   -1.0687    0.2048    0.0000 C   0  0  0  0  0  0  0  0  0  0  0  0
   -0.3541   -0.2077    0.0000 N   0  0  0  0  0  0  0  0  0  0  0  0
    0.3604    0.2048    0.0000 C   0  0  0  0  0  0  0  0  0  0  0  0
    1.0749   -0.2077    0.0000 C   0  0  0  0  0  0  0  0  0  0  0  0
    2.5040   -0.2077    0.0000 N   0  0  0  0  0  0  0  0  0  0  0  0
    4.6475    0.2048    0.0000 C   0  0  0  0  0  0  0  0  0  0  0  0
  1 12  1  0
  1 13  1  0
  2  3  1  0
  2 13  1  0
  3 14  1  0
  4  5  1  0
  5  6  1  0
  6  7  1  0
  7  8  1  0
  8  9  1  0
  9 10  1  0
 10 11  1  0
 11 12  1  0
M  END
>  <DRUGBANK_ID>  (1) 
DB04633

>  <COMMON_NAME>  (1) 
N-ethyl-N-[3-(propylamino)propyl]propane-1,3-diamine

$$$$
