Acetic acid.mol
     RDKit          2D

  4  3  0  0  0  0  0  0  0  0999 V2000
    0.0074   -0.2417    0.0000 C   0  0  0  0  0  0  0  0  0  0  0  0
   -0.7144   -0.6413    0.0000 C   0  0  0  0  0  0  0  0  0  0  0  0
    0.0096    0.6669    0.0000 O   0  0  0  0  0  0  0  0  0  0  0  0
    0.7144   -0.6669    0.0000 O   0  0  0  0  0  0  0  0  0  0  0  0
  1  2  1  0
  1  3  2  0
  1  4  1  0
M  END
>  <DRUGBANK_ID>  (1) 
DB03166

>  <SECONDARY_ACCESSION_NUMBERS>  (1) 
EXPT00423; DB04184

>  <COMMON_NAME>  (1) 
Acetic acid

>  <CAS_NUMBER>  (1) 
64-19-7

>  <UNII>  (1) 
Q40Q9N063P

>  <SYNONYMS>  (1) 
Acetic acid; Acetic acid, glacial; Aceticum acidum; acide acétique; ácido acético; Essigsäure; Ethanoat; Ethanoate; Ethanoic acid; Ethoic acid; Ethylic acid; Glacial acetic acid; HOAc; Methanecarboxylic acid; Vinegar

$$$$
