
     RDKit          2D

 40 42  0  0  1  0  0  0  0  0999 V2000
   -5.1711    6.9237    0.0000 C   0  0  0  0  0  0  0  0  0  0  0  0
   -4.7586    6.2092    0.0000 C   0  0  0  0  0  0  0  0  0  0  0  0
   -3.9336    6.2092    0.0000 C   0  0  0  0  0  0  0  0  0  0  0  0
   -3.5211    5.4947    0.0000 C   0  0  0  0  0  0  0  0  0  0  0  0
   -2.6961    5.4947    0.0000 C   0  0  0  0  0  0  0  0  0  0  0  0
   -2.2836    4.7802    0.0000 C   0  0  0  0  0  0  0  0  0  0  0  0
   -1.4586    4.7802    0.0000 C   0  0  0  0  0  0  0  0  0  0  0  0
   -1.0461    4.0658    0.0000 C   0  0  0  0  0  0  0  0  0  0  0  0
   -1.4586    3.3513    0.0000 C   0  0  0  0  0  0  0  0  0  0  0  0
   -2.2836    3.3513    0.0000 C   0  0  0  0  0  0  0  0  0  0  0  0
   -2.6961    4.0658    0.0000 C   0  0  0  0  0  0  0  0  0  0  0  0
   -1.0461    2.6368    0.0000 C   0  0  0  0  0  0  0  0  0  0  0  0
   -1.4586    1.9224    0.0000 O   0  0  0  0  0  0  0  0  0  0  0  0
   -0.2211    2.6368    0.0000 N   0  0  0  0  0  0  0  0  0  0  0  0
    0.1914    1.9224    0.0000 C   0  0  0  0  0  0  0  0  0  0  0  0
    1.0164    1.9224    0.0000 C   0  0  0  0  0  0  0  0  0  0  0  0
    1.4289    1.2079    0.0000 C   0  0  0  0  0  0  0  0  0  0  0  0
    1.0164    0.4934    0.0000 C   0  0  0  0  0  0  0  0  0  0  0  0
    0.1914    0.4934    0.0000 C   0  0  0  0  0  0  0  0  0  0  0  0
   -0.2211    1.2079    0.0000 C   0  0  0  0  0  0  0  0  0  0  0  0
    1.4289   -0.2211    0.0000 S   0  0  0  0  0  0  0  0  0  0  0  0
    0.7145   -0.6336    0.0000 O   0  0  0  0  0  0  0  0  0  0  0  0
    2.1434    0.1914    0.0000 O   0  0  0  0  0  0  0  0  0  0  0  0
    1.8414   -0.9355    0.0000 N   0  0  0  0  0  0  0  0  0  0  0  0
    1.4289   -1.6500    0.0000 C   0  0  0  0  0  0  0  0  0  0  0  0
    1.8414   -2.3645    0.0000 C   0  0  0  0  0  0  0  0  0  0  0  0
    1.4289   -3.0789    0.0000 N   0  0  0  0  0  0  0  0  0  0  0  0
    1.8414   -3.7934    0.0000 C   0  0  0  0  0  0  0  0  0  0  0  0
    1.4289   -4.5079    0.0000 C   0  0  0  0  0  0  0  0  0  0  0  0
    0.6039   -4.5079    0.0000 O   0  0  0  0  0  0  0  0  0  0  0  0
    0.1914   -3.7934    0.0000 C   0  0  0  0  0  0  0  0  0  0  0  0
    0.6039   -3.0789    0.0000 C   0  0  0  0  0  0  0  0  0  0  0  0
    2.6664   -0.9355    0.0000 C   0  0  0  0  0  0  0  0  0  0  0  0
    3.0789   -0.2211    0.0000 C   0  0  0  0  0  0  0  0  0  0  0  0
    3.9039   -0.2211    0.0000 C   0  0  0  0  0  0  0  0  0  0  0  0
    2.6664    0.4934    0.0000 C   0  0  0  0  0  0  0  0  0  0  0  0
    3.0789   -1.6500    0.0000 C   0  0  0  0  0  0  0  0  0  0  0  0
    2.6664   -2.3645    0.0000 O   0  0  0  0  0  0  0  0  0  0  0  0
    3.9039   -1.6500    0.0000 N   0  0  0  0  0  0  0  0  0  0  0  0
    4.3164   -2.3645    0.0000 O   0  0  0  0  0  0  0  0  0  0  0  0
  1  2  1  0
  2  3  1  0
  3  4  1  0
  4  5  1  0
  5  6  1  0
  6  7  2  0
  6 11  1  0
  7  8  1  0
  8  9  2  0
  9 10  1  0
  9 12  1  0
 10 11  2  0
 12 13  2  0
 12 14  1  0
 14 15  1  0
 15 16  2  0
 15 20  1  0
 16 17  1  0
 17 18  2  0
 18 19  1  0
 18 21  1  0
 19 20  2  0
 21 22  2  0
 21 23  2  0
 21 24  1  0
 24 25  1  0
 25 26  1  0
 26 27  1  0
 27 28  1  0
 27 32  1  0
 28 29  1  0
 29 30  1  0
 30 31  1  0
 31 32  1  0
 33 24  1  0
 33 34  1  6
 33 37  1  0
 34 35  1  0
 34 36  1  0
 37 38  2  0
 37 39  1  0
 39 40  1  0
M  END
>  <DRUGBANK_ID>  (1) 
DB01630

>  <SECONDARY_ACCESSION_NUMBERS>  (1) 
EXPT01815

>  <COMMON_NAME>  (1) 
SC-74020

$$$$
