
     RDKit          2D

 30 33  0  0  0  0  0  0  0  0999 V2000
    2.1434   -7.8375    0.0000 F   0  0  0  0  0  0  0  0  0  0  0  0
    2.1434   -8.6625    0.0000 C   0  0  0  0  0  0  0  0  0  0  0  0
    2.8579   -9.0750    0.0000 C   0  0  0  0  0  0  0  0  0  0  0  0
    2.8579   -9.9000    0.0000 C   0  0  0  0  0  0  0  0  0  0  0  0
    2.1434  -10.3125    0.0000 C   0  0  0  0  0  0  0  0  0  0  0  0
    1.4289   -9.9000    0.0000 C   0  0  0  0  0  0  0  0  0  0  0  0
    0.7145  -10.3125    0.0000 C   0  0  0  0  0  0  0  0  0  0  0  0
    0.7145  -11.1375    0.0000 N   0  0  0  0  0  0  0  0  0  0  0  0
    0.0000  -11.5500    0.0000 C   0  0  0  0  0  0  0  0  0  0  0  0
   -0.7145  -11.1375    0.0000 O   0  0  0  0  0  0  0  0  0  0  0  0
    0.0000  -12.3750    0.0000 C   0  0  0  0  0  0  0  0  0  0  0  0
   -0.7145  -12.7875    0.0000 C   0  0  0  0  0  0  0  0  0  0  0  0
   -0.7145  -13.6125    0.0000 N   0  0  0  0  0  0  0  0  0  0  0  0
   -1.4289  -14.0250    0.0000 C   0  0  0  0  0  0  0  0  0  0  0  0
   -2.1434  -13.6125    0.0000 C   0  0  0  0  0  0  0  0  0  0  0  0
   -2.1434  -12.7875    0.0000 C   0  0  0  0  0  0  0  0  0  0  0  0
   -1.4289  -12.3750    0.0000 C   0  0  0  0  0  0  0  0  0  0  0  0
   -2.8579  -14.0250    0.0000 C   0  0  0  0  0  0  0  0  0  0  0  0
   -2.8579  -14.8500    0.0000 C   0  0  0  0  0  0  0  0  0  0  0  0
   -3.5724  -15.2625    0.0000 C   0  0  0  0  0  0  0  0  0  0  0  0
   -4.2868  -14.8500    0.0000 C   0  0  0  0  0  0  0  0  0  0  0  0
   -4.2868  -14.0250    0.0000 C   0  0  0  0  0  0  0  0  0  0  0  0
   -3.5724  -13.6125    0.0000 C   0  0  0  0  0  0  0  0  0  0  0  0
   -5.0013  -15.2625    0.0000 N   0  0  0  0  0  0  0  0  0  0  0  0
   -5.0013  -16.0875    0.0000 C   0  0  0  0  0  0  0  0  0  0  0  0
   -5.7158  -16.5000    0.0000 C   0  0  0  0  0  0  0  0  0  0  0  0
   -6.4302  -16.0875    0.0000 O   0  0  0  0  0  0  0  0  0  0  0  0
   -6.4302  -15.2625    0.0000 C   0  0  0  0  0  0  0  0  0  0  0  0
   -5.7158  -14.8500    0.0000 C   0  0  0  0  0  0  0  0  0  0  0  0
    1.4289   -9.0750    0.0000 C   0  0  0  0  0  0  0  0  0  0  0  0
  1  2  1  0
  2  3  2  0
  2 30  1  0
  3  4  1  0
  4  5  2  0
  5  6  1  0
  6  7  1  0
  6 30  2  0
  7  8  1  0
  8  9  1  0
  9 10  2  0
  9 11  1  0
 11 12  1  0
 12 13  2  0
 12 17  1  0
 13 14  1  0
 14 15  2  0
 15 16  1  0
 15 18  1  0
 16 17  2  0
 18 19  2  0
 18 23  1  0
 19 20  1  0
 20 21  2  0
 21 22  1  0
 21 24  1  0
 22 23  2  0
 24 25  1  0
 24 29  1  0
 25 26  1  0
 26 27  1  0
 27 28  1  0
 28 29  1  0
M  END
>  <DRUGBANK_ID>  (1) 
DB17180

>  <COMMON_NAME>  (1) 
KX-2361

>  <CAS_NUMBER>  (1) 
897016-26-1

>  <UNII>  (1) 
RVW387BA9U

>  <SYNONYMS>  (1) 
2-pyridineacetamide, n-((3-fluorophenyl)methyl)-5-(4-(4-morpholinyl)phenyl)-; N-(3-fluorobenzyl)-2-(5-(4-morpholinophenyl) pyridin-2-yl) acetamide

$$$$
