
     RDKit          2D

 11 11  0  0  1  0  0  0  0  0999 V2000
    0.7145   -0.4125    0.0000 C   0  0  0  0  0  0  0  0  0  0  0  0
    1.4289    0.8250    0.0000 C   0  0  0  0  0  0  0  0  0  0  0  0
    2.1434   -0.4125    0.0000 C   0  0  0  0  0  0  0  0  0  0  0  0
    1.4289    0.0000    0.0000 C   0  0  0  0  0  0  0  0  0  0  0  0
   -0.0000    0.0000    0.0000 C   0  0  0  0  0  0  0  0  0  0  0  0
    0.7145    1.2375    0.0000 C   0  0  0  0  0  0  0  0  0  0  0  0
    0.0000    0.8250    0.0000 C   0  0  0  0  0  0  0  0  0  0  0  0
   -0.7145   -0.4125    0.0000 N   0  0  0  0  0  0  0  0  0  0  0  0
    2.8579    0.0000    0.0000 O   0  0  0  0  0  0  0  0  0  0  0  0
    0.7145    2.0625    0.0000 O   0  0  0  0  0  0  0  0  0  0  0  0
   -0.7145    1.2375    0.0000 O   0  0  0  0  0  0  0  0  0  0  0  0
  4  1  2  0
  4  2  1  0
  4  3  1  0
  5  1  1  0
  5  8  1  6
  6  2  1  0
  6 10  1  1
  7  5  1  0
  7  6  1  0
  7 11  1  6
  9  3  1  0
M  END
>  <DRUGBANK_ID>  (1) 
DB01789

>  <SECONDARY_ACCESSION_NUMBERS>  (1) 
EXPT00430

>  <COMMON_NAME>  (1) 
1-Amino-2,3-Dihydroxy-5-Hydroxymethyl Cyclohex-5-Ene

$$$$
