
     RDKit          2D

 11 10  0  0  0  0  0  0  0  0999 V2000
    0.5230    1.1270    0.0000 C   0  0  0  0  0  0  0  0  0  0  0  0
    1.2375    0.7145    0.0000 C   0  0  0  0  0  0  0  0  0  0  0  0
    1.9520    0.3020    0.0000 C   0  0  0  0  0  0  0  0  0  0  0  0
    1.6500    1.4289    0.0000 C   0  0  0  0  0  0  0  0  0  0  0  0
    1.2375    2.1434    0.0000 S   0  0  0  0  0  0  0  0  0  0  0  0
    0.8250    2.8579    0.0000 O   0  0  0  0  0  0  0  0  0  0  0  0
    0.5230    1.7309    0.0000 O   0  0  0  0  0  0  0  0  0  0  0  0
    1.9520    2.5559    0.0000 O   0  0  0  0  0  0  0  0  0  0  0  0
    0.8250    0.0000    0.0000 N   0  0  0  0  0  0  0  0  0  0  0  0
    1.2375   -0.7145    0.0000 Cl  0  0  0  0  0  0  0  0  0  0  0  0
    0.0000    0.0000    0.0000 Cl  0  0  0  0  0  0  0  0  0  0  0  0
  1  2  1  0
  2  3  1  0
  2  4  1  0
  2  9  1  0
  4  5  1  0
  5  6  2  0
  5  7  2  0
  5  8  1  0
  9 10  1  0
  9 11  1  0
M  END
>  <DRUGBANK_ID>  (1) 
DB12197

>  <COMMON_NAME>  (1) 
Auriclosene

>  <CAS_NUMBER>  (1) 
846056-87-9

>  <UNII>  (1) 
BKR7Y95229

>  <SYNONYMS>  (1) 
Auriclosene

$$$$
