CY0
     RDKit          2D

 29 31  0  0  0  0  0  0  0  0999 V2000
   -2.9311   -0.5223    0.0000 C   0  0  0  0  0  0  0  0  0  0  0  0
   -3.6456   -0.1098    0.0000 C   0  0  0  0  0  0  0  0  0  0  0  0
   -3.6456    0.7152    0.0000 C   0  0  0  0  0  0  0  0  0  0  0  0
   -2.9311    1.1277    0.0000 C   0  0  0  0  0  0  0  0  0  0  0  0
   -2.2167    0.7152    0.0000 C   0  0  0  0  0  0  0  0  0  0  0  0
   -2.2167   -0.1098    0.0000 C   0  0  0  0  0  0  0  0  0  0  0  0
   -1.5022   -0.5223    0.0000 N   0  0  0  0  0  0  0  0  0  0  0  0
   -1.5022   -1.3473    0.0000 C   0  0  0  0  0  0  0  0  0  0  0  0
   -0.7877   -1.7598    0.0000 C   0  0  0  0  0  0  0  0  0  0  0  0
   -0.0732   -1.3473    0.0000 C   0  0  0  0  0  0  0  0  0  0  0  0
   -2.2167   -1.7598    0.0000 N   0  0  0  0  0  0  0  0  0  0  0  0
   -2.2167   -2.5848    0.0000 C   0  0  0  0  0  0  0  0  0  0  0  0
   -1.5022   -2.9973    0.0000 N   0  0  0  0  0  0  0  0  0  0  0  0
   -0.7877   -2.5848    0.0000 C   0  0  0  0  0  0  0  0  0  0  0  0
   -0.0732   -2.9973    0.0000 C   0  0  0  0  0  0  0  0  0  0  0  0
    0.6412   -2.5848    0.0000 C   0  0  0  0  0  0  0  0  0  0  0  0
    0.6412   -1.7598    0.0000 C   0  0  0  0  0  0  0  0  0  0  0  0
    1.3557   -1.3473    0.0000 N   0  0  0  0  0  0  0  0  0  0  0  0
    2.0702   -1.7598    0.0000 C   0  0  0  0  0  0  0  0  0  0  0  0
    2.0702   -2.5848    0.0000 O   0  0  0  0  0  0  0  0  0  0  0  0
    2.7846   -1.3473    0.0000 C   0  0  0  0  0  0  0  0  0  0  0  0
    3.4991   -1.7598    0.0000 C   0  0  0  0  0  0  0  0  0  0  0  0
    4.2136   -1.3473    0.0000 S   0  0  0  0  0  0  0  0  0  0  0  0
    4.9280   -1.7598    0.0000 C   0  0  0  0  0  0  0  0  0  0  0  0
    5.6425   -1.3473    0.0000 C   0  0  0  0  0  0  0  0  0  0  0  0
    6.3570   -1.7598    0.0000 C   0  0  0  0  0  0  0  0  0  0  0  0
    7.0715   -1.3473    0.0000 O   0  0  0  0  0  0  0  0  0  0  0  0
    5.6425   -0.5223    0.0000 N   0  0  0  0  0  0  0  0  0  0  0  0
    6.3570   -2.5848    0.0000 O   0  0  0  0  0  0  0  0  0  0  0  0
  1  2  2  0
  1  6  1  0
  2  3  1  0
  3  4  2  0
  4  5  1  0
  5  6  2  0
  6  7  1  0
  7  8  1  0
  8  9  1  0
  8 11  2  0
  9 10  2  0
  9 14  1  0
 10 17  1  0
 11 12  1  0
 12 13  2  0
 13 14  1  0
 14 15  2  0
 15 16  1  0
 16 17  2  0
 17 18  1  0
 18 19  1  0
 19 20  2  0
 19 21  1  0
 21 22  1  0
 22 23  1  0
 23 24  1  0
 24 25  1  0
 25 26  1  0
 25 28  1  6
 26 27  2  0
 26 29  1  0
M  END
>  <DRUGBANK_ID>  (1) 
DB07602

>  <COMMON_NAME>  (1) 
S-{3-[(4-ANILINOQUINAZOLIN-6-YL)AMINO]-3-OXOPROPYL}-L-CYSTEINE

$$$$
