
     RDKit          2D

  9  8  0  0  1  0  0  0  0  0999 V2000
    1.2375    0.7145    0.0000 C   0  0  0  0  0  0  0  0  0  0  0  0
    0.8250    0.0000    0.0000 C   0  0  0  0  0  0  0  0  0  0  0  0
    0.8250    1.4289    0.0000 C   0  0  0  0  0  0  0  0  0  0  0  0
    0.4125    2.1434    0.0000 F   0  0  0  0  0  0  0  0  0  0  0  0
    0.1105    1.0164    0.0000 F   0  0  0  0  0  0  0  0  0  0  0  0
    1.5395    1.8414    0.0000 F   0  0  0  0  0  0  0  0  0  0  0  0
    2.0625    0.7145    0.0000 N   0  0  0  0  0  0  0  0  0  0  0  0
    1.2375   -0.7145    0.0000 O   0  0  0  0  0  0  0  0  0  0  0  0
    0.0000    0.0000    0.0000 O   0  0  0  0  0  0  0  0  0  0  0  0
  1  7  1  1
  2  1  1  0
  3  1  1  0
  4  3  1  0
  5  3  1  0
  6  3  1  0
  8  2  2  0
  9  2  1  0
M  END
>  <DRUGBANK_ID>  (1) 
DB03794

>  <SECONDARY_ACCESSION_NUMBERS>  (1) 
EXPT01440

>  <COMMON_NAME>  (1) 
Trifluoroalanine

>  <UNII>  (1) 
NT6AV26MM7

$$$$
