
     RDKit          2D

 23 25  0  0  0  0  0  0  0  0999 V2000
   -0.3877    0.3875    0.0000 O   0  0  0  0  0  0  0  0  0  0  0  0
    0.3332   -0.0339    0.0000 C   0  0  0  0  0  0  0  0  0  0  0  0
    0.3332   -0.8636    0.0000 C   0  0  0  0  0  0  0  0  0  0  0  0
   -0.3742   -1.2898    0.0000 O   0  0  0  0  0  0  0  0  0  0  0  0
   -0.3742   -2.0696    0.0000 C   0  0  0  0  0  0  0  0  0  0  0  0
    0.3332   -2.4279    0.0000 C   0  0  0  0  0  0  0  0  0  0  0  0
    1.0405   -1.9927    0.0000 N   0  0  0  0  0  0  0  0  0  0  0  0
    1.0405   -1.2082    0.0000 C   0  0  0  0  0  0  0  0  0  0  0  0
    1.0494    0.3875    0.0000 C   0  0  0  0  0  0  0  0  0  0  0  0
    1.0494    1.2128    0.0000 C   0  0  0  0  0  0  0  0  0  0  0  0
    1.7568    1.6344    0.0000 C   0  0  0  0  0  0  0  0  0  0  0  0
    2.4822    1.2219    0.0000 C   0  0  0  0  0  0  0  0  0  0  0  0
    2.4822    0.3876    0.0000 C   0  0  0  0  0  0  0  0  0  0  0  0
    1.7704   -0.0294    0.0000 C   0  0  0  0  0  0  0  0  0  0  0  0
   -1.1040   -0.0339    0.0000 C   0  0  0  0  0  0  0  0  0  0  0  0
   -1.7659    0.3558    0.0000 C   0  0  0  0  0  0  0  0  0  0  0  0
   -1.7659    1.1856    0.0000 O   0  0  0  0  0  0  0  0  0  0  0  0
   -2.4822    1.6026    0.0000 C   0  0  0  0  0  0  0  0  0  0  0  0
   -2.4822    2.4279    0.0000 C   0  0  0  0  0  0  0  0  0  0  0  0
   -2.4461   -0.0248    0.0000 C   0  0  0  0  0  0  0  0  0  0  0  0
   -2.4461   -0.7957    0.0000 C   0  0  0  0  0  0  0  0  0  0  0  0
   -1.7750   -1.1856    0.0000 C   0  0  0  0  0  0  0  0  0  0  0  0
   -1.1040   -0.8047    0.0000 C   0  0  0  0  0  0  0  0  0  0  0  0
  2  1  1  6
  2  9  1  0
  3  2  1  0
  3  4  1  0
  5  4  1  0
  6  5  1  0
  6  7  1  0
  7  8  1  0
  3  8  1  1
 10  9  2  0
 11 10  1  0
 12 11  2  0
 12 13  1  0
 13 14  2  0
 14  9  1  0
 15  1  1  0
 16 15  2  0
 17 16  1  0
 18 17  1  0
 19 18  1  0
 20 16  1  0
 21 20  2  0
 21 22  1  0
 22 23  2  0
 23 15  1  0
M  END
>  <DRUGBANK_ID>  (1) 
DB00234

>  <SECONDARY_ACCESSION_NUMBERS>  (1) 
APRD00198

>  <COMMON_NAME>  (1) 
Reboxetine

>  <CAS_NUMBER>  (1) 
71620-89-8

>  <UNII>  (1) 
947S0YZ36I

>  <SYNONYMS>  (1) 
Reboxetina; Reboxetine

$$$$
