745
     RDKit          2D

 22 25  0  0  0  0  0  0  0  0999 V2000
   -0.7997    0.5430    0.0000 C   0  0  0  0  0  0  0  0  0  0  0  0
   -0.0852    0.1305    0.0000 C   0  0  0  0  0  0  0  0  0  0  0  0
    0.6292    0.5430    0.0000 C   0  0  0  0  0  0  0  0  0  0  0  0
    0.6292    1.3680    0.0000 C   0  0  0  0  0  0  0  0  0  0  0  0
   -0.0852    1.7805    0.0000 C   0  0  0  0  0  0  0  0  0  0  0  0
   -0.7997    1.3680    0.0000 C   0  0  0  0  0  0  0  0  0  0  0  0
    1.3437    0.1305    0.0000 C   0  0  0  0  0  0  0  0  0  0  0  0
    2.0582    0.5430    0.0000 C   0  0  0  0  0  0  0  0  0  0  0  0
    2.0582    1.3680    0.0000 C   0  0  0  0  0  0  0  0  0  0  0  0
    1.3437    1.7805    0.0000 C   0  0  0  0  0  0  0  0  0  0  0  0
    2.7727    1.7805    0.0000 C   0  0  0  0  0  0  0  0  0  0  0  0
    2.7727    2.6055    0.0000 N   0  0  0  0  0  0  0  0  0  0  0  0
    3.4871    1.3680    0.0000 N   0  0  0  0  0  0  0  0  0  0  0  0
   -1.5142    0.1305    0.0000 C   0  0  0  0  0  0  0  0  0  0  0  0
   -1.9267   -0.5840    0.0000 C   0  0  0  0  0  0  0  0  0  0  0  0
   -1.9267   -1.4090    0.0000 C   0  0  0  0  0  0  0  0  0  0  0  0
   -1.2122   -1.8215    0.0000 C   0  0  0  0  0  0  0  0  0  0  0  0
   -1.2122   -2.6465    0.0000 C   0  0  0  0  0  0  0  0  0  0  0  0
   -1.9267   -3.0590    0.0000 C   0  0  0  0  0  0  0  0  0  0  0  0
   -2.6411   -2.6465    0.0000 C   0  0  0  0  0  0  0  0  0  0  0  0
   -2.6411   -1.8215    0.0000 C   0  0  0  0  0  0  0  0  0  0  0  0
   -2.3392    0.1305    0.0000 C   0  0  0  0  0  0  0  0  0  0  0  0
  1  2  2  0
  1  6  1  0
  2  3  1  0
  3  4  2  0
  3  7  1  0
  4  5  1  0
  4 10  1  0
  5  6  2  0
  7  8  2  0
  8  9  1  0
  9 10  2  0
  9 11  1  0
 11 12  2  0
 11 13  1  0
 14  1  1  1
 14 15  1  0
 14 22  1  0
 15 16  1  6
 15 22  1  0
 16 17  2  0
 16 21  1  0
 17 18  1  0
 18 19  2  0
 19 20  1  0
 20 21  2  0
M  END
>  <DRUGBANK_ID>  (1) 
DB03476

>  <SECONDARY_ACCESSION_NUMBERS>  (1) 
EXPT00296

>  <COMMON_NAME>  (1) 
Trans-6-(2-Phenylcyclopropyl)-Naphthalene-2-Carboxamidine

$$$$
