
     RDKit          2D

 32 36  0  0  1  0  0  0  0  0999 V2000
    4.0668    2.3479    0.0000 C   0  0  0  0  0  0  0  0  0  0  0  0
    3.3523    1.9354    0.0000 C   0  0  0  0  0  0  0  0  0  0  0  0
    3.3523    1.1104    0.0000 C   0  0  0  0  0  0  0  0  0  0  0  0
    2.6378    0.6979    0.0000 C   0  0  0  0  0  0  0  0  0  0  0  0
    1.9233    1.1104    0.0000 N   0  0  0  0  0  0  0  0  0  0  0  0
    1.9233    1.9354    0.0000 C   0  0  0  0  0  0  0  0  0  0  0  0
    1.1387    2.1904    0.0000 C   0  0  0  0  0  0  0  0  0  0  0  0
    0.6538    1.5229    0.0000 C   0  0  0  0  0  0  0  0  0  0  0  0
    1.1387    0.8555    0.0000 N   0  0  0  0  0  0  0  0  0  0  0  0
    2.6378    2.3479    0.0000 N   0  0  0  0  0  0  0  0  0  0  0  0
    2.6378   -0.1271    0.0000 C   0  0  0  0  0  0  0  0  0  0  0  0
    3.3523   -0.5396    0.0000 C   0  0  0  0  0  0  0  0  0  0  0  0
    3.3523   -1.3646    0.0000 C   0  0  0  0  0  0  0  0  0  0  0  0
    2.6378   -1.7771    0.0000 C   0  0  0  0  0  0  0  0  0  0  0  0
    1.9233   -1.3646    0.0000 C   0  0  0  0  0  0  0  0  0  0  0  0
    1.9233   -0.5396    0.0000 C   0  0  0  0  0  0  0  0  0  0  0  0
    1.2089   -1.7771    0.0000 Cl  0  0  0  0  0  0  0  0  0  0  0  0
    2.6378   -2.6021    0.0000 Cl  0  0  0  0  0  0  0  0  0  0  0  0
    4.0668    0.6979    0.0000 C   0  0  0  0  0  0  0  0  0  0  0  0
    4.0668   -0.1271    0.0000 O   0  0  0  0  0  0  0  0  0  0  0  0
    4.7812    1.1104    0.0000 N   0  0  0  0  0  0  0  0  0  0  0  0
    4.8675    1.9309    0.0000 C   0  0  0  0  0  0  0  0  0  0  0  0
    5.6744    2.1025    0.0000 C   0  0  0  0  0  0  0  0  0  0  0  0
    6.0869    1.3880    0.0000 C   0  0  0  0  0  0  0  0  0  0  0  0
    5.5349    0.7749    0.0000 C   0  0  0  0  0  0  0  0  0  0  0  0
    5.7064   -0.0321    0.0000 C   0  0  0  0  0  0  0  0  0  0  0  0
    6.4911   -0.2870    0.0000 C   0  0  0  0  0  0  0  0  0  0  0  0
    6.6626   -1.0940    0.0000 C   0  0  0  0  0  0  0  0  0  0  0  0
    6.0495   -1.6460    0.0000 C   0  0  0  0  0  0  0  0  0  0  0  0
    5.2649   -1.3911    0.0000 C   0  0  0  0  0  0  0  0  0  0  0  0
    5.0933   -0.5841    0.0000 C   0  0  0  0  0  0  0  0  0  0  0  0
    6.2210   -2.4530    0.0000 F   0  0  0  0  0  0  0  0  0  0  0  0
  1  2  1  0
  2  3  2  0
  2 10  1  0
  3  4  1  0
  3 19  1  0
  4  5  1  0
  4 11  1  1
  5  6  1  0
  5  9  1  0
  6  7  2  0
  6 10  1  0
  7  8  1  0
  8  9  2  0
 11 12  2  0
 11 16  1  0
 12 13  1  0
 13 14  2  0
 14 15  1  0
 14 18  1  0
 15 16  2  0
 15 17  1  0
 19 20  2  0
 19 21  1  0
 21 22  1  0
 21 25  1  0
 22 23  1  0
 23 24  1  0
 24 25  1  0
 25 26  1  1
 26 27  2  0
 26 31  1  0
 27 28  1  0
 28 29  2  0
 29 30  1  0
 29 32  1  0
 30 31  2  0
M  END
>  <DRUGBANK_ID>  (1) 
DB12067

>  <COMMON_NAME>  (1) 
BMS-394136

>  <CAS_NUMBER>  (1) 
343246-73-1

>  <UNII>  (1) 
M694U7167K

$$$$
