
     RDKit          2D

 28 30  0  0  1  0  0  0  0  0999 V2000
    3.7935   -1.8563    0.0000 O   0  0  0  0  0  0  0  0  0  0  0  0
    2.3645   -3.5063    0.0000 N   0  0  0  0  0  0  0  0  0  0  0  0
    3.0791    1.8563    0.0000 C   0  0  0  0  0  0  0  0  0  0  0  0
    3.7935    1.4438    0.0000 C   0  0  0  0  0  0  0  0  0  0  0  0
    2.3645    1.4438    0.0000 C   0  0  0  0  0  0  0  0  0  0  0  0
    3.0791    2.6813    0.0000 C   0  0  0  0  0  0  0  0  0  0  0  0
    3.7935    0.6188    0.0000 C   0  0  0  0  0  0  0  0  0  0  0  0
    4.5080    1.8563    0.0000 C   0  0  0  0  0  0  0  0  0  0  0  0
    1.6500    1.8563    0.0000 C   0  0  0  0  0  0  0  0  0  0  0  0
    3.0791    0.2063    0.0000 C   0  0  0  0  0  0  0  0  0  0  0  0
    4.5080    0.2063    0.0000 C   0  0  0  0  0  0  0  0  0  0  0  0
    2.3645    3.0938    0.0000 C   0  0  0  0  0  0  0  0  0  0  0  0
    3.7935    3.0938    0.0000 C   0  0  0  0  0  0  0  0  0  0  0  0
    4.5080    2.6813    0.0000 C   0  0  0  0  0  0  0  0  0  0  0  0
    5.2224    1.4438    0.0000 C   0  0  0  0  0  0  0  0  0  0  0  0
    3.0791   -0.6188    0.0000 C   0  0  0  0  0  0  0  0  0  0  0  0
    4.5080   -0.6188    0.0000 C   0  0  0  0  0  0  0  0  0  0  0  0
    3.7935   -1.0313    0.0000 C   0  0  0  0  0  0  0  0  0  0  0  0
    2.3645    3.9188    0.0000 C   0  0  0  0  0  0  0  0  0  0  0  0
    3.7935    3.9188    0.0000 C   0  0  0  0  0  0  0  0  0  0  0  0
    5.2224    3.0938    0.0000 C   0  0  0  0  0  0  0  0  0  0  0  0
    5.9370    1.8563    0.0000 C   0  0  0  0  0  0  0  0  0  0  0  0
    3.0791    4.3313    0.0000 C   0  0  0  0  0  0  0  0  0  0  0  0
    5.9370    2.6813    0.0000 C   0  0  0  0  0  0  0  0  0  0  0  0
    3.0791   -2.2688    0.0000 C   0  0  0  0  0  0  0  0  0  0  0  0
    3.0791   -3.0938    0.0000 C   0  0  0  0  0  0  0  0  0  0  0  0
    2.3645   -4.3313    0.0000 C   0  0  0  0  0  0  0  0  0  0  0  0
    1.6500   -3.0938    0.0000 C   0  0  0  0  0  0  0  0  0  0  0  0
  1 18  1  0
  1 25  1  0
  2 26  1  0
  2 27  1  0
  2 28  1  0
  3  4  1  0
  3  5  1  0
  3  6  1  0
  4  7  1  0
  4  8  1  0
  5  9  1  0
  6 12  2  0
  6 13  1  0
  7 10  2  0
  7 11  1  0
  8 14  2  0
  8 15  1  0
 10 16  1  0
 11 17  2  0
 12 19  1  0
 13 20  2  0
 14 21  1  0
 15 22  2  0
 16 18  2  0
 17 18  1  0
 19 23  2  0
 20 23  1  0
 21 24  2  0
 22 24  1  0
 25 26  1  0
M  END
>  <DRUGBANK_ID>  (1) 
DB05462

>  <COMMON_NAME>  (1) 
Chlorotoxin I-131

>  <UNII>  (1) 
544WOQ7W6W

>  <SYNONYMS>  (1) 
I(131)-TM-601 (chlorotoxin)

$$$$
