
     RDKit          2D

 23 24  0  0  0  0  0  0  0  0999 V2000
   -1.7861    3.0937    0.0000 O   0  0  0  0  0  0  0  0  0  0  0  0
   -1.7861    2.2687    0.0000 C   0  0  0  0  0  0  0  0  0  0  0  0
   -2.5006    1.8562    0.0000 O   0  0  0  0  0  0  0  0  0  0  0  0
   -1.0716    1.8562    0.0000 C   0  0  0  0  0  0  0  0  0  0  0  0
   -1.0716    1.0312    0.0000 C   0  0  0  0  0  0  0  0  0  0  0  0
   -0.3572    0.6187    0.0000 C   0  0  0  0  0  0  0  0  0  0  0  0
   -0.3572   -0.2062    0.0000 C   0  0  0  0  0  0  0  0  0  0  0  0
   -1.0716   -0.6187    0.0000 C   0  0  0  0  0  0  0  0  0  0  0  0
   -1.0716   -1.4437    0.0000 O   0  0  0  0  0  0  0  0  0  0  0  0
   -0.3572   -1.8562    0.0000 C   0  0  0  0  0  0  0  0  0  0  0  0
   -0.3572   -2.6812    0.0000 C   0  0  0  0  0  0  0  0  0  0  0  0
    0.3572   -3.0937    0.0000 C   0  0  0  0  0  0  0  0  0  0  0  0
    1.0717   -2.6812    0.0000 C   0  0  0  0  0  0  0  0  0  0  0  0
    1.7861   -3.0937    0.0000 O   0  0  0  0  0  0  0  0  0  0  0  0
    1.0717   -1.8562    0.0000 C   0  0  0  0  0  0  0  0  0  0  0  0
    0.3572   -1.4437    0.0000 C   0  0  0  0  0  0  0  0  0  0  0  0
    1.7861   -1.4437    0.0000 C   0  0  0  0  0  0  0  0  0  0  0  0
    1.7861   -0.6187    0.0000 C   0  0  0  0  0  0  0  0  0  0  0  0
    2.5006   -1.8562    0.0000 C   0  0  0  0  0  0  0  0  0  0  0  0
   -1.7861   -0.2062    0.0000 C   0  0  0  0  0  0  0  0  0  0  0  0
   -1.7861    0.6187    0.0000 C   0  0  0  0  0  0  0  0  0  0  0  0
   -2.5006   -0.6187    0.0000 Cl  0  0  0  0  0  0  0  0  0  0  0  0
    0.3572   -0.6187    0.0000 Cl  0  0  0  0  0  0  0  0  0  0  0  0
  2  1  1  0
  2  3  2  0
  4  2  1  0
  5  4  1  0
  5  6  2  0
  5 21  1  0
  7  6  1  0
  7 23  1  0
  8  7  2  0
  8  9  1  0
 10  9  1  0
 10 16  1  0
 11 10  2  0
 12 11  1  0
 12 13  2  0
 13 14  1  0
 15 13  1  0
 16 15  2  0
 17 15  1  0
 17 18  1  0
 17 19  1  0
 20  8  1  0
 20 22  1  0
 21 20  2  0
M  END
>  <DRUGBANK_ID>  (1) 
DB03176

>  <SECONDARY_ACCESSION_NUMBERS>  (1) 
EXPT01852

>  <COMMON_NAME>  (1) 
KB-141

>  <CAS_NUMBER>  (1) 
219691-94-8

>  <UNII>  (1) 
M5P363AFVC

>  <SYNONYMS>  (1) 
3,5-dichloro-4-(4-hydroxy-3-isopropylphenoxy)phenylacetic acid

$$$$
