
     RDKit          2D

 23 25  0  0  0  0  0  0  0  0999 V2000
    0.6625    1.9845    0.0000 C   0  0  0  0  0  0  0  0  0  0  0  0
    1.0766    1.2710    0.0000 C   0  0  0  0  0  0  0  0  0  0  0  0
    0.6625    0.5574    0.0000 C   0  0  0  0  0  0  0  0  0  0  0  0
   -0.1592    0.4746    0.0000 C   0  0  0  0  0  0  0  0  0  0  0  0
   -0.7072    1.0862    0.0000 C   0  0  0  0  0  0  0  0  0  0  0  0
   -0.3312   -0.3345    0.0000 C   0  0  0  0  0  0  0  0  0  0  0  0
    0.3886   -0.7485    0.0000 C   0  0  0  0  0  0  0  0  0  0  0  0
    0.3886   -1.5704    0.0000 C   0  0  0  0  0  0  0  0  0  0  0  0
   -0.3312   -1.9845    0.0000 C   0  0  0  0  0  0  0  0  0  0  0  0
   -1.0448   -1.5704    0.0000 C   0  0  0  0  0  0  0  0  0  0  0  0
   -1.0448   -0.7485    0.0000 C   0  0  0  0  0  0  0  0  0  0  0  0
   -1.7584   -0.3345    0.0000 C   0  0  0  0  0  0  0  0  0  0  0  0
   -1.7584    0.4873    0.0000 Cl  0  0  0  0  0  0  0  0  0  0  0  0
   -2.4719   -0.7485    0.0000 C   0  0  0  0  0  0  0  0  0  0  0  0
   -2.4719   -1.5704    0.0000 C   0  0  0  0  0  0  0  0  0  0  0  0
   -3.1854   -1.9845    0.0000 O   0  0  0  0  0  0  0  0  0  0  0  0
   -1.7584   -1.9845    0.0000 N   0  0  0  0  0  0  0  0  0  0  0  0
    1.0002   -0.1943    0.0000 N   0  0  0  0  0  0  0  0  0  0  0  0
    1.8029   -0.3663    0.0000 C   0  0  0  0  0  0  0  0  0  0  0  0
    2.3891    0.2134    0.0000 C   0  0  0  0  0  0  0  0  0  0  0  0
    2.9688    0.7995    0.0000 F   0  0  0  0  0  0  0  0  0  0  0  0
    2.1724    1.0097    0.0000 F   0  0  0  0  0  0  0  0  0  0  0  0
    3.1854    0.0031    0.0000 F   0  0  0  0  0  0  0  0  0  0  0  0
  1  2  1  0
  2  3  1  0
  3  4  2  0
  3 18  1  0
  4  5  1  0
  4  6  1  0
  6  7  2  0
  6 11  1  0
  7  8  1  0
  7 18  1  0
  8  9  2  0
  9 10  1  0
 10 11  2  0
 10 17  1  0
 11 12  1  0
 12 13  1  0
 12 14  2  0
 14 15  1  0
 15 16  2  0
 15 17  1  0
 18 19  1  0
 19 20  1  0
 20 21  1  0
 20 22  1  0
 20 23  1  0
M  END
>  <DRUGBANK_ID>  (1) 
DB13937

>  <COMMON_NAME>  (1) 
LGD-3303

>  <CAS_NUMBER>  (1) 
917891-35-1

>  <UNII>  (1) 
7N4E1X2RJM

>  <SYNONYMS>  (1) 
9-Chloro-2-ethyl-1-methyl-3-(2,2,2-trifluoroethyl)-3H-pyrrolo(3,2-F)quinolin-7(6H)-one

$$$$
