20A
     RDKit          2D

 28 31  0  0  0  0  0  0  0  0999 V2000
    2.2132   -1.1327    0.0000 O   0  0  0  0  0  0  0  0  0  0  0  0
    1.4987   -0.7202    0.0000 C   0  0  0  0  0  0  0  0  0  0  0  0
    1.4987    0.1048    0.0000 N   0  0  0  0  0  0  0  0  0  0  0  0
    2.2132    0.5173    0.0000 C   0  0  0  0  0  0  0  0  0  0  0  0
    2.2132    1.3423    0.0000 C   0  0  0  0  0  0  0  0  0  0  0  0
    2.9277    1.7548    0.0000 C   0  0  0  0  0  0  0  0  0  0  0  0
    2.9277    2.5798    0.0000 C   0  0  0  0  0  0  0  0  0  0  0  0
    2.2132    2.9923    0.0000 C   0  0  0  0  0  0  0  0  0  0  0  0
    1.4987    2.5798    0.0000 C   0  0  0  0  0  0  0  0  0  0  0  0
    1.4987    1.7548    0.0000 C   0  0  0  0  0  0  0  0  0  0  0  0
    0.7842   -1.1327    0.0000 C   0  0  0  0  0  0  0  0  0  0  0  0
    0.7842   -1.9577    0.0000 C   0  0  0  0  0  0  0  0  0  0  0  0
    0.0698   -2.3702    0.0000 N   0  0  0  0  0  0  0  0  0  0  0  0
   -0.6447   -1.9577    0.0000 C   0  0  0  0  0  0  0  0  0  0  0  0
   -1.4293   -2.2126    0.0000 N   0  0  0  0  0  0  0  0  0  0  0  0
   -1.6843   -2.9973    0.0000 C   0  0  0  0  0  0  0  0  0  0  0  0
   -2.4912   -3.1688    0.0000 C   0  0  0  0  0  0  0  0  0  0  0  0
   -1.9142   -1.5452    0.0000 N   0  0  0  0  0  0  0  0  0  0  0  0
   -0.6447   -1.1327    0.0000 C   0  0  0  0  0  0  0  0  0  0  0  0
   -1.4293   -0.8778    0.0000 C   0  0  0  0  0  0  0  0  0  0  0  0
    0.0698   -0.7202    0.0000 C   0  0  0  0  0  0  0  0  0  0  0  0
    0.0698    0.1048    0.0000 N   0  0  0  0  0  0  0  0  0  0  0  0
   -0.6447    0.5173    0.0000 C   0  0  0  0  0  0  0  0  0  0  0  0
   -1.3592    0.1048    0.0000 C   0  0  0  0  0  0  0  0  0  0  0  0
   -2.0736    0.5173    0.0000 C   0  0  0  0  0  0  0  0  0  0  0  0
   -2.0736    1.3423    0.0000 O   0  0  0  0  0  0  0  0  0  0  0  0
   -1.3592    1.7548    0.0000 C   0  0  0  0  0  0  0  0  0  0  0  0
   -0.6447    1.3423    0.0000 C   0  0  0  0  0  0  0  0  0  0  0  0
  1  2  2  0
  2  3  1  0
  3  4  1  0
  5  4  1  0
  5 10  1  0
  6  5  2  0
  7  6  1  0
  7  8  2  0
  8  9  1  0
  9 10  2  0
 11  2  1  0
 11 12  2  0
 13 12  1  0
 14 13  2  0
 15 14  1  0
 15 16  1  0
 16 17  1  0
 18 15  1  0
 18 20  2  0
 19 14  1  0
 19 21  2  0
 20 19  1  0
 21 11  1  0
 22 21  1  0
 23 22  1  0
 23 24  1  0
 25 24  1  0
 26 25  1  0
 27 26  1  0
 27 28  1  0
 28 23  1  0
M  END
>  <DRUGBANK_ID>  (1) 
DB06909

>  <COMMON_NAME>  (1) 
1-ethyl-N-(phenylmethyl)-4-(tetrahydro-2H-pyran-4-ylamino)-1H-pyrazolo[3,4-b]pyridine-5-carboxamide

$$$$
