
     RDKit          2D

 22 22  0  0  0  0  0  0  0  0999 V2000
   -3.2100    0.4054    0.0000 C   0  0  0  0  0  0  0  0  0  0  0  0
   -3.2112   -0.4227    0.0000 C   0  0  0  0  0  0  0  0  0  0  0  0
   -2.4955   -0.8360    0.0000 C   0  0  0  0  0  0  0  0  0  0  0  0
   -1.7782   -0.4223    0.0000 C   0  0  0  0  0  0  0  0  0  0  0  0
   -1.7811    0.4091    0.0000 C   0  0  0  0  0  0  0  0  0  0  0  0
   -2.4973    0.8187    0.0000 C   0  0  0  0  0  0  0  0  0  0  0  0
   -1.0687    0.8226    0.0000 C   0  0  0  0  0  0  0  0  0  0  0  0
   -0.3554    0.4138    0.0000 C   0  0  0  0  0  0  0  0  0  0  0  0
    0.3579    0.8267    0.0000 C   0  0  0  0  0  0  0  0  0  0  0  0
    1.0712    0.4180    0.0000 C   0  0  0  0  0  0  0  0  0  0  0  0
    1.7844    0.8309    0.0000 C   0  0  0  0  0  0  0  0  0  0  0  0
    2.4978    0.4222    0.0000 C   0  0  0  0  0  0  0  0  0  0  0  0
    3.2111    0.8351    0.0000 C   0  0  0  0  0  0  0  0  0  0  0  0
   -3.9268   -0.8351    0.0000 N   0  0  0  0  0  0  0  0  0  0  0  0
   -4.6417   -0.4216    0.0000 C   0  0  0  0  0  0  0  0  0  0  0  0
   -3.9274   -1.6610    0.0000 C   0  0  0  0  0  0  0  0  0  0  0  0
   -1.0709    1.6486    0.0000 O   0  0  0  0  0  0  0  0  0  0  0  0
    1.0730   -0.4078    0.0000 C   0  0  0  0  0  0  0  0  0  0  0  0
    3.9269    0.4230    0.0000 N   0  0  0  0  0  0  0  0  0  0  0  0
    3.2101    1.6610    0.0000 O   0  0  0  0  0  0  0  0  0  0  0  0
    4.6417    0.8368    0.0000 O   0  0  0  0  0  0  0  0  0  0  0  0
   -0.3536   -0.4121    0.0000 C   0  0  0  0  0  0  0  0  0  0  0  0
  1  2  2  0
  2 14  1  0
  2  3  1  0
  3  4  2  0
  4  5  1  0
  5  6  2  0
  5  7  1  0
  6  1  1  0
  7  8  1  0
  7 17  2  0
  8  9  1  0
  8 22  1  1
  9 10  2  0
 10 11  1  0
 10 18  1  0
 11 12  2  0
 12 13  1  0
 13 19  1  0
 13 20  2  0
 14 15  1  0
 14 16  1  0
 19 21  1  0
M  END
>  <DRUGBANK_ID>  (1) 
DB04297

>  <SECONDARY_ACCESSION_NUMBERS>  (1) 
EXPT03123

>  <COMMON_NAME>  (1) 
Trichostatin A

>  <CAS_NUMBER>  (1) 
58880-19-6

>  <UNII>  (1) 
3X2S926L3Z

>  <SYNONYMS>  (1) 
TSA

$$$$
