H52
     RDKit          2D

 22 24  0  0  0  0  0  0  0  0999 V2000
   -1.1406   -0.1826    0.0000 O   0  0  0  0  0  0  0  0  0  0  0  0
   -0.3156   -0.1826    0.0000 S   0  0  0  0  0  0  0  0  0  0  0  0
    0.5094   -0.1826    0.0000 O   0  0  0  0  0  0  0  0  0  0  0  0
   -0.3156    0.6424    0.0000 N   0  0  0  0  0  0  0  0  0  0  0  0
   -1.0589    1.0003    0.0000 C   0  0  0  0  0  0  0  0  0  0  0  0
   -1.7039    0.4860    0.0000 C   0  0  0  0  0  0  0  0  0  0  0  0
   -1.2425    1.8046    0.0000 C   0  0  0  0  0  0  0  0  0  0  0  0
   -0.7281    2.4497    0.0000 N   0  0  0  0  0  0  0  0  0  0  0  0
    0.0969    2.4497    0.0000 C   0  0  0  0  0  0  0  0  0  0  0  0
    0.6112    1.8046    0.0000 C   0  0  0  0  0  0  0  0  0  0  0  0
    0.4277    1.0003    0.0000 C   0  0  0  0  0  0  0  0  0  0  0  0
   -0.3156   -1.0076    0.0000 C   0  0  0  0  0  0  0  0  0  0  0  0
    0.3988   -1.4201    0.0000 C   0  0  0  0  0  0  0  0  0  0  0  0
    1.1133   -1.0076    0.0000 C   0  0  0  0  0  0  0  0  0  0  0  0
    1.1133   -0.1826    0.0000 C   0  0  0  0  0  0  0  0  0  0  0  0
    0.3988   -2.2451    0.0000 C   0  0  0  0  0  0  0  0  0  0  0  0
   -0.3156   -2.6576    0.0000 C   0  0  0  0  0  0  0  0  0  0  0  0
   -1.0301   -2.2451    0.0000 C   0  0  0  0  0  0  0  0  0  0  0  0
   -1.0301   -1.4201    0.0000 C   0  0  0  0  0  0  0  0  0  0  0  0
    1.1133   -2.6576    0.0000 C   0  0  0  0  0  0  0  0  0  0  0  0
    1.8278   -2.2451    0.0000 N   0  0  0  0  0  0  0  0  0  0  0  0
    1.8278   -1.4201    0.0000 C   0  0  0  0  0  0  0  0  0  0  0  0
  1  2  2  0
  2  3  2  0
  2  4  1  0
  2 12  1  0
  4  5  1  0
  4 11  1  0
  5  6  1  1
  5  7  1  0
  7  8  1  0
  8  9  1  0
  9 10  1  0
 10 11  1  0
 12 13  1  0
 12 19  2  0
 13 14  2  0
 13 16  1  0
 14 15  1  0
 14 22  1  0
 16 17  1  0
 16 20  2  0
 17 18  2  0
 18 19  1  0
 20 21  1  0
 21 22  2  0
M  END
>  <DRUGBANK_ID>  (1) 
DB07876

>  <COMMON_NAME>  (1) 
(S)-2-METHYL-1-[(4-METHYL-5-ISOQUINOLINE)SULFONYL]-HOMOPIPERAZINE

$$$$
