AM3
     RDKit          2D

 22 23  0  0  0  0  0  0  0  0999 V2000
   -1.2626    2.5790    0.0000 O   0  0  0  0  0  0  0  0  0  0  0  0
   -1.5175    1.7944    0.0000 C   0  0  0  0  0  0  0  0  0  0  0  0
   -0.9655    1.1813    0.0000 C   0  0  0  0  0  0  0  0  0  0  0  0
   -0.1405    1.1813    0.0000 C   0  0  0  0  0  0  0  0  0  0  0  0
    0.1145    0.3967    0.0000 O   0  0  0  0  0  0  0  0  0  0  0  0
   -2.3245    1.6229    0.0000 C   0  0  0  0  0  0  0  0  0  0  0  0
   -2.8765    2.2360    0.0000 O   0  0  0  0  0  0  0  0  0  0  0  0
   -2.5794    0.8383    0.0000 C   0  0  0  0  0  0  0  0  0  0  0  0
   -3.3864    0.6667    0.0000 O   0  0  0  0  0  0  0  0  0  0  0  0
   -2.0274    0.2252    0.0000 C   0  0  0  0  0  0  0  0  0  0  0  0
   -2.2823   -0.5594    0.0000 O   0  0  0  0  0  0  0  0  0  0  0  0
   -1.2204    0.3967    0.0000 N   0  0  0  0  0  0  0  0  0  0  0  0
   -0.5530   -0.0882    0.0000 C   0  0  0  0  0  0  0  0  0  0  0  0
   -0.5530   -0.9132    0.0000 N   0  0  0  0  0  0  0  0  0  0  0  0
    0.1615   -1.3257    0.0000 C   0  0  0  0  0  0  0  0  0  0  0  0
    0.8760   -0.9132    0.0000 C   0  0  0  0  0  0  0  0  0  0  0  0
    1.5905   -1.3257    0.0000 C   0  0  0  0  0  0  0  0  0  0  0  0
    2.3049   -0.9132    0.0000 C   0  0  0  0  0  0  0  0  0  0  0  0
    3.0194   -1.3257    0.0000 C   0  0  0  0  0  0  0  0  0  0  0  0
    3.7339   -0.9132    0.0000 C   0  0  0  0  0  0  0  0  0  0  0  0
    4.4483   -1.3257    0.0000 C   0  0  0  0  0  0  0  0  0  0  0  0
    5.1628   -0.9132    0.0000 C   0  0  0  0  0  0  0  0  0  0  0  0
  2  1  1  1
  2  3  1  0
  2  6  1  0
  3  4  1  1
  3 12  1  0
  4  5  1  0
  5 13  1  0
  6  7  1  1
  6  8  1  0
  8  9  1  6
  8 10  1  0
 10 11  1  1
 10 12  1  0
 12 13  1  0
 13 14  2  0
 14 15  1  0
 15 16  1  0
 16 17  1  0
 17 18  1  0
 18 19  1  0
 19 20  1  0
 20 21  1  0
 21 22  1  0
M  END
>  <DRUGBANK_ID>  (1) 
DB07367

>  <COMMON_NAME>  (1) 
(3Z,5S,6R,7S,8S,8aR)-3-(octylimino)hexahydro[1,3]oxazolo[3,4-a]pyridine-5,6,7,8-tetrol

$$$$
