
     RDKit          2D

 34 35  0  0  0  0  0  0  0  0999 V2000
   -0.7682    0.1750    0.0000 C   0  0  0  0  0  0  0  0  0  0  0  0
   -0.5830   -0.6289    0.0000 C   0  0  0  0  0  0  0  0  0  0  0  0
    0.1609   -0.9855    0.0000 O   0  0  0  0  0  0  0  0  0  0  0  0
    1.0856    0.1783    0.0000 C   0  0  0  0  0  0  0  0  0  0  0  0
    0.9036   -0.6263    0.0000 C   0  0  0  0  0  0  0  0  0  0  0  0
   -0.7715    2.0323    0.0000 C   0  0  0  0  0  0  0  0  0  0  0  0
   -0.5878    2.8369    0.0000 C   0  0  0  0  0  0  0  0  0  0  0  0
    0.1554    3.1947    0.0000 C   0  0  0  0  0  0  0  0  0  0  0  0
    1.0824    2.0323    0.0000 C   0  0  0  0  0  0  0  0  0  0  0  0
    0.8989    2.8369    0.0000 C   0  0  0  0  0  0  0  0  0  0  0  0
    1.8897    0.3636    0.0000 C   0  0  0  0  0  0  0  0  0  0  0  0
    2.2464    1.1076    0.0000 C   0  0  0  0  0  0  0  0  0  0  0  0
    1.8871    1.8502    0.0000 C   0  0  0  0  0  0  0  0  0  0  0  0
   -1.5726    0.3589    0.0000 C   0  0  0  0  0  0  0  0  0  0  0  0
   -1.9306    1.1021    0.0000 C   0  0  0  0  0  0  0  0  0  0  0  0
   -1.5726    1.8455    0.0000 C   0  0  0  0  0  0  0  0  0  0  0  0
    1.5495   -1.1393    0.0000 O   0  0  0  0  0  0  0  0  0  0  0  0
    2.4054   -0.2804    0.0000 O   0  0  0  0  0  0  0  0  0  0  0  0
    2.9613    0.6961    0.0000 C   0  0  0  0  0  0  0  0  0  0  0  0
    2.9607    1.5113    0.0000 C   0  0  0  0  0  0  0  0  0  0  0  0
    2.4004    2.4963    0.0000 O   0  0  0  0  0  0  0  0  0  0  0  0
    0.4996    1.4485    0.0000 C   0  0  0  0  0  0  0  0  0  0  0  0
    1.5439    3.3513    0.0000 O   0  0  0  0  0  0  0  0  0  0  0  0
    0.1554    4.0198    0.0000 C   0  0  0  0  0  0  0  0  0  0  0  0
   -2.7546    1.0986    0.0000 C   0  0  0  0  0  0  0  0  0  0  0  0
   -1.0294   -1.3213    0.0000 C   0  0  0  0  0  0  0  0  0  0  0  0
   -0.6529   -2.0553    0.0000 C   0  0  0  0  0  0  0  0  0  0  0  0
   -1.1006   -2.7485    0.0000 C   0  0  0  0  0  0  0  0  0  0  0  0
   -1.9256   -2.7518    0.0000 N   0  0  0  0  0  0  0  0  0  0  0  0
   -2.1777   -3.5373    0.0000 C   0  0  0  0  0  0  0  0  0  0  0  0
   -0.8427   -3.5321    0.0000 C   0  0  0  0  0  0  0  0  0  0  0  0
   -1.5083   -4.0198    0.0000 S   0  0  0  0  0  0  0  0  0  0  0  0
   -2.9613   -3.7953    0.0000 C   0  0  0  0  0  0  0  0  0  0  0  0
   -1.8570   -1.3210    0.0000 C   0  0  0  0  0  0  0  0  0  0  0  0
  2  1  1  0
  2 26  1  6
  3  2  1  0
  5  3  1  0
  5  4  1  0
  5 17  2  0
  7  6  1  0
  8  7  1  0
  8 24  1  6
  9 22  1  6
 10  8  1  0
 10  9  1  0
 10 23  1  6
 11  4  1  0
 11 18  1  1
 12 11  1  0
 12 19  1  0
 12 20  1  0
 13 12  1  0
 13  9  1  0
 13 21  2  0
 14  1  1  0
 15 14  2  0
 15 25  1  0
 16 15  1  0
 16  6  1  0
 26 27  2  0
 26 34  1  0
 27 28  1  0
 28 29  1  0
 30 29  2  0
 30 33  1  0
 31 28  2  0
 32 30  1  0
 32 31  1  0
M  END
>  <DRUGBANK_ID>  (1) 
DB01873

>  <SECONDARY_ACCESSION_NUMBERS>  (1) 
EXPT01350

>  <COMMON_NAME>  (1) 
Epothilone D

>  <CAS_NUMBER>  (1) 
189453-10-9

>  <UNII>  (1) 
T0358E0YUF

>  <SYNONYMS>  (1) 
(-)-desoxyepothilone B; 12,13-desoxyepothilone B; Desoxyepothilone B

$$$$
