
     RDKit          2D

 14 15  0  0  0  0  0  0  0  0999 V2000
    0.0000    0.4126    0.0000 C   0  0  0  0  0  0  0  0  0  0  0  0
    0.0000   -0.4123    0.0000 C   0  0  0  0  0  0  0  0  0  0  0  0
    0.7145    0.8251    0.0000 C   0  0  0  0  0  0  0  0  0  0  0  0
   -0.7145    0.8252    0.0000 C   0  0  0  0  0  0  0  0  0  0  0  0
    0.7144   -0.8250    0.0000 C   0  0  0  0  0  0  0  0  0  0  0  0
   -0.7146   -0.8249    0.0000 C   0  0  0  0  0  0  0  0  0  0  0  0
    1.4290    0.4125    0.0000 N   0  0  0  0  0  0  0  0  0  0  0  0
    0.7146    1.6501    0.0000 N   0  0  0  0  0  0  0  0  0  0  0  0
   -1.4290    0.4127    0.0000 C   0  0  0  0  0  0  0  0  0  0  0  0
    1.4289   -0.4125    0.0000 N   0  0  0  0  0  0  0  0  0  0  0  0
    0.7144   -1.6500    0.0000 N   0  0  0  0  0  0  0  0  0  0  0  0
   -1.4291   -0.4122    0.0000 C   0  0  0  0  0  0  0  0  0  0  0  0
    1.4291    2.0627    0.0000 N   0  0  0  0  0  0  0  0  0  0  0  0
    1.4288   -2.0627    0.0000 N   0  0  0  0  0  0  0  0  0  0  0  0
  1  2  1  0
  1  3  2  0
  1  4  1  0
  2  5  2  0
  2  6  1  0
  3  7  1  0
  3  8  1  0
  4  9  2  0
  5 10  1  0
  5 11  1  0
  6 12  2  0
  7 10  2  0
  8 13  1  0
  9 12  1  0
 11 14  1  0
M  END
>  <DRUGBANK_ID>  (1) 
DB12945

>  <COMMON_NAME>  (1) 
Dihydralazine

>  <CAS_NUMBER>  (1) 
484-23-1

>  <UNII>  (1) 
PCU411F5L6

>  <SYNONYMS>  (1) 
Dihidralazina; Dihydralazine; Dihydralazinum; Dihydrallazin; Dihydrazinophthalazine

$$$$
