
     RDKit          2D

 18 20  0  0  1  0  0  0  0  0999 V2000
    4.3664    3.4659    0.0000 C   0  0  0  0  0  0  0  0  0  0  0  0
    3.5594    3.2944    0.0000 C   0  0  0  0  0  0  0  0  0  0  0  0
    3.3044    2.5098    0.0000 C   0  0  0  0  0  0  0  0  0  0  0  0
    2.4975    2.3383    0.0000 N   0  0  0  0  0  0  0  0  0  0  0  0
    2.2425    1.5536    0.0000 C   0  0  0  0  0  0  0  0  0  0  0  0
    2.7275    0.8862    0.0000 C   0  0  0  0  0  0  0  0  0  0  0  0
    2.2425    0.2188    0.0000 C   0  0  0  0  0  0  0  0  0  0  0  0
    2.4975   -0.5659    0.0000 O   0  0  0  0  0  0  0  0  0  0  0  0
    1.4579    0.4737    0.0000 C   0  0  0  0  0  0  0  0  0  0  0  0
    1.1224   -0.2800    0.0000 C   0  0  0  0  0  0  0  0  0  0  0  0
    0.3019   -0.3662    0.0000 O   0  0  0  0  0  0  0  0  0  0  0  0
    0.7434    0.8862    0.0000 C   0  0  0  0  0  0  0  0  0  0  0  0
    1.4579    1.2987    0.0000 C   0  0  0  0  0  0  0  0  0  0  0  0
    1.9454    2.9514    0.0000 C   0  0  0  0  0  0  0  0  0  0  0  0
    1.1385    2.7798    0.0000 O   0  0  0  0  0  0  0  0  0  0  0  0
    2.2004    3.7360    0.0000 N   0  0  0  0  0  0  0  0  0  0  0  0
    3.0074    3.9075    0.0000 C   0  0  0  0  0  0  0  0  0  0  0  0
    3.2623    4.6921    0.0000 O   0  0  0  0  0  0  0  0  0  0  0  0
  1  2  1  0
  2  3  2  0
  2 17  1  0
  3  4  1  0
  4 14  1  0
  5  4  1  1
  5  6  1  0
  7  6  1  0
  7  8  1  6
  9  7  1  0
  9 10  1  1
  9 12  1  0
  9 13  1  0
 10 11  1  0
 13 12  1  6
 13  5  1  0
 14 15  2  0
 14 16  1  0
 16 17  1  0
 17 18  2  0
M  END
>  <DRUGBANK_ID>  (1) 
DB17805

>  <COMMON_NAME>  (1) 
North-methanocarbathymidine

>  <CAS_NUMBER>  (1) 
156126-12-4

>  <UNII>  (1) 
LTM5S02010

>  <SYNONYMS>  (1) 
(north)-methanocarbathymidine; 1-((1s,2s,4s,5r)-4-hydroxy-5-(hydroxymethyl)bicyclo(3.1.0)hex-2-yl)-5-methyl-2,4(1h,3h)-pyrimidinedione; 2,4(1h,3h)-pyrimidinedione, 1-((1s,2s,4s,5r)-4-hydroxy-5-(hydroxymethyl)bicyclo(3.1.0)hex-2-yl)-5-methyl-; 2,4(1h,3h)-pyrimidinedione, 1-(4-hydroxy-5-(hydroxymethyl)bicyclo(3.1.0)hex-2-yl)-5-methyl-, (1s-(1.alpha.,2.alpha.,4.beta.,5.alpha.))-; N-methanocarbathymidine

$$$$
