
     RDKit          2D

 21 22  0  0  0  0  0  0  0  0999 V2000
    2.5559   -0.1105    0.0000 C   0  0  0  0  0  0  0  0  0  0  0  0
    1.7309   -1.5394    0.0000 C   0  0  0  0  0  0  0  0  0  0  0  0
    0.0000    2.0625    0.0000 C   0  0  0  0  0  0  0  0  0  0  0  0
    1.4289    2.0625    0.0000 C   0  0  0  0  0  0  0  0  0  0  0  0
   -1.4289   -0.4125    0.0000 C   0  0  0  0  0  0  0  0  0  0  0  0
   -0.7144   -0.8250    0.0000 C   0  0  0  0  0  0  0  0  0  0  0  0
   -0.7144    0.8250    0.0000 C   0  0  0  0  0  0  0  0  0  0  0  0
    1.4289    0.4125    0.0000 C   0  0  0  0  0  0  0  0  0  0  0  0
    2.8578   -1.2375    0.0000 C   0  0  0  0  0  0  0  0  0  0  0  0
   -1.4289    0.4125    0.0000 C   0  0  0  0  0  0  0  0  0  0  0  0
    0.0000    0.4125    0.0000 C   0  0  0  0  0  0  0  0  0  0  0  0
    0.0000   -0.4125    0.0000 C   0  0  0  0  0  0  0  0  0  0  0  0
    0.7144    0.8250    0.0000 C   0  0  0  0  0  0  0  0  0  0  0  0
    1.4289   -0.4125    0.0000 C   0  0  0  0  0  0  0  0  0  0  0  0
    2.1434   -0.8250    0.0000 C   0  0  0  0  0  0  0  0  0  0  0  0
    0.7144   -0.8250    0.0000 N   0  0  0  0  0  0  0  0  0  0  0  0
    0.7144    1.6500    0.0000 N   0  0  0  0  0  0  0  0  0  0  0  0
   -2.1434    0.8250    0.0000 N   0  0  0  0  0  0  0  0  0  0  0  0
    2.8578   -2.0625    0.0000 O   0  0  0  0  0  0  0  0  0  0  0  0
   -2.8578    0.4125    0.0000 O   0  0  0  0  0  0  0  0  0  0  0  0
   -2.1434    1.6500    0.0000 O   0  0  0  0  0  0  0  0  0  0  0  0
  6  5  2  0
 10  5  1  0
 10  7  2  0
 11  7  1  0
 12  6  1  0
 12 11  2  0
 13  8  1  0
 13 11  1  0
 13 17  1  1
 14  8  1  0
 14 15  1  1
 14 16  1  0
 15  1  1  0
 15  2  1  0
 15  9  1  0
 16 12  1  0
 17  3  1  0
 17  4  1  0
 18 10  1  0
 19  9  1  0
 20 18  1  0
 21 18  2  0
M  CHG  2  18   1  20  -1
M  END
>  <DRUGBANK_ID>  (1) 
DB13938

>  <COMMON_NAME>  (1) 
S-40503

>  <CAS_NUMBER>  (1) 
404920-28-1

>  <UNII>  (1) 
TBF49WHM83

>  <SYNONYMS>  (1) 
2-(4-(Dimethylamino)-6-nitro-1,2,3,4-tetrahydroquinolin-2-yl)-2-methylpropan-1-ol

$$$$
