
     RDKit          2D

 18 19  0  0  0  0  0  0  0  0999 V2000
   -0.3551   -0.2045    0.0000 S   0  0  0  0  0  0  0  0  0  0  0  0
    0.3560    0.2059    0.0000 S   0  0  0  0  0  0  0  0  0  0  0  0
    1.0710   -0.2045    0.0000 C   0  0  0  0  0  0  0  0  0  0  0  0
    1.7861    0.2059    0.0000 N   0  0  0  0  0  0  0  0  0  0  0  0
    1.0710   -1.0297    0.0000 S   0  0  0  0  0  0  0  0  0  0  0  0
   -1.0701    0.2059    0.0000 C   0  0  0  0  0  0  0  0  0  0  0  0
   -1.7853   -0.2045    0.0000 N   0  0  0  0  0  0  0  0  0  0  0  0
   -1.0701    1.0310    0.0000 S   0  0  0  0  0  0  0  0  0  0  0  0
   -2.4979    0.2117    0.0000 C   0  0  0  0  0  0  0  0  0  0  0  0
   -3.2110   -0.1951    0.0000 C   0  0  0  0  0  0  0  0  0  0  0  0
   -3.2174   -1.0200    0.0000 C   0  0  0  0  0  0  0  0  0  0  0  0
   -2.5044   -1.4362    0.0000 C   0  0  0  0  0  0  0  0  0  0  0  0
   -1.7852   -1.0276    0.0000 C   0  0  0  0  0  0  0  0  0  0  0  0
    2.4980   -0.2119    0.0000 C   0  0  0  0  0  0  0  0  0  0  0  0
    3.2110    0.1949    0.0000 C   0  0  0  0  0  0  0  0  0  0  0  0
    3.2174    1.0199    0.0000 C   0  0  0  0  0  0  0  0  0  0  0  0
    2.5044    1.4362    0.0000 C   0  0  0  0  0  0  0  0  0  0  0  0
    1.7853    1.0274    0.0000 C   0  0  0  0  0  0  0  0  0  0  0  0
  1  6  1  0
  1  2  1  0
  2  3  1  0
  3  5  2  0
  3  4  1  0
  4 14  1  0
  4 18  1  0
  6  7  1  0
  6  8  2  0
  7 13  1  0
  7  9  1  0
  9 10  1  0
 10 11  1  0
 11 12  1  0
 12 13  1  0
 14 15  1  0
 15 16  1  0
 16 17  1  0
 17 18  1  0
M  END
>  <DRUGBANK_ID>  (1) 
DB14174

>  <COMMON_NAME>  (1) 
Dipentamethylenethiuram disulfide

>  <CAS_NUMBER>  (1) 
94-37-1

>  <UNII>  (1) 
CR113982E5

>  <SYNONYMS>  (1) 
1-Piperidinethiocarbonyl disulfide; 1,1'-(Dithiodicarbonothioyl)bispiperidine; Bis(1-piperidylthiocarbonyl) disulfide; Bis(1-piperidylthiocarbonyl)disulfide; Bis(pentamethylene)thiuram disulfide; Bis(piperidinothiocarbonyl)disulfide

$$$$
