KOM
     RDKit          2D

 19 21  0  0  0  0  0  0  0  0999 V2000
   -2.3175    1.8798    0.0000 O   0  0  0  0  0  0  0  0  0  0  0  0
   -1.6030    1.4673    0.0000 C   0  0  0  0  0  0  0  0  0  0  0  0
   -0.8885    1.8798    0.0000 O   0  0  0  0  0  0  0  0  0  0  0  0
   -0.1740    1.4673    0.0000 C   0  0  0  0  0  0  0  0  0  0  0  0
    0.5404    1.8798    0.0000 C   0  0  0  0  0  0  0  0  0  0  0  0
    0.5404    2.7048    0.0000 O   0  0  0  0  0  0  0  0  0  0  0  0
    1.2549    1.4673    0.0000 C   0  0  0  0  0  0  0  0  0  0  0  0
    1.9694    1.8798    0.0000 O   0  0  0  0  0  0  0  0  0  0  0  0
    1.2549    0.6423    0.0000 C   0  0  0  0  0  0  0  0  0  0  0  0
   -1.6030    0.6423    0.0000 C   0  0  0  0  0  0  0  0  0  0  0  0
   -0.8885    0.2298    0.0000 C   0  0  0  0  0  0  0  0  0  0  0  0
   -0.1740    0.6423    0.0000 C   0  0  0  0  0  0  0  0  0  0  0  0
    0.5404    0.2298    0.0000 C   0  0  0  0  0  0  0  0  0  0  0  0
   -0.8885   -0.5952    0.0000 C   0  0  0  0  0  0  0  0  0  0  0  0
   -0.1740   -1.0077    0.0000 C   0  0  0  0  0  0  0  0  0  0  0  0
   -0.1740   -1.8327    0.0000 C   0  0  0  0  0  0  0  0  0  0  0  0
   -0.8885   -2.2452    0.0000 C   0  0  0  0  0  0  0  0  0  0  0  0
   -1.6030   -1.8327    0.0000 C   0  0  0  0  0  0  0  0  0  0  0  0
   -1.6030   -1.0077    0.0000 C   0  0  0  0  0  0  0  0  0  0  0  0
  1  2  2  0
  2  3  1  0
  2 10  1  0
  3  4  1  0
  4  5  2  0
  4 12  1  0
  5  6  1  0
  5  7  1  0
  7  8  1  0
  7  9  2  0
  9 13  1  0
 10 11  2  0
 11 12  1  0
 11 14  1  0
 12 13  2  0
 14 15  2  0
 14 19  1  0
 15 16  1  0
 16 17  2  0
 17 18  1  0
 18 19  2  0
M  END
>  <DRUGBANK_ID>  (1) 
DB08049

>  <COMMON_NAME>  (1) 
7,8-dihydroxy-4-phenyl-2H-chromen-2-one

$$$$
