
     RDKit          2D

 29 31  0  0  1  0  0  0  0  0999 V2000
    1.7065   -1.3057    0.0000 C   0  0  0  0  0  0  0  0  0  0  0  0
    1.8780   -2.1127    0.0000 C   0  0  0  0  0  0  0  0  0  0  0  0
    1.1635   -2.5252    0.0000 C   0  0  0  0  0  0  0  0  0  0  0  0
    1.0773   -3.3457    0.0000 O   0  0  0  0  0  0  0  0  0  0  0  0
    0.5504   -1.9731    0.0000 C   0  0  0  0  0  0  0  0  0  0  0  0
   -0.2565   -2.1447    0.0000 C   0  0  0  0  0  0  0  0  0  0  0  0
   -0.8086   -1.5316    0.0000 C   0  0  0  0  0  0  0  0  0  0  0  0
   -1.6155   -1.7031    0.0000 C   0  0  0  0  0  0  0  0  0  0  0  0
   -2.1676   -1.0900    0.0000 O   0  0  0  0  0  0  0  0  0  0  0  0
   -1.8705   -2.4877    0.0000 C   0  0  0  0  0  0  0  0  0  0  0  0
   -2.6774   -2.6593    0.0000 C   0  0  0  0  0  0  0  0  0  0  0  0
   -1.3184   -3.1008    0.0000 C   0  0  0  0  0  0  0  0  0  0  0  0
   -1.5734   -3.8854    0.0000 C   0  0  0  0  0  0  0  0  0  0  0  0
   -1.8283   -4.6701    0.0000 C   0  0  0  0  0  0  0  0  0  0  0  0
   -2.0833   -5.4547    0.0000 C   0  0  0  0  0  0  0  0  0  0  0  0
    0.8860   -1.2195    0.0000 C   0  0  0  0  0  0  0  0  0  0  0  0
    0.7145   -0.4125    0.0000 C   0  0  0  0  0  0  0  0  0  0  0  0
   -0.0000    0.0000    0.0000 C   0  0  0  0  0  0  0  0  0  0  0  0
   -0.0000    0.8250    0.0000 C   0  0  0  0  0  0  0  0  0  0  0  0
    0.7145    1.2375    0.0000 C   0  0  0  0  0  0  0  0  0  0  0  0
    1.4289    0.8250    0.0000 C   0  0  0  0  0  0  0  0  0  0  0  0
    2.1434    1.2375    0.0000 C   0  0  0  0  0  0  0  0  0  0  0  0
    2.8579    0.8250    0.0000 C   0  0  0  0  0  0  0  0  0  0  0  0
    3.5724    1.2375    0.0000 C   0  0  0  0  0  0  0  0  0  0  0  0
    4.2868    0.8250    0.0000 C   0  0  0  0  0  0  0  0  0  0  0  0
    5.0013    1.2375    0.0000 O   0  0  0  0  0  0  0  0  0  0  0  0
    4.2868    0.0000    0.0000 O   0  0  0  0  0  0  0  0  0  0  0  0
    1.4289    0.0000    0.0000 C   0  0  0  0  0  0  0  0  0  0  0  0
    2.0420   -0.5520    0.0000 O   0  0  0  0  0  0  0  0  0  0  0  0
  1  2  1  1
  1 29  1  0
  3  2  1  0
  3  4  1  1
  5  3  1  0
  5  6  1  6
  5 16  1  0
  6  7  2  0
  8  7  1  0
  8  9  1  6
  8 10  1  0
 10 11  1  6
 10 12  1  0
 12 13  1  0
 13 14  3  0
 14 15  1  0
 16  1  1  0
 16 17  1  1
 17 18  2  0
 17 28  1  0
 18 19  1  0
 19 20  2  0
 20 21  1  0
 21 22  1  0
 21 28  2  0
 22 23  1  0
 23 24  1  0
 24 25  1  0
 25 26  1  0
 25 27  2  0
 28 29  1  0
M  END
>  <DRUGBANK_ID>  (1) 
DB18464

>  <COMMON_NAME>  (1) 
Esuberaprost

>  <CAS_NUMBER>  (1) 
94132-88-4

>  <UNII>  (1) 
1JSN1I7582

>  <SYNONYMS>  (1) 
(+)-4-((1r,2r,3as,8bs)-2-hydroxy-1-((1e,3s,4s)-3-hydroxy-4-methyl-oct-1-en-6-yn-1-yl)-2,3,3a,8b-tetrahydro-1h-cyclopenta(b)(1)benzofuran-5-yl)butanoic acid; 1h-cyclopenta(b)benzofuran-5-butanoic acid, 2,3,3a,8b-tetrahydro-2-hydroxy-1-((1e,3s,4s)-3-hydroxy-4-methyl-1-octen-6-ynyl)-, (1r,2r,3as,8bs)-; Aps-314d free acid; Beraprost, (+)-

$$$$
