
     RDKit          2D

 22 23  0  0  0  0  0  0  0  0999 V2000
    2.4249    0.2002    0.0000 C   0  0  0  0  0  0  0  0  0  0  0  0
    1.5317    0.8491    0.0000 C   0  0  0  0  0  0  0  0  0  0  0  0
    3.3032    2.9033    0.0000 C   0  0  0  0  0  0  0  0  0  0  0  0
    2.1991    2.9033    0.0000 C   0  0  0  0  0  0  0  0  0  0  0  0
    4.2829   -1.7354    0.0000 C   0  0  0  0  0  0  0  0  0  0  0  0
    5.7725    2.5701    0.0000 C   0  0  0  0  0  0  0  0  0  0  0  0
    5.1594    3.1221    0.0000 C   0  0  0  0  0  0  0  0  0  0  0  0
    5.6010    1.7631    0.0000 C   0  0  0  0  0  0  0  0  0  0  0  0
    4.3748    2.8672    0.0000 C   0  0  0  0  0  0  0  0  0  0  0  0
    4.8163    1.5082    0.0000 C   0  0  0  0  0  0  0  0  0  0  0  0
    3.6486    0.3532    0.0000 C   0  0  0  0  0  0  0  0  0  0  0  0
    4.2032    2.0602    0.0000 C   0  0  0  0  0  0  0  0  0  0  0  0
    3.1637    1.0206    0.0000 C   0  0  0  0  0  0  0  0  0  0  0  0
    3.4186    1.8053    0.0000 C   0  0  0  0  0  0  0  0  0  0  0  0
    2.3387    1.0206    0.0000 C   0  0  0  0  0  0  0  0  0  0  0  0
    2.7512    2.2902    0.0000 C   0  0  0  0  0  0  0  0  0  0  0  0
    2.0837    1.8053    0.0000 N   0  0  0  0  0  0  0  0  0  0  0  0
    1.2991    2.0602    0.0000 O   0  0  0  0  0  0  0  0  0  0  0  0
    4.4654   -0.5830    0.0000 O   0  0  0  0  0  0  0  0  0  0  0  0
    3.1305   -1.5528    0.0000 O   0  0  0  0  0  0  0  0  0  0  0  0
    3.3130   -0.4005    0.0000 S   0  0  0  0  0  0  0  0  0  0  0  0
    3.7980   -1.0679    0.0000 S   0  0  0  0  0  0  0  0  0  0  0  0
  7  6  2  0
  8  6  1  0
  9  7  1  0
 10  8  2  0
 12  9  2  0
 12 10  1  0
 13 11  1  0
 14 12  1  0
 14 13  2  0
 15  1  1  0
 15  2  1  0
 15 13  1  0
 16  3  1  0
 16  4  1  0
 16 14  1  0
 17 15  1  0
 17 16  1  0
 18 17  1  0
 21 11  1  0
 22  5  1  0
 22 19  2  0
 22 20  2  0
 22 21  1  0
M  END
>  <DRUGBANK_ID>  (1) 
DB08456

>  <COMMON_NAME>  (1) 
S-[(1-Hydroxy-2,2,5,5-tetramethyl-4-phenyl-2,5-dihydro-1H-pyrrol-3-yl)methyl] methanesulfonothioate

$$$$
