
     RDKit          2D

 25 24  0  0  0  0  0  0  0  0999 V2000
    3.9380    0.4906    0.0000 Zn  0  0  0  0  0 15  0  0  0  0  0  0
   -2.8697   -0.6287    0.0000 C   0  0  0  0  0  0  0  0  0  0  0  0
   -3.3333   -1.3372    0.0000 O   0  0  0  0  0  0  0  0  0  0  0  0
   -2.0398   -0.6287    0.0000 C   0  0  0  0  0  0  0  0  0  0  0  0
   -1.5308   -1.2815    0.0000 O   0  0  0  0  0  0  0  0  0  0  0  0
   -1.8038    0.1643    0.0000 C   0  0  0  0  0  0  0  0  0  0  0  0
   -1.0260    0.4394    0.0000 C   0  0  0  0  0  0  0  0  0  0  0  0
   -1.0260    1.3372    0.0000 O   0  0  0  0  0  0  0  0  0  0  0  0
   -0.3866    0.0211    0.0000 C   0  0  0  0  0  0  0  0  0  0  0  0
    0.3047    0.3938    0.0000 O   0  0  0  0  0  0  0  0  0  0  0  0
   -2.4923    0.6277    0.0000 O   0  0  0  0  0  0  0  0  0  0  0  0
   -3.1404    0.1238    0.0000 C   0  0  0  0  0  0  0  0  0  0  0  0
   -3.9380    0.3599    0.0000 O   0  0  0  0  0  0  0  0  0  0  0  0
   -2.8697   -0.6287    0.0000 C   0  0  0  0  0  0  0  0  0  0  0  0
   -3.3333   -1.3372    0.0000 O   0  0  0  0  0  0  0  0  0  0  0  0
   -2.0398   -0.6287    0.0000 C   0  0  0  0  0  0  0  0  0  0  0  0
   -1.5308   -1.2815    0.0000 O   0  0  0  0  0  0  0  0  0  0  0  0
   -1.8038    0.1643    0.0000 C   0  0  0  0  0  0  0  0  0  0  0  0
   -1.0260    0.4394    0.0000 C   0  0  0  0  0  0  0  0  0  0  0  0
   -1.0260    1.3372    0.0000 O   0  0  0  0  0  0  0  0  0  0  0  0
   -0.3866    0.0211    0.0000 C   0  0  0  0  0  0  0  0  0  0  0  0
    0.3047    0.3938    0.0000 O   0  0  0  0  0  0  0  0  0  0  0  0
   -2.4923    0.6277    0.0000 O   0  0  0  0  0  0  0  0  0  0  0  0
   -3.1404    0.1238    0.0000 C   0  0  0  0  0  0  0  0  0  0  0  0
   -3.9380    0.3599    0.0000 O   0  0  0  0  0  0  0  0  0  0  0  0
  2  3  1  0
  2  4  2  0
  2 12  1  0
  4  5  1  0
  4  6  1  0
  6  7  1  0
  6 11  1  6
  7  8  1  1
  7  9  1  0
  9 10  1  0
 11 12  1  0
 12 13  2  0
 14 15  1  0
 14 16  2  0
 14 24  1  0
 16 17  1  0
 16 18  1  0
 18 19  1  0
 18 23  1  6
 19 20  1  1
 19 21  1  0
 21 22  1  0
 23 24  1  0
 24 25  2  0
M  CHG  3   1   2   5  -1  17  -1
M  END
>  <DRUGBANK_ID>  (1) 
DB14485

>  <SECONDARY_ACCESSION_NUMBERS>  (1) 
DBSALT002424

>  <COMMON_NAME>  (1) 
Zinc ascorbate

>  <CAS_NUMBER>  (1) 
331242-75-2

>  <UNII>  (1) 
9TI35313XW

>  <SYNONYMS>  (1) 
(-)-ascorbic acid, zinc salt; L-ascorbic acid, zinc salt; L-ascorbic acid, zinc salt (2:1)

$$$$
