
     RDKit          2D

  9  9  0  0  0  0  0  0  0  0999 V2000
   -0.0043    0.1424    0.0000 C   0  0  0  0  0  0  0  0  0  0  0  0
   -0.2741   -0.6952    0.0000 C   0  0  0  0  0  0  0  0  0  0  0  0
    0.7528    0.4165    0.0000 C   0  0  0  0  0  0  0  0  0  0  0  0
   -0.7135    0.6080    0.0000 N   0  0  0  0  0  0  0  0  0  0  0  0
   -1.1356   -0.6952    0.0000 N   0  0  0  0  0  0  0  0  0  0  0  0
    0.1762   -1.2216    0.0000 N   0  0  0  0  0  0  0  0  0  0  0  0
    1.3880   -0.1099    0.0000 N   0  0  0  0  0  0  0  0  0  0  0  0
    0.8637    1.2216    0.0000 O   0  0  0  0  0  0  0  0  0  0  0  0
   -1.3880    0.1424    0.0000 C   0  0  0  0  0  0  0  0  0  0  0  0
  1  2  2  0
  1  3  1  0
  1  4  1  0
  2  5  1  0
  2  6  1  0
  3  7  1  0
  3  8  2  0
  4  9  1  0
  5  9  2  0
M  END
>  <DRUGBANK_ID>  (1) 
DB06143

>  <COMMON_NAME>  (1) 
Aminoimidazole carboxamide

>  <CAS_NUMBER>  (1) 
360-97-4

>  <UNII>  (1) 
3V0Y2PDE6K

>  <SYNONYMS>  (1) 
5-Aminoimidazol-4-carboxamide; 5-Aminoimidazole-4-carboxamide; AIC; AICA; Aminoimidazole carboxamide

$$$$
