LK7
     RDKit          2D

 19 20  0  0  0  0  0  0  0  0999 V2000
   -2.1530   -0.7290    0.0000 C   0  0  0  0  0  0  0  0  0  0  0  0
   -1.6010   -1.3421    0.0000 C   0  0  0  0  0  0  0  0  0  0  0  0
   -0.7940   -1.1706    0.0000 C   0  0  0  0  0  0  0  0  0  0  0  0
   -0.2420   -1.7837    0.0000 C   0  0  0  0  0  0  0  0  0  0  0  0
    0.5650   -1.6122    0.0000 O   0  0  0  0  0  0  0  0  0  0  0  0
   -0.5391   -0.3860    0.0000 C   0  0  0  0  0  0  0  0  0  0  0  0
   -1.0240    0.2815    0.0000 N   0  0  0  0  0  0  0  0  0  0  0  0
   -0.5391    0.9489    0.0000 C   0  0  0  0  0  0  0  0  0  0  0  0
   -0.7940    1.7335    0.0000 C   0  0  0  0  0  0  0  0  0  0  0  0
   -0.2420    2.3466    0.0000 O   0  0  0  0  0  0  0  0  0  0  0  0
   -1.6010    1.9051    0.0000 O   0  0  0  0  0  0  0  0  0  0  0  0
    0.2455    0.6940    0.0000 C   0  0  0  0  0  0  0  0  0  0  0  0
    0.2455   -0.1310    0.0000 C   0  0  0  0  0  0  0  0  0  0  0  0
    0.9600   -0.5435    0.0000 C   0  0  0  0  0  0  0  0  0  0  0  0
    1.6745   -0.1310    0.0000 C   0  0  0  0  0  0  0  0  0  0  0  0
    1.6745    0.6940    0.0000 C   0  0  0  0  0  0  0  0  0  0  0  0
    0.9600    1.1065    0.0000 C   0  0  0  0  0  0  0  0  0  0  0  0
    0.9600    1.9315    0.0000 O   0  0  0  0  0  0  0  0  0  0  0  0
    0.2455    2.3440    0.0000 C   0  0  0  0  0  0  0  0  0  0  0  0
  1  2  1  0
  2  3  2  0
  3  4  1  0
  4  5  2  0
  6  3  1  6
  6 13  1  0
  6  7  1  0
  7  8  1  0
  8 12  2  0
  8  9  1  0
  9 10  2  0
  9 11  1  0
 12 17  1  0
 12 13  1  0
 13 14  1  6
 14 15  1  0
 15 16  1  0
 16 17  1  0
 17 18  1  1
 18 19  1  0
M  END
>  <DRUGBANK_ID>  (1) 
DB08110

>  <COMMON_NAME>  (1) 
(1R,4S,7AS)-1-(1-FORMYLPROP-1-EN-1-YL)-4-METHOXY-2,4,5,6,7,7A-HEXAHYDRO-1H-ISOINDOLE-3-CARBOXYLIC ACID

$$$$
