
     RDKit          2D

 28 31  0  0  1  0  0  0  0  0999 V2000
   -0.7145    1.2375    0.0000 C   0  0  0  0  0  0  0  0  0  0  0  0
    0.0000    0.8250    0.0000 C   0  0  0  0  0  0  0  0  0  0  0  0
    0.0000   -0.0000    0.0000 C   0  0  0  0  0  0  0  0  0  0  0  0
   -0.7145   -0.4125    0.0000 C   0  0  0  0  0  0  0  0  0  0  0  0
   -0.7145   -1.2375    0.0000 C   0  0  0  0  0  0  0  0  0  0  0  0
    0.0000   -1.6500    0.0000 C   0  0  0  0  0  0  0  0  0  0  0  0
    0.7145   -1.2375    0.0000 C   0  0  0  0  0  0  0  0  0  0  0  0
    0.7145   -0.4125    0.0000 C   0  0  0  0  0  0  0  0  0  0  0  0
    1.4289   -0.0000    0.0000 C   0  0  0  0  0  0  0  0  0  0  0  0
    2.1434   -0.4125    0.0000 C   0  0  0  0  0  0  0  0  0  0  0  0
    2.1434   -1.2375    0.0000 C   0  0  0  0  0  0  0  0  0  0  0  0
    1.4289   -1.6500    0.0000 C   0  0  0  0  0  0  0  0  0  0  0  0
    0.7145    1.2375    0.0000 N   0  0  0  0  0  0  0  0  0  0  0  0
    0.7145    2.0625    0.0000 C   0  0  0  0  0  0  0  0  0  0  0  0
    0.0470    2.5474    0.0000 C   0  0  0  0  0  0  0  0  0  0  0  0
    0.3020    3.3320    0.0000 C   0  0  0  0  0  0  0  0  0  0  0  0
    1.1270    3.3320    0.0000 N   0  0  0  0  0  0  0  0  0  0  0  0
    1.3819    2.5474    0.0000 C   0  0  0  0  0  0  0  0  0  0  0  0
    1.6119    3.9995    0.0000 C   0  0  0  0  0  0  0  0  0  0  0  0
    1.2763    4.7532    0.0000 C   0  0  0  0  0  0  0  0  0  0  0  0
    1.7613    5.4206    0.0000 C   0  0  0  0  0  0  0  0  0  0  0  0
    2.5817    5.3344    0.0000 C   0  0  0  0  0  0  0  0  0  0  0  0
    2.9173    4.5807    0.0000 C   0  0  0  0  0  0  0  0  0  0  0  0
    2.4324    3.9132    0.0000 C   0  0  0  0  0  0  0  0  0  0  0  0
    3.0667    6.0018    0.0000 C   0  0  0  0  0  0  0  0  0  0  0  0
    3.8871    5.9156    0.0000 C   0  0  0  0  0  0  0  0  0  0  0  0
    4.3721    6.5830    0.0000 O   0  0  0  0  0  0  0  0  0  0  0  0
    4.2227    5.1619    0.0000 O   0  0  0  0  0  0  0  0  0  0  0  0
  2  1  1  1
  2  3  1  0
  2 13  1  0
  3  4  2  0
  3  8  1  0
  4  5  1  0
  5  6  2  0
  6  7  1  0
  7  8  2  0
  7 12  1  0
  8  9  1  0
  9 10  2  0
 10 11  1  0
 11 12  2  0
 14 13  1  1
 14 15  1  0
 14 18  1  0
 15 16  1  0
 16 17  1  0
 17 18  1  0
 17 19  1  0
 19 20  2  0
 19 24  1  0
 20 21  1  0
 21 22  2  0
 22 23  1  0
 22 25  1  0
 23 24  2  0
 25 26  1  0
 26 27  2  0
 26 28  1  0
M  END
>  <DRUGBANK_ID>  (1) 
DB12388

>  <COMMON_NAME>  (1) 
Evocalcet

>  <CAS_NUMBER>  (1) 
870964-67-3

>  <UNII>  (1) 
E58MLH082P

>  <SYNONYMS>  (1) 
Evocalcet

$$$$
