IAV
     RDKit          2D

 20 21  0  0  0  0  0  0  0  0999 V2000
   -0.8514    0.3602    0.0000 O   0  0  0  0  0  0  0  0  0  0  0  0
   -0.4389   -0.3543    0.0000 C   0  0  0  0  0  0  0  0  0  0  0  0
   -0.8514   -1.0688    0.0000 N   0  0  0  0  0  0  0  0  0  0  0  0
   -1.6764   -1.0688    0.0000 C   0  0  0  0  0  0  0  0  0  0  0  0
   -2.0889   -1.7832    0.0000 C   0  0  0  0  0  0  0  0  0  0  0  0
   -2.9139   -1.7832    0.0000 O   0  0  0  0  0  0  0  0  0  0  0  0
   -1.6764   -2.4977    0.0000 O   0  0  0  0  0  0  0  0  0  0  0  0
   -2.0889   -0.3543    0.0000 C   0  0  0  0  0  0  0  0  0  0  0  0
   -2.9139   -0.3543    0.0000 C   0  0  0  0  0  0  0  0  0  0  0  0
   -1.6764    0.3602    0.0000 C   0  0  0  0  0  0  0  0  0  0  0  0
    0.3861   -0.3543    0.0000 C   0  0  0  0  0  0  0  0  0  0  0  0
    0.7986    0.3602    0.0000 C   0  0  0  0  0  0  0  0  0  0  0  0
    0.4630    1.1139    0.0000 C   0  0  0  0  0  0  0  0  0  0  0  0
    1.0761    1.6659    0.0000 N   0  0  0  0  0  0  0  0  0  0  0  0
    1.7906    1.2534    0.0000 C   0  0  0  0  0  0  0  0  0  0  0  0
    2.5752    1.5083    0.0000 C   0  0  0  0  0  0  0  0  0  0  0  0
    1.6191    0.4464    0.0000 C   0  0  0  0  0  0  0  0  0  0  0  0
    2.2321   -0.1056    0.0000 C   0  0  0  0  0  0  0  0  0  0  0  0
    3.0168    0.1493    0.0000 C   0  0  0  0  0  0  0  0  0  0  0  0
    3.1883    0.9563    0.0000 C   0  0  0  0  0  0  0  0  0  0  0  0
  1  2  2  0
  2  3  1  0
  2 11  1  0
  4  3  1  6
  4  5  1  0
  4  8  1  0
  5  6  2  0
  5  7  1  0
  8  9  1  0
  8 10  1  0
 11 12  1  0
 12 13  2  0
 12 17  1  0
 13 14  1  0
 14 15  1  0
 15 16  1  0
 15 17  2  0
 16 20  2  0
 17 18  1  0
 18 19  2  0
 19 20  1  0
M  END
>  <DRUGBANK_ID>  (1) 
DB07953

>  <COMMON_NAME>  (1) 
N-[1H-INDOL-3-YL-ACETYL]VALINE ACID

$$$$
