
     RDKit          2D

 30 33  0  0  1  0  0  0  0  0999 V2000
   -0.1663    8.8675    0.0000 N   0  0  0  0  0  0  0  0  0  0  0  0
    0.3857    8.2544    0.0000 C   0  0  0  0  0  0  0  0  0  0  0  0
    1.1927    8.4260    0.0000 N   0  0  0  0  0  0  0  0  0  0  0  0
    1.7447    7.8129    0.0000 C   0  0  0  0  0  0  0  0  0  0  0  0
    1.4898    7.0282    0.0000 N   0  0  0  0  0  0  0  0  0  0  0  0
    0.6828    6.8567    0.0000 C   0  0  0  0  0  0  0  0  0  0  0  0
    0.1308    7.4698    0.0000 C   0  0  0  0  0  0  0  0  0  0  0  0
   -0.6229    7.1343    0.0000 N   0  0  0  0  0  0  0  0  0  0  0  0
   -0.5366    6.3138    0.0000 C   0  0  0  0  0  0  0  0  0  0  0  0
    0.2703    6.1422    0.0000 N   0  0  0  0  0  0  0  0  0  0  0  0
    0.6059    5.3886    0.0000 C   0  0  0  0  0  0  0  0  0  0  0  0
    1.4129    5.2170    0.0000 O   0  0  0  0  0  0  0  0  0  0  0  0
    1.4991    4.3966    0.0000 C   0  0  0  0  0  0  0  0  0  0  0  0
    2.2136    3.9841    0.0000 C   0  0  0  0  0  0  0  0  0  0  0  0
    2.9280    4.3966    0.0000 O   0  0  0  0  0  0  0  0  0  0  0  0
    3.6425    3.9841    0.0000 P   0  0  0  0  0  0  0  0  0  0  0  0
    3.2300    3.2696    0.0000 O   0  0  0  0  0  0  0  0  0  0  0  0
    4.0550    4.6985    0.0000 O   0  0  0  0  0  0  0  0  0  0  0  0
    4.3570    3.5716    0.0000 O   0  0  0  0  0  0  0  0  0  0  0  0
    5.0714    3.9841    0.0000 P   0  0  0  0  0  0  0  0  0  0  0  0
    5.7859    4.3966    0.0000 O   0  0  0  0  0  0  0  0  0  0  0  0
    5.4839    3.2696    0.0000 O   0  0  0  0  0  0  0  0  0  0  0  0
    4.6589    4.6985    0.0000 O   0  0  0  0  0  0  0  0  0  0  0  0
    0.7454    4.0610    0.0000 C   0  0  0  0  0  0  0  0  0  0  0  0
    0.3329    3.3465    0.0000 O   0  0  0  0  0  0  0  0  0  0  0  0
   -0.4741    3.5181    0.0000 V   0  0  0  0  0  6  0  0  0  0  0  0
   -0.5603    2.6976    0.0000 O   0  0  0  0  0  0  0  0  0  0  0  0
   -1.2991    3.5181    0.0000 O   0  0  0  0  0  0  0  0  0  0  0  0
   -0.5603    4.3385    0.0000 O   0  0  0  0  0  0  0  0  0  0  0  0
    0.1934    4.6741    0.0000 C   0  0  0  0  0  0  0  0  0  0  0  0
  1  2  1  0
  2  3  2  0
  2  7  1  0
  3  4  1  0
  4  5  2  0
  5  6  1  0
  6  7  2  0
  6 10  1  0
  7  8  1  0
  8  9  2  0
  9 10  1  0
 11 10  1  6
 11 12  1  0
 11 30  1  0
 12 13  1  0
 13 14  1  1
 13 24  1  0
 14 15  1  0
 16 15  1  0
 16 17  1  0
 16 18  2  0
 16 19  1  0
 19 20  1  0
 20 21  1  0
 20 22  1  0
 20 23  2  0
 24 25  1  1
 24 30  1  0
 25 26  1  0
 26 27  2  0
 26 28  2  0
 26 29  1  0
 30 29  1  6
M  END
>  <DRUGBANK_ID>  (1) 
DB02661

>  <SECONDARY_ACCESSION_NUMBERS>  (1) 
EXPT00592

>  <COMMON_NAME>  (1) 
Adenosine-5'-diphosphate-2',3'-vanadate

$$$$
