
     RDKit          2D

 16 17  0  0  0  0  0  0  0  0999 V2000
   -2.4990    0.8256    0.0000 C   0  0  0  0  0  0  0  0  0  0  0  0
   -1.0725    0.8260    0.0000 C   0  0  0  0  0  0  0  0  0  0  0  0
   -1.7844    1.2379    0.0000 C   0  0  0  0  0  0  0  0  0  0  0  0
   -1.0725    0.0009    0.0000 C   0  0  0  0  0  0  0  0  0  0  0  0
   -2.4990   -0.0027    0.0000 C   0  0  0  0  0  0  0  0  0  0  0  0
   -1.7826   -0.4109    0.0000 C   0  0  0  0  0  0  0  0  0  0  0  0
   -0.3578   -0.4117    0.0000 C   0  0  0  0  0  0  0  0  0  0  0  0
    0.3567    0.0008    0.0000 C   0  0  0  0  0  0  0  0  0  0  0  0
    0.3567    0.8260    0.0000 C   0  0  0  0  0  0  0  0  0  0  0  0
    1.0693    1.2369    0.0000 C   0  0  0  0  0  0  0  0  0  0  0  0
    1.7842    0.8244    0.0000 C   0  0  0  0  0  0  0  0  0  0  0  0
    1.0744   -0.4132    0.0000 C   0  0  0  0  0  0  0  0  0  0  0  0
    1.7861    0.0033    0.0000 C   0  0  0  0  0  0  0  0  0  0  0  0
   -0.3578   -1.2369    0.0000 C   0  0  0  0  0  0  0  0  0  0  0  0
    1.0744   -1.2379    0.0000 O   0  0  0  0  0  0  0  0  0  0  0  0
    2.4990    1.2370    0.0000 O   0  0  0  0  0  0  0  0  0  0  0  0
  1  5  2  0
  2  3  2  0
  3  1  1  0
  4  2  1  0
  4  7  1  0
  5  6  1  0
  6  4  2  0
  7  8  1  0
  7 14  1  0
  8 12  1  0
  9  8  2  0
 10  9  1  0
 11 10  2  0
 11 16  1  0
 12 13  2  0
 12 15  1  0
 13 11  1  0
M  END
>  <DRUGBANK_ID>  (1) 
DB14120

>  <COMMON_NAME>  (1) 
Phenylethyl resorcinol

>  <CAS_NUMBER>  (1) 
85-27-8

>  <UNII>  (1) 
G37UFG162O

>  <SYNONYMS>  (1) 
(+/-)-Phenylethyl resorcinol

$$$$
