
     RDKit          2D

 15 16  0  0  0  0  0  0  0  0999 V2000
   -0.7224   -0.6092    0.0000 C   0  0  0  0  0  0  0  0  0  0  0  0
   -0.0034   -0.1984    0.0000 C   0  0  0  0  0  0  0  0  0  0  0  0
   -0.7224   -1.4377    0.0000 C   0  0  0  0  0  0  0  0  0  0  0  0
   -1.4070   -0.1984    0.0000 C   0  0  0  0  0  0  0  0  0  0  0  0
   -0.0034    0.6196    0.0000 O   0  0  0  0  0  0  0  0  0  0  0  0
    0.7052   -0.6092    0.0000 C   0  0  0  0  0  0  0  0  0  0  0  0
   -0.0034   -1.8485    0.0000 C   0  0  0  0  0  0  0  0  0  0  0  0
   -1.4070   -1.8485    0.0000 C   0  0  0  0  0  0  0  0  0  0  0  0
   -2.1224   -0.6092    0.0000 C   0  0  0  0  0  0  0  0  0  0  0  0
    0.7052    1.0304    0.0000 C   0  0  0  0  0  0  0  0  0  0  0  0
    0.7052   -1.4377    0.0000 C   0  0  0  0  0  0  0  0  0  0  0  0
   -2.1224   -1.4377    0.0000 C   0  0  0  0  0  0  0  0  0  0  0  0
    1.4138    0.6196    0.0000 N   0  0  0  0  0  0  0  0  0  0  0  0
    0.7052    1.8485    0.0000 O   0  0  0  0  0  0  0  0  0  0  0  0
    2.1224    1.0304    0.0000 C   0  0  0  0  0  0  0  0  0  0  0  0
  1  2  2  0
  1  3  1  0
  1  4  1  0
  2  5  1  0
  2  6  1  0
  3  7  2  0
  3  8  1  0
  4  9  2  0
  5 10  1  0
  6 11  2  0
  7 11  1  0
  8 12  2  0
  9 12  1  0
 10 13  1  0
 10 14  2  0
 13 15  1  0
M  END
>  <DRUGBANK_ID>  (1) 
DB15930

>  <COMMON_NAME>  (1) 
Carbaryl

>  <CAS_NUMBER>  (1) 
63-25-2

>  <UNII>  (1) 
R890C8J3N1

>  <SYNONYMS>  (1) 
Carbaril; Carbarilo; Carbarilum; Karbaryl

$$$$
