
     RDKit          2D

 18 18  0  0  0  0  0  0  0  0999 V2000
    1.7606    1.7779    0.0000 Ag  0  0  0  0  0 15  0  0  0  0  0  0
    2.4751    0.5404    0.0000 S   0  0  0  0  0  0  0  0  0  0  0  0
    1.6500    0.5404    0.0000 O   0  0  0  0  0  0  0  0  0  0  0  0
    3.3001    0.5404    0.0000 O   0  0  0  0  0  0  0  0  0  0  0  0
    2.4751    1.3654    0.0000 N   0  0  0  0  0  0  0  0  0  0  0  0
    2.4751   -2.7597    0.0000 N   0  0  0  0  0  0  0  0  0  0  0  0
    3.1895    2.6029    0.0000 N   0  0  0  0  0  0  0  0  0  0  0  0
    3.9041    1.3654    0.0000 N   0  0  0  0  0  0  0  0  0  0  0  0
    2.4751   -0.2846    0.0000 C   0  0  0  0  0  0  0  0  0  0  0  0
    1.7606   -0.6971    0.0000 C   0  0  0  0  0  0  0  0  0  0  0  0
    3.1895   -0.6971    0.0000 C   0  0  0  0  0  0  0  0  0  0  0  0
    2.4751   -1.9347    0.0000 C   0  0  0  0  0  0  0  0  0  0  0  0
    1.7606   -1.5222    0.0000 C   0  0  0  0  0  0  0  0  0  0  0  0
    3.1895   -1.5222    0.0000 C   0  0  0  0  0  0  0  0  0  0  0  0
    3.1895    1.7779    0.0000 C   0  0  0  0  0  0  0  0  0  0  0  0
    3.9041    3.0154    0.0000 C   0  0  0  0  0  0  0  0  0  0  0  0
    4.6185    1.7779    0.0000 C   0  0  0  0  0  0  0  0  0  0  0  0
    4.6185    2.6029    0.0000 C   0  0  0  0  0  0  0  0  0  0  0  0
  2  3  2  0
  2  4  2  0
  2  5  1  0
  2  9  1  0
  5 15  1  0
  6 12  1  0
  7 15  2  0
  7 16  1  0
  8 15  1  0
  8 17  2  0
  9 10  2  0
  9 11  1  0
 10 13  1  0
 11 14  2  0
 12 13  2  0
 12 14  1  0
 16 18  2  0
 17 18  1  0
M  CHG  2   1   1   5  -1
M  END
>  <DRUGBANK_ID>  (1) 
DB05245

>  <COMMON_NAME>  (1) 
Silver sulfadiazine

>  <CAS_NUMBER>  (1) 
22199-08-2

>  <UNII>  (1) 
W46JY43EJR

>  <SYNONYMS>  (1) 
Silver sulfadiazinate; Silver sulfadiazine; Silver sulphadiazine; Sulfadiazine silver; Sulfadiazine silver salt

$$$$
