D1L
     RDKit          2D

 21 22  0  0  0  0  0  0  0  0999 V2000
   -0.5074    3.3391    0.0000 O   0  0  0  0  0  0  0  0  0  0  0  0
    0.2071    2.9266    0.0000 C   0  0  0  0  0  0  0  0  0  0  0  0
    0.9215    3.3391    0.0000 O   0  0  0  0  0  0  0  0  0  0  0  0
    0.2071    2.1016    0.0000 C   0  0  0  0  0  0  0  0  0  0  0  0
   -0.5074    1.6891    0.0000 C   0  0  0  0  0  0  0  0  0  0  0  0
    0.9215    1.6891    0.0000 O   0  0  0  0  0  0  0  0  0  0  0  0
    0.9215    0.8641    0.0000 C   0  0  0  0  0  0  0  0  0  0  0  0
    1.6360    0.4516    0.0000 C   0  0  0  0  0  0  0  0  0  0  0  0
    1.6360   -0.3734    0.0000 C   0  0  0  0  0  0  0  0  0  0  0  0
    0.2071    0.4516    0.0000 C   0  0  0  0  0  0  0  0  0  0  0  0
    0.2071   -0.3734    0.0000 C   0  0  0  0  0  0  0  0  0  0  0  0
    0.9215   -0.7859    0.0000 C   0  0  0  0  0  0  0  0  0  0  0  0
    0.9215   -1.6109    0.0000 O   0  0  0  0  0  0  0  0  0  0  0  0
    0.2071   -2.0234    0.0000 C   0  0  0  0  0  0  0  0  0  0  0  0
    0.2071   -2.8484    0.0000 C   0  0  0  0  0  0  0  0  0  0  0  0
   -0.5074   -3.2609    0.0000 C   0  0  0  0  0  0  0  0  0  0  0  0
   -1.2219   -2.8484    0.0000 C   0  0  0  0  0  0  0  0  0  0  0  0
   -1.9364   -3.2609    0.0000 Cl  0  0  0  0  0  0  0  0  0  0  0  0
   -1.2219   -2.0234    0.0000 C   0  0  0  0  0  0  0  0  0  0  0  0
   -0.5074   -1.6109    0.0000 C   0  0  0  0  0  0  0  0  0  0  0  0
   -0.5074   -0.7859    0.0000 Cl  0  0  0  0  0  0  0  0  0  0  0  0
  1  2  1  0
  2  3  2  0
  2  4  1  0
  4  5  1  6
  4  6  1  0
  6  7  1  0
  7  8  2  0
  7 10  1  0
  8  9  1  0
  9 12  2  0
 10 11  2  0
 11 12  1  0
 12 13  1  0
 13 14  1  0
 14 15  2  0
 14 20  1  0
 15 16  1  0
 16 17  2  0
 17 18  1  0
 17 19  1  0
 19 20  2  0
 20 21  1  0
M  END
>  <DRUGBANK_ID>  (1) 
DB03781

>  <SECONDARY_ACCESSION_NUMBERS>  (1) 
EXPT01094

>  <COMMON_NAME>  (1) 
2-[4-(2,4-Dichlorophenoxy)Phenoxy]Propanoic Acid

>  <UNII>  (1) 
AAN3U3U7X5

$$$$
