
     RDKit          2D

 28 31  0  0  0  0  0  0  0  0999 V2000
    4.2868    0.8250    0.0000 C   0  0  0  0  0  0  0  0  0  0  0  0
    2.8579    3.3000    0.0000 C   0  0  0  0  0  0  0  0  0  0  0  0
   -0.3020    2.7770    0.0000 C   0  0  0  0  0  0  0  0  0  0  0  0
   -1.1270    2.7770    0.0000 C   0  0  0  0  0  0  0  0  0  0  0  0
    2.8579    0.8250    0.0000 C   0  0  0  0  0  0  0  0  0  0  0  0
    2.1434    2.0625    0.0000 C   0  0  0  0  0  0  0  0  0  0  0  0
   -1.4289    0.8250    0.0000 C   0  0  0  0  0  0  0  0  0  0  0  0
    3.5724    1.2375    0.0000 C   0  0  0  0  0  0  0  0  0  0  0  0
    2.8579    2.4750    0.0000 C   0  0  0  0  0  0  0  0  0  0  0  0
   -0.7145    2.0625    0.0000 C   0  0  0  0  0  0  0  0  0  0  0  0
   -1.4289   -0.0000    0.0000 C   0  0  0  0  0  0  0  0  0  0  0  0
   -0.0000   -0.0000    0.0000 C   0  0  0  0  0  0  0  0  0  0  0  0
    0.7145   -0.4125    0.0000 C   0  0  0  0  0  0  0  0  0  0  0  0
    1.4289    0.0000    0.0000 C   0  0  0  0  0  0  0  0  0  0  0  0
    0.7145    1.2375    0.0000 C   0  0  0  0  0  0  0  0  0  0  0  0
    0.0000    0.8250    0.0000 C   0  0  0  0  0  0  0  0  0  0  0  0
    1.4289    0.8250    0.0000 C   0  0  0  0  0  0  0  0  0  0  0  0
   -0.7145   -0.4125    0.0000 C   0  0  0  0  0  0  0  0  0  0  0  0
   -2.1434   -0.4125    0.0000 C   0  0  0  0  0  0  0  0  0  0  0  0
    0.7145   -1.2375    0.0000 F   0  0  0  0  0  0  0  0  0  0  0  0
    2.1434   -0.4125    0.0000 F   0  0  0  0  0  0  0  0  0  0  0  0
    0.7145    2.0625    0.0000 F   0  0  0  0  0  0  0  0  0  0  0  0
    3.5724    2.0625    0.0000 N   0  0  0  0  0  0  0  0  0  0  0  0
    2.1434    1.2375    0.0000 N   0  0  0  0  0  0  0  0  0  0  0  0
   -0.7145    1.2375    0.0000 N   0  0  0  0  0  0  0  0  0  0  0  0
   -0.7145   -1.2375    0.0000 O   0  0  0  0  0  0  0  0  0  0  0  0
   -2.1434   -1.2375    0.0000 O   0  0  0  0  0  0  0  0  0  0  0  0
   -2.8579   -0.0000    0.0000 O   0  0  0  0  0  0  0  0  0  0  0  0
  4  3  1  0
  8  1  1  1
  8  5  1  0
  9  2  1  1
  9  6  1  0
 10  3  1  0
 10  4  1  0
 11  7  2  0
 13 12  1  0
 14 13  2  0
 16 12  2  0
 16 15  1  0
 17 14  1  0
 17 15  2  0
 18 11  1  0
 18 12  1  0
 19 11  1  0
 20 13  1  0
 21 14  1  0
 22 15  1  0
 23  8  1  0
 23  9  1  0
 24  5  1  0
 24  6  1  0
 24 17  1  0
 25  7  1  0
 25 10  1  0
 25 16  1  0
 26 18  2  0
 27 19  2  0
 28 19  1  0
M  END
>  <DRUGBANK_ID>  (1) 
DB11443

>  <COMMON_NAME>  (1) 
Orbifloxacin

>  <CAS_NUMBER>  (1) 
113617-63-3

>  <UNII>  (1) 
660932TPY6

>  <SYNONYMS>  (1) 
Orbifloxacin

$$$$
