BPQ
     RDKit          2D

 20 21  0  0  0  0  0  0  0  0999 V2000
   -3.8033    0.2337    0.0000 C   0  0  0  0  0  0  0  0  0  0  0  0
   -3.2513    0.8468    0.0000 N   0  0  0  0  0  0  0  0  0  0  0  0
   -2.4443    0.6753    0.0000 C   0  0  0  0  0  0  0  0  0  0  0  0
   -1.8923    1.2883    0.0000 O   0  0  0  0  0  0  0  0  0  0  0  0
   -2.1894   -0.1094    0.0000 C   0  0  0  0  0  0  0  0  0  0  0  0
   -1.4357   -0.4449    0.0000 C   0  0  0  0  0  0  0  0  0  0  0  0
   -0.7213   -0.0324    0.0000 C   0  0  0  0  0  0  0  0  0  0  0  0
   -0.0068   -0.4449    0.0000 N   0  0  0  0  0  0  0  0  0  0  0  0
   -1.5220   -1.2654    0.0000 C   0  0  0  0  0  0  0  0  0  0  0  0
   -2.3289   -1.4369    0.0000 N   0  0  0  0  0  0  0  0  0  0  0  0
   -2.7414   -0.7225    0.0000 C   0  0  0  0  0  0  0  0  0  0  0  0
   -3.5484   -0.5509    0.0000 N   0  0  0  0  0  0  0  0  0  0  0  0
   -4.6103    0.4052    0.0000 N   0  0  0  0  0  0  0  0  0  0  0  0
    0.7077   -0.0324    0.0000 C   0  0  0  0  0  0  0  0  0  0  0  0
    0.7077    0.7926    0.0000 O   0  0  0  0  0  0  0  0  0  0  0  0
    2.8511    0.3801    0.0000 C   0  0  0  0  0  0  0  0  0  0  0  0
    2.1366   -0.0324    0.0000 C   0  0  0  0  0  0  0  0  0  0  0  0
    2.5491   -0.7469    0.0000 C   0  0  0  0  0  0  0  0  0  0  0  0
    1.7241    0.6820    0.0000 C   0  0  0  0  0  0  0  0  0  0  0  0
    1.4222   -0.4449    0.0000 O   0  0  0  0  0  0  0  0  0  0  0  0
  1  2  1  0
  1 12  2  0
  1 13  1  0
  2  3  1  0
  3  4  2  0
  3  5  1  0
  5  6  1  0
  5 11  2  0
  6  7  1  0
  6  9  2  0
  7  8  1  0
  8 14  1  0
  9 10  1  0
 10 11  1  0
 11 12  1  0
 14 15  2  0
 14 20  1  0
 16 17  1  0
 17 18  1  0
 17 19  1  0
 17 20  1  0
M  END
>  <DRUGBANK_ID>  (1) 
DB07481

>  <COMMON_NAME>  (1) 
tert-butyl [(2-amino-4-oxo-4,7-dihydro-3H-pyrrolo[2,3-d]pyrimidin-5-yl)methyl]carbamate

$$$$
