
     RDKit          2D

 23 26  0  0  0  0  0  0  0  0999 V2000
   -0.7090    0.0000    0.0000 C   0  0  0  0  0  0  0  0  0  0  0  0
   -0.0021    0.4141    0.0000 C   0  0  0  0  0  0  0  0  0  0  0  0
   -1.4202    0.4141    0.0000 C   0  0  0  0  0  0  0  0  0  0  0  0
   -0.7090   -0.8367    0.0000 N   0  0  0  0  0  0  0  0  0  0  0  0
   -0.0021    1.2508    0.0000 C   0  0  0  0  0  0  0  0  0  0  0  0
    0.7089    1.6691    0.0000 N   0  0  0  0  0  0  0  0  0  0  0  0
   -1.4202    1.2508    0.0000 C   0  0  0  0  0  0  0  0  0  0  0  0
   -0.7090    1.6691    0.0000 C   0  0  0  0  0  0  0  0  0  0  0  0
    0.7089    0.0000    0.0000 C   0  0  0  0  0  0  0  0  0  0  0  0
   -2.1313    0.0000    0.0000 O   0  0  0  0  0  0  0  0  0  0  0  0
    1.4202    1.2508    0.0000 C   0  0  0  0  0  0  0  0  0  0  0  0
    1.4202    0.4141    0.0000 C   0  0  0  0  0  0  0  0  0  0  0  0
   -1.4202   -1.2550    0.0000 C   0  0  0  0  0  0  0  0  0  0  0  0
    2.1313    1.6691    0.0000 C   0  0  0  0  0  0  0  0  0  0  0  0
   -2.1313   -0.8367    0.0000 C   0  0  0  0  0  0  0  0  0  0  0  0
   -0.7090    2.5058    0.0000 O   0  0  0  0  0  0  0  0  0  0  0  0
    2.1313    2.5058    0.0000 O   0  0  0  0  0  0  0  0  0  0  0  0
    0.7089   -0.8367    0.0000 O   0  0  0  0  0  0  0  0  0  0  0  0
    2.8384    1.2508    0.0000 O   0  0  0  0  0  0  0  0  0  0  0  0
   -1.4202   -2.0917    0.0000 C   0  0  0  0  0  0  0  0  0  0  0  0
   -2.8384   -1.2550    0.0000 C   0  0  0  0  0  0  0  0  0  0  0  0
   -2.1313   -2.5058    0.0000 C   0  0  0  0  0  0  0  0  0  0  0  0
   -2.8384   -2.0917    0.0000 C   0  0  0  0  0  0  0  0  0  0  0  0
  2  1  1  0
  3  1  1  0
  4  1  2  0
  5  2  2  0
  5  8  1  0
  6  5  1  0
  7  3  2  0
  8  7  1  0
  9  2  1  0
 10  3  1  0
 11 12  1  0
 11  6  2  0
 12  9  2  0
 13  4  1  0
 14 11  1  0
 15 13  2  0
 15 10  1  0
 16  8  2  0
 17 14  2  0
 18  9  1  0
 19 14  1  0
 20 13  1  0
 21 15  1  0
 21 23  2  0
 22 20  2  0
 23 22  1  0
M  END
>  <DRUGBANK_ID>  (1) 
DB15945

>  <COMMON_NAME>  (1) 
Pirenoxine

>  <CAS_NUMBER>  (1) 
1043-21-6

>  <UNII>  (1) 
27L0EP6IZK

>  <SYNONYMS>  (1) 
Pirenoxina; Pirenoxine; Pirenoxinum

$$$$
