
     RDKit          2D

 24 27  0  0  0  0  0  0  0  0999 V2000
    1.8128    1.2487    0.0000 O   0  0  0  0  0  0  0  0  0  0  0  0
    1.0983    0.8373    0.0000 C   0  0  0  0  0  0  0  0  0  0  0  0
    1.0983    1.6623    0.0000 C   0  0  0  0  0  0  0  0  0  0  0  0
    0.3860    0.4216    0.0000 C   0  0  0  0  0  0  0  0  0  0  0  0
    1.8108    0.4216    0.0000 C   0  0  0  0  0  0  0  0  0  0  0  0
    1.8128    2.0739    0.0000 C   0  0  0  0  0  0  0  0  0  0  0  0
    0.3839    2.0739    0.0000 O   0  0  0  0  0  0  0  0  0  0  0  0
    0.3860    1.2466    0.0000 C   0  0  0  0  0  0  0  0  0  0  0  0
    0.3860   -0.4114    0.0000 C   0  0  0  0  0  0  0  0  0  0  0  0
   -0.3263    0.8373    0.0000 C   0  0  0  0  0  0  0  0  0  0  0  0
    2.5275    0.8332    0.0000 C   0  0  0  0  0  0  0  0  0  0  0  0
    1.8108   -0.4114    0.0000 C   0  0  0  0  0  0  0  0  0  0  0  0
   -0.3263   -0.8271    0.0000 C   0  0  0  0  0  0  0  0  0  0  0  0
   -1.0389    0.4216    0.0000 C   0  0  0  0  0  0  0  0  0  0  0  0
   -1.0389   -0.4114    0.0000 C   0  0  0  0  0  0  0  0  0  0  0  0
   -0.3263   -1.6583    0.0000 C   0  0  0  0  0  0  0  0  0  0  0  0
   -1.7516   -0.8271    0.0000 C   0  0  0  0  0  0  0  0  0  0  0  0
   -1.0389   -2.0739    0.0000 C   0  0  0  0  0  0  0  0  0  0  0  0
   -1.7516   -1.6583    0.0000 C   0  0  0  0  0  0  0  0  0  0  0  0
   -2.4639   -0.4114    0.0000 C   0  0  0  0  0  0  0  0  0  0  0  0
   -2.4639   -2.0739    0.0000 C   0  0  0  0  0  0  0  0  0  0  0  0
   -3.1766   -0.8271    0.0000 C   0  0  0  0  0  0  0  0  0  0  0  0
   -3.1766   -1.6583    0.0000 C   0  0  0  0  0  0  0  0  0  0  0  0
   -3.8931   -2.0698    0.0000 O   0  0  0  0  0  0  0  0  0  0  0  0
  2  1  1  6
  2  3  1  0
  2  5  1  0
  3  6  1  0
  3  7  2  0
  4  2  1  0
  4  8  1  1
  4 10  1  0
  5 11  2  0
  5 12  1  0
  9  4  1  0
  9 12  1  1
  9 13  1  0
 10 14  1  0
 13 15  1  0
 13 16  1  6
 15 14  1  1
 15 17  1  0
 16 18  1  0
 17 19  1  0
 17 20  1  6
 18 19  1  0
 19 21  2  0
 20 22  1  0
 21 23  1  0
 22 23  1  0
 23 24  2  0
M  END
>  <DRUGBANK_ID>  (1) 
DB14584

>  <COMMON_NAME>  (1) 
Segesterone

>  <CAS_NUMBER>  (1) 
7690-08-6

>  <UNII>  (1) 
09Q5UV3747

>  <SYNONYMS>  (1) 
17-Hydroxy-16-methylene-19-norpregn-4-ene-3,20-dione; 17alpha-Deacetyl-Nestorone; Nestorone alcohol; Segesterone

$$$$
