
     RDKit          2D

 10  9  0  0  0  0  0  0  0  0999 V2000
    0.3586   -0.8206    0.0000 C   0  0  0  0  0  0  0  0  0  0  0  0
   -0.3586   -0.4125    0.0000 C   0  0  0  0  0  0  0  0  0  0  0  0
   -0.3637    0.4125    0.0000 C   0  0  0  0  0  0  0  0  0  0  0  0
    0.3482    0.8295    0.0000 C   0  0  0  0  0  0  0  0  0  0  0  0
    1.0652    0.4215    0.0000 C   0  0  0  0  0  0  0  0  0  0  0  0
    0.3430    1.6546    0.0000 C   0  0  0  0  0  0  0  0  0  0  0  0
   -1.0704   -0.8295    0.0000 N   0  0  0  0  0  0  0  0  0  0  0  0
    0.3637   -1.6456    0.0000 O   0  0  0  0  0  0  0  0  0  0  0  0
    1.0704   -0.4035    0.0000 O   0  0  0  0  0  0  0  0  0  0  0  0
   -1.0652   -1.6546    0.0000 C   0  0  0  0  0  0  0  0  0  0  0  0
  2  1  1  0
  2  7  1  0
  2  3  1  6
  4  3  1  0
  5  4  1  0
  6  4  1  0
  7 10  1  0
  8  1  2  0
  9  1  1  0
M  END
>  <DRUGBANK_ID>  (1) 
DB04487

>  <SECONDARY_ACCESSION_NUMBERS>  (1) 
EXPT02181

>  <COMMON_NAME>  (1) 
N-Methylleucine

>  <CAS_NUMBER>  (1) 
31321-74-1

>  <UNII>  (1) 
RS2PMV5S1P

$$$$
