
     RDKit          2D

  1  0  0  0  0  0  0  0  0  0999 V2000
    0.0000    0.0000    0.0000 Tl  0  0  0  0  0  2  0  0  0  0  0  0
M  CHG  1   1   1
M  ISO  1   1 201
M  END
>  <DRUGBANK_ID>  (1) 
DB14576

>  <COMMON_NAME>  (1) 
Thallous cation Tl-201

>  <UNII>  (1) 
4877X14G4C

>  <SYNONYMS>  (1) 
Thallium cation Tl-201; Thallium cation Tl-201 (1+); Thallous ion Tl-201

$$$$
