
     RDKit          2D

 17 18  0  0  0  0  0  0  0  0999 V2000
   -2.0105    4.4393    0.0000 C   0  0  0  0  0  0  0  0  0  0  0  0
   -1.1594    6.1497    0.0000 C   0  0  0  0  0  0  0  0  0  0  0  0
   -1.4493    3.8346    0.0000 C   0  0  0  0  0  0  0  0  0  0  0  0
    0.8043    4.3489    0.0000 C   0  0  0  0  0  0  0  0  0  0  0  0
    0.8043    5.1739    0.0000 C   0  0  0  0  0  0  0  0  0  0  0  0
    0.0695    1.9556    0.0000 C   0  0  0  0  0  0  0  0  0  0  0  0
    0.0695    2.7806    0.0000 C   0  0  0  0  0  0  0  0  0  0  0  0
   -0.6450    1.5431    0.0000 C   0  0  0  0  0  0  0  0  0  0  0  0
    0.1593    3.8346    0.0000 C   0  0  0  0  0  0  0  0  0  0  0  0
    0.1593    5.6883    0.0000 C   0  0  0  0  0  0  0  0  0  0  0  0
   -1.3595    2.7806    0.0000 C   0  0  0  0  0  0  0  0  0  0  0  0
   -1.0030    4.7614    0.0000 C   0  0  0  0  0  0  0  0  0  0  0  0
   -0.6450    3.1931    0.0000 C   0  0  0  0  0  0  0  0  0  0  0  0
   -1.3595    1.9556    0.0000 C   0  0  0  0  0  0  0  0  0  0  0  0
   -0.6450    4.0181    0.0000 C   0  0  0  0  0  0  0  0  0  0  0  0
   -0.6450    5.5047    0.0000 N   0  0  0  0  0  0  0  0  0  0  0  0
   -2.0740    1.5431    0.0000 O   0  0  0  0  0  0  0  0  0  0  0  0
  3  1  1  0
  5  4  1  0
  7  6  2  0
  8  6  1  0
  9  4  1  0
 10  5  1  0
 13  7  1  0
 13 11  2  0
 14  8  2  0
 14 11  1  0
 15  3  1  0
 15  9  1  0
 15 12  1  0
 15 13  1  0
 16  2  1  0
 16 10  1  0
 16 12  1  0
 17 14  1  0
M  END
>  <DRUGBANK_ID>  (1) 
DB13478

>  <COMMON_NAME>  (1) 
Meptazinol

>  <CAS_NUMBER>  (1) 
54340-58-8

>  <UNII>  (1) 
18Y7S5JKZD

>  <SYNONYMS>  (1) 
Meptazinol

$$$$
