
     RDKit          2D

 37 40  0  0  1  0  0  0  0  0999 V2000
   -8.7723    3.4050    0.0000 C   0  0  0  0  0  0  0  0  0  0  0  0
   -8.7723    2.5800    0.0000 C   0  0  0  0  0  0  0  0  0  0  0  0
   -8.0579    2.1675    0.0000 C   0  0  0  0  0  0  0  0  0  0  0  0
   -8.0579    1.3425    0.0000 C   0  0  0  0  0  0  0  0  0  0  0  0
   -8.7723    0.9300    0.0000 C   0  0  0  0  0  0  0  0  0  0  0  0
   -9.4868    1.3425    0.0000 C   0  0  0  0  0  0  0  0  0  0  0  0
   -9.5730    2.1630    0.0000 C   0  0  0  0  0  0  0  0  0  0  0  0
  -10.3800    2.3345    0.0000 N   0  0  0  0  0  0  0  0  0  0  0  0
  -10.7925    1.6200    0.0000 C   0  0  0  0  0  0  0  0  0  0  0  0
  -10.2405    1.0070    0.0000 C   0  0  0  0  0  0  0  0  0  0  0  0
  -10.4954    0.2223    0.0000 C   0  0  0  0  0  0  0  0  0  0  0  0
  -11.3024    0.0508    0.0000 C   0  0  0  0  0  0  0  0  0  0  0  0
  -11.5573   -0.7338    0.0000 C   0  0  0  0  0  0  0  0  0  0  0  0
  -11.8544    0.6639    0.0000 C   0  0  0  0  0  0  0  0  0  0  0  0
  -11.5995    1.4485    0.0000 C   0  0  0  0  0  0  0  0  0  0  0  0
  -12.1515    2.0616    0.0000 F   0  0  0  0  0  0  0  0  0  0  0  0
   -8.7723    0.1050    0.0000 C   0  0  0  0  0  0  0  0  0  0  0  0
   -8.0579   -0.3075    0.0000 C   0  0  0  0  0  0  0  0  0  0  0  0
   -8.0579   -1.1325    0.0000 C   0  0  0  0  0  0  0  0  0  0  0  0
   -8.7723   -1.5450    0.0000 C   0  0  0  0  0  0  0  0  0  0  0  0
   -8.7723   -2.3700    0.0000 Cl  0  0  0  0  0  0  0  0  0  0  0  0
   -9.4868   -1.1325    0.0000 C   0  0  0  0  0  0  0  0  0  0  0  0
   -9.4868   -0.3075    0.0000 C   0  0  0  0  0  0  0  0  0  0  0  0
   -7.3434    0.9300    0.0000 C   0  0  0  0  0  0  0  0  0  0  0  0
   -6.6289    1.3425    0.0000 C   0  0  0  0  0  0  0  0  0  0  0  0
   -5.9145    0.9300    0.0000 C   0  0  0  0  0  0  0  0  0  0  0  0
   -5.9145    0.1050    0.0000 C   0  0  0  0  0  0  0  0  0  0  0  0
   -6.6289   -0.3075    0.0000 C   0  0  0  0  0  0  0  0  0  0  0  0
   -7.3434    0.1050    0.0000 C   0  0  0  0  0  0  0  0  0  0  0  0
   -5.2000   -0.3075    0.0000 C   0  0  0  0  0  0  0  0  0  0  0  0
   -5.2000   -1.1325    0.0000 O   0  0  0  0  0  0  0  0  0  0  0  0
   -4.4855    0.1050    0.0000 N   0  0  0  0  0  0  0  0  0  0  0  0
   -3.7710   -0.3075    0.0000 C   0  0  0  0  0  0  0  0  0  0  0  0
   -3.0566    0.1050    0.0000 C   0  0  0  0  0  0  0  0  0  0  0  0
   -2.3421   -0.3075    0.0000 C   0  0  0  0  0  0  0  0  0  0  0  0
   -1.6276    0.1050    0.0000 O   0  0  0  0  0  0  0  0  0  0  0  0
   -2.3421   -1.1325    0.0000 O   0  0  0  0  0  0  0  0  0  0  0  0
  1  2  1  0
  2  3  1  0
  4  3  1  6
  4  5  1  0
  4 24  1  0
  5  6  1  6
  5 17  1  0
  6  7  2  0
  6 10  1  0
  7  8  1  0
  8  9  1  0
  9 10  2  0
  9 15  1  0
 10 11  1  0
 11 12  2  0
 12 13  1  0
 12 14  1  0
 14 15  2  0
 15 16  1  0
 17 18  2  0
 17 23  1  0
 18 19  1  0
 19 20  2  0
 20 21  1  0
 20 22  1  0
 22 23  2  0
 24 25  2  0
 24 29  1  0
 25 26  1  0
 26 27  2  0
 27 28  1  0
 27 30  1  0
 28 29  2  0
 30 31  2  0
 30 32  1  0
 32 33  1  0
 33 34  1  0
 34 35  1  0
 35 36  1  0
 35 37  2  0
M  END
>  <DRUGBANK_ID>  (1) 
DB14957

>  <COMMON_NAME>  (1) 
MK-3577

>  <CAS_NUMBER>  (1) 
1019112-29-8

>  <UNII>  (1) 
03TW1410NL

$$$$
