
     RDKit          2D

 23 25  0  0  0  0  0  0  0  0999 V2000
   -1.9668   -0.8575    0.0000 C   0  0  0  0  0  0  0  0  0  0  0  0
   -1.1598   -0.6860    0.0000 C   0  0  0  0  0  0  0  0  0  0  0  0
   -0.6078   -1.2991    0.0000 N   0  0  0  0  0  0  0  0  0  0  0  0
    0.0597   -1.7840    0.0000 C   0  0  0  0  0  0  0  0  0  0  0  0
   -0.1953   -2.5687    0.0000 C   0  0  0  0  0  0  0  0  0  0  0  0
   -1.0203   -2.5687    0.0000 C   0  0  0  0  0  0  0  0  0  0  0  0
   -1.5052   -3.2361    0.0000 C   0  0  0  0  0  0  0  0  0  0  0  0
   -2.3257   -3.1499    0.0000 C   0  0  0  0  0  0  0  0  0  0  0  0
   -2.8106   -3.8173    0.0000 C   0  0  0  0  0  0  0  0  0  0  0  0
   -3.6311   -3.7311    0.0000 C   0  0  0  0  0  0  0  0  0  0  0  0
   -3.9666   -2.9774    0.0000 C   0  0  0  0  0  0  0  0  0  0  0  0
   -3.4817   -2.3099    0.0000 C   0  0  0  0  0  0  0  0  0  0  0  0
   -2.6612   -2.3962    0.0000 C   0  0  0  0  0  0  0  0  0  0  0  0
   -1.1696   -3.9898    0.0000 C   0  0  0  0  0  0  0  0  0  0  0  0
   -0.3491   -4.0760    0.0000 C   0  0  0  0  0  0  0  0  0  0  0  0
   -0.0136   -4.8297    0.0000 C   0  0  0  0  0  0  0  0  0  0  0  0
   -0.4985   -5.4971    0.0000 C   0  0  0  0  0  0  0  0  0  0  0  0
   -1.3190   -5.4109    0.0000 C   0  0  0  0  0  0  0  0  0  0  0  0
   -1.6546   -4.6572    0.0000 C   0  0  0  0  0  0  0  0  0  0  0  0
   -1.2752   -1.7840    0.0000 C   0  0  0  0  0  0  0  0  0  0  0  0
   -2.0598   -1.5291    0.0000 C   0  0  0  0  0  0  0  0  0  0  0  0
   -0.0557   -0.6860    0.0000 C   0  0  0  0  0  0  0  0  0  0  0  0
    0.7512   -0.8575    0.0000 C   0  0  0  0  0  0  0  0  0  0  0  0
  1  2  1  0
  2  3  1  0
  3  4  1  0
  3 20  1  0
  3 22  1  0
  4  5  1  0
  5  6  1  0
  6  7  2  3
  6 20  1  0
  7  8  1  0
  7 14  1  0
  8  9  2  0
  8 13  1  0
  9 10  1  0
 10 11  2  0
 11 12  1  0
 12 13  2  0
 14 15  2  0
 14 19  1  0
 15 16  1  0
 16 17  2  0
 17 18  1  0
 18 19  2  0
 20 21  1  0
 22 23  1  0
M  CHG  1   3   1
M  END
>  <DRUGBANK_ID>  (1) 
DB13254

>  <COMMON_NAME>  (1) 
Prifinium

>  <CAS_NUMBER>  (1) 
10236-81-4

>  <UNII>  (1) 
3C7TTK1K7K

$$$$
