
     RDKit          2D

 40 42  0  0  1  0  0  0  0  0999 V2000
   -1.1386   -0.2726    0.0000 C   0  0  0  0  0  0  0  0  0  0  0  0
   -0.4241   -0.6851    0.0000 C   0  0  0  0  0  0  0  0  0  0  0  0
   -0.4241   -1.5101    0.0000 C   0  0  0  0  0  0  0  0  0  0  0  0
    0.2903   -1.9226    0.0000 C   0  0  0  0  0  0  0  0  0  0  0  0
    1.0048   -1.5101    0.0000 C   0  0  0  0  0  0  0  0  0  0  0  0
    1.0048   -0.6851    0.0000 C   0  0  0  0  0  0  0  0  0  0  0  0
    0.2903   -0.2726    0.0000 C   0  0  0  0  0  0  0  0  0  0  0  0
    0.1674    0.5432    0.0000 N   0  0  0  0  0  0  0  0  0  0  0  0
    0.7285    1.1480    0.0000 C   0  0  0  0  0  0  0  0  0  0  0  0
    0.4271    1.9160    0.0000 O   0  0  0  0  0  0  0  0  0  0  0  0
    1.5512    1.0863    0.0000 C   0  0  0  0  0  0  0  0  0  0  0  0
    2.0159    0.4047    0.0000 N   0  0  0  0  0  0  0  0  0  0  0  0
    1.7728   -0.3837    0.0000 C   0  0  0  0  0  0  0  0  0  0  0  0
    2.3775   -0.9448    0.0000 C   0  0  0  0  0  0  0  0  0  0  0  0
    3.1659   -0.7016    0.0000 C   0  0  0  0  0  0  0  0  0  0  0  0
    3.7707   -1.2628    0.0000 C   0  0  0  0  0  0  0  0  0  0  0  0
    3.5871   -2.0671    0.0000 C   0  0  0  0  0  0  0  0  0  0  0  0
    2.7987   -2.3103    0.0000 C   0  0  0  0  0  0  0  0  0  0  0  0
    2.1940   -1.7491    0.0000 C   0  0  0  0  0  0  0  0  0  0  0  0
    2.6151   -3.1146    0.0000 F   0  0  0  0  0  0  0  0  0  0  0  0
    1.9637    1.8008    0.0000 N   0  0  0  0  0  0  0  0  0  0  0  0
    2.7887    1.8008    0.0000 C   0  0  0  0  0  0  0  0  0  0  0  0
    3.2012    1.0863    0.0000 O   0  0  0  0  0  0  0  0  0  0  0  0
    3.2012    2.5153    0.0000 C   0  0  0  0  0  0  0  0  0  0  0  0
    2.7887    3.2298    0.0000 C   0  0  0  0  0  0  0  0  0  0  0  0
    3.2012    3.9442    0.0000 C   0  0  0  0  0  0  0  0  0  0  0  0
    2.7887    4.6587    0.0000 C   0  0  0  0  0  0  0  0  0  0  0  0
    3.5032    5.0712    0.0000 F   0  0  0  0  0  0  0  0  0  0  0  0
    2.0742    4.2462    0.0000 F   0  0  0  0  0  0  0  0  0  0  0  0
    2.3762    5.3732    0.0000 F   0  0  0  0  0  0  0  0  0  0  0  0
    4.0262    2.5153    0.0000 C   0  0  0  0  0  0  0  0  0  0  0  0
    4.4387    3.2298    0.0000 C   0  0  0  0  0  0  0  0  0  0  0  0
    5.2637    3.2298    0.0000 C   0  0  0  0  0  0  0  0  0  0  0  0
    5.6762    3.9442    0.0000 C   0  0  0  0  0  0  0  0  0  0  0  0
    6.0887    4.6587    0.0000 F   0  0  0  0  0  0  0  0  0  0  0  0
    6.3907    3.5317    0.0000 F   0  0  0  0  0  0  0  0  0  0  0  0
    4.9617    4.3567    0.0000 F   0  0  0  0  0  0  0  0  0  0  0  0
    4.4387    1.8008    0.0000 C   0  0  0  0  0  0  0  0  0  0  0  0
    5.2637    1.8008    0.0000 O   0  0  0  0  0  0  0  0  0  0  0  0
    4.0262    1.0863    0.0000 N   0  0  0  0  0  0  0  0  0  0  0  0
  1  2  1  0
  2  3  2  0
  2  7  1  0
  3  4  1  0
  4  5  2  0
  5  6  1  0
  6  7  2  0
  6 13  1  0
  7  8  1  0
  8  9  1  0
  9 10  2  0
  9 11  1  0
 11 12  1  0
 11 21  1  1
 12 13  2  0
 13 14  1  0
 14 15  2  0
 14 19  1  0
 15 16  1  0
 16 17  2  0
 17 18  1  0
 18 19  2  0
 18 20  1  0
 21 22  1  0
 22 23  2  0
 24 22  1  0
 24 25  1  6
 24 31  1  0
 25 26  1  0
 26 27  1  0
 27 28  1  0
 27 29  1  0
 27 30  1  0
 31 32  1  6
 31 38  1  0
 32 33  1  0
 33 34  1  0
 34 35  1  0
 34 36  1  0
 34 37  1  0
 38 39  2  0
 38 40  1  0
M  END
>  <DRUGBANK_ID>  (1) 
DB13126

>  <COMMON_NAME>  (1) 
BMS-986115

>  <CAS_NUMBER>  (1) 
1584647-27-7

>  <UNII>  (1) 
LSK1L593UU

$$$$
