BC1
     RDKit          2D

 25 27  0  0  0  0  0  0  0  0999 V2000
   -3.9985    0.2339    0.0000 O   0  0  0  0  0  0  0  0  0  0  0  0
   -3.2840   -0.1786    0.0000 C   0  0  0  0  0  0  0  0  0  0  0  0
   -3.2840   -1.0036    0.0000 O   0  0  0  0  0  0  0  0  0  0  0  0
   -2.5695    0.2339    0.0000 C   0  0  0  0  0  0  0  0  0  0  0  0
   -1.8551   -0.1786    0.0000 C   0  0  0  0  0  0  0  0  0  0  0  0
   -1.1406    0.2339    0.0000 N   0  0  0  0  0  0  0  0  0  0  0  0
   -0.4261   -0.1786    0.0000 C   0  0  0  0  0  0  0  0  0  0  0  0
   -0.4261   -1.0036    0.0000 O   0  0  0  0  0  0  0  0  0  0  0  0
    0.2884    0.2339    0.0000 C   0  0  0  0  0  0  0  0  0  0  0  0
   -0.2419    0.8658    0.0000 C   0  0  0  0  0  0  0  0  0  0  0  0
   -0.7722    1.4978    0.0000 N   0  0  0  0  0  0  0  0  0  0  0  0
    0.5705   -0.5414    0.0000 C   0  0  0  0  0  0  0  0  0  0  0  0
    0.0402   -1.1734    0.0000 C   0  0  0  0  0  0  0  0  0  0  0  0
    0.3224   -1.9486    0.0000 C   0  0  0  0  0  0  0  0  0  0  0  0
    1.1349   -2.0919    0.0000 C   0  0  0  0  0  0  0  0  0  0  0  0
    1.6652   -1.4599    0.0000 C   0  0  0  0  0  0  0  0  0  0  0  0
    1.3830   -0.6847    0.0000 C   0  0  0  0  0  0  0  0  0  0  0  0
    1.9133   -0.0527    0.0000 N   0  0  0  0  0  0  0  0  0  0  0  0
    1.6311    0.7226    0.0000 C   0  0  0  0  0  0  0  0  0  0  0  0
    0.8187    0.8658    0.0000 C   0  0  0  0  0  0  0  0  0  0  0  0
    0.5365    1.6411    0.0000 C   0  0  0  0  0  0  0  0  0  0  0  0
    1.0668    2.2731    0.0000 C   0  0  0  0  0  0  0  0  0  0  0  0
    1.8793    2.1298    0.0000 C   0  0  0  0  0  0  0  0  0  0  0  0
    2.1614    1.3546    0.0000 C   0  0  0  0  0  0  0  0  0  0  0  0
    2.7258   -0.1959    0.0000 C   0  0  0  0  0  0  0  0  0  0  0  0
  1  2  1  0
  2  3  2  0
  2  4  1  0
  4  5  1  0
  5  6  1  0
  6  7  1  0
  7  8  2  0
  7  9  1  0
  9 10  1  0
  9 12  1  0
  9 20  1  0
 10 11  3  0
 12 13  1  0
 12 17  2  0
 13 14  2  0
 14 15  1  0
 15 16  2  0
 16 17  1  0
 17 18  1  0
 18 19  1  0
 18 25  1  0
 19 20  2  0
 19 24  1  0
 20 21  1  0
 21 22  2  0
 22 23  1  0
 23 24  2  0
M  END
>  <DRUGBANK_ID>  (1) 
DB07441

>  <COMMON_NAME>  (1) 
3-{[(9-CYANO-9,10-DIHYDRO-10-METHYLACRIDIN-9-YL)CARBONYL]AMINO}PROPANOIC ACID

$$$$
