
     RDKit          2D

  7  6  0  0  1  0  0  0  0  0999 V2000
    2.0625    0.7145    0.0000 N   0  0  0  0  0  0  0  0  0  0  0  0
    1.2375    0.7145    0.0000 C   0  0  0  0  0  0  0  0  0  0  0  0
    0.8250    1.4289    0.0000 C   0  0  0  0  0  0  0  0  0  0  0  0
    1.2375    2.1434    0.0000 C   0  0  0  0  0  0  0  0  0  0  0  0
    0.8250    0.0000    0.0000 C   0  0  0  0  0  0  0  0  0  0  0  0
    1.2375   -0.7145    0.0000 O   0  0  0  0  0  0  0  0  0  0  0  0
    0.0000    0.0000    0.0000 O   0  0  0  0  0  0  0  0  0  0  0  0
  2  1  1  6
  2  3  1  0
  2  5  1  0
  3  4  2  0
  5  6  1  0
  5  7  2  0
M  END
>  <DRUGBANK_ID>  (1) 
DB03214

>  <SECONDARY_ACCESSION_NUMBERS>  (1) 
EXPT02068

>  <COMMON_NAME>  (1) 
Vinylglycine

>  <CAS_NUMBER>  (1) 
70982-53-5

>  <UNII>  (1) 
LGD04MMJ5E

>  <SYNONYMS>  (1) 
(2S)-2-amino-3-butenoic acid; L-vinylglycine

$$$$
