
     RDKit          2D

 10 10  0  0  0  0  0  0  0  0999 V2000
    0.3573   -1.2374    0.0000 C   0  0  0  0  0  0  0  0  0  0  0  0
    0.3573   -0.4125    0.0000 C   0  0  0  0  0  0  0  0  0  0  0  0
   -0.3571    0.0000    0.0000 C   0  0  0  0  0  0  0  0  0  0  0  0
   -1.0716   -0.4125    0.0000 C   0  0  0  0  0  0  0  0  0  0  0  0
   -1.0716   -1.2374    0.0000 C   0  0  0  0  0  0  0  0  0  0  0  0
   -0.3571   -1.6500    0.0000 C   0  0  0  0  0  0  0  0  0  0  0  0
   -0.3571    0.8250    0.0000 C   0  0  0  0  0  0  0  0  0  0  0  0
    0.3573    1.2374    0.0000 C   0  0  0  0  0  0  0  0  0  0  0  0
   -1.0716    1.2374    0.0000 O   0  0  0  0  0  0  0  0  0  0  0  0
    1.0717    1.6500    0.0000 N   0  0  0  0  0  0  0  0  0  0  0  0
  1  2  2  0
  2  3  1  0
  3  4  2  0
  4  5  1  0
  6  5  2  0
  6  1  1  0
  7  3  1  0
  7  8  1  0
  7  9  1  6
  8 10  3  0
M  END
>  <DRUGBANK_ID>  (1) 
DB04737

>  <COMMON_NAME>  (1) 
(S)-mandelonitrile

>  <CAS_NUMBER>  (1) 
28549-12-4

>  <UNII>  (1) 
2K9VO6WZ5K

>  <SYNONYMS>  (1) 
(−)-mandelonitrile; (S)-(−)-mandelonitrile; (S)-Benzaldehyde cyanohydrin; l-mandelonitrile

$$$$
