
     RDKit          2D

  6  6  0  0  0  0  0  0  0  0999 V2000
    0.5145   -0.2986    0.0000 N   0  0  0  0  0  0  0  0  0  0  0  0
    0.1080    0.9656    0.0000 N   0  0  0  0  0  0  0  0  0  0  0  0
    0.7834    0.4863    0.0000 C   0  0  0  0  0  0  0  0  0  0  0  0
   -0.2978   -0.2986    0.0000 C   0  0  0  0  0  0  0  0  0  0  0  0
   -0.5528    0.4859    0.0000 C   0  0  0  0  0  0  0  0  0  0  0  0
   -0.7834   -0.9656    0.0000 C   0  0  0  0  0  0  0  0  0  0  0  0
  3  1  2  0
  3  2  1  0
  4  1  1  0
  5  2  1  0
  5  4  2  0
  6  4  1  0
M  END
>  <DRUGBANK_ID>  (1) 
DB03385

>  <SECONDARY_ACCESSION_NUMBERS>  (1) 
EXPT00221

>  <COMMON_NAME>  (1) 
4-Methylimidazole

>  <CAS_NUMBER>  (1) 
822-36-6

>  <UNII>  (1) 
Q64GF9FV4I

>  <SYNONYMS>  (1) 
4-MEI; 4(5)-methylimidazole

$$$$
