
     RDKit          2D

 41 44  0  0  0  0  0  0  0  0999 V2000
   -5.6721   -0.8259    0.0000 C   0  0  0  0  0  0  0  0  0  0  0  0
   -6.0814   -0.1096    0.0000 C   0  0  0  0  0  0  0  0  0  0  0  0
   -6.9001   -0.1096    0.0000 C   0  0  0  0  0  0  0  0  0  0  0  0
   -7.3094   -0.8259    0.0000 C   0  0  0  0  0  0  0  0  0  0  0  0
   -6.9001   -1.5422    0.0000 C   0  0  0  0  0  0  0  0  0  0  0  0
   -6.0814   -1.5422    0.0000 C   0  0  0  0  0  0  0  0  0  0  0  0
   -4.8389   -0.8259    0.0000 C   0  0  0  0  0  0  0  0  0  0  0  0
   -3.2015   -0.8259    0.0000 C   0  0  0  0  0  0  0  0  0  0  0  0
   -3.6108   -0.1096    0.0000 C   0  0  0  0  0  0  0  0  0  0  0  0
   -4.4295   -0.1096    0.0000 C   0  0  0  0  0  0  0  0  0  0  0  0
   -4.4295   -1.5422    0.0000 C   0  0  0  0  0  0  0  0  0  0  0  0
   -3.6108   -1.5422    0.0000 C   0  0  0  0  0  0  0  0  0  0  0  0
   -2.3829   -0.8259    0.0000 C   0  0  0  0  0  0  0  0  0  0  0  0
   -2.1782    1.3522    0.0000 C   0  0  0  0  0  0  0  0  0  0  0  0
   -2.4267    0.5628    0.0000 C   0  0  0  0  0  0  0  0  0  0  0  0
   -1.1403   -0.1827    0.0000 C   0  0  0  0  0  0  0  0  0  0  0  0
   -0.7017    1.2206    0.0000 C   0  0  0  0  0  0  0  0  0  0  0  0
   -1.4034    1.6446    0.0000 C   0  0  0  0  0  0  0  0  0  0  0  0
   -1.9589   -0.1096    0.0000 N   0  0  0  0  0  0  0  0  0  0  0  0
   -0.8479   -0.9575    0.0000 O   0  0  0  0  0  0  0  0  0  0  0  0
   -0.5847    0.4166    0.0000 C   0  0  0  0  0  0  0  0  0  0  0  0
    0.2339    0.4166    0.0000 N   0  0  0  0  0  0  0  0  0  0  0  0
    0.9502    0.8260    0.0000 C   0  0  0  0  0  0  0  0  0  0  0  0
    0.9502    1.6446    0.0000 O   0  0  0  0  0  0  0  0  0  0  0  0
    1.6665    0.4166    0.0000 C   0  0  0  0  0  0  0  0  0  0  0  0
    1.6665   -0.4166    0.0000 N   0  0  0  0  0  0  0  0  0  0  0  0
    2.3828   -0.8259    0.0000 C   0  0  0  0  0  0  0  0  0  0  0  0
    3.0846   -0.4166    0.0000 C   0  0  0  0  0  0  0  0  0  0  0  0
    2.3828   -1.6446    0.0000 O   0  0  0  0  0  0  0  0  0  0  0  0
    2.3828    0.8260    0.0000 C   0  0  0  0  0  0  0  0  0  0  0  0
    3.2015    0.8260    0.0000 C   0  0  0  0  0  0  0  0  0  0  0  0
    4.8388    0.8260    0.0000 C   0  0  0  0  0  0  0  0  0  0  0  0
    4.4295    1.5277    0.0000 C   0  0  0  0  0  0  0  0  0  0  0  0
    3.6108    1.5277    0.0000 C   0  0  0  0  0  0  0  0  0  0  0  0
    3.6108    0.1096    0.0000 C   0  0  0  0  0  0  0  0  0  0  0  0
    4.4295    0.1096    0.0000 C   0  0  0  0  0  0  0  0  0  0  0  0
    5.6721    0.8260    0.0000 O   0  0  0  0  0  0  0  0  0  0  0  0
    6.4908    0.8260    0.0000 P   0  0  0  0  0  0  0  0  0  0  0  0
    6.4908    1.6446    0.0000 O   0  0  0  0  0  0  0  0  0  0  0  0
    7.3094    0.8260    0.0000 O   0  0  0  0  0  0  0  0  0  0  0  0
    6.4908   -0.0072    0.0000 O   0  0  0  0  0  0  0  0  0  0  0  0
  1  2  2  0
  1  6  1  0
  1  7  1  0
  2  3  1  0
  3  4  2  0
  4  5  1  0
  5  6  2  0
  7 10  2  0
  7 11  1  0
  8  9  2  0
  8 12  1  0
  8 13  1  0
  9 10  1  0
 11 12  2  0
 13 19  1  0
 14 15  1  0
 14 18  1  0
 15 19  1  0
 16 19  1  0
 16 21  1  0
 16 20  2  0
 17 21  1  0
 17 18  1  0
 21 22  1  6
 22 23  1  0
 23 25  1  0
 23 24  2  0
 25 30  1  6
 25 26  1  0
 26 27  1  0
 27 28  1  0
 27 29  2  0
 30 31  1  0
 31 34  2  0
 31 35  1  0
 32 33  2  0
 32 36  1  0
 32 37  1  0
 33 34  1  0
 35 36  2  0
 37 38  1  0
 38 40  1  0
 38 39  2  0
 38 41  1  0
M  END
>  <DRUGBANK_ID>  (1) 
DB04495

>  <SECONDARY_ACCESSION_NUMBERS>  (1) 
EXPT00324

>  <COMMON_NAME>  (1) 
Paratoulene phosphate

$$$$
