
     RDKit          2D

 11 11  0  0  0  0  0  0  0  0999 V2000
   -0.3573   -0.1510    0.0000 C   0  0  0  0  0  0  0  0  0  0  0  0
   -0.3573    0.6741    0.0000 O   0  0  0  0  0  0  0  0  0  0  0  0
    0.3571   -0.5635    0.0000 C   0  0  0  0  0  0  0  0  0  0  0  0
   -1.0717   -0.5635    0.0000 C   0  0  0  0  0  0  0  0  0  0  0  0
    0.3571    1.0866    0.0000 S   0  0  0  0  0  0  0  0  0  0  0  0
    0.3571   -1.3886    0.0000 C   0  0  0  0  0  0  0  0  0  0  0  0
   -1.0717   -1.3886    0.0000 C   0  0  0  0  0  0  0  0  0  0  0  0
    0.7697    0.3720    0.0000 O   0  0  0  0  0  0  0  0  0  0  0  0
   -0.0553    1.8011    0.0000 O   0  0  0  0  0  0  0  0  0  0  0  0
    1.0717    1.4991    0.0000 O   0  0  0  0  0  0  0  0  0  0  0  0
   -0.3573   -1.8011    0.0000 C   0  0  0  0  0  0  0  0  0  0  0  0
  1  2  1  0
  1  3  2  0
  1  4  1  0
  2  5  1  0
  3  6  1  0
  4  7  2  0
  5  8  2  0
  5  9  2  0
  5 10  1  0
  6 11  2  0
  7 11  1  0
M  END
>  <DRUGBANK_ID>  (1) 
DB14667

>  <SECONDARY_ACCESSION_NUMBERS>  (1) 
DBSALT002236

>  <COMMON_NAME>  (1) 
Phenyl hydrogen sulfate

>  <CAS_NUMBER>  (1) 
937-34-8

>  <UNII>  (1) 
2L4RKM5351

>  <SYNONYMS>  (1) 
Phenol sulfate; Phenylsulfate

$$$$
