
     RDKit          2D

 23 19  0  0  0  0  0  0  0  0999 V2000
   -3.9777   -5.3330    0.0000 Na  0  0  0  0  0 15  0  0  0  0  0  0
   -1.2670   -4.4491    0.0000 Na  0  0  0  0  0 15  0  0  0  0  0  0
   -0.3572   -7.8375    0.0000 O   0  0  0  0  0  0  0  0  0  0  0  0
   -0.3572   -7.0125    0.0000 C   0  0  0  0  0  0  0  0  0  0  0  0
    0.3572   -6.6000    0.0000 O   0  0  0  0  0  0  0  0  0  0  0  0
   -1.0717   -6.6000    0.0000 C   0  0  0  0  0  0  0  0  0  0  0  0
   -1.0717   -5.7750    0.0000 N   0  0  0  0  0  0  0  0  0  0  0  0
   -1.7862   -5.3625    0.0000 C   0  0  0  0  0  0  0  0  0  0  0  0
   -2.5006   -5.7750    0.0000 C   0  0  0  0  0  0  0  0  0  0  0  0
   -3.2151   -5.3625    0.0000 O   0  0  0  0  0  0  0  0  0  0  0  0
   -2.5006   -6.6000    0.0000 O   0  0  0  0  0  0  0  0  0  0  0  0
   -0.3572   -5.3625    0.0000 C   0  0  0  0  0  0  0  0  0  0  0  0
    0.3572   -5.7750    0.0000 C   0  0  0  0  0  0  0  0  0  0  0  0
    1.0717   -5.3625    0.0000 N   0  0  0  0  0  0  0  0  0  0  0  0
    1.0717   -4.5375    0.0000 C   0  0  0  0  0  0  0  0  0  0  0  0
    0.3572   -4.1250    0.0000 C   0  0  0  0  0  0  0  0  0  0  0  0
   -0.3572   -4.5375    0.0000 O   0  0  0  0  0  0  0  0  0  0  0  0
    0.3572   -3.3000    0.0000 O   0  0  0  0  0  0  0  0  0  0  0  0
    1.7862   -5.7750    0.0000 C   0  0  0  0  0  0  0  0  0  0  0  0
    2.5006   -5.3625    0.0000 C   0  0  0  0  0  0  0  0  0  0  0  0
    2.5006   -4.5375    0.0000 O   0  0  0  0  0  0  0  0  0  0  0  0
    3.2151   -5.7750    0.0000 O   0  0  0  0  0  0  0  0  0  0  0  0
    1.7832   -7.2256    0.0000 Ca  0  0  0  0  0 15  0  0  0  0  0  0
  3  4  1  0
  4  5  2  0
  4  6  1  0
  6  7  1  0
  7  8  1  0
  7 12  1  0
  8  9  1  0
  9 10  1  0
  9 11  2  0
 12 13  1  0
 13 14  1  0
 14 15  1  0
 14 19  1  0
 15 16  1  0
 16 17  1  0
 16 18  2  0
 19 20  1  0
 20 21  1  0
 20 22  2  0
M  CHG  7   1   1   2   1   3  -1  10  -1  17  -1  21  -1  23   2
M  END
>  <DRUGBANK_ID>  (1) 
DB14598

>  <SECONDARY_ACCESSION_NUMBERS>  (1) 
DBSALT000837

>  <COMMON_NAME>  (1) 
Edetate calcium disodium anhydrous

>  <CAS_NUMBER>  (1) 
62-33-9

>  <UNII>  (1) 
8U5D034955

>  <SYNONYMS>  (1) 
Edetate calcium disodium (anhydrous); Edetic acid calcium disodium salt

$$$$
