
     RDKit          2D

  9  8  0  0  0  0  0  0  0  0999 V2000
    0.0000    0.2062    0.0000 C   0  0  0  0  0  0  0  0  0  0  0  0
   -0.7143   -0.2063    0.0000 C   0  0  0  0  0  0  0  0  0  0  0  0
    2.1433   -0.2062    0.0000 O   0  0  0  0  0  0  0  0  0  0  0  0
   -1.4289    0.2062    0.0000 C   0  0  0  0  0  0  0  0  0  0  0  0
    1.4290    0.2063    0.0000 C   0  0  0  0  0  0  0  0  0  0  0  0
    1.4290    1.0313    0.0000 O   0  0  0  0  0  0  0  0  0  0  0  0
    0.7145   -0.2062    0.0000 C   0  0  0  0  0  0  0  0  0  0  0  0
    0.7145   -1.0313    0.0000 N   0  0  0  0  0  0  0  0  0  0  0  0
   -2.1433   -0.2063    0.0000 C   0  0  0  0  0  0  0  0  0  0  0  0
  1  2  1  0
  2  4  1  0
  4  9  1  0
  5  3  1  0
  5  6  2  0
  7  1  1  0
  7  5  1  0
  7  8  1  6
M  END
>  <DRUGBANK_ID>  (1) 
DB04419

>  <SECONDARY_ACCESSION_NUMBERS>  (1) 
EXPT02355

>  <COMMON_NAME>  (1) 
D-norleucine

>  <CAS_NUMBER>  (1) 
327-56-0

>  <UNII>  (1) 
VP8G7LX265

>  <SYNONYMS>  (1) 
D-(âˆ’)-norleucine; D-2-aminohexanoic acid

$$$$
