
     RDKit          2D

 37 39  0  0  1  0  0  0  0  0999 V2000
    2.8579   -8.6329    0.0000 C   0  0  0  0  0  0  0  0  0  0  0  0
    3.2704   -7.9184    0.0000 C   0  0  0  0  0  0  0  0  0  0  0  0
    4.0954   -7.9184    0.0000 C   0  0  0  0  0  0  0  0  0  0  0  0
    2.8579   -7.2039    0.0000 C   0  0  0  0  0  0  0  0  0  0  0  0
    3.2704   -6.4895    0.0000 C   0  0  0  0  0  0  0  0  0  0  0  0
    2.8579   -5.7750    0.0000 N   0  0  0  0  0  0  0  0  0  0  0  0
    2.0329   -5.7750    0.0000 C   0  0  0  0  0  0  0  0  0  0  0  0
    1.6204   -5.0605    0.0000 O   0  0  0  0  0  0  0  0  0  0  0  0
    1.6204   -6.4895    0.0000 N   0  0  0  0  0  0  0  0  0  0  0  0
    2.0329   -7.2039    0.0000 C   0  0  0  0  0  0  0  0  0  0  0  0
    1.6204   -7.9184    0.0000 C   0  0  0  0  0  0  0  0  0  0  0  0
    0.7954   -7.9184    0.0000 O   0  0  0  0  0  0  0  0  0  0  0  0
    0.3829   -7.2039    0.0000 C   0  0  0  0  0  0  0  0  0  0  0  0
    0.7954   -6.4895    0.0000 C   0  0  0  0  0  0  0  0  0  0  0  0
    4.0954   -6.4895    0.0000 C   0  0  0  0  0  0  0  0  0  0  0  0
    4.5079   -5.7750    0.0000 O   0  0  0  0  0  0  0  0  0  0  0  0
    4.5079   -7.2039    0.0000 N   0  0  0  0  0  0  0  0  0  0  0  0
    5.3329   -7.2039    0.0000 C   0  0  0  0  0  0  0  0  0  0  0  0
    5.7454   -6.4895    0.0000 C   0  0  0  0  0  0  0  0  0  0  0  0
    5.3329   -5.7750    0.0000 C   0  0  0  0  0  0  0  0  0  0  0  0
    5.7454   -5.0605    0.0000 C   0  0  0  0  0  0  0  0  0  0  0  0
    5.3329   -4.3461    0.0000 C   0  0  0  0  0  0  0  0  0  0  0  0
    5.7454   -3.6316    0.0000 C   0  0  0  0  0  0  0  0  0  0  0  0
    6.5704   -3.6316    0.0000 C   0  0  0  0  0  0  0  0  0  0  0  0
    6.9829   -4.3461    0.0000 C   0  0  0  0  0  0  0  0  0  0  0  0
    6.5704   -5.0605    0.0000 C   0  0  0  0  0  0  0  0  0  0  0  0
    5.7454   -7.9184    0.0000 C   0  0  0  0  0  0  0  0  0  0  0  0
    6.5704   -7.9184    0.0000 C   0  0  0  0  0  0  0  0  0  0  0  0
    6.9829   -8.6329    0.0000 S   0  0  0  0  0  0  0  0  0  0  0  0
    6.2684   -9.0454    0.0000 O   0  0  0  0  0  0  0  0  0  0  0  0
    7.6974   -8.2204    0.0000 O   0  0  0  0  0  0  0  0  0  0  0  0
    7.3954   -9.3474    0.0000 C   0  0  0  0  0  0  0  0  0  0  0  0
    8.2204   -9.3474    0.0000 C   0  0  0  0  0  0  0  0  0  0  0  0
    8.6329  -10.0618    0.0000 C   0  0  0  0  0  0  0  0  0  0  0  0
    8.2204  -10.7763    0.0000 C   0  0  0  0  0  0  0  0  0  0  0  0
    7.3954  -10.7763    0.0000 C   0  0  0  0  0  0  0  0  0  0  0  0
    6.9829  -10.0618    0.0000 C   0  0  0  0  0  0  0  0  0  0  0  0
  1  2  1  0
  2  3  1  0
  2  4  1  0
  5  4  1  1
  5  6  1  0
  5 15  1  0
  6  7  1  0
  7  8  2  0
  7  9  1  0
  9 10  1  0
  9 14  1  0
 10 11  1  0
 11 12  1  0
 12 13  1  0
 13 14  1  0
 15 16  2  0
 15 17  1  0
 18 17  1  0
 18 19  1  6
 18 27  1  0
 19 20  1  0
 20 21  1  0
 21 22  2  0
 21 26  1  0
 22 23  1  0
 23 24  2  0
 24 25  1  0
 25 26  2  0
 27 28  2  0
 28 29  1  0
 29 30  2  0
 29 31  2  0
 29 32  1  0
 32 33  2  0
 32 37  1  0
 33 34  1  0
 34 35  2  0
 35 36  1  0
 36 37  2  0
M  END
>  <DRUGBANK_ID>  (1) 
DB03837

>  <SECONDARY_ACCESSION_NUMBERS>  (1) 
EXPT00801

>  <COMMON_NAME>  (1) 
Morpholine-4-Carboxylic Acid (1-(3-Benzenesulfonyl-1-Phenethylallylcarbamoyl)-3-Methylbutyl)-Amide

$$$$
