
     RDKit          2D

 23 16  0  0  0  0  0  0  0  0999 V2000
    2.8439   -0.2458    0.0000 O   0  0  0  0  0  0  0  0  0  0  0  0
   -2.7101   -3.2211    0.0000 O   0  0  0  0  0  0  0  0  0  0  0  0
   -1.9966   -3.6335    0.0000 C   0  0  0  0  0  0  0  0  0  0  0  0
   -1.2734   -3.2210    0.0000 C   0  0  0  0  0  0  0  0  0  0  0  0
   -1.2734   -2.3960    0.0000 C   0  0  0  0  0  0  0  0  0  0  0  0
   -0.5597   -1.9835    0.0000 C   0  0  0  0  0  0  0  0  0  0  0  0
    0.1540   -2.3960    0.0000 O   0  0  0  0  0  0  0  0  0  0  0  0
   -0.5597   -1.1585    0.0000 O   0  0  0  0  0  0  0  0  0  0  0  0
   -1.9871   -1.9835    0.0000 N   0  0  0  0  0  0  0  0  0  0  0  0
   -1.9966   -4.4585    0.0000 O   0  0  0  0  0  0  0  0  0  0  0  0
    2.4494   -2.4317    0.0000 K   0  0  0  0  0 15  0  0  0  0  0  0
    2.6230    1.6877    0.0000 H   0  0  0  0  0  0  0  0  0  0  0  0
   -2.7993    1.0604    0.0000 O   0  0  0  0  0  0  0  0  0  0  0  0
   -2.0857    0.6480    0.0000 C   0  0  0  0  0  0  0  0  0  0  0  0
   -1.3626    1.0605    0.0000 C   0  0  0  0  0  0  0  0  0  0  0  0
   -1.3626    1.8855    0.0000 C   0  0  0  0  0  0  0  0  0  0  0  0
   -0.6489    2.2980    0.0000 C   0  0  0  0  0  0  0  0  0  0  0  0
    0.0648    1.8855    0.0000 O   0  0  0  0  0  0  0  0  0  0  0  0
   -0.6489    3.1230    0.0000 O   0  0  0  0  0  0  0  0  0  0  0  0
   -2.0763    2.2980    0.0000 N   0  0  0  0  0  0  0  0  0  0  0  0
   -2.0857   -0.1769    0.0000 O   0  0  0  0  0  0  0  0  0  0  0  0
    3.6487    1.6431    0.0000 H   0  0  0  0  0  0  0  0  0  0  0  0
    3.7651   -2.5210    0.0000 K   0  0  0  0  0 15  0  0  0  0  0  0
  3  2  1  0
  3 10  2  0
  4  3  1  0
  5  4  1  0
  5  9  1  6
  6  5  1  0
  6  8  2  0
  7  6  1  0
 14 13  1  0
 14 21  2  0
 15 14  1  0
 16 15  1  0
 16 20  1  6
 17 16  1  0
 17 19  2  0
 18 17  1  0
M  CHG  8   2  -1   7  -1  11   1  12   1  13  -1  18  -1  22   1  23   1
M  END
>  <DRUGBANK_ID>  (1) 
DB15819

>  <COMMON_NAME>  (1) 
Potassium aspartate

>  <CAS_NUMBER>  (1) 
7259-25-8

>  <UNII>  (1) 
OC4598NZEQ

>  <SYNONYMS>  (1) 
Aspartate potassium; L-aspartate potassium; Monopotassium aspartate hemihydrate; Potassium aspartate; Potassium aspartate hemihydrate; Potassium hydrogen aspartate hemihydrate

$$$$
