LIG
     RDKit          2D

 18 21  0  0  0  0  0  0  0  0999 V2000
    1.0213   -0.9724    0.0000 N   0  0  0  0  0  0  0  0  0  0  0  0
    0.3444   -1.4441    0.0000 N   0  0  0  0  0  0  0  0  0  0  0  0
   -0.3133   -0.9461    0.0000 C   0  0  0  0  0  0  0  0  0  0  0  0
   -0.0430   -0.1667    0.0000 C   0  0  0  0  0  0  0  0  0  0  0  0
    0.7819   -0.1829    0.0000 C   0  0  0  0  0  0  0  0  0  0  0  0
    1.2798    0.4748    0.0000 C   0  0  0  0  0  0  0  0  0  0  0  0
    0.9592    1.2350    0.0000 C   0  0  0  0  0  0  0  0  0  0  0  0
    1.4572    1.8927    0.0000 C   0  0  0  0  0  0  0  0  0  0  0  0
    2.2758    1.7903    0.0000 N   0  0  0  0  0  0  0  0  0  0  0  0
    2.5964    1.0302    0.0000 C   0  0  0  0  0  0  0  0  0  0  0  0
    2.0985    0.3724    0.0000 C   0  0  0  0  0  0  0  0  0  0  0  0
   -0.7007    0.3313    0.0000 C   0  0  0  0  0  0  0  0  0  0  0  0
   -1.3776   -0.1404    0.0000 C   0  0  0  0  0  0  0  0  0  0  0  0
   -1.1382   -0.9298    0.0000 C   0  0  0  0  0  0  0  0  0  0  0  0
   -1.7022   -1.5319    0.0000 C   0  0  0  0  0  0  0  0  0  0  0  0
   -2.5056   -1.3445    0.0000 C   0  0  0  0  0  0  0  0  0  0  0  0
   -2.7450   -0.5550    0.0000 C   0  0  0  0  0  0  0  0  0  0  0  0
   -2.1810    0.0471    0.0000 C   0  0  0  0  0  0  0  0  0  0  0  0
  1  2  1  0
  1  5  1  0
  2  3  2  0
  3  4  1  0
  3 14  1  0
  4  5  2  0
  4 12  1  0
  5  6  1  0
  6  7  2  0
  6 11  1  0
  7  8  1  0
  8  9  2  0
  9 10  1  0
 10 11  2  0
 12 13  1  0
 13 14  2  0
 13 18  1  0
 14 15  1  0
 15 16  2  0
 16 17  1  0
 17 18  2  0
M  END
>  <DRUGBANK_ID>  (1) 
DB03490

>  <SECONDARY_ACCESSION_NUMBERS>  (1) 
EXPT02030

>  <COMMON_NAME>  (1) 
3-Pyridin-4-Yl-2,4-Dihydro-Indeno[1,2-.C.]Pyrazole

>  <UNII>  (1) 
0EMS99B8D6

$$$$
