LSR
     RDKit          2D

 15 15  0  0  0  0  0  0  0  0999 V2000
    2.6083    1.1294    0.0000 C   0  0  0  0  0  0  0  0  0  0  0  0
    1.8938    0.7169    0.0000 C   0  0  0  0  0  0  0  0  0  0  0  0
    1.1793    1.1294    0.0000 C   0  0  0  0  0  0  0  0  0  0  0  0
    1.1793    1.9544    0.0000 C   0  0  0  0  0  0  0  0  0  0  0  0
    0.4649    0.7169    0.0000 C   0  0  0  0  0  0  0  0  0  0  0  0
    0.4649   -0.1081    0.0000 C   0  0  0  0  0  0  0  0  0  0  0  0
   -0.2496   -0.5206    0.0000 C   0  0  0  0  0  0  0  0  0  0  0  0
   -0.2496   -1.3456    0.0000 C   0  0  0  0  0  0  0  0  0  0  0  0
    0.4649   -1.7581    0.0000 C   0  0  0  0  0  0  0  0  0  0  0  0
   -0.9641   -1.7581    0.0000 C   0  0  0  0  0  0  0  0  0  0  0  0
   -1.6785   -1.3456    0.0000 C   0  0  0  0  0  0  0  0  0  0  0  0
   -1.6785   -0.5206    0.0000 C   0  0  0  0  0  0  0  0  0  0  0  0
   -0.9641   -0.1081    0.0000 C   0  0  0  0  0  0  0  0  0  0  0  0
   -0.5768    0.6203    0.0000 C   0  0  0  0  0  0  0  0  0  0  0  0
   -1.3514    0.6203    0.0000 C   0  0  0  0  0  0  0  0  0  0  0  0
  1  2  1  0
  2  3  2  0
  3  4  1  0
  3  5  1  0
  5  6  2  0
  6  7  1  0
  7  8  2  0
  7 13  1  0
  8  9  1  0
  8 10  1  0
 10 11  1  0
 11 12  1  0
 12 13  1  0
 13 14  1  0
 13 15  1  0
M  END
>  <DRUGBANK_ID>  (1) 
DB08127

>  <COMMON_NAME>  (1) 
1,3,3-trimethyl-2-[(1E,3E)-3-methylpenta-1,3-dien-1-yl]cyclohexene

$$$$
