
     RDKit          2D

 23 24  0  0  0  0  0  0  0  0999 V2000
   -2.8651    0.0000    0.0000 C   0  0  0  0  0  0  0  0  0  0  0  0
   -2.8651   -0.8365    0.0000 C   0  0  0  0  0  0  0  0  0  0  0  0
   -2.1541   -1.2548    0.0000 C   0  0  0  0  0  0  0  0  0  0  0  0
   -1.4011   -0.8365    0.0000 C   0  0  0  0  0  0  0  0  0  0  0  0
   -1.4011    0.0000    0.0000 C   0  0  0  0  0  0  0  0  0  0  0  0
   -2.1541    0.4183    0.0000 C   0  0  0  0  0  0  0  0  0  0  0  0
   -2.1541    1.2548    0.0000 O   0  0  0  0  0  0  0  0  0  0  0  0
   -3.5762   -1.2548    0.0000 O   0  0  0  0  0  0  0  0  0  0  0  0
   -0.6901    0.4183    0.0000 C   0  0  0  0  0  0  0  0  0  0  0  0
    0.0209    0.0000    0.0000 O   0  0  0  0  0  0  0  0  0  0  0  0
    0.7319    0.4183    0.0000 C   0  0  0  0  0  0  0  0  0  0  0  0
    1.4430    0.0000    0.0000 C   0  0  0  0  0  0  0  0  0  0  0  0
    2.1540    0.4183    0.0000 C   0  0  0  0  0  0  0  0  0  0  0  0
    2.8651    0.0000    0.0000 C   0  0  0  0  0  0  0  0  0  0  0  0
    2.8651   -0.8365    0.0000 C   0  0  0  0  0  0  0  0  0  0  0  0
    3.5762   -1.2548    0.0000 O   0  0  0  0  0  0  0  0  0  0  0  0
    2.1540   -1.2548    0.0000 C   0  0  0  0  0  0  0  0  0  0  0  0
    1.4430   -0.8365    0.0000 C   0  0  0  0  0  0  0  0  0  0  0  0
    0.7319   -1.2548    0.0000 C   0  0  0  0  0  0  0  0  0  0  0  0
    0.0209   -0.8365    0.0000 C   0  0  0  0  0  0  0  0  0  0  0  0
   -0.6901   -1.2548    0.0000 C   0  0  0  0  0  0  0  0  0  0  0  0
   -0.6901    1.2548    0.0000 O   0  0  0  0  0  0  0  0  0  0  0  0
    0.7319    1.2548    0.0000 C   0  0  0  0  0  0  0  0  0  0  0  0
  1  2  2  0
  1  6  1  0
  2  3  1  0
  2  8  1  0
  3  4  2  0
  4  5  1  0
  5  6  2  0
  5  9  1  0
  6  7  1  0
  9 10  1  0
  9 22  2  0
 10 11  1  0
 11 12  1  0
 11 23  1  1
 12 13  1  0
 13 14  1  0
 14 15  1  0
 15 16  1  6
 15 17  1  0
 17 18  1  0
 18 19  1  0
 19 20  1  0
 20 21  1  0
 21  4  1  0
M  END
>  <DRUGBANK_ID>  (1) 
DB11478

>  <COMMON_NAME>  (1) 
Zeranol

>  <CAS_NUMBER>  (1) 
26538-44-3

>  <UNII>  (1) 
76LO2L2V39

>  <SYNONYMS>  (1) 
alpha-Zeranol; Zeranol; Zeranolum; Î±-zeranol

$$$$
