
     RDKit          2D

 29 30  0  0  0  0  0  0  0  0999 V2000
   -4.6243   -1.8775    0.0000 N   0  0  0  0  0  0  0  0  0  0  0  0
   -3.9116   -1.4608    0.0000 C   0  0  0  0  0  0  0  0  0  0  0  0
   -3.1946   -1.8725    0.0000 C   0  0  0  0  0  0  0  0  0  0  0  0
   -2.4824   -1.4565    0.0000 C   0  0  0  0  0  0  0  0  0  0  0  0
   -2.4866   -0.6300    0.0000 C   0  0  0  0  0  0  0  0  0  0  0  0
   -3.2090   -0.2213    0.0000 C   0  0  0  0  0  0  0  0  0  0  0  0
   -3.9182   -0.6398    0.0000 C   0  0  0  0  0  0  0  0  0  0  0  0
   -5.3411   -1.4649    0.0000 C   0  0  0  0  0  0  0  0  0  0  0  0
   -5.3453   -0.6397    0.0000 N   0  0  0  0  0  0  0  0  0  0  0  0
   -6.0580   -1.8734    0.0000 N   0  0  0  0  0  0  0  0  0  0  0  0
   -1.7775   -0.2105    0.0000 C   0  0  0  0  0  0  0  0  0  0  0  0
   -1.7818    0.6147    0.0000 O   0  0  0  0  0  0  0  0  0  0  0  0
   -1.0648   -0.6231    0.0000 O   0  0  0  0  0  0  0  0  0  0  0  0
   -0.3521   -0.2062    0.0000 C   0  0  0  0  0  0  0  0  0  0  0  0
    0.3647   -0.6180    0.0000 C   0  0  0  0  0  0  0  0  0  0  0  0
    1.0769   -0.2019    0.0000 C   0  0  0  0  0  0  0  0  0  0  0  0
    1.0728    0.6245    0.0000 C   0  0  0  0  0  0  0  0  0  0  0  0
    0.3504    1.0332    0.0000 C   0  0  0  0  0  0  0  0  0  0  0  0
   -0.3588    0.6147    0.0000 C   0  0  0  0  0  0  0  0  0  0  0  0
    1.7818    1.0440    0.0000 C   0  0  0  0  0  0  0  0  0  0  0  0
    2.4945    0.6314    0.0000 C   0  0  0  0  0  0  0  0  0  0  0  0
    3.2072    1.0482    0.0000 O   0  0  0  0  0  0  0  0  0  0  0  0
    3.9199    0.6356    0.0000 C   0  0  0  0  0  0  0  0  0  0  0  0
    4.6325    1.0523    0.0000 C   0  0  0  0  0  0  0  0  0  0  0  0
    4.6284    1.8775    0.0000 O   0  0  0  0  0  0  0  0  0  0  0  0
    5.3453    0.6397    0.0000 N   0  0  0  0  0  0  0  0  0  0  0  0
    5.3411   -0.1854    0.0000 C   0  0  0  0  0  0  0  0  0  0  0  0
    6.0580    1.0565    0.0000 C   0  0  0  0  0  0  0  0  0  0  0  0
    2.4963   -0.1938    0.0000 O   0  0  0  0  0  0  0  0  0  0  0  0
  1  8  1  0
  1  2  1  0
  2  3  2  0
  3  4  1  0
  4  5  2  0
  5 11  1  0
  5  6  1  0
  6  7  2  0
  7  2  1  0
  8  9  2  0
  8 10  1  0
 11 12  2  0
 11 13  1  0
 13 14  1  0
 14 15  2  0
 15 16  1  0
 16 17  2  0
 17 18  1  0
 17 20  1  0
 18 19  2  0
 19 14  1  0
 20 21  1  0
 21 22  1  0
 21 29  2  0
 22 23  1  0
 23 24  1  0
 24 25  2  0
 24 26  1  0
 26 27  1  0
 26 28  1  0
M  END
>  <DRUGBANK_ID>  (1) 
DB13729

>  <COMMON_NAME>  (1) 
Camostat

>  <CAS_NUMBER>  (1) 
59721-28-7

>  <UNII>  (1) 
0FD207WKDU

>  <SYNONYMS>  (1) 
Camostat; Camostatum

$$$$
