
     RDKit          2D

 14 14  0  0  0  0  0  0  0  0999 V2000
    1.0313   -0.3019    0.0000 C   0  0  0  0  0  0  0  0  0  0  0  0
    0.6187   -1.0164    0.0000 C   0  0  0  0  0  0  0  0  0  0  0  0
    0.6187    0.4125    0.0000 C   0  0  0  0  0  0  0  0  0  0  0  0
    1.8563   -0.3019    0.0000 S   0  0  0  0  0  0  0  0  0  0  0  0
   -0.2062   -1.0164    0.0000 C   0  0  0  0  0  0  0  0  0  0  0  0
   -0.2062    0.4125    0.0000 C   0  0  0  0  0  0  0  0  0  0  0  0
    2.6814   -0.3019    0.0000 Cl  0  0  0  0  0  0  0  0  0  0  0  0
    1.8563    0.5230    0.0000 O   0  0  0  0  0  0  0  0  0  0  0  0
    1.8563   -1.1271    0.0000 O   0  0  0  0  0  0  0  0  0  0  0  0
   -0.6187   -0.3019    0.0000 C   0  0  0  0  0  0  0  0  0  0  0  0
   -1.4438   -0.3019    0.0000 N   0  0  0  0  0  0  0  0  0  0  0  0
   -1.8563    0.4125    0.0000 C   0  0  0  0  0  0  0  0  0  0  0  0
   -2.6814    0.4125    0.0000 C   0  0  0  0  0  0  0  0  0  0  0  0
   -1.4438    1.1271    0.0000 O   0  0  0  0  0  0  0  0  0  0  0  0
  1  2  2  0
  1  3  1  0
  1  4  1  0
  2  5  1  0
  3  6  2  0
  4  7  1  0
  4  8  2  0
  4  9  2  0
  5 10  2  0
  6 10  1  0
 10 11  1  0
 11 12  1  0
 12 13  1  0
 12 14  2  0
M  END
>  <DRUGBANK_ID>  (1) 
DB12337

>  <COMMON_NAME>  (1) 
N-acetylsulfanilyl chloride

>  <CAS_NUMBER>  (1) 
121-60-8

>  <UNII>  (1) 
LIX4M9AIVM

>  <SYNONYMS>  (1) 
4-(acetylamino)benzenesulfonyl chloride; ASC

$$$$
