
     RDKit          2D

 21 23  0  0  1  0  0  0  0  0999 V2000
   16.4326   -6.8994    0.0000 O   0  0  0  0  0  0  0  0  0  0  0  0
   19.3041   -7.7530    0.0000 O   0  0  0  0  0  0  0  0  0  0  0  0
   20.7739   -5.2295    0.0000 O   0  0  0  0  0  0  0  0  0  0  0  0
   15.7182   -3.1869    0.0000 O   0  0  0  0  0  0  0  0  0  0  0  0
   14.2891   -4.0119    0.0000 O   0  0  0  0  0  0  0  0  0  0  0  0
   17.8616   -5.2494    0.0000 O   0  0  0  0  0  0  0  0  0  0  0  0
   17.1470   -6.4869    0.0000 C   0  0  0  0  0  0  0  0  0  0  0  0
   17.1470   -5.6619    0.0000 C   0  0  0  0  0  0  0  0  0  0  0  0
   17.8616   -6.8994    0.0000 C   0  0  0  0  0  0  0  0  0  0  0  0
   19.3136   -6.9280    0.0000 C   0  0  0  0  0  0  0  0  0  0  0  0
   20.0610   -5.6448    0.0000 C   0  0  0  0  0  0  0  0  0  0  0  0
   15.7182   -4.0119    0.0000 C   0  0  0  0  0  0  0  0  0  0  0  0
   15.0038   -4.4244    0.0000 C   0  0  0  0  0  0  0  0  0  0  0  0
   18.5760   -5.6619    0.0000 C   0  0  0  0  0  0  0  0  0  0  0  0
   18.5760   -6.4869    0.0000 C   0  0  0  0  0  0  0  0  0  0  0  0
   16.4326   -5.2494    0.0000 C   0  0  0  0  0  0  0  0  0  0  0  0
   20.0610   -6.5041    0.0000 C   0  0  0  0  0  0  0  0  0  0  0  0
   19.3136   -5.2208    0.0000 C   0  0  0  0  0  0  0  0  0  0  0  0
   16.4326   -4.4244    0.0000 C   0  0  0  0  0  0  0  0  0  0  0  0
   15.0038   -5.2494    0.0000 C   0  0  0  0  0  0  0  0  0  0  0  0
   15.7182   -5.6619    0.0000 C   0  0  0  0  0  0  0  0  0  0  0  0
  2 10  1  0
  3 11  1  0
  4 12  1  0
  5 13  1  0
  6  8  1  0
  6 14  1  0
  7  1  1  1
  7  8  1  0
  7  9  1  0
  8 16  1  1
  9 15  1  0
 10 15  1  0
 10 17  2  0
 11 17  1  0
 11 18  2  0
 12 13  2  0
 12 19  1  0
 13 20  1  0
 14 15  2  0
 14 18  1  0
 16 19  2  0
 16 21  1  0
 20 21  2  0
M  END
>  <DRUGBANK_ID>  (1) 
DB12039

>  <COMMON_NAME>  (1) 
Epicatechin

>  <CAS_NUMBER>  (1) 
490-46-0

>  <UNII>  (1) 
34PHS7TU43

$$$$
