
     RDKit          2D

 30 34  0  0  0  0  0  0  0  0999 V2000
    4.8735   -1.6474    0.0000 C   0  0  0  0  0  0  0  0  0  0  0  0
   -0.0757    0.4542    0.0000 C   0  0  0  0  0  0  0  0  0  0  0  0
    2.4689   -2.1303    0.0000 C   0  0  0  0  0  0  0  0  0  0  0  0
    1.6568   -1.9851    0.0000 C   0  0  0  0  0  0  0  0  0  0  0  0
   -0.0868   -1.5703    0.0000 C   0  0  0  0  0  0  0  0  0  0  0  0
   -0.7697   -1.1073    0.0000 C   0  0  0  0  0  0  0  0  0  0  0  0
    3.2523   -0.0930    0.0000 C   0  0  0  0  0  0  0  0  0  0  0  0
    1.6280    0.1973    0.0000 C   0  0  0  0  0  0  0  0  0  0  0  0
    4.0644   -0.2382    0.0000 C   0  0  0  0  0  0  0  0  0  0  0  0
    0.8159    0.3426    0.0000 C   0  0  0  0  0  0  0  0  0  0  0  0
    3.8129   -1.6448    0.0000 C   0  0  0  0  0  0  0  0  0  0  0  0
   -4.2677    1.8533    0.0000 C   0  0  0  0  0  0  0  0  0  0  0  0
   -2.8238    2.1303    0.0000 C   0  0  0  0  0  0  0  0  0  0  0  0
   -3.1949    0.8480    0.0000 C   0  0  0  0  0  0  0  0  0  0  0  0
   -1.8640    0.2235    0.0000 C   0  0  0  0  0  0  0  0  0  0  0  0
   -3.4752    1.6240    0.0000 C   0  0  0  0  0  0  0  0  0  0  0  0
    3.0008   -1.4996    0.0000 C   0  0  0  0  0  0  0  0  0  0  0  0
    2.7205   -0.7237    0.0000 C   0  0  0  0  0  0  0  0  0  0  0  0
    1.9083   -0.5785    0.0000 C   0  0  0  0  0  0  0  0  0  0  0  0
    1.3765   -1.2092    0.0000 C   0  0  0  0  0  0  0  0  0  0  0  0
    0.5644   -1.0640    0.0000 C   0  0  0  0  0  0  0  0  0  0  0  0
   -0.5404   -0.3149    0.0000 C   0  0  0  0  0  0  0  0  0  0  0  0
   -1.0467    0.3364    0.0000 C   0  0  0  0  0  0  0  0  0  0  0  0
    4.3447   -1.0141    0.0000 C   0  0  0  0  0  0  0  0  0  0  0  0
    0.2841   -0.2880    0.0000 C   0  0  0  0  0  0  0  0  0  0  0  0
   -5.0602    2.0826    0.0000 N   0  0  0  0  0  0  0  0  0  0  0  0
   -2.1410    1.6673    0.0000 N   0  0  0  0  0  0  0  0  0  0  0  0
   -2.3703    0.8749    0.0000 N   0  0  0  0  0  0  0  0  0  0  0  0
   -0.7358    1.1006    0.0000 O   0  0  0  0  0  0  0  0  0  0  0  0
    5.0602   -0.6033    0.0000 O   0  0  0  0  0  0  0  0  0  0  0  0
  4  3  1  0
  6  5  1  0
  9  7  1  0
 10  8  1  0
 16 12  1  0
 16 13  1  0
 16 14  2  0
 17  3  1  1
 17 11  1  0
 18  7  1  1
 18 17  1  0
 18 19  1  0
 19  8  1  6
 19 20  1  0
 20  4  1  1
 20 21  1  0
 21  5  1  6
 21 25  1  0
 22  6  1  0
 22 23  1  6
 23 15  1  0
 24  1  1  6
 24  9  1  0
 24 11  1  0
 24 30  1  0
 25  2  1  6
 25 10  1  0
 25 22  1  0
 26 12  3  0
 27 13  2  0
 28 14  1  0
 28 15  1  0
 28 27  1  0
 29 23  2  0
M  END
>  <DRUGBANK_ID>  (1) 
DB15490

>  <COMMON_NAME>  (1) 
Zuranolone

>  <CAS_NUMBER>  (1) 
1632051-40-1

>  <UNII>  (1) 
7ZW49N180B

>  <SYNONYMS>  (1) 
Zuranolone

$$$$
