
     RDKit          2D

 20 20  0  0  0  0  0  0  0  0999 V2000
    0.3572   -0.4125    0.0000 P   0  0  0  0  0  0  0  0  0  0  0  0
   -0.3572   -0.8250    0.0000 O   0  0  0  0  0  0  0  0  0  0  0  0
   -0.0552    0.3019    0.0000 O   0  0  0  0  0  0  0  0  0  0  0  0
    0.7697   -1.1269    0.0000 O   0  0  0  0  0  0  0  0  0  0  0  0
   -1.0716   -2.0625    0.0000 C   0  0  0  0  0  0  0  0  0  0  0  0
   -0.3572   -1.6500    0.0000 C   0  0  0  0  0  0  0  0  0  0  0  0
   -1.0716   -2.8875    0.0000 C   0  0  0  0  0  0  0  0  0  0  0  0
    0.3572   -2.8875    0.0000 C   0  0  0  0  0  0  0  0  0  0  0  0
    0.3572   -2.0625    0.0000 C   0  0  0  0  0  0  0  0  0  0  0  0
   -0.3572   -3.3000    0.0000 C   0  0  0  0  0  0  0  0  0  0  0  0
   -1.7862   -1.6500    0.0000 C   0  0  0  0  0  0  0  0  0  0  0  0
    1.0716   -3.3000    0.0000 C   0  0  0  0  0  0  0  0  0  0  0  0
   -1.7862   -0.8250    0.0000 C   0  0  0  0  0  0  0  0  0  0  0  0
   -2.5007   -2.0625    0.0000 C   0  0  0  0  0  0  0  0  0  0  0  0
    1.0716    0.0000    0.0000 C   0  0  0  0  0  0  0  0  0  0  0  0
    1.0716    0.8250    0.0000 C   0  0  0  0  0  0  0  0  0  0  0  0
    1.7862    1.2375    0.0000 C   0  0  0  0  0  0  0  0  0  0  0  0
    1.7862    2.0625    0.0000 C   0  0  0  0  0  0  0  0  0  0  0  0
    2.5007    2.4750    0.0000 C   0  0  0  0  0  0  0  0  0  0  0  0
    2.5007    3.3000    0.0000 C   0  0  0  0  0  0  0  0  0  0  0  0
  1  2  1  0
  1  3  1  0
  1  4  2  0
  1 15  1  0
  5  6  1  0
  5  7  1  0
  5 11  1  6
  6  2  1  1
  6  9  1  0
  7 10  1  0
  8  9  1  0
  8 10  1  0
  8 12  1  1
 11 13  1  0
 11 14  1  0
 15 16  1  0
 16 17  1  0
 17 18  1  0
 18 19  1  0
 19 20  1  0
M  END
>  <DRUGBANK_ID>  (1) 
DB08201

>  <COMMON_NAME>  (1) 
(1S)-menthyl hexyl phosphonate group

$$$$
