NP5
     RDKit          2D

 22 23  0  0  0  0  0  0  0  0999 V2000
   -1.1006    1.1210    0.0000 C   0  0  0  0  0  0  0  0  0  0  0  0
   -0.3118    0.8794    0.0000 O   0  0  0  0  0  0  0  0  0  0  0  0
   -1.7043    0.5587    0.0000 C   0  0  0  0  0  0  0  0  0  0  0  0
   -2.4931    0.8003    0.0000 C   0  0  0  0  0  0  0  0  0  0  0  0
   -3.0968    0.2380    0.0000 C   0  0  0  0  0  0  0  0  0  0  0  0
   -2.9116   -0.5660    0.0000 C   0  0  0  0  0  0  0  0  0  0  0  0
   -2.1228   -0.8076    0.0000 C   0  0  0  0  0  0  0  0  0  0  0  0
   -1.5191   -0.2453    0.0000 C   0  0  0  0  0  0  0  0  0  0  0  0
   -0.7303   -0.4869    0.0000 C   0  0  0  0  0  0  0  0  0  0  0  0
   -0.5451   -1.2909    0.0000 C   0  0  0  0  0  0  0  0  0  0  0  0
    0.2437   -1.5325    0.0000 C   0  0  0  0  0  0  0  0  0  0  0  0
    0.9304   -0.9464    0.0000 C   0  0  0  0  0  0  0  0  0  0  0  0
    1.7553   -0.9325    0.0000 C   0  0  0  0  0  0  0  0  0  0  0  0
    1.9969   -0.1436    0.0000 C   0  0  0  0  0  0  0  0  0  0  0  0
    1.3213    0.3299    0.0000 C   0  0  0  0  0  0  0  0  0  0  0  0
    1.0807    1.2001    0.0000 C   0  0  0  0  0  0  0  0  0  0  0  0
    0.2919    1.4417    0.0000 C   0  0  0  0  0  0  0  0  0  0  0  0
   -1.2857    1.9250    0.0000 O   0  0  0  0  0  0  0  0  0  0  0  0
   -2.6782    1.6043    0.0000 O   0  0  0  0  0  0  0  0  0  0  0  0
   -3.5153   -1.1283    0.0000 O   0  0  0  0  0  0  0  0  0  0  0  0
   -1.9376   -1.6115    0.0000 Cl  0  0  0  0  0  0  0  0  0  0  0  0
   -1.1488   -1.8532    0.0000 O   0  0  0  0  0  0  0  0  0  0  0  0
  1  2  1  0
  1  3  1  0
  1 18  2  0
  2 17  1  0
  3  4  1  0
  3  8  2  0
  4  5  2  0
  4 19  1  0
  5  6  1  0
  6  7  2  0
  6 20  1  0
  7  8  1  0
  7 21  1  0
  8  9  1  0
  9 10  1  0
 10 11  1  0
 10 22  2  0
 11 12  1  0
 12 13  1  0
 13 14  1  0
 14 15  2  0
 15 16  1  0
 16 17  1  0
M  END
>  <DRUGBANK_ID>  (1) 
DB08293

>  <COMMON_NAME>  (1) 
(5E)-12-CHLORO-13,15-DIHYDROXY-4,7,8,9-TETRAHYDRO-2-BENZOXACYCLOTRIDECINE-1,10(3H,11H)-DIONE

$$$$
