
     RDKit          2D

 19 20  0  0  0  0  0  0  0  0999 V2000
    1.2999    1.9481    0.0000 O   0  0  0  0  0  0  0  0  0  0  0  0
   -0.0349    1.9481    0.0000 O   0  0  0  0  0  0  0  0  0  0  0  0
    1.1944    4.1540    0.0000 O   0  0  0  0  0  0  0  0  0  0  0  0
   -0.0820   -3.0745    0.0000 N   0  0  0  0  0  0  0  0  0  0  0  0
   -0.7965   -4.3121    0.0000 N   0  0  0  0  0  0  0  0  0  0  0  0
   -1.5110   -3.0745    0.0000 N   0  0  0  0  0  0  0  0  0  0  0  0
    1.0450    2.7328    0.0000 C   0  0  0  0  0  0  0  0  0  0  0  0
    0.2199    2.7328    0.0000 C   0  0  0  0  0  0  0  0  0  0  0  0
    0.6324    0.6381    0.0000 C   0  0  0  0  0  0  0  0  0  0  0  0
    1.5299    3.4003    0.0000 C   0  0  0  0  0  0  0  0  0  0  0  0
    0.6324   -1.0119    0.0000 C   0  0  0  0  0  0  0  0  0  0  0  0
    0.6324   -1.8369    0.0000 C   0  0  0  0  0  0  0  0  0  0  0  0
    1.3469    0.2256    0.0000 C   0  0  0  0  0  0  0  0  0  0  0  0
   -0.0820    0.2256    0.0000 C   0  0  0  0  0  0  0  0  0  0  0  0
    1.3469   -0.5993    0.0000 C   0  0  0  0  0  0  0  0  0  0  0  0
   -0.0820   -0.5993    0.0000 C   0  0  0  0  0  0  0  0  0  0  0  0
   -0.0820   -2.2494    0.0000 C   0  0  0  0  0  0  0  0  0  0  0  0
   -0.7965   -3.4870    0.0000 C   0  0  0  0  0  0  0  0  0  0  0  0
    0.6324    1.4632    0.0000 B   0  0  0  0  0  0  0  0  0  0  0  0
  1  7  1  0
  1 19  1  0
  2  8  1  0
  2 19  1  0
  3 10  1  0
  4 17  1  0
  4 18  2  3
  5 18  1  0
  6 18  1  0
  7  8  1  0
  7 10  1  1
  9 13  2  0
  9 14  1  0
  9 19  1  0
 11 12  1  0
 11 15  2  0
 11 16  1  0
 12 17  1  0
 13 15  1  0
 14 16  2  0
M  END
>  <DRUGBANK_ID>  (1) 
DB07071

>  <COMMON_NAME>  (1) 
(R)-1-(4-(4-(Hydroxymethyl)-1,3,2-dioxaborolan-2-YL)phenethyl)guanidine

$$$$
