
     RDKit          2D

 29 30  0  0  0  0  0  0  0  0999 V2000
   -1.6041   -1.2695    0.0000 C   0  0  0  0  0  0  0  0  0  0  0  0
   -0.8930   -0.8512    0.0000 O   0  0  0  0  0  0  0  0  0  0  0  0
   -0.1819   -1.2695    0.0000 C   0  0  0  0  0  0  0  0  0  0  0  0
   -1.6041   -2.1061    0.0000 O   0  0  0  0  0  0  0  0  0  0  0  0
   -2.3152   -0.8512    0.0000 C   0  0  0  0  0  0  0  0  0  0  0  0
   -2.3152   -0.0146    0.0000 C   0  0  0  0  0  0  0  0  0  0  0  0
   -3.0263   -1.2695    0.0000 C   0  0  0  0  0  0  0  0  0  0  0  0
   -3.7333   -0.8512    0.0000 C   0  0  0  0  0  0  0  0  0  0  0  0
   -3.0263    0.4036    0.0000 C   0  0  0  0  0  0  0  0  0  0  0  0
   -3.7333   -0.0146    0.0000 C   0  0  0  0  0  0  0  0  0  0  0  0
    2.3111    2.0559    0.0000 N   0  0  0  0  0  0  0  0  0  0  0  0
    1.6042    0.8052    0.0000 C   0  0  0  0  0  0  0  0  0  0  0  0
    2.3111    1.2235    0.0000 C   0  0  0  0  0  0  0  0  0  0  0  0
    2.3111   -0.4496    0.0000 N   0  0  0  0  0  0  0  0  0  0  0  0
    2.3111   -1.2862    0.0000 C   0  0  0  0  0  0  0  0  0  0  0  0
    1.6042   -0.0313    0.0000 C   0  0  0  0  0  0  0  0  0  0  0  0
    0.8931    2.0559    0.0000 N   0  0  0  0  0  0  0  0  0  0  0  0
    1.5748   -1.2736    0.0000 C   0  0  0  0  0  0  0  0  0  0  0  0
    1.6042    2.4742    0.0000 C   0  0  0  0  0  0  0  0  0  0  0  0
    3.0222   -0.0313    0.0000 C   0  0  0  0  0  0  0  0  0  0  0  0
    0.8931    1.2235    0.0000 C   0  0  0  0  0  0  0  0  0  0  0  0
    0.6964   -1.2736    0.0000 S   0  0  0  0  0  0  0  0  0  0  0  0
    3.7333   -0.4496    0.0000 O   0  0  0  0  0  0  0  0  0  0  0  0
    3.0222    0.8052    0.0000 N   0  0  0  0  0  0  0  0  0  0  0  0
    1.5748   -2.2148    0.0000 C   0  0  0  0  0  0  0  0  0  0  0  0
    3.0222   -1.7045    0.0000 C   0  0  0  0  0  0  0  0  0  0  0  0
    1.0101   -3.3108    0.0000 O   0  0  0  0  0  0  0  0  0  0  0  0
    1.6042    3.3108    0.0000 C   0  0  0  0  0  0  0  0  0  0  0  0
    1.0101   -2.6248    0.0000 C   0  0  0  0  0  0  0  0  0  0  0  0
  1  2  1  0
  2  3  1  0
  4  1  2  0
  5  1  1  0
  6  5  2  0
  7  5  1  0
  8  7  2  0
  9  6  1  0
  9 10  2  0
 10  8  1  0
 12 13  1  0
 12 21  2  0
 13 11  2  0
 14 16  1  0
 15 14  1  0
 16 12  1  0
 17 19  2  0
 18 15  2  0
 19 11  1  0
 20 14  1  0
 21 17  1  0
 22 18  1  0
 22  3  1  0
 23 20  2  0
 24 13  1  0
 25 18  1  0
 26 15  1  0
 27 29  1  0
 28 19  1  0
 29 25  1  0
M  END
>  <DRUGBANK_ID>  (1) 
DB16535

>  <COMMON_NAME>  (1) 
Benzoyloxymethylthiamine

>  <CAS_NUMBER>  (1) 
18481-26-0

$$$$
