
     RDKit          2D

 18 20  0  0  0  0  0  0  0  0999 V2000
    5.0883    0.8268    0.0000 C   0  0  0  0  0  0  0  0  0  0  0  0
    4.3613    1.2168    0.0000 C   0  0  0  0  0  0  0  0  0  0  0  0
    4.3355    2.0414    0.0000 C   0  0  0  0  0  0  0  0  0  0  0  0
    3.6601    0.7822    0.0000 C   0  0  0  0  0  0  0  0  0  0  0  0
    2.8963    1.0941    0.0000 N   0  0  0  0  0  0  0  0  0  0  0  0
    2.3637    0.4640    0.0000 C   0  0  0  0  0  0  0  0  0  0  0  0
    2.7983   -0.2372    0.0000 C   0  0  0  0  0  0  0  0  0  0  0  0
    3.5995   -0.0406    0.0000 N   0  0  0  0  0  0  0  0  0  0  0  0
    2.4083   -0.9642    0.0000 C   0  0  0  0  0  0  0  0  0  0  0  0
    2.8429   -1.6655    0.0000 O   0  0  0  0  0  0  0  0  0  0  0  0
    1.5837   -0.9900    0.0000 C   0  0  0  0  0  0  0  0  0  0  0  0
    1.1937   -1.7170    0.0000 O   0  0  0  0  0  0  0  0  0  0  0  0
    1.1491   -0.2887    0.0000 C   0  0  0  0  0  0  0  0  0  0  0  0
    0.3245   -0.3145    0.0000 C   0  0  0  0  0  0  0  0  0  0  0  0
   -0.1101    0.3867    0.0000 C   0  0  0  0  0  0  0  0  0  0  0  0
    0.2799    1.1137    0.0000 C   0  0  0  0  0  0  0  0  0  0  0  0
    1.1045    1.1395    0.0000 C   0  0  0  0  0  0  0  0  0  0  0  0
    1.5391    0.4383    0.0000 C   0  0  0  0  0  0  0  0  0  0  0  0
  1  2  1  0
  2  3  1  0
  2  4  1  0
  4  5  2  0
  4  8  1  0
  5  6  1  0
  6  7  2  0
  6 18  1  0
  7  8  1  0
  7  9  1  0
  9 10  2  0
  9 11  1  0
 11 12  2  0
 11 13  1  0
 13 14  1  0
 13 18  2  0
 14 15  2  0
 15 16  1  0
 16 17  2  0
 17 18  1  0
M  END
>  <DRUGBANK_ID>  (1) 
DB17622

>  <COMMON_NAME>  (1) 
KL1333

>  <CAS_NUMBER>  (1) 
1800405-30-4

>  <UNII>  (1) 
NA2ZOL5UGM

>  <SYNONYMS>  (1) 
2-(1-methylethyl)-3h-naphth(1,2-d)imidazole-4,5-dione; 2-isopropyl-3h-naphtho(1,2-d)imidazole-4,5-dione; 2-isopropyl-3H-naphtho[1,2-d]imidazole-4,5-dione; 3h-naphth(1,2-d)imidazole-4,5-dione, 2-(1-methylethyl)-

$$$$
