
     RDKit          2D

 34 38  0  0  1  0  0  0  0  0999 V2000
    2.0202    2.6807    0.0000 Cl  0  0  0  0  0  0  0  0  0  0  0  0
    5.0937   -2.6642    0.0000 Cl  0  0  0  0  0  0  0  0  0  0  0  0
    8.0117    1.4927    0.0000 O   0  0  0  0  0  0  0  0  0  0  0  0
    2.8695   -1.4102    0.0000 N   0  0  0  0  0  0  0  0  0  0  0  0
    4.0828   -0.8917    0.0000 N   0  0  0  0  0  0  0  0  0  0  0  0
    6.5512    1.5014    0.0000 N   0  0  0  0  0  0  0  0  0  0  0  0
    1.6500   -0.8673    0.0000 N   0  0  0  0  0  0  0  0  0  0  0  0
    3.6703   -0.1772    0.0000 C   0  0  0  0  0  0  0  0  0  0  0  0
    4.3847    0.2353    0.0000 C   0  0  0  0  0  0  0  0  0  0  0  0
    2.9558   -0.5897    0.0000 C   0  0  0  0  0  0  0  0  0  0  0  0
    3.2577    0.5373    0.0000 C   0  0  0  0  0  0  0  0  0  0  0  0
    5.8137    0.2353    0.0000 C   0  0  0  0  0  0  0  0  0  0  0  0
    5.0993   -0.1772    0.0000 C   0  0  0  0  0  0  0  0  0  0  0  0
    5.8137    1.0603    0.0000 C   0  0  0  0  0  0  0  0  0  0  0  0
    4.3847    1.0603    0.0000 C   0  0  0  0  0  0  0  0  0  0  0  0
    6.5512   -0.2058    0.0000 C   0  0  0  0  0  0  0  0  0  0  0  0
    5.0993    1.4728    0.0000 C   0  0  0  0  0  0  0  0  0  0  0  0
    2.2021   -0.2542    0.0000 C   0  0  0  0  0  0  0  0  0  0  0  0
    2.4327    0.5373    0.0000 C   0  0  0  0  0  0  0  0  0  0  0  0
    3.6703    1.2517    0.0000 C   0  0  0  0  0  0  0  0  0  0  0  0
    7.2988    0.2181    0.0000 C   0  0  0  0  0  0  0  0  0  0  0  0
    7.2988    1.0775    0.0000 C   0  0  0  0  0  0  0  0  0  0  0  0
    2.0625   -1.5818    0.0000 C   0  0  0  0  0  0  0  0  0  0  0  0
    6.5417   -1.0308    0.0000 C   0  0  0  0  0  0  0  0  0  0  0  0
    3.4826   -1.9623    0.0000 C   0  0  0  0  0  0  0  0  0  0  0  0
    6.5417    2.3264    0.0000 C   0  0  0  0  0  0  0  0  0  0  0  0
    2.0202    1.2517    0.0000 C   0  0  0  0  0  0  0  0  0  0  0  0
    3.2577    1.9663    0.0000 C   0  0  0  0  0  0  0  0  0  0  0  0
    2.4327    1.9663    0.0000 C   0  0  0  0  0  0  0  0  0  0  0  0
    5.8225   -1.4350    0.0000 C   0  0  0  0  0  0  0  0  0  0  0  0
    7.2513   -1.4515    0.0000 C   0  0  0  0  0  0  0  0  0  0  0  0
    5.8129   -2.2600    0.0000 C   0  0  0  0  0  0  0  0  0  0  0  0
    7.2418   -2.2765    0.0000 C   0  0  0  0  0  0  0  0  0  0  0  0
    6.5226   -2.6807    0.0000 C   0  0  0  0  0  0  0  0  0  0  0  0
  1 29  1  0
  2 32  1  0
  3 22  2  0
  4 10  1  0
  4 23  1  0
  4 25  1  0
  6 14  1  0
  6 22  1  0
  6 26  1  0
  7 18  1  0
  7 23  2  0
  8  5  1  6
  8  9  1  0
  8 10  1  0
  8 11  1  0
  9 13  2  0
  9 15  1  0
 10 18  2  0
 11 19  2  0
 11 20  1  0
 12 13  1  0
 12 14  2  0
 12 16  1  0
 14 17  1  0
 15 17  2  0
 16 21  2  0
 16 24  1  0
 19 27  1  0
 20 28  2  0
 21 22  1  0
 24 30  2  0
 24 31  1  0
 27 29  2  0
 28 29  1  0
 30 32  1  0
 31 33  2  0
 32 34  2  0
 33 34  1  0
M  END
>  <DRUGBANK_ID>  (1) 
DB04960

>  <COMMON_NAME>  (1) 
Tipifarnib

>  <CAS_NUMBER>  (1) 
192185-72-1

>  <UNII>  (1) 
MAT637500A

>  <SYNONYMS>  (1) 
Tipifarnib; Zarnestra

$$$$
