
     RDKit          2D

 28 31  0  0  0  0  0  0  0  0999 V2000
   -1.7616   -0.7461    0.0000 C   0  0  0  0  0  0  0  0  0  0  0  0
   -2.4761   -1.1586    0.0000 C   0  0  0  0  0  0  0  0  0  0  0  0
   -1.7616   -2.3962    0.0000 C   0  0  0  0  0  0  0  0  0  0  0  0
   -1.0472   -1.9837    0.0000 C   0  0  0  0  0  0  0  0  0  0  0  0
   -0.3327   -2.3962    0.0000 C   0  0  0  0  0  0  0  0  0  0  0  0
    0.3816   -1.9837    0.0000 C   0  0  0  0  0  0  0  0  0  0  0  0
    0.3816    0.4913    0.0000 C   0  0  0  0  0  0  0  0  0  0  0  0
    1.8807   -1.0010    0.0000 C   0  0  0  0  0  0  0  0  0  0  0  0
   -2.4761   -1.9837    0.0000 C   0  0  0  0  0  0  0  0  0  0  0  0
   -3.1906   -2.3962    0.0000 O   0  0  0  0  0  0  0  0  0  0  0  0
    1.8807    0.3337    0.0000 C   0  0  0  0  0  0  0  0  0  0  0  0
    2.5952    0.7462    0.0000 O   0  0  0  0  0  0  0  0  0  0  0  0
    2.3656   -0.3336    0.0000 C   0  0  0  0  0  0  0  0  0  0  0  0
    3.1906   -0.3336    0.0000 C   0  0  0  0  0  0  0  0  0  0  0  0
   -1.0472   -1.1586    0.0000 C   0  0  0  0  0  0  0  0  0  0  0  0
   -1.0472   -0.3336    0.0000 C   0  0  0  0  0  0  0  0  0  0  0  0
    1.0961    0.0788    0.0000 C   0  0  0  0  0  0  0  0  0  0  0  0
    1.0961    0.9038    0.0000 C   0  0  0  0  0  0  0  0  0  0  0  0
    1.0961   -0.7461    0.0000 C   0  0  0  0  0  0  0  0  0  0  0  0
   -0.3327   -0.7461    0.0000 C   0  0  0  0  0  0  0  0  0  0  0  0
   -0.3327   -1.5711    0.0000 F   0  0  0  0  0  0  0  0  0  0  0  0
   -0.3327    0.0788    0.0000 C   0  0  0  0  0  0  0  0  0  0  0  0
   -1.0472    0.4913    0.0000 O   0  0  0  0  0  0  0  0  0  0  0  0
    1.8807    1.1587    0.0000 C   0  0  0  0  0  0  0  0  0  0  0  0
    2.5952    1.5712    0.0000 O   0  0  0  0  0  0  0  0  0  0  0  0
    0.3816   -1.1586    0.0000 C   0  0  0  0  0  0  0  0  0  0  0  0
    1.1663    1.5712    0.0000 C   0  0  0  0  0  0  0  0  0  0  0  0
    1.1663    2.3962    0.0000 O   0  0  0  0  0  0  0  0  0  0  0  0
  1  2  2  0
  1 15  1  0
  2  9  1  0
  3  4  2  0
  4  5  1  0
  5  6  1  0
 26  6  1  6
  7 22  1  0
  7 17  1  0
  8 13  1  0
  9  3  1  0
  9 10  2  0
 11 17  1  0
 11 13  1  0
 11 24  1  0
 11 12  1  6
 13 14  1  6
 15  4  1  0
 15 16  1  1
 17 19  1  0
 17 18  1  1
 19  8  1  1
 20 15  1  0
 20 26  1  0
 20 21  1  6
 22 20  1  0
 22 23  1  1
 24 27  1  0
 24 25  2  0
 26 19  1  0
 27 28  1  0
M  END
>  <DRUGBANK_ID>  (1) 
DB01234

>  <SECONDARY_ACCESSION_NUMBERS>  (1) 
APRD00674

>  <COMMON_NAME>  (1) 
Dexamethasone

>  <CAS_NUMBER>  (1) 
50-02-2

>  <UNII>  (1) 
7S5I7G3JQL

>  <SYNONYMS>  (1) 
1-Dehydro-16alpha-methyl-9alpha-fluorohydrocortisone; 1-Dehydro-16α-methyl-9α-fluorohydrocortisone; 16alpha-Methyl-9alpha-fluoro-1-dehydrocortisol; 16α-Methyl-9α-fluoro-1-dehydrocortisol; 9alpha-Fluoro-16alpha-methylprednisolone; 9α-Fluoro-16α-methylprednisolone; Dexametasona; Dexaméthasone; Dexamethasone; Dexamethasonum

$$$$
