RRT
     RDKit          2D

 17 17  0  0  0  0  0  0  0  0999 V2000
    0.5113   -1.0211    0.0000 S   0  0  0  0  0  0  0  0  0  0  0  0
   -0.2032   -0.6086    0.0000 C   0  0  0  0  0  0  0  0  0  0  0  0
   -0.2032    0.2164    0.0000 C   0  0  0  0  0  0  0  0  0  0  0  0
   -0.9176    0.6289    0.0000 C   0  0  0  0  0  0  0  0  0  0  0  0
   -1.6321    0.2164    0.0000 C   0  0  0  0  0  0  0  0  0  0  0  0
   -1.6321   -0.6086    0.0000 C   0  0  0  0  0  0  0  0  0  0  0  0
   -2.3466    0.6289    0.0000 C   0  0  0  0  0  0  0  0  0  0  0  0
   -2.3466   -1.0211    0.0000 C   0  0  0  0  0  0  0  0  0  0  0  0
   -3.0611    0.2164    0.0000 C   0  0  0  0  0  0  0  0  0  0  0  0
   -3.0611   -0.6086    0.0000 C   0  0  0  0  0  0  0  0  0  0  0  0
    1.2258    0.2164    0.0000 C   0  0  0  0  0  0  0  0  0  0  0  0
    1.2258   -0.6086    0.0000 O   0  0  0  0  0  0  0  0  0  0  0  0
    0.5113    0.6289    0.0000 N   0  0  0  0  0  0  0  0  0  0  0  0
    1.9402    0.6289    0.0000 C   0  0  0  0  0  0  0  0  0  0  0  0
    2.6547    0.2164    0.0000 C   0  0  0  0  0  0  0  0  0  0  0  0
    3.3692    0.6289    0.0000 O   0  0  0  0  0  0  0  0  0  0  0  0
    2.6547   -0.6086    0.0000 O   0  0  0  0  0  0  0  0  0  0  0  0
  1  2  1  0
  3  2  1  1
  3  4  1  0
  3 13  1  0
  4  5  1  0
  5  6  2  0
  5  7  1  0
  6  8  1  0
  7  9  2  0
  8 10  2  0
  9 10  1  0
 11 12  2  0
 11 13  1  0
 11 14  1  0
 14 15  1  0
 15 16  1  0
 15 17  2  0
M  END
>  <DRUGBANK_ID>  (1) 
DB01935

>  <SECONDARY_ACCESSION_NUMBERS>  (1) 
EXPT02817

>  <COMMON_NAME>  (1) 
3-{[(1r)-1-Benzyl-2-Sulfanylethyl]Amino}-3-Oxopropanoic Acid

$$$$
