
     RDKit          2D

 29 32  0  0  0  0  0  0  0  0999 V2000
    1.2987    1.1163    0.0000 O   0  0  0  0  0  0  0  0  0  0  0  0
    2.7098    1.1692    0.0000 O   0  0  0  0  0  0  0  0  0  0  0  0
    3.6775   -0.1674    0.0000 O   0  0  0  0  0  0  0  0  0  0  0  0
   -3.6775   -2.4383    0.0000 O   0  0  0  0  0  0  0  0  0  0  0  0
    2.2567    2.1766    0.0000 O   0  0  0  0  0  0  0  0  0  0  0  0
    0.7718    0.0799    0.0000 C   0  0  0  0  0  0  0  0  0  0  0  0
    0.7718   -0.7451    0.0000 C   0  0  0  0  0  0  0  0  0  0  0  0
    0.0573   -1.1576    0.0000 C   0  0  0  0  0  0  0  0  0  0  0  0
   -0.6572   -0.7451    0.0000 C   0  0  0  0  0  0  0  0  0  0  0  0
    1.5524    0.3313    0.0000 C   0  0  0  0  0  0  0  0  0  0  0  0
    0.0573    0.4924    0.0000 C   0  0  0  0  0  0  0  0  0  0  0  0
   -1.4079   -1.1632    0.0000 C   0  0  0  0  0  0  0  0  0  0  0  0
    1.5524   -0.9965    0.0000 C   0  0  0  0  0  0  0  0  0  0  0  0
   -0.6572    0.0799    0.0000 C   0  0  0  0  0  0  0  0  0  0  0  0
    2.0338   -0.3326    0.0000 C   0  0  0  0  0  0  0  0  0  0  0  0
    0.0706   -2.0169    0.0000 C   0  0  0  0  0  0  0  0  0  0  0  0
    0.7718    0.9049    0.0000 C   0  0  0  0  0  0  0  0  0  0  0  0
   -1.4145   -2.0226    0.0000 C   0  0  0  0  0  0  0  0  0  0  0  0
   -0.6703   -2.4521    0.0000 C   0  0  0  0  0  0  0  0  0  0  0  0
   -2.1725   -0.6979    0.0000 C   0  0  0  0  0  0  0  0  0  0  0  0
   -1.4016   -0.3383    0.0000 C   0  0  0  0  0  0  0  0  0  0  0  0
    2.3730    0.4161    0.0000 C   0  0  0  0  0  0  0  0  0  0  0  0
   -2.9546   -1.1335    0.0000 C   0  0  0  0  0  0  0  0  0  0  0  0
   -2.1861   -2.4761    0.0000 C   0  0  0  0  0  0  0  0  0  0  0  0
   -2.9615   -2.0285    0.0000 C   0  0  0  0  0  0  0  0  0  0  0  0
    2.8568   -0.2522    0.0000 C   0  0  0  0  0  0  0  0  0  0  0  0
    1.4716    1.9230    0.0000 C   0  0  0  0  0  0  0  0  0  0  0  0
    0.8597    2.4761    0.0000 C   0  0  0  0  0  0  0  0  0  0  0  0
    0.0745    2.2226    0.0000 C   0  0  0  0  0  0  0  0  0  0  0  0
  1 27  1  0
  2 22  2  0
  3 26  1  0
  4 25  2  0
  5 27  2  0
  6  7  1  0
  6 10  1  0
  6 11  1  0
  6 17  1  1
  7  8  1  0
  7 13  1  1
  8  9  1  0
  8 16  1  6
  9 12  1  0
  9 14  1  1
 10  1  1  6
 10 15  1  0
 10 22  1  0
 11 14  1  0
 12 18  1  0
 12 20  1  0
 12 21  1  1
 13 15  1  0
 16 19  1  0
 18 19  1  0
 18 24  2  0
 20 23  1  0
 22 26  1  0
 23 25  1  0
 24 25  1  0
 27 28  1  0
 28 29  1  0
M  END
>  <DRUGBANK_ID>  (1) 
DB12499

>  <COMMON_NAME>  (1) 
Clascoterone

>  <CAS_NUMBER>  (1) 
19608-29-8

>  <UNII>  (1) 
XN7MM8XG2M

>  <SYNONYMS>  (1) 
11-deoxycortisol 17α-propionate; Clascoterone; Cortexolone 17alpha-propionate; Cortexolone 17α-propionate

$$$$
