
     RDKit          2D

 31 34  0  0  0  0  0  0  0  0999 V2000
   -2.0124   -2.4931    0.0000 C   0  0  0  0  0  0  0  0  0  0  0  0
   -1.2054   -2.3215    0.0000 C   0  0  0  0  0  0  0  0  0  0  0  0
   -1.0339   -3.1285    0.0000 C   0  0  0  0  0  0  0  0  0  0  0  0
   -1.3769   -1.5146    0.0000 C   0  0  0  0  0  0  0  0  0  0  0  0
   -0.3984   -2.1500    0.0000 C   0  0  0  0  0  0  0  0  0  0  0  0
   -0.1435   -1.3654    0.0000 N   0  0  0  0  0  0  0  0  0  0  0  0
    0.6411   -1.1104    0.0000 C   0  0  0  0  0  0  0  0  0  0  0  0
    0.6411   -0.2854    0.0000 C   0  0  0  0  0  0  0  0  0  0  0  0
    1.3556    0.1271    0.0000 C   0  0  0  0  0  0  0  0  0  0  0  0
    2.0701   -0.2854    0.0000 C   0  0  0  0  0  0  0  0  0  0  0  0
    2.0701   -1.1104    0.0000 C   0  0  0  0  0  0  0  0  0  0  0  0
    1.3556   -1.5229    0.0000 N   0  0  0  0  0  0  0  0  0  0  0  0
    2.7845   -1.5229    0.0000 C   0  0  0  0  0  0  0  0  0  0  0  0
    3.5382   -1.1874    0.0000 C   0  0  0  0  0  0  0  0  0  0  0  0
    4.0902   -1.8005    0.0000 N   0  0  0  0  0  0  0  0  0  0  0  0
    3.6777   -2.5150    0.0000 C   0  0  0  0  0  0  0  0  0  0  0  0
    2.8708   -2.3434    0.0000 N   0  0  0  0  0  0  0  0  0  0  0  0
    4.0133   -3.2686    0.0000 C   0  0  0  0  0  0  0  0  0  0  0  0
    4.3489   -4.0223    0.0000 C   0  0  0  0  0  0  0  0  0  0  0  0
    3.2596   -3.6042    0.0000 C   0  0  0  0  0  0  0  0  0  0  0  0
    4.7670   -2.9331    0.0000 C   0  0  0  0  0  0  0  0  0  0  0  0
    3.7097   -0.3804    0.0000 C   0  0  0  0  0  0  0  0  0  0  0  0
    3.0966    0.1716    0.0000 C   0  0  0  0  0  0  0  0  0  0  0  0
    3.2682    0.9786    0.0000 C   0  0  0  0  0  0  0  0  0  0  0  0
    4.0528    1.2335    0.0000 C   0  0  0  0  0  0  0  0  0  0  0  0
    4.6659    0.6815    0.0000 C   0  0  0  0  0  0  0  0  0  0  0  0
    4.4944   -0.1255    0.0000 C   0  0  0  0  0  0  0  0  0  0  0  0
    4.2243    2.0405    0.0000 F   0  0  0  0  0  0  0  0  0  0  0  0
   -0.1435   -0.0305    0.0000 N   0  0  0  0  0  0  0  0  0  0  0  0
   -0.6284   -0.6979    0.0000 C   0  0  0  0  0  0  0  0  0  0  0  0
   -1.4534   -0.6979    0.0000 N   0  0  0  0  0  0  0  0  0  0  0  0
  1  2  1  0
  2  3  1  0
  2  4  1  0
  2  5  1  0
  5  6  1  0
  6  7  1  0
  6 30  1  0
  7  8  2  0
  7 12  1  0
  8  9  1  0
  8 29  1  0
  9 10  2  0
 10 11  1  0
 11 12  2  0
 11 13  1  0
 13 14  2  0
 13 17  1  0
 14 15  1  0
 14 22  1  0
 15 16  1  0
 16 17  2  0
 16 18  1  0
 18 19  1  0
 18 20  1  0
 18 21  1  0
 22 23  2  0
 22 27  1  0
 23 24  1  0
 24 25  2  0
 25 26  1  0
 25 28  1  0
 26 27  2  0
 29 30  2  0
 30 31  1  0
M  END
>  <DRUGBANK_ID>  (1) 
DB11787

>  <COMMON_NAME>  (1) 
Ralimetinib

>  <CAS_NUMBER>  (1) 
862505-00-8

>  <UNII>  (1) 
73I34XW4HD

>  <SYNONYMS>  (1) 
Ralimetinib

$$$$
