
     RDKit          2D

 35 42  0  0  1  0  0  0  0  0999 V2000
    3.2355    0.4869    0.0000 C   0  0  0  0  0  0  0  0  0  0  0  0
    3.9030   -2.0497    0.0000 C   0  0  0  0  0  0  0  0  0  0  0  0
    2.5959   -0.2391    0.0000 C   0  0  0  0  0  0  0  0  0  0  0  0
    7.9685    2.6969    0.0000 C   0  0  0  0  0  0  0  0  0  0  0  0
    1.7283    2.6797    0.0000 C   0  0  0  0  0  0  0  0  0  0  0  0
    8.0433    1.8753    0.0000 C   0  0  0  0  0  0  0  0  0  0  0  0
    1.6744    1.8565    0.0000 C   0  0  0  0  0  0  0  0  0  0  0  0
    7.2196    3.0430    0.0000 C   0  0  0  0  0  0  0  0  0  0  0  0
    2.4682    3.0446    0.0000 C   0  0  0  0  0  0  0  0  0  0  0  0
    7.3692    1.3998    0.0000 C   0  0  0  0  0  0  0  0  0  0  0  0
    2.3603    1.3981    0.0000 C   0  0  0  0  0  0  0  0  0  0  0  0
    5.4575   -0.4503    0.0000 C   0  0  0  0  0  0  0  0  0  0  0  0
    4.1679    4.3035    0.0000 C   0  0  0  0  0  0  0  0  0  0  0  0
    6.5455    2.5674    0.0000 C   0  0  0  0  0  0  0  0  0  0  0  0
    3.1542    2.5863    0.0000 C   0  0  0  0  0  0  0  0  0  0  0  0
    4.4279    3.5206    0.0000 C   0  0  0  0  0  0  0  0  0  0  0  0
    4.7023   -0.8653    0.0000 C   0  0  0  0  0  0  0  0  0  0  0  0
    6.6203    1.7458    0.0000 C   0  0  0  0  0  0  0  0  0  0  0  0
    3.1002    1.7630    0.0000 C   0  0  0  0  0  0  0  0  0  0  0  0
    5.5537    0.4714    0.0000 C   0  0  0  0  0  0  0  0  0  0  0  0
    3.9801    2.8112    0.0000 C   0  0  0  0  0  0  0  0  0  0  0  0
    5.7175    2.7901    0.0000 C   0  0  0  0  0  0  0  0  0  0  0  0
    5.2529    3.5259    0.0000 C   0  0  0  0  0  0  0  0  0  0  0  0
    5.2782    2.0767    0.0000 C   0  0  0  0  0  0  0  0  0  0  0  0
    4.4333    2.1138    0.0000 C   0  0  0  0  0  0  0  0  0  0  0  0
    4.0202   -0.3547    0.0000 C   0  0  0  0  0  0  0  0  0  0  0  0
    5.5027    4.3121    0.0000 C   0  0  0  0  0  0  0  0  0  0  0  0
    4.0587    0.5409    0.0000 C   0  0  0  0  0  0  0  0  0  0  0  0
    4.6446   -1.6882    0.0000 N   0  0  0  0  0  0  0  0  0  0  0  0
    4.8322    4.7927    0.0000 N   0  0  0  0  0  0  0  0  0  0  0  0
    5.8024    1.3750    0.0000 N   0  0  0  0  0  0  0  0  0  0  0  0
    3.9010    1.4376    0.0000 N   0  0  0  0  0  0  0  0  0  0  0  0
    6.2857    4.5721    0.0000 O   0  0  0  0  0  0  0  0  0  0  0  0
    3.2747   -0.7080    0.0000 O   0  0  0  0  0  0  0  0  0  0  0  0
    4.8024    0.5575    0.0000 O   0  0  0  0  0  0  0  0  0  0  0  0
  6  4  2  0
  7  5  2  0
  8  4  1  0
  9  5  1  0
 10  6  1  0
 11  7  1  0
 14  8  2  0
 15  9  2  0
 16 13  1  0
 17 12  1  0
 17 29  1  1
 18 10  2  0
 18 14  1  0
 19 11  2  0
 19 15  1  0
 20 12  1  1
 21 15  1  0
 21 16  2  0
 22 14  1  0
 23 16  1  0
 23 22  2  0
 24 22  1  0
 25 21  1  0
 25 24  2  0
 26 17  1  0
 26 34  1  1
 27 23  1  0
 28  1  1  6
 28 26  1  0
 29  2  1  0
 30 13  1  0
 30 27  1  0
 31 18  1  0
 31 20  1  0
 31 24  1  0
 32 19  1  0
 32 25  1  0
 32 28  1  0
 33 27  2  0
 34  3  1  0
 35 20  1  0
 35 28  1  0
M  END
>  <DRUGBANK_ID>  (1) 
DB02010

>  <SECONDARY_ACCESSION_NUMBERS>  (1) 
EXPT02970; EXPT02972

>  <COMMON_NAME>  (1) 
Staurosporine

>  <CAS_NUMBER>  (1) 
62996-74-1

>  <UNII>  (1) 
H88EPA0A3N

$$$$
