CK5
     RDKit          2D

 21 23  0  0  0  0  0  0  0  0999 V2000
    0.5103    3.2996    0.0000 O   0  0  0  0  0  0  0  0  0  0  0  0
   -0.2042    2.8871    0.0000 C   0  0  0  0  0  0  0  0  0  0  0  0
   -0.2042    2.0621    0.0000 C   0  0  0  0  0  0  0  0  0  0  0  0
   -0.9187    1.6496    0.0000 C   0  0  0  0  0  0  0  0  0  0  0  0
   -1.6332    2.0621    0.0000 C   0  0  0  0  0  0  0  0  0  0  0  0
   -1.6332    2.8871    0.0000 C   0  0  0  0  0  0  0  0  0  0  0  0
   -0.9187    3.2996    0.0000 C   0  0  0  0  0  0  0  0  0  0  0  0
   -0.9187    0.8246    0.0000 N   0  0  0  0  0  0  0  0  0  0  0  0
   -0.2042    0.4121    0.0000 C   0  0  0  0  0  0  0  0  0  0  0  0
    0.5103    0.8246    0.0000 N   0  0  0  0  0  0  0  0  0  0  0  0
    1.2247    0.4121    0.0000 C   0  0  0  0  0  0  0  0  0  0  0  0
   -0.2042   -0.4129    0.0000 N   0  0  0  0  0  0  0  0  0  0  0  0
    0.5103   -0.8254    0.0000 C   0  0  0  0  0  0  0  0  0  0  0  0
    1.2247   -0.4129    0.0000 C   0  0  0  0  0  0  0  0  0  0  0  0
    0.5103   -1.6504    0.0000 C   0  0  0  0  0  0  0  0  0  0  0  0
    1.1777   -2.1354    0.0000 C   0  0  0  0  0  0  0  0  0  0  0  0
    1.9623   -1.8804    0.0000 C   0  0  0  0  0  0  0  0  0  0  0  0
   -0.1572   -2.1354    0.0000 S   0  0  0  0  0  0  0  0  0  0  0  0
    0.0978   -2.9200    0.0000 C   0  0  0  0  0  0  0  0  0  0  0  0
    0.9228   -2.9200    0.0000 N   0  0  0  0  0  0  0  0  0  0  0  0
   -0.3872   -3.5874    0.0000 C   0  0  0  0  0  0  0  0  0  0  0  0
  1  2  1  0
  2  3  2  0
  2  7  1  0
  3  4  1  0
  4  5  2  0
  4  8  1  0
  5  6  1  0
  6  7  2  0
  8  9  1  0
  9 10  2  0
  9 12  1  0
 10 11  1  0
 11 14  2  0
 12 13  2  0
 13 14  1  0
 13 15  1  0
 15 16  2  0
 15 18  1  0
 16 17  1  0
 16 20  1  0
 18 19  1  0
 19 20  2  0
 19 21  1  0
M  END
>  <DRUGBANK_ID>  (1) 
DB04518

>  <SECONDARY_ACCESSION_NUMBERS>  (1) 
EXPT00928

>  <COMMON_NAME>  (1) 
3-[4-(2,4-Dimethyl-Thiazol-5-Yl)-Pyrimidin-2-Ylamino]-Phenol

$$$$
