BI9
     RDKit          2D

 33 36  0  0  0  0  0  0  0  0999 V2000
    8.3053   -1.1675    0.0000 C   0  0  0  0  0  0  0  0  0  0  0  0
    9.0197   -1.5800    0.0000 C   0  0  0  0  0  0  0  0  0  0  0  0
    9.0197   -2.4050    0.0000 O   0  0  0  0  0  0  0  0  0  0  0  0
    8.3053   -2.8175    0.0000 C   0  0  0  0  0  0  0  0  0  0  0  0
    7.5908   -2.4050    0.0000 C   0  0  0  0  0  0  0  0  0  0  0  0
    7.5908   -1.5800    0.0000 N   0  0  0  0  0  0  0  0  0  0  0  0
    6.8763   -1.1675    0.0000 C   0  0  0  0  0  0  0  0  0  0  0  0
    6.1619   -1.5800    0.0000 C   0  0  0  0  0  0  0  0  0  0  0  0
    5.4474   -1.1675    0.0000 C   0  0  0  0  0  0  0  0  0  0  0  0
    4.7329   -1.5800    0.0000 O   0  0  0  0  0  0  0  0  0  0  0  0
    4.0184   -1.1675    0.0000 C   0  0  0  0  0  0  0  0  0  0  0  0
    6.8763   -0.3425    0.0000 C   0  0  0  0  0  0  0  0  0  0  0  0
    6.1619    0.0700    0.0000 C   0  0  0  0  0  0  0  0  0  0  0  0
    5.4474   -0.3425    0.0000 C   0  0  0  0  0  0  0  0  0  0  0  0
    4.7329    0.0700    0.0000 N   0  0  0  0  0  0  0  0  0  0  0  0
    4.7329    0.8950    0.0000 C   0  0  0  0  0  0  0  0  0  0  0  0
    4.0184    1.3075    0.0000 N   0  0  0  0  0  0  0  0  0  0  0  0
    5.4474    1.3075    0.0000 N   0  0  0  0  0  0  0  0  0  0  0  0
    5.4474    2.1325    0.0000 C   0  0  0  0  0  0  0  0  0  0  0  0
    4.7329    2.5450    0.0000 C   0  0  0  0  0  0  0  0  0  0  0  0
    4.7329    3.3700    0.0000 Cl  0  0  0  0  0  0  0  0  0  0  0  0
    4.0184    2.1325    0.0000 C   0  0  0  0  0  0  0  0  0  0  0  0
    3.3040    2.5450    0.0000 N   0  0  0  0  0  0  0  0  0  0  0  0
    2.5895    2.1325    0.0000 C   0  0  0  0  0  0  0  0  0  0  0  0
    2.5895    1.3075    0.0000 C   0  0  0  0  0  0  0  0  0  0  0  0
    1.8750    0.8950    0.0000 C   0  0  0  0  0  0  0  0  0  0  0  0
    1.1606    1.3075    0.0000 C   0  0  0  0  0  0  0  0  0  0  0  0
    1.1606    2.1325    0.0000 C   0  0  0  0  0  0  0  0  0  0  0  0
    1.8750    2.5450    0.0000 C   0  0  0  0  0  0  0  0  0  0  0  0
    1.8750    3.3700    0.0000 C   0  0  0  0  0  0  0  0  0  0  0  0
    1.1606    3.7825    0.0000 O   0  0  0  0  0  0  0  0  0  0  0  0
    2.5895    3.7825    0.0000 N   0  0  0  0  0  0  0  0  0  0  0  0
    2.5895    4.6075    0.0000 C   0  0  0  0  0  0  0  0  0  0  0  0
  1  2  1  0
  1  6  1  0
  2  3  1  0
  3  4  1  0
  4  5  1  0
  5  6  1  0
  6  7  1  0
  7  8  2  0
  7 12  1  0
  8  9  1  0
  9 10  1  0
  9 14  2  0
 10 11  1  0
 12 13  2  0
 13 14  1  0
 14 15  1  0
 15 16  1  0
 16 17  2  0
 16 18  1  0
 17 22  1  0
 18 19  2  0
 19 20  1  0
 20 21  1  0
 20 22  2  0
 22 23  1  0
 23 24  1  0
 24 25  2  0
 24 29  1  0
 25 26  1  0
 26 27  2  0
 27 28  1  0
 28 29  2  0
 29 30  1  0
 30 31  2  0
 30 32  1  0
 32 33  1  0
M  END
>  <DRUGBANK_ID>  (1) 
DB07460

>  <COMMON_NAME>  (1) 
2-({5-CHLORO-2-[(2-METHOXY-4-MORPHOLIN-4-YLPHENYL)AMINO]PYRIMIDIN-4-YL}AMINO)-N-METHYLBENZAMIDE

$$$$
