
     RDKit          2D

 29 30  0  0  0  0  0  0  0  0999 V2000
   -1.4289    0.2062    0.0000 O   0  0  0  0  0  0  0  0  0  0  0  0
   -2.8579    1.0312    0.0000 O   0  0  0  0  0  0  0  0  0  0  0  0
   -3.5724   -0.2062    0.0000 O   0  0  0  0  0  0  0  0  0  0  0  0
   -0.7145   -1.0312    0.0000 N   0  0  0  0  0  0  0  0  0  0  0  0
   -1.4289   -1.4437    0.0000 C   0  0  0  0  0  0  0  0  0  0  0  0
   -1.4289   -2.2687    0.0000 C   0  0  0  0  0  0  0  0  0  0  0  0
   -2.1434   -1.0312    0.0000 C   0  0  0  0  0  0  0  0  0  0  0  0
   -2.1434   -2.6813    0.0000 C   0  0  0  0  0  0  0  0  0  0  0  0
    0.7145    1.4437    0.0000 C   0  0  0  0  0  0  0  0  0  0  0  0
    0.0000    1.0312    0.0000 C   0  0  0  0  0  0  0  0  0  0  0  0
    0.0000    0.2062    0.0000 C   0  0  0  0  0  0  0  0  0  0  0  0
    0.7145    2.2687    0.0000 C   0  0  0  0  0  0  0  0  0  0  0  0
   -2.1434   -0.2062    0.0000 C   0  0  0  0  0  0  0  0  0  0  0  0
   -0.7145   -0.2062    0.0000 C   0  0  0  0  0  0  0  0  0  0  0  0
    1.4289    2.6813    0.0000 C   0  0  0  0  0  0  0  0  0  0  0  0
   -2.1434   -3.5063    0.0000 C   0  0  0  0  0  0  0  0  0  0  0  0
    1.4289    3.5063    0.0000 C   0  0  0  0  0  0  0  0  0  0  0  0
    2.1434    3.9188    0.0000 C   0  0  0  0  0  0  0  0  0  0  0  0
   -2.8579    0.2062    0.0000 C   0  0  0  0  0  0  0  0  0  0  0  0
   -1.4289   -3.9188    0.0000 C   0  0  0  0  0  0  0  0  0  0  0  0
   -2.8579   -3.9188    0.0000 C   0  0  0  0  0  0  0  0  0  0  0  0
    2.1434    4.7438    0.0000 C   0  0  0  0  0  0  0  0  0  0  0  0
    2.8579    3.5063    0.0000 C   0  0  0  0  0  0  0  0  0  0  0  0
   -1.4289   -4.7438    0.0000 C   0  0  0  0  0  0  0  0  0  0  0  0
   -2.8579   -4.7438    0.0000 C   0  0  0  0  0  0  0  0  0  0  0  0
   -2.1434   -5.1563    0.0000 C   0  0  0  0  0  0  0  0  0  0  0  0
    2.8579    5.1563    0.0000 C   0  0  0  0  0  0  0  0  0  0  0  0
    3.5724    3.9188    0.0000 C   0  0  0  0  0  0  0  0  0  0  0  0
    3.5724    4.7438    0.0000 C   0  0  0  0  0  0  0  0  0  0  0  0
  1 14  2  0
  2 19  1  0
  3 19  2  0
  4 14  1  0
  5  4  1  0
  5  6  1  6
  5  7  1  0
  6  8  1  0
  7 13  1  0
  8 16  1  0
  9 10  1  0
  9 12  1  0
 10 11  1  0
 11 14  1  0
 12 15  1  0
 13 19  1  0
 15 17  1  0
 16 20  2  0
 16 21  1  0
 17 18  1  0
 18 22  2  0
 18 23  1  0
 20 24  1  0
 21 25  2  0
 22 27  1  0
 23 28  2  0
 24 26  2  0
 25 26  1  0
 27 29  2  0
 28 29  1  0
M  END
>  <DRUGBANK_ID>  (1) 
DB03471

>  <SECONDARY_ACCESSION_NUMBERS>  (1) 
EXPT00747

>  <COMMON_NAME>  (1) 
6-phenyl-4(R)-(7-phenyl-heptanoylamino)-hexanoic acid

$$$$
