
     RDKit          2D

 24 26  0  0  1  0  0  0  0  0999 V2000
   13.4713  -10.2244    0.0000 N   0  0  0  0  0  0  0  0  0  0  0  0
   12.7510   -9.8058    0.0000 C   0  0  0  0  0  0  0  0  0  0  0  0
   12.7398  -11.3031    0.0000 C   0  0  0  0  0  0  0  0  0  0  0  0
   14.1880   -9.8058    0.0000 C   0  0  0  0  0  0  0  0  0  0  0  0
   12.7510   -8.9798    0.0000 C   0  0  0  0  0  0  0  0  0  0  0  0
   12.0344  -10.2281    0.0000 C   0  0  0  0  0  0  0  0  0  0  0  0
   12.0685  -10.8240    0.0000 O   0  0  0  0  0  0  0  0  0  0  0  0
   12.4833  -12.0875    0.0000 C   0  0  0  0  0  0  0  0  0  0  0  0
   14.1880   -8.9798    0.0000 N   0  0  0  0  0  0  0  0  0  0  0  0
   12.0344   -8.5687    0.0000 C   0  0  0  0  0  0  0  0  0  0  0  0
   11.3215   -9.8058    0.0000 C   0  0  0  0  0  0  0  0  0  0  0  0
   11.4122  -11.3031    0.0000 C   0  0  0  0  0  0  0  0  0  0  0  0
   11.6611  -12.0875    0.0000 C   0  0  0  0  0  0  0  0  0  0  0  0
   12.9660  -12.7476    0.0000 O   0  0  0  0  0  0  0  0  0  0  0  0
   11.3215   -8.9798    0.0000 C   0  0  0  0  0  0  0  0  0  0  0  0
   10.6955  -10.2131    0.0000 C   0  0  0  0  0  0  0  0  0  0  0  0
   10.6314  -11.0428    0.0000 C   0  0  0  0  0  0  0  0  0  0  0  0
   11.1744  -12.7476    0.0000 O   0  0  0  0  0  0  0  0  0  0  0  0
   10.6558   -8.5687    0.0000 C   0  0  0  0  0  0  0  0  0  0  0  0
    9.8733  -11.5840    0.0000 O   0  0  0  0  0  0  0  0  0  0  0  0
    9.0473  -11.5764    0.0000 P   0  0  0  0  0  0  0  0  0  0  0  0
    8.2289  -11.5764    0.0000 O   0  0  0  0  0  0  0  0  0  0  0  0
    9.0510  -10.7580    0.0000 O   0  0  0  0  0  0  0  0  0  0  0  0
    9.0435  -12.3986    0.0000 O   0  0  0  0  0  0  0  0  0  0  0  0
  1  2  1  0
  1  4  1  0
  2  5  2  0
  2  6  1  0
  3  1  1  6
  3  7  1  0
  3  8  1  0
  4  9  2  0
  5 10  1  0
  5  9  1  0
  6 11  2  0
  7 12  1  0
  8 13  1  0
  8 14  1  6
 10 15  2  0
 11 16  1  0
 11 15  1  0
 12 17  1  1
 12 13  1  0
 13 18  1  6
 15 19  1  0
 17 20  1  0
 20 21  1  0
 21 22  1  0
 21 23  1  0
 21 24  2  0
M  END
>  <DRUGBANK_ID>  (1) 
DB02030

>  <SECONDARY_ACCESSION_NUMBERS>  (1) 
EXPT02761

>  <COMMON_NAME>  (1) 
Alpha-Ribazole-5'-Phosphate

>  <UNII>  (1) 
TT4G266KJN

$$$$
