
     RDKit          2D

 14 14  0  0  0  0  0  0  0  0999 V2000
   -0.5516    0.4242    0.0000 C   0  0  0  0  0  0  0  0  0  0  0  0
   -0.8065   -0.3603    0.0000 C   0  0  0  0  0  0  0  0  0  0  0  0
   -0.1391   -0.8453    0.0000 N   0  0  0  0  0  0  0  0  0  0  0  0
    0.5282   -0.3603    0.0000 C   0  0  0  0  0  0  0  0  0  0  0  0
    0.2733    0.4241    0.0000 N   0  0  0  0  0  0  0  0  0  0  0  0
   -0.1391   -1.6703    0.0000 C   0  0  0  0  0  0  0  0  0  0  0  0
   -0.8536   -2.0827    0.0000 C   0  0  0  0  0  0  0  0  0  0  0  0
   -1.5681   -1.6702    0.0000 O   0  0  0  0  0  0  0  0  0  0  0  0
   -0.8536   -2.9077    0.0000 O   0  0  0  0  0  0  0  0  0  0  0  0
    1.3798   -0.7938    0.0000 C   0  0  0  0  0  0  0  0  0  0  0  0
    2.1094   -0.2838    0.0000 N   0  0  0  0  0  0  0  0  0  0  0  0
    1.1413    0.1916    0.0000 O   0  0  0  0  0  0  0  0  0  0  0  0
   -1.1037    1.0373    0.0000 O   0  0  0  0  0  0  0  0  0  0  0  0
   -1.5911   -0.6153    0.0000 O   0  0  0  0  0  0  0  0  0  0  0  0
  1  2  1  0
  1  5  1  0
  1 13  2  0
  2  3  2  0
  2 14  1  0
  3  4  1  0
  3  6  1  0
  4  5  1  0
  4 10  1  0
  4 12  1  1
  6  7  1  0
  7  8  1  0
  7  9  2  0
 10 11  1  0
M  CHG  1   3   1
M  END
>  <DRUGBANK_ID>  (1) 
DB01797

>  <SECONDARY_ACCESSION_NUMBERS>  (1) 
EXPT01014

>  <COMMON_NAME>  (1) 
(2R)-2-(aminomethyl)-2,4-dihydroxy-5-oxo-3-(2-oxoethyl)-2,5-dihydro-1H-imidazol-3-ium

$$$$
