BIG
     RDKit          2D

 23 25  0  0  0  0  0  0  0  0999 V2000
   -4.7954   -0.1154    0.0000 C   0  0  0  0  0  0  0  0  0  0  0  0
   -3.4606   -1.0852    0.0000 C   0  0  0  0  0  0  0  0  0  0  0  0
   -3.3743   -0.2647    0.0000 C   0  0  0  0  0  0  0  0  0  0  0  0
   -2.1548   -0.8077    0.0000 C   0  0  0  0  0  0  0  0  0  0  0  0
    0.4213    1.8417    0.0000 O   0  0  0  0  0  0  0  0  0  0  0  0
   -0.1918    1.2897    0.0000 C   0  0  0  0  0  0  0  0  0  0  0  0
   -0.1056    0.4692    0.0000 C   0  0  0  0  0  0  0  0  0  0  0  0
    0.6089    0.0567    0.0000 C   0  0  0  0  0  0  0  0  0  0  0  0
    1.3233    0.4692    0.0000 S   0  0  0  0  0  0  0  0  0  0  0  0
    2.0378    0.0567    0.0000 C   0  0  0  0  0  0  0  0  0  0  0  0
    2.7523    0.4692    0.0000 C   0  0  0  0  0  0  0  0  0  0  0  0
    3.4668    0.0567    0.0000 C   0  0  0  0  0  0  0  0  0  0  0  0
    4.1812    0.4692    0.0000 C   0  0  0  0  0  0  0  0  0  0  0  0
   -0.8593    0.1336    0.0000 C   0  0  0  0  0  0  0  0  0  0  0  0
   -1.4113    0.7467    0.0000 N   0  0  0  0  0  0  0  0  0  0  0  0
   -0.9988    1.4612    0.0000 C   0  0  0  0  0  0  0  0  0  0  0  0
   -2.2318    0.6605    0.0000 C   0  0  0  0  0  0  0  0  0  0  0  0
   -2.7069   -1.4208    0.0000 N   0  0  0  0  0  0  0  0  0  0  0  0
   -4.2142   -1.4208    0.0000 C   0  0  0  0  0  0  0  0  0  0  0  0
   -4.3005   -2.2412    0.0000 N   0  0  0  0  0  0  0  0  0  0  0  0
   -4.0418    0.2202    0.0000 N   0  0  0  0  0  0  0  0  0  0  0  0
   -2.5673   -0.0932    0.0000 C   0  0  0  0  0  0  0  0  0  0  0  0
   -4.8817   -0.9358    0.0000 N   0  0  0  0  0  0  0  0  0  0  0  0
  1 21  2  0
  1 23  1  0
  2  3  2  0
  2 18  1  0
  2 19  1  0
  3 21  1  0
  3 22  1  0
  4 18  1  0
  4 22  2  0
  6  5  1  6
  6  7  1  0
  6 16  1  0
  7  8  1  1
  7 14  1  0
  8  9  1  0
  9 10  1  0
 10 11  1  0
 11 12  1  0
 12 13  1  0
 14 15  1  0
 15 16  1  0
 15 17  1  0
 17 22  1  0
 19 20  1  0
 19 23  2  0
M  END
>  <DRUGBANK_ID>  (1) 
DB07463

>  <COMMON_NAME>  (1) 
(3R,4S)-1-[(4-amino-5H-pyrrolo[3,2-d]pyrimidin-7-yl)methyl]-4-[(butylsulfanyl)methyl]pyrrolidin-3-ol

$$$$
