
     RDKit          2D

 36 38  0  0  1  0  0  0  0  0999 V2000
   -3.4105   -4.0954    0.0000 C   0  0  0  0  0  0  0  0  0  0  0  0
   -2.6961   -4.5079    0.0000 C   0  0  0  0  0  0  0  0  0  0  0  0
   -1.9816   -4.0954    0.0000 C   0  0  0  0  0  0  0  0  0  0  0  0
   -1.2671   -4.5079    0.0000 C   0  0  0  0  0  0  0  0  0  0  0  0
   -1.2671   -5.3329    0.0000 C   0  0  0  0  0  0  0  0  0  0  0  0
   -0.5526   -4.0954    0.0000 O   0  0  0  0  0  0  0  0  0  0  0  0
    0.1618   -4.5079    0.0000 C   0  0  0  0  0  0  0  0  0  0  0  0
    0.1618   -5.3329    0.0000 O   0  0  0  0  0  0  0  0  0  0  0  0
    0.8763   -4.0954    0.0000 C   0  0  0  0  0  0  0  0  0  0  0  0
    0.8763   -3.2704    0.0000 C   0  0  0  0  0  0  0  0  0  0  0  0
    1.5908   -4.5079    0.0000 N   0  0  0  0  0  0  0  0  0  0  0  0
    2.3052   -4.0954    0.0000 P   0  0  0  0  0  0  0  0  0  0  0  0
    2.7177   -4.8099    0.0000 O   0  0  0  0  0  0  0  0  0  0  0  0
    3.0197   -3.6829    0.0000 O   0  0  0  0  0  0  0  0  0  0  0  0
    3.7342   -4.0954    0.0000 C   0  0  0  0  0  0  0  0  0  0  0  0
    4.4487   -3.6829    0.0000 C   0  0  0  0  0  0  0  0  0  0  0  0
    4.5349   -2.8624    0.0000 O   0  0  0  0  0  0  0  0  0  0  0  0
    5.3419   -2.6909    0.0000 C   0  0  0  0  0  0  0  0  0  0  0  0
    5.7544   -3.4053    0.0000 C   0  0  0  0  0  0  0  0  0  0  0  0
    5.2023   -4.0184    0.0000 O   0  0  0  0  0  0  0  0  0  0  0  0
    6.5748   -3.4916    0.0000 N   0  0  0  0  0  0  0  0  0  0  0  0
    7.0598   -2.8241    0.0000 C   0  0  0  0  0  0  0  0  0  0  0  0
    7.8802   -2.9104    0.0000 C   0  0  0  0  0  0  0  0  0  0  0  0
    8.2158   -3.6641    0.0000 C   0  0  0  0  0  0  0  0  0  0  0  0
    9.0363   -3.7503    0.0000 N   0  0  0  0  0  0  0  0  0  0  0  0
    7.7309   -4.3315    0.0000 N   0  0  0  0  0  0  0  0  0  0  0  0
    6.9104   -4.2453    0.0000 C   0  0  0  0  0  0  0  0  0  0  0  0
    6.4255   -4.9127    0.0000 O   0  0  0  0  0  0  0  0  0  0  0  0
    1.8927   -3.3809    0.0000 O   0  0  0  0  0  0  0  0  0  0  0  0
    2.3052   -2.6664    0.0000 C   0  0  0  0  0  0  0  0  0  0  0  0
    1.8927   -1.9520    0.0000 C   0  0  0  0  0  0  0  0  0  0  0  0
    2.3052   -1.2375    0.0000 C   0  0  0  0  0  0  0  0  0  0  0  0
    3.1302   -1.2375    0.0000 C   0  0  0  0  0  0  0  0  0  0  0  0
    3.5427   -0.5230    0.0000 Br  0  0  0  0  0  0  0  0  0  0  0  0
    3.5427   -1.9520    0.0000 C   0  0  0  0  0  0  0  0  0  0  0  0
    3.1302   -2.6664    0.0000 C   0  0  0  0  0  0  0  0  0  0  0  0
  1  2  1  0
  2  3  1  0
  4  3  1  0
  4  5  1  1
  4  6  1  0
  6  7  1  0
  7  8  2  0
  9  7  1  0
  9 10  1  6
  9 11  1  0
 12 11  1  0
 12 13  2  0
 12 14  1  0
 12 29  1  0
 14 15  1  0
 16 15  1  1
 16 17  1  0
 16 20  1  0
 17 18  1  0
 19 18  1  0
 19 20  1  0
 19 21  1  1
 21 22  1  0
 21 27  1  0
 22 23  2  0
 23 24  1  0
 24 25  1  0
 24 26  2  0
 26 27  1  0
 27 28  2  0
 29 30  1  0
 30 31  2  0
 30 36  1  0
 31 32  1  0
 32 33  2  0
 33 34  1  0
 33 35  1  0
 35 36  2  0
M  END
>  <DRUGBANK_ID>  (1) 
DB18090

>  <COMMON_NAME>  (1) 
Fostroxacitabine bralpamide

>  <CAS_NUMBER>  (1) 
2129993-56-0

>  <UNII>  (1) 
Q1I6YZ0NGF

>  <SYNONYMS>  (1) 
Troxacitabine nucleotide prodrug miv-818

$$$$
