
     RDKit          2D

 18 17  0  0  0  0  0  0  0  0999 V2000
    0.3572   -2.0625    0.0000 S   0  0  0  0  0  0  0  0  0  0  0  0
   -0.3572   -0.8250    0.0000 O   0  0  0  0  0  0  0  0  0  0  0  0
    3.2151   -2.8875    0.0000 O   0  0  0  0  0  0  0  0  0  0  0  0
    2.5006   -1.6499    0.0000 N   0  0  0  0  0  0  0  0  0  0  0  0
   -3.2151    0.8250    0.0000 C   0  0  0  0  0  0  0  0  0  0  0  0
   -2.5006    0.4124    0.0000 C   0  0  0  0  0  0  0  0  0  0  0  0
   -3.2151    1.6499    0.0000 C   0  0  0  0  0  0  0  0  0  0  0  0
   -2.5006   -0.4124    0.0000 C   0  0  0  0  0  0  0  0  0  0  0  0
   -3.9296    2.0625    0.0000 C   0  0  0  0  0  0  0  0  0  0  0  0
   -1.7861   -0.8250    0.0000 C   0  0  0  0  0  0  0  0  0  0  0  0
   -3.9296    2.8875    0.0000 C   0  0  0  0  0  0  0  0  0  0  0  0
   -1.7861   -1.6499    0.0000 C   0  0  0  0  0  0  0  0  0  0  0  0
   -1.0717   -2.0625    0.0000 C   0  0  0  0  0  0  0  0  0  0  0  0
   -0.3572   -1.6499    0.0000 C   0  0  0  0  0  0  0  0  0  0  0  0
    1.0717   -1.6499    0.0000 C   0  0  0  0  0  0  0  0  0  0  0  0
    1.7861   -2.0625    0.0000 C   0  0  0  0  0  0  0  0  0  0  0  0
    3.2151   -2.0625    0.0000 C   0  0  0  0  0  0  0  0  0  0  0  0
    3.9296   -1.6499    0.0000 C   0  0  0  0  0  0  0  0  0  0  0  0
  1 14  1  0
  1 15  1  0
  2 14  2  0
  3 17  2  0
  4 16  1  0
  4 17  1  0
  5  6  1  0
  5  7  1  0
  6  8  1  0
  7  9  1  0
  8 10  1  0
  9 11  1  0
 10 12  1  0
 12 13  2  0
 13 14  1  0
 15 16  1  0
 17 18  1  0
M  END
>  <DRUGBANK_ID>  (1) 
DB03813

>  <SECONDARY_ACCESSION_NUMBERS>  (1) 
EXPT01103

>  <COMMON_NAME>  (1) 
2-Decenoyl N-acetyl cysteamine

$$$$
