
     RDKit          2D

  4  3  0  0  0  0  0  0  0  0999 V2000
    1.2375   -0.7145    0.0000 C   0  0  0  0  0  0  0  0  0  0  0  0
    0.8250    0.0000    0.0000 N   0  0  0  0  0  0  0  0  0  0  0  0
    0.0000    0.0000    0.0000 C   0  0  0  0  0  0  0  0  0  0  0  0
   -0.8250    0.0000    0.0000 O   0  0  0  0  0  0  0  0  0  0  0  0
  1  2  1  0
  2  3  2  0
  3  4  2  0
M  END
>  <DRUGBANK_ID>  (1) 
DB12765

>  <COMMON_NAME>  (1) 
Methyl isocyanate

>  <CAS_NUMBER>  (1) 
624-83-9

>  <UNII>  (1) 
C588JJ4BV9

>  <SYNONYMS>  (1) 
MIC

$$$$
