3FP
     RDKit          2D

 33 35  0  0  0  0  0  0  0  0999 V2000
   -1.5881    1.4145    0.0000 C   0  0  0  0  0  0  0  0  0  0  0  0
   -3.0170    0.5895    0.0000 N   0  0  0  0  0  0  0  0  0  0  0  0
   -1.5881    0.5895    0.0000 C   0  0  0  0  0  0  0  0  0  0  0  0
   -0.8736    4.3020    0.0000 C   0  0  0  0  0  0  0  0  0  0  0  0
   -0.1591    3.8895    0.0000 C   0  0  0  0  0  0  0  0  0  0  0  0
   -0.1591    3.0645    0.0000 C   0  0  0  0  0  0  0  0  0  0  0  0
   -0.8736    2.6520    0.0000 C   0  0  0  0  0  0  0  0  0  0  0  0
   -2.3026    0.1770    0.0000 C   0  0  0  0  0  0  0  0  0  0  0  0
   -1.5881   -1.8855    0.0000 C   0  0  0  0  0  0  0  0  0  0  0  0
   -1.5881   -1.0605    0.0000 C   0  0  0  0  0  0  0  0  0  0  0  0
   -1.5881    3.0645    0.0000 C   0  0  0  0  0  0  0  0  0  0  0  0
   -1.5881    3.8895    0.0000 C   0  0  0  0  0  0  0  0  0  0  0  0
   -0.8736   -2.2980    0.0000 C   0  0  0  0  0  0  0  0  0  0  0  0
    1.2698   -1.8855    0.0000 C   0  0  0  0  0  0  0  0  0  0  0  0
   -0.1591   -1.0605    0.0000 C   0  0  0  0  0  0  0  0  0  0  0  0
   -0.1591   -1.8855    0.0000 C   0  0  0  0  0  0  0  0  0  0  0  0
   -0.8736   -0.6480    0.0000 C   0  0  0  0  0  0  0  0  0  0  0  0
   -3.0170    1.4145    0.0000 C   0  0  0  0  0  0  0  0  0  0  0  0
   -2.3026    1.8270    0.0000 N   0  0  0  0  0  0  0  0  0  0  0  0
   -0.8736    1.8270    0.0000 N   0  0  0  0  0  0  0  0  0  0  0  0
    0.5553    2.6520    0.0000 F   0  0  0  0  0  0  0  0  0  0  0  0
   -2.3026   -0.6480    0.0000 N   0  0  0  0  0  0  0  0  0  0  0  0
    0.5553   -2.2980    0.0000 O   0  0  0  0  0  0  0  0  0  0  0  0
   -2.3026    4.3020    0.0000 C   0  0  0  0  0  0  0  0  0  0  0  0
   -3.0170    4.7145    0.0000 F   0  0  0  0  0  0  0  0  0  0  0  0
   -2.7151    3.5875    0.0000 F   0  0  0  0  0  0  0  0  0  0  0  0
   -1.8901    5.0164    0.0000 F   0  0  0  0  0  0  0  0  0  0  0  0
    1.9843   -2.2980    0.0000 C   0  0  0  0  0  0  0  0  0  0  0  0
    2.6987   -1.8855    0.0000 C   0  0  0  0  0  0  0  0  0  0  0  0
    4.1277   -1.8855    0.0000 C   0  0  0  0  0  0  0  0  0  0  0  0
    3.4132   -3.1230    0.0000 C   0  0  0  0  0  0  0  0  0  0  0  0
    3.4132   -2.2980    0.0000 N   0  0  0  0  0  0  0  0  0  0  0  0
    1.9843   -3.1230    0.0000 O   0  0  0  0  0  0  0  0  0  0  0  0
  1  3  2  0
  1 19  1  0
  1 20  1  0
  2  8  2  0
  2 18  1  0
  3  8  1  0
  4  5  2  0
  4 12  1  0
  5  6  1  0
  6  7  2  0
  6 21  1  0
  7 11  1  0
  7 20  1  0
  8 22  1  0
  9 10  2  0
  9 13  1  0
 10 17  1  0
 10 22  1  0
 11 12  2  0
 12 24  1  0
 13 16  2  0
 14 23  1  0
 14 28  1  0
 15 16  1  0
 15 17  2  0
 16 23  1  0
 18 19  2  0
 24 25  1  0
 24 26  1  0
 24 27  1  0
 28 29  1  0
 28 33  1  1
 29 32  1  0
 30 32  1  0
 31 32  1  0
M  END
>  <DRUGBANK_ID>  (1) 
DB07054

>  <COMMON_NAME>  (1) 
(2R)-1-(DIMETHYLAMINO)-3-{4-[(6-{[2-FLUORO-5-(TRIFLUOROMETHYL)PHENYL]AMINO}PYRIMIDIN-4-YL)AMINO]PHENOXY}PROPAN-2-OL

$$$$
