
     RDKit          2D

 24 27  0  0  0  0  0  0  0  0999 V2000
    2.9986   -0.2111    0.0000 C   0  0  0  0  0  0  0  0  0  0  0  0
    1.4995   -1.1938    0.0000 C   0  0  0  0  0  0  0  0  0  0  0  0
    2.9986    1.1237    0.0000 C   0  0  0  0  0  0  0  0  0  0  0  0
    1.4995    1.2812    0.0000 C   0  0  0  0  0  0  0  0  0  0  0  0
    3.4835    0.4561    0.0000 C   0  0  0  0  0  0  0  0  0  0  0  0
    0.0705   -0.3687    0.0000 C   0  0  0  0  0  0  0  0  0  0  0  0
    0.7850    0.8687    0.0000 C   0  0  0  0  0  0  0  0  0  0  0  0
    0.7850   -1.6062    0.0000 C   0  0  0  0  0  0  0  0  0  0  0  0
    3.2535    1.9083    0.0000 O   0  0  0  0  0  0  0  0  0  0  0  0
    0.0705   -1.1938    0.0000 C   0  0  0  0  0  0  0  0  0  0  0  0
   -0.6439    0.0437    0.0000 C   0  0  0  0  0  0  0  0  0  0  0  0
   -0.6439   -1.6062    0.0000 C   0  0  0  0  0  0  0  0  0  0  0  0
   -1.3583   -0.3687    0.0000 C   0  0  0  0  0  0  0  0  0  0  0  0
    1.4995   -0.3687    0.0000 C   0  0  0  0  0  0  0  0  0  0  0  0
    0.7850    0.0437    0.0000 C   0  0  0  0  0  0  0  0  0  0  0  0
    2.2139    0.8687    0.0000 C   0  0  0  0  0  0  0  0  0  0  0  0
    2.2139    1.6937    0.0000 C   0  0  0  0  0  0  0  0  0  0  0  0
    2.2139    0.0437    0.0000 C   0  0  0  0  0  0  0  0  0  0  0  0
   -2.3748   -0.4793    0.0000 O   0  0  0  0  0  0  0  0  0  0  0  0
   -3.1998   -1.9083    0.0000 O   0  0  0  0  0  0  0  0  0  0  0  0
   -3.4835   -0.7995    0.0000 O   0  0  0  0  0  0  0  0  0  0  0  0
   -2.7690   -1.2120    0.0000 S   0  0  0  0  0  0  0  0  0  0  0  0
   -2.0728   -1.6062    0.0000 O   0  0  0  0  0  0  0  0  0  0  0  0
   -1.3583   -1.1938    0.0000 C   0  0  0  0  0  0  0  0  0  0  0  0
  2  8  1  0
  3  9  2  0
  3  5  1  0
  4  7  1  0
  5  1  1  0
  6 10  2  0
  6 11  1  0
  8 10  1  0
 10 12  1  0
 11 13  2  0
 12 24  2  0
 13 24  1  0
 14 15  1  0
 14  2  1  6
 15  6  1  0
 15  7  1  1
 16  3  1  0
 16  4  1  0
 16 17  1  1
 18 14  1  0
 18 16  1  0
 18  1  1  1
 22 19  2  0
 22 20  2  0
 22 21  1  0
 22 23  1  0
 24 23  1  0
M  END
>  <DRUGBANK_ID>  (1) 
DB04574

>  <COMMON_NAME>  (1) 
Estrone sulfate

>  <CAS_NUMBER>  (1) 
481-97-0

>  <UNII>  (1) 
QTL48N278K

>  <SYNONYMS>  (1) 
Estra-1,3,5 (10)-triene-17-one-3-yl-sulfate; Estrone 3-sulfate; Estrone bisulfate; Estrone hemisulfate; Estrone hydrogen sulfate; Estrone sulphate; Estrone-3-sulphate; Estrone, hydrogen sulfate

$$$$
