
     RDKit          2D

 30 31  0  0  0  0  0  0  0  0999 V2000
    1.8819   -1.4437    0.0000 O   0  0  0  0  0  0  0  0  0  0  0  0
    0.3423   -0.2062    0.0000 O   0  0  0  0  0  0  0  0  0  0  0  0
    2.4049    0.5081    0.0000 O   0  0  0  0  0  0  0  0  0  0  0  0
   -0.2614    0.6187    0.0000 O   0  0  0  0  0  0  0  0  0  0  0  0
    2.4049   -0.9207    0.0000 O   0  0  0  0  0  0  0  0  0  0  0  0
    1.1674    3.0937    0.0000 O   0  0  0  0  0  0  0  0  0  0  0  0
    1.8819    1.8562    0.0000 O   0  0  0  0  0  0  0  0  0  0  0  0
   -0.9759   -2.2688    0.0000 O   0  0  0  0  0  0  0  0  0  0  0  0
   -0.2614   -3.5063    0.0000 O   0  0  0  0  0  0  0  0  0  0  0  0
   -2.4049    3.5063    0.0000 O   0  0  0  0  0  0  0  0  0  0  0  0
    1.1674    0.6187    0.0000 N   0  0  0  0  0  0  0  0  0  0  0  0
    0.4529   -1.4437    0.0000 N   0  0  0  0  0  0  0  0  0  0  0  0
    1.1674   -0.2062    0.0000 C   0  0  0  0  0  0  0  0  0  0  0  0
    1.1674   -1.0312    0.0000 C   0  0  0  0  0  0  0  0  0  0  0  0
    0.4529    1.8562    0.0000 C   0  0  0  0  0  0  0  0  0  0  0  0
    0.4529    1.0312    0.0000 C   0  0  0  0  0  0  0  0  0  0  0  0
    1.9923   -0.2062    0.0000 C   0  0  0  0  0  0  0  0  0  0  0  0
    1.8819   -2.2688    0.0000 C   0  0  0  0  0  0  0  0  0  0  0  0
    1.1674   -2.6812    0.0000 C   0  0  0  0  0  0  0  0  0  0  0  0
    0.4529   -2.2688    0.0000 C   0  0  0  0  0  0  0  0  0  0  0  0
   -0.2614    2.2688    0.0000 C   0  0  0  0  0  0  0  0  0  0  0  0
   -0.0700   -0.9207    0.0000 C   0  0  0  0  0  0  0  0  0  0  0  0
    1.1674    2.2688    0.0000 C   0  0  0  0  0  0  0  0  0  0  0  0
   -0.2614    3.0937    0.0000 C   0  0  0  0  0  0  0  0  0  0  0  0
   -0.9759    1.8562    0.0000 C   0  0  0  0  0  0  0  0  0  0  0  0
   -0.2614   -2.6812    0.0000 C   0  0  0  0  0  0  0  0  0  0  0  0
    1.1674   -3.5063    0.0000 C   0  0  0  0  0  0  0  0  0  0  0  0
   -0.9759    3.5063    0.0000 C   0  0  0  0  0  0  0  0  0  0  0  0
   -1.6904    2.2688    0.0000 C   0  0  0  0  0  0  0  0  0  0  0  0
   -1.6904    3.0937    0.0000 C   0  0  0  0  0  0  0  0  0  0  0  0
  1 14  1  0
  1 18  1  0
  2 22  1  0
  3 17  1  0
  4 16  2  0
  5 17  2  0
  6 23  1  0
  7 23  2  0
  8 26  1  0
  9 26  2  0
 10 30  1  0
 11 16  1  0
 14 12  1  1
 12 20  2  0
 13  2  1  0
 13 11  1  6
 13 14  1  0
 13 17  1  0
 15 16  1  6
 15 21  1  0
 15 23  1  0
 18 19  1  0
 19 20  1  0
 19 27  2  0
 20 26  1  0
 21 24  2  0
 21 25  1  0
 24 28  1  0
 25 29  2  0
 28 30  2  0
 29 30  1  0
M  END
>  <DRUGBANK_ID>  (1) 
DB04740

>  <COMMON_NAME>  (1) 
Moxalactam (hydrolyzed)

$$$$
