
     RDKit          2D

 30 32  0  0  0  0  0  0  0  0999 V2000
   -3.5479    2.0202    0.0000 N   0  0  0  0  0  0  0  0  0  0  0  0
   -2.8334    2.4327    0.0000 C   0  0  0  0  0  0  0  0  0  0  0  0
   -2.8334    3.2577    0.0000 N   0  0  0  0  0  0  0  0  0  0  0  0
   -2.1190    2.0202    0.0000 N   0  0  0  0  0  0  0  0  0  0  0  0
   -1.4045    2.4327    0.0000 C   0  0  0  0  0  0  0  0  0  0  0  0
   -1.4045    3.2577    0.0000 C   0  0  0  0  0  0  0  0  0  0  0  0
   -0.6900    3.6702    0.0000 C   0  0  0  0  0  0  0  0  0  0  0  0
    0.0244    3.2577    0.0000 C   0  0  0  0  0  0  0  0  0  0  0  0
    0.8091    3.5126    0.0000 C   0  0  0  0  0  0  0  0  0  0  0  0
    1.2940    2.8452    0.0000 N   0  0  0  0  0  0  0  0  0  0  0  0
    2.1190    2.8452    0.0000 C   0  0  0  0  0  0  0  0  0  0  0  0
    2.5315    2.1307    0.0000 C   0  0  0  0  0  0  0  0  0  0  0  0
    3.3565    2.1307    0.0000 C   0  0  0  0  0  0  0  0  0  0  0  0
    3.7690    2.8452    0.0000 O   0  0  0  0  0  0  0  0  0  0  0  0
    3.7690    1.4162    0.0000 N   0  0  0  0  0  0  0  0  0  0  0  0
    4.5940    1.4162    0.0000 C   0  0  0  0  0  0  0  0  0  0  0  0
    5.0065    2.1307    0.0000 C   0  0  0  0  0  0  0  0  0  0  0  0
    4.5940    2.8452    0.0000 C   0  0  0  0  0  0  0  0  0  0  0  0
    3.9265    3.3301    0.0000 O   0  0  0  0  0  0  0  0  0  0  0  0
    5.0065    3.5596    0.0000 O   0  0  0  0  0  0  0  0  0  0  0  0
    5.0065    0.7018    0.0000 C   0  0  0  0  0  0  0  0  0  0  0  0
    5.8315    0.7018    0.0000 C   0  0  0  0  0  0  0  0  0  0  0  0
    6.2440   -0.0127    0.0000 C   0  0  0  0  0  0  0  0  0  0  0  0
    5.8315   -0.7272    0.0000 C   0  0  0  0  0  0  0  0  0  0  0  0
    5.0065   -0.7272    0.0000 N   0  0  0  0  0  0  0  0  0  0  0  0
    4.5940   -0.0127    0.0000 C   0  0  0  0  0  0  0  0  0  0  0  0
    0.8091    2.1777    0.0000 C   0  0  0  0  0  0  0  0  0  0  0  0
    1.0640    1.3931    0.0000 O   0  0  0  0  0  0  0  0  0  0  0  0
    0.0244    2.4327    0.0000 C   0  0  0  0  0  0  0  0  0  0  0  0
   -0.6900    2.0202    0.0000 C   0  0  0  0  0  0  0  0  0  0  0  0
  1  2  1  0
  2  3  2  0
  2  4  1  0
  4  5  1  0
  5  6  2  0
  5 30  1  0
  6  7  1  0
  7  8  2  0
  8  9  1  0
  8 29  1  0
  9 10  1  0
 10 11  1  0
 10 27  1  0
 11 12  1  0
 12 13  1  0
 13 14  2  0
 13 15  1  0
 15 16  1  0
 16 17  1  0
 16 21  1  0
 17 18  1  0
 18 19  1  0
 18 20  2  0
 21 22  2  0
 21 26  1  0
 22 23  1  0
 23 24  2  0
 24 25  1  0
 25 26  2  0
 27 28  2  0
 27 29  1  0
 29 30  2  0
M  END
>  <DRUGBANK_ID>  (1) 
DB18036

>  <COMMON_NAME>  (1) 
3-(3-(6-Guanidino-1-oxoisoindolin-2yl)propanamido)-3-(pyridine-3yl)propanoic acid

>  <CAS_NUMBER>  (1) 
1445836-51-0

>  <UNII>  (1) 
HP3E8MOW01

$$$$
