4820
     RDKit          2D

 22 23  0  0  0  0  0  0  0  0999 V2000
    5.2223    0.4125    0.0000 O   0  0  0  0  0  0  0  0  0  0  0  0
    1.6500   -1.6500    0.0000 O   0  0  0  0  0  0  0  0  0  0  0  0
    4.5079    1.6500    0.0000 N   0  0  0  0  0  0  0  0  0  0  0  0
    3.0790   -0.8250    0.0000 N   0  0  0  0  0  0  0  0  0  0  0  0
    3.0790   -1.6500    0.0000 N   0  0  0  0  0  0  0  0  0  0  0  0
    2.3644   -4.5375    0.0000 N   0  0  0  0  0  0  0  0  0  0  0  0
    3.7934    0.4125    0.0000 C   0  0  0  0  0  0  0  0  0  0  0  0
    3.7934   -0.4125    0.0000 C   0  0  0  0  0  0  0  0  0  0  0  0
    5.2223    2.0625    0.0000 C   0  0  0  0  0  0  0  0  0  0  0  0
    4.5079    0.8250    0.0000 C   0  0  0  0  0  0  0  0  0  0  0  0
    5.2223    2.8875    0.0000 C   0  0  0  0  0  0  0  0  0  0  0  0
    4.5079    3.3000    0.0000 C   0  0  0  0  0  0  0  0  0  0  0  0
    5.9369    3.3000    0.0000 C   0  0  0  0  0  0  0  0  0  0  0  0
    4.5079    4.1250    0.0000 C   0  0  0  0  0  0  0  0  0  0  0  0
    5.9369    4.1250    0.0000 C   0  0  0  0  0  0  0  0  0  0  0  0
    2.3644   -2.0625    0.0000 C   0  0  0  0  0  0  0  0  0  0  0  0
    5.2223    4.5375    0.0000 C   0  0  0  0  0  0  0  0  0  0  0  0
    2.3644   -2.8875    0.0000 C   0  0  0  0  0  0  0  0  0  0  0  0
    3.0790   -3.3000    0.0000 C   0  0  0  0  0  0  0  0  0  0  0  0
    1.6500   -3.3000    0.0000 C   0  0  0  0  0  0  0  0  0  0  0  0
    3.0790   -4.1250    0.0000 C   0  0  0  0  0  0  0  0  0  0  0  0
    1.6500   -4.1250    0.0000 C   0  0  0  0  0  0  0  0  0  0  0  0
  1 10  2  0
  2 16  2  0
  3  9  1  0
  3 10  1  0
  4  5  1  0
  4  8  1  0
  5 16  1  0
  6 21  2  0
  6 22  1  0
  7  8  1  0
  7 10  1  0
  9 11  1  0
 11 12  2  0
 11 13  1  0
 12 14  1  0
 13 15  2  0
 14 17  2  0
 15 17  1  0
 16 18  1  0
 18 19  2  0
 18 20  1  0
 19 21  1  0
 20 22  2  0
M  END
>  <DRUGBANK_ID>  (1) 
DB04820

>  <COMMON_NAME>  (1) 
Nialamide

>  <CAS_NUMBER>  (1) 
51-12-7

>  <UNII>  (1) 
T2Q0RYM725

>  <SYNONYMS>  (1) 
1-(2-(Benzylcarbamoyl)ethyl)-2-isonicotinoylhydrazine; 2-(2-(Benzylcarbamoyl)ethyl)hydrazide isonicotinic acid; 2-(2-(Benzylcarbamyl)ethyl)hydrazide isonicotinic acid; BEIH; Isonicotinic acid 2-((2-benzylcarbamoyl)ethyl)hydrazide; Isonicotinic acid, 2-(2-(benzylcarbamoyl)ethyl)hydrazide; N-(2-(Benzylcarbamyl)ethylamino)isonicotinamide; N-benzyl-beta-(isonicotinoylhydrazine)propionamide; N-benzyl-beta-(isonicotinylhydrazino)propionamide; N-Isonicotinoyl-N'(beta-N-benzylcarboxamidoethyl)hydrazine; Nialamida; Nialamide; Nialamidum

$$$$
