
     RDKit          2D

 28 29  0  0  1  0  0  0  0  0999 V2000
    0.0000   -2.4750    0.0000 C   0  0  0  0  0  0  0  0  0  0  0  0
    0.7145   -2.8875    0.0000 C   0  0  0  0  0  0  0  0  0  0  0  0
    1.4289   -2.4750    0.0000 C   0  0  0  0  0  0  0  0  0  0  0  0
    2.1434   -2.8875    0.0000 C   0  0  0  0  0  0  0  0  0  0  0  0
    2.8579   -2.4750    0.0000 O   0  0  0  0  0  0  0  0  0  0  0  0
    3.5724   -2.8875    0.0000 C   0  0  0  0  0  0  0  0  0  0  0  0
    4.2868   -2.4750    0.0000 C   0  0  0  0  0  0  0  0  0  0  0  0
    5.0013   -2.8875    0.0000 C   0  0  0  0  0  0  0  0  0  0  0  0
    5.0013   -3.7125    0.0000 C   0  0  0  0  0  0  0  0  0  0  0  0
    4.2868   -4.1250    0.0000 C   0  0  0  0  0  0  0  0  0  0  0  0
    3.5724   -3.7125    0.0000 C   0  0  0  0  0  0  0  0  0  0  0  0
    5.7158   -4.1250    0.0000 S   0  0  0  0  0  0  0  0  0  0  0  0
    5.3033   -4.8395    0.0000 O   0  0  0  0  0  0  0  0  0  0  0  0
    6.1283   -3.4105    0.0000 O   0  0  0  0  0  0  0  0  0  0  0  0
    6.4302   -4.5375    0.0000 N   0  0  0  0  0  0  0  0  0  0  0  0
    7.1839   -4.2019    0.0000 C   0  0  0  0  0  0  0  0  0  0  0  0
    7.7359   -4.8150    0.0000 C   0  0  0  0  0  0  0  0  0  0  0  0
    7.3234   -5.5295    0.0000 C   0  0  0  0  0  0  0  0  0  0  0  0
    6.5165   -5.3580    0.0000 C   0  0  0  0  0  0  0  0  0  0  0  0
    5.9034   -5.9100    0.0000 C   0  0  0  0  0  0  0  0  0  0  0  0
    5.1188   -5.6551    0.0000 O   0  0  0  0  0  0  0  0  0  0  0  0
    6.0749   -6.7170    0.0000 N   0  0  0  0  0  0  0  0  0  0  0  0
    5.4618   -7.2690    0.0000 O   0  0  0  0  0  0  0  0  0  0  0  0
    8.5564   -4.7288    0.0000 N   0  0  0  0  0  0  0  0  0  0  0  0
    8.8920   -3.9751    0.0000 S   0  0  0  0  0  0  0  0  0  0  0  0
    9.2275   -3.2215    0.0000 C   0  0  0  0  0  0  0  0  0  0  0  0
    9.6457   -4.3107    0.0000 O   0  0  0  0  0  0  0  0  0  0  0  0
    8.1383   -3.6396    0.0000 O   0  0  0  0  0  0  0  0  0  0  0  0
  1  2  1  0
  2  3  1  0
  3  4  1  0
  4  5  1  0
  5  6  1  0
  6  7  2  0
  6 11  1  0
  7  8  1  0
  8  9  2  0
  9 10  1  0
  9 12  1  0
 10 11  2  0
 12 13  2  0
 12 14  2  0
 12 15  1  0
 15 16  1  0
 15 19  1  0
 16 17  1  0
 17 18  1  0
 17 24  1  1
 18 19  1  0
 19 20  1  6
 20 21  2  0
 20 22  1  0
 22 23  1  0
 24 25  1  0
 25 26  1  0
 25 27  2  0
 25 28  2  0
M  END
>  <DRUGBANK_ID>  (1) 
DB02367

>  <SECONDARY_ACCESSION_NUMBERS>  (1) 
EXPT00010

>  <COMMON_NAME>  (1) 
(1n)-4-N-Butoxyphenylsulfonyl-(2r)-N-Hydroxycarboxamido-(4s)-Methanesulfonylamino-Pyrrolidine

$$$$
