
     RDKit          2D

 24 25  0  0  0  0  0  0  0  0999 V2000
    1.7441    0.5786    0.0000 C   0  0  0  0  0  0  0  0  0  0  0  0
    1.7441   -0.2469    0.0000 C   0  0  0  0  0  0  0  0  0  0  0  0
    1.0247    0.9927    0.0000 C   0  0  0  0  0  0  0  0  0  0  0  0
    2.4476    0.9848    0.0000 O   0  0  0  0  0  0  0  0  0  0  0  0
    2.4476   -0.6637    0.0000 C   0  0  0  0  0  0  0  0  0  0  0  0
    1.0353   -0.6690    0.0000 C   0  0  0  0  0  0  0  0  0  0  0  0
    0.3318    0.5786    0.0000 C   0  0  0  0  0  0  0  0  0  0  0  0
    3.1671    0.5786    0.0000 C   0  0  0  0  0  0  0  0  0  0  0  0
    3.1511   -0.2548    0.0000 C   0  0  0  0  0  0  0  0  0  0  0  0
    2.4582   -1.4919    0.0000 C   0  0  0  0  0  0  0  0  0  0  0  0
    0.3184   -0.2548    0.0000 C   0  0  0  0  0  0  0  0  0  0  0  0
   -0.3902    0.9927    0.0000 O   0  0  0  0  0  0  0  0  0  0  0  0
    3.8839    0.9848    0.0000 O   0  0  0  0  0  0  0  0  0  0  0  0
    3.8732   -0.6690    0.0000 Cl  0  0  0  0  0  0  0  0  0  0  0  0
   -1.0778    0.5627    0.0000 P   0  0  0  0  0  0  0  0  0  0  0  0
   -1.6591    1.1389    0.0000 O   0  0  0  0  0  0  0  0  0  0  0  0
   -1.6938    0.0291    0.0000 O   0  0  0  0  0  0  0  0  0  0  0  0
   -0.6159   -0.0663    0.0000 O   0  0  0  0  0  0  0  0  0  0  0  0
   -2.4502    0.9238    0.0000 C   0  0  0  0  0  0  0  0  0  0  0  0
   -2.4901    0.2919    0.0000 C   0  0  0  0  0  0  0  0  0  0  0  0
   -3.0396    1.4919    0.0000 C   0  0  0  0  0  0  0  0  0  0  0  0
   -3.1033   -0.2469    0.0000 C   0  0  0  0  0  0  0  0  0  0  0  0
   -3.8494    1.2849    0.0000 Cl  0  0  0  0  0  0  0  0  0  0  0  0
   -3.8839    0.0291    0.0000 Cl  0  0  0  0  0  0  0  0  0  0  0  0
  1  2  1  0
  1  3  2  0
  1  4  1  0
  2  5  1  0
  2  6  2  0
  3  7  1  0
  4  8  1  0
  5  9  2  0
  5 10  1  0
  6 11  1  0
  7 12  1  0
  7 11  2  0
  8 13  2  0
  8  9  1  0
  9 14  1  0
 12 15  1  0
 15 16  1  0
 15 17  1  0
 15 18  2  0
 16 19  1  0
 17 20  1  0
 19 21  1  0
 20 22  1  0
 21 23  1  0
 22 24  1  0
M  END
>  <DRUGBANK_ID>  (1) 
DB11419

>  <COMMON_NAME>  (1) 
Haloxon

>  <CAS_NUMBER>  (1) 
321-55-1

>  <UNII>  (1) 
T8KXA37068

>  <SYNONYMS>  (1) 
Haloxon; Haloxona; Haloxone; Haloxonum

$$$$
