
     RDKit          2D

 30 33  0  0  0  0  0  0  0  0999 V2000
    7.6391    0.2854    0.0000 C   0  0  0  0  0  0  0  0  0  0  0  0
    6.9246    0.6979    0.0000 C   0  0  0  0  0  0  0  0  0  0  0  0
    7.3371    1.4124    0.0000 C   0  0  0  0  0  0  0  0  0  0  0  0
    6.5121   -0.0165    0.0000 O   0  0  0  0  0  0  0  0  0  0  0  0
    6.2102    1.1104    0.0000 C   0  0  0  0  0  0  0  0  0  0  0  0
    5.4957    0.6979    0.0000 C   0  0  0  0  0  0  0  0  0  0  0  0
    4.7812    1.1104    0.0000 C   0  0  0  0  0  0  0  0  0  0  0  0
    4.7812    1.9354    0.0000 C   0  0  0  0  0  0  0  0  0  0  0  0
    5.4957    2.3479    0.0000 C   0  0  0  0  0  0  0  0  0  0  0  0
    6.2102    1.9354    0.0000 C   0  0  0  0  0  0  0  0  0  0  0  0
    4.0668    2.3479    0.0000 N   0  0  0  0  0  0  0  0  0  0  0  0
    3.3523    1.9354    0.0000 C   0  0  0  0  0  0  0  0  0  0  0  0
    3.3523    1.1104    0.0000 C   0  0  0  0  0  0  0  0  0  0  0  0
    2.6378    0.6979    0.0000 C   0  0  0  0  0  0  0  0  0  0  0  0
    1.9233    1.1104    0.0000 C   0  0  0  0  0  0  0  0  0  0  0  0
    1.1387    0.8555    0.0000 N   0  0  0  0  0  0  0  0  0  0  0  0
    0.6538    1.5229    0.0000 C   0  0  0  0  0  0  0  0  0  0  0  0
    1.1387    2.1904    0.0000 C   0  0  0  0  0  0  0  0  0  0  0  0
    0.8838    2.9750    0.0000 C   0  0  0  0  0  0  0  0  0  0  0  0
    0.0768    3.1465    0.0000 C   0  0  0  0  0  0  0  0  0  0  0  0
   -0.1781    3.9312    0.0000 C   0  0  0  0  0  0  0  0  0  0  0  0
    0.3739    4.5442    0.0000 C   0  0  0  0  0  0  0  0  0  0  0  0
    1.1809    4.3727    0.0000 C   0  0  0  0  0  0  0  0  0  0  0  0
    1.4358    3.5881    0.0000 C   0  0  0  0  0  0  0  0  0  0  0  0
    1.7329    4.9858    0.0000 C   0  0  0  0  0  0  0  0  0  0  0  0
    2.2849    5.5989    0.0000 F   0  0  0  0  0  0  0  0  0  0  0  0
    2.3460    4.4338    0.0000 F   0  0  0  0  0  0  0  0  0  0  0  0
    1.1198    5.5378    0.0000 F   0  0  0  0  0  0  0  0  0  0  0  0
    1.9233    1.9354    0.0000 N   0  0  0  0  0  0  0  0  0  0  0  0
    2.6378    2.3479    0.0000 N   0  0  0  0  0  0  0  0  0  0  0  0
  1  2  1  0
  2  3  1  0
  2  4  1  0
  5  2  1  1
  5  6  1  0
  5 10  1  0
  6  7  1  0
  8  7  1  0
  8  9  1  0
  8 11  1  6
  9 10  1  0
 11 12  1  0
 12 13  1  0
 12 30  2  0
 13 14  2  0
 14 15  1  0
 15 16  2  0
 15 29  1  0
 16 17  1  0
 17 18  2  0
 18 19  1  0
 18 29  1  0
 19 20  2  0
 19 24  1  0
 20 21  1  0
 21 22  2  0
 22 23  1  0
 23 24  2  0
 23 25  1  0
 25 26  1  0
 25 27  1  0
 25 28  1  0
 29 30  1  0
M  END
>  <DRUGBANK_ID>  (1) 
DB18109

>  <COMMON_NAME>  (1) 
TP-3654

>  <CAS_NUMBER>  (1) 
1361951-15-6

>  <UNII>  (1) 
EOB0N7BOY4

>  <SYNONYMS>  (1) 
2-(4-((3-(3-(trifluoromethyl)phenyl)imidazo(1,2-b)pyridazin-6-yl)amino)cyclohexyl)propan-2-ol; 2-(trans-4-((3-(3-(trifluoromethyl)phenyl)imidazo[1,2-b]pyridazin6-yl)amino)cyclohexyl)propan-2-ol hydrochloride; 4-((3-(3-(trifluoromethyl)phenyl)imidazo(1,2-b)pyridazin-6-yl)amino) -trans-cyclohexyl)propan-2-ol

$$$$
