53R
     RDKit          2D

 27 29  0  0  0  0  0  0  0  0999 V2000
    3.2396   -0.3481    0.0000 C   0  0  0  0  0  0  0  0  0  0  0  0
    3.9541   -0.7606    0.0000 C   0  0  0  0  0  0  0  0  0  0  0  0
    3.9541   -1.5856    0.0000 C   0  0  0  0  0  0  0  0  0  0  0  0
    3.2396   -1.9981    0.0000 C   0  0  0  0  0  0  0  0  0  0  0  0
    2.5252   -1.5856    0.0000 C   0  0  0  0  0  0  0  0  0  0  0  0
    2.5252   -0.7606    0.0000 C   0  0  0  0  0  0  0  0  0  0  0  0
    1.8107   -0.3481    0.0000 C   0  0  0  0  0  0  0  0  0  0  0  0
    1.0962   -0.7606    0.0000 C   0  0  0  0  0  0  0  0  0  0  0  0
    1.8107    0.4769    0.0000 C   0  0  0  0  0  0  0  0  0  0  0  0
    1.0962    0.8894    0.0000 C   0  0  0  0  0  0  0  0  0  0  0  0
    1.0962    1.7144    0.0000 O   0  0  0  0  0  0  0  0  0  0  0  0
    0.3817    2.1269    0.0000 C   0  0  0  0  0  0  0  0  0  0  0  0
    0.3817    0.4769    0.0000 C   0  0  0  0  0  0  0  0  0  0  0  0
    0.3817   -0.3481    0.0000 C   0  0  0  0  0  0  0  0  0  0  0  0
   -0.3327   -0.7606    0.0000 C   0  0  0  0  0  0  0  0  0  0  0  0
   -0.3327   -1.5856    0.0000 C   0  0  0  0  0  0  0  0  0  0  0  0
   -1.0472   -0.3481    0.0000 C   0  0  0  0  0  0  0  0  0  0  0  0
   -1.7617    0.0644    0.0000 C   0  0  0  0  0  0  0  0  0  0  0  0
   -2.4761    0.4769    0.0000 C   0  0  0  0  0  0  0  0  0  0  0  0
   -3.1906    0.0644    0.0000 C   0  0  0  0  0  0  0  0  0  0  0  0
   -3.1906   -0.7606    0.0000 C   0  0  0  0  0  0  0  0  0  0  0  0
   -3.9051    0.4769    0.0000 N   0  0  0  0  0  0  0  0  0  0  0  0
   -3.9051    1.3019    0.0000 C   0  0  0  0  0  0  0  0  0  0  0  0
   -4.6196    1.7144    0.0000 N   0  0  0  0  0  0  0  0  0  0  0  0
   -3.1906    1.7144    0.0000 N   0  0  0  0  0  0  0  0  0  0  0  0
   -2.4761    1.3019    0.0000 C   0  0  0  0  0  0  0  0  0  0  0  0
   -1.7617    1.7144    0.0000 N   0  0  0  0  0  0  0  0  0  0  0  0
  1  2  2  0
  1  6  1  0
  2  3  1  0
  3  4  2  0
  4  5  1  0
  5  6  2  0
  6  7  1  0
  7  8  2  0
  7  9  1  0
  8 14  1  0
  9 10  2  0
 10 11  1  0
 10 13  1  0
 11 12  1  0
 13 14  2  0
 14 15  1  0
 15 16  1  1
 15 17  1  0
 17 18  3  0
 18 19  1  0
 19 20  2  0
 19 26  1  0
 20 21  1  0
 20 22  1  0
 22 23  2  0
 23 24  1  0
 23 25  1  0
 25 26  2  0
 26 27  1  0
M  END
>  <DRUGBANK_ID>  (1) 
DB07140

>  <COMMON_NAME>  (1) 
5-[(3R)-3-(5-methoxybiphenyl-3-yl)but-1-yn-1-yl]-6-methylpyrimidine-2,4-diamine

$$$$
