
     RDKit          2D

 19 19  0  0  0  0  0  0  0  0999 V2000
    2.4959   -1.4528    0.0000 C   0  0  0  0  0  0  0  0  0  0  0  0
    2.9084   -2.1672    0.0000 C   0  0  0  0  0  0  0  0  0  0  0  0
    3.7334   -2.1672    0.0000 C   0  0  0  0  0  0  0  0  0  0  0  0
    4.1459   -2.8817    0.0000 C   0  0  0  0  0  0  0  0  0  0  0  0
    4.9709   -2.8817    0.0000 C   0  0  0  0  0  0  0  0  0  0  0  0
    5.3834   -2.1672    0.0000 C   0  0  0  0  0  0  0  0  0  0  0  0
    6.2084   -2.1672    0.0000 C   0  0  0  0  0  0  0  0  0  0  0  0
    5.3834   -3.5962    0.0000 C   0  0  0  0  0  0  0  0  0  0  0  0
    6.2039   -3.6824    0.0000 C   0  0  0  0  0  0  0  0  0  0  0  0
    6.7560   -3.0693    0.0000 O   0  0  0  0  0  0  0  0  0  0  0  0
    6.3755   -4.4894    0.0000 N   0  0  0  0  0  0  0  0  0  0  0  0
    5.6610   -4.9019    0.0000 C   0  0  0  0  0  0  0  0  0  0  0  0
    5.5747   -5.7224    0.0000 O   0  0  0  0  0  0  0  0  0  0  0  0
    5.0479   -4.3499    0.0000 N   0  0  0  0  0  0  0  0  0  0  0  0
    7.1291   -4.8249    0.0000 S   0  0  0  0  0  0  0  0  0  0  0  0
    7.7966   -4.3400    0.0000 C   0  0  0  0  0  0  0  0  0  0  0  0
    8.4640   -3.8551    0.0000 Cl  0  0  0  0  0  0  0  0  0  0  0  0
    8.2815   -5.0075    0.0000 Cl  0  0  0  0  0  0  0  0  0  0  0  0
    7.3116   -3.6726    0.0000 Cl  0  0  0  0  0  0  0  0  0  0  0  0
  1  2  1  0
  2  3  1  0
  3  4  1  0
  4  5  1  0
  5  6  1  0
  5  8  1  0
  6  7  1  0
  8  9  1  0
  8 14  1  0
  9 10  2  0
  9 11  1  0
 11 12  1  0
 11 15  1  0
 12 13  2  0
 12 14  1  0
 15 16  1  0
 16 17  1  0
 16 18  1  0
 16 19  1  0
M  END
>  <DRUGBANK_ID>  (1) 
DB13516

>  <COMMON_NAME>  (1) 
Clodantoin

>  <CAS_NUMBER>  (1) 
5588-20-5

>  <UNII>  (1) 
W14Z7581PA

>  <SYNONYMS>  (1) 
Chlordantoin; Clodantoin

$$$$
