
     RDKit          2D

 30 32  0  0  0  0  0  0  0  0999 V2000
    1.5356   -1.7116    0.0000 C   0  0  0  0  0  0  0  0  0  0  0  0
    1.5356   -2.5366    0.0000 C   0  0  0  0  0  0  0  0  0  0  0  0
    0.8212   -2.9491    0.0000 C   0  0  0  0  0  0  0  0  0  0  0  0
    0.1067   -2.5366    0.0000 C   0  0  0  0  0  0  0  0  0  0  0  0
    0.1067   -1.7116    0.0000 C   0  0  0  0  0  0  0  0  0  0  0  0
    0.8212   -1.2991    0.0000 C   0  0  0  0  0  0  0  0  0  0  0  0
    0.8212   -0.4741    0.0000 Br  0  0  0  0  0  0  0  0  0  0  0  0
   -0.6078   -2.9491    0.0000 N   0  0  0  0  0  0  0  0  0  0  0  0
   -1.3222   -2.5366    0.0000 C   0  0  0  0  0  0  0  0  0  0  0  0
   -1.3222   -1.7116    0.0000 O   0  0  0  0  0  0  0  0  0  0  0  0
   -2.0367   -2.9491    0.0000 N   0  0  0  0  0  0  0  0  0  0  0  0
   -2.7512   -2.5366    0.0000 C   0  0  0  0  0  0  0  0  0  0  0  0
   -3.4656   -2.9491    0.0000 C   0  0  0  0  0  0  0  0  0  0  0  0
   -4.1801   -2.5366    0.0000 C   0  0  0  0  0  0  0  0  0  0  0  0
   -4.1801   -1.7116    0.0000 C   0  0  0  0  0  0  0  0  0  0  0  0
   -3.4656   -1.2991    0.0000 C   0  0  0  0  0  0  0  0  0  0  0  0
   -2.7512   -1.7116    0.0000 C   0  0  0  0  0  0  0  0  0  0  0  0
   -3.4656   -0.4741    0.0000 C   0  0  0  0  0  0  0  0  0  0  0  0
   -3.4656    0.3509    0.0000 F   0  0  0  0  0  0  0  0  0  0  0  0
   -4.2906   -0.4741    0.0000 F   0  0  0  0  0  0  0  0  0  0  0  0
   -2.6406   -0.4741    0.0000 F   0  0  0  0  0  0  0  0  0  0  0  0
   -4.8946   -2.9491    0.0000 C   0  0  0  0  0  0  0  0  0  0  0  0
   -5.6091   -3.3616    0.0000 F   0  0  0  0  0  0  0  0  0  0  0  0
   -5.3071   -2.2346    0.0000 F   0  0  0  0  0  0  0  0  0  0  0  0
   -4.4821   -3.6636    0.0000 F   0  0  0  0  0  0  0  0  0  0  0  0
    0.8212   -3.7741    0.0000 C   0  0  0  0  0  0  0  0  0  0  0  0
    1.4886   -4.2590    0.0000 N   0  0  0  0  0  0  0  0  0  0  0  0
    1.2337   -5.0437    0.0000 N   0  0  0  0  0  0  0  0  0  0  0  0
    0.4087   -5.0437    0.0000 N   0  0  0  0  0  0  0  0  0  0  0  0
    0.1537   -4.2590    0.0000 N   0  0  0  0  0  0  0  0  0  0  0  0
  1  2  2  0
  1  6  1  0
  2  3  1  0
  3  4  2  0
  3 26  1  0
  4  5  1  0
  4  8  1  0
  5  6  2  0
  6  7  1  0
  8  9  1  0
  9 10  2  0
  9 11  1  0
 11 12  1  0
 12 13  2  0
 12 17  1  0
 13 14  1  0
 14 15  2  0
 14 22  1  0
 15 16  1  0
 16 17  2  0
 16 18  1  0
 18 19  1  0
 18 20  1  0
 18 21  1  0
 22 23  1  0
 22 24  1  0
 22 25  1  0
 26 27  2  0
 26 30  1  0
 27 28  1  0
 28 29  1  0
 29 30  2  0
M  END
>  <DRUGBANK_ID>  (1) 
DB05835

>  <COMMON_NAME>  (1) 
NS-3728

>  <CAS_NUMBER>  (1) 
265646-85-3

>  <UNII>  (1) 
9H4XH6M8MU

>  <SYNONYMS>  (1) 
Endovion; N-[4-bromo-2-(1H-1,2,3,4-tetrazol-5-yl)phenyl]-N'-[3,5-bis(trifluoromethyl)phenyl]urea

$$$$
