
     RDKit          2D

 11 10  0  0  1  0  0  0  0  0999 V2000
    1.4289    0.8250    0.0000 C   0  0  0  0  0  0  0  0  0  0  0  0
    2.1434   -0.4125    0.0000 C   0  0  0  0  0  0  0  0  0  0  0  0
    1.4289    0.0000    0.0000 C   0  0  0  0  0  0  0  0  0  0  0  0
    2.8579    0.0000    0.0000 C   0  0  0  0  0  0  0  0  0  0  0  0
    0.7145   -0.4125    0.0000 C   0  0  0  0  0  0  0  0  0  0  0  0
    0.0000    0.0000    0.0000 C   0  0  0  0  0  0  0  0  0  0  0  0
    0.7145   -1.2375    0.0000 N   0  0  0  0  0  0  0  0  0  0  0  0
    3.5724   -0.4125    0.0000 O   0  0  0  0  0  0  0  0  0  0  0  0
    2.8579    0.8250    0.0000 O   0  0  0  0  0  0  0  0  0  0  0  0
   -0.7145   -0.4125    0.0000 O   0  0  0  0  0  0  0  0  0  0  0  0
    0.0000    0.8250    0.0000 O   0  0  0  0  0  0  0  0  0  0  0  0
  3  1  1  1
  3  2  1  0
  4  2  1  0
  5  3  1  0
  5  7  1  6
  6  5  1  0
  8  4  2  0
  9  4  1  0
 10  6  2  0
 11  6  1  0
M  END
>  <DRUGBANK_ID>  (1) 
DB01898

>  <SECONDARY_ACCESSION_NUMBERS>  (1) 
EXPT02151

>  <COMMON_NAME>  (1) 
(2S,3S)-2-azanyl-3-methyl-pentanedioic acid

>  <SYNONYMS>  (1) 
(3S)-3-methyl-L-glutamic acid

$$$$
