
     RDKit          2D

 39 41  0  0  1  0  0  0  0  0999 V2000
    3.0461   -2.3331    0.0000 C   0  0  0  0  0  0  0  0  0  0  0  0
    2.4413   -1.7720    0.0000 N   0  0  0  0  0  0  0  0  0  0  0  0
    1.6734   -2.0734    0.0000 C   0  0  0  0  0  0  0  0  0  0  0  0
    1.6734   -2.8984    0.0000 C   0  0  0  0  0  0  0  0  0  0  0  0
    0.9589   -3.3109    0.0000 C   0  0  0  0  0  0  0  0  0  0  0  0
    0.2444   -2.8984    0.0000 C   0  0  0  0  0  0  0  0  0  0  0  0
    0.2444   -2.0734    0.0000 C   0  0  0  0  0  0  0  0  0  0  0  0
    0.9589   -1.6609    0.0000 C   0  0  0  0  0  0  0  0  0  0  0  0
    0.8359   -0.8451    0.0000 C   0  0  0  0  0  0  0  0  0  0  0  0
    1.3971   -0.2403    0.0000 N   0  0  0  0  0  0  0  0  0  0  0  0
    2.2198   -0.3020    0.0000 C   0  0  0  0  0  0  0  0  0  0  0  0
    2.6845   -0.9836    0.0000 C   0  0  0  0  0  0  0  0  0  0  0  0
    3.5003   -0.8607    0.0000 O   0  0  0  0  0  0  0  0  0  0  0  0
    2.6323    0.4125    0.0000 N   0  0  0  0  0  0  0  0  0  0  0  0
    3.4573    0.4125    0.0000 C   0  0  0  0  0  0  0  0  0  0  0  0
    3.8698   -0.3020    0.0000 O   0  0  0  0  0  0  0  0  0  0  0  0
    3.8698    1.1270    0.0000 C   0  0  0  0  0  0  0  0  0  0  0  0
    3.4573    1.8414    0.0000 C   0  0  0  0  0  0  0  0  0  0  0  0
    3.8698    2.5559    0.0000 C   0  0  0  0  0  0  0  0  0  0  0  0
    3.4573    3.2704    0.0000 C   0  0  0  0  0  0  0  0  0  0  0  0
    4.1718    3.6829    0.0000 F   0  0  0  0  0  0  0  0  0  0  0  0
    2.7428    2.8579    0.0000 F   0  0  0  0  0  0  0  0  0  0  0  0
    3.0448    3.9849    0.0000 F   0  0  0  0  0  0  0  0  0  0  0  0
    4.6948    1.1270    0.0000 C   0  0  0  0  0  0  0  0  0  0  0  0
    5.1073    1.8414    0.0000 C   0  0  0  0  0  0  0  0  0  0  0  0
    5.9323    1.8414    0.0000 C   0  0  0  0  0  0  0  0  0  0  0  0
    6.3448    2.5559    0.0000 C   0  0  0  0  0  0  0  0  0  0  0  0
    6.7573    3.2704    0.0000 F   0  0  0  0  0  0  0  0  0  0  0  0
    5.6303    2.9684    0.0000 F   0  0  0  0  0  0  0  0  0  0  0  0
    7.0593    2.1434    0.0000 F   0  0  0  0  0  0  0  0  0  0  0  0
    5.1073    0.4125    0.0000 C   0  0  0  0  0  0  0  0  0  0  0  0
    5.9323    0.4125    0.0000 O   0  0  0  0  0  0  0  0  0  0  0  0
    4.6948   -0.3020    0.0000 N   0  0  0  0  0  0  0  0  0  0  0  0
    0.0476   -0.6019    0.0000 C   0  0  0  0  0  0  0  0  0  0  0  0
   -0.5572   -1.1631    0.0000 C   0  0  0  0  0  0  0  0  0  0  0  0
   -1.3455   -0.9199    0.0000 C   0  0  0  0  0  0  0  0  0  0  0  0
   -1.5291   -0.1156    0.0000 C   0  0  0  0  0  0  0  0  0  0  0  0
   -0.9243    0.4456    0.0000 C   0  0  0  0  0  0  0  0  0  0  0  0
   -0.1360    0.2024    0.0000 C   0  0  0  0  0  0  0  0  0  0  0  0
  1  2  1  0
  2  3  1  0
  2 12  1  0
  3  4  2  0
  3  8  1  0
  4  5  1  0
  5  6  2  0
  6  7  1  0
  7  8  2  0
  8  9  1  0
  9 10  2  0
  9 34  1  0
 10 11  1  0
 11 12  1  0
 11 14  1  6
 12 13  2  0
 14 15  1  0
 15 16  2  0
 17 15  1  0
 17 18  1  6
 17 24  1  0
 18 19  1  0
 19 20  1  0
 20 21  1  0
 20 22  1  0
 20 23  1  0
 24 25  1  6
 24 31  1  0
 25 26  1  0
 26 27  1  0
 27 28  1  0
 27 29  1  0
 27 30  1  0
 31 32  2  0
 31 33  1  0
 34 35  2  0
 34 39  1  0
 35 36  1  0
 36 37  2  0
 37 38  1  0
 38 39  2  0
M  END
>  <DRUGBANK_ID>  (1) 
DB12006

>  <COMMON_NAME>  (1) 
Osugacestat

>  <CAS_NUMBER>  (1) 
1401066-79-2

>  <UNII>  (1) 
DRL23N424R

>  <SYNONYMS>  (1) 
(2R,3S)-N1-((S)-1-methyl-2-oxo-5-phenyl-2,3-dihydro-1H-benzo[e][1,4]diazepin-3-yl)-2,3-bis(3,3,3-trifluoropropyl)succinamide; Butanediamide, N1-((3S)-2,3-dihydro-1-methyl-2-oxo-5-phenyl-1H-1,4-benzodiazepin-3-yl)-2,3-bis(3,3,3-trifluorophenyl)-, (2R,3S)-

$$$$
