
     RDKit          2D

 26 30  0  0  0  0  0  0  0  0999 V2000
    0.6675   -0.0774    0.0000 C   0  0  0  0  0  0  0  0  0  0  0  0
   -2.4389    2.6358    0.0000 C   0  0  0  0  0  0  0  0  0  0  0  0
   -3.0192    2.0494    0.0000 C   0  0  0  0  0  0  0  0  0  0  0  0
   -1.6409    2.4265    0.0000 C   0  0  0  0  0  0  0  0  0  0  0  0
   -2.8015    1.2537    0.0000 C   0  0  0  0  0  0  0  0  0  0  0  0
   -1.4232    1.6307    0.0000 C   0  0  0  0  0  0  0  0  0  0  0  0
    0.6593   -2.6358    0.0000 C   0  0  0  0  0  0  0  0  0  0  0  0
    1.4810   -2.5621    0.0000 C   0  0  0  0  0  0  0  0  0  0  0  0
    1.0892   -1.4502    0.0000 C   0  0  0  0  0  0  0  0  0  0  0  0
    1.0719    0.1468    0.0000 C   0  0  0  0  0  0  0  0  0  0  0  0
    0.9420   -1.1719    0.0000 C   0  0  0  0  0  0  0  0  0  0  0  0
   -2.4438   -0.3310    0.0000 C   0  0  0  0  0  0  0  0  0  0  0  0
    1.0063   -1.8873    0.0000 C   0  0  0  0  0  0  0  0  0  0  0  0
   -2.0035    1.0443    0.0000 C   0  0  0  0  0  0  0  0  0  0  0  0
    0.7041   -0.5915    0.0000 C   0  0  0  0  0  0  0  0  0  0  0  0
   -1.7859    0.2485    0.0000 C   0  0  0  0  0  0  0  0  0  0  0  0
    1.8539   -1.5338    0.0000 C   0  0  0  0  0  0  0  0  0  0  0  0
    1.8786    0.3197    0.0000 C   0  0  0  0  0  0  0  0  0  0  0  0
    2.5057   -1.0281    0.0000 C   0  0  0  0  0  0  0  0  0  0  0  0
    2.5167   -0.2032    0.0000 C   0  0  0  0  0  0  0  0  0  0  0  0
   -0.9697    0.0344    0.0000 C   0  0  0  0  0  0  0  0  0  0  0  0
    1.6346   -0.6039    0.0000 N   0  0  0  0  0  0  0  0  0  0  0  0
   -3.2256   -0.0676    0.0000 O   0  0  0  0  0  0  0  0  0  0  0  0
   -0.8847    0.8550    0.0000 O   0  0  0  0  0  0  0  0  0  0  0  0
   -0.2449   -0.4905    0.0000 O   0  0  0  0  0  0  0  0  0  0  0  0
    3.2256   -0.6252    0.0000 O   0  0  0  0  0  0  0  0  0  0  0  0
  3  2  2  0
  4  2  1  0
  5  3  1  0
  6  4  2  0
  8  7  1  0
 13  7  1  0
 13  8  1  0
 13 11  1  0
 14  5  2  0
 14  6  1  0
 15  9  1  0
 15 10  1  0
 15 25  1  1
 16 12  1  6
 16 14  1  0
 17  9  1  1
 18 10  1  1
 19 17  1  0
 20 18  1  0
 20 19  1  0
 21 16  1  0
 22  1  1  0
 22 11  1  0
 22 17  1  0
 22 18  1  0
 23 12  1  0
 24 21  2  0
 25 21  1  0
 19 26  1  6
 20 26  1  6
M  CHG  1  22   1
M  END
>  <DRUGBANK_ID>  (1) 
DB09271

>  <COMMON_NAME>  (1) 
Cimetropium

>  <CAS_NUMBER>  (1) 
150521-16-7

>  <UNII>  (1) 
1N3H74AYTK

>  <SYNONYMS>  (1) 
Cimetropium cation; Cimetropium ion

$$$$
