
     RDKit          2D

 12 13  0  0  0  0  0  0  0  0999 V2000
   -1.0506   -1.6165    0.0000 C   0  0  0  0  0  0  0  0  0  0  0  0
   -0.3361   -1.2040    0.0000 C   0  0  0  0  0  0  0  0  0  0  0  0
   -0.3361   -0.3790    0.0000 C   0  0  0  0  0  0  0  0  0  0  0  0
   -1.0506    0.0334    0.0000 C   0  0  0  0  0  0  0  0  0  0  0  0
   -1.7652   -0.3790    0.0000 C   0  0  0  0  0  0  0  0  0  0  0  0
   -1.7652   -1.2040    0.0000 C   0  0  0  0  0  0  0  0  0  0  0  0
    0.4483   -0.1240    0.0000 C   0  0  0  0  0  0  0  0  0  0  0  0
    0.4483   -1.4589    0.0000 N   0  0  0  0  0  0  0  0  0  0  0  0
    0.9333   -0.7915    0.0000 C   0  0  0  0  0  0  0  0  0  0  0  0
    0.7033    0.6604    0.0000 C   0  0  0  0  0  0  0  0  0  0  0  0
    1.5102    0.8320    0.0000 C   0  0  0  0  0  0  0  0  0  0  0  0
    1.7651    1.6165    0.0000 N   0  0  0  0  0  0  0  0  0  0  0  0
  1  6  2  0
  2  1  1  0
  2  8  1  0
  3  2  2  0
  3  7  1  0
  3  4  1  0
  4  5  2  0
  5  6  1  0
  7  9  2  0
  7 10  1  0
  8  9  1  0
 10 11  1  0
 11 12  1  0
M  END
>  <DRUGBANK_ID>  (1) 
DB08653

>  <COMMON_NAME>  (1) 
Tryptamine

>  <CAS_NUMBER>  (1) 
61-54-1

>  <UNII>  (1) 
422ZU9N5TV

>  <SYNONYMS>  (1) 
1H-indole-3-ethanamine; 2-(3-indolyl)ethylamine; 3-(2-Aminoethyl)indole; Tryptamine

$$$$
