
     RDKit          2D

 20 20  0  0  0  0  0  0  0  0999 V2000
   -0.3572   -1.8562    0.0000 O   0  0  0  0  0  0  0  0  0  0  0  0
   -1.7861   -0.2062    0.0000 O   0  0  0  0  0  0  0  0  0  0  0  0
   -2.5007   -1.4437    0.0000 O   0  0  0  0  0  0  0  0  0  0  0  0
   -2.5007   -3.0938    0.0000 O   0  0  0  0  0  0  0  0  0  0  0  0
    1.0717    3.0938    0.0000 O   0  0  0  0  0  0  0  0  0  0  0  0
    2.5007    0.6187    0.0000 O   0  0  0  0  0  0  0  0  0  0  0  0
   -0.3572    3.0938    0.0000 O   0  0  0  0  0  0  0  0  0  0  0  0
   -0.3572    0.6187    0.0000 N   0  0  0  0  0  0  0  0  0  0  0  0
    1.0717    0.6187    0.0000 N   0  0  0  0  0  0  0  0  0  0  0  0
    1.7862    1.8562    0.0000 N   0  0  0  0  0  0  0  0  0  0  0  0
   -0.3572    2.2687    0.0000 N   0  0  0  0  0  0  0  0  0  0  0  0
   -1.0716   -1.4437    0.0000 C   0  0  0  0  0  0  0  0  0  0  0  0
   -1.0716   -0.6187    0.0000 C   0  0  0  0  0  0  0  0  0  0  0  0
   -1.7861   -1.8562    0.0000 C   0  0  0  0  0  0  0  0  0  0  0  0
   -0.3572   -0.2062    0.0000 C   0  0  0  0  0  0  0  0  0  0  0  0
   -1.7861   -2.6813    0.0000 C   0  0  0  0  0  0  0  0  0  0  0  0
    0.3572    1.0312    0.0000 C   0  0  0  0  0  0  0  0  0  0  0  0
    0.3572    1.8562    0.0000 C   0  0  0  0  0  0  0  0  0  0  0  0
    1.0717    2.2687    0.0000 C   0  0  0  0  0  0  0  0  0  0  0  0
    1.7862    1.0312    0.0000 C   0  0  0  0  0  0  0  0  0  0  0  0
  4 16  1  0
  5 19  2  0
  6 20  2  0
  7 11  2  0
  8 15  1  0
  8 17  1  0
  9 17  1  0
  9 20  1  0
 10 19  1  0
 10 20  1  0
 11 18  1  0
 12  1  1  6
 12 13  1  0
 12 14  1  0
 13  2  1  1
 13 15  1  0
 14  3  1  1
 14 16  1  0
 17 18  2  0
 18 19  1  0
M  END
>  <DRUGBANK_ID>  (1) 
DB04128

>  <SECONDARY_ACCESSION_NUMBERS>  (1) 
EXPT02045

>  <COMMON_NAME>  (1) 
5-Nitroso-6-ribityl-amino-2,4(1H,3H)-pyrimidinedione

>  <SYNONYMS>  (1) 
1-Deoxy-1-[(5-nitroso-2,6-dioxo-1,2,3,6-tetrahydro-4-pyrimidinyl)amino]-D-ribitol

$$$$
