
     RDKit          2D

 22 22  0  0  0  0  0  0  0  0999 V2000
   -0.3535    1.2416    0.0000 O   0  0  0  0  0  0  0  0  0  0  0  0
    0.3614   -0.8251    0.0000 O   0  0  0  0  0  0  0  0  0  0  0  0
    1.0686   -1.2337    0.0000 O   0  0  0  0  0  0  0  0  0  0  0  0
    2.4989   -1.2416    0.0000 O   0  0  0  0  0  0  0  0  0  0  0  0
    1.0765    0.4085    0.0000 N   0  0  0  0  0  0  0  0  0  0  0  0
   -1.0686   -0.8172    0.0000 N   0  0  0  0  0  0  0  0  0  0  0  0
    2.4989    0.4085    0.0000 C   0  0  0  0  0  0  0  0  0  0  0  0
    3.2140   -0.0078    0.0000 C   0  0  0  0  0  0  0  0  0  0  0  0
    1.7838    0.0000    0.0000 C   0  0  0  0  0  0  0  0  0  0  0  0
   -1.0686    0.0078    0.0000 C   0  0  0  0  0  0  0  0  0  0  0  0
   -0.3535    0.4165    0.0000 C   0  0  0  0  0  0  0  0  0  0  0  0
   -1.7838    0.4165    0.0000 C   0  0  0  0  0  0  0  0  0  0  0  0
    0.3614    0.0000    0.0000 C   0  0  0  0  0  0  0  0  0  0  0  0
    3.9291    0.4006    0.0000 C   0  0  0  0  0  0  0  0  0  0  0  0
    3.2140   -0.8329    0.0000 C   0  0  0  0  0  0  0  0  0  0  0  0
   -2.4989    0.0078    0.0000 C   0  0  0  0  0  0  0  0  0  0  0  0
    1.7838   -0.8251    0.0000 C   0  0  0  0  0  0  0  0  0  0  0  0
   -2.4989   -0.8172    0.0000 C   0  0  0  0  0  0  0  0  0  0  0  0
   -3.2139    0.4322    0.0000 C   0  0  0  0  0  0  0  0  0  0  0  0
   -3.2139   -1.2258    0.0000 C   0  0  0  0  0  0  0  0  0  0  0  0
   -3.9291    0.0078    0.0000 C   0  0  0  0  0  0  0  0  0  0  0  0
   -3.9291   -0.8172    0.0000 C   0  0  0  0  0  0  0  0  0  0  0  0
  2 13  2  0
  3 17  1  0
  4 17  2  0
  5  9  1  0
  5 13  1  0
  7  8  1  0
  8 14  1  0
  8 15  1  0
  9  7  1  1
  9 17  1  0
 10  6  1  6
 10 11  1  0
 10 12  1  0
 11  1  1  6
 11 13  1  0
 12 16  1  0
 16 18  2  0
 16 19  1  0
 18 20  1  0
 19 21  2  0
 20 22  2  0
 21 22  1  0
M  END
>  <DRUGBANK_ID>  (1) 
DB03424

>  <SECONDARY_ACCESSION_NUMBERS>  (1) 
EXPT00673

>  <COMMON_NAME>  (1) 
Ubenimex

>  <CAS_NUMBER>  (1) 
58970-76-6

>  <UNII>  (1) 
I0J33N5627

>  <SYNONYMS>  (1) 
Ubenimex; Ubenimexum

$$$$
