
     RDKit          2D

 29 31  0  0  0  0  0  0  0  0999 V2000
    4.2275   -0.1487    0.0000 C   0  0  0  0  0  0  0  0  0  0  0  0
    4.2272   -0.9713    0.0000 C   0  0  0  0  0  0  0  0  0  0  0  0
    4.9424   -1.3810    0.0000 C   0  0  0  0  0  0  0  0  0  0  0  0
    5.6563   -0.9658    0.0000 C   0  0  0  0  0  0  0  0  0  0  0  0
    5.6505   -0.1365    0.0000 C   0  0  0  0  0  0  0  0  0  0  0  0
    4.9348    0.2694    0.0000 C   0  0  0  0  0  0  0  0  0  0  0  0
    6.3729   -1.3746    0.0000 Br  0  0  0  0  0  0  0  0  0  0  0  0
    1.4802   -0.2945    0.0000 C   0  0  0  0  0  0  0  0  0  0  0  0
    1.4789   -1.1218    0.0000 C   0  0  0  0  0  0  0  0  0  0  0  0
    2.1939   -1.5347    0.0000 C   0  0  0  0  0  0  0  0  0  0  0  0
    2.9103   -1.1214    0.0000 C   0  0  0  0  0  0  0  0  0  0  0  0
    0.7642   -1.5338    0.0000 O   0  0  0  0  0  0  0  0  0  0  0  0
    0.0501   -1.1207    0.0000 C   0  0  0  0  0  0  0  0  0  0  0  0
   -0.6647   -1.5326    0.0000 C   0  0  0  0  0  0  0  0  0  0  0  0
   -1.3787   -1.1196    0.0000 C   0  0  0  0  0  0  0  0  0  0  0  0
   -2.0935   -1.5315    0.0000 C   0  0  0  0  0  0  0  0  0  0  0  0
   -2.8077   -1.1184    0.0000 C   0  0  0  0  0  0  0  0  0  0  0  0
   -3.5225   -1.5304    0.0000 C   0  0  0  0  0  0  0  0  0  0  0  0
   -4.2366   -1.1173    0.0000 N   0  0  0  0  0  0  0  0  0  0  0  0
   -4.9514   -1.5292    0.0000 C   0  0  0  0  0  0  0  0  0  0  0  0
   -4.2360   -0.2923    0.0000 C   0  0  0  0  0  0  0  0  0  0  0  0
   -5.6656   -1.1162    0.0000 C   0  0  0  0  0  0  0  0  0  0  0  0
   -6.3728   -1.5281    0.0000 C   0  0  0  0  0  0  0  0  0  0  0  0
    2.1921    0.1182    0.0000 C   0  0  0  0  0  0  0  0  0  0  0  0
    2.9069   -0.2899    0.0000 C   0  0  0  0  0  0  0  0  0  0  0  0
    3.5161    0.2637    0.0000 C   0  0  0  0  0  0  0  0  0  0  0  0
    3.1777    1.0142    0.0000 N   0  0  0  0  0  0  0  0  0  0  0  0
    2.3595    0.9242    0.0000 N   0  0  0  0  0  0  0  0  0  0  0  0
    1.8044    1.5347    0.0000 C   0  0  0  0  0  0  0  0  0  0  0  0
  1  2  2  0
  2  3  1  0
  3  4  2  0
  4  7  1  0
  4  5  1  0
  5  6  2  0
  6  1  1  0
  8  9  2  0
  9 10  1  0
  9 12  1  0
 10 11  2  0
 11 25  1  0
 12 13  1  0
 13 14  1  0
 14 15  1  0
 15 16  1  0
 16 17  1  0
 17 18  1  0
 18 19  1  0
 19 20  1  0
 19 21  1  0
 20 22  1  0
 22 23  2  0
 24 25  2  0
 24  8  1  0
 25 26  1  0
 26 27  2  0
 26  1  1  0
 27 28  1  0
 28 24  1  0
 28 29  1  0
M  END
>  <DRUGBANK_ID>  (1) 
DB03888

>  <SECONDARY_ACCESSION_NUMBERS>  (1) 
EXPT02737

>  <COMMON_NAME>  (1) 
N-Allyl-6-{[3-(4-bromophenyl)-1-methyl-1H-indazol-6-yl]oxy}-N-methyl-1-hexanamine

$$$$
