
     RDKit          2D

  5  4  0  0  0  0  0  0  0  0999 V2000
    0.3572   -0.2062    0.0000 C   0  0  0  0  0  0  0  0  0  0  0  0
    1.0718   -0.6187    0.0000 N   0  0  0  0  0  0  0  0  0  0  0  0
    0.3572    0.6187    0.0000 O   0  0  0  0  0  0  0  0  0  0  0  0
   -0.3572   -0.6187    0.0000 C   0  0  0  0  0  0  0  0  0  0  0  0
   -1.0717   -0.2062    0.0000 N   0  0  0  0  0  0  0  0  0  0  0  0
  1  2  1  0
  3  1  2  0
  4  1  1  0
  4  5  1  0
M  END
>  <DRUGBANK_ID>  (1) 
DB03636

>  <SECONDARY_ACCESSION_NUMBERS>  (1) 
EXPT01617

>  <COMMON_NAME>  (1) 
Glycinamide

>  <CAS_NUMBER>  (1) 
598-41-4

>  <UNII>  (1) 
4JDT453NWO

>  <SYNONYMS>  (1) 
Aminomethylamide; Glycine amide

$$$$
