
     RDKit          2D

  6  6  0  0  0  0  0  0  0  0999 V2000
    0.5678    1.9393    0.0000 N   0  0  0  0  0  0  0  0  0  0  0  0
    0.5678    1.1143    0.0000 C   0  0  0  0  0  0  0  0  0  0  0  0
    1.2352    0.6294    0.0000 N   0  0  0  0  0  0  0  0  0  0  0  0
    0.9803   -0.1553    0.0000 C   0  0  0  0  0  0  0  0  0  0  0  0
    0.1553   -0.1553    0.0000 C   0  0  0  0  0  0  0  0  0  0  0  0
   -0.0997    0.6294    0.0000 S   0  0  0  0  0  0  0  0  0  0  0  0
  1  2  1  0
  2  3  2  0
  2  6  1  0
  3  4  1  0
  4  5  1  0
  5  6  1  0
M  END
>  <DRUGBANK_ID>  (1) 
DB02335

>  <SECONDARY_ACCESSION_NUMBERS>  (1) 
EXPT00587

>  <COMMON_NAME>  (1) 
2-Aminothiazoline

>  <CAS_NUMBER>  (1) 
1779-81-3

>  <UNII>  (1) 
5JC2YZG56Q

$$$$
