
     RDKit          2D

 30 33  0  0  0  0  0  0  0  0999 V2000
   -0.7494   -1.9837    0.0000 C   0  0  0  0  0  0  0  0  0  0  0  0
   -1.4640   -2.3961    0.0000 C   0  0  0  0  0  0  0  0  0  0  0  0
   -2.1784   -1.9837    0.0000 C   0  0  0  0  0  0  0  0  0  0  0  0
   -2.8929   -2.3961    0.0000 C   0  0  0  0  0  0  0  0  0  0  0  0
   -3.6074   -1.1587    0.0000 C   0  0  0  0  0  0  0  0  0  0  0  0
   -2.8929   -0.7462    0.0000 C   0  0  0  0  0  0  0  0  0  0  0  0
   -2.1784   -1.1587    0.0000 C   0  0  0  0  0  0  0  0  0  0  0  0
   -2.1784   -0.3337    0.0000 C   0  0  0  0  0  0  0  0  0  0  0  0
   -0.7494    0.4912    0.0000 C   0  0  0  0  0  0  0  0  0  0  0  0
    1.2345   -0.3337    0.0000 C   0  0  0  0  0  0  0  0  0  0  0  0
    0.7496   -1.0011    0.0000 C   0  0  0  0  0  0  0  0  0  0  0  0
   -1.4640   -0.7462    0.0000 C   0  0  0  0  0  0  0  0  0  0  0  0
   -0.0350   -0.7462    0.0000 C   0  0  0  0  0  0  0  0  0  0  0  0
   -0.7494   -1.1587    0.0000 C   0  0  0  0  0  0  0  0  0  0  0  0
   -0.0350    0.0787    0.0000 C   0  0  0  0  0  0  0  0  0  0  0  0
   -0.0350    0.9037    0.0000 C   0  0  0  0  0  0  0  0  0  0  0  0
    0.7496    0.3337    0.0000 C   0  0  0  0  0  0  0  0  0  0  0  0
   -3.6074   -1.9837    0.0000 C   0  0  0  0  0  0  0  0  0  0  0  0
   -4.3220   -2.3962    0.0000 O   0  0  0  0  0  0  0  0  0  0  0  0
   -1.4640    0.0787    0.0000 C   0  0  0  0  0  0  0  0  0  0  0  0
    0.7496    1.1587    0.0000 C   0  0  0  0  0  0  0  0  0  0  0  0
    0.0351    1.5712    0.0000 O   0  0  0  0  0  0  0  0  0  0  0  0
    1.4641    1.5712    0.0000 C   0  0  0  0  0  0  0  0  0  0  0  0
    2.1786    1.1587    0.0000 O   0  0  0  0  0  0  0  0  0  0  0  0
    2.8931    1.5712    0.0000 C   0  0  0  0  0  0  0  0  0  0  0  0
    2.8931    2.3962    0.0000 O   0  0  0  0  0  0  0  0  0  0  0  0
    3.6075    1.1587    0.0000 C   0  0  0  0  0  0  0  0  0  0  0  0
    4.3220    1.5712    0.0000 C   0  0  0  0  0  0  0  0  0  0  0  0
    3.6075    0.3337    0.0000 C   0  0  0  0  0  0  0  0  0  0  0  0
    4.3220    0.7462    0.0000 C   0  0  0  0  0  0  0  0  0  0  0  0
  1  2  1  0
  2  3  1  0
  3  4  2  0
  3  7  1  0
  4 18  1  0
  5  6  1  0
  6  7  1  0
  7  8  1  1
  7 12  1  0
  9 15  1  0
 10 11  1  0
 13 11  1  1
 12 20  1  1
 14  1  1  6
 14 12  1  0
 14 13  1  0
 15 17  1  0
 15 13  1  0
 15 16  1  1
 17 10  1  0
 17 21  1  1
 18  5  1  0
 18 19  2  0
 20  9  1  0
 21 23  1  0
 21 22  2  0
 23 24  1  0
 24 25  1  0
 25 26  2  0
 25 27  1  0
 27 28  1  0
 27 29  1  0
 27 30  1  0
M  END
>  <DRUGBANK_ID>  (1) 
DB01134

>  <SECONDARY_ACCESSION_NUMBERS>  (1) 
APRD00709

>  <COMMON_NAME>  (1) 
Desoxycorticosterone pivalate

>  <CAS_NUMBER>  (1) 
808-48-0

>  <UNII>  (1) 
16665T4A2X

>  <SYNONYMS>  (1) 
11-deoxycorticosterone pivalate; Deoxycorticosterone pivalate; Deoxycorticosterone trimethylacetate; Deoxycortone pivalate; Deoxycortone trimethylacetate; Desoxycorticosterone pivalate; Desoxycorticosterone trimethylacetate; Desoxycortone pivalate; DOCP; DTMA

$$$$
