4MU
     RDKit          2D

 13 14  0  0  0  0  0  0  0  0999 V2000
   -0.7173   -0.8540    0.0000 C   0  0  0  0  0  0  0  0  0  0  0  0
   -1.4317   -0.4415    0.0000 C   0  0  0  0  0  0  0  0  0  0  0  0
   -1.4317    0.3835    0.0000 C   0  0  0  0  0  0  0  0  0  0  0  0
    1.4262    0.3835    0.0000 C   0  0  0  0  0  0  0  0  0  0  0  0
    1.4262   -0.4415    0.0000 C   0  0  0  0  0  0  0  0  0  0  0  0
    0.7117   -0.8540    0.0000 C   0  0  0  0  0  0  0  0  0  0  0  0
    2.1406    0.7960    0.0000 O   0  0  0  0  0  0  0  0  0  0  0  0
    0.7117    0.7960    0.0000 O   0  0  0  0  0  0  0  0  0  0  0  0
    0.7117   -1.6790    0.0000 C   0  0  0  0  0  0  0  0  0  0  0  0
   -0.0028   -0.4415    0.0000 C   0  0  0  0  0  0  0  0  0  0  0  0
   -0.0028    0.3835    0.0000 C   0  0  0  0  0  0  0  0  0  0  0  0
   -0.7173    0.7960    0.0000 C   0  0  0  0  0  0  0  0  0  0  0  0
   -2.1462    0.7960    0.0000 O   0  0  0  0  0  0  0  0  0  0  0  0
  1  2  2  0
  1 10  1  0
  2  3  1  0
  3 12  2  0
  3 13  1  0
  4  5  1  0
  4  7  2  0
  4  8  1  0
  5  6  2  0
  6  9  1  0
  6 10  1  0
  8 11  1  0
 10 11  2  0
 11 12  1  0
M  END
>  <DRUGBANK_ID>  (1) 
DB07118

>  <COMMON_NAME>  (1) 
Hymecromone

>  <CAS_NUMBER>  (1) 
90-33-5

>  <UNII>  (1) 
3T5NG4Q468

>  <SYNONYMS>  (1) 
4-methylumbelliferone; himecromona; Hymecromone

$$$$
