
     RDKit          2D

 15 14  0  0  0  0  0  0  0  0999 V2000
    0.5401    1.7150    0.0000 C   0  0  0  0  0  0  0  0  0  0  0  0
   -0.5401   -1.7150    0.0000 C   0  0  0  0  0  0  0  0  0  0  0  0
   -0.0000    1.0914    0.0000 C   0  0  0  0  0  0  0  0  0  0  0  0
    1.3502    1.5591    0.0000 C   0  0  0  0  0  0  0  0  0  0  0  0
   -1.3502   -1.5591    0.0000 C   0  0  0  0  0  0  0  0  0  0  0  0
    0.0000   -1.0914    0.0000 C   0  0  0  0  0  0  0  0  0  0  0  0
   -1.3502    0.6236    0.0000 C   0  0  0  0  0  0  0  0  0  0  0  0
    1.0802    0.1559    0.0000 C   0  0  0  0  0  0  0  0  0  0  0  0
   -1.0802   -0.1559    0.0000 C   0  0  0  0  0  0  0  0  0  0  0  0
    1.3502   -0.6236    0.0000 C   0  0  0  0  0  0  0  0  0  0  0  0
   -0.8101    1.2473    0.0000 N   0  0  0  0  0  0  0  0  0  0  0  0
    1.6203    0.7796    0.0000 N   0  0  0  0  0  0  0  0  0  0  0  0
   -1.6203   -0.7796    0.0000 N   0  0  0  0  0  0  0  0  0  0  0  0
    0.8101   -1.2473    0.0000 N   0  0  0  0  0  0  0  0  0  0  0  0
    3.7417    0.0000    0.0000 Cu  0  0  0  0  0 15  0  0  0  0  0  0
  3  1  1  0
  4  1  1  0
  5  2  1  0
  6  2  1  0
  9  7  1  0
 10  8  1  0
 11  3  1  0
 11  7  1  0
 12  4  1  0
 12  8  1  0
 13  5  1  0
 13  9  1  0
 14  6  1  0
 14 10  1  0
M  END
>  <DRUGBANK_ID>  (1) 
DB03189

>  <SECONDARY_ACCESSION_NUMBERS>  (1) 
EXPT02191

>  <COMMON_NAME>  (1) 
Cu-Cyclam

$$$$
