
     RDKit          2D

 25 27  0  0  0  0  0  0  0  0999 V2000
   -0.7144   -1.0312    0.0000 C   0  0  0  0  0  0  0  0  0  0  0  0
    0.0000   -1.4437    0.0000 C   0  0  0  0  0  0  0  0  0  0  0  0
   -1.4290   -1.4437    0.0000 C   0  0  0  0  0  0  0  0  0  0  0  0
   -0.7144   -0.2062    0.0000 C   0  0  0  0  0  0  0  0  0  0  0  0
    0.7144   -0.2062    0.0000 C   0  0  0  0  0  0  0  0  0  0  0  0
    0.7144   -1.0313    0.0000 C   0  0  0  0  0  0  0  0  0  0  0  0
    0.0000    0.2062    0.0000 O   0  0  0  0  0  0  0  0  0  0  0  0
   -2.1434   -1.0312    0.0000 C   0  0  0  0  0  0  0  0  0  0  0  0
   -1.4289    0.2062    0.0000 C   0  0  0  0  0  0  0  0  0  0  0  0
   -2.1434   -0.2062    0.0000 C   0  0  0  0  0  0  0  0  0  0  0  0
    1.4289    0.2062    0.0000 C   0  0  0  0  0  0  0  0  0  0  0  0
    2.1434   -0.2062    0.0000 C   0  0  0  0  0  0  0  0  0  0  0  0
    2.8579    0.2062    0.0000 C   0  0  0  0  0  0  0  0  0  0  0  0
    0.0000   -2.2687    0.0000 O   0  0  0  0  0  0  0  0  0  0  0  0
    2.8579    1.0312    0.0000 C   0  0  0  0  0  0  0  0  0  0  0  0
    1.4290    1.0312    0.0000 C   0  0  0  0  0  0  0  0  0  0  0  0
    2.1434    1.4437    0.0000 C   0  0  0  0  0  0  0  0  0  0  0  0
   -1.4290   -2.2687    0.0000 O   0  0  0  0  0  0  0  0  0  0  0  0
   -2.8579   -1.4437    0.0000 O   0  0  0  0  0  0  0  0  0  0  0  0
   -2.8579    0.2062    0.0000 O   0  0  0  0  0  0  0  0  0  0  0  0
    3.5724   -0.2062    0.0000 O   0  0  0  0  0  0  0  0  0  0  0  0
    3.5724    1.4437    0.0000 O   0  0  0  0  0  0  0  0  0  0  0  0
   -3.5724   -1.0311    0.0000 C   0  0  0  0  0  0  0  0  0  0  0  0
    3.5724   -1.0313    0.0000 C   0  0  0  0  0  0  0  0  0  0  0  0
    3.5724    2.2687    0.0000 C   0  0  0  0  0  0  0  0  0  0  0  0
  2  1  1  0
  3  1  2  0
  4  1  1  0
  5  6  2  0
  5  7  1  0
  6  2  1  0
  7  4  1  0
  8  3  1  0
  9  4  2  0
 10  9  1  0
 10  8  2  0
 11  5  1  0
 12 11  2  0
 13 12  1  0
 13 15  2  0
 14  2  2  0
 15 17  1  0
 16 11  1  0
 17 16  2  0
 18  3  1  0
 19  8  1  0
 20 10  1  0
 21 13  1  0
 22 15  1  0
 23 19  1  0
 24 21  1  0
 25 22  1  0
M  END
>  <DRUGBANK_ID>  (1) 
DB16885

>  <COMMON_NAME>  (1) 
Eupatilin

>  <CAS_NUMBER>  (1) 
22368-21-4

>  <UNII>  (1) 
4D58O05490

$$$$
