
     RDKit          2D

 31 34  0  0  0  0  0  0  0  0999 V2000
   -3.7751    0.4729    0.0000 C   0  0  0  0  0  0  0  0  0  0  0  0
   -3.7762   -0.3544    0.0000 N   0  0  0  0  0  0  0  0  0  0  0  0
   -3.0613   -0.7673    0.0000 C   0  0  0  0  0  0  0  0  0  0  0  0
   -3.0632    0.8857    0.0000 C   0  0  0  0  0  0  0  0  0  0  0  0
   -2.3477    0.4765    0.0000 C   0  0  0  0  0  0  0  0  0  0  0  0
   -2.3475   -0.3544    0.0000 C   0  0  0  0  0  0  0  0  0  0  0  0
   -1.5569   -0.6111    0.0000 N   0  0  0  0  0  0  0  0  0  0  0  0
   -1.0686    0.0614    0.0000 C   0  0  0  0  0  0  0  0  0  0  0  0
   -1.5573    0.7336    0.0000 C   0  0  0  0  0  0  0  0  0  0  0  0
   -1.1414    1.4450    0.0000 C   0  0  0  0  0  0  0  0  0  0  0  0
   -0.3164    1.4405    0.0000 C   0  0  0  0  0  0  0  0  0  0  0  0
   -1.5499    2.1618    0.0000 O   0  0  0  0  0  0  0  0  0  0  0  0
    0.0921    0.7238    0.0000 N   0  0  0  0  0  0  0  0  0  0  0  0
    0.1000    2.1527    0.0000 O   0  0  0  0  0  0  0  0  0  0  0  0
   -0.3272    0.0120    0.0000 C   0  0  0  0  0  0  0  0  0  0  0  0
    0.0777   -0.7026    0.0000 C   0  0  0  0  0  0  0  0  0  0  0  0
    0.9031   -0.7114    0.0000 N   0  0  0  0  0  0  0  0  0  0  0  0
    1.3219    0.0006    0.0000 C   0  0  0  0  0  0  0  0  0  0  0  0
    0.9151    0.7216    0.0000 C   0  0  0  0  0  0  0  0  0  0  0  0
    1.3091   -1.4297    0.0000 C   0  0  0  0  0  0  0  0  0  0  0  0
    0.8899   -2.1403    0.0000 O   0  0  0  0  0  0  0  0  0  0  0  0
    2.1340   -1.4372    0.0000 C   0  0  0  0  0  0  0  0  0  0  0  0
    2.5371   -2.1538    0.0000 C   0  0  0  0  0  0  0  0  0  0  0  0
    3.3614   -2.1618    0.0000 C   0  0  0  0  0  0  0  0  0  0  0  0
    3.7814   -1.4506    0.0000 C   0  0  0  0  0  0  0  0  0  0  0  0
    3.3711   -0.7299    0.0000 C   0  0  0  0  0  0  0  0  0  0  0  0
    2.5482   -0.7255    0.0000 C   0  0  0  0  0  0  0  0  0  0  0  0
   -3.0657    1.7107    0.0000 O   0  0  0  0  0  0  0  0  0  0  0  0
   -3.7814    2.1212    0.0000 C   0  0  0  0  0  0  0  0  0  0  0  0
   -3.0611   -1.5924    0.0000 O   0  0  0  0  0  0  0  0  0  0  0  0
   -2.3465   -2.0048    0.0000 C   0  0  0  0  0  0  0  0  0  0  0  0
  1  2  2  0
  2  3  1  0
  3  6  2  0
  3 30  1  0
  4  1  1  0
  4 28  1  0
  5  4  2  0
  5  6  1  0
  6  7  1  0
  7  8  1  0
  8  9  2  0
  9  5  1  0
  9 10  1  0
 10 11  1  0
 10 12  2  0
 11 13  1  0
 11 14  2  0
 13 19  1  0
 13 15  1  0
 15 16  1  0
 16 17  1  0
 17 18  1  0
 17 20  1  0
 18 19  1  0
 20 21  2  0
 20 22  1  0
 22 23  2  0
 23 24  1  0
 24 25  2  0
 25 26  1  0
 26 27  2  0
 27 22  1  0
 28 29  1  0
 30 31  1  0
M  END
>  <DRUGBANK_ID>  (1) 
DB05532

>  <COMMON_NAME>  (1) 
BMS-488043

>  <CAS_NUMBER>  (1) 
452296-83-2

>  <UNII>  (1) 
MKS21EJ435

$$$$
