
     RDKit          2D

 32 36  0  0  0  0  0  0  0  0999 V2000
    0.5741   -0.4816    0.0000 C   0  0  0  0  0  0  0  0  0  0  0  0
   -0.1430   -0.8820    0.0000 C   0  0  0  0  0  0  0  0  0  0  0  0
   -1.5638   -0.8820    0.0000 C   0  0  0  0  0  0  0  0  0  0  0  0
    0.5741    0.3365    0.0000 C   0  0  0  0  0  0  0  0  0  0  0  0
   -0.8511   -0.4816    0.0000 C   0  0  0  0  0  0  0  0  0  0  0  0
   -1.5638   -1.7047    0.0000 C   0  0  0  0  0  0  0  0  0  0  0  0
    1.3350    0.7675    0.0000 C   0  0  0  0  0  0  0  0  0  0  0  0
   -2.2941   -2.1050    0.0000 C   0  0  0  0  0  0  0  0  0  0  0  0
    1.3350    1.5594    0.0000 C   0  0  0  0  0  0  0  0  0  0  0  0
    2.0082    0.3540    0.0000 C   0  0  0  0  0  0  0  0  0  0  0  0
   -0.1430   -1.7047    0.0000 C   0  0  0  0  0  0  0  0  0  0  0  0
    1.3528   -0.8644    0.0000 C   0  0  0  0  0  0  0  0  0  0  0  0
   -0.1430    0.7499    0.0000 C   0  0  0  0  0  0  0  0  0  0  0  0
   -2.2941   -0.4816    0.0000 C   0  0  0  0  0  0  0  0  0  0  0  0
   -0.8511    0.3365    0.0000 C   0  0  0  0  0  0  0  0  0  0  0  0
   -0.8511   -2.1050    0.0000 C   0  0  0  0  0  0  0  0  0  0  0  0
    0.6576    2.0917    0.0000 C   0  0  0  0  0  0  0  0  0  0  0  0
    2.2809    1.7706    0.0000 C   0  0  0  0  0  0  0  0  0  0  0  0
   -3.0154   -1.7047    0.0000 C   0  0  0  0  0  0  0  0  0  0  0  0
    2.0082   -0.4685    0.0000 C   0  0  0  0  0  0  0  0  0  0  0  0
    2.7031    0.9215    0.0000 C   0  0  0  0  0  0  0  0  0  0  0  0
   -3.0154   -0.8820    0.0000 C   0  0  0  0  0  0  0  0  0  0  0  0
    0.6576    2.9099    0.0000 C   0  0  0  0  0  0  0  0  0  0  0  0
    0.5916   -1.5638    0.0000 C   0  0  0  0  0  0  0  0  0  0  0  0
   -0.1606   -0.0022    0.0000 C   0  0  0  0  0  0  0  0  0  0  0  0
   -1.5594    0.3540    0.0000 C   0  0  0  0  0  0  0  0  0  0  0  0
   -1.9861   -2.9099    0.0000 C   0  0  0  0  0  0  0  0  0  0  0  0
   -3.0595   -2.8571    0.0000 C   0  0  0  0  0  0  0  0  0  0  0  0
   -3.7986   -2.0478    0.0000 O   0  0  0  0  0  0  0  0  0  0  0  0
    2.9364   -0.1121    0.0000 C   0  0  0  0  0  0  0  0  0  0  0  0
    3.7986    0.3540    0.0000 O   0  0  0  0  0  0  0  0  0  0  0  0
   -0.1430    1.7442    0.0000 C   0  0  0  0  0  0  0  0  0  0  0  0
  1 24  1  6
  2  1  1  0
  2 25  1  1
  3  5  1  0
  3 26  1  1
  3  6  1  0
  4  1  1  0
  5  2  1  0
  5 15  1  1
  6 16  1  1
  7  4  1  0
  7 10  1  0
  8  6  1  0
  7  9  1  1
  9 17  1  6
 10 20  1  0
 10 30  1  1
 11  2  1  0
 12  1  1  0
  4 13  1  6
 14  3  1  0
 15 13  1  0
 16 11  1  0
 18  9  1  0
 19  8  1  0
 19 29  1  1
 20 12  1  0
 21 10  1  0
 21 18  1  0
 22 14  1  0
 22 19  1  0
 23 17  2  0
 27  8  1  0
 28  8  1  0
 31 30  1  0
 32 17  1  0
M  END
>  <DRUGBANK_ID>  (1) 
DB16890

>  <COMMON_NAME>  (1) 
Betulin

>  <CAS_NUMBER>  (1) 
473-98-3

>  <UNII>  (1) 
6W70HN7X7O

>  <SYNONYMS>  (1) 
Betuline; Betulinic alcohol; Betulinol

$$$$
