TFQ
     RDKit          2D

 17 17  0  0  0  0  0  0  0  0999 V2000
    2.8556    0.5721    0.0000 F   0  0  0  0  0  0  0  0  0  0  0  0
    2.1412    0.9846    0.0000 C   0  0  0  0  0  0  0  0  0  0  0  0
    1.7287    0.2701    0.0000 F   0  0  0  0  0  0  0  0  0  0  0  0
    2.5537    1.6991    0.0000 F   0  0  0  0  0  0  0  0  0  0  0  0
    1.4267    1.3971    0.0000 C   0  0  0  0  0  0  0  0  0  0  0  0
    0.7122    0.9846    0.0000 C   0  0  0  0  0  0  0  0  0  0  0  0
   -0.0023    1.3971    0.0000 C   0  0  0  0  0  0  0  0  0  0  0  0
   -0.7167    0.9846    0.0000 C   0  0  0  0  0  0  0  0  0  0  0  0
    0.7122    0.1596    0.0000 C   0  0  0  0  0  0  0  0  0  0  0  0
   -0.0023   -0.2529    0.0000 C   0  0  0  0  0  0  0  0  0  0  0  0
   -0.7167    0.1596    0.0000 C   0  0  0  0  0  0  0  0  0  0  0  0
   -1.4312   -0.2529    0.0000 C   0  0  0  0  0  0  0  0  0  0  0  0
   -1.4312   -1.0779    0.0000 C   0  0  0  0  0  0  0  0  0  0  0  0
   -0.7167   -1.4904    0.0000 N   0  0  0  0  0  0  0  0  0  0  0  0
   -2.1457   -1.4904    0.0000 C   0  0  0  0  0  0  0  0  0  0  0  0
   -2.1457   -2.3154    0.0000 O   0  0  0  0  0  0  0  0  0  0  0  0
   -2.8601   -1.0779    0.0000 O   0  0  0  0  0  0  0  0  0  0  0  0
  1  2  1  0
  2  4  1  0
  2  3  1  0
  2  5  1  0
  5  6  1  0
  6  9  2  0
  6  7  1  0
  7  8  2  0
  8 11  1  0
  9 10  1  0
 10 11  2  0
 11 12  1  0
 12 13  1  0
 13 15  1  0
 13 14  1  6
 15 16  2  0
 15 17  1  0
M  END
>  <DRUGBANK_ID>  (1) 
DB08617

>  <COMMON_NAME>  (1) 
4-(2,2,2-TRIFLUOROETHYL)-L-PHENYLALANINE

$$$$
