
     RDKit          2D

 23 25  0  0  0  0  0  0  0  0999 V2000
    2.8851    0.1368    0.0000 Cl  0  0  0  0  0  0  0  0  0  0  0  0
   -0.0272   -0.6682    0.0000 S   0  0  0  0  0  0  0  0  0  0  0  0
    0.6872   -1.0807    0.0000 O   0  0  0  0  0  0  0  0  0  0  0  0
   -1.4561    1.8067    0.0000 O   0  0  0  0  0  0  0  0  0  0  0  0
   -0.0272    1.8067    0.0000 N   0  0  0  0  0  0  0  0  0  0  0  0
   -0.7416   -1.0807    0.0000 C   0  0  0  0  0  0  0  0  0  0  0  0
   -0.7416   -1.9057    0.0000 C   0  0  0  0  0  0  0  0  0  0  0  0
   -1.4561   -0.6682    0.0000 C   0  0  0  0  0  0  0  0  0  0  0  0
   -1.4561   -2.3182    0.0000 C   0  0  0  0  0  0  0  0  0  0  0  0
   -2.1706   -1.0807    0.0000 C   0  0  0  0  0  0  0  0  0  0  0  0
   -2.1706   -1.9057    0.0000 C   0  0  0  0  0  0  0  0  0  0  0  0
   -0.0272    0.1567    0.0000 C   0  0  0  0  0  0  0  0  0  0  0  0
   -0.7416    0.5692    0.0000 C   0  0  0  0  0  0  0  0  0  0  0  0
    0.6872    0.5692    0.0000 C   0  0  0  0  0  0  0  0  0  0  0  0
   -1.4561    0.1567    0.0000 C   0  0  0  0  0  0  0  0  0  0  0  0
    0.6872    1.3942    0.0000 C   0  0  0  0  0  0  0  0  0  0  0  0
   -0.7416    1.3942    0.0000 C   0  0  0  0  0  0  0  0  0  0  0  0
   -2.1706    0.5692    0.0000 C   0  0  0  0  0  0  0  0  0  0  0  0
    1.4247    0.1281    0.0000 C   0  0  0  0  0  0  0  0  0  0  0  0
    1.4247    1.8353    0.0000 C   0  0  0  0  0  0  0  0  0  0  0  0
    2.1722    0.5520    0.0000 C   0  0  0  0  0  0  0  0  0  0  0  0
   -2.8851    0.1567    0.0000 C   0  0  0  0  0  0  0  0  0  0  0  0
    2.1722    1.4114    0.0000 C   0  0  0  0  0  0  0  0  0  0  0  0
  1 21  1  0
  2  3  2  0
  2  6  1  0
  2 12  1  0
  4 17  2  0
  5 16  1  0
  5 17  1  0
  6  7  1  0
  6  8  1  0
  7  9  1  0
  8 10  1  0
  9 11  1  0
 10 11  1  0
 12 13  2  0
 12 14  1  0
 13 15  1  0
 13 17  1  0
 14 16  2  0
 14 19  1  0
 15 18  1  0
 16 20  1  0
 18 22  1  0
 19 21  2  0
 20 23  2  0
 21 23  1  0
M  END
>  <DRUGBANK_ID>  (1) 
DB07869

>  <COMMON_NAME>  (1) 
6-Chloro-4-[(R)-cyclohexylsulfinyl]-3-propyl-2(1H)-quinolinone

$$$$
