
     RDKit          2D

 12 12  0  0  0  0  0  0  0  0999 V2000
    0.4103   -1.0709    0.0000 C   0  0  0  0  0  0  0  0  0  0  0  0
    0.8257   -0.3553    0.0000 C   0  0  0  0  0  0  0  0  0  0  0  0
    0.4103    0.3553    0.0000 C   0  0  0  0  0  0  0  0  0  0  0  0
   -0.4153    0.3553    0.0000 C   0  0  0  0  0  0  0  0  0  0  0  0
   -0.8257   -0.3553    0.0000 C   0  0  0  0  0  0  0  0  0  0  0  0
   -0.4153   -1.0709    0.0000 C   0  0  0  0  0  0  0  0  0  0  0  0
   -0.8257   -1.7864    0.0000 C   0  0  0  0  0  0  0  0  0  0  0  0
   -0.4153   -2.5021    0.0000 O   0  0  0  0  0  0  0  0  0  0  0  0
    0.8257    1.0709    0.0000 N   0  0  0  0  0  0  0  0  0  0  0  0
    0.4103    1.7865    0.0000 C   0  0  0  0  0  0  0  0  0  0  0  0
    0.8257    2.5021    0.0000 N   0  0  0  0  0  0  0  0  0  0  0  0
   -0.4153    1.7865    0.0000 N   0  0  0  0  0  0  0  0  0  0  0  0
  1  2  2  0
  1  6  1  0
  2  3  1  0
  3  4  2  0
  3  9  1  0
  4  5  1  0
  5  6  2  0
  6  7  1  0
  7  8  1  0
  9 10  1  0
 10 11  2  0
 10 12  1  0
M  END
>  <DRUGBANK_ID>  (1) 
DB06900

>  <COMMON_NAME>  (1) 
1-[4-(hydroxymethyl)phenyl]guanidine

$$$$
