NEZ
     RDKit          2D

 24 27  0  0  0  0  0  0  0  0999 V2000
   -0.0008   -0.0133    0.0000 C   0  0  0  0  0  0  0  0  0  0  0  0
   -0.0008   -0.8383    0.0000 C   0  0  0  0  0  0  0  0  0  0  0  0
    0.7137   -1.2508    0.0000 C   0  0  0  0  0  0  0  0  0  0  0  0
    1.4282   -0.8383    0.0000 N   0  0  0  0  0  0  0  0  0  0  0  0
    2.1426   -1.2508    0.0000 C   0  0  0  0  0  0  0  0  0  0  0  0
    2.8571   -0.8383    0.0000 N   0  0  0  0  0  0  0  0  0  0  0  0
    2.1426   -2.0758    0.0000 N   0  0  0  0  0  0  0  0  0  0  0  0
    1.4282   -2.4883    0.0000 C   0  0  0  0  0  0  0  0  0  0  0  0
    1.4282   -3.3133    0.0000 O   0  0  0  0  0  0  0  0  0  0  0  0
    0.7137   -2.0758    0.0000 C   0  0  0  0  0  0  0  0  0  0  0  0
   -0.0008   -2.4883    0.0000 C   0  0  0  0  0  0  0  0  0  0  0  0
   -0.7152   -2.0758    0.0000 C   0  0  0  0  0  0  0  0  0  0  0  0
   -1.4999   -2.3307    0.0000 N   0  0  0  0  0  0  0  0  0  0  0  0
   -1.9848   -1.6633    0.0000 C   0  0  0  0  0  0  0  0  0  0  0  0
   -1.4999   -0.9959    0.0000 N   0  0  0  0  0  0  0  0  0  0  0  0
   -0.7152   -1.2508    0.0000 C   0  0  0  0  0  0  0  0  0  0  0  0
   -0.7152    0.3992    0.0000 C   0  0  0  0  0  0  0  0  0  0  0  0
   -0.7152    1.2242    0.0000 C   0  0  0  0  0  0  0  0  0  0  0  0
   -1.4297    1.6367    0.0000 C   0  0  0  0  0  0  0  0  0  0  0  0
   -1.4297    2.4617    0.0000 C   0  0  0  0  0  0  0  0  0  0  0  0
   -0.7152    2.8742    0.0000 C   0  0  0  0  0  0  0  0  0  0  0  0
   -0.7152    3.6992    0.0000 C   0  0  0  0  0  0  0  0  0  0  0  0
   -0.0008    2.4617    0.0000 C   0  0  0  0  0  0  0  0  0  0  0  0
   -0.0008    1.6367    0.0000 C   0  0  0  0  0  0  0  0  0  0  0  0
  1  2  1  0
  1 17  1  0
  2  3  2  0
  2 16  1  0
  3  4  1  0
  3 10  1  0
  4  5  2  0
  5  6  1  0
  5  7  1  0
  7  8  1  0
  8  9  2  0
  8 10  1  0
 10 11  2  0
 11 12  1  0
 12 13  1  0
 12 16  2  0
 13 14  1  0
 14 15  2  0
 15 16  1  0
 17 18  1  0
 18 19  2  0
 18 24  1  0
 19 20  1  0
 20 21  2  0
 21 22  1  0
 21 23  1  0
 23 24  2  0
M  END
>  <DRUGBANK_ID>  (1) 
DB08268

>  <COMMON_NAME>  (1) 
6-AMINO-4-[2-(4-METHYLPHENYL)ETHYL]-1,7-DIHYDRO-8H-IMIDAZO[4,5-G]QUINAZOLIN-8-ONE

$$$$
