
     RDKit          2D

 15 17  0  0  0  0  0  0  0  0999 V2000
   -1.0716   -1.4437    0.0000 C   0  0  0  0  0  0  0  0  0  0  0  0
   -1.7861   -1.0312    0.0000 C   0  0  0  0  0  0  0  0  0  0  0  0
   -1.7861   -0.2062    0.0000 C   0  0  0  0  0  0  0  0  0  0  0  0
   -1.0716    0.2062    0.0000 C   0  0  0  0  0  0  0  0  0  0  0  0
    0.3572    1.0312    0.0000 C   0  0  0  0  0  0  0  0  0  0  0  0
    1.0717    1.4437    0.0000 C   0  0  0  0  0  0  0  0  0  0  0  0
    1.7861    1.0312    0.0000 C   0  0  0  0  0  0  0  0  0  0  0  0
    1.7861    0.2062    0.0000 C   0  0  0  0  0  0  0  0  0  0  0  0
    1.0717   -1.0312    0.0000 C   0  0  0  0  0  0  0  0  0  0  0  0
    0.3572   -1.4437    0.0000 C   0  0  0  0  0  0  0  0  0  0  0  0
   -0.3572   -0.2062    0.0000 C   0  0  0  0  0  0  0  0  0  0  0  0
    0.3572    0.2062    0.0000 C   0  0  0  0  0  0  0  0  0  0  0  0
    1.0717   -0.2062    0.0000 C   0  0  0  0  0  0  0  0  0  0  0  0
   -0.3572   -1.0312    0.0000 C   0  0  0  0  0  0  0  0  0  0  0  0
    1.7861   -1.4437    0.0000 N   0  0  0  0  0  0  0  0  0  0  0  0
  1 14  2  0
  2  1  1  0
  2  3  2  0
  3  4  1  0
  4 11  2  0
  5 12  2  0
  6  5  1  0
  7  8  1  0
  7  6  2  0
  8 13  2  0
  9 13  1  0
  9 10  2  0
 10 14  1  0
 12 11  1  0
 13 12  1  0
 14 11  1  0
 15  9  1  0
M  END
>  <DRUGBANK_ID>  (1) 
DB03369

>  <SECONDARY_ACCESSION_NUMBERS>  (1) 
EXPT00353

>  <COMMON_NAME>  (1) 
9-Aminophenanthrene

>  <CAS_NUMBER>  (1) 
947-73-9

>  <UNII>  (1) 
7M9M5KM2XY

>  <SYNONYMS>  (1) 
9-phenanthrenamine; 9-phenanthrylamine; phenanthren-9-amine; Phenanthren-9-ylamine

$$$$
