
     RDKit          2D

 26 27  0  0  0  0  0  0  0  0999 V2000
   -4.4589   -0.3074    0.0000 O   0  0  0  0  0  0  0  0  0  0  0  0
   -3.7444    0.1050    0.0000 C   0  0  0  0  0  0  0  0  0  0  0  0
   -3.0299   -0.3074    0.0000 C   0  0  0  0  0  0  0  0  0  0  0  0
   -3.0299   -1.1324    0.0000 C   0  0  0  0  0  0  0  0  0  0  0  0
   -3.7444   -1.5449    0.0000 O   0  0  0  0  0  0  0  0  0  0  0  0
   -2.3154    0.1050    0.0000 N   0  0  0  0  0  0  0  0  0  0  0  0
   -1.6010   -0.3074    0.0000 C   0  0  0  0  0  0  0  0  0  0  0  0
   -1.6010   -1.1324    0.0000 O   0  0  0  0  0  0  0  0  0  0  0  0
   -0.8865    0.1050    0.0000 C   0  0  0  0  0  0  0  0  0  0  0  0
   -0.8865    0.9300    0.0000 O   0  0  0  0  0  0  0  0  0  0  0  0
   -0.1720   -0.3074    0.0000 C   0  0  0  0  0  0  0  0  0  0  0  0
   -0.1720   -1.1324    0.0000 O   0  0  0  0  0  0  0  0  0  0  0  0
    0.5423    0.1050    0.0000 C   0  0  0  0  0  0  0  0  0  0  0  0
    0.6286    0.9255    0.0000 C   0  0  0  0  0  0  0  0  0  0  0  0
    0.0155    1.4775    0.0000 C   0  0  0  0  0  0  0  0  0  0  0  0
    1.4355    1.0970    0.0000 O   0  0  0  0  0  0  0  0  0  0  0  0
    1.8480    0.3825    0.0000 C   0  0  0  0  0  0  0  0  0  0  0  0
    1.2960   -0.2305    0.0000 N   0  0  0  0  0  0  0  0  0  0  0  0
    2.6685    0.2963    0.0000 C   0  0  0  0  0  0  0  0  0  0  0  0
    3.1535    0.9637    0.0000 C   0  0  0  0  0  0  0  0  0  0  0  0
    3.9739    0.8775    0.0000 C   0  0  0  0  0  0  0  0  0  0  0  0
    4.4589    1.5449    0.0000 Cl  0  0  0  0  0  0  0  0  0  0  0  0
    4.3095    0.1238    0.0000 C   0  0  0  0  0  0  0  0  0  0  0  0
    3.8246   -0.5435    0.0000 C   0  0  0  0  0  0  0  0  0  0  0  0
    3.0041   -0.4573    0.0000 C   0  0  0  0  0  0  0  0  0  0  0  0
    2.5192   -1.1247    0.0000 O   0  0  0  0  0  0  0  0  0  0  0  0
  1  2  1  0
  2  3  1  0
  3  4  1  0
  3  6  1  0
  4  5  1  0
  6  7  1  0
  7  8  2  0
  9  7  1  0
  9 10  1  1
 11  9  1  0
 11 12  1  6
 11 13  1  0
 13 14  1  0
 13 18  1  1
 14 15  1  6
 14 16  1  0
 16 17  1  0
 17 18  2  0
 17 19  1  0
 19 20  2  0
 19 25  1  0
 20 21  1  0
 21 22  1  0
 21 23  2  0
 23 24  1  0
 24 25  2  0
 25 26  1  0
M  END
>  <DRUGBANK_ID>  (1) 
DB15552

>  <COMMON_NAME>  (1) 
Leptazoline B

$$$$
