
     RDKit          2D

 28 27  0  0  0  0  0  0  0  0999 V2000
   -3.3509    0.3927    0.0000 O   0  0  0  0  0  0  0  0  0  0  0  0
   -3.3509   -0.4323    0.0000 C   0  0  0  0  0  0  0  0  0  0  0  0
   -2.6388   -0.8407    0.0000 C   0  0  0  0  0  0  0  0  0  0  0  0
   -2.6388    0.8094    0.0000 C   0  0  0  0  0  0  0  0  0  0  0  0
   -1.9268    0.3927    0.0000 C   0  0  0  0  0  0  0  0  0  0  0  0
   -1.9303   -0.4323    0.0000 C   0  0  0  0  0  0  0  0  0  0  0  0
   -1.2214   -0.8456    0.0000 O   0  0  0  0  0  0  0  0  0  0  0  0
   -1.2144    0.8045    0.0000 O   0  0  0  0  0  0  0  0  0  0  0  0
   -2.6467    1.6345    0.0000 C   0  0  0  0  0  0  0  0  0  0  0  0
    0.2077   -0.0156    0.0000 Fe  0  0  0  0  0 15  0  0  0  0  0  0
    2.6443    2.6735    0.0000 O   0  0  0  0  0  0  0  0  0  0  0  0
    1.9352    3.0957    0.0000 C   0  0  0  0  0  0  0  0  0  0  0  0
    1.2201    2.6927    0.0000 C   0  0  0  0  0  0  0  0  0  0  0  0
    2.6379    1.8486    0.0000 C   0  0  0  0  0  0  0  0  0  0  0  0
    1.9156    1.4498    0.0000 C   0  0  0  0  0  0  0  0  0  0  0  0
    1.2085    1.8750    0.0000 C   0  0  0  0  0  0  0  0  0  0  0  0
    0.4908    1.4773    0.0000 O   0  0  0  0  0  0  0  0  0  0  0  0
    1.9051    0.6272    0.0000 O   0  0  0  0  0  0  0  0  0  0  0  0
    3.3509    1.4332    0.0000 C   0  0  0  0  0  0  0  0  0  0  0  0
    1.4765   -3.0957    0.0000 O   0  0  0  0  0  0  0  0  0  0  0  0
    2.1998   -2.6988    0.0000 C   0  0  0  0  0  0  0  0  0  0  0  0
    2.2152   -1.8780    0.0000 C   0  0  0  0  0  0  0  0  0  0  0  0
    0.7687   -2.6719    0.0000 C   0  0  0  0  0  0  0  0  0  0  0  0
    0.7914   -1.8473    0.0000 C   0  0  0  0  0  0  0  0  0  0  0  0
    1.5163   -1.4534    0.0000 C   0  0  0  0  0  0  0  0  0  0  0  0
    1.5375   -0.6330    0.0000 O   0  0  0  0  0  0  0  0  0  0  0  0
    0.0876   -1.4209    0.0000 O   0  0  0  0  0  0  0  0  0  0  0  0
    0.0491   -3.0758    0.0000 C   0  0  0  0  0  0  0  0  0  0  0  0
  1  4  1  0
  1  2  1  0
  2  3  2  0
  3  6  1  0
  4  9  1  0
  5  4  2  0
  5  6  1  0
  5  8  1  0
  6  7  2  0
 11 14  1  0
 11 12  1  0
 12 13  2  0
 13 16  1  0
 14 19  1  0
 15 14  2  0
 15 16  1  0
 15 18  1  0
 16 17  2  0
 20 21  1  0
 20 23  1  0
 21 22  2  0
 22 25  1  0
 23 28  1  0
 24 23  2  0
 24 25  1  0
 24 27  1  0
 25 26  2  0
M  CHG  4   8  -1  10   3  18  -1  27  -1
M  END
>  <DRUGBANK_ID>  (1) 
DB15598

>  <COMMON_NAME>  (1) 
Ferric maltol

>  <CAS_NUMBER>  (1) 
33725-54-1

>  <UNII>  (1) 
MA10QYF1Z0

>  <SYNONYMS>  (1) 
Ferric maltol; Iron (III) maltol

$$$$
