EPL
     RDKit          2D

 17 17  0  0  0  0  0  0  0  0999 V2000
   -0.7561    0.4628    0.0000 O   0  0  0  0  0  0  0  0  0  0  0  0
   -0.5425   -0.3341    0.0000 P   0  0  0  0  0  0  0  0  0  0  0  0
   -1.3394   -0.5476    0.0000 O   0  0  0  0  0  0  0  0  0  0  0  0
   -1.5530   -1.3445    0.0000 C   0  0  0  0  0  0  0  0  0  0  0  0
   -2.3498   -1.5580    0.0000 C   0  0  0  0  0  0  0  0  0  0  0  0
   -0.3290   -1.1309    0.0000 O   0  0  0  0  0  0  0  0  0  0  0  0
    0.4679   -1.3445    0.0000 C   0  0  0  0  0  0  0  0  0  0  0  0
    0.6814   -2.1414    0.0000 C   0  0  0  0  0  0  0  0  0  0  0  0
    0.2543   -0.1205    0.0000 O   0  0  0  0  0  0  0  0  0  0  0  0
    0.4679    0.6764    0.0000 C   0  0  0  0  0  0  0  0  0  0  0  0
    1.2648    0.8899    0.0000 C   0  0  0  0  0  0  0  0  0  0  0  0
    1.4783    1.6868    0.0000 C   0  0  0  0  0  0  0  0  0  0  0  0
    0.8949    2.2701    0.0000 C   0  0  0  0  0  0  0  0  0  0  0  0
    1.1085    3.0670    0.0000 O   0  0  0  0  0  0  0  0  0  0  0  0
    0.5251    3.6504    0.0000 C   0  0  0  0  0  0  0  0  0  0  0  0
    0.0980    2.0566    0.0000 C   0  0  0  0  0  0  0  0  0  0  0  0
   -0.1155    1.2597    0.0000 C   0  0  0  0  0  0  0  0  0  0  0  0
  1  2  2  0
  2  3  1  0
  2  6  1  0
  2  9  1  0
  3  4  1  0
  4  5  1  0
  6  7  1  0
  7  8  1  0
  9 10  1  0
 10 17  2  0
 10 11  1  0
 11 12  2  0
 12 13  1  0
 13 16  2  0
 13 14  1  0
 14 15  1  0
 16 17  1  0
M  END
>  <DRUGBANK_ID>  (1) 
DB07721

>  <COMMON_NAME>  (1) 
DIETHYL 4-METHOXYPHENYL PHOSPHATE

$$$$
