
     RDKit          2D

 21 21  0  0  0  0  0  0  0  0999 V2000
   -1.3246   -1.6195    0.0000 C   0  0  0  0  0  0  0  0  0  0  0  0
   -0.5793   -1.2055    0.0000 S   0  0  0  0  0  0  0  0  0  0  0  0
    0.1246   -1.6195    0.0000 C   0  0  0  0  0  0  0  0  0  0  0  0
    0.8284   -1.2055    0.0000 C   0  0  0  0  0  0  0  0  0  0  0  0
    1.5737   -1.6195    0.0000 N   0  0  0  0  0  0  0  0  0  0  0  0
    2.2777   -1.2055    0.0000 C   0  0  0  0  0  0  0  0  0  0  0  0
   -2.0285   -1.2055    0.0000 C   0  0  0  0  0  0  0  0  0  0  0  0
   -2.0285   -0.3773    0.0000 N   0  0  0  0  0  0  0  0  0  0  0  0
   -2.8152   -0.1289    0.0000 C   0  0  0  0  0  0  0  0  0  0  0  0
   -3.3121   -0.7914    0.0000 S   0  0  0  0  0  0  0  0  0  0  0  0
   -2.8152   -1.4538    0.0000 C   0  0  0  0  0  0  0  0  0  0  0  0
   -3.0636    0.6578    0.0000 C   0  0  0  0  0  0  0  0  0  0  0  0
    3.0231   -1.6195    0.0000 C   0  0  0  0  0  0  0  0  0  0  0  0
   -3.8722    0.8366    0.0000 N   0  0  0  0  0  0  0  0  0  0  0  0
   -4.4468    0.2089    0.0000 C   0  0  0  0  0  0  0  0  0  0  0  0
   -4.1198    1.6195    0.0000 C   0  0  0  0  0  0  0  0  0  0  0  0
    3.7332   -1.1937    0.0000 N   0  0  0  0  0  0  0  0  0  0  0  0
    3.7197   -0.3656    0.0000 O   0  0  0  0  0  0  0  0  0  0  0  0
    4.4468   -1.5903    0.0000 O   0  0  0  0  0  0  0  0  0  0  0  0
    2.3091   -0.3880    0.0000 N   0  0  0  0  0  0  0  0  0  0  0  0
    1.5947    0.0621    0.0000 C   0  0  0  0  0  0  0  0  0  0  0  0
  1  2  1  0
  1  7  1  0
  2  3  1  0
  3  4  1  0
  4  5  1  0
  5  6  1  0
  6 13  2  3
  6 20  1  0
  7  8  1  0
  7 11  2  0
  8  9  2  0
  9 10  1  0
  9 12  1  0
 10 11  1  0
 12 14  1  0
 13 17  1  0
 14 15  1  0
 14 16  1  0
 17 18  2  0
 17 19  1  0
 20 21  1  0
M  CHG  2  17   1  19  -1
M  END
>  <DRUGBANK_ID>  (1) 
DB00585

>  <SECONDARY_ACCESSION_NUMBERS>  (1) 
APRD00706

>  <COMMON_NAME>  (1) 
Nizatidine

>  <CAS_NUMBER>  (1) 
76963-41-2

>  <UNII>  (1) 
P41PML4GHR

>  <SYNONYMS>  (1) 
N-(4-(6-Methylamino-7-nitro-2-thia-5-aza-6-hepten-1-yl)-2-thiazolylmethyl)-N,N-dimethylamine; Nizatidina; Nizatidine; Nizatidinum

$$$$
