DZ1
     RDKit          2D

 20 21  0  0  0  0  0  0  0  0999 V2000
    2.8352    0.8797    0.0000 C   0  0  0  0  0  0  0  0  0  0  0  0
    2.8352    0.0547    0.0000 C   0  0  0  0  0  0  0  0  0  0  0  0
    3.5497   -0.3578    0.0000 C   0  0  0  0  0  0  0  0  0  0  0  0
    3.5497   -1.1828    0.0000 C   0  0  0  0  0  0  0  0  0  0  0  0
    2.8352   -1.5953    0.0000 C   0  0  0  0  0  0  0  0  0  0  0  0
    2.1208   -1.1828    0.0000 C   0  0  0  0  0  0  0  0  0  0  0  0
    1.4063   -1.5953    0.0000 C   0  0  0  0  0  0  0  0  0  0  0  0
    2.1208   -0.3578    0.0000 C   0  0  0  0  0  0  0  0  0  0  0  0
    1.4063    0.0547    0.0000 C   0  0  0  0  0  0  0  0  0  0  0  0
    1.4063    0.8797    0.0000 O   0  0  0  0  0  0  0  0  0  0  0  0
    0.6918   -0.3578    0.0000 N   0  0  0  0  0  0  0  0  0  0  0  0
   -0.0227    0.0547    0.0000 C   0  0  0  0  0  0  0  0  0  0  0  0
   -0.7371   -0.3578    0.0000 C   0  0  0  0  0  0  0  0  0  0  0  0
   -1.4516    0.0547    0.0000 C   0  0  0  0  0  0  0  0  0  0  0  0
   -2.1661   -0.3578    0.0000 Br  0  0  0  0  0  0  0  0  0  0  0  0
   -1.4516    0.8797    0.0000 C   0  0  0  0  0  0  0  0  0  0  0  0
   -2.1661    1.2922    0.0000 O   0  0  0  0  0  0  0  0  0  0  0  0
   -0.7371    1.2922    0.0000 C   0  0  0  0  0  0  0  0  0  0  0  0
   -0.7371    2.1172    0.0000 Br  0  0  0  0  0  0  0  0  0  0  0  0
   -0.0227    0.8797    0.0000 C   0  0  0  0  0  0  0  0  0  0  0  0
  1  2  1  0
  2  3  2  0
  2  8  1  0
  3  4  1  0
  4  5  2  0
  5  6  1  0
  6  7  1  0
  6  8  2  0
  8  9  1  0
  9 10  2  0
  9 11  1  0
 11 12  1  0
 12 13  2  0
 12 20  1  0
 13 14  1  0
 14 15  1  0
 14 16  2  0
 16 17  1  0
 16 18  1  0
 18 19  1  0
 18 20  2  0
M  END
>  <DRUGBANK_ID>  (1) 
DB07693

>  <COMMON_NAME>  (1) 
N-(3,5-dibromo-4-hydroxyphenyl)-2,6-dimethylbenzamide

$$$$
