
     RDKit          2D

 22 24  0  0  1  0  0  0  0  0999 V2000
   -0.7604    1.6190    0.0000 O   0  0  0  0  0  0  0  0  0  0  0  0
   -0.0459    1.2076    0.0000 C   0  0  0  0  0  0  0  0  0  0  0  0
   -0.0459    0.3826    0.0000 N   0  0  0  0  0  0  0  0  0  0  0  0
    1.3829    0.3826    0.0000 C   0  0  0  0  0  0  0  0  0  0  0  0
    1.3829    1.2076    0.0000 C   0  0  0  0  0  0  0  0  0  0  0  0
    0.6663    1.6190    0.0000 S   0  0  0  0  0  0  0  0  0  0  0  0
    2.0951    1.6190    0.0000 C   0  0  0  0  0  0  0  0  0  0  0  0
    2.8116    1.2076    0.0000 N   0  0  0  0  0  0  0  0  0  0  0  0
    2.8116    0.3826    0.0000 C   0  0  0  0  0  0  0  0  0  0  0  0
    2.0951   -0.0308    0.0000 N   0  0  0  0  0  0  0  0  0  0  0  0
    3.5260   -0.0308    0.0000 N   0  0  0  0  0  0  0  0  0  0  0  0
   -0.7604   -0.0308    0.0000 C   0  0  0  0  0  0  0  0  0  0  0  0
   -0.9998   -0.8025    0.0000 C   0  0  0  0  0  0  0  0  0  0  0  0
   -0.2607   -1.5562    0.0000 O   0  0  0  0  0  0  0  0  0  0  0  0
    0.4711   -1.1765    0.0000 C   0  0  0  0  0  0  0  0  0  0  0  0
    1.1667   -1.6190    0.0000 C   0  0  0  0  0  0  0  0  0  0  0  0
    0.4600   -0.3518    0.0000 O   0  0  0  0  0  0  0  0  0  0  0  0
   -1.8311   -0.8025    0.0000 C   0  0  0  0  0  0  0  0  0  0  0  0
   -2.0972   -0.0308    0.0000 C   0  0  0  0  0  0  0  0  0  0  0  0
   -1.4441    0.4747    0.0000 O   0  0  0  0  0  0  0  0  0  0  0  0
   -2.8117    0.3826    0.0000 C   0  0  0  0  0  0  0  0  0  0  0  0
   -3.5261   -0.0308    0.0000 O   0  0  0  0  0  0  0  0  0  0  0  0
  1  2  2  0
  2  3  1  0
  2  6  1  0
  3  4  1  0
  4  5  2  0
  4 10  1  0
  5  7  1  0
  6  5  1  0
  7  8  2  0
  9  8  1  0
  9 11  1  0
 10  9  2  0
 12 13  1  0
 12 20  1  0
 12  3  1  1
 13 18  1  0
 13 14  1  6
 14 15  1  0
 15 16  1  0
 15 17  2  0
 18 19  1  0
 19 21  1  1
 20 19  1  0
 21 22  1  0
M  END
>  <DRUGBANK_ID>  (1) 
DB06329

>  <COMMON_NAME>  (1) 
RG-7795

>  <CAS_NUMBER>  (1) 
892498-64-5

>  <UNII>  (1) 
QTI86134YL

$$$$
