
     RDKit          2D

 21 21  0  0  0  0  0  0  0  0999 V2000
    0.7145    1.0312    0.0000 O   0  0  0  0  0  0  0  0  0  0  0  0
    0.0000    0.6186    0.0000 C   0  0  0  0  0  0  0  0  0  0  0  0
    0.0000   -0.2063    0.0000 C   0  0  0  0  0  0  0  0  0  0  0  0
    0.7145   -0.6188    0.0000 C   0  0  0  0  0  0  0  0  0  0  0  0
    1.4290   -0.2063    0.0000 C   0  0  0  0  0  0  0  0  0  0  0  0
    2.1436    1.0311    0.0000 C   0  0  0  0  0  0  0  0  0  0  0  0
    0.7144   -1.4438    0.0000 O   0  0  0  0  0  0  0  0  0  0  0  0
    2.8579    0.6185    0.0000 O   0  0  0  0  0  0  0  0  0  0  0  0
    2.1436    1.8562    0.0000 O   0  0  0  0  0  0  0  0  0  0  0  0
   -0.7145    1.0313    0.0000 C   0  0  0  0  0  0  0  0  0  0  0  0
   -1.4290    0.6187    0.0000 C   0  0  0  0  0  0  0  0  0  0  0  0
   -0.7144    1.8562    0.0000 O   0  0  0  0  0  0  0  0  0  0  0  0
   -2.1435    1.0313    0.0000 C   0  0  0  0  0  0  0  0  0  0  0  0
   -1.4290   -0.2062    0.0000 O   0  0  0  0  0  0  0  0  0  0  0  0
   -2.8579    0.6188    0.0000 O   0  0  0  0  0  0  0  0  0  0  0  0
    1.4290    0.6186    0.0000 C   0  0  0  0  0  0  0  0  0  0  0  0
    1.4290    1.4437    0.0000 O   0  0  0  0  0  0  0  0  0  0  0  0
   -0.7145   -0.6187    0.0000 N   0  0  0  0  0  0  0  0  0  0  0  0
    0.0000   -1.8563    0.0000 C   0  0  0  0  0  0  0  0  0  0  0  0
   -0.7145   -1.4438    0.0000 C   0  0  0  0  0  0  0  0  0  0  0  0
   -1.4290   -1.8563    0.0000 O   0  0  0  0  0  0  0  0  0  0  0  0
  2  1  1  6
  2 10  1  0
  2  3  1  0
  3 18  1  1
  3  4  1  0
  4  7  1  6
  4  5  1  0
  6  8  1  0
  6  9  2  0
 10 11  1  0
 10 12  1  1
 11 13  1  0
 11 14  1  6
 13 15  1  0
 16  1  1  0
 16  5  1  0
 16  6  1  0
 16 17  1  6
 18 20  1  0
 20 19  1  0
 20 21  2  0
M  END
>  <DRUGBANK_ID>  (1) 
DB03721

>  <SECONDARY_ACCESSION_NUMBERS>  (1) 
EXPT02292; EXPT02908; EXPT02909; DB01894; DB02344

>  <COMMON_NAME>  (1) 
N-acetyl-alpha-neuraminic acid

>  <CAS_NUMBER>  (1) 
21646-00-4

>  <UNII>  (1) 
04A90EXP8V

>  <SYNONYMS>  (1) 
N-Acetyl-alpha-D-neuraminic acid; O-sialic acid; Î±-Neu5Ac

$$$$
