555
     RDKit          2D

 20 22  0  0  0  0  0  0  0  0999 V2000
   -0.9825   -1.3312    0.0000 C   0  0  0  0  0  0  0  0  0  0  0  0
   -0.9825   -2.1562    0.0000 C   0  0  0  0  0  0  0  0  0  0  0  0
   -0.2681   -2.5687    0.0000 C   0  0  0  0  0  0  0  0  0  0  0  0
    0.4464   -2.1562    0.0000 C   0  0  0  0  0  0  0  0  0  0  0  0
    0.4464   -1.3312    0.0000 C   0  0  0  0  0  0  0  0  0  0  0  0
   -0.2681   -0.9187    0.0000 C   0  0  0  0  0  0  0  0  0  0  0  0
    1.1609   -0.9187    0.0000 C   0  0  0  0  0  0  0  0  0  0  0  0
    1.8753   -1.3312    0.0000 C   0  0  0  0  0  0  0  0  0  0  0  0
    1.8753   -2.1562    0.0000 C   0  0  0  0  0  0  0  0  0  0  0  0
    1.1609   -2.5687    0.0000 C   0  0  0  0  0  0  0  0  0  0  0  0
    1.1609   -3.3937    0.0000 C   0  0  0  0  0  0  0  0  0  0  0  0
    0.4464   -3.8062    0.0000 C   0  0  0  0  0  0  0  0  0  0  0  0
    0.4464   -4.6312    0.0000 C   0  0  0  0  0  0  0  0  0  0  0  0
    1.1609   -5.0437    0.0000 C   0  0  0  0  0  0  0  0  0  0  0  0
    1.8753   -4.6312    0.0000 C   0  0  0  0  0  0  0  0  0  0  0  0
    1.8753   -3.8062    0.0000 C   0  0  0  0  0  0  0  0  0  0  0  0
    1.1609   -5.8687    0.0000 O   0  0  0  0  0  0  0  0  0  0  0  0
    1.1609   -0.0937    0.0000 C   0  0  0  0  0  0  0  0  0  0  0  0
    1.8753    0.3188    0.0000 N   0  0  0  0  0  0  0  0  0  0  0  0
    1.8753    1.1438    0.0000 O   0  0  0  0  0  0  0  0  0  0  0  0
  1  6  2  0
  1  2  1  0
  2  3  2  0
  3  4  1  0
  4  5  2  0
  4 10  1  0
  5  6  1  0
  5  7  1  0
  7 18  1  0
  7  8  2  0
  8  9  1  0
  9 10  2  0
 10 11  1  0
 11 16  1  0
 11 12  2  0
 12 13  1  0
 13 14  2  0
 14 15  1  0
 14 17  1  0
 15 16  2  0
 18 19  2  0
 19 20  1  0
M  END
>  <DRUGBANK_ID>  (1) 
DB07150

>  <COMMON_NAME>  (1) 
4-(4-HYDROXYPHENYL)-1-NAPHTHALDEHYDE OXIME

>  <UNII>  (1) 
KA345Z0JXL

$$$$
