
     RDKit          2D

 40 41  0  0  0  0  0  0  0  0999 V2000
   -4.3049   -0.9363    0.0000 O   0  0  0  0  0  0  0  0  0  0  0  0
   -1.9507   -1.4437    0.0000 O   0  0  0  0  0  0  0  0  0  0  0  0
    3.7651   -1.4437    0.0000 O   0  0  0  0  0  0  0  0  0  0  0  0
    0.9072   -2.2688    0.0000 O   0  0  0  0  0  0  0  0  0  0  0  0
   -1.9507    2.6813    0.0000 O   0  0  0  0  0  0  0  0  0  0  0  0
    3.0506   -0.2062    0.0000 O   0  0  0  0  0  0  0  0  0  0  0  0
   -0.5217    2.6813    0.0000 O   0  0  0  0  0  0  0  0  0  0  0  0
   -4.6854    0.4837    0.0000 N   0  0  0  0  0  0  0  0  0  0  0  0
   -1.2362   -0.2062    0.0000 N   0  0  0  0  0  0  0  0  0  0  0  0
    0.1927   -1.0312    0.0000 N   0  0  0  0  0  0  0  0  0  0  0  0
    2.3362   -1.4437    0.0000 N   0  0  0  0  0  0  0  0  0  0  0  0
   -3.3797    0.2062    0.0000 C   0  0  0  0  0  0  0  0  0  0  0  0
   -3.4659    1.0267    0.0000 C   0  0  0  0  0  0  0  0  0  0  0  0
   -2.6652   -0.2062    0.0000 C   0  0  0  0  0  0  0  0  0  0  0  0
   -4.2729    1.1982    0.0000 C   0  0  0  0  0  0  0  0  0  0  0  0
   -1.9507    0.2062    0.0000 C   0  0  0  0  0  0  0  0  0  0  0  0
   -4.1334   -0.1292    0.0000 C   0  0  0  0  0  0  0  0  0  0  0  0
   -1.9507    1.0312    0.0000 C   0  0  0  0  0  0  0  0  0  0  0  0
   -0.5217   -1.4437    0.0000 C   0  0  0  0  0  0  0  0  0  0  0  0
   -1.2362   -1.0312    0.0000 C   0  0  0  0  0  0  0  0  0  0  0  0
    1.6217   -1.0312    0.0000 C   0  0  0  0  0  0  0  0  0  0  0  0
    1.6217   -0.2062    0.0000 C   0  0  0  0  0  0  0  0  0  0  0  0
    0.9072   -1.4437    0.0000 C   0  0  0  0  0  0  0  0  0  0  0  0
   -0.5217   -2.2688    0.0000 C   0  0  0  0  0  0  0  0  0  0  0  0
   -1.2362    1.4437    0.0000 C   0  0  0  0  0  0  0  0  0  0  0  0
    0.9072    0.2062    0.0000 C   0  0  0  0  0  0  0  0  0  0  0  0
    2.3362    0.2062    0.0000 C   0  0  0  0  0  0  0  0  0  0  0  0
    0.1927   -2.6813    0.0000 C   0  0  0  0  0  0  0  0  0  0  0  0
   -1.2362   -2.6813    0.0000 C   0  0  0  0  0  0  0  0  0  0  0  0
    4.4796   -1.0312    0.0000 C   0  0  0  0  0  0  0  0  0  0  0  0
    3.0506   -1.0312    0.0000 C   0  0  0  0  0  0  0  0  0  0  0  0
   -1.2362    2.2688    0.0000 C   0  0  0  0  0  0  0  0  0  0  0  0
    0.1927   -3.5063    0.0000 C   0  0  0  0  0  0  0  0  0  0  0  0
   -1.2362   -3.5063    0.0000 C   0  0  0  0  0  0  0  0  0  0  0  0
    4.0671   -0.3167    0.0000 C   0  0  0  0  0  0  0  0  0  0  0  0
    4.8922   -1.7457    0.0000 C   0  0  0  0  0  0  0  0  0  0  0  0
    5.1941   -0.6187    0.0000 C   0  0  0  0  0  0  0  0  0  0  0  0
   -0.5217   -3.9188    0.0000 C   0  0  0  0  0  0  0  0  0  0  0  0
   -1.9507    3.5063    0.0000 C   0  0  0  0  0  0  0  0  0  0  0  0
   -2.6652    3.9188    0.0000 C   0  0  0  0  0  0  0  0  0  0  0  0
  1 17  2  0
  2 20  2  0
  3 30  1  0
  3 31  1  0
  4 23  2  0
  5 32  1  0
  5 39  1  0
  6 31  2  0
  7 32  2  0
  8 15  1  0
  8 17  1  0
  9 16  1  0
  9 20  1  0
 10 23  1  0
 11 31  1  0
 12 13  1  0
 12 14  1  1
 12 17  1  0
 13 15  1  0
 14 16  1  0
 16 18  1  0
 18 25  2  0
 19 10  1  1
 19 20  1  0
 19 24  1  0
 21 11  1  6
 21 22  1  0
 21 23  1  0
 22 26  1  0
 22 27  1  0
 24 28  2  0
 24 29  1  0
 25 32  1  0
 28 33  1  0
 29 34  2  0
 30 35  1  0
 30 36  1  0
 30 37  1  0
 33 38  2  0
 34 38  1  0
 39 40  1  0
M  END
>  <DRUGBANK_ID>  (1) 
DB04692

>  <COMMON_NAME>  (1) 
Ethyl (2E)-4-({(2S)-2-[(N-{[(2-methyl-2-propanyl)oxy]carbonyl}-L-valyl)amino]-2-phenylacetyl}amino)-5-[(3S)-2-oxo-3-pyrrolidinyl]-2-pentenoate

$$$$
