
     RDKit          2D

 12 11  0  0  1  0  0  0  0  0999 V2000
    1.3480   -0.3020    0.0000 C   0  0  0  0  0  0  0  0  0  0  0  0
    2.0625   -0.7145    0.0000 C   0  0  0  0  0  0  0  0  0  0  0  0
    2.7770   -0.3020    0.0000 C   0  0  0  0  0  0  0  0  0  0  0  0
    4.9204   -0.7145    0.0000 C   0  0  0  0  0  0  0  0  0  0  0  0
    5.6349   -0.3020    0.0000 C   0  0  0  0  0  0  0  0  0  0  0  0
    3.4914   -0.7145    0.0000 C   0  0  0  0  0  0  0  0  0  0  0  0
    6.3493   -0.7145    0.0000 C   0  0  0  0  0  0  0  0  0  0  0  0
    5.6349    0.5230    0.0000 N   0  0  0  0  0  0  0  0  0  0  0  0
    3.4914   -1.5395    0.0000 O   0  0  0  0  0  0  0  0  0  0  0  0
    7.0638   -0.3020    0.0000 O   0  0  0  0  0  0  0  0  0  0  0  0
    6.3493   -1.5395    0.0000 O   0  0  0  0  0  0  0  0  0  0  0  0
    4.2059   -0.3020    0.0000 S   0  0  0  0  0  0  0  0  0  0  0  0
  2  1  1  0
  3  2  1  0
  5  4  1  0
  5  8  1  6
  6  3  1  0
  7  5  1  0
  9  6  2  0
 10  7  2  0
 11  7  1  0
 12  4  1  0
 12  6  1  0
M  END
>  <DRUGBANK_ID>  (1) 
DB02160

>  <SECONDARY_ACCESSION_NUMBERS>  (1) 
EXPT01074

>  <COMMON_NAME>  (1) 
S-Butyryl-Cystein

$$$$
