ZYW
     RDKit          2D

 18 20  0  0  0  0  0  0  0  0999 V2000
    1.4409   -1.0855    0.0000 Br  0  0  0  0  0  0  0  0  0  0  0  0
    0.7264   -1.4980    0.0000 C   0  0  0  0  0  0  0  0  0  0  0  0
    0.7264   -2.3230    0.0000 C   0  0  0  0  0  0  0  0  0  0  0  0
    0.0120   -2.7355    0.0000 N   0  0  0  0  0  0  0  0  0  0  0  0
   -0.7025   -2.3230    0.0000 C   0  0  0  0  0  0  0  0  0  0  0  0
   -1.4871   -2.5779    0.0000 N   0  0  0  0  0  0  0  0  0  0  0  0
   -1.9720   -1.9105    0.0000 N   0  0  0  0  0  0  0  0  0  0  0  0
   -1.4871   -1.2430    0.0000 C   0  0  0  0  0  0  0  0  0  0  0  0
   -0.7025   -1.4980    0.0000 C   0  0  0  0  0  0  0  0  0  0  0  0
    0.0120   -1.0855    0.0000 C   0  0  0  0  0  0  0  0  0  0  0  0
    0.0120   -0.2605    0.0000 N   0  0  0  0  0  0  0  0  0  0  0  0
   -0.7025    0.1520    0.0000 C   0  0  0  0  0  0  0  0  0  0  0  0
    0.7264    0.1520    0.0000 C   0  0  0  0  0  0  0  0  0  0  0  0
    0.7264    0.9770    0.0000 C   0  0  0  0  0  0  0  0  0  0  0  0
    0.0120    1.3895    0.0000 O   0  0  0  0  0  0  0  0  0  0  0  0
   -0.7025    0.9770    0.0000 C   0  0  0  0  0  0  0  0  0  0  0  0
   -1.4170    1.3895    0.0000 C   0  0  0  0  0  0  0  0  0  0  0  0
   -2.1314    0.9770    0.0000 N   0  0  0  0  0  0  0  0  0  0  0  0
  1  2  1  0
  2  3  2  0
  2 10  1  0
  3  4  1  0
  4  5  2  0
  5  6  1  0
  5  9  1  0
  6  7  1  0
  7  8  2  0
  8  9  1  0
  9 10  2  0
 10 11  1  0
 11 12  1  0
 11 13  1  0
 12 16  1  0
 13 14  1  0
 14 15  1  0
 15 16  1  0
 16 17  1  6
 17 18  1  0
M  END
>  <DRUGBANK_ID>  (1) 
DB08781

>  <COMMON_NAME>  (1) 
1-[(2S)-4-(5-BROMO-1H-PYRAZOLO[3,4-B]PYRIDIN-4-YL)MORPHOLIN-2-YL]METHANAMINE

$$$$
