
     RDKit          2D

 34 37  0  0  1  0  0  0  0  0999 V2000
    3.0683   -2.4895    0.0000 C   0  0  0  0  0  0  0  0  0  0  0  0
    2.8390   -1.6970    0.0000 C   0  0  0  0  0  0  0  0  0  0  0  0
    3.5218   -1.2340    0.0000 C   0  0  0  0  0  0  0  0  0  0  0  0
    4.1731   -1.7404    0.0000 C   0  0  0  0  0  0  0  0  0  0  0  0
    4.3708   -0.9394    0.0000 O   0  0  0  0  0  0  0  0  0  0  0  0
    4.9853   -1.5952    0.0000 C   0  0  0  0  0  0  0  0  0  0  0  0
    5.2655   -0.8192    0.0000 C   0  0  0  0  0  0  0  0  0  0  0  0
    6.0777   -0.6740    0.0000 C   0  0  0  0  0  0  0  0  0  0  0  0
    6.3580    0.1019    0.0000 O   0  0  0  0  0  0  0  0  0  0  0  0
    6.6095   -1.3047    0.0000 C   0  0  0  0  0  0  0  0  0  0  0  0
    7.4216   -1.1595    0.0000 C   0  0  0  0  0  0  0  0  0  0  0  0
    7.9534   -1.7902    0.0000 C   0  0  0  0  0  0  0  0  0  0  0  0
    8.7655   -1.6450    0.0000 O   0  0  0  0  0  0  0  0  0  0  0  0
    7.6731   -2.5662    0.0000 C   0  0  0  0  0  0  0  0  0  0  0  0
    8.2049   -3.1969    0.0000 O   0  0  0  0  0  0  0  0  0  0  0  0
    6.8610   -2.7114    0.0000 C   0  0  0  0  0  0  0  0  0  0  0  0
    6.3292   -2.0807    0.0000 C   0  0  0  0  0  0  0  0  0  0  0  0
    6.0489   -2.8566    0.0000 C   0  0  0  0  0  0  0  0  0  0  0  0
    5.5171   -2.2259    0.0000 C   0  0  0  0  0  0  0  0  0  0  0  0
    5.2368   -3.0018    0.0000 C   0  0  0  0  0  0  0  0  0  0  0  0
    4.4247   -3.1470    0.0000 C   0  0  0  0  0  0  0  0  0  0  0  0
    3.8928   -2.5163    0.0000 C   0  0  0  0  0  0  0  0  0  0  0  0
    3.5330   -3.2587    0.0000 C   0  0  0  0  0  0  0  0  0  0  0  0
    2.5619   -3.1408    0.0000 C   0  0  0  0  0  0  0  0  0  0  0  0
    1.9106   -2.6345    0.0000 C   0  0  0  0  0  0  0  0  0  0  0  0
    3.2132   -3.6472    0.0000 O   0  0  0  0  0  0  0  0  0  0  0  0
    2.0556   -3.7922    0.0000 C   0  0  0  0  0  0  0  0  0  0  0  0
    1.2383   -3.6793    0.0000 O   0  0  0  0  0  0  0  0  0  0  0  0
    2.3665   -4.5563    0.0000 C   0  0  0  0  0  0  0  0  0  0  0  0
    1.8601   -5.2077    0.0000 C   0  0  0  0  0  0  0  0  0  0  0  0
    2.1710   -5.9718    0.0000 C   0  0  0  0  0  0  0  0  0  0  0  0
    2.4819   -6.7360    0.0000 C   0  0  0  0  0  0  0  0  0  0  0  0
    1.4068   -6.2827    0.0000 C   0  0  0  0  0  0  0  0  0  0  0  0
    2.9352   -5.6610    0.0000 O   0  0  0  0  0  0  0  0  0  0  0  0
  1  2  1  1
  1 22  1  0
  1 24  1  0
  2  3  1  0
  4  3  1  0
  4  5  1  6
  4  6  1  0
  6  7  2  0
  7  8  1  0
  8  9  2  0
 10  8  1  0
 10 11  1  6
 12 11  1  0
 12 13  1  1
 12 14  1  0
 14 15  1  1
 14 16  1  0
 17 16  1  0
 17 10  1  0
 17 18  1  1
 17 19  1  0
 19  6  1  0
 19 20  1  1
 20 21  1  0
 22 21  1  0
 22  4  1  0
 22 23  1  1
 24 25  1  6
 24 26  1  0
 24 27  1  0
 27 28  1  1
 27 29  1  0
 29 30  1  0
 30 31  1  0
 31 32  1  0
 31 33  1  0
 31 34  1  0
M  END
>  <DRUGBANK_ID>  (1) 
DB16935

>  <COMMON_NAME>  (1) 
20-Hydroxyecdysone

>  <CAS_NUMBER>  (1) 
5289-74-7

>  <UNII>  (1) 
779A7KPL0Y

>  <SYNONYMS>  (1) 
20-hydroxy-.alpha.-ecdysone; Cholest-7-en-6-one, 2,3,14,20,22,25-hexahydroxy-, (2.beta.,3.beta.,5.beta.,22r)-; Commisterone; Crustecdyson; Crustecdysone; Ecdysten; Ecdysteron; Ecdysterone; Ekdisten; Isoinokosterone; Polypodin a; Polypodin c; Polypodine a; Polypodine c; Viticosterone

$$$$
