
     RDKit          2D

 19 20  0  0  0  0  0  0  0  0999 V2000
    4.3201    0.4516    0.0000 C   0  0  0  0  0  0  0  0  0  0  0  0
    4.9332   -0.1002    0.0000 C   0  0  0  0  0  0  0  0  0  0  0  0
    5.7178    0.1546    0.0000 C   0  0  0  0  0  0  0  0  0  0  0  0
    6.3309   -0.3974    0.0000 S   0  0  0  0  0  0  0  0  0  0  0  0
    6.7681    0.3022    0.0000 O   0  0  0  0  0  0  0  0  0  0  0  0
    7.0958   -0.7064    0.0000 O   0  0  0  0  0  0  0  0  0  0  0  0
    6.1594   -1.2044    0.0000 C   0  0  0  0  0  0  0  0  0  0  0  0
    5.3748   -1.4593    0.0000 C   0  0  0  0  0  0  0  0  0  0  0  0
    4.7617   -0.9072    0.0000 N   0  0  0  0  0  0  0  0  0  0  0  0
    3.9770   -1.1622    0.0000 N   0  0  0  0  0  0  0  0  0  0  0  0
    3.3639   -0.6101    0.0000 C   0  0  0  0  0  0  0  0  0  0  0  0
    2.5793   -0.8651    0.0000 C   0  0  0  0  0  0  0  0  0  0  0  0
    2.3244   -1.6497    0.0000 C   0  0  0  0  0  0  0  0  0  0  0  0
    1.4993   -1.6497    0.0000 C   0  0  0  0  0  0  0  0  0  0  0  0
    1.2444   -0.8651    0.0000 C   0  0  0  0  0  0  0  0  0  0  0  0
    1.9119   -0.3802    0.0000 O   0  0  0  0  0  0  0  0  0  0  0  0
    0.4598   -0.6101    0.0000 N   0  0  0  0  0  0  0  0  0  0  0  0
   -0.1532   -1.1622    0.0000 O   0  0  0  0  0  0  0  0  0  0  0  0
    0.2882    0.1967    0.0000 O   0  0  0  0  0  0  0  0  0  0  0  0
  1  2  1  0
  2  3  1  0
  2  9  1  0
  3  4  1  0
  4  5  2  0
  4  6  2  0
  4  7  1  0
  7  8  1  0
  8  9  1  0
  9 10  1  0
 10 11  2  0
 11 12  1  0
 12 13  2  0
 12 16  1  0
 13 14  1  0
 14 15  2  0
 15 16  1  0
 15 17  1  0
 17 18  2  0
 17 19  1  0
M  CHG  2  17   1  19  -1
M  END
>  <DRUGBANK_ID>  (1) 
DB11820

>  <COMMON_NAME>  (1) 
Nifurtimox

>  <CAS_NUMBER>  (1) 
23256-30-6

>  <UNII>  (1) 
M84I3K7C2O

>  <SYNONYMS>  (1) 
Nifurtimox; Nifurtimoxum

$$$$
