
     RDKit          2D

 18 20  0  0  0  0  0  0  0  0999 V2000
    5.6654    1.4295    0.0000 O   0  0  0  0  0  0  0  0  0  0  0  0
    8.5777    1.4494    0.0000 O   0  0  0  0  0  0  0  0  0  0  0  0
    2.0929   -1.4580    0.0000 O   0  0  0  0  0  0  0  0  0  0  0  0
    4.9508    0.1920    0.0000 C   0  0  0  0  0  0  0  0  0  0  0  0
    4.9508    1.0170    0.0000 C   0  0  0  0  0  0  0  0  0  0  0  0
    6.3798    0.1920    0.0000 C   0  0  0  0  0  0  0  0  0  0  0  0
    5.6654   -0.2205    0.0000 C   0  0  0  0  0  0  0  0  0  0  0  0
    6.3798    1.0170    0.0000 C   0  0  0  0  0  0  0  0  0  0  0  0
    4.2364   -0.2205    0.0000 C   0  0  0  0  0  0  0  0  0  0  0  0
    7.1173   -0.2492    0.0000 C   0  0  0  0  0  0  0  0  0  0  0  0
    7.1173    1.4580    0.0000 C   0  0  0  0  0  0  0  0  0  0  0  0
    3.5219    0.1920    0.0000 C   0  0  0  0  0  0  0  0  0  0  0  0
    4.2364   -1.0455    0.0000 C   0  0  0  0  0  0  0  0  0  0  0  0
    7.8648    1.0341    0.0000 C   0  0  0  0  0  0  0  0  0  0  0  0
    7.8648    0.1748    0.0000 C   0  0  0  0  0  0  0  0  0  0  0  0
    2.8075   -0.2205    0.0000 C   0  0  0  0  0  0  0  0  0  0  0  0
    3.5219   -1.4580    0.0000 C   0  0  0  0  0  0  0  0  0  0  0  0
    2.8075   -1.0455    0.0000 C   0  0  0  0  0  0  0  0  0  0  0  0
  1  5  1  0
  1  8  1  0
  2 14  1  0
  3 18  1  0
  4  5  1  0
  4  7  2  0
  4  9  1  0
  6  7  1  0
  6  8  2  0
  6 10  1  0
  8 11  1  0
  9 12  2  0
  9 13  1  0
 10 15  2  0
 11 14  2  0
 12 16  1  0
 13 17  2  0
 14 15  1  0
 16 18  2  0
 17 18  1  0
M  END
>  <DRUGBANK_ID>  (1) 
DB04915

>  <COMMON_NAME>  (1) 
Idronoxil

>  <CAS_NUMBER>  (1) 
81267-65-4

>  <UNII>  (1) 
995FT1W541

>  <SYNONYMS>  (1) 
(+/-)-cis-3-(4-hydroxyphenyl)-4-(4-methoxyphenyl)-3,4-dihydro-2H-cromen-7-ol; 3-(4-hydroxyphenyl)-2H-chromen-7-ol; Dehydroequol; Haginin E; Idronoxil; Phenoxodiol

$$$$
