RTR
     RDKit          2D

 30 33  0  0  0  0  0  0  0  0999 V2000
   -3.2334   -2.8583    0.0000 N   0  0  0  0  0  0  0  0  0  0  0  0
   -3.6459   -2.1438    0.0000 C   0  0  0  0  0  0  0  0  0  0  0  0
   -4.4709   -2.1438    0.0000 N   0  0  0  0  0  0  0  0  0  0  0  0
   -3.2334   -1.4294    0.0000 C   0  0  0  0  0  0  0  0  0  0  0  0
   -3.6459   -0.7149    0.0000 C   0  0  0  0  0  0  0  0  0  0  0  0
   -3.2334   -0.0004    0.0000 C   0  0  0  0  0  0  0  0  0  0  0  0
   -2.4084   -0.0004    0.0000 C   0  0  0  0  0  0  0  0  0  0  0  0
   -1.9959   -0.7149    0.0000 C   0  0  0  0  0  0  0  0  0  0  0  0
   -2.4084   -1.4294    0.0000 C   0  0  0  0  0  0  0  0  0  0  0  0
   -1.9959    0.7141    0.0000 C   0  0  0  0  0  0  0  0  0  0  0  0
   -1.1709    0.7141    0.0000 N   0  0  0  0  0  0  0  0  0  0  0  0
   -0.7584    1.4285    0.0000 C   0  0  0  0  0  0  0  0  0  0  0  0
   -1.1709    2.1430    0.0000 O   0  0  0  0  0  0  0  0  0  0  0  0
    0.0666    1.4285    0.0000 C   0  0  0  0  0  0  0  0  0  0  0  0
    0.4791    0.7141    0.0000 N   0  0  0  0  0  0  0  0  0  0  0  0
    0.0666   -0.0004    0.0000 C   0  0  0  0  0  0  0  0  0  0  0  0
   -0.7584   -0.0004    0.0000 C   0  0  0  0  0  0  0  0  0  0  0  0
    1.3041    0.7141    0.0000 S   0  0  0  0  0  0  0  0  0  0  0  0
    1.3041   -0.1109    0.0000 O   0  0  0  0  0  0  0  0  0  0  0  0
    1.3041    1.5391    0.0000 O   0  0  0  0  0  0  0  0  0  0  0  0
    2.1291    0.7141    0.0000 C   0  0  0  0  0  0  0  0  0  0  0  0
    2.6140    0.0466    0.0000 C   0  0  0  0  0  0  0  0  0  0  0  0
    3.3986    0.3016    0.0000 C   0  0  0  0  0  0  0  0  0  0  0  0
    3.3986    1.1266    0.0000 C   0  0  0  0  0  0  0  0  0  0  0  0
    2.6140    1.3815    0.0000 S   0  0  0  0  0  0  0  0  0  0  0  0
    4.1131    1.5391    0.0000 C   0  0  0  0  0  0  0  0  0  0  0  0
    4.8276    1.1266    0.0000 C   0  0  0  0  0  0  0  0  0  0  0  0
    5.5420    1.5391    0.0000 Cl  0  0  0  0  0  0  0  0  0  0  0  0
    4.8276    0.3016    0.0000 C   0  0  0  0  0  0  0  0  0  0  0  0
    4.1131   -0.1109    0.0000 C   0  0  0  0  0  0  0  0  0  0  0  0
  1  2  2  0
  2  3  1  0
  2  4  1  0
  4  5  2  0
  4  9  1  0
  5  6  1  0
  6  7  2  0
  7  8  1  0
  7 10  1  0
  8  9  2  0
 10 11  1  0
 11 12  1  0
 11 17  1  0
 12 13  2  0
 12 14  1  0
 14 15  1  0
 15 16  1  0
 15 18  1  0
 16 17  1  0
 18 19  2  0
 18 20  2  0
 18 21  1  0
 21 22  2  0
 21 25  1  0
 22 23  1  0
 23 24  2  0
 23 30  1  0
 24 25  1  0
 24 26  1  0
 26 27  2  0
 27 28  1  0
 27 29  1  0
 29 30  2  0
M  END
>  <DRUGBANK_ID>  (1) 
DB08495

>  <COMMON_NAME>  (1) 
4-({4-[(6-CHLORO-1-BENZOTHIEN-2-YL)SULFONYL]-2-OXOPIPERAZIN-1-YL}METHYL)BENZENECARBOXIMIDAMIDE

$$$$
