
     RDKit          2D

 18 19  0  0  0  0  0  0  0  0999 V2000
    1.2225   -2.1368    0.0000 C   0  0  0  0  0  0  0  0  0  0  0  0
    2.0497   -2.1451    0.0000 C   0  0  0  0  0  0  0  0  0  0  0  0
    2.4688   -1.4341    0.0000 C   0  0  0  0  0  0  0  0  0  0  0  0
    0.8161   -1.4214    0.0000 C   0  0  0  0  0  0  0  0  0  0  0  0
    1.2314   -0.7097    0.0000 C   0  0  0  0  0  0  0  0  0  0  0  0
    2.0582   -0.7161    0.0000 C   0  0  0  0  0  0  0  0  0  0  0  0
    2.4753   -0.0045    0.0000 C   0  0  0  0  0  0  0  0  0  0  0  0
    2.0668    0.7138    0.0000 C   0  0  0  0  0  0  0  0  0  0  0  0
    1.2369    0.7163    0.0000 C   0  0  0  0  0  0  0  0  0  0  0  0
    0.8235    0.0041    0.0000 C   0  0  0  0  0  0  0  0  0  0  0  0
    0.8264    1.4319    0.0000 O   0  0  0  0  0  0  0  0  0  0  0  0
    1.2406    2.1451    0.0000 C   0  0  0  0  0  0  0  0  0  0  0  0
   -0.0087   -1.4167    0.0000 C   0  0  0  0  0  0  0  0  0  0  0  0
   -0.4171   -0.6998    0.0000 C   0  0  0  0  0  0  0  0  0  0  0  0
   -1.2420   -0.6952    0.0000 N   0  0  0  0  0  0  0  0  0  0  0  0
   -1.6503    0.0214    0.0000 C   0  0  0  0  0  0  0  0  0  0  0  0
   -2.4753    0.0263    0.0000 C   0  0  0  0  0  0  0  0  0  0  0  0
   -1.2338    0.7334    0.0000 O   0  0  0  0  0  0  0  0  0  0  0  0
  1  2  2  0
  2  3  1  0
  3  6  2  0
  4  1  1  0
  4 13  1  0
  5  6  1  0
  5  4  2  0
  6  7  1  0
  7  8  2  0
  8  9  1  0
  9 10  2  0
  9 11  1  0
 10  5  1  0
 11 12  1  0
 13 14  1  0
 14 15  1  0
 15 16  1  0
 16 17  1  0
 16 18  2  0
M  END
>  <DRUGBANK_ID>  (1) 
DB06594

>  <COMMON_NAME>  (1) 
Agomelatine

>  <CAS_NUMBER>  (1) 
138112-76-2

>  <UNII>  (1) 
137R1N49AD

>  <SYNONYMS>  (1) 
Agomelatina; Agomelatine

$$$$
