N2G
     RDKit          2D

 34 38  0  0  0  0  0  0  0  0999 V2000
   -3.1725    1.8878    0.0000 P   0  0  0  0  0  0  0  0  0  0  0  0
   -3.8400    2.3727    0.0000 O   0  0  0  0  0  0  0  0  0  0  0  0
   -3.6575    1.2204    0.0000 O   0  0  0  0  0  0  0  0  0  0  0  0
   -2.6876    2.5553    0.0000 O   0  0  0  0  0  0  0  0  0  0  0  0
   -2.5051    1.4029    0.0000 O   0  0  0  0  0  0  0  0  0  0  0  0
    2.7582    0.4530    0.0000 C   0  0  0  0  0  0  0  0  0  0  0  0
    2.0437    0.8655    0.0000 C   0  0  0  0  0  0  0  0  0  0  0  0
    2.0437    1.6905    0.0000 C   0  0  0  0  0  0  0  0  0  0  0  0
    2.7582    2.1030    0.0000 C   0  0  0  0  0  0  0  0  0  0  0  0
    3.4726    1.6905    0.0000 C   0  0  0  0  0  0  0  0  0  0  0  0
    3.4726    0.8655    0.0000 C   0  0  0  0  0  0  0  0  0  0  0  0
    4.1871    0.4530    0.0000 C   0  0  0  0  0  0  0  0  0  0  0  0
    4.1871   -0.3720    0.0000 C   0  0  0  0  0  0  0  0  0  0  0  0
    3.4726   -0.7845    0.0000 C   0  0  0  0  0  0  0  0  0  0  0  0
    2.7582   -0.3720    0.0000 C   0  0  0  0  0  0  0  0  0  0  0  0
    2.0437   -0.7845    0.0000 C   0  0  0  0  0  0  0  0  0  0  0  0
    2.0437   -1.6095    0.0000 N   0  0  0  0  0  0  0  0  0  0  0  0
    1.3292   -2.0220    0.0000 C   0  0  0  0  0  0  0  0  0  0  0  0
    1.3292   -2.8470    0.0000 N   0  0  0  0  0  0  0  0  0  0  0  0
    0.6148   -3.2595    0.0000 C   0  0  0  0  0  0  0  0  0  0  0  0
    0.6148   -4.0845    0.0000 O   0  0  0  0  0  0  0  0  0  0  0  0
    0.6148   -1.6095    0.0000 N   0  0  0  0  0  0  0  0  0  0  0  0
   -0.0997   -2.0220    0.0000 C   0  0  0  0  0  0  0  0  0  0  0  0
   -0.0997   -2.8470    0.0000 C   0  0  0  0  0  0  0  0  0  0  0  0
   -0.8843   -3.1019    0.0000 N   0  0  0  0  0  0  0  0  0  0  0  0
   -1.3693   -2.4345    0.0000 C   0  0  0  0  0  0  0  0  0  0  0  0
   -0.8843   -1.7671    0.0000 N   0  0  0  0  0  0  0  0  0  0  0  0
   -1.1393   -0.9824    0.0000 C   0  0  0  0  0  0  0  0  0  0  0  0
   -1.9239   -0.7275    0.0000 O   0  0  0  0  0  0  0  0  0  0  0  0
   -0.6544   -0.3150    0.0000 C   0  0  0  0  0  0  0  0  0  0  0  0
   -1.1393    0.3524    0.0000 C   0  0  0  0  0  0  0  0  0  0  0  0
   -1.9239    0.0975    0.0000 C   0  0  0  0  0  0  0  0  0  0  0  0
   -2.5913    0.5824    0.0000 C   0  0  0  0  0  0  0  0  0  0  0  0
   -0.8843    1.1371    0.0000 O   0  0  0  0  0  0  0  0  0  0  0  0
  1  2  1  0
  1  3  2  0
  1  4  1  0
  1  5  1  0
  5 33  1  0
  6  7  2  0
  6 11  1  0
  6 15  1  0
  7  8  1  0
  8  9  2  0
  9 10  1  0
 10 11  2  0
 11 12  1  0
 12 13  2  0
 13 14  1  0
 14 15  2  0
 15 16  1  0
 16 17  1  0
 17 18  1  0
 18 19  1  0
 18 22  2  0
 19 20  1  0
 20 21  2  0
 20 24  1  0
 22 23  1  0
 23 24  2  0
 23 27  1  0
 24 25  1  0
 25 26  2  0
 26 27  1  0
 28 27  1  6
 28 29  1  0
 28 30  1  0
 29 32  1  0
 30 31  1  0
 31 32  1  0
 31 34  1  1
 32 33  1  6
M  END
>  <DRUGBANK_ID>  (1) 
DB08237

>  <COMMON_NAME>  (1) 
2'-deoxy-N-(naphthalen-1-ylmethyl)guanosine 5'-(dihydrogen phosphate)

$$$$
