
     RDKit          2D

 12 13  0  0  0  0  0  0  0  0999 V2000
   -0.4869    1.1562    0.0000 O   0  0  0  0  0  0  0  0  0  0  0  0
   -0.2690    0.3605    0.0000 C   0  0  0  0  0  0  0  0  0  0  0  0
   -0.8296    0.8004    0.0000 N   0  0  0  0  0  0  0  0  0  0  0  0
   -0.5895   -0.3480    0.0000 C   0  0  0  0  0  0  0  0  0  0  0  0
   -1.2098   -0.7249    0.0000 C   0  0  0  0  0  0  0  0  0  0  0  0
   -0.6899   -0.0126    0.0000 C   0  0  0  0  0  0  0  0  0  0  0  0
    0.6598    0.3760    0.0000 C   0  0  0  0  0  0  0  0  0  0  0  0
    1.1870    1.0105    0.0000 O   0  0  0  0  0  0  0  0  0  0  0  0
    0.7980   -0.4413    0.0000 C   0  0  0  0  0  0  0  0  0  0  0  0
    1.2097   -1.1562    0.0000 O   0  0  0  0  0  0  0  0  0  0  0  0
    0.2817   -0.0126    0.0000 C   0  0  0  0  0  0  0  0  0  0  0  0
    0.0015   -0.7886    0.0000 O   0  0  0  0  0  0  0  0  0  0  0  0
  2  1  1  1
  2  3  1  0
  2  4  1  0
  2  7  1  0
  5  4  1  0
  6  3  1  0
  6  5  1  1
  7  8  1  1
  7  9  1  0
  9 10  1  6
  9 11  1  0
 11  6  1  0
 11 12  1  6
M  END
>  <DRUGBANK_ID>  (1) 
DB04658

>  <COMMON_NAME>  (1) 
Calystegine B2

>  <CAS_NUMBER>  (1) 
127414-85-1

>  <UNII>  (1) 
7LZN33KW88

>  <SYNONYMS>  (1) 
Calystegine B(2)

$$$$
