M1C
     RDKit          2D

 14 14  0  0  0  0  0  0  0  0999 V2000
   -2.9209   -1.0522    0.0000 C   0  0  0  0  0  0  0  0  0  0  0  0
   -3.3334   -0.3377    0.0000 C   0  0  0  0  0  0  0  0  0  0  0  0
   -2.5084   -0.3377    0.0000 C   0  0  0  0  0  0  0  0  0  0  0  0
    0.3495    1.3123    0.0000 N   0  0  0  0  0  0  0  0  0  0  0  0
    0.3495    0.4873    0.0000 C   0  0  0  0  0  0  0  0  0  0  0  0
   -0.3650    0.0748    0.0000 C   0  0  0  0  0  0  0  0  0  0  0  0
   -1.0794   -0.3377    0.0000 C   0  0  0  0  0  0  0  0  0  0  0  0
   -1.7939    0.0748    0.0000 N   0  0  0  0  0  0  0  0  0  0  0  0
    0.0475   -0.6397    0.0000 O   0  0  0  0  0  0  0  0  0  0  0  0
   -0.7775    0.7893    0.0000 O   0  0  0  0  0  0  0  0  0  0  0  0
    1.0640    0.0748    0.0000 C   0  0  0  0  0  0  0  0  0  0  0  0
    1.7785    0.4873    0.0000 C   0  0  0  0  0  0  0  0  0  0  0  0
    2.4929    0.0748    0.0000 C   0  0  0  0  0  0  0  0  0  0  0  0
    3.2074    0.4873    0.0000 C   0  0  0  0  0  0  0  0  0  0  0  0
  1  2  1  0
  1  3  1  0
  2  3  1  0
  3  8  1  0
  5  4  1  1
  5  6  1  0
  5 11  1  0
  6  7  1  0
  6  9  1  0
  6 10  1  0
  7  8  1  0
 11 12  1  0
 12 13  1  0
 13 14  1  0
M  END
>  <DRUGBANK_ID>  (1) 
DB02408

>  <SECONDARY_ACCESSION_NUMBERS>  (1) 
EXPT02083

>  <COMMON_NAME>  (1) 
(3s)-3-Amino-1-(Cyclopropylamino)Heptane-2,2-Diol

$$$$
