
     RDKit          2D

 26 28  0  0  0  0  0  0  0  0999 V2000
    0.3572    1.0865    0.0000 C   0  0  0  0  0  0  0  0  0  0  0  0
    0.3572    1.9115    0.0000 C   0  0  0  0  0  0  0  0  0  0  0  0
   -0.3572    0.6740    0.0000 N   0  0  0  0  0  0  0  0  0  0  0  0
    1.0717    0.6740    0.0000 C   0  0  0  0  0  0  0  0  0  0  0  0
    1.0717    2.3240    0.0000 C   0  0  0  0  0  0  0  0  0  0  0  0
   -0.3572    2.3240    0.0000 S   0  0  0  0  0  0  0  0  0  0  0  0
   -1.0717    1.0865    0.0000 C   0  0  0  0  0  0  0  0  0  0  0  0
    1.7861    1.0865    0.0000 C   0  0  0  0  0  0  0  0  0  0  0  0
    1.7861    1.9115    0.0000 C   0  0  0  0  0  0  0  0  0  0  0  0
   -1.0717    1.9115    0.0000 N   0  0  0  0  0  0  0  0  0  0  0  0
   -0.7697    3.0384    0.0000 O   0  0  0  0  0  0  0  0  0  0  0  0
    0.0552    3.0384    0.0000 O   0  0  0  0  0  0  0  0  0  0  0  0
   -1.7861    0.6740    0.0000 C   0  0  0  0  0  0  0  0  0  0  0  0
    2.5006    0.6740    0.0000 Cl  0  0  0  0  0  0  0  0  0  0  0  0
    2.5006    2.3240    0.0000 S   0  0  0  0  0  0  0  0  0  0  0  0
   -1.7861   -0.1509    0.0000 S   0  0  0  0  0  0  0  0  0  0  0  0
    3.2151    1.9115    0.0000 N   0  0  0  0  0  0  0  0  0  0  0  0
    2.0881    3.0384    0.0000 O   0  0  0  0  0  0  0  0  0  0  0  0
    2.9131    3.0384    0.0000 O   0  0  0  0  0  0  0  0  0  0  0  0
   -2.5006   -0.5634    0.0000 C   0  0  0  0  0  0  0  0  0  0  0  0
   -2.5006   -1.3884    0.0000 C   0  0  0  0  0  0  0  0  0  0  0  0
   -3.2151   -1.8009    0.0000 C   0  0  0  0  0  0  0  0  0  0  0  0
   -1.7861   -1.8009    0.0000 C   0  0  0  0  0  0  0  0  0  0  0  0
   -3.2151   -2.6259    0.0000 C   0  0  0  0  0  0  0  0  0  0  0  0
   -1.7861   -2.6259    0.0000 C   0  0  0  0  0  0  0  0  0  0  0  0
   -2.5006   -3.0384    0.0000 C   0  0  0  0  0  0  0  0  0  0  0  0
  1  2  2  0
  1  3  1  0
  1  4  1  0
  2  5  1  0
  2  6  1  0
  3  7  2  0
  4  8  2  0
  5  9  2  0
  6 10  1  0
  6 11  2  0
  6 12  2  0
  7 13  1  0
  7 10  1  0
  8 14  1  0
  8  9  1  0
  9 15  1  0
 13 16  1  0
 15 17  1  0
 15 18  2  0
 15 19  2  0
 16 20  1  0
 20 21  1  0
 21 22  2  0
 21 23  1  0
 22 24  1  0
 23 25  2  0
 24 26  2  0
 25 26  1  0
M  END
>  <DRUGBANK_ID>  (1) 
DB00562

>  <SECONDARY_ACCESSION_NUMBERS>  (1) 
APRD00728

>  <COMMON_NAME>  (1) 
Benzthiazide

>  <CAS_NUMBER>  (1) 
91-33-8

>  <UNII>  (1) 
1TD8J48L61

>  <SYNONYMS>  (1) 
3-((benzylthio)methyl)-6-chloro-7-sulfamoyl-2H-benzo-1,2,4-thiadiazine 1,1-dioxide; 3-benzylthiomethyl-6-chloro-2H-1,2,4-benzothiadiazine-7-sulfonamide 1,1-dioxide; 3-benzylthiomethyl-6-chloro-7-sulfamoyl-1,2,4-benzothiadiazine 1,1-dioxide; 6-chloro-1,1-dioxo-3-(phenylmethylsulfanylmethyl)-4H-benzo[e][1,2,4]thiadiazine-7-sulfonamide; 6-chloro-7-sulfamoyl-3-benzylthiomethyl-2H-1,2,4-benzothiadiazine 1,1-dioxide; Benzothiazide; Benzotiazida; Benzthiazid; Benzthiazide; Benzthiazidum; Benztiazide

$$$$
