73V
     RDKit          2D

 34 36  0  0  0  0  0  0  0  0999 V2000
   -5.6529   -3.6064    0.0000 C   0  0  0  0  0  0  0  0  0  0  0  0
   -5.2404   -2.8919    0.0000 C   0  0  0  0  0  0  0  0  0  0  0  0
   -4.4154   -2.8919    0.0000 C   0  0  0  0  0  0  0  0  0  0  0  0
   -4.0029   -2.1775    0.0000 N   0  0  0  0  0  0  0  0  0  0  0  0
    2.3282    3.8413    0.0000 C   0  0  0  0  0  0  0  0  0  0  0  0
    2.0733    4.6260    0.0000 C   0  0  0  0  0  0  0  0  0  0  0  0
    2.6253    5.2390    0.0000 C   0  0  0  0  0  0  0  0  0  0  0  0
    3.4323    5.0675    0.0000 C   0  0  0  0  0  0  0  0  0  0  0  0
    3.6872    4.2829    0.0000 C   0  0  0  0  0  0  0  0  0  0  0  0
    3.1352    3.6698    0.0000 C   0  0  0  0  0  0  0  0  0  0  0  0
    1.7762    3.2282    0.0000 C   0  0  0  0  0  0  0  0  0  0  0  0
   -2.7654   -0.6380    0.0000 O   0  0  0  0  0  0  0  0  0  0  0  0
   -2.0509   -1.0505    0.0000 C   0  0  0  0  0  0  0  0  0  0  0  0
   -1.2259   -1.0505    0.0000 C   0  0  0  0  0  0  0  0  0  0  0  0
   -0.8134   -1.7650    0.0000 O   0  0  0  0  0  0  0  0  0  0  0  0
   -2.7654   -1.4630    0.0000 C   0  0  0  0  0  0  0  0  0  0  0  0
   -3.1779   -2.1775    0.0000 C   0  0  0  0  0  0  0  0  0  0  0  0
   -2.7654   -2.8919    0.0000 O   0  0  0  0  0  0  0  0  0  0  0  0
   -0.8134   -0.3360    0.0000 N   0  0  0  0  0  0  0  0  0  0  0  0
    0.0116   -0.3360    0.0000 C   0  0  0  0  0  0  0  0  0  0  0  0
    0.4241    0.3785    0.0000 C   0  0  0  0  0  0  0  0  0  0  0  0
    0.0116    1.0929    0.0000 O   0  0  0  0  0  0  0  0  0  0  0  0
    0.4241   -1.0505    0.0000 C   0  0  0  0  0  0  0  0  0  0  0  0
    1.2491   -1.0505    0.0000 C   0  0  0  0  0  0  0  0  0  0  0  0
    0.0116   -1.7650    0.0000 C   0  0  0  0  0  0  0  0  0  0  0  0
    1.6616   -1.7650    0.0000 C   0  0  0  0  0  0  0  0  0  0  0  0
    1.2491    0.3785    0.0000 N   0  0  0  0  0  0  0  0  0  0  0  0
    1.7340    1.0459    0.0000 C   0  0  0  0  0  0  0  0  0  0  0  0
    1.4791    1.8305    0.0000 C   0  0  0  0  0  0  0  0  0  0  0  0
    2.0311    2.4436    0.0000 O   0  0  0  0  0  0  0  0  0  0  0  0
    0.6721    2.0020    0.0000 O   0  0  0  0  0  0  0  0  0  0  0  0
    2.5186    0.7910    0.0000 C   0  0  0  0  0  0  0  0  0  0  0  0
    2.5186   -0.0340    0.0000 C   0  0  0  0  0  0  0  0  0  0  0  0
    1.7340   -0.2890    0.0000 C   0  0  0  0  0  0  0  0  0  0  0  0
  1  2  1  0
  2  3  1  0
  3  4  1  0
  4 17  1  0
  5  6  2  0
  5 10  1  0
  5 11  1  0
  6  7  1  0
  7  8  2  0
  8  9  1  0
  9 10  2  0
 11 30  1  0
 12 13  1  0
 12 16  1  0
 13 14  1  6
 13 16  1  0
 14 15  2  0
 14 19  1  0
 16 17  1  1
 17 18  2  0
 20 19  1  6
 20 21  1  0
 20 23  1  0
 21 22  2  0
 21 27  1  0
 23 24  1  0
 23 25  1  6
 24 26  1  0
 27 28  1  0
 27 34  1  0
 28 29  1  6
 28 32  1  0
 29 30  1  0
 29 31  2  0
 32 33  1  0
 33 34  1  0
M  END
>  <DRUGBANK_ID>  (1) 
DB07219

>  <COMMON_NAME>  (1) 
BENZYL N-({(2S,3S)-3-[(PROPYLAMINO)CARBONYL]OXIRAN-2-YL}CARBONYL)-L-ISOLEUCYL-L-PROLINATE

$$$$
