SNX
     RDKit          2D

 28 31  0  0  0  0  0  0  0  0999 V2000
   -0.4730    2.5634    0.0000 O   0  0  0  0  0  0  0  0  0  0  0  0
    0.2415    2.1509    0.0000 C   0  0  0  0  0  0  0  0  0  0  0  0
    0.9560    2.5634    0.0000 N   0  0  0  0  0  0  0  0  0  0  0  0
    0.2415    1.3259    0.0000 C   0  0  0  0  0  0  0  0  0  0  0  0
    0.9560    0.9134    0.0000 C   0  0  0  0  0  0  0  0  0  0  0  0
    0.9560    0.0884    0.0000 C   0  0  0  0  0  0  0  0  0  0  0  0
   -0.4730    0.9134    0.0000 C   0  0  0  0  0  0  0  0  0  0  0  0
   -1.1875    1.3259    0.0000 N   0  0  0  0  0  0  0  0  0  0  0  0
   -1.1875    2.1509    0.0000 C   0  0  0  0  0  0  0  0  0  0  0  0
   -1.9019    2.5634    0.0000 C   0  0  0  0  0  0  0  0  0  0  0  0
   -1.9019    3.3884    0.0000 O   0  0  0  0  0  0  0  0  0  0  0  0
   -2.6164    3.8009    0.0000 C   0  0  0  0  0  0  0  0  0  0  0  0
   -0.4730    0.0884    0.0000 C   0  0  0  0  0  0  0  0  0  0  0  0
    0.2415   -0.3241    0.0000 C   0  0  0  0  0  0  0  0  0  0  0  0
    0.2415   -1.1491    0.0000 N   0  0  0  0  0  0  0  0  0  0  0  0
   -0.4259   -1.6340    0.0000 C   0  0  0  0  0  0  0  0  0  0  0  0
   -1.2329   -1.4624    0.0000 C   0  0  0  0  0  0  0  0  0  0  0  0
   -1.7850   -2.0755    0.0000 C   0  0  0  0  0  0  0  0  0  0  0  0
   -1.5300   -2.8602    0.0000 C   0  0  0  0  0  0  0  0  0  0  0  0
   -0.7230   -3.0317    0.0000 C   0  0  0  0  0  0  0  0  0  0  0  0
    0.9089   -1.6340    0.0000 C   0  0  0  0  0  0  0  0  0  0  0  0
    1.7159   -1.4624    0.0000 C   0  0  0  0  0  0  0  0  0  0  0  0
    2.2679   -2.0755    0.0000 C   0  0  0  0  0  0  0  0  0  0  0  0
    2.0130   -2.8602    0.0000 C   0  0  0  0  0  0  0  0  0  0  0  0
    1.2060   -3.0317    0.0000 C   0  0  0  0  0  0  0  0  0  0  0  0
    0.9511   -3.8163    0.0000 O   0  0  0  0  0  0  0  0  0  0  0  0
    0.6540   -2.4186    0.0000 C   0  0  0  0  0  0  0  0  0  0  0  0
   -0.1710   -2.4186    0.0000 C   0  0  0  0  0  0  0  0  0  0  0  0
  1  2  2  0
  2  3  1  0
  2  4  1  0
  4  5  2  0
  4  7  1  0
  5  6  1  0
  6 14  2  0
  7  8  1  0
  7 13  2  0
  8  9  1  0
  9 10  1  0
 10 11  1  0
 11 12  1  0
 13 14  1  0
 14 15  1  0
 15 16  1  0
 15 21  1  0
 16 17  2  0
 16 28  1  0
 17 18  1  0
 18 19  2  0
 19 20  1  0
 20 28  2  0
 21 22  1  0
 21 27  2  0
 22 23  1  0
 23 24  1  0
 24 25  1  0
 25 26  2  0
 25 27  1  0
 27 28  1  0
M  END
>  <DRUGBANK_ID>  (1) 
DB08557

>  <COMMON_NAME>  (1) 
2-[(2-methoxyethyl)amino]-4-(4-oxo-1,2,3,4-tetrahydro-9H-carbazol-9-yl)benzamide

$$$$
