
     RDKit          2D

 10 11  0  0  1  0  0  0  0  0999 V2000
    2.8408    0.8888    0.0000 C   0  0  0  0  0  0  0  0  0  0  0  0
    3.2533    1.6033    0.0000 C   0  0  0  0  0  0  0  0  0  0  0  0
    3.6658    0.8888    0.0000 O   0  0  0  0  0  0  0  0  0  0  0  0
    3.2533    2.4283    0.0000 C   0  0  0  0  0  0  0  0  0  0  0  0
    2.5388    2.8408    0.0000 C   0  0  0  0  0  0  0  0  0  0  0  0
    2.5388    3.6658    0.0000 C   0  0  0  0  0  0  0  0  0  0  0  0
    2.1263    4.3803    0.0000 C   0  0  0  0  0  0  0  0  0  0  0  0
    2.9513    4.3803    0.0000 O   0  0  0  0  0  0  0  0  0  0  0  0
    1.8243    2.4283    0.0000 O   0  0  0  0  0  0  0  0  0  0  0  0
    3.9678    2.8408    0.0000 O   0  0  0  0  0  0  0  0  0  0  0  0
  2  1  1  6
  1  3  1  0
  2  3  1  0
  2  4  1  0
  4  5  1  0
  4 10  1  1
  5  9  1  6
  6  5  1  0
  6  7  1  6
  6  8  1  0
  7  8  1  0
M  END
>  <DRUGBANK_ID>  (1) 
DB12873

>  <COMMON_NAME>  (1) 
Dianhydrogalactitol

>  <CAS_NUMBER>  (1) 
23261-20-3

>  <UNII>  (1) 
4S465RYF7M

>  <SYNONYMS>  (1) 
1,2:5,6-Dianhdrogalactitol; 1,2:5,6-Dianhydrogalactitol; Dianhydrogalactitol

$$$$
