
     RDKit          2D

 30 33  0  0  0  0  0  0  0  0999 V2000
   -0.8195   -0.4660    0.0000 C   0  0  0  0  0  0  0  0  0  0  0  0
   -1.5367   -0.8588    0.0000 C   0  0  0  0  0  0  0  0  0  0  0  0
   -0.8195    0.3590    0.0000 C   0  0  0  0  0  0  0  0  0  0  0  0
   -0.0349   -0.7209    0.0000 C   0  0  0  0  0  0  0  0  0  0  0  0
   -2.2300   -0.4115    0.0000 C   0  0  0  0  0  0  0  0  0  0  0  0
   -1.5367   -1.6545    0.0000 C   0  0  0  0  0  0  0  0  0  0  0  0
   -0.0349    0.6139    0.0000 C   0  0  0  0  0  0  0  0  0  0  0  0
   -1.5128    0.7769    0.0000 C   0  0  0  0  0  0  0  0  0  0  0  0
   -0.8195    1.2687    0.0000 C   0  0  0  0  0  0  0  0  0  0  0  0
    0.4499   -0.0535    0.0000 C   0  0  0  0  0  0  0  0  0  0  0  0
   -2.9233   -0.8588    0.0000 C   0  0  0  0  0  0  0  0  0  0  0  0
   -2.2162    0.3295    0.0000 C   0  0  0  0  0  0  0  0  0  0  0  0
   -2.2162   -2.0951    0.0000 C   0  0  0  0  0  0  0  0  0  0  0  0
   -0.0062    1.6106    0.0000 C   0  0  0  0  0  0  0  0  0  0  0  0
    0.7990    1.0708    0.0000 O   0  0  0  0  0  0  0  0  0  0  0  0
   -2.9233   -1.6545    0.0000 C   0  0  0  0  0  0  0  0  0  0  0  0
   -3.6199   -0.4115    0.0000 C   0  0  0  0  0  0  0  0  0  0  0  0
    0.7378    1.9742    0.0000 C   0  0  0  0  0  0  0  0  0  0  0  0
   -0.6270    2.0951    0.0000 O   0  0  0  0  0  0  0  0  0  0  0  0
    1.5230    0.6234    0.0000 C   0  0  0  0  0  0  0  0  0  0  0  0
   -3.6164   -2.0951    0.0000 C   0  0  0  0  0  0  0  0  0  0  0  0
   -4.3338   -0.8588    0.0000 C   0  0  0  0  0  0  0  0  0  0  0  0
    2.2264    1.0843    0.0000 C   0  0  0  0  0  0  0  0  0  0  0  0
    1.5230   -0.1176    0.0000 O   0  0  0  0  0  0  0  0  0  0  0  0
   -4.3338   -1.6545    0.0000 C   0  0  0  0  0  0  0  0  0  0  0  0
    2.9574    0.6234    0.0000 C   0  0  0  0  0  0  0  0  0  0  0  0
   -5.0269   -2.0951    0.0000 O   0  0  0  0  0  0  0  0  0  0  0  0
    3.6404    1.0434    0.0000 C   0  0  0  0  0  0  0  0  0  0  0  0
    4.2961    0.5892    0.0000 C   0  0  0  0  0  0  0  0  0  0  0  0
    5.0269    1.0708    0.0000 C   0  0  0  0  0  0  0  0  0  0  0  0
  1  2  1  0
  1  3  1  0
  1  4  1  1
  2  5  1  0
  2  6  1  6
  3  7  1  0
  3  8  1  0
  3  9  1  1
  4 10  1  0
  5 11  1  0
  5 12  1  1
  6 13  1  0
  7 14  1  0
  7 10  1  0
  7 15  1  6
  8 12  1  0
 11 16  1  0
 11 17  1  6
 13 16  1  0
 14 18  1  0
 14 19  2  0
 15 20  1  0
 16 21  2  0
 17 22  1  0
 20 23  1  0
 20 24  2  0
 21 25  1  0
 22 25  1  0
 23 26  1  0
 25 27  2  0
 26 28  1  0
 28 29  1  0
 29 30  1  0
M  END
>  <DRUGBANK_ID>  (1) 
DB14677

>  <COMMON_NAME>  (1) 
Gestonorone caproate

>  <CAS_NUMBER>  (1) 
1253-28-7

>  <UNII>  (1) 
U38E620NS6

>  <SYNONYMS>  (1) 
Gestonorone caproate; Gestonorone hexanoate

$$$$
