ROK
     RDKit          2D

 17 17  0  0  0  0  0  0  0  0999 V2000
   20.2323    6.4723    0.0000 O   0  0  0  0  0  0  0  0  0  0  0  0
   19.8198    5.7579    0.0000 S   0  0  0  0  0  0  0  0  0  0  0  0
   19.4073    5.0434    0.0000 O   0  0  0  0  0  0  0  0  0  0  0  0
   20.5343    5.3454    0.0000 N   0  0  0  0  0  0  0  0  0  0  0  0
   21.2487    5.7579    0.0000 C   0  0  0  0  0  0  0  0  0  0  0  0
   21.2487    6.5829    0.0000 O   0  0  0  0  0  0  0  0  0  0  0  0
   21.9632    5.3454    0.0000 N   0  0  0  0  0  0  0  0  0  0  0  0
   22.6777    5.7579    0.0000 C   0  0  0  0  0  0  0  0  0  0  0  0
   23.3922    5.3454    0.0000 C   0  0  0  0  0  0  0  0  0  0  0  0
   24.1066    5.7579    0.0000 S   0  0  0  0  0  0  0  0  0  0  0  0
   19.1053    6.1704    0.0000 C   0  0  0  0  0  0  0  0  0  0  0  0
   18.3909    5.7579    0.0000 C   0  0  0  0  0  0  0  0  0  0  0  0
   17.6764    6.1704    0.0000 C   0  0  0  0  0  0  0  0  0  0  0  0
   17.6764    6.9954    0.0000 C   0  0  0  0  0  0  0  0  0  0  0  0
   16.9619    7.4079    0.0000 N   0  0  0  0  0  0  0  0  0  0  0  0
   18.3909    7.4079    0.0000 C   0  0  0  0  0  0  0  0  0  0  0  0
   19.1053    6.9954    0.0000 C   0  0  0  0  0  0  0  0  0  0  0  0
  1  2  2  0
  2  3  2  0
  2  4  1  0
  2 11  1  0
  4  5  1  0
  5  6  2  0
  5  7  1  0
  7  8  1  0
  8  9  1  0
  9 10  1  0
 11 12  2  0
 11 17  1  0
 12 13  1  0
 13 14  2  0
 14 15  1  0
 14 16  1  0
 16 17  2  0
M  END
>  <DRUGBANK_ID>  (1) 
DB08484

>  <COMMON_NAME>  (1) 
4-AMINO-N-[(2-SULFANYLETHYL)CARBAMOYL]BENZENESULFONAMIDE

$$$$
