
     RDKit          2D

 26 28  0  0  0  0  0  0  0  0999 V2000
   -7.1239   -3.6822    0.0000 C   0  0  0  0  0  0  0  0  0  0  0  0
   -6.6389   -3.0147    0.0000 O   0  0  0  0  0  0  0  0  0  0  0  0
   -5.8185   -3.1010    0.0000 C   0  0  0  0  0  0  0  0  0  0  0  0
   -5.3335   -2.4335    0.0000 C   0  0  0  0  0  0  0  0  0  0  0  0
   -5.6691   -1.6799    0.0000 C   0  0  0  0  0  0  0  0  0  0  0  0
   -4.5131   -2.5198    0.0000 C   0  0  0  0  0  0  0  0  0  0  0  0
   -4.0281   -1.8523    0.0000 C   0  0  0  0  0  0  0  0  0  0  0  0
   -3.2077   -1.9386    0.0000 N   0  0  0  0  0  0  0  0  0  0  0  0
   -2.6556   -1.3255    0.0000 C   0  0  0  0  0  0  0  0  0  0  0  0
   -1.9019   -1.6610    0.0000 C   0  0  0  0  0  0  0  0  0  0  0  0
   -1.1875   -1.2485    0.0000 C   0  0  0  0  0  0  0  0  0  0  0  0
   -1.1875   -0.4235    0.0000 O   0  0  0  0  0  0  0  0  0  0  0  0
   -0.4730   -1.6610    0.0000 N   0  0  0  0  0  0  0  0  0  0  0  0
    0.2415   -1.2485    0.0000 C   0  0  0  0  0  0  0  0  0  0  0  0
    0.9559   -1.6610    0.0000 C   0  0  0  0  0  0  0  0  0  0  0  0
    1.6704   -1.2485    0.0000 O   0  0  0  0  0  0  0  0  0  0  0  0
   -1.9882   -2.4815    0.0000 C   0  0  0  0  0  0  0  0  0  0  0  0
   -1.4362   -3.0946    0.0000 N   0  0  0  0  0  0  0  0  0  0  0  0
   -1.6911   -3.8792    0.0000 C   0  0  0  0  0  0  0  0  0  0  0  0
   -2.4981   -4.0508    0.0000 C   0  0  0  0  0  0  0  0  0  0  0  0
   -2.7530   -4.8354    0.0000 C   0  0  0  0  0  0  0  0  0  0  0  0
   -3.0501   -3.4377    0.0000 C   0  0  0  0  0  0  0  0  0  0  0  0
   -2.7952   -2.6530    0.0000 C   0  0  0  0  0  0  0  0  0  0  0  0
   -4.1775   -3.2735    0.0000 N   0  0  0  0  0  0  0  0  0  0  0  0
   -4.6624   -3.9409    0.0000 C   0  0  0  0  0  0  0  0  0  0  0  0
   -5.4829   -3.8547    0.0000 N   0  0  0  0  0  0  0  0  0  0  0  0
  1  2  1  0
  2  3  1  0
  3  4  2  0
  3 26  1  0
  4  5  1  0
  4  6  1  0
  6  7  1  0
  6 24  2  0
  7  8  1  0
  8  9  1  0
  8 23  1  0
  9 10  2  0
 10 11  1  0
 10 17  1  0
 11 12  2  0
 11 13  1  0
 13 14  1  0
 14 15  1  0
 15 16  1  0
 17 18  1  0
 17 23  2  0
 18 19  2  0
 19 20  1  0
 20 21  1  0
 20 22  2  0
 22 23  1  0
 24 25  1  0
 25 26  2  0
M  END
>  <DRUGBANK_ID>  (1) 
DB16243

>  <COMMON_NAME>  (1) 
TBA-7371

>  <CAS_NUMBER>  (1) 
1494675-86-3

>  <UNII>  (1) 
R3T98GBE3C

$$$$
