
     RDKit          2D

 12 12  0  0  0  0  0  0  0  0999 V2000
    0.7144    0.0000    0.0000 C   0  0  0  0  0  0  0  0  0  0  0  0
    0.7144    0.8250    0.0000 C   0  0  0  0  0  0  0  0  0  0  0  0
    0.0000   -0.4124    0.0000 N   0  0  0  0  0  0  0  0  0  0  0  0
    0.0000    1.2374    0.0000 C   0  0  0  0  0  0  0  0  0  0  0  0
   -0.7144    0.8250    0.0000 C   0  0  0  0  0  0  0  0  0  0  0  0
   -0.7144    0.0000    0.0000 C   0  0  0  0  0  0  0  0  0  0  0  0
    1.4289   -0.4124    0.0000 C   0  0  0  0  0  0  0  0  0  0  0  0
    2.1434    0.0000    0.0000 O   0  0  0  0  0  0  0  0  0  0  0  0
    1.4289   -1.2375    0.0000 O   0  0  0  0  0  0  0  0  0  0  0  0
   -1.4288   -0.4124    0.0000 C   0  0  0  0  0  0  0  0  0  0  0  0
   -2.1433    0.0000    0.0000 O   0  0  0  0  0  0  0  0  0  0  0  0
   -1.4288   -1.2375    0.0000 O   0  0  0  0  0  0  0  0  0  0  0  0
  1  7  1  0
  1  2  2  0
  2  4  1  0
  3  1  1  0
  3  6  2  0
  4  5  2  0
  5  6  1  0
  6 10  1  0
  7  8  1  0
  7  9  2  0
 10 11  1  0
 10 12  2  0
M  END
>  <DRUGBANK_ID>  (1) 
DB04267

>  <SECONDARY_ACCESSION_NUMBERS>  (1) 
EXPT02530

>  <COMMON_NAME>  (1) 
Dipicolinic acid

>  <CAS_NUMBER>  (1) 
499-83-2

>  <UNII>  (1) 
UE81S5CQ0G

>  <SYNONYMS>  (1) 
2,6-dicarboxypyridine; 2,6-Dipicolinic acid; 2,6-pyridinedicarboxylic acid

$$$$
