GVQ
     RDKit          2D

 16 17  0  0  0  0  0  0  0  0999 V2000
    1.9273   -0.2591    0.0000 C   0  0  0  0  0  0  0  0  0  0  0  0
    2.6418   -0.6716    0.0000 C   0  0  0  0  0  0  0  0  0  0  0  0
    2.6418   -1.4966    0.0000 C   0  0  0  0  0  0  0  0  0  0  0  0
    1.9273   -1.9091    0.0000 C   0  0  0  0  0  0  0  0  0  0  0  0
   -0.9306   -1.9091    0.0000 C   0  0  0  0  0  0  0  0  0  0  0  0
   -1.6450   -1.4966    0.0000 C   0  0  0  0  0  0  0  0  0  0  0  0
   -1.6450   -0.6716    0.0000 C   0  0  0  0  0  0  0  0  0  0  0  0
   -0.9306   -0.2591    0.0000 C   0  0  0  0  0  0  0  0  0  0  0  0
    0.4984   -0.2591    0.0000 C   0  0  0  0  0  0  0  0  0  0  0  0
   -0.2161   -1.4966    0.0000 C   0  0  0  0  0  0  0  0  0  0  0  0
   -0.2161   -0.6716    0.0000 C   0  0  0  0  0  0  0  0  0  0  0  0
    1.2128   -0.6716    0.0000 C   0  0  0  0  0  0  0  0  0  0  0  0
    1.2128   -1.4966    0.0000 C   0  0  0  0  0  0  0  0  0  0  0  0
    0.4984    0.5659    0.0000 C   0  0  0  0  0  0  0  0  0  0  0  0
    1.2128    0.9784    0.0000 N   0  0  0  0  0  0  0  0  0  0  0  0
    3.3563   -1.9091    0.0000 Cl  0  0  0  0  0  0  0  0  0  0  0  0
  1  2  2  0
  1 12  1  0
  2  3  1  0
  3  4  2  0
  3 16  1  0
  4 13  1  0
  5  6  2  0
  5 10  1  0
  6  7  1  0
  7  8  2  0
  8 11  1  0
  9 11  1  0
  9 12  1  0
  9 14  1  1
 10 11  2  0
 12 13  2  0
 14 15  1  0
M  END
>  <DRUGBANK_ID>  (1) 
DB07860

>  <COMMON_NAME>  (1) 
(2R)-2-(4-CHLOROPHENYL)-2-PHENYLETHANAMINE

$$$$
