
     RDKit          2D

 29 32  0  0  0  0  0  0  0  0999 V2000
   -4.4684    0.6623    0.0000 C   0  0  0  0  0  0  0  0  0  0  0  0
   -0.9856    2.1330    0.0000 C   0  0  0  0  0  0  0  0  0  0  0  0
   -3.6614    0.8338    0.0000 C   0  0  0  0  0  0  0  0  0  0  0  0
    3.9164   -2.1330    0.0000 C   0  0  0  0  0  0  0  0  0  0  0  0
    4.4684   -1.5199    0.0000 C   0  0  0  0  0  0  0  0  0  0  0  0
    3.1094   -1.9615    0.0000 C   0  0  0  0  0  0  0  0  0  0  0  0
    4.2134   -0.7353    0.0000 C   0  0  0  0  0  0  0  0  0  0  0  0
    2.8544   -1.1769    0.0000 C   0  0  0  0  0  0  0  0  0  0  0  0
    2.0475   -1.0054    0.0000 C   0  0  0  0  0  0  0  0  0  0  0  0
    1.4954   -1.6184    0.0000 C   0  0  0  0  0  0  0  0  0  0  0  0
    0.9856   -0.0492    0.0000 C   0  0  0  0  0  0  0  0  0  0  0  0
   -1.4533   -1.6184    0.0000 C   0  0  0  0  0  0  0  0  0  0  0  0
    3.1515    0.2207    0.0000 C   0  0  0  0  0  0  0  0  0  0  0  0
   -0.6885    0.7353    0.0000 C   0  0  0  0  0  0  0  0  0  0  0  0
    3.4065   -0.5638    0.0000 C   0  0  0  0  0  0  0  0  0  0  0  0
    1.7925   -0.2207    0.0000 C   0  0  0  0  0  0  0  0  0  0  0  0
    0.4335   -0.6623    0.0000 C   0  0  0  0  0  0  0  0  0  0  0  0
   -0.9434   -0.0492    0.0000 C   0  0  0  0  0  0  0  0  0  0  0  0
    0.6885   -1.4469    0.0000 C   0  0  0  0  0  0  0  0  0  0  0  0
   -0.6463   -1.4469    0.0000 C   0  0  0  0  0  0  0  0  0  0  0  0
   -0.3914   -0.6623    0.0000 C   0  0  0  0  0  0  0  0  0  0  0  0
   -1.7504   -0.2207    0.0000 C   0  0  0  0  0  0  0  0  0  0  0  0
   -2.3024    0.3923    0.0000 C   0  0  0  0  0  0  0  0  0  0  0  0
   -2.0053   -1.0054    0.0000 N   0  0  0  0  0  0  0  0  0  0  0  0
    0.0210   -1.9318    0.0000 N   0  0  0  0  0  0  0  0  0  0  0  0
   -2.0475    1.1769    0.0000 O   0  0  0  0  0  0  0  0  0  0  0  0
   -1.2405    1.3484    0.0000 O   0  0  0  0  0  0  0  0  0  0  0  0
   -3.1094    0.2207    0.0000 O   0  0  0  0  0  0  0  0  0  0  0  0
    2.3446    0.3923    0.0000 O   0  0  0  0  0  0  0  0  0  0  0  0
  3  1  1  0
  5  4  2  0
  6  4  1  0
  7  5  1  0
  8  6  2  0
 10  9  2  0
 15  7  2  0
 15  8  1  0
 15 13  1  0
 16  9  1  0
 16 11  2  0
 17 11  1  0
 18 14  1  0
 19 10  1  0
 19 17  2  0
 20 12  2  0
 21 17  1  0
 21 18  2  0
 21 20  1  0
 22 18  1  0
 23 22  1  0
 24 12  1  0
 24 22  2  0
 25 19  1  0
 25 20  1  0
 26 23  2  0
 27  2  1  0
 27 14  1  0
 28  3  1  0
 28 23  1  0
 29 13  1  0
 29 16  1  0
M  END
>  <DRUGBANK_ID>  (1) 
DB17063

>  <COMMON_NAME>  (1) 
ZK-93423

>  <CAS_NUMBER>  (1) 
83910-44-5

>  <UNII>  (1) 
B6PWX5B47Q

>  <SYNONYMS>  (1) 
9H-Pyrido[3,4-b]indole-3-carboxylicacid, 4-(methoxymethyl)-6-(phenylmethoxy)-, ethyl ester

$$$$
