
     RDKit          2D

 37 41  0  0  1  0  0  0  0  0999 V2000
    7.6936    0.7095    0.0000 C   0  0  0  0  0  0  0  0  0  0  0  0
    7.0978    0.1389    0.0000 C   0  0  0  0  0  0  0  0  0  0  0  0
    7.2940   -0.6624    0.0000 C   0  0  0  0  0  0  0  0  0  0  0  0
    6.6982   -1.2330    0.0000 C   0  0  0  0  0  0  0  0  0  0  0  0
    6.8944   -2.0344    0.0000 O   0  0  0  0  0  0  0  0  0  0  0  0
    6.2986   -2.6050    0.0000 C   0  0  0  0  0  0  0  0  0  0  0  0
    6.4948   -3.4063    0.0000 C   0  0  0  0  0  0  0  0  0  0  0  0
    5.8990   -3.9769    0.0000 C   0  0  0  0  0  0  0  0  0  0  0  0
    6.0952   -4.7782    0.0000 S   0  0  0  0  0  0  0  0  0  0  0  0
    6.2915   -5.5795    0.0000 C   0  0  0  0  0  0  0  0  0  0  0  0
    6.8965   -4.5820    0.0000 O   0  0  0  0  0  0  0  0  0  0  0  0
    5.2939   -4.9745    0.0000 O   0  0  0  0  0  0  0  0  0  0  0  0
    5.9061   -1.0023    0.0000 C   0  0  0  0  0  0  0  0  0  0  0  0
    5.7098   -0.2010    0.0000 C   0  0  0  0  0  0  0  0  0  0  0  0
    4.9177    0.0297    0.0000 C   0  0  0  0  0  0  0  0  0  0  0  0
    6.3057    0.3696    0.0000 C   0  0  0  0  0  0  0  0  0  0  0  0
    6.1094    1.1709    0.0000 C   0  0  0  0  0  0  0  0  0  0  0  0
    5.3173    1.4016    0.0000 C   0  0  0  0  0  0  0  0  0  0  0  0
    5.1211    2.2029    0.0000 C   0  0  0  0  0  0  0  0  0  0  0  0
    4.3290    2.4337    0.0000 C   0  0  0  0  0  0  0  0  0  0  0  0
    3.7332    1.8630    0.0000 O   0  0  0  0  0  0  0  0  0  0  0  0
    2.9411    2.0937    0.0000 C   0  0  0  0  0  0  0  0  0  0  0  0
    2.3452    1.5231    0.0000 C   0  0  0  0  0  0  0  0  0  0  0  0
    1.5531    1.7538    0.0000 C   0  0  0  0  0  0  0  0  0  0  0  0
    1.3569    2.5551    0.0000 C   0  0  0  0  0  0  0  0  0  0  0  0
    1.9527    3.1258    0.0000 C   0  0  0  0  0  0  0  0  0  0  0  0
    2.7448    2.8951    0.0000 N   0  0  0  0  0  0  0  0  0  0  0  0
    0.5342    2.6161    0.0000 C   0  0  0  0  0  0  0  0  0  0  0  0
    0.2219    1.8525    0.0000 C   0  0  0  0  0  0  0  0  0  0  0  0
    0.8517    1.3196    0.0000 C   0  0  0  0  0  0  0  0  0  0  0  0
   -0.2833    2.5047    0.0000 C   0  0  0  0  0  0  0  0  0  0  0  0
   -1.0469    2.8169    0.0000 C   0  0  0  0  0  0  0  0  0  0  0  0
   -1.1583    3.6344    0.0000 O   0  0  0  0  0  0  0  0  0  0  0  0
   -1.6991    2.3117    0.0000 O   0  0  0  0  0  0  0  0  0  0  0  0
    5.7169    2.7736    0.0000 C   0  0  0  0  0  0  0  0  0  0  0  0
    6.5090    2.5429    0.0000 C   0  0  0  0  0  0  0  0  0  0  0  0
    6.7053    1.7415    0.0000 C   0  0  0  0  0  0  0  0  0  0  0  0
  1  2  1  0
  2  3  2  0
  2 16  1  0
  3  4  1  0
  4  5  1  0
  4 13  2  0
  5  6  1  0
  6  7  1  0
  7  8  1  0
  8  9  1  0
  9 10  1  0
  9 11  2  0
  9 12  2  0
 13 14  1  0
 14 15  1  0
 14 16  2  0
 16 17  1  0
 17 18  2  0
 17 37  1  0
 18 19  1  0
 19 20  1  0
 19 35  2  0
 20 21  1  0
 21 22  1  0
 22 23  2  0
 22 27  1  0
 23 24  1  0
 24 25  2  0
 24 30  1  0
 25 26  1  0
 26 27  2  0
 28 25  1  1
 28 29  1  0
 28 31  1  0
 29 30  1  1
 29 31  1  0
 31 32  1  6
 32 33  1  0
 32 34  2  0
 35 36  1  0
 36 37  2  0
M  END
>  <DRUGBANK_ID>  (1) 
DB14937

>  <COMMON_NAME>  (1) 
MK-8666

>  <CAS_NUMBER>  (1) 
1544739-75-4

>  <UNII>  (1) 
11612L5SPI

$$$$
