
     RDKit          2D

 26 29  0  0  1  0  0  0  0  0999 V2000
    3.2147   -3.2918    0.0000 C   0  0  0  0  0  0  0  0  0  0  0  0
    3.5913   -2.5578    0.0000 C   0  0  0  0  0  0  0  0  0  0  0  0
    4.3254   -2.9343    0.0000 C   0  0  0  0  0  0  0  0  0  0  0  0
    2.8573   -2.1812    0.0000 C   0  0  0  0  0  0  0  0  0  0  0  0
    3.9679   -1.8237    0.0000 C   0  0  0  0  0  0  0  0  0  0  0  0
    4.7919   -1.7828    0.0000 C   0  0  0  0  0  0  0  0  0  0  0  0
    5.1684   -1.0488    0.0000 O   0  0  0  0  0  0  0  0  0  0  0  0
    3.5204   -1.1306    0.0000 N   0  0  0  0  0  0  0  0  0  0  0  0
    3.8970   -0.3965    0.0000 C   0  0  0  0  0  0  0  0  0  0  0  0
    4.7210   -0.3556    0.0000 O   0  0  0  0  0  0  0  0  0  0  0  0
    3.4496    0.2966    0.0000 C   0  0  0  0  0  0  0  0  0  0  0  0
    3.7473    1.0660    0.0000 N   0  0  0  0  0  0  0  0  0  0  0  0
    3.1076    1.5869    0.0000 N   0  0  0  0  0  0  0  0  0  0  0  0
    2.4145    1.1395    0.0000 C   0  0  0  0  0  0  0  0  0  0  0  0
    2.6258    0.3420    0.0000 C   0  0  0  0  0  0  0  0  0  0  0  0
    1.9327   -0.1054    0.0000 C   0  0  0  0  0  0  0  0  0  0  0  0
    1.2930    0.4156    0.0000 C   0  0  0  0  0  0  0  0  0  0  0  0
    0.7755    1.0581    0.0000 C   0  0  0  0  0  0  0  0  0  0  0  0
    1.5907    1.1849    0.0000 C   0  0  0  0  0  0  0  0  0  0  0  0
    3.1531    2.4107    0.0000 C   0  0  0  0  0  0  0  0  0  0  0  0
    2.4624    2.8619    0.0000 C   0  0  0  0  0  0  0  0  0  0  0  0
    2.5078    3.6856    0.0000 N   0  0  0  0  0  0  0  0  0  0  0  0
    1.8172    4.1369    0.0000 O   0  0  0  0  0  0  0  0  0  0  0  0
    3.2439    4.0582    0.0000 C   0  0  0  0  0  0  0  0  0  0  0  0
    3.9346    3.6069    0.0000 C   0  0  0  0  0  0  0  0  0  0  0  0
    3.8892    2.7832    0.0000 N   0  0  0  0  0  0  0  0  0  0  0  0
  1  2  1  0
  2  3  1  0
  2  4  1  0
  5  2  1  0
  5  6  1  6
  5  8  1  0
  6  7  1  0
  8  9  1  0
  9 10  2  0
  9 11  1  0
 11 12  2  0
 11 15  1  0
 12 13  1  0
 13 14  1  0
 13 20  1  0
 14 15  2  0
 15 16  1  0
 17 16  1  6
 17 18  1  0
 17 19  1  0
 19 18  1  6
 19 14  1  0
 20 21  2  0
 20 26  1  0
 21 22  1  0
 22 23  1  0
 22 24  2  0
 24 25  1  0
 25 26  2  0
M  CHG  2  22   1  23  -1
M  END
>  <DRUGBANK_ID>  (1) 
DB14998

>  <COMMON_NAME>  (1) 
Olorinab

>  <CAS_NUMBER>  (1) 
1268881-20-4

>  <UNII>  (1) 
581F7DFA9B

>  <SYNONYMS>  (1) 
Olorinab

$$$$
