228
     RDKit          2D

 10  9  0  0  1  0  0  0  0  0999 V2000
    5.2224   -0.2615    0.0000 Cl  0  0  0  0  0  0  0  0  0  0  0  0
    3.3810    0.4529    0.0000 F   0  0  0  0  0  0  0  0  0  0  0  0
    4.2060   -0.9760    0.0000 F   0  0  0  0  0  0  0  0  0  0  0  0
    4.5080    0.9760    0.0000 F   0  0  0  0  0  0  0  0  0  0  0  0
    1.6500   -0.6740    0.0000 F   0  0  0  0  0  0  0  0  0  0  0  0
    2.3645    0.5635    0.0000 F   0  0  0  0  0  0  0  0  0  0  0  0
    3.0791   -0.6740    0.0000 O   0  0  0  0  0  0  0  0  0  0  0  0
    3.7935   -0.2615    0.0000 C   0  0  0  0  0  0  0  0  0  0  0  0
    4.5080    0.1510    0.0000 C   0  0  0  0  0  0  0  0  0  0  0  0
    2.3645   -0.2615    0.0000 C   0  0  0  0  0  0  0  0  0  0  0  0
  1  9  1  0
  2  8  1  0
  3  8  1  0
  4  9  1  0
  5 10  1  0
  6 10  1  0
  7  8  1  0
  7 10  1  0
  8  9  1  0
M  END
>  <DRUGBANK_ID>  (1) 
DB00228

>  <SECONDARY_ACCESSION_NUMBERS>  (1) 
APRD00234

>  <COMMON_NAME>  (1) 
Enflurane

>  <CAS_NUMBER>  (1) 
13838-16-9

>  <UNII>  (1) 
91I69L5AY5

>  <SYNONYMS>  (1) 
2-chloro-1,1,2-trifluoroethyl difluoromethyl ether; Alyrane; Efrane; Enflurane; Enflurano; Enfluranum; Methylflurether

$$$$
