
     RDKit          2D

 26 27  0  0  0  0  0  0  0  0999 V2000
    1.3043   -0.6005    0.0000 N   0  0  0  0  0  0  0  0  0  0  0  0
    2.0911   -0.9317    0.0000 C   0  0  0  0  0  0  0  0  0  0  0  0
    1.4285    0.2276    0.0000 C   0  0  0  0  0  0  0  0  0  0  0  0
    0.6003   -1.0144    0.0000 C   0  0  0  0  0  0  0  0  0  0  0  0
    2.6293   -0.3105    0.0000 C   0  0  0  0  0  0  0  0  0  0  0  0
    2.3395   -1.7184    0.0000 C   0  0  0  0  0  0  0  0  0  0  0  0
    2.2153    0.4347    0.0000 C   0  0  0  0  0  0  0  0  0  0  0  0
    1.3872    1.0558    0.0000 C   0  0  0  0  0  0  0  0  0  0  0  0
   -0.1034   -0.6005    0.0000 C   0  0  0  0  0  0  0  0  0  0  0  0
    0.6003   -1.8426    0.0000 O   0  0  0  0  0  0  0  0  0  0  0  0
    3.4575   -0.4762    0.0000 C   0  0  0  0  0  0  0  0  0  0  0  0
    3.1262   -1.8840    0.0000 C   0  0  0  0  0  0  0  0  0  0  0  0
    2.1324    1.5113    0.0000 O   0  0  0  0  0  0  0  0  0  0  0  0
    0.6831    1.4698    0.0000 O   0  0  0  0  0  0  0  0  0  0  0  0
   -0.8488   -1.0144    0.0000 N   0  0  0  0  0  0  0  0  0  0  0  0
   -0.1034    0.2276    0.0000 C   0  0  0  0  0  0  0  0  0  0  0  0
    3.7059   -1.2629    0.0000 C   0  0  0  0  0  0  0  0  0  0  0  0
   -1.5527   -0.6005    0.0000 C   0  0  0  0  0  0  0  0  0  0  0  0
   -1.5527    0.2276    0.0000 C   0  0  0  0  0  0  0  0  0  0  0  0
   -2.2567   -1.0144    0.0000 C   0  0  0  0  0  0  0  0  0  0  0  0
   -0.8488    0.6417    0.0000 O   0  0  0  0  0  0  0  0  0  0  0  0
   -2.2567    0.6417    0.0000 O   0  0  0  0  0  0  0  0  0  0  0  0
   -3.0020   -0.6005    0.0000 C   0  0  0  0  0  0  0  0  0  0  0  0
   -0.8488    1.4698    0.0000 C   0  0  0  0  0  0  0  0  0  0  0  0
   -3.7059   -1.0144    0.0000 C   0  0  0  0  0  0  0  0  0  0  0  0
   -1.5527    1.8840    0.0000 C   0  0  0  0  0  0  0  0  0  0  0  0
  1  2  1  0
  1  3  1  0
  1  4  1  0
  2  5  1  0
  2  6  1  6
  3  7  1  0
  3  8  1  6
  4  9  1  0
  4 10  2  0
  5 11  1  6
  5  7  1  0
  6 12  1  0
  8 13  1  0
  8 14  2  0
  9 15  1  0
  9 16  1  1
 11 17  1  0
 12 17  1  0
 15 18  1  0
 18 19  1  0
 18 20  1  1
 19 21  1  0
 19 22  2  0
 20 23  1  0
 21 24  1  0
 23 25  1  0
 24 26  1  0
M  END
>  <DRUGBANK_ID>  (1) 
DB00790

>  <SECONDARY_ACCESSION_NUMBERS>  (1) 
APRD01178

>  <COMMON_NAME>  (1) 
Perindopril

>  <CAS_NUMBER>  (1) 
82834-16-0

>  <UNII>  (1) 
Y5GMK36KGY

>  <SYNONYMS>  (1) 
(2S,3aS,7aS)-1-[(2S)-2-{[(2S)-1-ethoxy-1-oxopentan-2-yl]amino}propanoyl]octahydro-1H-indole-2-carboxylic acid; Perindopril; Perindoprilum

$$$$
