F21
     RDKit          2D

 21 23  0  0  0  0  0  0  0  0999 V2000
   -2.7005    0.3101    0.0000 C   0  0  0  0  0  0  0  0  0  0  0  0
   -3.4150    0.7226    0.0000 C   0  0  0  0  0  0  0  0  0  0  0  0
   -3.4150    1.5476    0.0000 S   0  0  0  0  0  0  0  0  0  0  0  0
   -2.7005    1.9601    0.0000 C   0  0  0  0  0  0  0  0  0  0  0  0
   -1.9860    1.5476    0.0000 C   0  0  0  0  0  0  0  0  0  0  0  0
   -1.9860    0.7226    0.0000 N   0  0  0  0  0  0  0  0  0  0  0  0
   -1.2716    0.3101    0.0000 S   0  0  0  0  0  0  0  0  0  0  0  0
   -1.6841   -0.4043    0.0000 O   0  0  0  0  0  0  0  0  0  0  0  0
   -0.8591    1.0246    0.0000 O   0  0  0  0  0  0  0  0  0  0  0  0
   -0.5571   -0.1024    0.0000 C   0  0  0  0  0  0  0  0  0  0  0  0
    0.1574    0.3101    0.0000 C   0  0  0  0  0  0  0  0  0  0  0  0
    0.8719   -0.1024    0.0000 C   0  0  0  0  0  0  0  0  0  0  0  0
    1.5863    0.3101    0.0000 C   0  0  0  0  0  0  0  0  0  0  0  0
    2.3008   -0.1024    0.0000 N   0  0  0  0  0  0  0  0  0  0  0  0
    2.3008   -0.9274    0.0000 C   0  0  0  0  0  0  0  0  0  0  0  0
    3.0153   -1.3399    0.0000 C   0  0  0  0  0  0  0  0  0  0  0  0
    3.7297   -0.9274    0.0000 F   0  0  0  0  0  0  0  0  0  0  0  0
    1.5863   -1.3399    0.0000 C   0  0  0  0  0  0  0  0  0  0  0  0
    0.8719   -0.9274    0.0000 C   0  0  0  0  0  0  0  0  0  0  0  0
    0.1574   -1.3399    0.0000 C   0  0  0  0  0  0  0  0  0  0  0  0
   -0.5571   -0.9274    0.0000 C   0  0  0  0  0  0  0  0  0  0  0  0
  1  2  1  0
  1  6  1  0
  2  3  1  0
  3  4  1  0
  4  5  1  0
  5  6  1  0
  6  7  1  0
  7  8  2  0
  7  9  2  0
  7 10  1  0
 10 11  2  0
 10 21  1  0
 11 12  1  0
 12 13  1  0
 12 19  2  0
 13 14  1  0
 14 15  1  0
 15 16  1  1
 15 18  1  0
 16 17  1  0
 18 19  1  0
 19 20  1  0
 20 21  2  0
M  END
>  <DRUGBANK_ID>  (1) 
DB07739

>  <COMMON_NAME>  (1) 
(3R)-3-(FLUOROMETHYL)-7-(THIOMORPHOLIN-4-YLSULFONYL)-1,2,3,4-TETRAHYDROISOQUINOLINE

$$$$
