
     RDKit          2D

 35 39  0  0  0  0  0  0  0  0999 V2000
   -2.4386   -2.3422    0.0000 C   0  0  0  0  0  0  0  0  0  0  0  0
   -1.8691   -2.9391    0.0000 C   0  0  0  0  0  0  0  0  0  0  0  0
   -2.4660   -3.5086    0.0000 N   0  0  0  0  0  0  0  0  0  0  0  0
   -2.2712   -4.3103    0.0000 C   0  0  0  0  0  0  0  0  0  0  0  0
   -2.8681   -4.8798    0.0000 C   0  0  0  0  0  0  0  0  0  0  0  0
   -3.6598   -4.6477    0.0000 N   0  0  0  0  0  0  0  0  0  0  0  0
   -3.8545   -3.8460    0.0000 C   0  0  0  0  0  0  0  0  0  0  0  0
   -3.2577   -3.2765    0.0000 C   0  0  0  0  0  0  0  0  0  0  0  0
   -4.2566   -5.2172    0.0000 C   0  0  0  0  0  0  0  0  0  0  0  0
   -4.0619   -6.0189    0.0000 N   0  0  0  0  0  0  0  0  0  0  0  0
   -4.6587   -6.5884    0.0000 C   0  0  0  0  0  0  0  0  0  0  0  0
   -5.4504   -6.3563    0.0000 C   0  0  0  0  0  0  0  0  0  0  0  0
   -5.6452   -5.5546    0.0000 C   0  0  0  0  0  0  0  0  0  0  0  0
   -5.0483   -4.9851    0.0000 C   0  0  0  0  0  0  0  0  0  0  0  0
   -6.0473   -6.9258    0.0000 C   0  0  0  0  0  0  0  0  0  0  0  0
   -6.6442   -7.4953    0.0000 F   0  0  0  0  0  0  0  0  0  0  0  0
   -5.4777   -7.5227    0.0000 F   0  0  0  0  0  0  0  0  0  0  0  0
   -6.6168   -6.3289    0.0000 F   0  0  0  0  0  0  0  0  0  0  0  0
   -1.2722   -2.3696    0.0000 C   0  0  0  0  0  0  0  0  0  0  0  0
   -1.4670   -1.5679    0.0000 O   0  0  0  0  0  0  0  0  0  0  0  0
   -0.4806   -2.6017    0.0000 N   0  0  0  0  0  0  0  0  0  0  0  0
    0.1163   -2.0322    0.0000 C   0  0  0  0  0  0  0  0  0  0  0  0
    0.8517   -1.6585    0.0000 C   0  0  0  0  0  0  0  0  0  0  0  0
    0.8517   -0.9111    0.0000 C   0  0  0  0  0  0  0  0  0  0  0  0
    1.3012   -0.1208    0.0000 C   0  0  0  0  0  0  0  0  0  0  0  0
    0.5657   -0.4945    0.0000 C   0  0  0  0  0  0  0  0  0  0  0  0
    0.5657   -1.2419    0.0000 C   0  0  0  0  0  0  0  0  0  0  0  0
    1.3012   -1.6156    0.0000 C   0  0  0  0  0  0  0  0  0  0  0  0
    2.0368   -1.2419    0.0000 C   0  0  0  0  0  0  0  0  0  0  0  0
    1.5873   -2.0322    0.0000 C   0  0  0  0  0  0  0  0  0  0  0  0
    2.0368   -0.4945    0.0000 C   0  0  0  0  0  0  0  0  0  0  0  0
    1.3012    0.7042    0.0000 C   0  0  0  0  0  0  0  0  0  0  0  0
    0.5867    1.1167    0.0000 O   0  0  0  0  0  0  0  0  0  0  0  0
    2.0156    1.1167    0.0000 N   0  0  0  0  0  0  0  0  0  0  0  0
   -1.2996   -3.5360    0.0000 C   0  0  0  0  0  0  0  0  0  0  0  0
  1  2  1  0
  2  3  1  0
  2 19  1  0
  2 35  1  0
  3  4  1  0
  3  8  1  0
  4  5  1  0
  5  6  1  0
  6  7  1  0
  6  9  1  0
  7  8  1  0
  9 10  2  0
  9 14  1  0
 10 11  1  0
 11 12  2  0
 12 13  1  0
 12 15  1  0
 13 14  2  0
 15 16  1  0
 15 17  1  0
 15 18  1  0
 19 20  2  0
 19 21  1  0
 22 21  1  6
 22 23  1  0
 22 27  1  0
 23 30  1  0
 23 24  1  0
 24 25  1  0
 25 31  1  0
 25 26  1  0
 25 32  1  6
 26 27  1  0
 27 28  1  0
 28 29  1  0
 29 30  1  0
 29 31  1  0
 32 33  2  0
 32 34  1  0
M  END
>  <DRUGBANK_ID>  (1) 
DB12501

>  <COMMON_NAME>  (1) 
ABT-384

>  <CAS_NUMBER>  (1) 
868623-40-9

>  <UNII>  (1) 
R5TH77F919

$$$$
