
     RDKit          2D

 39 38  0  0  1  0  0  0  0  0999 V2000
   -7.5144   -7.3288    0.0000 C   0  0  0  0  0  0  0  0  0  0  0  0
   -7.0040   -7.9770    0.0000 C   0  0  0  0  0  0  0  0  0  0  0  0
   -6.1875   -7.8592    0.0000 C   0  0  0  0  0  0  0  0  0  0  0  0
   -5.6772   -8.5074    0.0000 C   0  0  0  0  0  0  0  0  0  0  0  0
   -4.8606   -8.3895    0.0000 C   0  0  0  0  0  0  0  0  0  0  0  0
   -4.3503   -9.0378    0.0000 C   0  0  0  0  0  0  0  0  0  0  0  0
   -3.5338   -8.9199    0.0000 C   0  0  0  0  0  0  0  0  0  0  0  0
   -3.0234   -9.5681    0.0000 C   0  0  0  0  0  0  0  0  0  0  0  0
   -2.2069   -9.4503    0.0000 C   0  0  0  0  0  0  0  0  0  0  0  0
   -1.6965  -10.0985    0.0000 C   0  0  0  0  0  0  0  0  0  0  0  0
   -0.8800   -9.9806    0.0000 C   0  0  0  0  0  0  0  0  0  0  0  0
   -0.3697  -10.6288    0.0000 C   0  0  0  0  0  0  0  0  0  0  0  0
    0.4469  -10.5110    0.0000 C   0  0  0  0  0  0  0  0  0  0  0  0
    0.9572  -11.1592    0.0000 C   0  0  0  0  0  0  0  0  0  0  0  0
    1.7737  -11.0413    0.0000 C   0  0  0  0  0  0  0  0  0  0  0  0
    2.2841  -11.6895    0.0000 C   0  0  0  0  0  0  0  0  0  0  0  0
    3.1006  -11.5717    0.0000 O   0  0  0  0  0  0  0  0  0  0  0  0
    3.6110  -12.2199    0.0000 C   0  0  0  0  0  0  0  0  0  0  0  0
    4.4275  -12.1020    0.0000 C   0  0  0  0  0  0  0  0  0  0  0  0
    4.9378  -12.7503    0.0000 C   0  0  0  0  0  0  0  0  0  0  0  0
    5.7544  -12.6324    0.0000 O   0  0  0  0  0  0  0  0  0  0  0  0
    6.2647  -13.2806    0.0000 P   0  0  0  0  0  0  0  0  0  0  0  0
    5.6165  -13.7909    0.0000 O   0  0  0  0  0  0  0  0  0  0  0  0
    6.9129  -12.7703    0.0000 O   0  0  0  0  0  0  0  0  0  0  0  0
    6.7750  -13.9288    0.0000 O   0  0  0  0  0  0  0  0  0  0  0  0
    7.5916  -13.8110    0.0000 C   0  0  0  0  0  0  0  0  0  0  0  0
    8.1019  -14.4592    0.0000 C   0  0  0  0  0  0  0  0  0  0  0  0
    8.9185  -14.3413    0.0000 N   0  0  0  0  0  0  0  0  0  0  0  0
    9.7350  -14.2235    0.0000 C   0  0  0  0  0  0  0  0  0  0  0  0
    9.0363  -15.1579    0.0000 C   0  0  0  0  0  0  0  0  0  0  0  0
    8.8006  -13.5248    0.0000 C   0  0  0  0  0  0  0  0  0  0  0  0
    4.7337  -11.3360    0.0000 O   0  0  0  0  0  0  0  0  0  0  0  0
    4.2234  -10.6878    0.0000 C   0  0  0  0  0  0  0  0  0  0  0  0
    4.5296   -9.9217    0.0000 C   0  0  0  0  0  0  0  0  0  0  0  0
    4.0192   -9.2735    0.0000 C   0  0  0  0  0  0  0  0  0  0  0  0
    4.3254   -8.5074    0.0000 C   0  0  0  0  0  0  0  0  0  0  0  0
    3.8151   -7.8592    0.0000 C   0  0  0  0  0  0  0  0  0  0  0  0
    2.9986   -7.9770    0.0000 O   0  0  0  0  0  0  0  0  0  0  0  0
    4.1213   -7.0931    0.0000 O   0  0  0  0  0  0  0  0  0  0  0  0
  1  2  1  0
  2  3  1  0
  3  4  1  0
  4  5  1  0
  5  6  1  0
  6  7  1  0
  7  8  1  0
  8  9  1  0
  9 10  1  0
 10 11  1  0
 11 12  1  0
 12 13  1  0
 13 14  1  0
 14 15  1  0
 15 16  1  0
 16 17  1  0
 17 18  1  0
 19 18  1  1
 19 20  1  0
 19 32  1  0
 20 21  1  0
 21 22  1  0
 22 23  1  0
 22 24  2  0
 22 25  1  0
 25 26  1  0
 26 27  1  0
 27 28  1  0
 28 29  1  0
 28 30  1  0
 28 31  1  0
 32 33  1  0
 33 34  1  0
 34 35  1  0
 35 36  1  0
 36 37  1  0
 37 38  1  0
 37 39  2  0
M  CHG  2  23  -1  28   1
M  END
>  <DRUGBANK_ID>  (1) 
DB15259

>  <COMMON_NAME>  (1) 
VB-201

>  <CAS_NUMBER>  (1) 
630112-41-3

>  <UNII>  (1) 
SJ5A8151JO

$$$$
