
     RDKit          2D

  4  3  0  0  0  0  0  0  0  0999 V2000
    0.0000   -0.2010    0.0000 C   0  0  0  0  0  0  0  0  0  0  0  0
    0.0000    0.6177    0.0000 O   0  0  0  0  0  0  0  0  0  0  0  0
    0.7120   -0.6177    0.0000 N   0  0  0  0  0  0  0  0  0  0  0  0
   -0.7120   -0.6177    0.0000 N   0  0  0  0  0  0  0  0  0  0  0  0
  2  1  2  0
  3  1  1  0
  4  1  1  0
M  ISO  1   1  14
M  END
>  <DRUGBANK_ID>  (1) 
DB09513

>  <COMMON_NAME>  (1) 
Urea C-14

>  <CAS_NUMBER>  (1) 
594-05-8

>  <UNII>  (1) 
WBZ6M63TEE

>  <SYNONYMS>  (1) 
14C-urea; Carbon 14 urea; Carbon-14 urea; Urea (14C); Urea 14 C; Urea C 14; Urea-14C; Urea, C-14

$$$$
