
     RDKit          2D

 19 21  0  0  0  0  0  0  0  0999 V2000
   -0.1845    2.6331    0.0000 O   0  0  0  0  0  0  0  0  0  0  0  0
    1.0577    1.5601    0.0000 N   0  0  0  0  0  0  0  0  0  0  0  0
   -0.3801   -0.0257    0.0000 N   0  0  0  0  0  0  0  0  0  0  0  0
   -1.5377    0.9099    0.0000 N   0  0  0  0  0  0  0  0  0  0  0  0
    0.2700    0.4870    0.0000 C   0  0  0  0  0  0  0  0  0  0  0  0
    0.2753    1.3117    0.0000 C   0  0  0  0  0  0  0  0  0  0  0  0
    1.5334    0.8940    0.0000 C   0  0  0  0  0  0  0  0  0  0  0  0
   -0.3694    1.8297    0.0000 C   0  0  0  0  0  0  0  0  0  0  0  0
   -1.1782    1.6500    0.0000 C   0  0  0  0  0  0  0  0  0  0  0  0
   -1.1835    0.1592    0.0000 C   0  0  0  0  0  0  0  0  0  0  0  0
    1.0471    0.2280    0.0000 N   0  0  0  0  0  0  0  0  0  0  0  0
    1.0471   -0.5966    0.0000 C   0  0  0  0  0  0  0  0  0  0  0  0
    0.5397   -1.8283    0.0000 C   0  0  0  0  0  0  0  0  0  0  0  0
    1.2427   -1.4001    0.0000 C   0  0  0  0  0  0  0  0  0  0  0  0
   -0.0892   -1.2944    0.0000 C   0  0  0  0  0  0  0  0  0  0  0  0
    0.2278   -0.5331    0.0000 O   0  0  0  0  0  0  0  0  0  0  0  0
   -0.8928   -1.4847    0.0000 C   0  0  0  0  0  0  0  0  0  0  0  0
   -1.1254   -2.2776    0.0000 O   0  0  0  0  0  0  0  0  0  0  0  0
    0.4709   -2.6529    0.0000 O   0  0  0  0  0  0  0  0  0  0  0  0
  2  6  1  0
  2  7  2  0
  3  5  1  0
  3 10  2  0
  4  9  1  0
  4 10  1  0
  5 11  1  0
  5  6  2  0
  6  8  1  0
  7 11  1  0
  8  1  1  1
  8  9  1  0
 12 11  1  1
 12 14  1  0
 12 16  1  0
 13 14  1  0
 13 15  1  0
 13 19  1  6
 15 16  1  0
 15 17  1  1
 17 18  1  0
M  END
>  <DRUGBANK_ID>  (1) 
DB00552

>  <SECONDARY_ACCESSION_NUMBERS>  (1) 
APRD00202

>  <COMMON_NAME>  (1) 
Pentostatin

>  <CAS_NUMBER>  (1) 
53910-25-1

>  <UNII>  (1) 
395575MZO7

>  <SYNONYMS>  (1) 
Co-vidarabine; Pentostatin; Pentostatina; Pentostatine; Pentostatinum

$$$$
