TH8
     RDKit          2D

 21 21  0  0  0  0  0  0  0  0999 V2000
   -7.2194   21.2501    0.0000 C   0  0  0  0  0  0  0  0  0  0  0  0
   -7.9338   20.8376    0.0000 Cl  0  0  0  0  0  0  0  0  0  0  0  0
   -7.2194   22.0751    0.0000 Cl  0  0  0  0  0  0  0  0  0  0  0  0
   -6.5049   20.8376    0.0000 C   0  0  0  0  0  0  0  0  0  0  0  0
   -6.5049   20.0126    0.0000 O   0  0  0  0  0  0  0  0  0  0  0  0
   -5.7904   21.2501    0.0000 N   0  0  0  0  0  0  0  0  0  0  0  0
   -5.0760   20.8376    0.0000 C   0  0  0  0  0  0  0  0  0  0  0  0
   -5.0760   20.0126    0.0000 C   0  0  0  0  0  0  0  0  0  0  0  0
   -4.3615   19.6001    0.0000 O   0  0  0  0  0  0  0  0  0  0  0  0
   -4.3615   21.2501    0.0000 C   0  0  0  0  0  0  0  0  0  0  0  0
   -4.3615   22.0751    0.0000 O   0  0  0  0  0  0  0  0  0  0  0  0
   -3.6470   20.8376    0.0000 C   0  0  0  0  0  0  0  0  0  0  0  0
   -2.9326   21.2501    0.0000 C   0  0  0  0  0  0  0  0  0  0  0  0
   -2.2181   20.8376    0.0000 C   0  0  0  0  0  0  0  0  0  0  0  0
   -2.2181   20.0126    0.0000 C   0  0  0  0  0  0  0  0  0  0  0  0
   -0.7891   19.1876    0.0000 O   0  0  0  0  0  0  0  0  0  0  0  0
   -1.9161   18.8856    0.0000 O   0  0  0  0  0  0  0  0  0  0  0  0
   -2.9326   19.6001    0.0000 C   0  0  0  0  0  0  0  0  0  0  0  0
   -3.6470   20.0126    0.0000 C   0  0  0  0  0  0  0  0  0  0  0  0
   -1.0911   20.3146    0.0000 C   0  0  0  0  0  0  0  0  0  0  0  0
   -1.5036   19.6001    0.0000 S   0  0  0  0  0  0  0  0  0  0  0  0
  1  2  1  0
  1  3  1  0
  1  4  1  0
  4  5  2  0
  4  6  1  0
  7  6  1  0
  7  8  1  1
  7 10  1  0
  8  9  1  0
 10 11  1  6
 10 12  1  0
 12 13  2  0
 12 19  1  0
 13 14  1  0
 14 15  2  0
 15 18  1  0
 15 21  1  0
 16 21  2  0
 17 21  2  0
 18 19  2  0
 20 21  1  0
M  END
>  <DRUGBANK_ID>  (1) 
DB08621

>  <COMMON_NAME>  (1) 
Thiamphenicol

>  <CAS_NUMBER>  (1) 
15318-45-3

>  <UNII>  (1) 
FLQ7571NPM

$$$$
