SB4
     RDKit          2D

 25 28  0  0  0  0  0  0  0  0999 V2000
    0.2973    1.4265    0.0000 C   0  0  0  0  0  0  0  0  0  0  0  0
    0.2973    2.2515    0.0000 C   0  0  0  0  0  0  0  0  0  0  0  0
    1.0118    2.6640    0.0000 N   0  0  0  0  0  0  0  0  0  0  0  0
    1.7262    2.2515    0.0000 C   0  0  0  0  0  0  0  0  0  0  0  0
    1.7262    1.4265    0.0000 C   0  0  0  0  0  0  0  0  0  0  0  0
    1.0118    1.0140    0.0000 C   0  0  0  0  0  0  0  0  0  0  0  0
    0.4499   -2.5017    0.0000 C   0  0  0  0  0  0  0  0  0  0  0  0
   -0.0350   -3.1691    0.0000 C   0  0  0  0  0  0  0  0  0  0  0  0
   -0.8555   -3.0829    0.0000 C   0  0  0  0  0  0  0  0  0  0  0  0
   -1.1910   -2.3292    0.0000 C   0  0  0  0  0  0  0  0  0  0  0  0
   -0.7061   -1.6618    0.0000 C   0  0  0  0  0  0  0  0  0  0  0  0
    0.1144   -1.7480    0.0000 C   0  0  0  0  0  0  0  0  0  0  0  0
   -1.3404   -3.7503    0.0000 F   0  0  0  0  0  0  0  0  0  0  0  0
   -0.6118    0.7660    0.0000 C   0  0  0  0  0  0  0  0  0  0  0  0
   -0.4403   -0.0410    0.0000 C   0  0  0  0  0  0  0  0  0  0  0  0
   -1.0534   -0.5930    0.0000 N   0  0  0  0  0  0  0  0  0  0  0  0
   -1.8380   -0.3381    0.0000 C   0  0  0  0  0  0  0  0  0  0  0  0
   -2.0095    0.4689    0.0000 N   0  0  0  0  0  0  0  0  0  0  0  0
   -1.3964    1.0209    0.0000 C   0  0  0  0  0  0  0  0  0  0  0  0
   -2.4511   -0.8901    0.0000 N   0  0  0  0  0  0  0  0  0  0  0  0
    1.0118    0.1890    0.0000 N   0  0  0  0  0  0  0  0  0  0  0  0
    1.6792   -0.2959    0.0000 C   0  0  0  0  0  0  0  0  0  0  0  0
    1.4243   -1.0806    0.0000 N   0  0  0  0  0  0  0  0  0  0  0  0
    0.5993   -1.0806    0.0000 C   0  0  0  0  0  0  0  0  0  0  0  0
    0.3443   -0.2959    0.0000 C   0  0  0  0  0  0  0  0  0  0  0  0
  1  2  1  0
  1  6  1  0
  2  3  1  0
  3  4  1  0
  4  5  1  0
  5  6  1  0
  6 21  1  0
  7  8  2  0
  7 12  1  0
  8  9  1  0
  9 10  2  0
  9 13  1  0
 10 11  1  0
 11 12  2  0
 12 24  1  0
 14 15  2  0
 14 19  1  0
 15 16  1  0
 15 25  1  0
 16 17  2  0
 17 18  1  0
 17 20  1  0
 18 19  2  0
 21 22  1  0
 21 25  1  0
 22 23  2  0
 23 24  1  0
 24 25  2  0
M  END
>  <DRUGBANK_ID>  (1) 
DB04338

>  <SECONDARY_ACCESSION_NUMBERS>  (1) 
EXPT02849

>  <COMMON_NAME>  (1) 
SB220025

>  <UNII>  (1) 
MX95H97VRG

$$$$
