
     RDKit          2D

  8  8  0  0  0  0  0  0  0  0999 V2000
   -0.3938    1.4191    0.0000 N   0  0  0  0  0  0  0  0  0  0  0  0
    0.2382    0.8888    0.0000 C   0  0  0  0  0  0  0  0  0  0  0  0
    0.6507    0.1743    0.0000 C   0  0  0  0  0  0  0  0  0  0  0  0
   -0.1743    0.1743    0.0000 C   0  0  0  0  0  0  0  0  0  0  0  0
    0.8701    1.4191    0.0000 P   0  0  0  0  0  0  0  0  0  0  0  0
    1.5021    1.9494    0.0000 O   0  0  0  0  0  0  0  0  0  0  0  0
    1.4004    0.7871    0.0000 O   0  0  0  0  0  0  0  0  0  0  0  0
    0.3398    2.0511    0.0000 O   0  0  0  0  0  0  0  0  0  0  0  0
  1  2  1  0
  2  3  1  0
  2  4  1  0
  2  5  1  0
  3  4  1  0
  5  6  1  6
  5  7  1  0
  5  8  2  0
M  CHG  1   7  -1
M  END
>  <DRUGBANK_ID>  (1) 
DB03053

>  <SECONDARY_ACCESSION_NUMBERS>  (1) 
EXPT02186

>  <COMMON_NAME>  (1) 
1-Aminocyclopropylphosphonate

$$$$
