C4M
     RDKit          2D

 27 28  0  0  0  0  0  0  0  0999 V2000
   -4.0404   -1.7278    0.0000 C   0  0  0  0  0  0  0  0  0  0  0  0
   -4.0404   -0.9028    0.0000 O   0  0  0  0  0  0  0  0  0  0  0  0
   -3.3260   -0.4903    0.0000 C   0  0  0  0  0  0  0  0  0  0  0  0
   -3.3260    0.3347    0.0000 C   0  0  0  0  0  0  0  0  0  0  0  0
   -2.6115    0.7472    0.0000 C   0  0  0  0  0  0  0  0  0  0  0  0
   -2.6115    1.5722    0.0000 C   0  0  0  0  0  0  0  0  0  0  0  0
   -1.8970    0.3347    0.0000 C   0  0  0  0  0  0  0  0  0  0  0  0
   -1.8970   -0.4903    0.0000 C   0  0  0  0  0  0  0  0  0  0  0  0
   -1.1825   -0.9028    0.0000 C   0  0  0  0  0  0  0  0  0  0  0  0
   -2.6115   -0.9028    0.0000 C   0  0  0  0  0  0  0  0  0  0  0  0
   -2.6115   -1.7278    0.0000 C   0  0  0  0  0  0  0  0  0  0  0  0
   -1.1825    0.7472    0.0000 S   0  0  0  0  0  0  0  0  0  0  0  0
   -0.7700    0.0327    0.0000 O   0  0  0  0  0  0  0  0  0  0  0  0
   -1.5950    1.4616    0.0000 O   0  0  0  0  0  0  0  0  0  0  0  0
   -0.4681    1.1597    0.0000 N   0  0  0  0  0  0  0  0  0  0  0  0
    0.2464    0.7472    0.0000 C   0  0  0  0  0  0  0  0  0  0  0  0
    0.9609    1.1597    0.0000 C   0  0  0  0  0  0  0  0  0  0  0  0
    0.9609    1.9847    0.0000 O   0  0  0  0  0  0  0  0  0  0  0  0
    1.6753    0.7472    0.0000 C   0  0  0  0  0  0  0  0  0  0  0  0
    1.6753   -0.0778    0.0000 N   0  0  0  0  0  0  0  0  0  0  0  0
    2.3898    1.1597    0.0000 C   0  0  0  0  0  0  0  0  0  0  0  0
    3.1043    0.7472    0.0000 C   0  0  0  0  0  0  0  0  0  0  0  0
    3.8188    1.1597    0.0000 C   0  0  0  0  0  0  0  0  0  0  0  0
    4.5332    0.7472    0.0000 C   0  0  0  0  0  0  0  0  0  0  0  0
    4.5332   -0.0778    0.0000 C   0  0  0  0  0  0  0  0  0  0  0  0
    3.8188   -0.4903    0.0000 C   0  0  0  0  0  0  0  0  0  0  0  0
    3.1043   -0.0778    0.0000 C   0  0  0  0  0  0  0  0  0  0  0  0
  1  2  1  0
  2  3  1  0
  3  4  2  0
  3 10  1  0
  4  5  1  0
  5  6  1  0
  5  7  2  0
  7  8  1  0
  7 12  1  0
  8  9  1  0
  8 10  2  0
 10 11  1  0
 12 13  2  0
 12 14  2  0
 12 15  1  0
 15 16  1  0
 16 17  1  0
 17 18  1  1
 17 19  1  0
 19 20  1  6
 19 21  1  0
 21 22  1  0
 22 23  2  0
 22 27  1  0
 23 24  1  0
 24 25  2  0
 25 26  1  0
 26 27  2  0
M  END
>  <DRUGBANK_ID>  (1) 
DB07527

>  <COMMON_NAME>  (1) 
N-[(2R,3S)-3-AMINO-2-HYDROXY-4-PHENYLBUTYL]-4-METHOXY-2,3,6-TRIMETHYLBENZENESULFONAMIDE

$$$$
