332
     RDKit          2D

 23 26  0  0  0  0  0  0  0  0999 V2000
   -0.8590   -1.1322    0.0000 C   0  0  0  0  0  0  0  0  0  0  0  0
   -1.4638   -1.6933    0.0000 O   0  0  0  0  0  0  0  0  0  0  0  0
   -2.2796   -1.5704    0.0000 C   0  0  0  0  0  0  0  0  0  0  0  0
   -2.6921   -0.8559    0.0000 C   0  0  0  0  0  0  0  0  0  0  0  0
   -2.3907   -0.0879    0.0000 C   0  0  0  0  0  0  0  0  0  0  0  0
   -2.9518    0.5169    0.0000 N   0  0  0  0  0  0  0  0  0  0  0  0
   -1.6023    0.1553    0.0000 N   0  0  0  0  0  0  0  0  0  0  0  0
   -0.2062    0.1030    0.0000 C   0  0  0  0  0  0  0  0  0  0  0  0
   -0.9207   -0.3095    0.0000 C   0  0  0  0  0  0  0  0  0  0  0  0
    0.5082   -0.3095    0.0000 O   0  0  0  0  0  0  0  0  0  0  0  0
    1.2227    0.1030    0.0000 C   0  0  0  0  0  0  0  0  0  0  0  0
    1.2227    0.9280    0.0000 C   0  0  0  0  0  0  0  0  0  0  0  0
    1.9372    1.3405    0.0000 C   0  0  0  0  0  0  0  0  0  0  0  0
    2.6517    0.9280    0.0000 C   0  0  0  0  0  0  0  0  0  0  0  0
    3.3661    1.3405    0.0000 C   0  0  0  0  0  0  0  0  0  0  0  0
    4.0806    0.9280    0.0000 C   0  0  0  0  0  0  0  0  0  0  0  0
    4.0806    0.1030    0.0000 N   0  0  0  0  0  0  0  0  0  0  0  0
    3.3661   -0.3095    0.0000 C   0  0  0  0  0  0  0  0  0  0  0  0
    2.6517    0.1030    0.0000 C   0  0  0  0  0  0  0  0  0  0  0  0
    1.9372   -0.3095    0.0000 C   0  0  0  0  0  0  0  0  0  0  0  0
   -3.4991   -1.0274    0.0000 S   0  0  0  0  0  0  0  0  0  0  0  0
   -3.5853   -1.8479    0.0000 C   0  0  0  0  0  0  0  0  0  0  0  0
   -2.8316   -2.1835    0.0000 C   0  0  0  0  0  0  0  0  0  0  0  0
  1  2  1  0
  1  9  1  0
  2  3  1  0
  3  4  2  0
  3 23  1  0
  4  5  1  0
  4 21  1  0
  5  6  1  0
  5  7  2  0
  7  9  1  0
  8 10  1  0
  9  8  1  6
 10 11  1  0
 11 12  2  0
 11 20  1  0
 12 13  1  0
 13 14  2  0
 14 15  1  0
 14 19  1  0
 15 16  1  0
 16 17  1  0
 17 18  1  0
 18 19  1  0
 19 20  2  0
 21 22  1  0
 22 23  2  0
M  END
>  <DRUGBANK_ID>  (1) 
DB07007

>  <COMMON_NAME>  (1) 
(3R)-3-[(1,2,3,4-tetrahydroisoquinolin-7-yloxy)methyl]-2,3-dihydrothieno[2,3-f][1,4]oxazepin-5-amine

$$$$
