
     RDKit          2D

 27 28  0  0  0  0  0  0  0  0999 V2000
    2.0419   -0.6477    0.0000 C   0  0  0  0  0  0  0  0  0  0  0  0
    1.4288   -1.1997    0.0000 N   0  0  0  0  0  0  0  0  0  0  0  0
    1.5150   -2.0202    0.0000 C   0  0  0  0  0  0  0  0  0  0  0  0
    2.2295   -2.4327    0.0000 C   0  0  0  0  0  0  0  0  0  0  0  0
    2.9440   -2.0202    0.0000 C   0  0  0  0  0  0  0  0  0  0  0  0
    3.6584   -2.4327    0.0000 C   0  0  0  0  0  0  0  0  0  0  0  0
    4.3729   -2.0202    0.0000 C   0  0  0  0  0  0  0  0  0  0  0  0
    5.0874   -2.4327    0.0000 C   0  0  0  0  0  0  0  0  0  0  0  0
    5.8019   -2.0202    0.0000 C   0  0  0  0  0  0  0  0  0  0  0  0
    6.5163   -2.4327    0.0000 C   0  0  0  0  0  0  0  0  0  0  0  0
    6.5163   -3.2577    0.0000 O   0  0  0  0  0  0  0  0  0  0  0  0
    7.2308   -2.0202    0.0000 N   0  0  0  0  0  0  0  0  0  0  0  0
    7.9453   -2.4327    0.0000 O   0  0  0  0  0  0  0  0  0  0  0  0
    0.7614   -2.3557    0.0000 N   0  0  0  0  0  0  0  0  0  0  0  0
    0.2093   -1.7426    0.0000 C   0  0  0  0  0  0  0  0  0  0  0  0
   -0.6157   -1.7426    0.0000 C   0  0  0  0  0  0  0  0  0  0  0  0
   -1.0282   -1.0282    0.0000 C   0  0  0  0  0  0  0  0  0  0  0  0
   -0.6157   -0.3137    0.0000 C   0  0  0  0  0  0  0  0  0  0  0  0
    0.2093   -0.3137    0.0000 C   0  0  0  0  0  0  0  0  0  0  0  0
    0.6218   -1.0282    0.0000 C   0  0  0  0  0  0  0  0  0  0  0  0
   -1.8532   -1.0282    0.0000 N   0  0  0  0  0  0  0  0  0  0  0  0
   -2.2657   -1.7426    0.0000 C   0  0  0  0  0  0  0  0  0  0  0  0
   -3.0907   -1.7426    0.0000 C   0  0  0  0  0  0  0  0  0  0  0  0
   -3.5032   -2.4571    0.0000 Cl  0  0  0  0  0  0  0  0  0  0  0  0
   -2.2657   -0.3137    0.0000 C   0  0  0  0  0  0  0  0  0  0  0  0
   -3.0907   -0.3137    0.0000 C   0  0  0  0  0  0  0  0  0  0  0  0
   -3.5032    0.4008    0.0000 Cl  0  0  0  0  0  0  0  0  0  0  0  0
  1  2  1  0
  2  3  1  0
  2 20  1  0
  3  4  1  0
  3 14  2  0
  4  5  1  0
  5  6  1  0
  6  7  1  0
  7  8  1  0
  8  9  1  0
  9 10  1  0
 10 11  2  0
 10 12  1  0
 12 13  1  0
 14 15  1  0
 15 16  1  0
 15 20  2  0
 16 17  2  0
 17 18  1  0
 17 21  1  0
 18 19  2  0
 19 20  1  0
 21 22  1  0
 21 25  1  0
 22 23  1  0
 23 24  1  0
 25 26  1  0
 26 27  1  0
M  END
>  <DRUGBANK_ID>  (1) 
DB15147

>  <COMMON_NAME>  (1) 
Tinostamustine

>  <CAS_NUMBER>  (1) 
1236199-60-2

>  <UNII>  (1) 
29DKI2H2NY

>  <SYNONYMS>  (1) 
Tinostamustine

$$$$
