3B8
     RDKit          2D

 20 22  0  0  0  0  0  0  0  0999 V2000
    2.6186   -0.6715    0.0000 C   0  0  0  0  0  0  0  0  0  0  0  0
    1.9042   -1.0840    0.0000 C   0  0  0  0  0  0  0  0  0  0  0  0
    1.9042    0.5660    0.0000 C   0  0  0  0  0  0  0  0  0  0  0  0
    1.1897    0.1535    0.0000 C   0  0  0  0  0  0  0  0  0  0  0  0
    1.1897   -0.6715    0.0000 C   0  0  0  0  0  0  0  0  0  0  0  0
   -3.0971    0.1535    0.0000 O   0  0  0  0  0  0  0  0  0  0  0  0
    2.6186    0.1535    0.0000 C   0  0  0  0  0  0  0  0  0  0  0  0
    0.4752   -1.0840    0.0000 O   0  0  0  0  0  0  0  0  0  0  0  0
    0.4752    0.5660    0.0000 C   0  0  0  0  0  0  0  0  0  0  0  0
    3.3331    0.5660    0.0000 F   0  0  0  0  0  0  0  0  0  0  0  0
    0.4752    1.3910    0.0000 O   0  0  0  0  0  0  0  0  0  0  0  0
   -2.3826    1.3910    0.0000 N   0  0  0  0  0  0  0  0  0  0  0  0
   -1.6682   -0.6715    0.0000 C   0  0  0  0  0  0  0  0  0  0  0  0
   -1.6682    0.1535    0.0000 C   0  0  0  0  0  0  0  0  0  0  0  0
   -0.9537    0.5660    0.0000 C   0  0  0  0  0  0  0  0  0  0  0  0
   -0.2392    0.1535    0.0000 C   0  0  0  0  0  0  0  0  0  0  0  0
   -0.2392   -0.6715    0.0000 C   0  0  0  0  0  0  0  0  0  0  0  0
   -0.9537   -1.0840    0.0000 N   0  0  0  0  0  0  0  0  0  0  0  0
   -2.3826   -1.0840    0.0000 N   0  0  0  0  0  0  0  0  0  0  0  0
   -2.3826    0.5660    0.0000 C   0  0  0  0  0  0  0  0  0  0  0  0
  1  2  2  0
  1  7  1  0
  2  5  1  0
  3  4  1  0
  3  7  2  0
  4  5  2  0
  4  9  1  0
  5  8  1  0
  6 20  2  0
  7 10  1  0
  8 17  1  0
  9 11  2  0
  9 16  1  0
 12 20  1  0
 13 14  1  0
 13 18  2  0
 13 19  1  0
 14 15  2  0
 14 20  1  0
 15 16  1  0
 16 17  2  0
 17 18  1  0
M  END
>  <DRUGBANK_ID>  (1) 
DB07040

>  <COMMON_NAME>  (1) 
2-amino-7-fluoro-5-oxo-5H-chromeno[2,3-b]pyridine-3-carboxamide

$$$$
