
     RDKit          2D

 26 26  0  0  0  0  0  0  0  0999 V2000
   -2.0076   -0.2062    0.0000 S   0  0  0  0  0  0  0  0  0  0  0  0
    0.1357    1.8562    0.0000 O   0  0  0  0  0  0  0  0  0  0  0  0
   -0.5787    2.2687    0.0000 O   0  0  0  0  0  0  0  0  0  0  0  0
   -2.7221   -3.9187    0.0000 O   0  0  0  0  0  0  0  0  0  0  0  0
   -2.7221    4.3312    0.0000 O   0  0  0  0  0  0  0  0  0  0  0  0
   -3.4366    3.0937    0.0000 O   0  0  0  0  0  0  0  0  0  0  0  0
   -0.5787    0.6187    0.0000 N   0  0  0  0  0  0  0  0  0  0  0  0
   -2.0076    2.2687    0.0000 N   0  0  0  0  0  0  0  0  0  0  0  0
    2.9935    1.0312    0.0000 N   0  0  0  0  0  0  0  0  0  0  0  0
   -1.2931    1.0312    0.0000 C   0  0  0  0  0  0  0  0  0  0  0  0
   -2.0076    0.6187    0.0000 C   0  0  0  0  0  0  0  0  0  0  0  0
    0.8502    0.6187    0.0000 C   0  0  0  0  0  0  0  0  0  0  0  0
    1.5646    1.0312    0.0000 C   0  0  0  0  0  0  0  0  0  0  0  0
    0.1357    1.0312    0.0000 C   0  0  0  0  0  0  0  0  0  0  0  0
   -1.2931    1.8562    0.0000 C   0  0  0  0  0  0  0  0  0  0  0  0
   -2.7221   -0.6187    0.0000 C   0  0  0  0  0  0  0  0  0  0  0  0
    2.2791    0.6187    0.0000 C   0  0  0  0  0  0  0  0  0  0  0  0
   -2.7221   -1.4437    0.0000 C   0  0  0  0  0  0  0  0  0  0  0  0
   -2.0076    3.0937    0.0000 C   0  0  0  0  0  0  0  0  0  0  0  0
   -2.0076   -1.8562    0.0000 C   0  0  0  0  0  0  0  0  0  0  0  0
   -3.4366   -1.8562    0.0000 C   0  0  0  0  0  0  0  0  0  0  0  0
   -2.0076   -2.6812    0.0000 C   0  0  0  0  0  0  0  0  0  0  0  0
   -3.4366   -2.6812    0.0000 C   0  0  0  0  0  0  0  0  0  0  0  0
   -2.7221   -3.0937    0.0000 C   0  0  0  0  0  0  0  0  0  0  0  0
   -2.7221    3.5062    0.0000 C   0  0  0  0  0  0  0  0  0  0  0  0
   -3.4366   -4.3312    0.0000 C   0  0  0  0  0  0  0  0  0  0  0  0
  1 11  1  0
  1 16  1  0
  2 14  2  0
  3 15  2  0
  4 24  1  0
  4 26  1  0
  5 25  1  0
  6 25  2  0
  7 14  1  0
  8 15  1  0
  8 19  1  0
  9 17  1  0
 10  7  1  0
 10 11  1  1
 10 15  1  0
 12 13  1  0
 12 14  1  0
 13 17  1  0
 16 18  1  0
 18 20  2  0
 18 21  1  0
 19 25  1  0
 20 22  1  0
 21 23  2  0
 22 24  2  0
 23 24  1  0
M  END
>  <DRUGBANK_ID>  (1) 
DB02943

>  <SECONDARY_ACCESSION_NUMBERS>  (1) 
EXPT00404

>  <COMMON_NAME>  (1) 
N-(4-Aminobutanoyl)-S-(4-methoxybenzyl)-L-cysteinylglycine

$$$$
