
     RDKit          2D

 34 37  0  0  1  0  0  0  0  0999 V2000
    8.2728   -9.1932    0.0000 C   0  0  0  0  0  0  0  0  0  0  0  0
    8.2728  -10.0182    0.0000 C   0  0  0  0  0  0  0  0  0  0  0  0
    8.9872  -10.4307    0.0000 C   0  0  0  0  0  0  0  0  0  0  0  0
    9.7017  -10.0182    0.0000 C   0  0  0  0  0  0  0  0  0  0  0  0
    9.7017   -9.1932    0.0000 C   0  0  0  0  0  0  0  0  0  0  0  0
    8.9872   -8.7806    0.0000 C   0  0  0  0  0  0  0  0  0  0  0  0
   10.4162  -10.4307    0.0000 C   0  0  0  0  0  0  0  0  0  0  0  0
   11.1306  -10.0182    0.0000 C   0  0  0  0  0  0  0  0  0  0  0  0
   11.1306   -9.1932    0.0000 C   0  0  0  0  0  0  0  0  0  0  0  0
   10.4162   -8.7806    0.0000 C   0  0  0  0  0  0  0  0  0  0  0  0
   11.8451   -8.7806    0.0000 C   0  0  0  0  0  0  0  0  0  0  0  0
   11.8451   -7.9556    0.0000 C   0  0  0  0  0  0  0  0  0  0  0  0
   11.1306   -7.5431    0.0000 C   0  0  0  0  0  0  0  0  0  0  0  0
   10.4162   -7.9556    0.0000 C   0  0  0  0  0  0  0  0  0  0  0  0
   12.6298   -9.0355    0.0000 C   0  0  0  0  0  0  0  0  0  0  0  0
   13.1148   -8.3681    0.0000 C   0  0  0  0  0  0  0  0  0  0  0  0
   12.6298   -7.7007    0.0000 C   0  0  0  0  0  0  0  0  0  0  0  0
    7.5582  -10.4307    0.0000 O   0  0  0  0  0  0  0  0  0  0  0  0
   11.9314   -7.1351    0.0000 C   0  0  0  0  0  0  0  0  0  0  0  0
   12.8848   -6.9160    0.0000 C   0  0  0  0  0  0  0  0  0  0  0  0
   12.3328   -6.3029    0.0000 C   0  0  0  0  0  0  0  0  0  0  0  0
   13.6918   -6.7445    0.0000 C   0  0  0  0  0  0  0  0  0  0  0  0
   13.9467   -5.9599    0.0000 C   0  0  0  0  0  0  0  0  0  0  0  0
   14.7537   -5.7883    0.0000 C   0  0  0  0  0  0  0  0  0  0  0  0
    9.7017   -8.3681    0.0000 C   0  0  0  0  0  0  0  0  0  0  0  0
   15.0086   -5.0037    0.0000 N   0  0  0  0  0  0  0  0  0  0  0  0
   15.8156   -4.8321    0.0000 C   0  0  0  0  0  0  0  0  0  0  0  0
   15.3057   -6.4014    0.0000 O   0  0  0  0  0  0  0  0  0  0  0  0
   16.0704   -4.0475    0.0000 C   0  0  0  0  0  0  0  0  0  0  0  0
   16.8775   -3.8759    0.0000 S   0  0  0  0  0  0  0  0  0  0  0  0
   17.1323   -3.0913    0.0000 O   0  0  0  0  0  0  0  0  0  0  0  0
   17.4295   -4.4891    0.0000 O   0  0  0  0  0  0  0  0  0  0  0  0
   16.3254   -3.2629    0.0000 O   0  0  0  0  0  0  0  0  0  0  0  0
   11.8451  -10.4307    0.0000 O   0  0  0  0  0  0  0  0  0  0  0  0
  1  2  1  0
  2  3  1  0
  2 18  1  6
  4  3  1  6
  4  5  1  0
  4  7  1  0
  5  6  1  0
  5 25  1  1
  6  1  1  0
  7  8  1  0
  9  8  1  6
  8 34  1  6
  9 10  1  0
  9 11  1  0
 10  5  1  0
 11 12  1  0
 11 15  1  1
 12 13  1  0
 12 19  1  1
 13 14  1  0
 10 14  1  1
 15 16  1  0
 17 16  1  1
 17 12  1  0
 17 20  1  0
 20 21  1  6
 20 22  1  0
 22 23  1  0
 23 24  1  0
 26 24  1  0
 27 26  1  0
 28 24  2  0
 29 27  1  0
 30 29  1  0
 31 30  1  0
 32 30  2  0
 33 30  2  0
M  END
>  <DRUGBANK_ID>  (1) 
DB08833

>  <COMMON_NAME>  (1) 
Taurochenodeoxycholic acid

>  <CAS_NUMBER>  (1) 
516-35-8

>  <UNII>  (1) 
651KU15938

>  <SYNONYMS>  (1) 
Chenodeoxycholoyltaurine; Taurine chenodeoxycholate; Taurochenodeoxycholate; Taurochenodeoxycholic acid

$$$$
