
     RDKit          2D

 20 20  0  0  0  0  0  0  0  0999 V2000
    0.5786   -0.8250    0.0000 O   0  0  0  0  0  0  0  0  0  0  0  0
   -0.1357    1.2375    0.0000 O   0  0  0  0  0  0  0  0  0  0  0  0
    2.7221    0.4125    0.0000 O   0  0  0  0  0  0  0  0  0  0  0  0
   -0.8502   -0.8250    0.0000 O   0  0  0  0  0  0  0  0  0  0  0  0
    2.7221    1.2375    0.0000 O   0  0  0  0  0  0  0  0  0  0  0  0
    2.0076   -2.4750    0.0000 O   0  0  0  0  0  0  0  0  0  0  0  0
    0.5786   -2.4750    0.0000 O   0  0  0  0  0  0  0  0  0  0  0  0
    1.2932    1.2375    0.0000 N   0  0  0  0  0  0  0  0  0  0  0  0
   -2.2791    0.0000    0.0000 N   0  0  0  0  0  0  0  0  0  0  0  0
    0.5786    0.0000    0.0000 C   0  0  0  0  0  0  0  0  0  0  0  0
    1.2932    0.4125    0.0000 C   0  0  0  0  0  0  0  0  0  0  0  0
   -0.1357    0.4125    0.0000 C   0  0  0  0  0  0  0  0  0  0  0  0
    2.0076    0.0000    0.0000 C   0  0  0  0  0  0  0  0  0  0  0  0
   -0.8502    0.0000    0.0000 C   0  0  0  0  0  0  0  0  0  0  0  0
    2.0076   -0.8250    0.0000 C   0  0  0  0  0  0  0  0  0  0  0  0
    1.2932   -1.2375    0.0000 C   0  0  0  0  0  0  0  0  0  0  0  0
   -1.5646    0.4125    0.0000 C   0  0  0  0  0  0  0  0  0  0  0  0
    2.0076    1.6500    0.0000 C   0  0  0  0  0  0  0  0  0  0  0  0
    1.2932   -2.0625    0.0000 C   0  0  0  0  0  0  0  0  0  0  0  0
    2.0076    2.4750    0.0000 C   0  0  0  0  0  0  0  0  0  0  0  0
 10  1  1  1
  1 16  1  0
  5 18  2  0
  6 19  1  0
  7 19  2  0
  8 18  1  0
  9 17  1  0
 10 11  1  0
 10 12  1  0
 11  8  1  6
 11 13  1  0
 12  2  1  1
 12 14  1  0
 13  3  1  1
 13 15  1  0
 14  4  1  6
 14 17  1  0
 15 16  2  0
 16 19  1  0
 18 20  1  0
M  END
>  <DRUGBANK_ID>  (1) 
DB04227

>  <SECONDARY_ACCESSION_NUMBERS>  (1) 
EXPT00352

>  <COMMON_NAME>  (1) 
9-Amino-2-deoxy-2,3-dehydro-n-acetyl-neuraminic acid

>  <SYNONYMS>  (1) 
(6R)-5-Acetamido-6-[(1R,2R)-3-amino-1,2-dihydroxypropyl]-2,6-anhydro-3,5-dideoxy-L-threo-hex-2-enonic acid

$$$$
