
     RDKit          2D

 39 40  0  0  0  0  0  0  0  0999 V2000
   -2.1401    1.4400    0.0000 C   0  0  0  0  0  0  0  0  0  0  0  0
   -2.8601    1.0300    0.0000 C   0  0  0  0  0  0  0  0  0  0  0  0
   -2.8601    0.2000    0.0000 C   0  0  0  0  0  0  0  0  0  0  0  0
   -2.1401   -0.2099    0.0000 C   0  0  0  0  0  0  0  0  0  0  0  0
   -1.4300    0.2000    0.0000 C   0  0  0  0  0  0  0  0  0  0  0  0
   -1.4300    1.0300    0.0000 C   0  0  0  0  0  0  0  0  0  0  0  0
   -3.5701   -0.2099    0.0000 O   0  0  0  0  0  0  0  0  0  0  0  0
   -3.5701   -1.0300    0.0000 C   0  0  0  0  0  0  0  0  0  0  0  0
   -4.2901   -1.4500    0.0000 C   0  0  0  0  0  0  0  0  0  0  0  0
   -4.2901   -2.2700    0.0000 O   0  0  0  0  0  0  0  0  0  0  0  0
   -0.7100    1.4400    0.0000 C   0  0  0  0  0  0  0  0  0  0  0  0
    0.0000    1.0300    0.0000 C   0  0  0  0  0  0  0  0  0  0  0  0
    0.0000    0.2000    0.0000 C   0  0  0  0  0  0  0  0  0  0  0  0
   -0.7100   -0.2099    0.0000 O   0  0  0  0  0  0  0  0  0  0  0  0
    0.7100   -0.2099    0.0000 N   0  0  0  0  0  0  0  0  0  0  0  0
    0.7100   -1.0300    0.0000 C   0  0  0  0  0  0  0  0  0  0  0  0
    1.4300   -1.4500    0.0000 C   0  0  0  0  0  0  0  0  0  0  0  0
    2.1401   -1.0300    0.0000 C   0  0  0  0  0  0  0  0  0  0  0  0
    0.7100    1.4400    0.0000 N   0  0  0  0  0  0  0  0  0  0  0  0
    1.4300    1.0300    0.0000 C   0  0  0  0  0  0  0  0  0  0  0  0
    1.4300    0.2000    0.0000 O   0  0  0  0  0  0  0  0  0  0  0  0
    3.5701    1.4400    0.0000 C   0  0  0  0  0  0  0  0  0  0  0  0
    3.5701    2.2700    0.0000 O   0  0  0  0  0  0  0  0  0  0  0  0
   -5.0002   -1.0300    0.0000 O   0  0  0  0  0  0  0  0  0  0  0  0
   -2.8601   -1.4500    0.0000 C   0  0  0  0  0  0  0  0  0  0  0  0
   -2.8601   -2.2700    0.0000 O   0  0  0  0  0  0  0  0  0  0  0  0
   -2.1401   -1.0300    0.0000 O   0  0  0  0  0  0  0  0  0  0  0  0
    2.1401    1.4400    0.0000 N   0  0  0  0  0  0  0  0  0  0  0  0
    2.8601    1.0300    0.0000 C   0  0  0  0  0  0  0  0  0  0  0  0
    4.2901    1.0300    0.0000 O   0  0  0  0  0  0  0  0  0  0  0  0
    2.8601    0.2000    0.0000 C   0  0  0  0  0  0  0  0  0  0  0  0
    2.8601   -1.4500    0.0000 C   0  0  0  0  0  0  0  0  0  0  0  0
    2.8601   -2.2700    0.0000 C   0  0  0  0  0  0  0  0  0  0  0  0
    3.5701   -0.2099    0.0000 C   0  0  0  0  0  0  0  0  0  0  0  0
    4.2901    0.2000    0.0000 C   0  0  0  0  0  0  0  0  0  0  0  0
    3.5701   -1.0300    0.0000 C   0  0  0  0  0  0  0  0  0  0  0  0
    4.2901   -1.4500    0.0000 C   0  0  0  0  0  0  0  0  0  0  0  0
    5.0002   -1.0300    0.0000 C   0  0  0  0  0  0  0  0  0  0  0  0
    5.0002   -0.2099    0.0000 C   0  0  0  0  0  0  0  0  0  0  0  0
  1  2  2  0
  1  6  1  0
  2  3  1  0
  3  4  2  0
  3  7  1  0
  4  5  1  0
  5  6  2  0
  6 11  1  0
  7  8  1  0
  8  9  1  0
  8 25  1  0
  9 10  2  0
  9 24  1  0
 12 11  1  6
 12 19  1  0
 12 13  1  0
 13 14  2  0
 13 15  1  0
 15 16  1  0
 16 17  1  0
 17 18  1  0
 18 32  1  0
 19 20  1  0
 20 28  1  0
 20 21  2  0
 22 29  1  0
 22 23  2  0
 22 30  1  0
 25 26  2  0
 25 27  1  0
 28 29  1  0
 29 31  1  6
 31 34  1  0
 32 33  1  0
 34 35  2  0
 34 36  1  0
 35 39  1  0
 36 37  2  0
 37 38  1  0
 38 39  2  0
M  END
>  <DRUGBANK_ID>  (1) 
DB02436

>  <SECONDARY_ACCESSION_NUMBERS>  (1) 
EXPT01899

>  <COMMON_NAME>  (1) 
{4-[(2S)-2-({[(1S)-1-Carboxy-2-phenylethyl]carbamoyl}amino)-3-oxo-3-(pentylamino)propyl]phenoxy}malonic acid

>  <UNII>  (1) 
BSW3GP3Z2B

$$$$
