
     RDKit          2D

 32 37  0  0  0  0  0  0  0  0999 V2000
    5.1807   -1.4161    0.0000 C   0  0  0  0  0  0  0  0  0  0  0  0
    5.3522   -0.6091    0.0000 C   0  0  0  0  0  0  0  0  0  0  0  0
    4.7391   -0.0571    0.0000 N   0  0  0  0  0  0  0  0  0  0  0  0
    4.8253    0.7634    0.0000 C   0  0  0  0  0  0  0  0  0  0  0  0
    4.0717    1.0990    0.0000 C   0  0  0  0  0  0  0  0  0  0  0  0
    3.5196    0.4859    0.0000 C   0  0  0  0  0  0  0  0  0  0  0  0
    3.9321   -0.2286    0.0000 C   0  0  0  0  0  0  0  0  0  0  0  0
    3.5196   -0.9431    0.0000 N   0  0  0  0  0  0  0  0  0  0  0  0
    2.6946   -0.9431    0.0000 C   0  0  0  0  0  0  0  0  0  0  0  0
    2.2821   -0.2286    0.0000 C   0  0  0  0  0  0  0  0  0  0  0  0
    2.6946    0.4859    0.0000 C   0  0  0  0  0  0  0  0  0  0  0  0
    2.1426    1.0990    0.0000 N   0  0  0  0  0  0  0  0  0  0  0  0
    1.3889    0.7634    0.0000 C   0  0  0  0  0  0  0  0  0  0  0  0
    1.4752   -0.0571    0.0000 N   0  0  0  0  0  0  0  0  0  0  0  0
    2.3141    1.9059    0.0000 C   0  0  0  0  0  0  0  0  0  0  0  0
    2.2821   -1.6576    0.0000 N   0  0  0  0  0  0  0  0  0  0  0  0
    1.4571   -1.6576    0.0000 C   0  0  0  0  0  0  0  0  0  0  0  0
    0.9722   -2.3250    0.0000 C   0  0  0  0  0  0  0  0  0  0  0  0
    0.1876   -2.0701    0.0000 C   0  0  0  0  0  0  0  0  0  0  0  0
    0.1876   -1.2451    0.0000 N   0  0  0  0  0  0  0  0  0  0  0  0
    0.9722   -0.9901    0.0000 N   0  0  0  0  0  0  0  0  0  0  0  0
   -0.4798   -0.7601    0.0000 C   0  0  0  0  0  0  0  0  0  0  0  0
   -0.4798   -2.5550    0.0000 C   0  0  0  0  0  0  0  0  0  0  0  0
    5.5398    1.1759    0.0000 C   0  0  0  0  0  0  0  0  0  0  0  0
    6.2543    0.7634    0.0000 O   0  0  0  0  0  0  0  0  0  0  0  0
    5.5398    2.0009    0.0000 N   0  0  0  0  0  0  0  0  0  0  0  0
    6.2543    2.4134    0.0000 C   0  0  0  0  0  0  0  0  0  0  0  0
    6.6668    3.1279    0.0000 C   0  0  0  0  0  0  0  0  0  0  0  0
    7.0793    2.4134    0.0000 C   0  0  0  0  0  0  0  0  0  0  0  0
    4.8253    2.4134    0.0000 C   0  0  0  0  0  0  0  0  0  0  0  0
    4.0003    2.4134    0.0000 C   0  0  0  0  0  0  0  0  0  0  0  0
    4.4128    3.1279    0.0000 C   0  0  0  0  0  0  0  0  0  0  0  0
  1  2  1  0
  2  3  1  0
  3  4  1  0
  3  7  1  0
  4  5  2  0
  4 24  1  0
  5  6  1  0
  6  7  2  0
  6 11  1  0
  7  8  1  0
  8  9  2  0
  9 10  1  0
  9 16  1  0
 10 11  2  0
 10 14  1  0
 11 12  1  0
 12 13  1  0
 12 15  1  0
 13 14  2  0
 16 17  1  0
 17 18  1  0
 17 21  2  0
 18 19  2  0
 19 20  1  0
 19 23  1  0
 20 21  1  0
 20 22  1  0
 24 25  2  0
 24 26  1  0
 26 27  1  0
 26 30  1  0
 27 28  1  0
 27 29  1  0
 28 29  1  0
 30 31  1  0
 30 32  1  0
 31 32  1  0
M  END
>  <DRUGBANK_ID>  (1) 
DB12591

>  <COMMON_NAME>  (1) 
BMS-911543

>  <CAS_NUMBER>  (1) 
1271022-90-2

>  <UNII>  (1) 
7N03P021J8

$$$$
