908
     RDKit          2D

 24 27  0  0  1  0  0  0  0  0999 V2000
    6.8986    0.0158    0.0000 O   0  0  0  0  0  0  0  0  0  0  0  0
    9.0964    1.2335    0.0000 O   0  0  0  0  0  0  0  0  0  0  0  0
    5.2561   -1.6060    0.0000 N   0  0  0  0  0  0  0  0  0  0  0  0
    6.1841    2.9033    0.0000 N   0  0  0  0  0  0  0  0  0  0  0  0
    4.4592   -1.3925    0.0000 C   0  0  0  0  0  0  0  0  0  0  0  0
    5.4696    0.0158    0.0000 C   0  0  0  0  0  0  0  0  0  0  0  0
    4.6727    0.2294    0.0000 C   0  0  0  0  0  0  0  0  0  0  0  0
    3.0302   -2.2175    0.0000 C   0  0  0  0  0  0  0  0  0  0  0  0
    5.3523   -2.8396    0.0000 C   0  0  0  0  0  0  0  0  0  0  0  0
    3.4427   -2.9320    0.0000 C   0  0  0  0  0  0  0  0  0  0  0  0
    6.0668   -2.4271    0.0000 C   0  0  0  0  0  0  0  0  0  0  0  0
    6.1841    0.4283    0.0000 C   0  0  0  0  0  0  0  0  0  0  0  0
    2.2334   -2.0040    0.0000 C   0  0  0  0  0  0  0  0  0  0  0  0
    6.1841    1.2533    0.0000 C   0  0  0  0  0  0  0  0  0  0  0  0
    1.6500   -2.5874    0.0000 C   0  0  0  0  0  0  0  0  0  0  0  0
    6.8986    1.6658    0.0000 C   0  0  0  0  0  0  0  0  0  0  0  0
    5.4696    1.6658    0.0000 C   0  0  0  0  0  0  0  0  0  0  0  0
    6.8986    2.4908    0.0000 C   0  0  0  0  0  0  0  0  0  0  0  0
    7.6360    1.2248    0.0000 C   0  0  0  0  0  0  0  0  0  0  0  0
    5.4696    2.4908    0.0000 C   0  0  0  0  0  0  0  0  0  0  0  0
    7.6360    2.9320    0.0000 C   0  0  0  0  0  0  0  0  0  0  0  0
    8.3836    1.6487    0.0000 C   0  0  0  0  0  0  0  0  0  0  0  0
    8.3836    2.5081    0.0000 C   0  0  0  0  0  0  0  0  0  0  0  0
    9.8125    1.6432    0.0000 C   0  0  0  0  0  0  0  0  0  0  0  0
  2 22  1  0
  2 24  1  0
  3  6  1  0
  3 10  1  0
  3 11  1  0
  4 18  2  0
  4 20  1  0
  5  7  1  6
  5  8  1  0
  5  9  1  0
  6  7  1  6
  6 12  1  0
  8 10  1  0
  8 13  1  6
  9 11  1  0
 12  1  1  6
 12 14  1  0
 13 15  2  0
 14 16  2  0
 14 17  1  0
 16 18  1  0
 16 19  1  0
 17 20  2  0
 18 21  1  0
 19 22  2  0
 21 23  2  0
 22 23  1  0
M  END
>  <DRUGBANK_ID>  (1) 
DB00908

>  <SECONDARY_ACCESSION_NUMBERS>  (1) 
APRD00136

>  <COMMON_NAME>  (1) 
Quinidine

>  <CAS_NUMBER>  (1) 
56-54-2

>  <UNII>  (1) 
ITX08688JL

>  <SYNONYMS>  (1) 
(+)-quinidine; (8R,9S)-Quinidine; (R)-(6-Methoxyquinolin-4-yl)((3S,4R,7S)-3-vinylquinuclidin-7-yl)methanol; (S)-(6-Methoxy-quinolin-4-yl)-((2R,5R)-5-vinyl-1-aza-bicyclo[2.2.2]oct-2-yl)-methanol; (S)-(6-Methoxyquinolin-4-yl)((2R,5R)-5-vinylquinuclidin-2-yl)methanol; 6-methoxy-α-(5-vinyl-2-quinuclidinyl)-4-quinolinemethanol; beta-Quinine; Chinidin; Chinidinum; CIN-QUIN; Conchinin; Conquinine; Pitayine; Quinidina; α-(6-methoxy-4-quinolyl)-5-vinyl-2-quinuclidinemethanol; β-quinine

$$$$
