791
     RDKit          2D

 15 15  0  0  0  0  0  0  0  0999 V2000
    1.6500   -0.3630    0.0000 Cl  0  0  0  0  0  0  0  0  0  0  0  0
    3.0791    2.1120    0.0000 Cl  0  0  0  0  0  0  0  0  0  0  0  0
    3.7935   -1.6005    0.0000 O   0  0  0  0  0  0  0  0  0  0  0  0
    6.6515   -1.6005    0.0000 O   0  0  0  0  0  0  0  0  0  0  0  0
    3.7935    0.0495    0.0000 N   0  0  0  0  0  0  0  0  0  0  0  0
    5.2224   -1.6005    0.0000 N   0  0  0  0  0  0  0  0  0  0  0  0
    5.9370   -0.3630    0.0000 N   0  0  0  0  0  0  0  0  0  0  0  0
    3.0791   -0.3630    0.0000 C   0  0  0  0  0  0  0  0  0  0  0  0
    3.7935    0.8745    0.0000 C   0  0  0  0  0  0  0  0  0  0  0  0
    4.5080   -0.3630    0.0000 C   0  0  0  0  0  0  0  0  0  0  0  0
    2.3645    0.0495    0.0000 C   0  0  0  0  0  0  0  0  0  0  0  0
    3.0791    1.2870    0.0000 C   0  0  0  0  0  0  0  0  0  0  0  0
    4.5080   -1.1880    0.0000 C   0  0  0  0  0  0  0  0  0  0  0  0
    5.2224    0.0495    0.0000 C   0  0  0  0  0  0  0  0  0  0  0  0
    5.9370   -1.1880    0.0000 C   0  0  0  0  0  0  0  0  0  0  0  0
  1 11  1  0
  2 12  1  0
  3 13  2  0
  4 15  2  0
  5  8  1  0
  5  9  1  0
  5 10  1  0
  6 13  1  0
  6 15  1  0
  7 14  1  0
  7 15  1  0
  8 11  1  0
  9 12  1  0
 10 13  1  0
 10 14  2  0
M  END
>  <DRUGBANK_ID>  (1) 
DB00791

>  <SECONDARY_ACCESSION_NUMBERS>  (1) 
APRD00130

>  <COMMON_NAME>  (1) 
Uracil mustard

>  <CAS_NUMBER>  (1) 
66-75-1

>  <UNII>  (1) 
W7KQ46GJ8U

>  <SYNONYMS>  (1) 
5-(di-2-chloroethyl)aminouracil; 5-[bis(2-chloroethyl)amino]-2,4(1H,3H)-pyrimidinedione; 5-[bis(2-chloroethyl)amino]uracil; 5-[di(Î²-chloroethyl)amino]uracil; 5-aminouracil mustard; 5-N,N-bis(2-chloroethyl)aminouracil; Aminouracil mustard; Uracil mustard; Uracil nitrogen mustard; Uramustina; Uramustine; Uramustinum

$$$$
