
     RDKit          2D

 23 26  0  0  1  0  0  0  0  0999 V2000
    4.2220   -1.2833    0.0000 C   0  0  0  0  0  0  0  0  0  0  0  0
    3.4996   -1.6820    0.0000 C   0  0  0  0  0  0  0  0  0  0  0  0
    2.7932   -1.2557    0.0000 C   0  0  0  0  0  0  0  0  0  0  0  0
    2.0709   -1.6544    0.0000 C   0  0  0  0  0  0  0  0  0  0  0  0
    1.3645   -1.2281    0.0000 O   0  0  0  0  0  0  0  0  0  0  0  0
    2.0550   -2.4792    0.0000 C   0  0  0  0  0  0  0  0  0  0  0  0
    1.3327   -2.8778    0.0000 C   0  0  0  0  0  0  0  0  0  0  0  0
    0.6263   -2.4516    0.0000 C   0  0  0  0  0  0  0  0  0  0  0  0
    0.6423   -1.6267    0.0000 O   0  0  0  0  0  0  0  0  0  0  0  0
   -0.0959   -2.8502    0.0000 C   0  0  0  0  0  0  0  0  0  0  0  0
   -0.1118   -3.6750    0.0000 C   0  0  0  0  0  0  0  0  0  0  0  0
   -0.8341   -4.0737    0.0000 C   0  0  0  0  0  0  0  0  0  0  0  0
   -0.8500   -4.8985    0.0000 O   0  0  0  0  0  0  0  0  0  0  0  0
   -1.5405   -3.6475    0.0000 C   0  0  0  0  0  0  0  0  0  0  0  0
   -1.5245   -2.8226    0.0000 C   0  0  0  0  0  0  0  0  0  0  0  0
   -0.8023   -2.4239    0.0000 C   0  0  0  0  0  0  0  0  0  0  0  0
    0.5945   -4.1013    0.0000 C   0  0  0  0  0  0  0  0  0  0  0  0
    0.5785   -4.9261    0.0000 O   0  0  0  0  0  0  0  0  0  0  0  0
    1.3168   -3.7027    0.0000 C   0  0  0  0  0  0  0  0  0  0  0  0
    2.0232   -4.1289    0.0000 C   0  0  0  0  0  0  0  0  0  0  0  0
    2.7454   -3.7303    0.0000 C   0  0  0  0  0  0  0  0  0  0  0  0
    2.7614   -2.9054    0.0000 C   0  0  0  0  0  0  0  0  0  0  0  0
    3.4837   -2.5067    0.0000 C   0  0  0  0  0  0  0  0  0  0  0  0
  2  1  1  1
  2  3  1  0
  2 23  1  0
  3  4  1  0
  4  5  2  0
  4  6  1  0
  6  7  1  0
  6 22  2  0
  7  8  1  0
  7 19  2  0
  8  9  2  0
  8 10  1  0
 10 11  2  0
 10 16  1  0
 11 12  1  0
 11 17  1  0
 12 13  1  0
 12 14  2  0
 14 15  1  0
 15 16  2  0
 17 18  2  0
 17 19  1  0
 19 20  1  0
 20 21  2  0
 21 22  1  0
 22 23  1  0
M  END
>  <DRUGBANK_ID>  (1) 
DB15644

>  <COMMON_NAME>  (1) 
Ochromycinone

>  <CAS_NUMBER>  (1) 
28882-53-3

>  <UNII>  (1) 
CKZ6P7I25M

>  <SYNONYMS>  (1) 
(+)-ochromycinone; (3s)-3.beta.-methyl-8-hydroxy-1,2,3,4,7,12-hexahydrobenzo(a)anthracene-1,7,12-trione; Benz(a)anthracene-1,7,12(2h)-trione, 3,4-dihydro-8-hydroxy-3-methyl-, (s)-

$$$$
