
     RDKit          2D

 20 19  0  0  1  0  0  0  0  0999 V2000
    1.0461    1.4289    0.0000 C   0  0  0  0  0  0  0  0  0  0  0  0
    0.3316    1.8414    0.0000 C   0  0  0  0  0  0  0  0  0  0  0  0
   -0.3829    1.4289    0.0000 S   0  0  0  0  0  0  0  0  0  0  0  0
   -1.0974    1.0164    0.0000 O   0  0  0  0  0  0  0  0  0  0  0  0
    0.0296    0.7145    0.0000 O   0  0  0  0  0  0  0  0  0  0  0  0
   -0.7954    2.1434    0.0000 O   0  0  0  0  0  0  0  0  0  0  0  0
    1.7605    1.8414    0.0000 C   0  0  0  0  0  0  0  0  0  0  0  0
    2.4750    1.4289    0.0000 C   0  0  0  0  0  0  0  0  0  0  0  0
    3.1895    1.8414    0.0000 S   0  0  0  0  0  0  0  0  0  0  0  0
    3.9039    1.4289    0.0000 S   0  0  0  0  0  0  0  0  0  0  0  0
    4.6184    1.8414    0.0000 C   0  0  0  0  0  0  0  0  0  0  0  0
    5.3329    1.4289    0.0000 C   0  0  0  0  0  0  0  0  0  0  0  0
    6.0474    1.8414    0.0000 C   0  0  0  0  0  0  0  0  0  0  0  0
    6.7618    1.4289    0.0000 C   0  0  0  0  0  0  0  0  0  0  0  0
    7.4763    1.8414    0.0000 S   0  0  0  0  0  0  0  0  0  0  0  0
    8.1908    2.2539    0.0000 O   0  0  0  0  0  0  0  0  0  0  0  0
    7.8888    1.1270    0.0000 O   0  0  0  0  0  0  0  0  0  0  0  0
    7.0638    2.5559    0.0000 O   0  0  0  0  0  0  0  0  0  0  0  0
    5.3329    0.6039    0.0000 N   0  0  0  0  0  0  0  0  0  0  0  0
    1.7605    2.6664    0.0000 N   0  0  0  0  0  0  0  0  0  0  0  0
  1  2  1  0
  1  7  1  0
  2  3  1  0
  3  4  2  0
  3  5  2  0
  3  6  1  0
  7  8  1  0
  7 20  1  6
  8  9  1  0
  9 10  1  0
 10 11  1  0
 11 12  1  0
 12 13  1  0
 12 19  1  6
 13 14  1  0
 14 15  1  0
 15 16  2  0
 15 17  2  0
 15 18  1  0
M  END
>  <DRUGBANK_ID>  (1) 
DB13107

>  <COMMON_NAME>  (1) 
QGC-001

>  <CAS_NUMBER>  (1) 
648927-86-0

>  <UNII>  (1) 
638KY4573I

$$$$
