GRR
     RDKit          2D

 20 21  0  0  0  0  0  0  0  0999 V2000
   -0.0913    3.1168    0.0000 C   0  0  0  0  0  0  0  0  0  0  0  0
   -0.8058    2.7043    0.0000 C   0  0  0  0  0  0  0  0  0  0  0  0
   -0.8058    1.8793    0.0000 C   0  0  0  0  0  0  0  0  0  0  0  0
   -1.5202    1.4668    0.0000 C   0  0  0  0  0  0  0  0  0  0  0  0
   -1.5202    0.6418    0.0000 C   0  0  0  0  0  0  0  0  0  0  0  0
   -0.0913    1.4668    0.0000 C   0  0  0  0  0  0  0  0  0  0  0  0
   -0.0913    0.6418    0.0000 C   0  0  0  0  0  0  0  0  0  0  0  0
   -0.8058    0.2293    0.0000 C   0  0  0  0  0  0  0  0  0  0  0  0
   -0.8058   -0.5957    0.0000 O   0  0  0  0  0  0  0  0  0  0  0  0
   -0.0913   -1.0082    0.0000 C   0  0  0  0  0  0  0  0  0  0  0  0
    0.6232   -0.5957    0.0000 C   0  0  0  0  0  0  0  0  0  0  0  0
    0.6232    0.2293    0.0000 O   0  0  0  0  0  0  0  0  0  0  0  0
    1.3377   -1.0082    0.0000 O   0  0  0  0  0  0  0  0  0  0  0  0
   -0.0913   -1.8332    0.0000 C   0  0  0  0  0  0  0  0  0  0  0  0
    0.6232   -2.2457    0.0000 C   0  0  0  0  0  0  0  0  0  0  0  0
    0.6232   -3.0707    0.0000 C   0  0  0  0  0  0  0  0  0  0  0  0
    1.3377   -3.4832    0.0000 C   0  0  0  0  0  0  0  0  0  0  0  0
    2.0521   -3.0707    0.0000 C   0  0  0  0  0  0  0  0  0  0  0  0
    2.0521   -2.2457    0.0000 C   0  0  0  0  0  0  0  0  0  0  0  0
    1.3377   -1.8332    0.0000 C   0  0  0  0  0  0  0  0  0  0  0  0
  1  2  1  0
  3  2  1  0
  3  6  2  0
  4  3  1  0
  4  5  2  0
  5  8  1  0
  6  7  1  0
  8  7  2  0
  8  9  1  0
 10  9  1  0
 10 11  1  0
 11 13  2  0
 11 12  1  0
 10 14  1  6
 15 14  1  0
 16 15  2  0
 17 16  1  0
 18 17  2  0
 18 19  1  0
 19 20  2  0
 20 15  1  0
M  END
>  <DRUGBANK_ID>  (1) 
DB07842

>  <COMMON_NAME>  (1) 
(2S)-2-(4-ethylphenoxy)-3-phenylpropanoic acid

$$$$
