
     RDKit          2D

 38 41  0  0  1  0  0  0  0  0999 V2000
    4.9111    6.8697    0.0000 C   0  0  0  0  0  0  0  0  0  0  0  0
    4.1041    6.6982    0.0000 C   0  0  0  0  0  0  0  0  0  0  0  0
    3.8492    5.9136    0.0000 O   0  0  0  0  0  0  0  0  0  0  0  0
    3.0422    5.7421    0.0000 C   0  0  0  0  0  0  0  0  0  0  0  0
    2.7873    4.9574    0.0000 O   0  0  0  0  0  0  0  0  0  0  0  0
    1.9803    4.7859    0.0000 P   0  0  0  0  0  0  0  0  0  0  0  0
    2.1518    3.9789    0.0000 O   0  0  0  0  0  0  0  0  0  0  0  0
    1.8088    5.5929    0.0000 O   0  0  0  0  0  0  0  0  0  0  0  0
    1.1733    4.6144    0.0000 O   0  0  0  0  0  0  0  0  0  0  0  0
    0.9184    3.8298    0.0000 P   0  0  0  0  0  0  0  0  0  0  0  0
    1.7030    3.5748    0.0000 O   0  0  0  0  0  0  0  0  0  0  0  0
    0.1338    4.0847    0.0000 O   0  0  0  0  0  0  0  0  0  0  0  0
    0.6635    3.0451    0.0000 O   0  0  0  0  0  0  0  0  0  0  0  0
   -0.1435    2.8736    0.0000 C   0  0  0  0  0  0  0  0  0  0  0  0
   -0.3984    2.0890    0.0000 C   0  0  0  0  0  0  0  0  0  0  0  0
    0.0865    1.4216    0.0000 O   0  0  0  0  0  0  0  0  0  0  0  0
   -0.3984    0.7541    0.0000 C   0  0  0  0  0  0  0  0  0  0  0  0
   -1.1831    1.0091    0.0000 C   0  0  0  0  0  0  0  0  0  0  0  0
   -1.8505    0.5241    0.0000 O   0  0  0  0  0  0  0  0  0  0  0  0
   -1.1831    1.8341    0.0000 C   0  0  0  0  0  0  0  0  0  0  0  0
   -1.8505    2.3190    0.0000 O   0  0  0  0  0  0  0  0  0  0  0  0
   -0.1435   -0.0305    0.0000 N   0  0  0  0  0  0  0  0  0  0  0  0
   -0.6284   -0.6979    0.0000 C   0  0  0  0  0  0  0  0  0  0  0  0
   -0.1435   -1.3654    0.0000 N   0  0  0  0  0  0  0  0  0  0  0  0
    0.6411   -1.1104    0.0000 C   0  0  0  0  0  0  0  0  0  0  0  0
    0.6411   -0.2854    0.0000 C   0  0  0  0  0  0  0  0  0  0  0  0
    1.3556    0.1271    0.0000 N   0  0  0  0  0  0  0  0  0  0  0  0
    2.0701   -0.2854    0.0000 C   0  0  0  0  0  0  0  0  0  0  0  0
    2.7845    0.1271    0.0000 N   0  0  0  0  0  0  0  0  0  0  0  0
    2.0701   -1.1104    0.0000 N   0  0  0  0  0  0  0  0  0  0  0  0
    1.3556   -1.5229    0.0000 C   0  0  0  0  0  0  0  0  0  0  0  0
    1.3556   -2.3479    0.0000 O   0  0  0  0  0  0  0  0  0  0  0  0
    2.4902    6.3552    0.0000 C   0  0  0  0  0  0  0  0  0  0  0  0
    1.6832    6.1836    0.0000 O   0  0  0  0  0  0  0  0  0  0  0  0
    2.7451    7.1398    0.0000 C   0  0  0  0  0  0  0  0  0  0  0  0
    2.1931    7.7529    0.0000 O   0  0  0  0  0  0  0  0  0  0  0  0
    3.5521    7.3113    0.0000 C   0  0  0  0  0  0  0  0  0  0  0  0
    3.8070    8.0959    0.0000 O   0  0  0  0  0  0  0  0  0  0  0  0
  2  1  1  6
  2  3  1  0
  4  3  1  0
  4  5  1  6
  5  6  1  0
  6  7  1  0
  6  8  2  0
  6  9  1  0
  9 10  1  0
 10 11  1  0
 10 12  2  0
 10 13  1  0
 13 14  1  0
 15 14  1  1
 15 16  1  0
 17 16  1  0
 17 22  1  1
 18 17  1  0
 18 19  1  6
 18 20  1  0
 20 15  1  0
 20 21  1  6
 22 23  1  0
 22 26  1  0
 23 24  2  0
 24 25  1  0
 25 26  2  0
 25 31  1  0
 26 27  1  0
 27 28  2  0
 28 29  1  0
 28 30  1  0
 30 31  1  0
 31 32  2  0
 33  4  1  0
 33 34  1  1
 33 35  1  0
 35 36  1  6
 35 37  1  0
 37  2  1  0
 37 38  1  6
M  END
>  <DRUGBANK_ID>  (1) 
DB18689

>  <COMMON_NAME>  (1) 
GDP-L-fucose

>  <CAS_NUMBER>  (1) 
15839-70-0

>  <UNII>  (1) 
SM108QK2IH

>  <SYNONYMS>  (1) 
Gdp-.beta.-l-fucose; Gdp-fucose; Guanosine 5'-(trihydrogen pyrophosphate), mono(6-deoxy-l-galactopyranosyl) ester; Guanosine 5'-diphospho-.beta.-l-fucose; Guanosine 5'-pyrophosphate, .beta.-l-fucopyranosyl ester; Guanosine pyrophosphate, l-fucosyl ester

$$$$
