
     RDKit          2D

  4  3  0  0  0  0  0  0  0  0999 V2000
    2.0625   -0.7145    0.0000 C   0  0  0  0  0  0  0  0  0  0  0  0
    1.2375   -0.7145    0.0000 C   0  0  0  0  0  0  0  0  0  0  0  0
    0.8250    0.0000    0.0000 N   0  0  0  0  0  0  0  0  0  0  0  0
    0.0000    0.0000    0.0000 O   0  0  0  0  0  0  0  0  0  0  0  0
  1  2  1  0
  2  3  1  0
  3  4  2  0
M  END
>  <DRUGBANK_ID>  (1) 
DB02646

>  <SECONDARY_ACCESSION_NUMBERS>  (1) 
EXPT02372

>  <COMMON_NAME>  (1) 
Nitrosoethane

>  <CAS_NUMBER>  (1) 
925-91-7

>  <UNII>  (1) 
EV3G0P128S

$$$$
