
     RDKit          2D

 18 19  0  0  0  0  0  0  0  0999 V2000
   -4.0042   -0.3365    0.0000 N   0  0  0  0  0  0  0  0  0  0  0  0
   -3.2897    0.0759    0.0000 C   0  0  0  0  0  0  0  0  0  0  0  0
   -3.2897    0.9009    0.0000 N   0  0  0  0  0  0  0  0  0  0  0  0
   -2.5753   -0.3365    0.0000 N   0  0  0  0  0  0  0  0  0  0  0  0
   -1.8608    0.0759    0.0000 C   0  0  0  0  0  0  0  0  0  0  0  0
   -1.1463   -0.3365    0.0000 C   0  0  0  0  0  0  0  0  0  0  0  0
   -0.4319    0.0759    0.0000 C   0  0  0  0  0  0  0  0  0  0  0  0
    0.2824   -0.3365    0.0000 C   0  0  0  0  0  0  0  0  0  0  0  0
    0.2824   -1.1615    0.0000 N   0  0  0  0  0  0  0  0  0  0  0  0
    0.9970   -1.5740    0.0000 C   0  0  0  0  0  0  0  0  0  0  0  0
    1.7115   -1.1615    0.0000 C   0  0  0  0  0  0  0  0  0  0  0  0
    1.7115   -0.3365    0.0000 N   0  0  0  0  0  0  0  0  0  0  0  0
    0.9970    0.0759    0.0000 C   0  0  0  0  0  0  0  0  0  0  0  0
    2.4961   -1.4164    0.0000 C   0  0  0  0  0  0  0  0  0  0  0  0
    2.9810   -0.7490    0.0000 C   0  0  0  0  0  0  0  0  0  0  0  0
    2.4961   -0.0815    0.0000 C   0  0  0  0  0  0  0  0  0  0  0  0
    0.9970   -2.3990    0.0000 O   0  0  0  0  0  0  0  0  0  0  0  0
    0.9970    0.9009    0.0000 O   0  0  0  0  0  0  0  0  0  0  0  0
  1  2  1  0
  2  3  2  0
  2  4  1  0
  4  5  1  0
  5  6  1  0
  6  7  1  0
  8  7  1  1
  8 13  1  0
  9 10  1  0
  9  8  1  0
 10 11  1  0
 10 17  2  0
 11 14  1  1
 11 12  1  0
 12 13  1  0
 12 16  1  0
 13 18  2  0
 14 15  1  0
 15 16  1  0
M  END
>  <DRUGBANK_ID>  (1) 
DB04433

>  <SECONDARY_ACCESSION_NUMBERS>  (1) 
EXPT00499

>  <COMMON_NAME>  (1) 
Verpacamide A

>  <SYNONYMS>  (1) 
Cyclo-(L-arginine-L-proline) inhibitor

$$$$
