52P
     RDKit          2D

 28 31  0  0  0  0  0  0  0  0999 V2000
   -1.6833   -4.0755    0.0000 F   0  0  0  0  0  0  0  0  0  0  0  0
   -1.6833   -3.2505    0.0000 C   0  0  0  0  0  0  0  0  0  0  0  0
   -2.3978   -2.8380    0.0000 C   0  0  0  0  0  0  0  0  0  0  0  0
   -2.3978   -2.0130    0.0000 C   0  0  0  0  0  0  0  0  0  0  0  0
   -1.6833   -1.6005    0.0000 C   0  0  0  0  0  0  0  0  0  0  0  0
   -1.6833   -0.7755    0.0000 S   0  0  0  0  0  0  0  0  0  0  0  0
   -0.9688   -0.3630    0.0000 C   0  0  0  0  0  0  0  0  0  0  0  0
   -0.9688    0.4620    0.0000 C   0  0  0  0  0  0  0  0  0  0  0  0
   -0.2544    0.8745    0.0000 C   0  0  0  0  0  0  0  0  0  0  0  0
    0.4601    0.4620    0.0000 C   0  0  0  0  0  0  0  0  0  0  0  0
    1.1746    0.8745    0.0000 C   0  0  0  0  0  0  0  0  0  0  0  0
    1.1746    1.6995    0.0000 C   0  0  0  0  0  0  0  0  0  0  0  0
    0.4601    2.1120    0.0000 C   0  0  0  0  0  0  0  0  0  0  0  0
   -0.2544    1.6995    0.0000 Cl  0  0  0  0  0  0  0  0  0  0  0  0
    0.4601    2.9370    0.0000 C   0  0  0  0  0  0  0  0  0  0  0  0
    1.1746    3.3495    0.0000 C   0  0  0  0  0  0  0  0  0  0  0  0
    1.8891    2.9370    0.0000 C   0  0  0  0  0  0  0  0  0  0  0  0
    1.8891    2.1120    0.0000 C   0  0  0  0  0  0  0  0  0  0  0  0
    2.6035    1.6995    0.0000 Cl  0  0  0  0  0  0  0  0  0  0  0  0
    1.8891    0.4620    0.0000 C   0  0  0  0  0  0  0  0  0  0  0  0
    2.6035    0.8745    0.0000 O   0  0  0  0  0  0  0  0  0  0  0  0
    1.8891   -0.3630    0.0000 N   0  0  0  0  0  0  0  0  0  0  0  0
    1.1746   -0.7755    0.0000 C   0  0  0  0  0  0  0  0  0  0  0  0
    0.4601   -0.3630    0.0000 N   0  0  0  0  0  0  0  0  0  0  0  0
   -0.2544   -0.7755    0.0000 N   0  0  0  0  0  0  0  0  0  0  0  0
   -0.9688   -2.0130    0.0000 C   0  0  0  0  0  0  0  0  0  0  0  0
   -0.2544   -1.6005    0.0000 F   0  0  0  0  0  0  0  0  0  0  0  0
   -0.9688   -2.8380    0.0000 C   0  0  0  0  0  0  0  0  0  0  0  0
  2  1  1  0
  2  3  2  0
  4  3  1  0
  5  4  2  0
  6  5  1  0
  6  7  1  0
  7 25  2  0
  8  7  1  0
  8  9  2  0
  9 10  1  0
 10 11  2  0
 10 24  1  0
 11 20  1  0
 12 11  1  0
 12 13  2  0
 13 14  1  0
 15 13  1  0
 16 15  2  0
 17 16  1  0
 17 18  2  0
 18 12  1  0
 19 18  1  0
 20 21  2  0
 20 22  1  0
 23 22  2  0
 24 23  1  0
 25 24  1  0
 26  5  1  0
 26 28  2  0
 27 26  1  0
 28  2  1  0
M  END
>  <DRUGBANK_ID>  (1) 
DB07138

>  <SECONDARY_ACCESSION_NUMBERS>  (1) 
DB12790

>  <COMMON_NAME>  (1) 
Neflamapimod

>  <CAS_NUMBER>  (1) 
209410-46-8

>  <UNII>  (1) 
TYL52QM320

>  <SYNONYMS>  (1) 
Neflamapimod

$$$$
