
     RDKit          2D

 21 22  0  0  0  0  0  0  0  0999 V2000
    3.5724    2.0625    0.0000 C   0  0  0  0  0  0  0  0  0  0  0  0
    2.8579    3.3000    0.0000 C   0  0  0  0  0  0  0  0  0  0  0  0
   -4.3729    0.4548    0.0000 C   0  0  0  0  0  0  0  0  0  0  0  0
   -2.1434    3.7125    0.0000 C   0  0  0  0  0  0  0  0  0  0  0  0
   -2.8579    3.3000    0.0000 C   0  0  0  0  0  0  0  0  0  0  0  0
   -1.4289    3.3000    0.0000 C   0  0  0  0  0  0  0  0  0  0  0  0
   -3.4710    1.9230    0.0000 C   0  0  0  0  0  0  0  0  0  0  0  0
    1.4289    2.4750    0.0000 C   0  0  0  0  0  0  0  0  0  0  0  0
   -0.0000    2.4750    0.0000 C   0  0  0  0  0  0  0  0  0  0  0  0
    2.8579    2.4750    0.0000 C   0  0  0  0  0  0  0  0  0  0  0  0
   -3.5479    0.4548    0.0000 C   0  0  0  0  0  0  0  0  0  0  0  0
   -2.8579    2.4750    0.0000 C   0  0  0  0  0  0  0  0  0  0  0  0
    0.7145    2.0625    0.0000 C   0  0  0  0  0  0  0  0  0  0  0  0
   -1.4289    2.4750    0.0000 C   0  0  0  0  0  0  0  0  0  0  0  0
   -3.1354    1.1693    0.0000 C   0  0  0  0  0  0  0  0  0  0  0  0
   -2.1434    2.0625    0.0000 C   0  0  0  0  0  0  0  0  0  0  0  0
    2.1434    2.0625    0.0000 N   0  0  0  0  0  0  0  0  0  0  0  0
   -3.1354   -0.2596    0.0000 O   0  0  0  0  0  0  0  0  0  0  0  0
    0.7145    1.2375    0.0000 O   0  0  0  0  0  0  0  0  0  0  0  0
   -0.7145    2.0625    0.0000 O   0  0  0  0  0  0  0  0  0  0  0  0
   -2.3149    1.2555    0.0000 O   0  0  0  0  0  0  0  0  0  0  0  0
  5  4  2  0
  6  4  1  0
 10  1  1  0
 10  2  1  0
 11  3  1  0
 12  5  1  0
 12  7  1  0
 13  8  1  0
 13  9  1  0
 14  6  2  0
 15  7  2  0
 15 11  1  0
 16 12  2  0
 16 14  1  0
 17  8  1  0
 17 10  1  0
 18 11  2  0
 19 13  1  0
 20  9  1  0
 20 14  1  0
 21 15  1  0
 21 16  1  0
M  END
>  <DRUGBANK_ID>  (1) 
DB09013

>  <COMMON_NAME>  (1) 
Befunolol

>  <CAS_NUMBER>  (1) 
39552-01-7

>  <UNII>  (1) 
418546MT3A

>  <SYNONYMS>  (1) 
Befunolol; Befunololum

$$$$
