BJM
     RDKit          2D

 23 27  0  0  0  0  0  0  0  0999 V2000
    0.2077    0.7996    0.0000 C   0  0  0  0  0  0  0  0  0  0  0  0
    0.2077   -0.0254    0.0000 C   0  0  0  0  0  0  0  0  0  0  0  0
   -0.5277    0.4259    0.0000 C   0  0  0  0  0  0  0  0  0  0  0  0
   -0.0783    1.2162    0.0000 C   0  0  0  0  0  0  0  0  0  0  0  0
    0.6572    2.3373    0.0000 C   0  0  0  0  0  0  0  0  0  0  0  0
    1.3928    1.2162    0.0000 C   0  0  0  0  0  0  0  0  0  0  0  0
   -0.0783    1.9636    0.0000 C   0  0  0  0  0  0  0  0  0  0  0  0
    0.6572    0.8425    0.0000 C   0  0  0  0  0  0  0  0  0  0  0  0
    1.3928    1.9636    0.0000 C   0  0  0  0  0  0  0  0  0  0  0  0
   -0.0941   -2.5325    0.0000 C   0  0  0  0  0  0  0  0  0  0  0  0
    0.7128   -2.3609    0.0000 C   0  0  0  0  0  0  0  0  0  0  0  0
   -0.9191   -2.5326    0.0000 C   0  0  0  0  0  0  0  0  0  0  0  0
   -1.9587   -1.4930    0.0000 C   0  0  0  0  0  0  0  0  0  0  0  0
   -2.7434   -1.2382    0.0000 N   0  0  0  0  0  0  0  0  0  0  0  0
    0.2077    1.5470    0.0000 C   0  0  0  0  0  0  0  0  0  0  0  0
    0.9433    0.4259    0.0000 C   0  0  0  0  0  0  0  0  0  0  0  0
   -0.5067   -0.4380    0.0000 C   0  0  0  0  0  0  0  0  0  0  0  0
    0.9222   -0.4379    0.0000 N   0  0  0  0  0  0  0  0  0  0  0  0
   -0.5067   -1.2630    0.0000 N   0  0  0  0  0  0  0  0  0  0  0  0
   -1.2212   -0.0255    0.0000 O   0  0  0  0  0  0  0  0  0  0  0  0
   -0.8759    1.4271    0.0000 O   0  0  0  0  0  0  0  0  0  0  0  0
    0.1608   -1.7479    0.0000 C   0  0  0  0  0  0  0  0  0  0  0  0
   -1.1741   -1.7479    0.0000 C   0  0  0  0  0  0  0  0  0  0  0  0
  1  2  1  0
  1  3  1  6
  1 16  1  0
  1 15  1  0
  2 17  1  0
  2 18  1  6
  3  4  1  0
  4  8  1  0
  4 21  1  6
  4  7  1  0
  5  7  1  6
  5  9  1  0
  5 15  1  0
  6 16  1  1
  6  8  1  0
  6  9  1  0
 10 11  1  1
 10 12  1  0
 10 22  1  0
 22 11  1  1
 12 23  1  0
 13 14  3  0
 17 19  1  0
 17 20  2  0
 19 22  1  0
 19 23  1  0
 23 13  1  1
M  END
>  <DRUGBANK_ID>  (1) 
DB07465

>  <COMMON_NAME>  (1) 
(1S,3S,5S)-2-{(2S)-2-amino-2-[(1R,3S,5R,7S)-3-hydroxytricyclo[3.3.1.1~3,7~]dec-1-yl]acetyl}-2-azabicyclo[3.1.0]hexane-3-carbonitrile

$$$$
