
     RDKit          2D

 33 37  0  0  0  0  0  0  0  0999 V2000
   -0.5270   -3.4685    0.0000 C   0  0  0  0  0  0  0  0  0  0  0  0
   -0.5388   -2.6320    0.0000 C   0  0  0  0  0  0  0  0  0  0  0  0
    0.1662   -2.2037    0.0000 C   0  0  0  0  0  0  0  0  0  0  0  0
    0.9250   -2.6112    0.0000 C   0  0  0  0  0  0  0  0  0  0  0  0
    0.9368   -3.4476    0.0000 C   0  0  0  0  0  0  0  0  0  0  0  0
    0.1899   -3.8767    0.0000 C   0  0  0  0  0  0  0  0  0  0  0  0
    1.7161   -2.3491    0.0000 C   0  0  0  0  0  0  0  0  0  0  0  0
    2.1856   -3.0116    0.0000 C   0  0  0  0  0  0  0  0  0  0  0  0
    1.7351   -3.6874    0.0000 O   0  0  0  0  0  0  0  0  0  0  0  0
   -1.2559   -2.2238    0.0000 N   0  0  0  0  0  0  0  0  0  0  0  0
   -1.9608   -2.6522    0.0000 C   0  0  0  0  0  0  0  0  0  0  0  0
   -2.7197   -2.2447    0.0000 C   0  0  0  0  0  0  0  0  0  0  0  0
   -2.7315   -1.4082    0.0000 N   0  0  0  0  0  0  0  0  0  0  0  0
   -2.0266   -0.9798    0.0000 C   0  0  0  0  0  0  0  0  0  0  0  0
   -1.2678   -1.3873    0.0000 C   0  0  0  0  0  0  0  0  0  0  0  0
   -3.4505   -1.0022    0.0000 C   0  0  0  0  0  0  0  0  0  0  0  0
   -3.4427   -0.1794    0.0000 C   0  0  0  0  0  0  0  0  0  0  0  0
   -2.7254    0.2172    0.0000 C   0  0  0  0  0  0  0  0  0  0  0  0
   -2.0087   -0.1911    0.0000 C   0  0  0  0  0  0  0  0  0  0  0  0
    3.0223   -2.9998    0.0000 C   0  0  0  0  0  0  0  0  0  0  0  0
    3.4505   -3.7048    0.0000 N   0  0  0  0  0  0  0  0  0  0  0  0
    3.4303   -2.2827    0.0000 O   0  0  0  0  0  0  0  0  0  0  0  0
   -1.2965    0.2247    0.0000 C   0  0  0  0  0  0  0  0  0  0  0  0
   -0.6291   -0.2602    0.0000 C   0  0  0  0  0  0  0  0  0  0  0  0
   -1.0414    1.0093    0.0000 C   0  0  0  0  0  0  0  0  0  0  0  0
    0.0383    0.2246    0.0000 N   0  0  0  0  0  0  0  0  0  0  0  0
   -0.2164    1.0093    0.0000 C   0  0  0  0  0  0  0  0  0  0  0  0
   -1.4458    1.7286    0.0000 C   0  0  0  0  0  0  0  0  0  0  0  0
   -1.0251    2.4383    0.0000 C   0  0  0  0  0  0  0  0  0  0  0  0
   -0.2002    2.4288    0.0000 C   0  0  0  0  0  0  0  0  0  0  0  0
    0.2040    1.7097    0.0000 C   0  0  0  0  0  0  0  0  0  0  0  0
   -1.4294    3.1574    0.0000 C   0  0  0  0  0  0  0  0  0  0  0  0
   -1.8336    3.8767    0.0000 N   0  0  0  0  0  0  0  0  0  0  0  0
  1  2  2  0
  1  6  1  0
  2  3  1  0
  2 10  1  0
  3  4  2  0
  4  5  1  0
  4  7  1  0
  5  6  2  0
  5  9  1  0
  7  8  2  0
  8  9  1  0
  8 20  1  0
 10 11  1  0
 10 15  1  0
 11 12  1  0
 12 13  1  0
 13 14  1  0
 13 16  1  0
 14 15  1  0
 16 17  1  0
 17 18  1  0
 18 19  1  0
 19 23  1  0
 20 21  1  0
 20 22  2  0
 24 23  2  0
 25 23  1  0
 25 28  2  0
 26 24  1  0
 27 26  1  0
 27 25  1  0
 29 28  1  0
 29 32  1  0
 30 29  2  0
 31 27  2  0
 31 30  1  0
 33 32  3  0
M  END
>  <DRUGBANK_ID>  (1) 
DB06684

>  <COMMON_NAME>  (1) 
Vilazodone

>  <CAS_NUMBER>  (1) 
163521-12-8

>  <UNII>  (1) 
S239O2OOV3

>  <SYNONYMS>  (1) 
Vilazodona; Vilazodone; Vilazodonum

$$$$
