
     RDKit          2D

  3  2  0  0  0  0  0  0  0  0999 V2000
   17.9274  -10.8152    0.0000 C   0  0  0  0  0  0  0  0  0  0  0  0
   17.1024  -10.8152    0.0000 O   0  0  0  0  0  0  0  0  0  0  0  0
   18.7524  -10.8152    0.0000 O   0  0  0  0  0  0  0  0  0  0  0  0
  1  2  2  0
  1  3  2  0
M  END
>  <DRUGBANK_ID>  (1) 
DB09157

>  <COMMON_NAME>  (1) 
Carbon dioxide

>  <CAS_NUMBER>  (1) 
124-38-9

>  <UNII>  (1) 
142M471B3J

>  <SYNONYMS>  (1) 
Carbon dioxide

$$$$
