
     RDKit          2D

 27 31  0  0  1  0  0  0  0  0999 V2000
   -0.8720   -2.6977    0.0000 C   0  0  0  0  0  0  0  0  0  0  0  0
   -0.1613   -2.2788    0.0000 O   0  0  0  0  0  0  0  0  0  0  0  0
   -0.1688   -1.4538    0.0000 C   0  0  0  0  0  0  0  0  0  0  0  0
    0.5419   -1.0349    0.0000 C   0  0  0  0  0  0  0  0  0  0  0  0
    0.5345   -0.2099    0.0000 C   0  0  0  0  0  0  0  0  0  0  0  0
   -0.0280    0.4083    0.0000 C   0  0  0  0  0  0  0  0  0  0  0  0
    0.5691    1.0129    0.0000 C   0  0  0  0  0  0  0  0  0  0  0  0
    0.4777    1.8435    0.0000 C   0  0  0  0  0  0  0  0  0  0  0  0
    1.1999    1.4192    0.0000 N   0  0  0  0  0  0  0  0  0  0  0  0
    1.8961    1.9651    0.0000 C   0  0  0  0  0  0  0  0  0  0  0  0
    2.7346    1.8609    0.0000 C   0  0  0  0  0  0  0  0  0  0  0  0
    3.0970    1.0939    0.0000 C   0  0  0  0  0  0  0  0  0  0  0  0
    2.7926    0.3271    0.0000 C   0  0  0  0  0  0  0  0  0  0  0  0
    3.4277   -0.1994    0.0000 N   0  0  0  0  0  0  0  0  0  0  0  0
    4.1247    0.2420    0.0000 C   0  0  0  0  0  0  0  0  0  0  0  0
    3.9203    1.0413    0.0000 C   0  0  0  0  0  0  0  0  0  0  0  0
    4.5103    1.6180    0.0000 C   0  0  0  0  0  0  0  0  0  0  0  0
    5.3047    1.3954    0.0000 C   0  0  0  0  0  0  0  0  0  0  0  0
    5.5091    0.5961    0.0000 C   0  0  0  0  0  0  0  0  0  0  0  0
    4.9191    0.0194    0.0000 C   0  0  0  0  0  0  0  0  0  0  0  0
    1.9372    0.1895    0.0000 C   0  0  0  0  0  0  0  0  0  0  0  0
    1.4840    0.8778    0.0000 C   0  0  0  0  0  0  0  0  0  0  0  0
    1.1031    0.4383    0.0000 C   0  0  0  0  0  0  0  0  0  0  0  0
    1.8834   -0.6338    0.0000 C   0  0  0  0  0  0  0  0  0  0  0  0
    1.1436   -0.9988    0.0000 O   0  0  0  0  0  0  0  0  0  0  0  0
    2.5695   -1.0919    0.0000 O   0  0  0  0  0  0  0  0  0  0  0  0
    2.5158   -1.9152    0.0000 C   0  0  0  0  0  0  0  0  0  0  0  0
  1  2  1  0
  2  3  1  0
  3  4  1  0
  5  4  1  1
  5  6  1  0
  7  6  1  1
  7  8  1  0
  7 22  1  0
  9  8  1  0
  9 10  1  0
 10 11  1  0
 11 12  1  0
 12 13  2  0
 12 16  1  0
 13 14  1  0
 14 15  1  0
 15 16  2  0
 15 20  1  0
 16 17  1  0
 17 18  2  0
 18 19  1  0
 19 20  2  0
 21 13  1  0
 21 22  1  0
 21 24  1  6
 23 21  1  0
 23  5  1  0
 23  9  1  6
 24 25  2  0
 24 26  1  0
 26 27  1  0
M  END
>  <DRUGBANK_ID>  (1) 
DB15096

>  <COMMON_NAME>  (1) 
18-methoxycoronaridine

>  <CAS_NUMBER>  (1) 
308123-60-6

>  <UNII>  (1) 
KX8NQX91Z8

$$$$
