
     RDKit          2D

 21 22  0  0  0  0  0  0  0  0999 V2000
   -0.9691   -2.5310    0.0000 C   0  0  0  0  0  0  0  0  0  0  0  0
   -0.3741   -2.0568    0.0000 C   0  0  0  0  0  0  0  0  0  0  0  0
   -0.3741   -1.2295    0.0000 C   0  0  0  0  0  0  0  0  0  0  0  0
    0.3183   -0.8065    0.0000 N   0  0  0  0  0  0  0  0  0  0  0  0
    1.0249   -1.2572    0.0000 C   0  0  0  0  0  0  0  0  0  0  0  0
    1.0249   -2.1034    0.0000 C   0  0  0  0  0  0  0  0  0  0  0  0
    1.8059   -0.8343    0.0000 C   0  0  0  0  0  0  0  0  0  0  0  0
   -1.0620   -0.7879    0.0000 C   0  0  0  0  0  0  0  0  0  0  0  0
   -1.8151   -1.2248    0.0000 O   0  0  0  0  0  0  0  0  0  0  0  0
   -1.0620   -0.0302    0.0000 C   0  0  0  0  0  0  0  0  0  0  0  0
   -1.7918    0.3741    0.0000 C   0  0  0  0  0  0  0  0  0  0  0  0
   -1.7918    1.1783    0.0000 C   0  0  0  0  0  0  0  0  0  0  0  0
   -1.0900    1.6338    0.0000 C   0  0  0  0  0  0  0  0  0  0  0  0
   -1.0900    2.5310    0.0000 O   0  0  0  0  0  0  0  0  0  0  0  0
   -0.3741    1.2433    0.0000 C   0  0  0  0  0  0  0  0  0  0  0  0
    0.3369    1.6571    0.0000 N   0  0  0  0  0  0  0  0  0  0  0  0
    1.0482    1.2247    0.0000 C   0  0  0  0  0  0  0  0  0  0  0  0
    1.8151    1.6664    0.0000 O   0  0  0  0  0  0  0  0  0  0  0  0
    1.0482    0.3695    0.0000 C   0  0  0  0  0  0  0  0  0  0  0  0
    0.3369   -0.0302    0.0000 C   0  0  0  0  0  0  0  0  0  0  0  0
   -0.3741    0.3881    0.0000 C   0  0  0  0  0  0  0  0  0  0  0  0
  1  2  1  0
  3  2  1  6
  3  4  1  0
  3  8  1  0
  5  4  1  0
  6  5  1  0
  7  5  1  0
  8  9  1  1
  8 10  1  0
 10 21  2  0
 11 10  1  0
 12 11  2  0
 12 13  1  0
 13 15  2  0
 14 13  1  0
 15 21  1  0
 16 15  1  0
 17 16  1  0
 17 19  1  0
 18 17  2  0
 19 20  2  0
 20 21  1  0
M  END
>  <DRUGBANK_ID>  (1) 
DB01366

>  <COMMON_NAME>  (1) 
Procaterol

>  <CAS_NUMBER>  (1) 
72332-33-3

>  <UNII>  (1) 
X7I3EMM5K0

>  <SYNONYMS>  (1) 
Procaterol; Procaterolo; Procaterolum

$$$$
