HTA
     RDKit          2D

 27 27  0  0  0  0  0  0  0  0999 V2000
    3.2465   -0.6678    0.0000 C   0  0  0  0  0  0  0  0  0  0  0  0
    2.4364   -0.8237    0.0000 C   0  0  0  0  0  0  0  0  0  0  0  0
    1.8963   -0.2001    0.0000 C   0  0  0  0  0  0  0  0  0  0  0  0
    1.0862   -0.3560    0.0000 C   0  0  0  0  0  0  0  0  0  0  0  0
    2.1663    0.5795    0.0000 C   0  0  0  0  0  0  0  0  0  0  0  0
    1.6263    1.2031    0.0000 C   0  0  0  0  0  0  0  0  0  0  0  0
    0.8161    1.0472    0.0000 C   0  0  0  0  0  0  0  0  0  0  0  0
    1.8963    1.9827    0.0000 C   0  0  0  0  0  0  0  0  0  0  0  0
   -0.2641    0.1118    0.0000 C   0  0  0  0  0  0  0  0  0  0  0  0
   -0.5341   -0.6678    0.0000 C   0  0  0  0  0  0  0  0  0  0  0  0
   -0.8041    0.7354    0.0000 C   0  0  0  0  0  0  0  0  0  0  0  0
   -1.6143    0.5795    0.0000 C   0  0  0  0  0  0  0  0  0  0  0  0
   -1.8843   -0.2001    0.0000 C   0  0  0  0  0  0  0  0  0  0  0  0
   -2.1544    1.2031    0.0000 C   0  0  0  0  0  0  0  0  0  0  0  0
   -2.6945   -0.3560    0.0000 C   0  0  0  0  0  0  0  0  0  0  0  0
   -2.9645    1.0472    0.0000 C   0  0  0  0  0  0  0  0  0  0  0  0
   -3.2346    0.2677    0.0000 C   0  0  0  0  0  0  0  0  0  0  0  0
   -0.2641   -2.0710    0.0000 C   0  0  0  0  0  0  0  0  0  0  0  0
   -4.5848    0.7354    0.0000 C   0  0  0  0  0  0  0  0  0  0  0  0
    3.7866   -1.2914    0.0000 N   0  0  0  0  0  0  0  0  0  0  0  0
    0.5461    0.2677    0.0000 N   0  0  0  0  0  0  0  0  0  0  0  0
    0.0060   -1.2914    0.0000 N   0  0  0  0  0  0  0  0  0  0  0  0
    4.5967   -1.1355    0.0000 O   0  0  0  0  0  0  0  0  0  0  0  0
    3.5166    0.1118    0.0000 O   0  0  0  0  0  0  0  0  0  0  0  0
    0.8161   -1.1355    0.0000 O   0  0  0  0  0  0  0  0  0  0  0  0
   -1.3442   -0.8237    0.0000 O   0  0  0  0  0  0  0  0  0  0  0  0
   -4.0447    0.1118    0.0000 O   0  0  0  0  0  0  0  0  0  0  0  0
  1  2  1  0
  1 20  1  0
  1 24  2  0
  3  2  1  6
  3  4  1  0
  3  5  1  0
  4 21  1  0
  4 25  2  0
  5  6  1  0
  6  7  1  0
  6  8  1  0
  9 10  1  0
  9 11  1  6
  9 21  1  0
 10 22  1  0
 10 26  2  0
 11 12  1  0
 12 13  2  0
 12 14  1  0
 13 15  1  0
 14 16  2  0
 15 17  2  0
 16 17  1  0
 17 27  1  0
 18 22  1  0
 19 27  1  0
 20 23  1  0
M  END
>  <DRUGBANK_ID>  (1) 
DB07926

>  <COMMON_NAME>  (1) 
N-[3-(N'-HYDROXYCARBOXAMIDO)-2-(2-METHYLPROPYL)-PROPANOYL]-O-TYROSINE-N-METHYLAMIDE

$$$$
