OX3
     RDKit          2D

 18 19  0  0  0  0  0  0  0  0999 V2000
   -0.8422    4.2032    0.0000 C   0  0  0  0  0  0  0  0  0  0  0  0
   -0.8422    5.0282    0.0000 O   0  0  0  0  0  0  0  0  0  0  0  0
   -1.5567    3.7907    0.0000 C   0  0  0  0  0  0  0  0  0  0  0  0
   -1.5567    2.9657    0.0000 C   0  0  0  0  0  0  0  0  0  0  0  0
   -0.8422    2.5532    0.0000 C   0  0  0  0  0  0  0  0  0  0  0  0
   -0.1277    2.9657    0.0000 C   0  0  0  0  0  0  0  0  0  0  0  0
   -0.1277    3.7907    0.0000 C   0  0  0  0  0  0  0  0  0  0  0  0
   -0.8422    1.7282    0.0000 C   0  0  0  0  0  0  0  0  0  0  0  0
   -1.5567    1.3157    0.0000 N   0  0  0  0  0  0  0  0  0  0  0  0
   -1.5567    0.4907    0.0000 O   0  0  0  0  0  0  0  0  0  0  0  0
   -0.8422    0.0782    0.0000 C   0  0  0  0  0  0  0  0  0  0  0  0
   -0.1277    0.4907    0.0000 O   0  0  0  0  0  0  0  0  0  0  0  0
   -0.8422   -0.7468    0.0000 C   0  0  0  0  0  0  0  0  0  0  0  0
   -0.1277   -1.1593    0.0000 C   0  0  0  0  0  0  0  0  0  0  0  0
   -0.1277   -1.9843    0.0000 C   0  0  0  0  0  0  0  0  0  0  0  0
   -0.8422   -2.3968    0.0000 C   0  0  0  0  0  0  0  0  0  0  0  0
   -1.5567   -1.9843    0.0000 C   0  0  0  0  0  0  0  0  0  0  0  0
   -1.5567   -1.1593    0.0000 C   0  0  0  0  0  0  0  0  0  0  0  0
  1  7  2  0
  1  2  1  0
  1  3  1  0
  3  4  2  0
  4  5  1  0
  5  6  2  0
  5  8  1  0
  6  7  1  0
  8  9  2  0
  9 10  1  0
 10 11  1  0
 11 13  1  0
 11 12  2  0
 13 14  1  0
 13 18  1  0
 14 15  1  0
 15 16  1  0
 16 17  1  0
 17 18  1  0
M  END
>  <DRUGBANK_ID>  (1) 
DB08333

>  <COMMON_NAME>  (1) 
4-HYDROXYBENZALDEHYDE O-(CYCLOHEXYLCARBONYL)OXIME

$$$$
