DFZ
     RDKit          2D

 25 28  0  0  0  0  0  0  0  0999 V2000
    2.6593   -1.5753    0.0000 C   0  0  0  0  0  0  0  0  0  0  0  0
   -0.0392   -1.1628    0.0000 C   0  0  0  0  0  0  0  0  0  0  0  0
   -0.8642   -1.1628    0.0000 C   0  0  0  0  0  0  0  0  0  0  0  0
   -1.2767   -1.8772    0.0000 C   0  0  0  0  0  0  0  0  0  0  0  0
   -2.1017   -1.8772    0.0000 C   0  0  0  0  0  0  0  0  0  0  0  0
   -2.5142   -1.1628    0.0000 C   0  0  0  0  0  0  0  0  0  0  0  0
   -2.1017   -0.4483    0.0000 C   0  0  0  0  0  0  0  0  0  0  0  0
   -1.2767   -0.4483    0.0000 C   0  0  0  0  0  0  0  0  0  0  0  0
   -0.6162    0.4608    0.0000 C   0  0  0  0  0  0  0  0  0  0  0  0
   -0.8711    1.2454    0.0000 C   0  0  0  0  0  0  0  0  0  0  0  0
   -0.3191    1.8585    0.0000 C   0  0  0  0  0  0  0  0  0  0  0  0
    0.4879    1.6870    0.0000 C   0  0  0  0  0  0  0  0  0  0  0  0
    1.9448   -1.9878    0.0000 N   0  0  0  0  0  0  0  0  0  0  0  0
    1.2304   -1.5753    0.0000 C   0  0  0  0  0  0  0  0  0  0  0  0
    1.2304   -0.7503    0.0000 C   0  0  0  0  0  0  0  0  0  0  0  0
    1.9448    0.4872    0.0000 N   0  0  0  0  0  0  0  0  0  0  0  0
    1.9448   -0.3378    0.0000 C   0  0  0  0  0  0  0  0  0  0  0  0
    2.6593   -0.7503    0.0000 N   0  0  0  0  0  0  0  0  0  0  0  0
    0.4458   -1.8302    0.0000 N   0  0  0  0  0  0  0  0  0  0  0  0
    0.7428    0.9024    0.0000 C   0  0  0  0  0  0  0  0  0  0  0  0
    0.4458   -0.4953    0.0000 C   0  0  0  0  0  0  0  0  0  0  0  0
    0.1908    0.2893    0.0000 C   0  0  0  0  0  0  0  0  0  0  0  0
    1.2304    1.7247    0.0000 C   0  0  0  0  0  0  0  0  0  0  0  0
    1.2304    0.8997    0.0000 C   0  0  0  0  0  0  0  0  0  0  0  0
    0.5159    2.1372    0.0000 O   0  0  0  0  0  0  0  0  0  0  0  0
  1 13  2  0
  1 18  1  0
  2  3  1  0
  2 19  1  0
  2 21  2  0
  3  4  2  0
  3  8  1  0
  4  5  1  0
  5  6  2  0
  6  7  1  0
  7  8  2  0
  9 10  2  0
  9 22  1  0
 10 11  1  0
 11 12  2  0
 12 20  1  0
 13 14  1  0
 14 15  2  0
 14 19  1  0
 15 17  1  0
 15 21  1  0
 16 17  1  0
 16 24  1  0
 17 18  2  0
 20 22  2  0
 21 22  1  0
 23 24  1  0
 23 25  1  0
M  END
>  <DRUGBANK_ID>  (1) 
DB07655

>  <COMMON_NAME>  (1) 
3-AMINO-3-BENZYL-[4.3.0]BICYCLO-1,6-DIAZANONAN-2-ONE

$$$$
