
     RDKit          2D

 35 38  0  0  0  0  0  0  0  0999 V2000
    2.7512   -0.0616    0.0000 C   0  0  0  0  0  0  0  0  0  0  0  0
    3.4656   -0.4741    0.0000 C   0  0  0  0  0  0  0  0  0  0  0  0
    3.4656   -1.2991    0.0000 N   0  0  0  0  0  0  0  0  0  0  0  0
    4.1801   -1.7116    0.0000 C   0  0  0  0  0  0  0  0  0  0  0  0
    4.8946   -1.2991    0.0000 O   0  0  0  0  0  0  0  0  0  0  0  0
    4.1801   -2.5366    0.0000 C   0  0  0  0  0  0  0  0  0  0  0  0
    4.8476   -3.0215    0.0000 C   0  0  0  0  0  0  0  0  0  0  0  0
    4.5926   -3.8062    0.0000 C   0  0  0  0  0  0  0  0  0  0  0  0
    3.7676   -3.8062    0.0000 O   0  0  0  0  0  0  0  0  0  0  0  0
    3.5127   -3.0215    0.0000 N   0  0  0  0  0  0  0  0  0  0  0  0
    5.0775   -4.4736    0.0000 C   0  0  0  0  0  0  0  0  0  0  0  0
    5.8980   -4.3874    0.0000 C   0  0  0  0  0  0  0  0  0  0  0  0
    6.3829   -5.0548    0.0000 C   0  0  0  0  0  0  0  0  0  0  0  0
    6.0474   -5.8085    0.0000 C   0  0  0  0  0  0  0  0  0  0  0  0
    5.2269   -5.8947    0.0000 C   0  0  0  0  0  0  0  0  0  0  0  0
    4.7420   -5.2273    0.0000 C   0  0  0  0  0  0  0  0  0  0  0  0
    3.9215   -5.3135    0.0000 O   0  0  0  0  0  0  0  0  0  0  0  0
    6.5323   -6.4759    0.0000 O   0  0  0  0  0  0  0  0  0  0  0  0
    7.2034   -4.9686    0.0000 C   0  0  0  0  0  0  0  0  0  0  0  0
    8.0239   -4.8823    0.0000 C   0  0  0  0  0  0  0  0  0  0  0  0
    7.2897   -5.7890    0.0000 C   0  0  0  0  0  0  0  0  0  0  0  0
    7.1172   -4.1481    0.0000 C   0  0  0  0  0  0  0  0  0  0  0  0
    5.6322   -2.7666    0.0000 C   0  0  0  0  0  0  0  0  0  0  0  0
    5.8037   -1.9596    0.0000 C   0  0  0  0  0  0  0  0  0  0  0  0
    6.5883   -1.7047    0.0000 C   0  0  0  0  0  0  0  0  0  0  0  0
    7.2014   -2.2567    0.0000 C   0  0  0  0  0  0  0  0  0  0  0  0
    7.0299   -3.0637    0.0000 C   0  0  0  0  0  0  0  0  0  0  0  0
    6.2453   -3.3186    0.0000 C   0  0  0  0  0  0  0  0  0  0  0  0
    7.9860   -2.0018    0.0000 C   0  0  0  0  0  0  0  0  0  0  0  0
    8.5991   -2.5538    0.0000 N   0  0  0  0  0  0  0  0  0  0  0  0
    9.3838   -2.2989    0.0000 C   0  0  0  0  0  0  0  0  0  0  0  0
    9.9969   -2.8509    0.0000 C   0  0  0  0  0  0  0  0  0  0  0  0
    9.8253   -3.6579    0.0000 O   0  0  0  0  0  0  0  0  0  0  0  0
    9.0407   -3.9128    0.0000 C   0  0  0  0  0  0  0  0  0  0  0  0
    8.4276   -3.3608    0.0000 C   0  0  0  0  0  0  0  0  0  0  0  0
  1  2  1  0
  2  3  1  0
  3  4  1  0
  4  5  2  0
  4  6  1  0
  6  7  1  0
  6 10  2  0
  7  8  2  0
  7 23  1  0
  8  9  1  0
  8 11  1  0
  9 10  1  0
 11 12  2  0
 11 16  1  0
 12 13  1  0
 13 14  2  0
 13 19  1  0
 14 15  1  0
 14 18  1  0
 15 16  2  0
 16 17  1  0
 19 20  1  0
 19 21  1  0
 19 22  1  0
 23 24  2  0
 23 28  1  0
 24 25  1  0
 25 26  2  0
 26 27  1  0
 26 29  1  0
 27 28  2  0
 29 30  1  0
 30 31  1  0
 30 35  1  0
 31 32  1  0
 32 33  1  0
 33 34  1  0
 34 35  1  0
M  END
>  <DRUGBANK_ID>  (1) 
DB11881

>  <COMMON_NAME>  (1) 
AUY922

>  <CAS_NUMBER>  (1) 
747412-64-2

>  <UNII>  (1) 
G1G66XE93W

$$$$
