ZYS
     RDKit          2D

 19 20  0  0  0  0  0  0  0  0999 V2000
   -1.4657    2.5112    0.0000 C   0  0  0  0  0  0  0  0  0  0  0  0
   -0.7513    2.0987    0.0000 C   0  0  0  0  0  0  0  0  0  0  0  0
   -1.1638    1.3842    0.0000 C   0  0  0  0  0  0  0  0  0  0  0  0
   -0.3388    2.8132    0.0000 C   0  0  0  0  0  0  0  0  0  0  0  0
   -0.0368    1.6862    0.0000 N   0  0  0  0  0  0  0  0  0  0  0  0
   -0.0368    0.8612    0.0000 C   0  0  0  0  0  0  0  0  0  0  0  0
    0.6306    0.3763    0.0000 S   0  0  0  0  0  0  0  0  0  0  0  0
   -0.7042    0.3763    0.0000 N   0  0  0  0  0  0  0  0  0  0  0  0
   -0.4493   -0.4083    0.0000 C   0  0  0  0  0  0  0  0  0  0  0  0
   -0.9342   -1.0758    0.0000 N   0  0  0  0  0  0  0  0  0  0  0  0
    0.3757   -0.4083    0.0000 C   0  0  0  0  0  0  0  0  0  0  0  0
    0.8606   -1.0758    0.0000 C   0  0  0  0  0  0  0  0  0  0  0  0
    1.6811   -0.9895    0.0000 O   0  0  0  0  0  0  0  0  0  0  0  0
    0.5251   -1.8295    0.0000 C   0  0  0  0  0  0  0  0  0  0  0  0
    1.0100   -2.4969    0.0000 C   0  0  0  0  0  0  0  0  0  0  0  0
    0.6744   -3.2506    0.0000 C   0  0  0  0  0  0  0  0  0  0  0  0
   -0.1460   -3.3368    0.0000 C   0  0  0  0  0  0  0  0  0  0  0  0
   -0.6310   -2.6694    0.0000 C   0  0  0  0  0  0  0  0  0  0  0  0
   -0.2954   -1.9157    0.0000 C   0  0  0  0  0  0  0  0  0  0  0  0
  1  2  1  0
  2  3  1  0
  2  4  1  0
  2  5  1  0
  5  6  1  0
  6  7  1  0
  6  8  2  0
  7 11  1  0
  8  9  1  0
  9 10  1  0
  9 11  2  0
 11 12  1  0
 12 13  2  0
 12 14  1  0
 14 15  2  0
 14 19  1  0
 15 16  1  0
 16 17  2  0
 17 18  1  0
 18 19  2  0
M  END
>  <DRUGBANK_ID>  (1) 
DB08778

>  <COMMON_NAME>  (1) 
[4-amino-2-(tert-butylamino)-1,3-thiazol-5-yl](phenyl)methanone

>  <UNII>  (1) 
VVD6G32BMR

$$$$
