
     RDKit          2D

 27 30  0  0  1  0  0  0  0  0999 V2000
    2.6232    0.6018    0.0000 C   0  0  0  0  0  0  0  0  0  0  0  0
    0.1073    0.1997    0.0000 C   0  0  0  0  0  0  0  0  0  0  0  0
    4.2475    0.8922    0.0000 C   0  0  0  0  0  0  0  0  0  0  0  0
    0.0962    2.2244    0.0000 C   0  0  0  0  0  0  0  0  0  0  0  0
    3.4354    0.7470    0.0000 C   0  0  0  0  0  0  0  0  0  0  0  0
   -0.5867    1.7614    0.0000 C   0  0  0  0  0  0  0  0  0  0  0  0
    3.9960    2.2989    0.0000 C   0  0  0  0  0  0  0  0  0  0  0  0
    1.8399    2.6391    0.0000 C   0  0  0  0  0  0  0  0  0  0  0  0
    0.9990    0.3114    0.0000 C   0  0  0  0  0  0  0  0  0  0  0  0
   -1.7013    1.4544    0.0000 C   0  0  0  0  0  0  0  0  0  0  0  0
    4.5278    1.6682    0.0000 C   0  0  0  0  0  0  0  0  0  0  0  0
    1.5596    1.8632    0.0000 C   0  0  0  0  0  0  0  0  0  0  0  0
    0.7475    1.7180    0.0000 C   0  0  0  0  0  0  0  0  0  0  0  0
    3.1838    2.1537    0.0000 C   0  0  0  0  0  0  0  0  0  0  0  0
    2.6520    2.7844    0.0000 C   0  0  0  0  0  0  0  0  0  0  0  0
    1.8111    0.4566    0.0000 C   0  0  0  0  0  0  0  0  0  0  0  0
   -1.1695    0.8237    0.0000 C   0  0  0  0  0  0  0  0  0  0  0  0
    2.0914    1.2325    0.0000 C   0  0  0  0  0  0  0  0  0  0  0  0
    2.9035    1.3777    0.0000 C   0  0  0  0  0  0  0  0  0  0  0  0
    0.4672    0.9421    0.0000 C   0  0  0  0  0  0  0  0  0  0  0  0
   -0.3574    0.9689    0.0000 C   0  0  0  0  0  0  0  0  0  0  0  0
    2.9323    3.5603    0.0000 Cl  0  0  0  0  0  0  0  0  0  0  0  0
   -2.5134    1.3092    0.0000 O   0  0  0  0  0  0  0  0  0  0  0  0
    5.3399    1.8134    0.0000 O   0  0  0  0  0  0  0  0  0  0  0  0
    2.3429   -0.1741    0.0000 O   0  0  0  0  0  0  0  0  0  0  0  0
   -1.4498    0.0477    0.0000 O   0  0  0  0  0  0  0  0  0  0  0  0
   -0.2978    0.1460    0.0000 O   0  0  0  0  0  0  0  0  0  0  0  0
  5  3  2  0
  6  4  1  0
 11  3  1  0
 11  7  1  0
 12  8  1  6
 13  4  1  1
 13 12  1  0
 14  7  2  0
 15  8  2  0
 15 14  1  0
 16  9  1  0
 16 25  1  1
 17 10  1  0
 18 12  1  0
 18 16  1  1
 19  1  1  1
 19  5  1  0
 19 14  1  0
 19 18  1  0
 20  2  1  1
 20  9  1  0
 20 13  1  0
 21  6  1  0
 21 17  1  0
 21 20  1  0
 21 27  1  6
 22 15  1  0
 23 10  1  0
 24 11  2  0
 26 17  2  0
M  END
>  <DRUGBANK_ID>  (1) 
DB13843

>  <COMMON_NAME>  (1) 
Cloprednol

>  <CAS_NUMBER>  (1) 
5251-34-3

>  <UNII>  (1) 
SYP56O3GJG

>  <SYNONYMS>  (1) 
Cloprednol

$$$$
