
     RDKit          2D

  4  3  0  0  0  0  0  0  0  0999 V2000
    0.2062    0.0000    0.0000 C   0  0  0  0  0  0  0  0  0  0  0  0
    0.6187    0.7145    0.0000 O   0  0  0  0  0  0  0  0  0  0  0  0
    0.6187   -0.7145    0.0000 O   0  0  0  0  0  0  0  0  0  0  0  0
   -0.6187    0.0000    0.0000 O   0  0  0  0  0  0  0  0  0  0  0  0
  2  1  2  0
  3  1  1  0
  4  1  1  0
M  CHG  2   3  -1   4  -1
M  END
>  <DRUGBANK_ID>  (1) 
DB14531

>  <COMMON_NAME>  (1) 
Carbonate ion

>  <CAS_NUMBER>  (1) 
3812-32-6

>  <UNII>  (1) 
7UJQ5OPE7D

>  <SYNONYMS>  (1) 
Carbonate

$$$$
