
     RDKit          2D

 13 12  0  0  1  0  0  0  0  0999 V2000
    1.9520    1.9520    0.0000 N   0  0  0  0  0  0  0  0  0  0  0  0
    1.9520    1.1270    0.0000 C   0  0  0  0  0  0  0  0  0  0  0  0
    1.2375    0.7145    0.0000 C   0  0  0  0  0  0  0  0  0  0  0  0
    0.5230    1.1270    0.0000 C   0  0  0  0  0  0  0  0  0  0  0  0
   -0.1914    0.7145    0.0000 C   0  0  0  0  0  0  0  0  0  0  0  0
   -0.9059    1.1270    0.0000 C   0  0  0  0  0  0  0  0  0  0  0  0
   -1.6204    0.7145    0.0000 B   0  0  0  0  0  0  0  0  0  0  0  0
   -2.3349    0.3020    0.0000 O   0  0  0  0  0  0  0  0  0  0  0  0
   -1.2079    0.0000    0.0000 O   0  0  0  0  0  0  0  0  0  0  0  0
   -2.0329    1.4289    0.0000 O   0  0  0  0  0  0  0  0  0  0  0  0
    2.6664    0.7145    0.0000 C   0  0  0  0  0  0  0  0  0  0  0  0
    3.3809    1.1270    0.0000 O   0  0  0  0  0  0  0  0  0  0  0  0
    2.6664   -0.1105    0.0000 O   0  0  0  0  0  0  0  0  0  0  0  0
  2  1  1  6
  2  3  1  0
  2 11  1  0
  3  4  1  0
  4  5  1  0
  5  6  2  0
  6  7  1  0
  7  8  1  0
  7  9  1  0
  7 10  1  0
 11 12  1  0
 11 13  2  0
M  CHG  1   7  -1
M  END
>  <DRUGBANK_ID>  (1) 
DB04585

>  <COMMON_NAME>  (1) 
DEHYDRO-2(S)-AMINO-6-BORONOHEXANOIC ACID

$$$$
