MPE
     RDKit          2D

 18 19  0  0  0  0  0  0  0  0999 V2000
   -0.6787    1.3117    0.0000 O   0  0  0  0  0  0  0  0  0  0  0  0
    0.0358    0.8992    0.0000 C   0  0  0  0  0  0  0  0  0  0  0  0
    0.7503    1.3117    0.0000 O   0  0  0  0  0  0  0  0  0  0  0  0
    0.0358    0.0742    0.0000 C   0  0  0  0  0  0  0  0  0  0  0  0
    0.7503   -0.3383    0.0000 N   0  0  0  0  0  0  0  0  0  0  0  0
    1.4647    0.0742    0.0000 O   0  0  0  0  0  0  0  0  0  0  0  0
    2.1792   -0.3383    0.0000 C   0  0  0  0  0  0  0  0  0  0  0  0
    2.8937    0.0742    0.0000 C   0  0  0  0  0  0  0  0  0  0  0  0
    3.6081   -0.3383    0.0000 S   0  0  0  0  0  0  0  0  0  0  0  0
   -0.6787   -0.3383    0.0000 C   0  0  0  0  0  0  0  0  0  0  0  0
   -0.7649   -1.1588    0.0000 C   0  0  0  0  0  0  0  0  0  0  0  0
   -1.5719   -1.3303    0.0000 N   0  0  0  0  0  0  0  0  0  0  0  0
   -1.9844   -0.6159    0.0000 C   0  0  0  0  0  0  0  0  0  0  0  0
   -2.7914   -0.4443    0.0000 C   0  0  0  0  0  0  0  0  0  0  0  0
   -1.4324   -0.0028    0.0000 C   0  0  0  0  0  0  0  0  0  0  0  0
   -1.6873    0.7818    0.0000 C   0  0  0  0  0  0  0  0  0  0  0  0
   -2.4943    0.9534    0.0000 C   0  0  0  0  0  0  0  0  0  0  0  0
   -3.0463    0.3403    0.0000 C   0  0  0  0  0  0  0  0  0  0  0  0
  1  2  2  0
  2  3  1  0
  2  4  1  0
  4  5  1  6
  4 10  1  0
  5  6  1  0
  6  7  1  0
  7  8  1  0
  8  9  1  0
 10 11  2  0
 10 15  1  0
 11 12  1  0
 12 13  1  0
 13 14  1  0
 13 15  2  0
 14 18  2  0
 15 16  1  0
 16 17  2  0
 17 18  1  0
M  END
>  <DRUGBANK_ID>  (1) 
DB03455

>  <SECONDARY_ACCESSION_NUMBERS>  (1) 
EXPT02219

>  <COMMON_NAME>  (1) 
(1H-indol-3-yl)-(2-mercapto-ethoxyimino)-acetic acid

$$$$
