
     RDKit          2D

 21 24  0  0  0  0  0  0  0  0999 V2000
    2.1319    1.8554    0.0000 O   0  0  0  0  0  0  0  0  0  0  0  0
   -2.8500   -1.8554    0.0000 O   0  0  0  0  0  0  0  0  0  0  0  0
    1.4193   -0.2079    0.0000 C   0  0  0  0  0  0  0  0  0  0  0  0
    1.4193    0.6184    0.0000 C   0  0  0  0  0  0  0  0  0  0  0  0
    0.7068   -0.6183    0.0000 C   0  0  0  0  0  0  0  0  0  0  0  0
   -0.0113   -0.2024    0.0000 C   0  0  0  0  0  0  0  0  0  0  0  0
    0.7068    1.0346    0.0000 C   0  0  0  0  0  0  0  0  0  0  0  0
   -0.0113    0.6184    0.0000 C   0  0  0  0  0  0  0  0  0  0  0  0
    2.1319    1.0346    0.0000 C   0  0  0  0  0  0  0  0  0  0  0  0
    0.7068   -1.4392    0.0000 C   0  0  0  0  0  0  0  0  0  0  0  0
    2.8500   -0.2079    0.0000 C   0  0  0  0  0  0  0  0  0  0  0  0
   -0.7182   -0.6183    0.0000 C   0  0  0  0  0  0  0  0  0  0  0  0
    2.8500    0.6184    0.0000 C   0  0  0  0  0  0  0  0  0  0  0  0
   -0.0057   -1.8496    0.0000 C   0  0  0  0  0  0  0  0  0  0  0  0
    1.4193    1.4392    0.0000 C   0  0  0  0  0  0  0  0  0  0  0  0
   -0.7182   -1.4450    0.0000 C   0  0  0  0  0  0  0  0  0  0  0  0
   -1.4307   -0.2024    0.0000 C   0  0  0  0  0  0  0  0  0  0  0  0
    1.4136   -1.8496    0.0000 C   0  0  0  0  0  0  0  0  0  0  0  0
   -2.1432   -0.6183    0.0000 C   0  0  0  0  0  0  0  0  0  0  0  0
   -1.4307   -1.8496    0.0000 C   0  0  0  0  0  0  0  0  0  0  0  0
   -2.1432   -1.4450    0.0000 C   0  0  0  0  0  0  0  0  0  0  0  0
  2 21  2  0
  3  4  1  0
  3  5  1  0
  3 11  1  1
  4  7  1  0
  4  9  1  0
  4 15  1  1
  5  6  1  0
  5 10  1  6
  6  8  1  1
  6 12  1  0
  7  8  1  0
  9  1  1  1
  9 13  1  0
 10 14  1  0
 10 18  1  6
 11 13  1  0
 12 16  1  0
 12 17  1  6
 14 16  1  0
 16 20  2  0
 17 19  1  0
 19 21  1  0
 20 21  1  0
M  END
>  <DRUGBANK_ID>  (1) 
DB05830

>  <COMMON_NAME>  (1) 
Trestolone

>  <CAS_NUMBER>  (1) 
3764-87-2

>  <UNII>  (1) 
40P3287I94

>  <SYNONYMS>  (1) 
17beta-Hydroxy-7alpha-methylestr-4-en-3-one; 17beta-Hydroxy-7alpha-methylestr-4-enone; 19-Nor-7alpha-methyltestosterone; 19-Nor-methyltestosterone; 7alpha-Methyl-17beta-hydroxy-4-estren-3-one; 7alpha-Methyl-19-nortestosterone; 7alpha-Methyl-3-oxo-4-estren-17beta-ol; 7alpha-Methylnandrolone; 7Î±-methyl-19-nortestosterone; MENT; Trestolona; Trestolone; Trestolonum

$$$$
