
     RDKit          2D

 17 17  0  0  0  0  0  0  0  0999 V2000
    2.0671   -1.8976    0.0000 C   0  0  0  0  0  0  0  0  0  0  0  0
   -1.2423   -0.2385    0.0000 O   0  0  0  0  0  0  0  0  0  0  0  0
   -0.7522    0.2030    0.0000 C   0  0  0  0  0  0  0  0  0  0  0  0
   -0.9244    1.0099    0.0000 O   0  0  0  0  0  0  0  0  0  0  0  0
   -1.7090    1.2648    0.0000 C   0  0  0  0  0  0  0  0  0  0  0  0
   -2.3219    0.7126    0.0000 C   0  0  0  0  0  0  0  0  0  0  0  0
   -1.0831    1.8266    0.0000 C   0  0  0  0  0  0  0  0  0  0  0  0
   -1.8810    2.0717    0.0000 C   0  0  0  0  0  0  0  0  0  0  0  0
    0.0323   -0.0519    0.0000 N   0  0  0  0  0  0  0  0  0  0  0  0
    0.2044   -0.8588    0.0000 C   0  0  0  0  0  0  0  0  0  0  0  0
   -0.4085   -1.4110    0.0000 C   0  0  0  0  0  0  0  0  0  0  0  0
   -1.2310   -1.6303    0.0000 C   0  0  0  0  0  0  0  0  0  0  0  0
    0.1283   -2.0717    0.0000 C   0  0  0  0  0  0  0  0  0  0  0  0
    0.9877   -1.1134    0.0000 C   0  0  0  0  0  0  0  0  0  0  0  0
    1.2425   -1.8976    0.0000 O   0  0  0  0  0  0  0  0  0  0  0  0
    2.3219   -1.1134    0.0000 N   0  0  0  0  0  0  0  0  0  0  0  0
    1.6548   -0.6286    0.0000 N   0  0  0  0  0  0  0  0  0  0  0  0
  1 16  2  0
  1 15  1  0
  3  2  2  0
  3  4  1  0
  3  9  1  0
  5  4  1  0
  5  8  1  0
  5  7  1  0
  5  6  1  0
 10  9  1  1
 11 10  1  0
 11 13  1  0
 11 12  1  0
 14 10  1  0
 14 17  2  0
 14 15  1  0
 17 16  1  0
M  END
>  <DRUGBANK_ID>  (1) 
DB08336

>  <COMMON_NAME>  (1) 
2-Methyl-2-propanyl [(1R)-2-methyl-1-(1,3,4-oxadiazol-2-yl)propyl]carbamate

$$$$
