
     RDKit          2D

 32 31  0  0  1  0  0  0  0  0999 V2000
    7.2336    5.0013    0.0000 C   0  0  0  0  0  0  0  0  0  0  0  0
    7.9480    5.4138    0.0000 C   0  0  0  0  0  0  0  0  0  0  0  0
    8.6625    5.0013    0.0000 C   0  0  0  0  0  0  0  0  0  0  0  0
    9.3770    5.4138    0.0000 C   0  0  0  0  0  0  0  0  0  0  0  0
   10.0914    5.0013    0.0000 C   0  0  0  0  0  0  0  0  0  0  0  0
   10.8059    5.4138    0.0000 C   0  0  0  0  0  0  0  0  0  0  0  0
   11.5204    5.0013    0.0000 C   0  0  0  0  0  0  0  0  0  0  0  0
   12.2349    5.4138    0.0000 C   0  0  0  0  0  0  0  0  0  0  0  0
   12.9493    5.0013    0.0000 C   0  0  0  0  0  0  0  0  0  0  0  0
   13.6638    5.4138    0.0000 C   0  0  0  0  0  0  0  0  0  0  0  0
   14.3783    5.0013    0.0000 C   0  0  0  0  0  0  0  0  0  0  0  0
   15.0927    5.4138    0.0000 C   0  0  0  0  0  0  0  0  0  0  0  0
   15.8072    5.0013    0.0000 C   0  0  0  0  0  0  0  0  0  0  0  0
   16.5217    5.4138    0.0000 C   0  0  0  0  0  0  0  0  0  0  0  0
   17.2362    5.0013    0.0000 C   0  0  0  0  0  0  0  0  0  0  0  0
   25.0953    5.4138    0.0000 C   0  0  0  0  0  0  0  0  0  0  0  0
   19.3796    5.4138    0.0000 C   0  0  0  0  0  0  0  0  0  0  0  0
   23.6664    5.4138    0.0000 C   0  0  0  0  0  0  0  0  0  0  0  0
   20.8085    5.4138    0.0000 C   0  0  0  0  0  0  0  0  0  0  0  0
   24.3809    5.8263    0.0000 C   0  0  0  0  0  0  0  0  0  0  0  0
   20.0940    5.0013    0.0000 C   0  0  0  0  0  0  0  0  0  0  0  0
   17.9506    5.4138    0.0000 C   0  0  0  0  0  0  0  0  0  0  0  0
   25.8098    5.8263    0.0000 O   0  0  0  0  0  0  0  0  0  0  0  0
   24.3809    6.6513    0.0000 O   0  0  0  0  0  0  0  0  0  0  0  0
   20.0940    4.1763    0.0000 O   0  0  0  0  0  0  0  0  0  0  0  0
   17.9506    6.2388    0.0000 O   0  0  0  0  0  0  0  0  0  0  0  0
   22.6499    4.6993    0.0000 O   0  0  0  0  0  0  0  0  0  0  0  0
   21.8249    6.1283    0.0000 O   0  0  0  0  0  0  0  0  0  0  0  0
   18.6651    5.0013    0.0000 O   0  0  0  0  0  0  0  0  0  0  0  0
   22.9519    5.8263    0.0000 O   0  0  0  0  0  0  0  0  0  0  0  0
   21.5230    5.0013    0.0000 O   0  0  0  0  0  0  0  0  0  0  0  0
   22.2374    5.4138    0.0000 P   0  0  0  0  0  0  0  0  0  0  0  0
  2  1  1  0
  3  2  1  0
  4  3  1  0
  5  4  1  0
  6  5  1  0
  7  6  1  0
  8  7  1  0
  9  8  1  0
 10  9  1  0
 11 10  1  0
 12 11  1  0
 13 12  1  0
 14 13  1  0
 15 14  1  0
 20 16  1  0
 20 18  1  0
 20 24  1  1
 21 17  1  0
 21 19  1  0
 21 25  1  1
 22 15  1  0
 23 16  1  0
 26 22  2  0
 29 17  1  0
 29 22  1  0
 30 18  1  0
 31 19  1  0
 32 27  1  0
 32 28  2  0
 32 30  1  0
 32 31  1  0
M  CHG  1  27  -1
M  END
>  <DRUGBANK_ID>  (1) 
DB03438

>  <SECONDARY_ACCESSION_NUMBERS>  (1) 
EXPT02571

>  <COMMON_NAME>  (1) 
Lysophosphatidylglycerol

$$$$
