
     RDKit          2D

 25 24  0  0  1  0  0  0  0  0999 V2000
   -0.1914   -0.7145    0.0000 C   0  0  0  0  0  0  0  0  0  0  0  0
   -3.0493    1.7605    0.0000 C   0  0  0  0  0  0  0  0  0  0  0  0
    0.5230   -1.1270    0.0000 C   0  0  0  0  0  0  0  0  0  0  0  0
    1.2375   -0.7145    0.0000 C   0  0  0  0  0  0  0  0  0  0  0  0
    1.9520   -1.1270    0.0000 C   0  0  0  0  0  0  0  0  0  0  0  0
    2.6664   -0.7145    0.0000 C   0  0  0  0  0  0  0  0  0  0  0  0
    3.3809   -1.1270    0.0000 C   0  0  0  0  0  0  0  0  0  0  0  0
    4.0954   -0.7145    0.0000 C   0  0  0  0  0  0  0  0  0  0  0  0
    4.0954    0.1105    0.0000 C   0  0  0  0  0  0  0  0  0  0  0  0
    4.8099    0.5230    0.0000 C   0  0  0  0  0  0  0  0  0  0  0  0
    4.8099    1.3480    0.0000 C   0  0  0  0  0  0  0  0  0  0  0  0
    4.0954    1.7605    0.0000 C   0  0  0  0  0  0  0  0  0  0  0  0
    4.0954    2.5855    0.0000 C   0  0  0  0  0  0  0  0  0  0  0  0
    3.3809    2.9980    0.0000 C   0  0  0  0  0  0  0  0  0  0  0  0
    2.6664    2.5855    0.0000 C   0  0  0  0  0  0  0  0  0  0  0  0
    2.6664    1.7605    0.0000 C   0  0  0  0  0  0  0  0  0  0  0  0
    1.9520    1.3480    0.0000 C   0  0  0  0  0  0  0  0  0  0  0  0
    1.2375    1.7605    0.0000 C   0  0  0  0  0  0  0  0  0  0  0  0
    0.5230    1.3480    0.0000 C   0  0  0  0  0  0  0  0  0  0  0  0
   -0.1914    1.7605    0.0000 C   0  0  0  0  0  0  0  0  0  0  0  0
   -0.9059    1.3480    0.0000 C   0  0  0  0  0  0  0  0  0  0  0  0
   -1.2079    2.4750    0.0000 F   0  0  0  0  0  0  0  0  0  0  0  0
   -2.0329    1.0461    0.0000 O   0  0  0  0  0  0  0  0  0  0  0  0
   -2.3349    2.1730    0.0000 O   0  0  0  0  0  0  0  0  0  0  0  0
   -1.6204    1.7605    0.0000 P   0  0  0  0  0  0  0  0  0  0  0  0
  3  1  1  0
  4  3  1  0
  5  4  1  0
  6  5  1  0
  7  6  1  0
  8  7  2  0
  9  8  1  0
 10  9  1  0
 11 10  2  0
 12 11  1  0
 13 12  1  0
 14 13  2  0
 15 14  1  0
 16 15  1  0
 17 16  2  0
 18 17  1  0
 19 18  1  0
 20 19  1  0
 21 20  1  0
 24  2  1  0
 25 21  1  0
 25 22  1  1
 25 23  2  0
 25 24  1  0
M  END
>  <DRUGBANK_ID>  (1) 
DB02465

>  <SECONDARY_ACCESSION_NUMBERS>  (1) 
EXPT02119

>  <COMMON_NAME>  (1) 
Methoxy arachidonyl fluorophosphonate

>  <CAS_NUMBER>  (1) 
180509-15-3

>  <SYNONYMS>  (1) 
MAFP; Methoxy arachidonyl fluorophosphonate; Methyl arachidonylfluorophosphonate

$$$$
