
     RDKit          2D

 22 23  0  0  1  0  0  0  0  0999 V2000
    1.3222    5.5902    0.0000 N   0  0  0  0  0  0  0  0  0  0  0  0
    1.3222    4.7652    0.0000 C   0  0  0  0  0  0  0  0  0  0  0  0
    0.6078    4.3527    0.0000 O   0  0  0  0  0  0  0  0  0  0  0  0
    2.0367    4.3527    0.0000 C   0  0  0  0  0  0  0  0  0  0  0  0
    2.7512    4.7652    0.0000 C   0  0  0  0  0  0  0  0  0  0  0  0
    3.4656    4.3527    0.0000 C   0  0  0  0  0  0  0  0  0  0  0  0
    3.4656    3.5277    0.0000 C   0  0  0  0  0  0  0  0  0  0  0  0
    2.7512    3.1152    0.0000 N   0  0  0  0  0  0  0  0  0  0  0  0
    2.0367    3.5277    0.0000 C   0  0  0  0  0  0  0  0  0  0  0  0
    2.7512    2.2902    0.0000 C   0  0  0  0  0  0  0  0  0  0  0  0
    3.4186    1.8053    0.0000 O   0  0  0  0  0  0  0  0  0  0  0  0
    3.1637    1.0206    0.0000 C   0  0  0  0  0  0  0  0  0  0  0  0
    3.6486    0.3532    0.0000 C   0  0  0  0  0  0  0  0  0  0  0  0
    3.3130   -0.4005    0.0000 O   0  0  0  0  0  0  0  0  0  0  0  0
    3.7980   -1.0679    0.0000 P   0  0  0  0  0  0  0  0  0  0  0  0
    4.2829   -1.7354    0.0000 O   0  0  0  0  0  0  0  0  0  0  0  0
    3.1305   -1.5528    0.0000 O   0  0  0  0  0  0  0  0  0  0  0  0
    4.4654   -0.5830    0.0000 O   0  0  0  0  0  0  0  0  0  0  0  0
    2.3387    1.0206    0.0000 C   0  0  0  0  0  0  0  0  0  0  0  0
    1.8538    0.3532    0.0000 O   0  0  0  0  0  0  0  0  0  0  0  0
    2.0837    1.8053    0.0000 C   0  0  0  0  0  0  0  0  0  0  0  0
    1.2991    2.0602    0.0000 O   0  0  0  0  0  0  0  0  0  0  0  0
  1  2  1  0
  2  3  2  0
  2  4  1  0
  4  5  2  0
  4  9  1  0
  5  6  1  0
  6  7  2  0
  7  8  1  0
  8  9  2  0
 10  8  1  6
 10 11  1  0
 10 21  1  0
 11 12  1  0
 12 13  1  1
 12 19  1  0
 13 14  1  0
 14 15  1  0
 15 16  1  0
 15 17  1  0
 15 18  2  0
 19 20  1  6
 19 21  1  0
 21 22  1  1
M  CHG  1   8   1
M  END
>  <DRUGBANK_ID>  (1) 
DB03227

>  <SECONDARY_ACCESSION_NUMBERS>  (1) 
EXPT02366

>  <COMMON_NAME>  (1) 
Nicotinamide Mononucleotide

>  <UNII>  (1) 
2KG6QX4W0V

$$$$
