
     RDKit          2D

 30 33  0  0  1  0  0  0  0  0999 V2000
    0.8838   -2.1500    0.0000 C   0  0  0  0  0  0  0  0  0  0  0  0
    1.1387   -1.3654    0.0000 C   0  0  0  0  0  0  0  0  0  0  0  0
    0.6538   -0.6979    0.0000 O   0  0  0  0  0  0  0  0  0  0  0  0
    1.1387   -0.0305    0.0000 C   0  0  0  0  0  0  0  0  0  0  0  0
    1.9233   -0.2854    0.0000 C   0  0  0  0  0  0  0  0  0  0  0  0
    2.6378    0.1271    0.0000 N   0  0  0  0  0  0  0  0  0  0  0  0
    3.3523   -0.2854    0.0000 C   0  0  0  0  0  0  0  0  0  0  0  0
    4.0668    0.1271    0.0000 N   0  0  0  0  0  0  0  0  0  0  0  0
    3.3523   -1.1104    0.0000 S   0  0  0  0  0  0  0  0  0  0  0  0
    2.6378   -1.5229    0.0000 C   0  0  0  0  0  0  0  0  0  0  0  0
    1.9233   -1.1104    0.0000 C   0  0  0  0  0  0  0  0  0  0  0  0
    1.8371    0.5350    0.0000 C   0  0  0  0  0  0  0  0  0  0  0  0
    1.0834    0.8706    0.0000 C   0  0  0  0  0  0  0  0  0  0  0  0
    0.9972    1.6911    0.0000 C   0  0  0  0  0  0  0  0  0  0  0  0
    0.2435    2.0266    0.0000 N   0  0  0  0  0  0  0  0  0  0  0  0
   -0.4239    1.5417    0.0000 C   0  0  0  0  0  0  0  0  0  0  0  0
   -0.3377    0.7212    0.0000 O   0  0  0  0  0  0  0  0  0  0  0  0
   -1.1776    1.8773    0.0000 C   0  0  0  0  0  0  0  0  0  0  0  0
   -1.8450    1.3923    0.0000 N   0  0  0  0  0  0  0  0  0  0  0  0
   -2.5987    1.7279    0.0000 C   0  0  0  0  0  0  0  0  0  0  0  0
   -2.6849    2.5484    0.0000 C   0  0  0  0  0  0  0  0  0  0  0  0
   -2.0175    3.0333    0.0000 N   0  0  0  0  0  0  0  0  0  0  0  0
   -1.2638    2.6977    0.0000 C   0  0  0  0  0  0  0  0  0  0  0  0
   -3.4386    2.8839    0.0000 C   0  0  0  0  0  0  0  0  0  0  0  0
   -4.1061    2.3990    0.0000 F   0  0  0  0  0  0  0  0  0  0  0  0
   -3.5249    3.7044    0.0000 F   0  0  0  0  0  0  0  0  0  0  0  0
    1.6646    2.1760    0.0000 C   0  0  0  0  0  0  0  0  0  0  0  0
    2.4183    1.8404    0.0000 C   0  0  0  0  0  0  0  0  0  0  0  0
    2.5045    1.0200    0.0000 C   0  0  0  0  0  0  0  0  0  0  0  0
    3.2582    0.6844    0.0000 F   0  0  0  0  0  0  0  0  0  0  0  0
  2  1  1  1
  2  3  1  0
  3  4  1  0
  5  4  1  0
  5  6  1  0
  5 12  1  1
  6  7  2  0
  7  8  1  0
  7  9  1  0
  9 10  1  0
 11 10  1  6
 11  2  1  0
 11  5  1  0
 12 13  2  0
 12 29  1  0
 13 14  1  0
 14 15  1  0
 14 27  2  0
 15 16  1  0
 16 17  2  0
 16 18  1  0
 18 19  2  0
 18 23  1  0
 19 20  1  0
 20 21  2  0
 21 22  1  0
 21 24  1  0
 22 23  2  0
 24 25  1  0
 24 26  1  0
 27 28  1  0
 28 29  2  0
 29 30  1  0
M  END
>  <DRUGBANK_ID>  (1) 
DB15391

>  <COMMON_NAME>  (1) 
Elenbecestat

>  <CAS_NUMBER>  (1) 
1388651-30-6

>  <UNII>  (1) 
RXJ96XL94H

>  <SYNONYMS>  (1) 
Elenbecestat

$$$$
