
     RDKit          2D

  7  6  0  0  0  0  0  0  0  0999 V2000
    0.7189    0.2068    0.0000 C   0  0  0  0  0  0  0  0  0  0  0  0
    0.0051   -0.2068    0.0000 C   0  0  0  0  0  0  0  0  0  0  0  0
   -0.7085    0.2068    0.0000 C   0  0  0  0  0  0  0  0  0  0  0  0
   -1.4325   -0.2068    0.0000 C   0  0  0  0  0  0  0  0  0  0  0  0
    0.7189    1.0343    0.0000 O   0  0  0  0  0  0  0  0  0  0  0  0
    1.4326   -0.2068    0.0000 O   0  0  0  0  0  0  0  0  0  0  0  0
    0.0051   -1.0343    0.0000 N   0  0  0  0  0  0  0  0  0  0  0  0
  2  1  1  0
  3  2  2  0
  4  3  1  0
  5  1  2  0
  6  1  1  0
  7  2  1  0
M  END
>  <DRUGBANK_ID>  (1) 
DB03720

>  <SECONDARY_ACCESSION_NUMBERS>  (1) 
EXPT01127

>  <COMMON_NAME>  (1) 
alpha,beta-Dehydroaminobutyric acid

>  <CAS_NUMBER>  (1) 
71018-10-5

>  <UNII>  (1) 
66QL1S96RM

>  <SYNONYMS>  (1) 
(2Z)-2-aminobut-2-enoic acid; (Z)-2-aminobutenoic acid; (Z)-dehydrobutyrine; (Z)2,3-didehydrobutyrine; 2-Ammoniobut-2-enoate; Anhydrothreonine

$$$$
