CT7
     RDKit          2D

 21 23  0  0  0  0  0  0  0  0999 V2000
    2.9182   -1.9275    0.0000 O   0  0  0  0  0  0  0  0  0  0  0  0
    2.2038   -1.5150    0.0000 S   0  0  0  0  0  0  0  0  0  0  0  0
    2.6163   -0.8006    0.0000 O   0  0  0  0  0  0  0  0  0  0  0  0
    1.4893   -1.1025    0.0000 C   0  0  0  0  0  0  0  0  0  0  0  0
    0.7748   -1.5150    0.0000 C   0  0  0  0  0  0  0  0  0  0  0  0
    1.4893   -0.2775    0.0000 C   0  0  0  0  0  0  0  0  0  0  0  0
    0.7748    0.1350    0.0000 C   0  0  0  0  0  0  0  0  0  0  0  0
    0.0603   -1.1025    0.0000 C   0  0  0  0  0  0  0  0  0  0  0  0
    0.0603   -0.2775    0.0000 C   0  0  0  0  0  0  0  0  0  0  0  0
   -0.6541    0.1350    0.0000 N   0  0  0  0  0  0  0  0  0  0  0  0
   -0.6541    0.9600    0.0000 C   0  0  0  0  0  0  0  0  0  0  0  0
   -1.3686    1.3725    0.0000 N   0  0  0  0  0  0  0  0  0  0  0  0
   -1.3686    2.1975    0.0000 C   0  0  0  0  0  0  0  0  0  0  0  0
   -0.6541    2.6100    0.0000 N   0  0  0  0  0  0  0  0  0  0  0  0
   -2.6381    1.7850    0.0000 C   0  0  0  0  0  0  0  0  0  0  0  0
   -2.1532    1.1175    0.0000 N   0  0  0  0  0  0  0  0  0  0  0  0
    0.0603    1.3725    0.0000 C   0  0  0  0  0  0  0  0  0  0  0  0
    0.0603    2.1975    0.0000 C   0  0  0  0  0  0  0  0  0  0  0  0
    0.7748    2.6100    0.0000 Cl  0  0  0  0  0  0  0  0  0  0  0  0
   -2.1532    2.4524    0.0000 C   0  0  0  0  0  0  0  0  0  0  0  0
    1.7913   -2.2295    0.0000 C   0  0  0  0  0  0  0  0  0  0  0  0
  1  2  2  0
  2  3  2  0
  2  4  1  0
  2 21  1  0
  4  5  2  0
  4  6  1  0
  5  8  1  0
  6  7  2  0
  7  9  1  0
  8  9  2  0
  9 10  1  0
 10 11  1  0
 11 12  1  0
 11 17  2  0
 12 13  1  0
 12 16  1  0
 13 14  1  0
 13 20  2  0
 14 18  2  0
 15 16  2  0
 15 20  1  0
 17 18  1  0
 18 19  1  0
M  END
>  <DRUGBANK_ID>  (1) 
DB02963

>  <SECONDARY_ACCESSION_NUMBERS>  (1) 
EXPT01045

>  <COMMON_NAME>  (1) 
(5-Chloropyrazolo[1,5-a]Pyrimidin-7-Yl)-(4-Methanesulfonylphenyl)Amine

>  <UNII>  (1) 
XNE9CK2X79

$$$$
