
     RDKit          2D

 30 29  0  0  0  0  0  0  0  0999 V2000
   -0.1914    0.7145    0.0000 C   0  0  0  0  0  0  0  0  0  0  0  0
    0.5230    1.1270    0.0000 N   0  0  0  0  0  0  0  0  0  0  0  0
    0.5230    1.9520    0.0000 C   0  0  0  0  0  0  0  0  0  0  0  0
    1.2375    0.7145    0.0000 C   0  0  0  0  0  0  0  0  0  0  0  0
    1.9520    1.1270    0.0000 C   0  0  0  0  0  0  0  0  0  0  0  0
    2.6664    0.7145    0.0000 C   0  0  0  0  0  0  0  0  0  0  0  0
    3.3809    1.1270    0.0000 C   0  0  0  0  0  0  0  0  0  0  0  0
    3.3809    1.9520    0.0000 C   0  0  0  0  0  0  0  0  0  0  0  0
    4.0954    0.7145    0.0000 C   0  0  0  0  0  0  0  0  0  0  0  0
    4.8099    1.1270    0.0000 C   0  0  0  0  0  0  0  0  0  0  0  0
    5.5243    0.7145    0.0000 C   0  0  0  0  0  0  0  0  0  0  0  0
    6.2388    1.1270    0.0000 C   0  0  0  0  0  0  0  0  0  0  0  0
    6.2388    1.9520    0.0000 C   0  0  0  0  0  0  0  0  0  0  0  0
    6.9533    0.7145    0.0000 C   0  0  0  0  0  0  0  0  0  0  0  0
    7.6677    1.1270    0.0000 C   0  0  0  0  0  0  0  0  0  0  0  0
    8.3822    0.7145    0.0000 C   0  0  0  0  0  0  0  0  0  0  0  0
    9.0967    1.1270    0.0000 C   0  0  0  0  0  0  0  0  0  0  0  0
    9.8112    0.7145    0.0000 C   0  0  0  0  0  0  0  0  0  0  0  0
    9.8112   -0.1105    0.0000 C   0  0  0  0  0  0  0  0  0  0  0  0
   10.5256    1.1270    0.0000 C   0  0  0  0  0  0  0  0  0  0  0  0
   11.2401    0.7145    0.0000 C   0  0  0  0  0  0  0  0  0  0  0  0
   11.9546    1.1270    0.0000 C   0  0  0  0  0  0  0  0  0  0  0  0
   12.6690    0.7145    0.0000 C   0  0  0  0  0  0  0  0  0  0  0  0
   12.6690   -0.1105    0.0000 C   0  0  0  0  0  0  0  0  0  0  0  0
   13.3835    1.1270    0.0000 C   0  0  0  0  0  0  0  0  0  0  0  0
   13.3835    1.9520    0.0000 C   0  0  0  0  0  0  0  0  0  0  0  0
   14.0980    2.3645    0.0000 C   0  0  0  0  0  0  0  0  0  0  0  0
   14.0980    3.1895    0.0000 C   0  0  0  0  0  0  0  0  0  0  0  0
   13.3835    3.6020    0.0000 C   0  0  0  0  0  0  0  0  0  0  0  0
   14.8124    3.6020    0.0000 C   0  0  0  0  0  0  0  0  0  0  0  0
  1  2  1  0
  2  3  1  0
  2  4  1  0
  4  5  1  0
  5  6  1  0
  6  7  1  0
  7  8  1  0
  7  9  2  0
  9 10  1  0
 10 11  1  0
 11 12  1  0
 12 13  1  0
 12 14  2  0
 14 15  1  0
 15 16  1  0
 16 17  1  0
 17 18  2  0
 18 19  1  0
 18 20  1  0
 20 21  1  0
 21 22  1  0
 22 23  2  0
 23 24  1  0
 23 25  1  0
 25 26  1  0
 26 27  1  0
 27 28  2  3
 28 29  1  0
 28 30  1  0
M  END
>  <DRUGBANK_ID>  (1) 
DB03874

>  <SECONDARY_ACCESSION_NUMBERS>  (1) 
EXPT02951

>  <COMMON_NAME>  (1) 
(4e,8e,12z,16z)-N,N,4,8,13,17,21-Heptamethyldocosa-4,8,12,16,20-Pentaen-1-Amine

$$$$
