BPR
     RDKit          2D

 15 16  0  0  0  0  0  0  0  0999 V2000
   -0.7311    0.9235    0.0000 N   0  0  0  0  0  0  0  0  0  0  0  0
   -0.9861    0.1389    0.0000 C   0  0  0  0  0  0  0  0  0  0  0  0
   -0.5011   -0.5285    0.0000 C   0  0  0  0  0  0  0  0  0  0  0  0
   -0.8367   -1.2822    0.0000 O   0  0  0  0  0  0  0  0  0  0  0  0
   -1.8111    0.1389    0.0000 C   0  0  0  0  0  0  0  0  0  0  0  0
   -2.0660    0.9235    0.0000 C   0  0  0  0  0  0  0  0  0  0  0  0
   -1.3986    1.4085    0.0000 C   0  0  0  0  0  0  0  0  0  0  0  0
    1.3129   -2.4144    0.0000 O   0  0  0  0  0  0  0  0  0  0  0  0
    0.3193   -0.4423    0.0000 N   0  0  0  0  0  0  0  0  0  0  0  0
    0.7318    0.2722    0.0000 C   0  0  0  0  0  0  0  0  0  0  0  0
    0.8714   -1.0554    0.0000 C   0  0  0  0  0  0  0  0  0  0  0  0
    1.6250   -0.7198    0.0000 C   0  0  0  0  0  0  0  0  0  0  0  0
    1.5388    0.1007    0.0000 C   0  0  0  0  0  0  0  0  0  0  0  0
   -0.0848   -2.1173    0.0000 O   0  0  0  0  0  0  0  0  0  0  0  0
    0.6998   -1.8624    0.0000 B   0  0  0  0  0  0  0  0  0  0  0  0
  1  2  1  0
  1  7  1  0
  2  3  1  6
  2  5  1  0
  3  4  2  0
  3  9  1  0
  5  6  1  0
  6  7  1  0
  8 15  1  0
  9 10  1  0
  9 11  1  0
 10 13  1  0
 11 12  1  0
 11 15  1  1
 12 13  1  0
 14 15  1  0
M  END
>  <DRUGBANK_ID>  (1) 
DB07482

>  <COMMON_NAME>  (1) 
(2R)-N-[(2R)-2-(DIHYDROXYBORYL)-1-L-PROLYLPYRROLIDIN-2-YL]-N-[(5R)-5-(DIHYDROXYBORYL)-1-L-PROLYLPYRROLIDIN-2-YL]-L-PROLINAMIDE

$$$$
