M25
     RDKit          2D

 16 16  0  0  0  0  0  0  0  0999 V2000
   -1.3253   -1.4585    0.0000 C   0  0  0  0  0  0  0  0  0  0  0  0
   -0.6108   -1.8710    0.0000 C   0  0  0  0  0  0  0  0  0  0  0  0
    0.1037   -1.4585    0.0000 C   0  0  0  0  0  0  0  0  0  0  0  0
    0.1037   -0.6335    0.0000 C   0  0  0  0  0  0  0  0  0  0  0  0
   -0.6108   -0.2210    0.0000 C   0  0  0  0  0  0  0  0  0  0  0  0
   -1.3253   -0.6335    0.0000 C   0  0  0  0  0  0  0  0  0  0  0  0
   -2.0398   -1.8710    0.0000 S   0  0  0  0  0  0  0  0  0  0  0  0
   -2.7542   -2.2835    0.0000 O   0  0  0  0  0  0  0  0  0  0  0  0
   -1.6273   -2.5855    0.0000 O   0  0  0  0  0  0  0  0  0  0  0  0
   -2.4523   -1.1566    0.0000 N   0  0  0  0  0  0  0  0  0  0  0  0
    0.8181   -0.2210    0.0000 C   0  0  0  0  0  0  0  0  0  0  0  0
    1.5326   -0.6335    0.0000 C   0  0  0  0  0  0  0  0  0  0  0  0
    2.2471   -0.2210    0.0000 N   0  0  0  0  0  0  0  0  0  0  0  0
    2.9615   -0.6335    0.0000 C   0  0  0  0  0  0  0  0  0  0  0  0
    3.6760   -0.2210    0.0000 C   0  0  0  0  0  0  0  0  0  0  0  0
    2.9615   -1.4585    0.0000 O   0  0  0  0  0  0  0  0  0  0  0  0
  1  7  1  0
  1  6  2  0
  1  2  1  0
  2  3  2  0
  3  4  1  0
  4  5  2  0
  4 11  1  0
  5  6  1  0
  7  8  2  0
  7  9  2  0
  7 10  1  0
 11 12  1  0
 12 13  1  0
 13 14  1  0
 14 16  2  0
 14 15  1  0
M  END
>  <DRUGBANK_ID>  (1) 
DB08155

>  <COMMON_NAME>  (1) 
N-{2-[4-(AMINOSULFONYL)PHENYL]ETHYL}ACETAMIDE

>  <UNII>  (1) 
SL3TT94T4C

$$$$
