
     RDKit          2D

  5  4  0  0  0  0  0  0  0  0999 V2000
    0.8250    0.0000    0.0000 C   0  0  0  0  0  0  0  0  0  0  0  0
    0.0000    0.0000    0.0000 C   0  0  0  0  0  0  0  0  0  0  0  0
    1.2375    0.7145    0.0000 Cl  0  0  0  0  0  0  0  0  0  0  0  0
   -0.4125   -0.7145    0.0000 Cl  0  0  0  0  0  0  0  0  0  0  0  0
   -0.4125    0.7145    0.0000 Cl  0  0  0  0  0  0  0  0  0  0  0  0
  2  1  2  3
  3  1  1  0
  4  2  1  0
  5  2  1  0
M  END
>  <DRUGBANK_ID>  (1) 
DB13323

>  <COMMON_NAME>  (1) 
Trichloroethylene

>  <CAS_NUMBER>  (1) 
79-01-6

>  <UNII>  (1) 
290YE8AR51

>  <SYNONYMS>  (1) 
1,1-dichloro-2-chloroethylene; acetylene trichloride; ethinyl trichloride; ethylene trichloride; Narcogen; TCE; trichlor; Trichloräthen; Trichloräthylen; trichloréthylène; Trichloroethene; Trichloroethylene; trichloroéthylène; trichloroethylenum; triciene

$$$$
