22530
     RDKit          2D

 21 24  0  0  1  0  0  0  0  0999 V2000
    3.7934   -0.0575    0.0000 N   0  0  0  0  0  0  0  0  0  0  0  0
    5.6129   -1.8022    0.0000 N   0  0  0  0  0  0  0  0  0  0  0  0
    4.4608   -0.5424    0.0000 C   0  0  0  0  0  0  0  0  0  0  0  0
    4.2059   -1.3270    0.0000 C   0  0  0  0  0  0  0  0  0  0  0  0
    5.2985   -0.3507    0.0000 C   0  0  0  0  0  0  0  0  0  0  0  0
    4.7709   -1.9744    0.0000 C   0  0  0  0  0  0  0  0  0  0  0  0
    5.8784   -0.9849    0.0000 C   0  0  0  0  0  0  0  0  0  0  0  0
    3.3809   -1.3270    0.0000 C   0  0  0  0  0  0  0  0  0  0  0  0
    3.1260   -0.5424    0.0000 C   0  0  0  0  0  0  0  0  0  0  0  0
    3.7934    0.7674    0.0000 C   0  0  0  0  0  0  0  0  0  0  0  0
    2.8158   -1.9744    0.0000 C   0  0  0  0  0  0  0  0  0  0  0  0
    2.2882   -0.3507    0.0000 C   0  0  0  0  0  0  0  0  0  0  0  0
    6.1625   -2.4174    0.0000 C   0  0  0  0  0  0  0  0  0  0  0  0
    3.0789    1.1799    0.0000 C   0  0  0  0  0  0  0  0  0  0  0  0
    1.9738   -1.8022    0.0000 C   0  0  0  0  0  0  0  0  0  0  0  0
    1.7083   -0.9849    0.0000 C   0  0  0  0  0  0  0  0  0  0  0  0
    3.0789    2.0049    0.0000 C   0  0  0  0  0  0  0  0  0  0  0  0
    2.3644    0.7674    0.0000 C   0  0  0  0  0  0  0  0  0  0  0  0
    2.3644    2.4174    0.0000 C   0  0  0  0  0  0  0  0  0  0  0  0
    1.6500    1.1799    0.0000 C   0  0  0  0  0  0  0  0  0  0  0  0
    1.6500    2.0049    0.0000 C   0  0  0  0  0  0  0  0  0  0  0  0
  1  3  1  0
  1  9  1  0
  1 10  1  0
  2  6  1  0
  2  7  1  0
  2 13  1  0
  3  4  2  0
  3  5  1  0
  4  6  1  0
  4  8  1  0
  5  7  1  0
  8  9  2  0
  8 11  1  0
  9 12  1  0
 10 14  1  0
 11 15  2  0
 12 16  2  0
 14 17  2  0
 14 18  1  0
 15 16  1  0
 17 19  1  0
 18 20  2  0
 19 21  2  0
 20 21  1  0
M  END
>  <DRUGBANK_ID>  (1) 
DB13808

>  <COMMON_NAME>  (1) 
Mebhydrolin

>  <CAS_NUMBER>  (1) 
524-81-2

>  <UNII>  (1) 
9SUK9B7XVY

>  <SYNONYMS>  (1) 
Mebhydrolin

$$$$
