
     RDKit          2D

 10  9  0  0  1  0  0  0  0  0999 V2000
    1.9224    1.0164    0.0000 C   0  0  0  0  0  0  0  0  0  0  0  0
   -0.2211    1.4289    0.0000 C   0  0  0  0  0  0  0  0  0  0  0  0
    1.2079    1.4289    0.0000 C   0  0  0  0  0  0  0  0  0  0  0  0
   -0.9355    1.0164    0.0000 C   0  0  0  0  0  0  0  0  0  0  0  0
   -1.6500    1.4289    0.0000 C   0  0  0  0  0  0  0  0  0  0  0  0
   -0.9355    0.1914    0.0000 N   0  0  0  0  0  0  0  0  0  0  0  0
    1.2079    2.2539    0.0000 O   0  0  0  0  0  0  0  0  0  0  0  0
   -2.3645    1.0164    0.0000 O   0  0  0  0  0  0  0  0  0  0  0  0
   -1.6500    2.2539    0.0000 O   0  0  0  0  0  0  0  0  0  0  0  0
    0.4934    1.0164    0.0000 S   0  0  0  0  0  0  0  0  0  0  0  0
  3  1  1  0
  4  2  1  0
  4  6  1  6
  5  4  1  0
  7  3  2  0
  8  5  2  0
  9  5  1  0
 10  2  1  0
 10  3  1  0
M  END
>  <DRUGBANK_ID>  (1) 
DB02039

>  <SECONDARY_ACCESSION_NUMBERS>  (1) 
EXPT02873

>  <COMMON_NAME>  (1) 
S-Acetyl-Cysteine

>  <UNII>  (1) 
SSR768695G

$$$$
