
     RDKit          2D

 14 15  0  0  0  0  0  0  0  0999 V2000
   -0.5537    0.2539    0.0000 C   0  0  0  0  0  0  0  0  0  0  0  0
   -1.0565   -0.4006    0.0000 C   0  0  0  0  0  0  0  0  0  0  0  0
    0.2683    0.2670    0.0000 C   0  0  0  0  0  0  0  0  0  0  0  0
   -1.0198    0.9478    0.0000 C   0  0  0  0  0  0  0  0  0  0  0  0
   -1.8367   -0.1151    0.0000 C   0  0  0  0  0  0  0  0  0  0  0  0
   -0.8574   -1.1965    0.0000 C   0  0  0  0  0  0  0  0  0  0  0  0
    0.7998   -0.3612    0.0000 C   0  0  0  0  0  0  0  0  0  0  0  0
   -1.8158    0.7095    0.0000 C   0  0  0  0  0  0  0  0  0  0  0  0
   -0.7344    1.7202    0.0000 C   0  0  0  0  0  0  0  0  0  0  0  0
   -0.1086   -1.5447    0.0000 C   0  0  0  0  0  0  0  0  0  0  0  0
   -1.4937   -1.7202    0.0000 C   0  0  0  0  0  0  0  0  0  0  0  0
    0.6323   -1.1756    0.0000 C   0  0  0  0  0  0  0  0  0  0  0  0
    1.6010   -0.1728    0.0000 C   0  0  0  0  0  0  0  0  0  0  0  0
    1.8367    0.6178    0.0000 C   0  0  0  0  0  0  0  0  0  0  0  0
  1  2  1  0
  1  3  2  0
  1  4  1  0
  2  5  2  0
  2  6  1  0
  3  7  1  0
  4  8  2  0
  4  9  1  0
  5  8  1  0
  6 10  2  0
  6 11  1  0
  7 12  2  0
  7 13  1  0
 10 12  1  0
 13 14  1  0
M  END
>  <DRUGBANK_ID>  (1) 
DB15931

>  <COMMON_NAME>  (1) 
Chamazulene

>  <CAS_NUMBER>  (1) 
529-05-5

>  <UNII>  (1) 
Z439UH6E5F

>  <SYNONYMS>  (1) 
Camazulene; Chamazulen; Dimethulene

$$$$
