
     RDKit          2D

 12 12  0  0  0  0  0  0  0  0999 V2000
   -0.7128   -0.0024    0.0000 N   0  0  0  0  0  0  0  0  0  0  0  0
    0.0010    0.4108    0.0000 C   0  0  0  0  0  0  0  0  0  0  0  0
    0.7148   -0.0024    0.0000 N   0  0  0  0  0  0  0  0  0  0  0  0
    1.4288    0.4108    0.0000 C   0  0  0  0  0  0  0  0  0  0  0  0
    2.1427   -0.0024    0.0000 N   0  0  0  0  0  0  0  0  0  0  0  0
   -1.4276    0.4114    0.0000 C   0  0  0  0  0  0  0  0  0  0  0  0
   -2.1394    0.0015    0.0000 C   0  0  0  0  0  0  0  0  0  0  0  0
   -2.1427   -0.8236    0.0000 O   0  0  0  0  0  0  0  0  0  0  0  0
   -1.4279   -1.2375    0.0000 C   0  0  0  0  0  0  0  0  0  0  0  0
   -0.7098   -0.8259    0.0000 C   0  0  0  0  0  0  0  0  0  0  0  0
   -0.0032    1.2375    0.0000 N   0  0  0  0  0  0  0  0  0  0  0  0
    1.4288    1.2375    0.0000 N   0  0  0  0  0  0  0  0  0  0  0  0
  1  2  1  0
  1 10  1  0
  1  6  1  0
  2 11  2  0
  2  3  1  0
  3  4  1  0
  4  5  1  0
  4 12  2  0
  6  7  1  0
  7  8  1  0
  8  9  1  0
  9 10  1  0
M  END
>  <DRUGBANK_ID>  (1) 
DB13597

>  <COMMON_NAME>  (1) 
Moroxydine

>  <CAS_NUMBER>  (1) 
3731-59-7

>  <UNII>  (1) 
O611591WAH

>  <SYNONYMS>  (1) 
Moroxidina; Moroxydine; Moroxydinum

$$$$
