
     RDKit          2D

 18 19  0  0  0  0  0  0  0  0999 V2000
    0.5742   -1.3826    0.0000 O   0  0  0  0  0  0  0  0  0  0  0  0
   -1.5452   -1.1276    0.0000 O   0  0  0  0  0  0  0  0  0  0  0  0
   -0.9906   -2.8346    0.0000 O   0  0  0  0  0  0  0  0  0  0  0  0
    1.6246   -2.7484    0.0000 O   0  0  0  0  0  0  0  0  0  0  0  0
    1.3357   -0.0726    0.0000 O   0  0  0  0  0  0  0  0  0  0  0  0
   -0.8076    2.8148    0.0000 O   0  0  0  0  0  0  0  0  0  0  0  0
   -0.0932   -0.0726    0.0000 N   0  0  0  0  0  0  0  0  0  0  0  0
    0.6212    1.1648    0.0000 N   0  0  0  0  0  0  0  0  0  0  0  0
   -0.0932    2.4023    0.0000 N   0  0  0  0  0  0  0  0  0  0  0  0
   -0.7606   -1.3826    0.0000 C   0  0  0  0  0  0  0  0  0  0  0  0
   -0.5057   -2.1672    0.0000 C   0  0  0  0  0  0  0  0  0  0  0  0
   -0.0932   -0.8976    0.0000 C   0  0  0  0  0  0  0  0  0  0  0  0
    0.3192   -2.1672    0.0000 C   0  0  0  0  0  0  0  0  0  0  0  0
    0.8042   -2.8346    0.0000 C   0  0  0  0  0  0  0  0  0  0  0  0
   -0.8076    0.3398    0.0000 C   0  0  0  0  0  0  0  0  0  0  0  0
    0.6212    0.3398    0.0000 C   0  0  0  0  0  0  0  0  0  0  0  0
   -0.8076    1.1648    0.0000 C   0  0  0  0  0  0  0  0  0  0  0  0
   -0.0932    1.5773    0.0000 C   0  0  0  0  0  0  0  0  0  0  0  0
  1 12  1  0
  1 13  1  0
  4 14  1  0
  5 16  2  0
  6  9  1  0
  7 15  1  0
  7 16  1  0
  8 16  1  0
  8 18  2  0
  9 18  1  0
 10  2  1  1
 10 11  1  0
 10 12  1  0
 11  3  1  1
 11 13  1  0
 12  7  1  6
 13 14  1  6
 15 17  2  0
 17 18  1  0
M  END
>  <DRUGBANK_ID>  (1) 
DB15660

>  <COMMON_NAME>  (1) 
N4-Hydroxycytidine

>  <CAS_NUMBER>  (1) 
3258-02-4

>  <UNII>  (1) 
C3D11PV2O4

>  <SYNONYMS>  (1) 
4-N-Hydroxycytidine; beta-D-N-4-Hydroxycytidine; Beta-D-N4-hydroxycytidine; N(4)-Hydroxycytidine; NHC; Uridine, 4-oxime; Î²-D-N4-hydroxycytidine

$$$$
