F1I
     RDKit          2D

 24 25  0  0  0  0  0  0  0  0999 V2000
    3.3027   -2.2526    0.0000 C   0  0  0  0  0  0  0  0  0  0  0  0
    1.1593    1.4599    0.0000 C   0  0  0  0  0  0  0  0  0  0  0  0
    2.5883   -1.8401    0.0000 O   0  0  0  0  0  0  0  0  0  0  0  0
    1.8738    0.2224    0.0000 C   0  0  0  0  0  0  0  0  0  0  0  0
    2.5883    0.6349    0.0000 C   0  0  0  0  0  0  0  0  0  0  0  0
    2.5883   -1.0151    0.0000 C   0  0  0  0  0  0  0  0  0  0  0  0
    1.8738   -0.6026    0.0000 C   0  0  0  0  0  0  0  0  0  0  0  0
   -0.2696   -1.0151    0.0000 C   0  0  0  0  0  0  0  0  0  0  0  0
   -0.9841   -0.6026    0.0000 C   0  0  0  0  0  0  0  0  0  0  0  0
    1.1593   -1.0151    0.0000 C   0  0  0  0  0  0  0  0  0  0  0  0
    0.4449    0.2224    0.0000 C   0  0  0  0  0  0  0  0  0  0  0  0
   -0.2696    0.6349    0.0000 C   0  0  0  0  0  0  0  0  0  0  0  0
   -4.5564    0.6349    0.0000 C   0  0  0  0  0  0  0  0  0  0  0  0
   -3.1275    0.6349    0.0000 C   0  0  0  0  0  0  0  0  0  0  0  0
   -3.8420    0.2224    0.0000 C   0  0  0  0  0  0  0  0  0  0  0  0
   -2.4130    0.2224    0.0000 C   0  0  0  0  0  0  0  0  0  0  0  0
   -0.9841    0.2224    0.0000 C   0  0  0  0  0  0  0  0  0  0  0  0
   -2.4130   -0.6026    0.0000 O   0  0  0  0  0  0  0  0  0  0  0  0
   -5.2709    0.2224    0.0000 S   0  0  0  0  0  0  0  0  0  0  0  0
   -1.6986    0.6349    0.0000 N   0  0  0  0  0  0  0  0  0  0  0  0
    0.4449   -0.6026    0.0000 N   0  0  0  0  0  0  0  0  0  0  0  0
    1.1593    0.6349    0.0000 O   0  0  0  0  0  0  0  0  0  0  0  0
    3.3027    0.2224    0.0000 C   0  0  0  0  0  0  0  0  0  0  0  0
    3.3027   -0.6026    0.0000 C   0  0  0  0  0  0  0  0  0  0  0  0
  1  3  1  0
  2 22  1  0
  3  6  1  0
  4  5  2  0
  4  7  1  0
  4 22  1  0
  5 23  1  0
  6  7  2  0
  6 24  1  0
  7 10  1  0
  8  9  1  0
  8 21  1  0
  9 17  1  0
 10 21  1  0
 11 12  1  0
 11 21  1  0
 12 17  1  0
 13 15  1  0
 13 19  1  0
 14 15  1  0
 14 16  1  0
 16 18  2  0
 16 20  1  0
 17 20  1  0
 23 24  2  0
M  END
>  <DRUGBANK_ID>  (1) 
DB07735

>  <COMMON_NAME>  (1) 
N-[1-(2,6-dimethoxybenzyl)piperidin-4-yl]-4-sulfanylbutanamide

$$$$
