
     RDKit          2D

 19 20  0  0  0  0  0  0  0  0999 V2000
    4.0477   -3.4024    0.0000 C   0  0  0  0  0  0  0  0  0  0  0  0
    3.7927   -4.1871    0.0000 C   0  0  0  0  0  0  0  0  0  0  0  0
    2.9677   -4.1871    0.0000 C   0  0  0  0  0  0  0  0  0  0  0  0
    2.7128   -3.4024    0.0000 O   0  0  0  0  0  0  0  0  0  0  0  0
    3.3802   -2.9175    0.0000 C   0  0  0  0  0  0  0  0  0  0  0  0
    3.3802   -2.0925    0.0000 C   0  0  0  0  0  0  0  0  0  0  0  0
    2.6658   -1.6800    0.0000 C   0  0  0  0  0  0  0  0  0  0  0  0
    2.6658   -0.8550    0.0000 C   0  0  0  0  0  0  0  0  0  0  0  0
    1.9513   -0.4425    0.0000 N   0  0  0  0  0  0  0  0  0  0  0  0
    1.9513    0.3825    0.0000 N   0  0  0  0  0  0  0  0  0  0  0  0
    1.2839    0.8674    0.0000 C   0  0  0  0  0  0  0  0  0  0  0  0
    1.5388    1.6520    0.0000 C   0  0  0  0  0  0  0  0  0  0  0  0
    1.0539    2.3195    0.0000 O   0  0  0  0  0  0  0  0  0  0  0  0
    2.3638    1.6520    0.0000 N   0  0  0  0  0  0  0  0  0  0  0  0
    2.6187    0.8674    0.0000 C   0  0  0  0  0  0  0  0  0  0  0  0
    3.4034    0.6125    0.0000 O   0  0  0  0  0  0  0  0  0  0  0  0
    2.4828   -4.8545    0.0000 N   0  0  0  0  0  0  0  0  0  0  0  0
    2.8184   -5.6082    0.0000 O   0  0  0  0  0  0  0  0  0  0  0  0
    1.6623   -4.7683    0.0000 O   0  0  0  0  0  0  0  0  0  0  0  0
  1  2  1  0
  1  5  2  0
  2  3  2  0
  3  4  1  0
  3 17  1  0
  4  5  1  0
  5  6  1  0
  6  7  2  0
  7  8  1  0
  8  9  2  0
  9 10  1  0
 10 11  1  0
 10 15  1  0
 11 12  1  0
 12 13  2  0
 12 14  1  0
 14 15  1  0
 15 16  2  0
 17 18  2  0
 17 19  1  0
M  CHG  2  17   1  19  -1
M  END
>  <DRUGBANK_ID>  (1) 
DB13475

>  <COMMON_NAME>  (1) 
Furazidin

>  <CAS_NUMBER>  (1) 
1672-88-4

>  <UNII>  (1) 
K2R4N34Y9I

>  <SYNONYMS>  (1) 
Furazidine

$$$$
