
     RDKit          2D

  9  9  0  0  0  0  0  0  0  0999 V2000
   -0.3572   -0.4125    0.0000 C   0  0  0  0  0  0  0  0  0  0  0  0
   -1.0717   -0.8250    0.0000 C   0  0  0  0  0  0  0  0  0  0  0  0
   -0.3572    0.4125    0.0000 C   0  0  0  0  0  0  0  0  0  0  0  0
   -1.7861   -0.4125    0.0000 C   0  0  0  0  0  0  0  0  0  0  0  0
   -1.0717    0.8250    0.0000 C   0  0  0  0  0  0  0  0  0  0  0  0
   -1.7861    0.4125    0.0000 C   0  0  0  0  0  0  0  0  0  0  0  0
    0.3572    0.8250    0.0000 N   0  0  0  0  0  0  0  0  0  0  0  0
    1.0716    0.4125    0.0000 C   0  0  0  0  0  0  0  0  0  0  0  0
    1.0716   -0.4125    0.0000 O   0  0  0  0  0  0  0  0  0  0  0  0
  2  1  1  0
  3  1  1  0
  4  2  1  0
  5  3  1  0
  6  4  1  0
  6  5  1  0
  7  3  1  0
  8  7  1  0
  8  9  2  0
M  END
>  <DRUGBANK_ID>  (1) 
DB03559

>  <SECONDARY_ACCESSION_NUMBERS>  (1) 
EXPT01065

>  <COMMON_NAME>  (1) 
Cyclohexylformamide

>  <CAS_NUMBER>  (1) 
766-93-8

>  <UNII>  (1) 
X2CFE4SDT6

>  <SYNONYMS>  (1) 
Formamidocyclohexane; N-cyclohexylformamide; N-formylcyclohexylamine

$$$$
