A42
     RDKit          2D

 23 24  0  0  0  0  0  0  0  0999 V2000
    1.8493    2.7955    0.0000 C   0  0  0  0  0  0  0  0  0  0  0  0
    1.1348    2.3830    0.0000 N   0  0  0  0  0  0  0  0  0  0  0  0
    1.1348    1.5580    0.0000 C   0  0  0  0  0  0  0  0  0  0  0  0
    1.8493    1.1455    0.0000 C   0  0  0  0  0  0  0  0  0  0  0  0
    2.5637    1.5580    0.0000 N   0  0  0  0  0  0  0  0  0  0  0  0
    2.5637    2.3830    0.0000 C   0  0  0  0  0  0  0  0  0  0  0  0
    1.8493    3.6205    0.0000 C   0  0  0  0  0  0  0  0  0  0  0  0
    1.8493    4.4455    0.0000 N   0  0  0  0  0  0  0  0  0  0  0  0
    1.8493    0.3205    0.0000 N   0  0  0  0  0  0  0  0  0  0  0  0
    1.1348   -0.0920    0.0000 C   0  0  0  0  0  0  0  0  0  0  0  0
    0.4203    0.3205    0.0000 O   0  0  0  0  0  0  0  0  0  0  0  0
    1.1348   -0.9170    0.0000 N   0  0  0  0  0  0  0  0  0  0  0  0
    0.4203   -1.3295    0.0000 C   0  0  0  0  0  0  0  0  0  0  0  0
    0.4203   -2.1545    0.0000 C   0  0  0  0  0  0  0  0  0  0  0  0
   -0.2941   -2.5670    0.0000 C   0  0  0  0  0  0  0  0  0  0  0  0
   -1.0086   -2.1545    0.0000 C   0  0  0  0  0  0  0  0  0  0  0  0
   -1.0086   -1.3295    0.0000 C   0  0  0  0  0  0  0  0  0  0  0  0
   -0.2941   -0.9170    0.0000 C   0  0  0  0  0  0  0  0  0  0  0  0
   -0.2941   -0.0920    0.0000 O   0  0  0  0  0  0  0  0  0  0  0  0
   -1.0086    0.3205    0.0000 C   0  0  0  0  0  0  0  0  0  0  0  0
   -1.7231   -2.5670    0.0000 O   0  0  0  0  0  0  0  0  0  0  0  0
   -1.7231   -3.3920    0.0000 C   0  0  0  0  0  0  0  0  0  0  0  0
   -0.2941   -3.3920    0.0000 Cl  0  0  0  0  0  0  0  0  0  0  0  0
  1  6  2  0
  1  2  1  0
  1  7  1  0
  2  3  2  0
  3  4  1  0
  4  9  1  0
  4  5  2  0
  5  6  1  0
  7  8  3  0
  9 10  1  0
 10 11  2  0
 10 12  1  0
 12 13  1  0
 13 14  2  0
 13 18  1  0
 14 15  1  0
 15 23  1  0
 15 16  2  0
 16 21  1  0
 16 17  1  0
 17 18  2  0
 18 19  1  0
 19 20  1  0
 21 22  1  0
M  END
>  <DRUGBANK_ID>  (1) 
DB07314

>  <COMMON_NAME>  (1) 
1-(5-CHLORO-2,4-DIMETHOXYPHENYL)-3-(5-CYANOPYRAZIN-2-YL)UREA

$$$$
