SBN
     RDKit          2D

 20 21  0  0  0  0  0  0  0  0999 V2000
   -0.0765    2.5350    0.0000 C   0  0  0  0  0  0  0  0  0  0  0  0
    0.6380    2.1225    0.0000 C   0  0  0  0  0  0  0  0  0  0  0  0
    0.6380    1.2975    0.0000 C   0  0  0  0  0  0  0  0  0  0  0  0
   -0.0765    0.8850    0.0000 C   0  0  0  0  0  0  0  0  0  0  0  0
   -0.7910    1.2975    0.0000 C   0  0  0  0  0  0  0  0  0  0  0  0
   -0.7910    2.1225    0.0000 C   0  0  0  0  0  0  0  0  0  0  0  0
   -0.0765    0.0600    0.0000 S   0  0  0  0  0  0  0  0  0  0  0  0
   -0.9015    0.0600    0.0000 O   0  0  0  0  0  0  0  0  0  0  0  0
    0.7485    0.0600    0.0000 O   0  0  0  0  0  0  0  0  0  0  0  0
   -0.0765   -0.7650    0.0000 C   0  0  0  0  0  0  0  0  0  0  0  0
    0.6380   -1.1775    0.0000 C   0  0  0  0  0  0  0  0  0  0  0  0
    0.6380   -2.0025    0.0000 C   0  0  0  0  0  0  0  0  0  0  0  0
   -0.0765   -2.4150    0.0000 C   0  0  0  0  0  0  0  0  0  0  0  0
   -0.7910   -2.0025    0.0000 C   0  0  0  0  0  0  0  0  0  0  0  0
   -0.7910   -1.1775    0.0000 C   0  0  0  0  0  0  0  0  0  0  0  0
    2.0669    0.4725    0.0000 N   0  0  0  0  0  0  0  0  0  0  0  0
    1.3524    0.8850    0.0000 C   0  0  0  0  0  0  0  0  0  0  0  0
    1.3524    2.5350    0.0000 N   0  0  0  0  0  0  0  0  0  0  0  0
    1.3524   -2.4150    0.0000 C   0  0  0  0  0  0  0  0  0  0  0  0
   -1.5055   -2.4150    0.0000 C   0  0  0  0  0  0  0  0  0  0  0  0
  1  2  2  0
  1  6  1  0
  2  3  1  0
  2 18  1  0
  3  4  2  0
  3 17  1  0
  4  5  1  0
  4  7  1  0
  5  6  2  0
  7  8  2  0
  7  9  2  0
  7 10  1  0
 10 11  2  0
 10 15  1  0
 11 12  1  0
 12 13  2  0
 12 19  1  0
 13 14  1  0
 14 15  2  0
 14 20  1  0
 16 17  3  0
M  END
>  <DRUGBANK_ID>  (1) 
DB08528

>  <COMMON_NAME>  (1) 
2-AMINO-6-(3,5-DIMETHYLPHENYL)SULFONYLBENZONITRILE

$$$$
