4IG
     RDKit          2D

 34 37  0  0  0  0  0  0  0  0999 V2000
   -2.8039   -0.6439    0.0000 C   0  0  0  0  0  0  0  0  0  0  0  0
   -3.5183   -0.2314    0.0000 N   0  0  0  0  0  0  0  0  0  0  0  0
   -3.5183    0.5936    0.0000 C   0  0  0  0  0  0  0  0  0  0  0  0
   -2.8039    1.0061    0.0000 N   0  0  0  0  0  0  0  0  0  0  0  0
   -2.0894    0.5936    0.0000 C   0  0  0  0  0  0  0  0  0  0  0  0
   -2.0894   -0.2314    0.0000 C   0  0  0  0  0  0  0  0  0  0  0  0
   -2.8039   -1.4689    0.0000 N   0  0  0  0  0  0  0  0  0  0  0  0
   -4.2328    1.0061    0.0000 N   0  0  0  0  0  0  0  0  0  0  0  0
   -1.3749    1.0061    0.0000 C   0  0  0  0  0  0  0  0  0  0  0  0
   -0.6605    0.5936    0.0000 C   0  0  0  0  0  0  0  0  0  0  0  0
   -1.3749   -1.4689    0.0000 C   0  0  0  0  0  0  0  0  0  0  0  0
   -0.6605   -1.8814    0.0000 C   0  0  0  0  0  0  0  0  0  0  0  0
    0.0540   -1.4689    0.0000 C   0  0  0  0  0  0  0  0  0  0  0  0
    0.0540   -0.6439    0.0000 C   0  0  0  0  0  0  0  0  0  0  0  0
   -0.6605   -0.2314    0.0000 C   0  0  0  0  0  0  0  0  0  0  0  0
   -1.3749   -0.6439    0.0000 C   0  0  0  0  0  0  0  0  0  0  0  0
    0.7685   -1.8814    0.0000 O   0  0  0  0  0  0  0  0  0  0  0  0
    1.4830   -1.4689    0.0000 C   0  0  0  0  0  0  0  0  0  0  0  0
    1.4830   -0.6439    0.0000 C   0  0  0  0  0  0  0  0  0  0  0  0
    0.7685   -0.2314    0.0000 N   0  0  0  0  0  0  0  0  0  0  0  0
    0.7685    0.5936    0.0000 C   0  0  0  0  0  0  0  0  0  0  0  0
    0.0540    1.0061    0.0000 C   0  0  0  0  0  0  0  0  0  0  0  0
    0.0540    1.8311    0.0000 C   0  0  0  0  0  0  0  0  0  0  0  0
   -0.6605    2.2436    0.0000 O   0  0  0  0  0  0  0  0  0  0  0  0
   -0.6605    3.0686    0.0000 C   0  0  0  0  0  0  0  0  0  0  0  0
    2.1974   -0.2314    0.0000 O   0  0  0  0  0  0  0  0  0  0  0  0
    2.9119   -3.1189    0.0000 C   0  0  0  0  0  0  0  0  0  0  0  0
    2.1974   -2.7064    0.0000 C   0  0  0  0  0  0  0  0  0  0  0  0
    2.1974   -1.8814    0.0000 C   0  0  0  0  0  0  0  0  0  0  0  0
    2.9119   -1.4689    0.0000 C   0  0  0  0  0  0  0  0  0  0  0  0
    3.6264   -1.8814    0.0000 C   0  0  0  0  0  0  0  0  0  0  0  0
    3.6264   -2.7064    0.0000 C   0  0  0  0  0  0  0  0  0  0  0  0
    2.9119   -3.9439    0.0000 F   0  0  0  0  0  0  0  0  0  0  0  0
    4.3408   -1.4689    0.0000 F   0  0  0  0  0  0  0  0  0  0  0  0
  1  2  2  0
  1  6  1  0
  1  7  1  0
  2  3  1  0
  3  4  2  0
  3  8  1  0
  4  5  1  0
  5  6  2  0
  5  9  1  0
  6 16  1  0
  9 10  1  0
 11 12  2  0
 11 16  1  0
 12 13  1  0
 13 14  2  0
 13 17  1  0
 14 15  1  0
 14 20  1  0
 15 16  2  0
 17 18  1  0
 18 19  1  0
 18 29  1  6
 19 20  1  0
 19 26  2  0
 20 21  1  0
 21 22  1  0
 22 23  1  0
 23 24  1  0
 24 25  1  0
 27 28  2  0
 27 32  1  0
 27 33  1  0
 28 29  1  0
 29 30  2  0
 30 31  1  0
 31 32  2  0
 31 34  1  0
M  END
>  <DRUGBANK_ID>  (1) 
DB07113

>  <COMMON_NAME>  (1) 
(2S)-6-(2,4-DIAMINO-6-ETHYLPYRIMIDIN-5-YL)-2-(3,5-DIFLUOROPHENYL)-4-(3-METHOXYPROPYL)-2H-1,4-BENZOXAZIN-3(4H)-ONE

$$$$
