SXH
     RDKit          2D

 29 28  0  0  0  0  0  0  0  0999 V2000
   -6.3387    0.5077    0.0000 O   0  0  0  0  0  0  0  0  0  0  0  0
   -5.5993    0.1417    0.0000 P   0  0  0  0  0  0  0  0  0  0  0  0
   -5.2334    0.8812    0.0000 O   0  0  0  0  0  0  0  0  0  0  0  0
   -5.9652   -0.5977    0.0000 O   0  0  0  0  0  0  0  0  0  0  0  0
   -4.8599   -0.2242    0.0000 O   0  0  0  0  0  0  0  0  0  0  0  0
   -4.1733    0.2332    0.0000 C   0  0  0  0  0  0  0  0  0  0  0  0
   -3.4339   -0.1327    0.0000 C   0  0  0  0  0  0  0  0  0  0  0  0
   -3.7998   -0.8721    0.0000 C   0  0  0  0  0  0  0  0  0  0  0  0
   -3.0680    0.6067    0.0000 C   0  0  0  0  0  0  0  0  0  0  0  0
   -2.6945   -0.4986    0.0000 C   0  0  0  0  0  0  0  0  0  0  0  0
   -2.6417   -1.3219    0.0000 O   0  0  0  0  0  0  0  0  0  0  0  0
   -2.0079   -0.0412    0.0000 C   0  0  0  0  0  0  0  0  0  0  0  0
   -2.0607    0.7821    0.0000 O   0  0  0  0  0  0  0  0  0  0  0  0
   -1.2685   -0.4071    0.0000 N   0  0  0  0  0  0  0  0  0  0  0  0
   -0.5819    0.0503    0.0000 C   0  0  0  0  0  0  0  0  0  0  0  0
    0.1575   -0.3157    0.0000 C   0  0  0  0  0  0  0  0  0  0  0  0
    0.8441    0.1417    0.0000 C   0  0  0  0  0  0  0  0  0  0  0  0
    0.7913    0.9650    0.0000 O   0  0  0  0  0  0  0  0  0  0  0  0
    1.5836   -0.2242    0.0000 N   0  0  0  0  0  0  0  0  0  0  0  0
    2.2701    0.2332    0.0000 C   0  0  0  0  0  0  0  0  0  0  0  0
    3.0096   -0.1327    0.0000 C   0  0  0  0  0  0  0  0  0  0  0  0
    3.6962    0.3247    0.0000 S   0  0  0  0  0  0  0  0  0  0  0  0
    4.4356   -0.0412    0.0000 C   0  0  0  0  0  0  0  0  0  0  0  0
    4.4884   -0.8645    0.0000 O   0  0  0  0  0  0  0  0  0  0  0  0
    5.1222    0.4162    0.0000 C   0  0  0  0  0  0  0  0  0  0  0  0
    5.8616    0.0503    0.0000 C   0  0  0  0  0  0  0  0  0  0  0  0
    6.5482    0.5077    0.0000 C   0  0  0  0  0  0  0  0  0  0  0  0
    7.2876    0.1417    0.0000 C   0  0  0  0  0  0  0  0  0  0  0  0
    7.9742    0.5991    0.0000 C   0  0  0  0  0  0  0  0  0  0  0  0
  2  1  1  0
  2  5  1  0
  2  4  1  0
  3  2  2  0
  5  6  1  0
  6  7  1  0
  7  8  1  0
  9  7  1  0
 10  7  1  0
 10 12  1  0
 10 11  1  1
 12 14  1  0
 13 12  2  0
 14 15  1  0
 15 16  1  0
 16 17  1  0
 17 18  2  0
 19 17  1  0
 19 20  1  0
 21 20  1  0
 22 21  1  0
 23 22  1  0
 23 24  2  0
 25 23  1  0
 26 25  1  0
 26 27  1  0
 28 27  1  0
 29 28  1  0
M  END
>  <DRUGBANK_ID>  (1) 
DB08585

>  <COMMON_NAME>  (1) 
S-[2-({N-[(2S)-2-hydroxy-3,3-dimethyl-4-(phosphonooxy)butanoyl]-beta-alanyl}amino)ethyl] hexanethioate

$$$$
