
     RDKit          2D

 15 15  0  0  0  0  0  0  0  0999 V2000
    2.0853   -0.5299    0.0000 C   0  0  0  0  0  0  0  0  0  0  0  0
    1.4532    0.0003    0.0000 C   0  0  0  0  0  0  0  0  0  0  0  0
    2.0366    0.5836    0.0000 C   0  0  0  0  0  0  0  0  0  0  0  0
    2.8335    0.3702    0.0000 O   0  0  0  0  0  0  0  0  0  0  0  0
    0.9801   -0.6755    0.0000 C   0  0  0  0  0  0  0  0  0  0  0  0
    0.7387    0.4126    0.0000 N   0  0  0  0  0  0  0  0  0  0  0  0
    0.0243    0.0001    0.0000 C   0  0  0  0  0  0  0  0  0  0  0  0
   -0.6901    0.4125    0.0000 C   0  0  0  0  0  0  0  0  0  0  0  0
   -0.6902    1.2375    0.0000 O   0  0  0  0  0  0  0  0  0  0  0  0
   -1.4045    0.0000    0.0000 C   0  0  0  0  0  0  0  0  0  0  0  0
   -2.1190    0.4124    0.0000 C   0  0  0  0  0  0  0  0  0  0  0  0
   -2.8335   -0.0001    0.0000 C   0  0  0  0  0  0  0  0  0  0  0  0
   -2.8334   -0.8251    0.0000 C   0  0  0  0  0  0  0  0  0  0  0  0
   -2.1188   -1.2375    0.0000 C   0  0  0  0  0  0  0  0  0  0  0  0
   -1.4045   -0.8250    0.0000 C   0  0  0  0  0  0  0  0  0  0  0  0
  1  2  1  0
  2  5  1  0
  2  3  1  0
  2  6  1  0
  3  4  1  0
  6  7  1  0
  7  8  1  0
  8  9  1  0
  8 10  1  0
 10 11  2  0
 11 12  1  0
 12 13  2  0
 13 14  1  0
 14 15  2  0
 15 10  1  0
M  END
>  <DRUGBANK_ID>  (1) 
DB15902

>  <COMMON_NAME>  (1) 
Fepradinol

>  <CAS_NUMBER>  (1) 
36981-91-6

>  <UNII>  (1) 
860MHI4WBA

>  <SYNONYMS>  (1) 
Fepradinol; Fepradinolum

$$$$
