
     RDKit          2D

 10  9  0  0  1  0  0  0  0  0999 V2000
    4.6184    2.6664    0.0000 N   0  0  0  0  0  0  0  0  0  0  0  0
    4.6184    1.8414    0.0000 C   0  0  0  0  0  0  0  0  0  0  0  0
    3.9039    1.4289    0.0000 C   0  0  0  0  0  0  0  0  0  0  0  0
    3.1895    1.8414    0.0000 C   0  0  0  0  0  0  0  0  0  0  0  0
    2.4750    1.4289    0.0000 C   0  0  0  0  0  0  0  0  0  0  0  0
    1.7605    1.8414    0.0000 C   0  0  0  0  0  0  0  0  0  0  0  0
    1.0461    1.4289    0.0000 O   0  0  0  0  0  0  0  0  0  0  0  0
    5.3329    1.4289    0.0000 C   0  0  0  0  0  0  0  0  0  0  0  0
    6.0474    1.8414    0.0000 O   0  0  0  0  0  0  0  0  0  0  0  0
    5.3329    0.6039    0.0000 O   0  0  0  0  0  0  0  0  0  0  0  0
  2  1  1  6
  2  3  1  0
  2  8  1  0
  3  4  1  0
  4  5  1  0
  5  6  1  0
  6  7  1  0
  8  9  1  0
  8 10  2  0
M  END
>  <DRUGBANK_ID>  (1) 
DB03412

>  <SECONDARY_ACCESSION_NUMBERS>  (1) 
EXPT02015

>  <COMMON_NAME>  (1) 
6-hydroxynorleucine

>  <CAS_NUMBER>  (1) 
6033-32-5

>  <UNII>  (1) 
874D12O72W

>  <SYNONYMS>  (1) 
2-Amino-6-hydroxycaproic acid; 6-hydroxy-L-norleucine; alpha-Amino-epsilon-hydroxycaproic acid

$$$$
