
     RDKit          2D

 14 14  0  0  0  0  0  0  0  0999 V2000
   -2.8576    0.3877    0.0000 O   0  0  0  0  0  0  0  0  0  0  0  0
   -0.0094    1.2456    0.0000 O   0  0  0  0  0  0  0  0  0  0  0  0
    2.8577    0.4536    0.0000 O   0  0  0  0  0  0  0  0  0  0  0  0
    2.1575   -0.7919    0.0000 O   0  0  0  0  0  0  0  0  0  0  0  0
    0.7191    0.0164    0.0000 N   0  0  0  0  0  0  0  0  0  0  0  0
   -0.7094    0.0000    0.0000 C   0  0  0  0  0  0  0  0  0  0  0  0
    0.0000    0.4206    0.0000 C   0  0  0  0  0  0  0  0  0  0  0  0
   -1.4287    0.4042    0.0000 C   0  0  0  0  0  0  0  0  0  0  0  0
   -0.6999   -0.8249    0.0000 C   0  0  0  0  0  0  0  0  0  0  0  0
    1.4288    0.4371    0.0000 C   0  0  0  0  0  0  0  0  0  0  0  0
   -2.1384   -0.0164    0.0000 C   0  0  0  0  0  0  0  0  0  0  0  0
   -1.4097   -1.2456    0.0000 C   0  0  0  0  0  0  0  0  0  0  0  0
   -2.1288   -0.8414    0.0000 C   0  0  0  0  0  0  0  0  0  0  0  0
    2.1480    0.0329    0.0000 C   0  0  0  0  0  0  0  0  0  0  0  0
  1 11  1  0
  2  7  2  0
  3 14  1  0
  4 14  2  0
  5  7  1  0
  5 10  1  0
  6  7  1  0
  6  8  2  0
  6  9  1  0
  8 11  1  0
  9 12  2  0
 10 14  1  0
 11 13  2  0
 12 13  1  0
M  END
>  <DRUGBANK_ID>  (1) 
DB07069

>  <COMMON_NAME>  (1) 
m-Hydroxyhippuric acid

>  <CAS_NUMBER>  (1) 
1637-75-8

>  <UNII>  (1) 
17HCX0HNRT

>  <SYNONYMS>  (1) 
2-[(3-hydroxyphenyl)formamido]acetic acid; 3-hydroxyhippuric acid; N-m-Hydroxylbenzoylglycine

$$$$
