
     RDKit          2D

 24 25  0  0  0  0  0  0  0  0999 V2000
   -3.2411    1.9152    0.0000 C   0  0  0  0  0  0  0  0  0  0  0  0
   -3.9555    1.5027    0.0000 C   0  0  0  0  0  0  0  0  0  0  0  0
   -3.9555    0.6777    0.0000 C   0  0  0  0  0  0  0  0  0  0  0  0
   -3.2411    0.2652    0.0000 C   0  0  0  0  0  0  0  0  0  0  0  0
   -2.5266    0.6777    0.0000 C   0  0  0  0  0  0  0  0  0  0  0  0
   -2.5266    1.5027    0.0000 C   0  0  0  0  0  0  0  0  0  0  0  0
   -1.8121    0.2652    0.0000 C   0  0  0  0  0  0  0  0  0  0  0  0
   -1.0977    0.6777    0.0000 C   0  0  0  0  0  0  0  0  0  0  0  0
   -0.3832    0.2652    0.0000 C   0  0  0  0  0  0  0  0  0  0  0  0
    0.3313    0.6777    0.0000 N   0  0  0  0  0  0  0  0  0  0  0  0
    1.0458    0.2652    0.0000 C   0  0  0  0  0  0  0  0  0  0  0  0
    1.7602    0.6777    0.0000 C   0  0  0  0  0  0  0  0  0  0  0  0
    1.0458   -0.5598    0.0000 C   0  0  0  0  0  0  0  0  0  0  0  0
    0.3313    1.5027    0.0000 C   0  0  0  0  0  0  0  0  0  0  0  0
   -0.3832    1.9152    0.0000 C   0  0  0  0  0  0  0  0  0  0  0  0
    1.0457    1.9152    0.0000 C   0  0  0  0  0  0  0  0  0  0  0  0
   -4.6700    0.2652    0.0000 C   0  0  0  0  0  0  0  0  0  0  0  0
   -1.8121    1.9152    0.0000 O   0  0  0  0  0  0  0  0  0  0  0  0
   -1.8121   -0.5598    0.0000 C   0  0  0  0  0  0  0  0  0  0  0  0
   -2.5266   -0.9723    0.0000 C   0  0  0  0  0  0  0  0  0  0  0  0
   -2.5266   -1.7974    0.0000 C   0  0  0  0  0  0  0  0  0  0  0  0
   -1.8121   -2.2099    0.0000 C   0  0  0  0  0  0  0  0  0  0  0  0
   -1.0977   -1.7974    0.0000 C   0  0  0  0  0  0  0  0  0  0  0  0
   -1.0977   -0.9723    0.0000 C   0  0  0  0  0  0  0  0  0  0  0  0
  1  2  2  0
  1  6  1  0
  2  3  1  0
  3  4  2  0
  3 17  1  0
  4  5  1  0
  5  6  2  0
  5  7  1  0
  6 18  1  0
  7  8  1  6
  7 19  1  0
  8  9  1  0
  9 10  1  0
 10 11  1  0
 10 14  1  0
 11 12  1  0
 11 13  1  0
 14 15  1  0
 14 16  1  0
 19 20  2  0
 19 24  1  0
 20 21  1  0
 21 22  2  0
 22 23  1  0
 23 24  2  0
M  END
>  <DRUGBANK_ID>  (1) 
DB01036

>  <SECONDARY_ACCESSION_NUMBERS>  (1) 
APRD00146

>  <COMMON_NAME>  (1) 
Tolterodine

>  <CAS_NUMBER>  (1) 
124937-51-5

>  <UNII>  (1) 
WHE7A56U7K

>  <SYNONYMS>  (1) 
(+)-(R)-2-(alpha-(2-(Diisopropylamino)ethyl)benzyl)-p-cresol; (+)-Tolterodine; Tolterodina; Tolterodine; Tolterodinum

$$$$
