
     RDKit          2D

 19 13  0  0  0  0  0  0  0  0999 V2000
    2.5864    4.8919    0.0000 Pt  0  0  0  0  0 15  0  0  0  0  0  0
    2.1739    5.6063    0.0000 Cl  0  0  0  0  0  0  0  0  0  0  0  0
    2.9989    4.1774    0.0000 Cl  0  0  0  0  0  0  0  0  0  0  0  0
    3.3009    5.3044    0.0000 O   0  0  0  0  0  0  0  0  0  0  0  0
    1.8720    4.4794    0.0000 O   0  0  0  0  0  0  0  0  0  0  0  0
    4.0154    4.0668    0.0000 O   0  0  0  0  0  0  0  0  0  0  0  0
    1.1575    5.7169    0.0000 O   0  0  0  0  0  0  0  0  0  0  0  0
    8.0411   11.5905    0.0000 N   0  0  0  0  0  0  0  0  0  0  0  0
   11.3524    6.0510    0.0000 N   0  0  0  0  0  0  0  0  0  0  0  0
    8.0411   10.7655    0.0000 C   0  0  0  0  0  0  0  0  0  0  0  0
    8.7557   10.3530    0.0000 C   0  0  0  0  0  0  0  0  0  0  0  0
    7.3267   10.3530    0.0000 C   0  0  0  0  0  0  0  0  0  0  0  0
    8.7557    9.5280    0.0000 C   0  0  0  0  0  0  0  0  0  0  0  0
    7.3267    9.5280    0.0000 C   0  0  0  0  0  0  0  0  0  0  0  0
    8.0411    9.1155    0.0000 C   0  0  0  0  0  0  0  0  0  0  0  0
    4.7299    5.3044    0.0000 C   0  0  0  0  0  0  0  0  0  0  0  0
    0.4430    4.4794    0.0000 C   0  0  0  0  0  0  0  0  0  0  0  0
    4.0154    4.8919    0.0000 C   0  0  0  0  0  0  0  0  0  0  0  0
    1.1575    4.8919    0.0000 C   0  0  0  0  0  0  0  0  0  0  0  0
  4 18  1  0
  5 19  1  0
  6 18  2  0
  7 19  2  0
  8 10  1  0
 10 11  1  0
 10 12  1  0
 11 13  1  0
 12 14  1  0
 13 15  1  0
 14 15  1  0
 16 18  1  0
 17 19  1  0
M  CHG  5   1   4   2  -1   3  -1   4  -1   5  -1
M  END
>  <DRUGBANK_ID>  (1) 
DB04996

>  <COMMON_NAME>  (1) 
Satraplatin

>  <CAS_NUMBER>  (1) 
129580-63-8

>  <UNII>  (1) 
8D7B37T28G

>  <SYNONYMS>  (1) 
Satraplatin

$$$$
