
     RDKit          2D

 37 41  0  0  0  0  0  0  0  0999 V2000
    4.2845    1.3706    0.0000 C   0  0  0  0  0  0  0  0  0  0  0  0
    3.5700    0.9581    0.0000 C   0  0  0  0  0  0  0  0  0  0  0  0
    3.5700    0.1330    0.0000 C   0  0  0  0  0  0  0  0  0  0  0  0
    2.8556   -0.2794    0.0000 C   0  0  0  0  0  0  0  0  0  0  0  0
    2.1411    0.1330    0.0000 C   0  0  0  0  0  0  0  0  0  0  0  0
    2.1411    0.9581    0.0000 C   0  0  0  0  0  0  0  0  0  0  0  0
    2.8556    1.3706    0.0000 C   0  0  0  0  0  0  0  0  0  0  0  0
    4.2845    2.1956    0.0000 O   0  0  0  0  0  0  0  0  0  0  0  0
    4.9990    0.9581    0.0000 O   0  0  0  0  0  0  0  0  0  0  0  0
    4.2845   -0.2794    0.0000 O   0  0  0  0  0  0  0  0  0  0  0  0
    4.2845   -1.1043    0.0000 C   0  0  0  0  0  0  0  0  0  0  0  0
    1.4266   -0.2794    0.0000 N   0  0  0  0  0  0  0  0  0  0  0  0
   -2.1660    1.2889    0.0000 N   0  0  0  0  0  0  0  0  0  0  0  0
   -1.3617    1.4724    0.0000 C   0  0  0  0  0  0  0  0  0  0  0  0
   -0.7167    0.9581    0.0000 C   0  0  0  0  0  0  0  0  0  0  0  0
   -0.7167    0.1330    0.0000 C   0  0  0  0  0  0  0  0  0  0  0  0
   -1.3617   -0.3813    0.0000 C   0  0  0  0  0  0  0  0  0  0  0  0
   -2.1660   -0.1977    0.0000 C   0  0  0  0  0  0  0  0  0  0  0  0
   -2.5240    0.5456    0.0000 C   0  0  0  0  0  0  0  0  0  0  0  0
   -2.7272   -0.8024    0.0000 C   0  0  0  0  0  0  0  0  0  0  0  0
   -2.4840   -1.5908    0.0000 C   0  0  0  0  0  0  0  0  0  0  0  0
   -1.6797   -1.7744    0.0000 C   0  0  0  0  0  0  0  0  0  0  0  0
   -1.1185   -1.1696    0.0000 C   0  0  0  0  0  0  0  0  0  0  0  0
    0.7122    0.1330    0.0000 C   0  0  0  0  0  0  0  0  0  0  0  0
   -0.0022   -0.2794    0.0000 N   0  0  0  0  0  0  0  0  0  0  0  0
   -0.0022    1.3706    0.0000 C   0  0  0  0  0  0  0  0  0  0  0  0
    0.7122    0.9581    0.0000 N   0  0  0  0  0  0  0  0  0  0  0  0
   -3.3490    0.5456    0.0000 C   0  0  0  0  0  0  0  0  0  0  0  0
   -3.7615   -0.1688    0.0000 C   0  0  0  0  0  0  0  0  0  0  0  0
   -4.5865   -0.1688    0.0000 C   0  0  0  0  0  0  0  0  0  0  0  0
   -4.9990    0.5456    0.0000 C   0  0  0  0  0  0  0  0  0  0  0  0
   -4.5865    1.2600    0.0000 C   0  0  0  0  0  0  0  0  0  0  0  0
   -3.7615    1.2600    0.0000 C   0  0  0  0  0  0  0  0  0  0  0  0
   -3.3490    1.9745    0.0000 O   0  0  0  0  0  0  0  0  0  0  0  0
   -2.5240    1.9745    0.0000 C   0  0  0  0  0  0  0  0  0  0  0  0
   -3.3490   -0.8833    0.0000 F   0  0  0  0  0  0  0  0  0  0  0  0
   -3.0451   -2.1956    0.0000 Cl  0  0  0  0  0  0  0  0  0  0  0  0
  1  2  1  0
  1  8  2  0
  1  9  1  0
  2  3  2  0
  2  7  1  0
  3  4  1  0
  3 10  1  0
  4  5  2  0
  5  6  1  0
  5 12  1  0
  6  7  2  0
 10 11  1  0
 12 24  1  0
 13 14  1  0
 13 19  2  0
 14 15  1  0
 15 16  2  0
 15 26  1  0
 16 17  1  0
 16 25  1  0
 17 18  2  0
 17 23  1  0
 18 19  1  0
 18 20  1  0
 19 28  1  0
 20 21  2  0
 21 22  1  0
 21 37  1  0
 22 23  2  0
 24 25  2  0
 24 27  1  0
 26 27  2  0
 28 29  2  0
 28 33  1  0
 29 30  1  0
 29 36  1  0
 30 31  2  0
 31 32  1  0
 32 33  2  0
 33 34  1  0
 34 35  1  0
M  END
>  <DRUGBANK_ID>  (1) 
DB05220

>  <COMMON_NAME>  (1) 
Alisertib

>  <CAS_NUMBER>  (1) 
1028486-01-2

>  <UNII>  (1) 
T66ES73M18

>  <SYNONYMS>  (1) 
Alisertib

$$$$
