
     RDKit          2D

 13 14  0  0  1  0  0  0  0  0999 V2000
   -0.3984    0.7541    0.0000 C   0  0  0  0  0  0  0  0  0  0  0  0
   -0.3984   -2.1500    0.0000 C   0  0  0  0  0  0  0  0  0  0  0  0
   -0.6284   -0.6979    0.0000 C   0  0  0  0  0  0  0  0  0  0  0  0
    0.6411   -0.2854    0.0000 C   0  0  0  0  0  0  0  0  0  0  0  0
    0.6411   -1.1104    0.0000 C   0  0  0  0  0  0  0  0  0  0  0  0
    1.3556    0.1271    0.0000 C   0  0  0  0  0  0  0  0  0  0  0  0
    2.0701   -1.1104    0.0000 C   0  0  0  0  0  0  0  0  0  0  0  0
    2.7845   -1.5229    0.0000 N   0  0  0  0  0  0  0  0  0  0  0  0
    1.3556   -1.5229    0.0000 N   0  0  0  0  0  0  0  0  0  0  0  0
    2.0701   -0.2854    0.0000 N   0  0  0  0  0  0  0  0  0  0  0  0
   -0.1435   -0.0305    0.0000 N   0  0  0  0  0  0  0  0  0  0  0  0
   -0.1435   -1.3654    0.0000 N   0  0  0  0  0  0  0  0  0  0  0  0
    1.3556    0.9521    0.0000 O   0  0  0  0  0  0  0  0  0  0  0  0
  5  4  2  0
  6  4  1  0
  6 13  1  6
  7  8  1  6
  9  5  1  0
  9  7  1  0
 10  6  1  0
 10  7  1  0
 11  1  1  0
 11  3  2  0
 11  4  1  0
 12  2  1  0
 12  3  1  0
 12  5  1  0
M  CHG  1  11   1
M  END
>  <DRUGBANK_ID>  (1) 
DB01978

>  <SECONDARY_ACCESSION_NUMBERS>  (1) 
EXPT02320

>  <COMMON_NAME>  (1) 
7,9-Dimethylguanine

>  <CAS_NUMBER>  (1) 
55235-22-8

$$$$
