
     RDKit          2D

 41 45  0  0  1  0  0  0  0  0999 V2000
    0.4452    4.4144    0.0000 C   0  0  0  0  0  0  0  0  0  0  0  0
   -0.4733    3.8841    0.0000 C   0  0  0  0  0  0  0  0  0  0  0  0
    5.6645    4.3164    0.0000 C   0  0  0  0  0  0  0  0  0  0  0  0
    5.9337    1.3606    0.0000 C   0  0  0  0  0  0  0  0  0  0  0  0
    1.9520    2.1730    0.0000 C   0  0  0  0  0  0  0  0  0  0  0  0
    3.1895    4.3164    0.0000 C   0  0  0  0  0  0  0  0  0  0  0  0
    2.6907    4.4225    0.0000 C   0  0  0  0  0  0  0  0  0  0  0  0
   -2.5855    4.3164    0.0000 C   0  0  0  0  0  0  0  0  0  0  0  0
   -2.1730    3.6020    0.0000 C   0  0  0  0  0  0  0  0  0  0  0  0
    1.5395    4.3164    0.0000 C   0  0  0  0  0  0  0  0  0  0  0  0
    0.3020    2.1730    0.0000 C   0  0  0  0  0  0  0  0  0  0  0  0
    1.1270    2.1730    0.0000 C   0  0  0  0  0  0  0  0  0  0  0  0
    2.3645    4.3164    0.0000 C   0  0  0  0  0  0  0  0  0  0  0  0
    6.0770    3.6020    0.0000 C   0  0  0  0  0  0  0  0  0  0  0  0
    6.4895    2.8875    0.0000 C   0  0  0  0  0  0  0  0  0  0  0  0
    4.8395    4.3164    0.0000 C   0  0  0  0  0  0  0  0  0  0  0  0
    4.0145    4.3164    0.0000 C   0  0  0  0  0  0  0  0  0  0  0  0
    3.6020    2.1730    0.0000 C   0  0  0  0  0  0  0  0  0  0  0  0
    5.2520    2.1730    0.0000 C   0  0  0  0  0  0  0  0  0  0  0  0
    4.0145    2.8875    0.0000 C   0  0  0  0  0  0  0  0  0  0  0  0
    4.8395    2.8875    0.0000 C   0  0  0  0  0  0  0  0  0  0  0  0
    2.7770    2.1730    0.0000 C   0  0  0  0  0  0  0  0  0  0  0  0
    1.1270    3.6020    0.0000 C   0  0  0  0  0  0  0  0  0  0  0  0
   -0.1105    2.8875    0.0000 C   0  0  0  0  0  0  0  0  0  0  0  0
   -3.4105    4.3164    0.0000 C   0  0  0  0  0  0  0  0  0  0  0  0
   -1.3480    3.6020    0.0000 C   0  0  0  0  0  0  0  0  0  0  0  0
    2.3645    2.8875    0.0000 C   0  0  0  0  0  0  0  0  0  0  0  0
    6.8522    1.8909    0.0000 C   0  0  0  0  0  0  0  0  0  0  0  0
    0.3020    3.6020    0.0000 C   0  0  0  0  0  0  0  0  0  0  0  0
    5.2520    3.6020    0.0000 C   0  0  0  0  0  0  0  0  0  0  0  0
    6.0770    2.1730    0.0000 C   0  0  0  0  0  0  0  0  0  0  0  0
    1.5395    2.8875    0.0000 C   0  0  0  0  0  0  0  0  0  0  0  0
    3.6020    3.6020    0.0000 C   0  0  0  0  0  0  0  0  0  0  0  0
    2.7770    3.6020    0.0000 C   0  0  0  0  0  0  0  0  0  0  0  0
    2.3645    1.4586    0.0000 O   0  0  0  0  0  0  0  0  0  0  0  0
   -3.8230    5.0309    0.0000 O   0  0  0  0  0  0  0  0  0  0  0  0
   -3.8230    3.6020    0.0000 O   0  0  0  0  0  0  0  0  0  0  0  0
   -0.9355    4.3164    0.0000 O   0  0  0  0  0  0  0  0  0  0  0  0
    7.4842    2.4212    0.0000 O   0  0  0  0  0  0  0  0  0  0  0  0
    6.9955    1.0784    0.0000 O   0  0  0  0  0  0  0  0  0  0  0  0
   -0.9355    2.8875    0.0000 O   0  0  0  0  0  0  0  0  0  0  0  0
  9  8  1  0
 12 11  1  0
 13 10  1  0
 15 14  1  0
 17 16  1  0
 20 18  2  0
 21 19  1  1
 21 20  1  0
 22 18  1  0
 23 10  1  6
 24 11  1  0
 24 41  1  6
 25  8  1  0
 26  9  1  0
 27 22  1  6
 29  1  1  0
 29  2  1  0
 29 23  1  0
 29 24  1  0
 30  3  1  6
 30 14  1  0
 30 16  1  0
 30 21  1  0
 31  4  1  1
 31 15  1  0
 31 19  1  0
 31 28  1  0
 32  5  1  6
 32 12  1  0
 32 23  1  0
 32 27  1  0
 33  6  1  1
 33 17  1  0
 33 20  1  0
 34  7  1  6
 34 13  1  0
 34 27  1  0
 34 33  1  0
 35 22  2  0
 36 25  2  0
 37 25  1  0
 38 26  2  0
 39 28  2  0
 40 28  1  0
 41 26  1  0
M  END
>  <DRUGBANK_ID>  (1) 
DB02329

>  <SECONDARY_ACCESSION_NUMBERS>  (1) 
EXPT00848

>  <COMMON_NAME>  (1) 
Carbenoxolone

>  <CAS_NUMBER>  (1) 
5697-56-3

>  <UNII>  (1) 
MM6384NG73

>  <SYNONYMS>  (1) 
Carbenoxolona; Carbenoxolone

$$$$
