
     RDKit          2D

 28 30  0  0  0  0  0  0  0  0999 V2000
    2.3115    0.9287    0.0000 N   0  0  0  0  0  0  0  0  0  0  0  0
    1.6493    0.4289    0.0000 C   0  0  0  0  0  0  0  0  0  0  0  0
    3.0155    0.4956    0.0000 C   0  0  0  0  0  0  0  0  0  0  0  0
    2.3282    1.7534    0.0000 N   0  0  0  0  0  0  0  0  0  0  0  0
    0.8496    0.6331    0.0000 C   0  0  0  0  0  0  0  0  0  0  0  0
    2.9904   -0.3414    0.0000 C   0  0  0  0  0  0  0  0  0  0  0  0
    0.2998    0.0166    0.0000 N   0  0  0  0  0  0  0  0  0  0  0  0
   -0.7704    0.9537    0.0000 C   0  0  0  0  0  0  0  0  0  0  0  0
   -0.5123    0.1790    0.0000 C   0  0  0  0  0  0  0  0  0  0  0  0
    1.8034   -0.3956    0.0000 O   0  0  0  0  0  0  0  0  0  0  0  0
    2.2657   -0.7330    0.0000 O   0  0  0  0  0  0  0  0  0  0  0  0
   -1.5826    1.1162    0.0000 O   0  0  0  0  0  0  0  0  0  0  0  0
   -1.0578   -0.4414    0.0000 C   0  0  0  0  0  0  0  0  0  0  0  0
    3.6984   -0.7705    0.0000 O   0  0  0  0  0  0  0  0  0  0  0  0
   -0.2249    1.5785    0.0000 O   0  0  0  0  0  0  0  0  0  0  0  0
    3.7401    0.8912    0.0000 C   0  0  0  0  0  0  0  0  0  0  0  0
   -1.8617   -0.2707    0.0000 C   0  0  0  0  0  0  0  0  0  0  0  0
    1.6910    2.2782    0.0000 C   0  0  0  0  0  0  0  0  0  0  0  0
    3.0529    2.1450    0.0000 C   0  0  0  0  0  0  0  0  0  0  0  0
   -2.4072   -0.8830    0.0000 C   0  0  0  0  0  0  0  0  0  0  0  0
    0.5164    1.3786    0.0000 C   0  0  0  0  0  0  0  0  0  0  0  0
    3.7609    1.7159    0.0000 C   0  0  0  0  0  0  0  0  0  0  0  0
    0.8871    2.1157    0.0000 C   0  0  0  0  0  0  0  0  0  0  0  0
   -3.2194   -0.7206    0.0000 C   0  0  0  0  0  0  0  0  0  0  0  0
   -2.1573   -1.6660    0.0000 C   0  0  0  0  0  0  0  0  0  0  0  0
   -3.7609   -1.3453    0.0000 C   0  0  0  0  0  0  0  0  0  0  0  0
   -2.6947   -2.2782    0.0000 C   0  0  0  0  0  0  0  0  0  0  0  0
   -3.4985   -2.1157    0.0000 C   0  0  0  0  0  0  0  0  0  0  0  0
  2  1  1  0
  3  1  1  0
  3  6  1  1
  4  1  1  0
  5  2  1  0
  5  7  1  1
  9  8  1  0
  9  7  1  0
 10  2  2  0
 11  6  2  0
 12  8  2  0
  9 13  1  1
 14  6  1  0
 15  8  1  0
 16  3  1  0
 16 22  1  0
 17 13  1  0
 18  4  1  0
 19  4  1  0
 20 17  1  0
 21  5  1  0
 22 19  1  0
 23 18  1  0
 23 21  1  0
 24 20  2  0
 25 20  1  0
 26 24  1  0
 26 28  2  0
 27 25  2  0
 28 27  1  0
M  END
>  <DRUGBANK_ID>  (1) 
DB15565

>  <COMMON_NAME>  (1) 
Cilazaprilat

>  <CAS_NUMBER>  (1) 
90139-06-3

>  <UNII>  (1) 
WBL76FH528

>  <SYNONYMS>  (1) 
Cilazaprilat; Cilazaprilate; Cilazaprilatum

$$$$
