
     RDKit          2D

 25 26  0  0  1  0  0  0  0  0999 V2000
   -0.6110   -1.8216    0.0000 C   0  0  0  0  0  0  0  0  0  0  0  0
   -0.6548    1.8053    0.0000 C   0  0  0  0  0  0  0  0  0  0  0  0
   -0.7604   -0.4005    0.0000 C   0  0  0  0  0  0  0  0  0  0  0  0
   -2.7743    2.0602    0.0000 C   0  0  0  0  0  0  0  0  0  0  0  0
   -0.2754   -1.0679    0.0000 C   0  0  0  0  0  0  0  0  0  0  0  0
   -1.3222    2.2902    0.0000 C   0  0  0  0  0  0  0  0  0  0  0  0
   -1.9897    1.8053    0.0000 C   0  0  0  0  0  0  0  0  0  0  0  0
   -0.9097    1.0206    0.0000 C   0  0  0  0  0  0  0  0  0  0  0  0
    0.5450   -0.9817    0.0000 C   0  0  0  0  0  0  0  0  0  0  0  0
    0.3957    0.4394    0.0000 C   0  0  0  0  0  0  0  0  0  0  0  0
    0.8806   -0.2280    0.0000 N   0  0  0  0  0  0  0  0  0  0  0  0
   -0.4248    0.3532    0.0000 N   0  0  0  0  0  0  0  0  0  0  0  0
    1.0300   -1.6491    0.0000 O   0  0  0  0  0  0  0  0  0  0  0  0
    0.7312    1.1931    0.0000 O   0  0  0  0  0  0  0  0  0  0  0  0
   -4.5151    3.3770    0.0000 O   0  0  0  0  0  0  0  0  0  0  0  0
   -3.4755    3.9067    0.0000 O   0  0  0  0  0  0  0  0  0  0  0  0
   -3.9854    2.3375    0.0000 O   0  0  0  0  0  0  0  0  0  0  0  0
   -0.1953    2.8132    0.0000 O   0  0  0  0  0  0  0  0  0  0  0  0
   -1.0203    4.2422    0.0000 O   0  0  0  0  0  0  0  0  0  0  0  0
    0.1067    3.9402    0.0000 O   0  0  0  0  0  0  0  0  0  0  0  0
   -2.9458    2.8672    0.0000 O   0  0  0  0  0  0  0  0  0  0  0  0
   -1.7347    1.0206    0.0000 O   0  0  0  0  0  0  0  0  0  0  0  0
   -1.3222    3.1152    0.0000 O   0  0  0  0  0  0  0  0  0  0  0  0
   -3.7304    3.1221    0.0000 P   0  0  0  0  0  0  0  0  0  0  0  0
   -0.6078    3.5277    0.0000 P   0  0  0  0  0  0  0  0  0  0  0  0
  5  1  1  0
  5  3  2  0
  6  2  1  0
  6 23  1  1
  7  4  1  6
  7  6  1  0
  8  2  1  0
  8 12  1  6
  9  5  1  0
 11  9  1  0
 11 10  1  0
 12  3  1  0
 12 10  1  0
 13  9  2  0
 14 10  2  0
 21  4  1  0
 22  7  1  0
 22  8  1  0
 24 15  1  0
 24 16  1  0
 24 17  2  0
 24 21  1  0
 25 18  1  0
 25 19  1  0
 25 20  2  0
 25 23  1  0
M  END
>  <DRUGBANK_ID>  (1) 
DB04205

>  <SECONDARY_ACCESSION_NUMBERS>  (1) 
EXPT03055

>  <COMMON_NAME>  (1) 
Thymidine-3',5'-Diphosphate

$$$$
