
     RDKit          2D

 18 17  0  0  0  0  0  0  0  0999 V2000
    7.8082    0.2063    0.0000 S   0  0  0  0  0  0  0  0  0  0  0  0
    7.0938   -0.2063    0.0000 S   0  0  0  0  0  0  0  0  0  0  0  0
   10.6658    1.0312    0.0000 O   0  0  0  0  0  0  0  0  0  0  0  0
    4.2361   -1.0312    0.0000 O   0  0  0  0  0  0  0  0  0  0  0  0
    9.9515   -0.2063    0.0000 N   0  0  0  0  0  0  0  0  0  0  0  0
    4.9504    0.2063    0.0000 N   0  0  0  0  0  0  0  0  0  0  0  0
   12.8091   -0.2063    0.0000 N   0  0  0  0  0  0  0  0  0  0  0  0
    2.0928    0.2063    0.0000 N   0  0  0  0  0  0  0  0  0  0  0  0
    9.2371    0.2063    0.0000 C   0  0  0  0  0  0  0  0  0  0  0  0
    5.6650   -0.2063    0.0000 C   0  0  0  0  0  0  0  0  0  0  0  0
   11.3804   -0.2063    0.0000 C   0  0  0  0  0  0  0  0  0  0  0  0
    3.5217    0.2063    0.0000 C   0  0  0  0  0  0  0  0  0  0  0  0
    8.5226   -0.2063    0.0000 C   0  0  0  0  0  0  0  0  0  0  0  0
    6.3793    0.2063    0.0000 C   0  0  0  0  0  0  0  0  0  0  0  0
   10.6658    0.2063    0.0000 C   0  0  0  0  0  0  0  0  0  0  0  0
    4.2361   -0.2063    0.0000 C   0  0  0  0  0  0  0  0  0  0  0  0
   12.0947    0.2063    0.0000 C   0  0  0  0  0  0  0  0  0  0  0  0
    2.8072   -0.2063    0.0000 C   0  0  0  0  0  0  0  0  0  0  0  0
  1  2  1  0
  1 13  1  0
  2 14  1  0
  3 15  2  0
  4 16  2  0
  5  9  1  0
  5 15  1  0
  6 10  1  0
  6 16  1  0
  7 17  1  0
  8 18  1  0
  9 13  1  0
 10 14  1  0
 11 15  1  0
 11 17  1  0
 12 16  1  0
 12 18  1  0
M  END
>  <DRUGBANK_ID>  (1) 
DB05800

>  <COMMON_NAME>  (1) 
Alethine

>  <CAS_NUMBER>  (1) 
646-08-2

>  <UNII>  (1) 
LY583605Y8

>  <SYNONYMS>  (1) 
Beta alethine; Beta-alanyl cysteamine disulfide; Beta-alethine; Betathine

$$$$
