
     RDKit          2D

 24 26  0  0  1  0  0  0  0  0999 V2000
    4.7079   -0.4125    0.0000 C   0  0  0  0  0  0  0  0  0  0  0  0
    1.7798    3.9841    0.0000 C   0  0  0  0  0  0  0  0  0  0  0  0
    3.9934    0.8250    0.0000 C   0  0  0  0  0  0  0  0  0  0  0  0
    1.2949    0.4125    0.0000 C   0  0  0  0  0  0  0  0  0  0  0  0
    1.5249    3.1994    0.0000 C   0  0  0  0  0  0  0  0  0  0  0  0
    2.5645    0.0000    0.0000 C   0  0  0  0  0  0  0  0  0  0  0  0
    0.7403    2.9445    0.0000 C   0  0  0  0  0  0  0  0  0  0  0  0
    0.7403    2.1195    0.0000 C   0  0  0  0  0  0  0  0  0  0  0  0
    3.2789   -0.4125    0.0000 C   0  0  0  0  0  0  0  0  0  0  0  0
    2.5645    0.8250    0.0000 C   0  0  0  0  0  0  0  0  0  0  0  0
    1.5249    1.8646    0.0000 C   0  0  0  0  0  0  0  0  0  0  0  0
    3.2789   -1.2375    0.0000 N   0  0  0  0  0  0  0  0  0  0  0  0
    1.7798   -0.2549    0.0000 N   0  0  0  0  0  0  0  0  0  0  0  0
    3.2789    1.2375    0.0000 N   0  0  0  0  0  0  0  0  0  0  0  0
    3.9934    0.0000    0.0000 N   0  0  0  0  0  0  0  0  0  0  0  0
    1.7798    1.0799    0.0000 N   0  0  0  0  0  0  0  0  0  0  0  0
    0.0728    3.4294    0.0000 O   0  0  0  0  0  0  0  0  0  0  0  0
    0.0728    1.6346    0.0000 O   0  0  0  0  0  0  0  0  0  0  0  0
    3.0967    5.7248    0.0000 O   0  0  0  0  0  0  0  0  0  0  0  0
    3.6264    4.6853    0.0000 O   0  0  0  0  0  0  0  0  0  0  0  0
    2.0571    5.1951    0.0000 O   0  0  0  0  0  0  0  0  0  0  0  0
    2.5868    4.1556    0.0000 O   0  0  0  0  0  0  0  0  0  0  0  0
    2.0098    2.5320    0.0000 O   0  0  0  0  0  0  0  0  0  0  0  0
    2.8417    4.9402    0.0000 P   0  0  0  0  0  0  0  0  0  0  0  0
  5  2  1  1
  7  5  1  0
  7 17  1  6
  8  7  1  0
  8 18  1  6
  9  6  1  0
 10  6  2  0
 11  8  1  0
 11 16  1  1
 12  9  2  0
 13  4  2  0
 13  6  1  0
 14  3  2  0
 14 10  1  0
 15  1  1  0
 15  3  1  0
 15  9  1  0
 16  4  1  0
 16 10  1  0
 22  2  1  0
 23  5  1  0
 23 11  1  0
 24 19  1  0
 24 20  1  0
 24 21  2  0
 24 22  1  0
M  END
>  <DRUGBANK_ID>  (1) 
DB03318

>  <SECONDARY_ACCESSION_NUMBERS>  (1) 
EXPT00075

>  <COMMON_NAME>  (1) 
6-Hydro-1-Methyladenosine-5'-Monophosphate

$$$$
