
     RDKit          2D

 20 21  0  0  0  0  0  0  0  0999 V2000
   -0.0031    0.4243    0.0000 C   0  0  0  0  0  0  0  0  0  0  0  0
   -0.0031   -0.3988    0.0000 C   0  0  0  0  0  0  0  0  0  0  0  0
    0.7142    0.8377    0.0000 O   0  0  0  0  0  0  0  0  0  0  0  0
   -0.7204    0.8377    0.0000 C   0  0  0  0  0  0  0  0  0  0  0  0
   -0.7238   -0.8122    0.0000 C   0  0  0  0  0  0  0  0  0  0  0  0
    0.7108   -0.8122    0.0000 C   0  0  0  0  0  0  0  0  0  0  0  0
    1.4282    0.4243    0.0000 C   0  0  0  0  0  0  0  0  0  0  0  0
   -1.4309    0.4278    0.0000 C   0  0  0  0  0  0  0  0  0  0  0  0
   -0.7238   -1.6388    0.0000 C   0  0  0  0  0  0  0  0  0  0  0  0
    0.7108   -1.6388    0.0000 C   0  0  0  0  0  0  0  0  0  0  0  0
    1.4282   -0.3988    0.0000 C   0  0  0  0  0  0  0  0  0  0  0  0
    2.1421    0.8377    0.0000 C   0  0  0  0  0  0  0  0  0  0  0  0
   -2.1484    0.8411    0.0000 N   0  0  0  0  0  0  0  0  0  0  0  0
   -0.0031   -2.0522    0.0000 C   0  0  0  0  0  0  0  0  0  0  0  0
    2.1387   -0.8122    0.0000 C   0  0  0  0  0  0  0  0  0  0  0  0
    2.8561    0.4243    0.0000 C   0  0  0  0  0  0  0  0  0  0  0  0
   -2.8624    0.4278    0.0000 C   0  0  0  0  0  0  0  0  0  0  0  0
    2.8561   -0.4023    0.0000 C   0  0  0  0  0  0  0  0  0  0  0  0
    2.1424    1.6369    0.0000 O   0  0  0  0  0  0  0  0  0  0  0  0
    2.8624    2.0522    0.0000 C   0  0  0  0  0  0  0  0  0  0  0  0
  1  2  1  0
  1  3  1  0
  1  4  1  0
  2  5  2  0
  2  6  1  0
  3  7  1  0
  4  8  1  0
  5  9  1  0
  6 10  2  0
  7 11  2  0
  7 12  1  0
  8 13  1  0
  9 14  2  0
 10 14  1  0
 11 15  1  0
 12 16  2  0
 12 19  1  0
 13 17  1  0
 15 18  2  0
 16 18  1  0
 19 20  1  0
M  END
>  <DRUGBANK_ID>  (1) 
DB09186

>  <COMMON_NAME>  (1) 
Nisoxetine

>  <CAS_NUMBER>  (1) 
53179-07-0

>  <UNII>  (1) 
17NV064B2D

>  <SYNONYMS>  (1) 
nisoxetina; Nisoxetine

$$$$
