
     RDKit          2D

 23 25  0  0  0  0  0  0  0  0999 V2000
   -0.3571    0.4124    0.0000 N   0  0  0  0  0  0  0  0  0  0  0  0
   -1.0716    0.8249    0.0000 C   0  0  0  0  0  0  0  0  0  0  0  0
    0.3572    0.8249    0.0000 C   0  0  0  0  0  0  0  0  0  0  0  0
   -0.3571   -0.4124    0.0000 C   0  0  0  0  0  0  0  0  0  0  0  0
   -1.0716    1.6499    0.0000 C   0  0  0  0  0  0  0  0  0  0  0  0
   -1.7860    0.4124    0.0000 C   0  0  0  0  0  0  0  0  0  0  0  0
    0.3572    1.6499    0.0000 C   0  0  0  0  0  0  0  0  0  0  0  0
    1.0717    0.4124    0.0000 C   0  0  0  0  0  0  0  0  0  0  0  0
    0.3572   -0.8249    0.0000 C   0  0  0  0  0  0  0  0  0  0  0  0
   -0.3571    2.0624    0.0000 S   0  0  0  0  0  0  0  0  0  0  0  0
   -1.7860    2.0623    0.0000 C   0  0  0  0  0  0  0  0  0  0  0  0
   -2.5005    0.8249    0.0000 C   0  0  0  0  0  0  0  0  0  0  0  0
    1.0716    2.0624    0.0000 C   0  0  0  0  0  0  0  0  0  0  0  0
    1.7861    0.8249    0.0000 C   0  0  0  0  0  0  0  0  0  0  0  0
    1.0717   -0.4124    0.0000 C   0  0  0  0  0  0  0  0  0  0  0  0
    0.3572   -1.6499    0.0000 N   0  0  0  0  0  0  0  0  0  0  0  0
   -2.5005    1.6498    0.0000 C   0  0  0  0  0  0  0  0  0  0  0  0
    1.7861    1.6499    0.0000 C   0  0  0  0  0  0  0  0  0  0  0  0
    1.7861   -0.8249    0.0000 N   0  0  0  0  0  0  0  0  0  0  0  0
    1.0717   -2.0624    0.0000 C   0  0  0  0  0  0  0  0  0  0  0  0
   -0.3571   -2.0624    0.0000 C   0  0  0  0  0  0  0  0  0  0  0  0
    2.5005   -0.4124    0.0000 C   0  0  0  0  0  0  0  0  0  0  0  0
    1.7861   -1.6499    0.0000 C   0  0  0  0  0  0  0  0  0  0  0  0
  1  2  1  0
  1  3  1  0
  1  4  1  0
  2  5  2  0
  2  6  1  0
  3  8  2  0
  3  7  1  0
  4  9  1  0
  5 10  1  0
  5 11  1  0
  6 12  2  0
  7 13  2  0
  7 10  1  0
  8 14  1  0
  9 15  1  0
  9 16  1  0
 11 17  2  0
 12 17  1  0
 13 18  1  0
 14 18  2  0
 15 19  1  0
 16 20  1  0
 16 21  1  0
 19 22  1  0
 19 23  1  0
M  END
>  <DRUGBANK_ID>  (1) 
DB15596

>  <COMMON_NAME>  (1) 
Aminopromazine

>  <CAS_NUMBER>  (1) 
58-37-7

>  <UNII>  (1) 
S9SDD93U5U

>  <SYNONYMS>  (1) 
Aminopromazina; Aminopromazine; Aminopromazinum; Proquamezine

$$$$
