
     RDKit          2D

 15 15  0  0  0  0  0  0  0  0999 V2000
   -1.0716    0.0000    0.0000 C   0  0  0  0  0  0  0  0  0  0  0  0
   -1.0716    0.8250    0.0000 C   0  0  0  0  0  0  0  0  0  0  0  0
   -1.7862    1.2374    0.0000 C   0  0  0  0  0  0  0  0  0  0  0  0
   -2.5007    0.0000    0.0000 C   0  0  0  0  0  0  0  0  0  0  0  0
   -2.5007    0.8250    0.0000 C   0  0  0  0  0  0  0  0  0  0  0  0
   -0.3571   -0.4125    0.0000 C   0  0  0  0  0  0  0  0  0  0  0  0
    0.3572    0.0000    0.0000 C   0  0  0  0  0  0  0  0  0  0  0  0
   -0.3571   -1.2374    0.0000 O   0  0  0  0  0  0  0  0  0  0  0  0
    1.0716   -0.4125    0.0000 C   0  0  0  0  0  0  0  0  0  0  0  0
    1.7862    0.0000    0.0000 C   0  0  0  0  0  0  0  0  0  0  0  0
    1.0716   -1.2374    0.0000 N   0  0  0  0  0  0  0  0  0  0  0  0
    1.7862    0.8250    0.0000 O   0  0  0  0  0  0  0  0  0  0  0  0
    2.5007   -0.4125    0.0000 O   0  0  0  0  0  0  0  0  0  0  0  0
   -1.7862   -0.4125    0.0000 C   0  0  0  0  0  0  0  0  0  0  0  0
   -1.7862   -1.2374    0.0000 N   0  0  0  0  0  0  0  0  0  0  0  0
  1  6  1  0
  1  2  2  0
  2  3  1  0
  3  5  2  0
  5  4  1  0
  6  7  1  0
  6  8  2  0
  7  9  1  0
  9 10  1  0
  9 11  1  1
 10 12  2  0
 10 13  1  0
 14  1  1  0
 14  4  2  0
 14 15  1  0
M  END
>  <DRUGBANK_ID>  (1) 
DB02070

>  <SECONDARY_ACCESSION_NUMBERS>  (1) 
EXPT01985

>  <COMMON_NAME>  (1) 
Kynurenine

>  <CAS_NUMBER>  (1) 
2922-83-0

>  <UNII>  (1) 
02JW4J5R44

>  <SYNONYMS>  (1) 
(2S)-2-amino-4-(2-aminophenyl)-4-oxobutanoic acid; 3-Anthraniloyl-L-alanine; L-kynurenine

$$$$
