HUX
     RDKit          2D

 21 24  0  0  0  0  0  0  0  0999 V2000
    2.0656   -2.6926    0.0000 Cl  0  0  0  0  0  0  0  0  0  0  0  0
    1.7215   -1.9428    0.0000 C   0  0  0  0  0  0  0  0  0  0  0  0
   -0.2653   -1.0391    0.0000 N   0  0  0  0  0  0  0  0  0  0  0  0
    0.5561   -1.1160    0.0000 C   0  0  0  0  0  0  0  0  0  0  0  0
   -0.6094   -0.2892    0.0000 C   0  0  0  0  0  0  0  0  0  0  0  0
    1.1667    0.9796    0.0000 N   0  0  0  0  0  0  0  0  0  0  0  0
    0.6894    0.3067    0.0000 C   0  0  0  0  0  0  0  0  0  0  0  0
    0.9001   -1.8658    0.0000 C   0  0  0  0  0  0  0  0  0  0  0  0
    2.1989   -1.2699    0.0000 C   0  0  0  0  0  0  0  0  0  0  0  0
    1.0334   -0.4431    0.0000 C   0  0  0  0  0  0  0  0  0  0  0  0
    0.2069   -0.1097    0.0000 C   0  0  0  0  0  0  0  0  0  0  0  0
   -0.1320    0.3837    0.0000 C   0  0  0  0  0  0  0  0  0  0  0  0
    0.1599    0.8772    0.0000 C   0  0  0  0  0  0  0  0  0  0  0  0
   -0.8001    0.8665    0.0000 C   0  0  0  0  0  0  0  0  0  0  0  0
    0.2911    1.6808    0.0000 C   0  0  0  0  0  0  0  0  0  0  0  0
   -1.3046    0.4422    0.0000 C   0  0  0  0  0  0  0  0  0  0  0  0
   -1.1777    1.2441    0.0000 C   0  0  0  0  0  0  0  0  0  0  0  0
   -1.7104   -0.2761    0.0000 C   0  0  0  0  0  0  0  0  0  0  0  0
   -0.2587    1.2448    0.0000 C   0  0  0  0  0  0  0  0  0  0  0  0
   -1.2912   -0.9867    0.0000 C   0  0  0  0  0  0  0  0  0  0  0  0
    1.8548   -0.5201    0.0000 C   0  0  0  0  0  0  0  0  0  0  0  0
  1  2  1  0
  2  8  2  0
  2  9  1  0
  3  4  2  0
  3  5  1  0
  4  8  1  0
  4 10  1  0
  5 11  1  0
  5 12  2  0
  6  7  1  0
  7 10  2  0
  7 12  1  0
  9 21  2  0
 10 21  1  0
 13 11  1  1
 12 19  1  0
 13 14  1  0
 13 15  1  0
 14 16  2  0
 15 19  1  0
 16 17  1  0
 16 18  1  0
 19 17  1  6
 18 20  1  0
M  END
>  <DRUGBANK_ID>  (1) 
DB04114

>  <SECONDARY_ACCESSION_NUMBERS>  (1) 
EXPT01796

>  <COMMON_NAME>  (1) 
3-Chloro-9-Ethyl-6,7,8,9,10,11-Hexahydro-7,11-Methanocycloocta[B]Quinolin-12-Amine

$$$$
