TPB
     RDKit          2D

 25 27  0  0  0  0  0  0  0  0999 V2000
    1.5811   -0.5099    0.0000 C   0  0  0  0  0  0  0  0  0  0  0  0
    1.5811    0.3151    0.0000 N   0  0  0  0  0  0  0  0  0  0  0  0
    2.2956   -0.9224    0.0000 C   0  0  0  0  0  0  0  0  0  0  0  0
    3.0100   -0.5099    0.0000 C   0  0  0  0  0  0  0  0  0  0  0  0
    2.2956   -1.7474    0.0000 C   0  0  0  0  0  0  0  0  0  0  0  0
    1.5811   -2.1599    0.0000 C   0  0  0  0  0  0  0  0  0  0  0  0
    0.8666   -1.7474    0.0000 C   0  0  0  0  0  0  0  0  0  0  0  0
    0.8666   -0.9224    0.0000 C   0  0  0  0  0  0  0  0  0  0  0  0
    0.1522   -0.5099    0.0000 C   0  0  0  0  0  0  0  0  0  0  0  0
    0.8666    0.7276    0.0000 C   0  0  0  0  0  0  0  0  0  0  0  0
    0.1522    0.3151    0.0000 N   0  0  0  0  0  0  0  0  0  0  0  0
   -0.5623    0.7276    0.0000 C   0  0  0  0  0  0  0  0  0  0  0  0
   -1.2768    0.3151    0.0000 N   0  0  0  0  0  0  0  0  0  0  0  0
   -0.5623    1.5526    0.0000 N   0  0  0  0  0  0  0  0  0  0  0  0
    0.1522    1.9651    0.0000 C   0  0  0  0  0  0  0  0  0  0  0  0
    0.8666    1.5526    0.0000 C   0  0  0  0  0  0  0  0  0  0  0  0
   -1.9913    0.7276    0.0000 C   0  0  0  0  0  0  0  0  0  0  0  0
   -2.7057    0.3151    0.0000 C   0  0  0  0  0  0  0  0  0  0  0  0
   -3.4202    0.7276    0.0000 C   0  0  0  0  0  0  0  0  0  0  0  0
   -3.4202    1.5526    0.0000 C   0  0  0  0  0  0  0  0  0  0  0  0
   -2.7057    1.9651    0.0000 C   0  0  0  0  0  0  0  0  0  0  0  0
   -1.9913    1.5526    0.0000 C   0  0  0  0  0  0  0  0  0  0  0  0
   -4.1347    1.9651    0.0000 C   0  0  0  0  0  0  0  0  0  0  0  0
   -4.8491    2.3776    0.0000 N   0  0  0  0  0  0  0  0  0  0  0  0
    1.5811   -2.9849    0.0000 C   0  0  0  0  0  0  0  0  0  0  0  0
  1  2  1  0
  1  3  2  0
  1  8  1  0
  2 10  1  0
  3  4  1  0
  3  5  1  0
  5  6  2  0
  6  7  1  0
  6 25  1  0
  7  8  2  0
  8  9  1  0
 10 11  2  0
 10 16  1  0
 11 12  1  0
 12 13  1  0
 12 14  2  0
 13 17  1  0
 14 15  1  0
 15 16  2  0
 17 18  2  0
 17 22  1  0
 18 19  1  0
 19 20  2  0
 20 21  1  0
 20 23  1  0
 21 22  2  0
 23 24  3  0
M  END
>  <DRUGBANK_ID>  (1) 
DB08639

>  <SECONDARY_ACCESSION_NUMBERS>  (1) 
DB11908

>  <COMMON_NAME>  (1) 
Dapivirine

>  <CAS_NUMBER>  (1) 
244767-67-7

>  <UNII>  (1) 
TCN4MG2VXS

>  <SYNONYMS>  (1) 
Dapivirine

$$$$
