
     RDKit          2D

 10 10  0  0  0  0  0  0  0  0999 V2000
   -3.2152   -0.8249    0.0000 C   0  0  0  0  0  0  0  0  0  0  0  0
   -3.9296   -1.2374    0.0000 C   0  0  0  0  0  0  0  0  0  0  0  0
   -3.9296   -2.0623    0.0000 C   0  0  0  0  0  0  0  0  0  0  0  0
   -3.2152   -2.4749    0.0000 C   0  0  0  0  0  0  0  0  0  0  0  0
   -2.5007   -2.0623    0.0000 C   0  0  0  0  0  0  0  0  0  0  0  0
   -2.5007   -1.2374    0.0000 C   0  0  0  0  0  0  0  0  0  0  0  0
   -4.6441   -0.8250    0.0000 F   0  0  0  0  0  0  0  0  0  0  0  0
   -3.2152   -3.2999    0.0000 F   0  0  0  0  0  0  0  0  0  0  0  0
   -1.7862   -2.4749    0.0000 C   0  0  0  0  0  0  0  0  0  0  0  0
   -1.7862   -3.3000    0.0000 O   0  0  0  0  0  0  0  0  0  0  0  0
  1  2  2  0
  2  3  1  0
  2  7  1  0
  3  4  2  0
  4  5  1  0
  4  8  1  0
  5  6  2  0
  5  9  1  0
  6  1  1  0
  9 10  1  0
M  END
>  <DRUGBANK_ID>  (1) 
DB04448

>  <SECONDARY_ACCESSION_NUMBERS>  (1) 
EXPT00093

>  <COMMON_NAME>  (1) 
2,4-Difluorobenzyl Alcohol 2,4-Difluoro-1-(Hydroxymethyl)Benzene

>  <UNII>  (1) 
SVX5XQB2MB

$$$$
