
     RDKit          2D

 20 21  0  0  0  0  0  0  0  0999 V2000
   -1.0611   -0.6178    0.0000 C   0  0  0  0  0  0  0  0  0  0  0  0
   -0.3486   -1.0271    0.0000 C   0  0  0  0  0  0  0  0  0  0  0  0
   -1.7850   -1.0384    0.0000 C   0  0  0  0  0  0  0  0  0  0  0  0
   -1.0611    0.2159    0.0000 C   0  0  0  0  0  0  0  0  0  0  0  0
    0.3637   -0.6139    0.0000 C   0  0  0  0  0  0  0  0  0  0  0  0
   -0.3448   -1.8533    0.0000 O   0  0  0  0  0  0  0  0  0  0  0  0
   -2.4975   -0.6178    0.0000 C   0  0  0  0  0  0  0  0  0  0  0  0
   -1.7887   -1.8645    0.0000 O   0  0  0  0  0  0  0  0  0  0  0  0
   -1.7850    0.6290    0.0000 C   0  0  0  0  0  0  0  0  0  0  0  0
   -0.3486    0.6290    0.0000 O   0  0  0  0  0  0  0  0  0  0  0  0
    0.3637    0.2084    0.0000 C   0  0  0  0  0  0  0  0  0  0  0  0
   -2.4975    0.2159    0.0000 C   0  0  0  0  0  0  0  0  0  0  0  0
    1.0763    0.6214    0.0000 C   0  0  0  0  0  0  0  0  0  0  0  0
   -3.2137    0.6290    0.0000 O   0  0  0  0  0  0  0  0  0  0  0  0
    1.7925    0.2122    0.0000 C   0  0  0  0  0  0  0  0  0  0  0  0
    1.0763    1.4401    0.0000 C   0  0  0  0  0  0  0  0  0  0  0  0
    2.5089    0.6214    0.0000 C   0  0  0  0  0  0  0  0  0  0  0  0
    1.7850    1.8607    0.0000 C   0  0  0  0  0  0  0  0  0  0  0  0
    2.5013    1.4477    0.0000 C   0  0  0  0  0  0  0  0  0  0  0  0
    3.2137    1.8645    0.0000 O   0  0  0  0  0  0  0  0  0  0  0  0
  1  2  1  0
  1  3  2  0
  1  4  1  0
  2  5  1  0
  2  6  2  0
  3  7  1  0
  3  8  1  0
  4  9  2  0
  4 10  1  0
  5 11  1  0
  7 12  2  0
  9 12  1  0
 11 13  1  0
 12 14  1  0
 13 15  2  0
 13 16  1  0
 15 17  1  0
 16 18  2  0
 17 19  2  0
 18 19  1  0
 19 20  1  0
M  END
>  <DRUGBANK_ID>  (1) 
DB07810

>  <COMMON_NAME>  (1) 
Phloretin

>  <CAS_NUMBER>  (1) 
60-82-2

>  <UNII>  (1) 
S5J5OE47MK

>  <SYNONYMS>  (1) 
2',4,4',6'-Tetrahydroxy-Dihydrochalcone; 2',4,4',6'-Tetrahydroxydihydrochalcone; Dihydronaringenin; Phloretol

$$$$
