
     RDKit          2D

 12 13  0  0  0  0  0  0  0  0999 V2000
    2.7308   -3.2309    0.0000 N   0  0  0  0  0  0  0  0  0  0  0  0
    1.9058   -3.2309    0.0000 C   0  0  0  0  0  0  0  0  0  0  0  0
    1.6509   -2.4463    0.0000 C   0  0  0  0  0  0  0  0  0  0  0  0
    2.3183   -1.9614    0.0000 C   0  0  0  0  0  0  0  0  0  0  0  0
    2.3183   -1.1364    0.0000 C   0  0  0  0  0  0  0  0  0  0  0  0
    1.6039   -0.7239    0.0000 C   0  0  0  0  0  0  0  0  0  0  0  0
    1.6039    0.1011    0.0000 C   0  0  0  0  0  0  0  0  0  0  0  0
    0.9364    0.5861    0.0000 C   0  0  0  0  0  0  0  0  0  0  0  0
    1.1914    1.3707    0.0000 C   0  0  0  0  0  0  0  0  0  0  0  0
    2.0164    1.3707    0.0000 C   0  0  0  0  0  0  0  0  0  0  0  0
    2.2713    0.5861    0.0000 S   0  0  0  0  0  0  0  0  0  0  0  0
    2.9858   -2.4463    0.0000 N   0  0  0  0  0  0  0  0  0  0  0  0
  1  2  1  0
  1 12  1  0
  2  3  2  0
  3  4  1  0
  4  5  1  0
  4 12  2  0
  5  6  2  0
  6  7  1  0
  7  8  2  0
  7 11  1  0
  8  9  1  0
  9 10  2  0
 10 11  1  0
M  END
>  <DRUGBANK_ID>  (1) 
DB16397

>  <COMMON_NAME>  (1) 
Terevalefim

>  <CAS_NUMBER>  (1) 
1070881-42-3

>  <UNII>  (1) 
GG91UXK2M5

>  <SYNONYMS>  (1) 
Refanalin; Terevalefim

$$$$
