NS6
     RDKit          2D

 27 30  0  0  0  0  0  0  0  0999 V2000
   -3.6440   -0.8256    0.0000 C   0  0  0  0  0  0  0  0  0  0  0  0
   -4.1960   -1.4387    0.0000 C   0  0  0  0  0  0  0  0  0  0  0  0
   -3.7835   -2.1532    0.0000 C   0  0  0  0  0  0  0  0  0  0  0  0
   -2.9765   -1.9816    0.0000 C   0  0  0  0  0  0  0  0  0  0  0  0
   -2.8903   -1.1612    0.0000 C   0  0  0  0  0  0  0  0  0  0  0  0
   -2.1758   -0.7487    0.0000 C   0  0  0  0  0  0  0  0  0  0  0  0
   -1.4614   -1.1612    0.0000 C   0  0  0  0  0  0  0  0  0  0  0  0
   -2.1758    0.0763    0.0000 N   0  0  0  0  0  0  0  0  0  0  0  0
   -1.4614    0.4888    0.0000 S   0  0  0  0  0  0  0  0  0  0  0  0
   -1.0740    1.2173    0.0000 O   0  0  0  0  0  0  0  0  0  0  0  0
   -1.8487    1.2173    0.0000 O   0  0  0  0  0  0  0  0  0  0  0  0
   -0.7469    0.0763    0.0000 C   0  0  0  0  0  0  0  0  0  0  0  0
   -0.0324    0.4888    0.0000 C   0  0  0  0  0  0  0  0  0  0  0  0
   -0.7469   -0.7487    0.0000 C   0  0  0  0  0  0  0  0  0  0  0  0
   -0.0324   -1.1612    0.0000 C   0  0  0  0  0  0  0  0  0  0  0  0
    0.6821   -0.7487    0.0000 C   0  0  0  0  0  0  0  0  0  0  0  0
    0.6821    0.0763    0.0000 C   0  0  0  0  0  0  0  0  0  0  0  0
    1.3965    0.4888    0.0000 S   0  0  0  0  0  0  0  0  0  0  0  0
    1.8090   -0.2256    0.0000 O   0  0  0  0  0  0  0  0  0  0  0  0
    0.9840    1.2033    0.0000 O   0  0  0  0  0  0  0  0  0  0  0  0
    2.1110    0.9013    0.0000 N   0  0  0  0  0  0  0  0  0  0  0  0
    2.1110    1.7263    0.0000 C   0  0  0  0  0  0  0  0  0  0  0  0
    2.8255    2.1388    0.0000 C   0  0  0  0  0  0  0  0  0  0  0  0
    3.5399    1.7263    0.0000 N   0  0  0  0  0  0  0  0  0  0  0  0
    4.2544    2.1388    0.0000 C   0  0  0  0  0  0  0  0  0  0  0  0
    3.5399    0.9013    0.0000 C   0  0  0  0  0  0  0  0  0  0  0  0
    2.8255    0.4888    0.0000 C   0  0  0  0  0  0  0  0  0  0  0  0
  1  5  1  0
  2  1  1  0
  3  2  1  0
  3  4  1  0
  4  5  1  0
  6  5  1  6
  6  7  1  0
  7 14  1  0
  8  6  1  0
  8  9  1  0
  9 12  1  0
  9 11  2  0
 10  9  2  0
 12 13  1  0
 13 17  2  0
 14 12  2  0
 14 15  1  0
 15 16  2  0
 16 17  1  0
 17 18  1  0
 18 19  2  0
 18 20  2  0
 18 21  1  0
 21 22  1  0
 21 27  1  0
 22 23  1  0
 23 24  1  0
 24 25  1  0
 26 24  1  0
 27 26  1  0
M  END
>  <DRUGBANK_ID>  (1) 
DB08304

>  <COMMON_NAME>  (1) 
(3R)-3-cyclopentyl-7-[(4-methylpiperazin-1-yl)sulfonyl]-3,4-dihydro-2H-1,2-benzothiazine 1,1-dioxide

$$$$
