
     RDKit          2D

 41 45  0  0  0  0  0  0  0  0999 V2000
   -1.6069    0.4135    0.0000 C   0  0  0  0  0  0  0  0  0  0  0  0
   -0.7944    0.5567    0.0000 C   0  0  0  0  0  0  0  0  0  0  0  0
   -0.2641   -0.0753    0.0000 C   0  0  0  0  0  0  0  0  0  0  0  0
    0.4503   -0.4878    0.0000 C   0  0  0  0  0  0  0  0  0  0  0  0
    1.1648   -0.0753    0.0000 O   0  0  0  0  0  0  0  0  0  0  0  0
    0.4503   -1.3128    0.0000 N   0  0  0  0  0  0  0  0  0  0  0  0
   -0.2641   -1.7253    0.0000 C   0  0  0  0  0  0  0  0  0  0  0  0
   -0.2641   -2.5503    0.0000 O   0  0  0  0  0  0  0  0  0  0  0  0
   -0.9786   -1.3128    0.0000 N   0  0  0  0  0  0  0  0  0  0  0  0
   -0.9786   -0.4878    0.0000 C   0  0  0  0  0  0  0  0  0  0  0  0
   -1.6931   -0.0753    0.0000 O   0  0  0  0  0  0  0  0  0  0  0  0
    0.2662    0.5567    0.0000 C   0  0  0  0  0  0  0  0  0  0  0  0
   -0.0160    1.3320    0.0000 C   0  0  0  0  0  0  0  0  0  0  0  0
    0.5143    1.9640    0.0000 C   0  0  0  0  0  0  0  0  0  0  0  0
    1.3268    1.8207    0.0000 C   0  0  0  0  0  0  0  0  0  0  0  0
    1.6089    1.0454    0.0000 C   0  0  0  0  0  0  0  0  0  0  0  0
    1.0786    0.4135    0.0000 C   0  0  0  0  0  0  0  0  0  0  0  0
    7.3027   -1.4662    0.0000 C   0  0  0  0  0  0  0  0  0  0  0  0
    6.5882   -1.0537    0.0000 O   0  0  0  0  0  0  0  0  0  0  0  0
    6.5882   -0.2287    0.0000 C   0  0  0  0  0  0  0  0  0  0  0  0
    5.8738    0.1838    0.0000 C   0  0  0  0  0  0  0  0  0  0  0  0
    5.8738    1.0088    0.0000 C   0  0  0  0  0  0  0  0  0  0  0  0
    5.1593    1.4213    0.0000 C   0  0  0  0  0  0  0  0  0  0  0  0
    5.1593    2.2463    0.0000 C   0  0  0  0  0  0  0  0  0  0  0  0
    5.8738    2.6588    0.0000 C   0  0  0  0  0  0  0  0  0  0  0  0
    6.5882    2.2463    0.0000 N   0  0  0  0  0  0  0  0  0  0  0  0
    6.5882    1.4213    0.0000 C   0  0  0  0  0  0  0  0  0  0  0  0
    7.3027    1.0088    0.0000 C   0  0  0  0  0  0  0  0  0  0  0  0
    7.3027    0.1838    0.0000 C   0  0  0  0  0  0  0  0  0  0  0  0
    4.4448    1.0088    0.0000 C   0  0  0  0  0  0  0  0  0  0  0  0
    4.4448    0.1838    0.0000 C   0  0  0  0  0  0  0  0  0  0  0  0
    4.0926   -0.5100    0.0000 C   0  0  0  0  0  0  0  0  0  0  0  0
    4.4673   -1.2281    0.0000 C   0  0  0  0  0  0  0  0  0  0  0  0
    3.8832   -1.9087    0.0000 C   0  0  0  0  0  0  0  0  0  0  0  0
    4.0659   -1.2813    0.0000 C   0  0  0  0  0  0  0  0  0  0  0  0
    4.8182   -0.5518    0.0000 N   0  0  0  0  0  0  0  0  0  0  0  0
    5.6996   -0.7892    0.0000 C   0  0  0  0  0  0  0  0  0  0  0  0
    5.3165   -1.4489    0.0000 C   0  0  0  0  0  0  0  0  0  0  0  0
    5.6340   -2.2104    0.0000 C   0  0  0  0  0  0  0  0  0  0  0  0
    6.4522   -2.3161    0.0000 C   0  0  0  0  0  0  0  0  0  0  0  0
    3.7303    1.4213    0.0000 O   0  0  0  0  0  0  0  0  0  0  0  0
  1  2  1  0
  2  3  1  0
  3  4  1  0
  3 10  1  0
  3 12  1  0
  4  5  2  0
  4  6  1  0
  6  7  1  0
  7  8  2  0
  7  9  1  0
  9 10  1  0
 10 11  2  0
 12 13  2  0
 12 17  1  0
 13 14  1  0
 14 15  2  0
 15 16  1  0
 16 17  2  0
 18 19  1  0
 19 20  1  0
 20 21  2  0
 20 29  1  0
 21 22  1  0
 22 23  2  0
 22 27  1  0
 23 24  1  0
 23 30  1  0
 24 25  2  0
 25 26  1  0
 26 27  2  0
 27 28  1  0
 28 29  2  0
 30 31  1  0
 30 41  1  0
 31 32  1  0
 31 36  1  0
 32 33  1  0
 33 34  1  0
 33 38  1  0
 34 35  1  0
 35 36  1  0
 36 37  1  0
 37 38  1  0
 38 39  1  0
 39 40  2  0
M  END
>  <DRUGBANK_ID>  (1) 
DB01346

>  <COMMON_NAME>  (1) 
Quinidine barbiturate

$$$$
