5RM
     RDKit          2D

 19 20  0  0  0  0  0  0  0  0999 V2000
    2.5156   -3.3131    0.0000 O   0  0  0  0  0  0  0  0  0  0  0  0
    2.0307   -2.6457    0.0000 C   0  0  0  0  0  0  0  0  0  0  0  0
    1.2057   -2.6457    0.0000 O   0  0  0  0  0  0  0  0  0  0  0  0
    2.2857   -1.8611    0.0000 N   0  0  0  0  0  0  0  0  0  0  0  0
    1.6182   -1.3761    0.0000 C   0  0  0  0  0  0  0  0  0  0  0  0
    0.9508   -1.8611    0.0000 C   0  0  0  0  0  0  0  0  0  0  0  0
    0.1421   -2.0241    0.0000 C   0  0  0  0  0  0  0  0  0  0  0  0
    0.3924   -1.2538    0.0000 C   0  0  0  0  0  0  0  0  0  0  0  0
   -0.4128   -1.4338    0.0000 C   0  0  0  0  0  0  0  0  0  0  0  0
   -0.9712   -0.8265    0.0000 C   0  0  0  0  0  0  0  0  0  0  0  0
   -0.7245   -0.0392    0.0000 C   0  0  0  0  0  0  0  0  0  0  0  0
   -1.2829    0.5681    0.0000 O   0  0  0  0  0  0  0  0  0  0  0  0
   -1.0362    1.3553    0.0000 C   0  0  0  0  0  0  0  0  0  0  0  0
    0.0807    0.1407    0.0000 C   0  0  0  0  0  0  0  0  0  0  0  0
    0.6391   -0.4665    0.0000 C   0  0  0  0  0  0  0  0  0  0  0  0
    0.3274    0.9280    0.0000 O   0  0  0  0  0  0  0  0  0  0  0  0
   -0.2311    1.5353    0.0000 C   0  0  0  0  0  0  0  0  0  0  0  0
    0.0156    2.3225    0.0000 C   0  0  0  0  0  0  0  0  0  0  0  0
   -0.5428    2.9298    0.0000 C   0  0  0  0  0  0  0  0  0  0  0  0
  1  2  2  0
  2  3  1  0
  2  4  1  0
  3  6  1  0
  4  5  1  0
  5  6  1  0
  6  7  1  1
  6  8  1  0
  8  9  2  0
  8 15  1  0
  9 10  1  0
 10 11  2  0
 11 12  1  0
 11 14  1  0
 12 13  1  0
 14 15  2  0
 14 16  1  0
 16 17  1  0
 17 18  1  0
 18 19  1  0
M  END
>  <DRUGBANK_ID>  (1) 
DB01647

>  <SECONDARY_ACCESSION_NUMBERS>  (1) 
EXPT00259

>  <COMMON_NAME>  (1) 
Daxalipram

>  <CAS_NUMBER>  (1) 
189940-24-7

>  <UNII>  (1) 
0RB5T277IY

>  <SYNONYMS>  (1) 
(R)-Mesopram; Daxalipram

$$$$
