
     RDKit          2D

 31 33  0  0  1  0  0  0  0  0999 V2000
    4.3460   -6.2721    0.0000 C   0  0  0  0  0  0  0  0  0  0  0  0
    5.0605   -5.8596    0.0000 C   0  0  0  0  0  0  0  0  0  0  0  0
    5.0605   -5.0346    0.0000 O   0  0  0  0  0  0  0  0  0  0  0  0
    5.7749   -4.6221    0.0000 C   0  0  0  0  0  0  0  0  0  0  0  0
    5.7749   -3.7971    0.0000 C   0  0  0  0  0  0  0  0  0  0  0  0
    5.0605   -3.3846    0.0000 C   0  0  0  0  0  0  0  0  0  0  0  0
    4.3460   -3.7971    0.0000 C   0  0  0  0  0  0  0  0  0  0  0  0
    3.6315   -3.3846    0.0000 C   0  0  0  0  0  0  0  0  0  0  0  0
    3.6315   -2.5596    0.0000 C   0  0  0  0  0  0  0  0  0  0  0  0
    4.3460   -2.1471    0.0000 C   0  0  0  0  0  0  0  0  0  0  0  0
    5.0605   -2.5596    0.0000 C   0  0  0  0  0  0  0  0  0  0  0  0
    2.9171   -2.1471    0.0000 O   0  0  0  0  0  0  0  0  0  0  0  0
    2.2026   -2.5596    0.0000 C   0  0  0  0  0  0  0  0  0  0  0  0
    1.4881   -2.1471    0.0000 C   0  0  0  0  0  0  0  0  0  0  0  0
    0.7737   -2.5596    0.0000 N   0  0  0  0  0  0  0  0  0  0  0  0
    0.6874   -3.3801    0.0000 C   0  0  0  0  0  0  0  0  0  0  0  0
   -0.1196   -3.5516    0.0000 C   0  0  0  0  0  0  0  0  0  0  0  0
   -0.5321   -2.8372    0.0000 C   0  0  0  0  0  0  0  0  0  0  0  0
    0.0200   -2.2241    0.0000 C   0  0  0  0  0  0  0  0  0  0  0  0
   -0.1516   -1.4171    0.0000 C   0  0  0  0  0  0  0  0  0  0  0  0
   -0.9362   -1.1622    0.0000 C   0  0  0  0  0  0  0  0  0  0  0  0
   -1.1077   -0.3552    0.0000 C   0  0  0  0  0  0  0  0  0  0  0  0
   -0.4946    0.1969    0.0000 C   0  0  0  0  0  0  0  0  0  0  0  0
    0.2900   -0.0581    0.0000 C   0  0  0  0  0  0  0  0  0  0  0  0
    0.4615   -0.8651    0.0000 C   0  0  0  0  0  0  0  0  0  0  0  0
   -0.6661    1.0038    0.0000 S   0  0  0  0  0  0  0  0  0  0  0  0
   -1.4508    1.2588    0.0000 C   0  0  0  0  0  0  0  0  0  0  0  0
    1.3005   -3.9321    0.0000 C   0  0  0  0  0  0  0  0  0  0  0  0
    6.4894   -5.0346    0.0000 C   0  0  0  0  0  0  0  0  0  0  0  0
    7.2039   -4.6221    0.0000 O   0  0  0  0  0  0  0  0  0  0  0  0
    6.4894   -5.8596    0.0000 O   0  0  0  0  0  0  0  0  0  0  0  0
  1  2  1  0
  2  3  1  0
  4  3  1  0
  4  5  1  1
  4 29  1  0
  5  6  1  0
  6  7  2  0
  6 11  1  0
  7  8  1  0
  8  9  2  0
  9 10  1  0
  9 12  1  0
 10 11  2  0
 12 13  1  0
 13 14  1  0
 14 15  1  0
 15 16  1  0
 15 19  1  0
 16 17  2  0
 16 28  1  0
 17 18  1  0
 18 19  2  0
 19 20  1  0
 20 21  2  0
 20 25  1  0
 21 22  1  0
 22 23  2  0
 23 24  1  0
 23 26  1  0
 24 25  2  0
 26 27  1  0
 29 30  2  0
 29 31  1  0
M  END
>  <DRUGBANK_ID>  (1) 
DB13115

>  <COMMON_NAME>  (1) 
Saroglitazar

>  <CAS_NUMBER>  (1) 
495399-09-2

>  <UNII>  (1) 
E0YMX3S4JD

>  <SYNONYMS>  (1) 
Saroglitazar; Saroglitazarum

$$$$
