
     RDKit          2D

 26 29  0  0  0  0  0  0  0  0999 V2000
    0.4061   -0.2200    0.0000 O   0  0  0  0  0  0  0  0  0  0  0  0
    1.1206    0.7964    0.0000 O   0  0  0  0  0  0  0  0  0  0  0  0
   -0.8313    0.4944    0.0000 O   0  0  0  0  0  0  0  0  0  0  0  0
    1.2907   -2.7949    0.0000 N   0  0  0  0  0  0  0  0  0  0  0  0
   -0.4005   -2.5420    0.0000 C   0  0  0  0  0  0  0  0  0  0  0  0
   -0.6140   -1.7452    0.0000 C   0  0  0  0  0  0  0  0  0  0  0  0
   -0.0063   -0.9345    0.0000 C   0  0  0  0  0  0  0  0  0  0  0  0
   -1.4497   -3.1976    0.0000 C   0  0  0  0  0  0  0  0  0  0  0  0
   -1.7952   -1.9083    0.0000 C   0  0  0  0  0  0  0  0  0  0  0  0
    0.6068   -3.2562    0.0000 C   0  0  0  0  0  0  0  0  0  0  0  0
    1.0633   -2.0018    0.0000 C   0  0  0  0  0  0  0  0  0  0  0  0
   -2.0909   -2.6785    0.0000 C   0  0  0  0  0  0  0  0  0  0  0  0
    0.8186    1.9233    0.0000 C   0  0  0  0  0  0  0  0  0  0  0  0
    0.4061    1.2089    0.0000 C   0  0  0  0  0  0  0  0  0  0  0  0
    0.4830    2.6770    0.0000 C   0  0  0  0  0  0  0  0  0  0  0  0
    1.6391    2.0096    0.0000 C   0  0  0  0  0  0  0  0  0  0  0  0
   -0.0063    0.4944    0.0000 C   0  0  0  0  0  0  0  0  0  0  0  0
    1.0962    3.2291    0.0000 C   0  0  0  0  0  0  0  0  0  0  0  0
    1.8106    2.8166    0.0000 C   0  0  0  0  0  0  0  0  0  0  0  0
    2.0659   -3.0770    0.0000 C   0  0  0  0  0  0  0  0  0  0  0  0
   -0.3084    1.6214    0.0000 C   0  0  0  0  0  0  0  0  0  0  0  0
   -1.0228    1.2089    0.0000 C   0  0  0  0  0  0  0  0  0  0  0  0
   -0.3084    2.4464    0.0000 C   0  0  0  0  0  0  0  0  0  0  0  0
   -1.7373    1.6214    0.0000 C   0  0  0  0  0  0  0  0  0  0  0  0
   -1.0228    2.8589    0.0000 C   0  0  0  0  0  0  0  0  0  0  0  0
   -1.7373    2.4464    0.0000 C   0  0  0  0  0  0  0  0  0  0  0  0
  1  7  1  0
  1 17  1  0
  3 17  2  0
  4 10  1  0
  4 11  1  0
  4 20  1  0
  5  7  1  0
  5  8  1  6
  5 10  1  0
  6  7  1  0
  6  9  1  1
  6 11  1  0
  8 12  1  0
  9 12  1  0
 13 14  1  0
 13 15  1  0
 13 16  1  0
 14  2  1  1
 14 17  1  0
 14 21  1  0
 15 18  1  0
 16 19  1  0
 18 19  1  0
 21 22  2  0
 21 23  1  0
 22 24  1  0
 23 25  2  0
 24 26  2  0
 25 26  1  0
M  END
>  <DRUGBANK_ID>  (1) 
DB16011

>  <COMMON_NAME>  (1) 
Levophencynonate

>  <CAS_NUMBER>  (1) 
230313-75-4

>  <UNII>  (1) 
4TNV157KEQ

>  <SYNONYMS>  (1) 
Levo-phencynonate

$$$$
