
     RDKit          2D

 34 38  0  0  0  0  0  0  0  0999 V2000
    5.1128    1.9963    0.0000 C   0  0  0  0  0  0  0  0  0  0  0  0
    4.3448    2.2977    0.0000 C   0  0  0  0  0  0  0  0  0  0  0  0
    5.2357    1.1805    0.0000 C   0  0  0  0  0  0  0  0  0  0  0  0
   -1.3296   -3.6690    0.0000 C   0  0  0  0  0  0  0  0  0  0  0  0
   -1.5426   -2.2560    0.0000 C   0  0  0  0  0  0  0  0  0  0  0  0
    3.9641   -1.8871    0.0000 C   0  0  0  0  0  0  0  0  0  0  0  0
   -0.5139   -3.5460    0.0000 C   0  0  0  0  0  0  0  0  0  0  0  0
   -0.7268   -2.1330    0.0000 C   0  0  0  0  0  0  0  0  0  0  0  0
    3.1483   -1.7642    0.0000 C   0  0  0  0  0  0  0  0  0  0  0  0
    4.1771   -0.4741    0.0000 C   0  0  0  0  0  0  0  0  0  0  0  0
    1.6911    0.4531    0.0000 C   0  0  0  0  0  0  0  0  0  0  0  0
    0.6918   -0.4741    0.0000 C   0  0  0  0  0  0  0  0  0  0  0  0
   -1.8440   -3.0240    0.0000 C   0  0  0  0  0  0  0  0  0  0  0  0
    1.5076   -0.3512    0.0000 C   0  0  0  0  0  0  0  0  0  0  0  0
    4.4785   -1.2421    0.0000 C   0  0  0  0  0  0  0  0  0  0  0  0
   -0.2124   -2.7780    0.0000 C   0  0  0  0  0  0  0  0  0  0  0  0
    2.8469   -0.9962    0.0000 C   0  0  0  0  0  0  0  0  0  0  0  0
    3.3613   -0.3512    0.0000 C   0  0  0  0  0  0  0  0  0  0  0  0
    3.6998    1.7833    0.0000 C   0  0  0  0  0  0  0  0  0  0  0  0
    4.5907    0.6661    0.0000 C   0  0  0  0  0  0  0  0  0  0  0  0
    3.8227    0.9675    0.0000 C   0  0  0  0  0  0  0  0  0  0  0  0
    2.0219   -0.9962    0.0000 C   0  0  0  0  0  0  0  0  0  0  0  0
    3.1777    0.4531    0.0000 C   0  0  0  0  0  0  0  0  0  0  0  0
   -2.6598   -3.1469    0.0000 C   0  0  0  0  0  0  0  0  0  0  0  0
    0.9047   -1.8871    0.0000 C   0  0  0  0  0  0  0  0  0  0  0  0
    5.2943   -1.3651    0.0000 Cl  0  0  0  0  0  0  0  0  0  0  0  0
    2.9318    2.0847    0.0000 F   0  0  0  0  0  0  0  0  0  0  0  0
    4.7137   -0.1497    0.0000 F   0  0  0  0  0  0  0  0  0  0  0  0
    2.4344    0.8111    0.0000 N   0  0  0  0  0  0  0  0  0  0  0  0
    0.3904   -1.2421    0.0000 N   0  0  0  0  0  0  0  0  0  0  0  0
    0.6033   -2.6551    0.0000 N   0  0  0  0  0  0  0  0  0  0  0  0
    1.7205   -1.7642    0.0000 N   0  0  0  0  0  0  0  0  0  0  0  0
   -2.9612   -3.9149    0.0000 O   0  0  0  0  0  0  0  0  0  0  0  0
   -3.1742   -2.5019    0.0000 O   0  0  0  0  0  0  0  0  0  0  0  0
  2  1  2  0
  3  1  1  0
  7  4  2  0
  8  5  1  0
  9  6  2  0
 13  4  1  0
 13  5  2  0
 14 11  1  0
 14 12  1  0
 15  6  1  0
 15 10  2  0
 16  7  1  0
 16  8  2  0
 17  9  1  0
 18 10  1  0
 18 17  2  0
 19  2  1  0
 20  3  2  0
 21 19  2  0
 21 20  1  0
 22 14  2  0
 22 17  1  0
 23 18  1  0
 23 21  1  0
 24 13  1  0
 26 15  1  0
 27 19  1  0
 28 20  1  0
 29 11  1  0
 29 23  2  0
 30 12  2  0
 30 25  1  0
 31 16  1  0
 31 25  1  0
 32 22  1  0
 32 25  2  0
 33 24  1  0
 34 24  2  0
M  END
>  <DRUGBANK_ID>  (1) 
DB13061

>  <SECONDARY_ACCESSION_NUMBERS>  (1) 
DB05957

>  <COMMON_NAME>  (1) 
MLN8054

>  <CAS_NUMBER>  (1) 
869363-13-3

>  <UNII>  (1) 
BX854EHD63

$$$$
