
     RDKit          2D

 25 27  0  0  0  0  0  0  0  0999 V2000
   -0.9806    0.3515    0.0000 O   0  0  0  0  0  0  0  0  0  0  0  0
    0.9547   -0.5491    0.0000 O   0  0  0  0  0  0  0  0  0  0  0  0
   -1.5547    1.9761    0.0000 O   0  0  0  0  0  0  0  0  0  0  0  0
    0.1199    2.4030    0.0000 O   0  0  0  0  0  0  0  0  0  0  0  0
    2.9627    2.6968    0.0000 O   0  0  0  0  0  0  0  0  0  0  0  0
   -0.7531   -1.1008    0.0000 N   0  0  0  0  0  0  0  0  0  0  0  0
    0.9578    1.2455    0.0000 N   0  0  0  0  0  0  0  0  0  0  0  0
   -0.7531   -2.4286    0.0000 N   0  0  0  0  0  0  0  0  0  0  0  0
   -2.2482   -0.9398    0.0000 N   0  0  0  0  0  0  0  0  0  0  0  0
    1.4565    3.3705    0.0000 N   0  0  0  0  0  0  0  0  0  0  0  0
   -2.9627   -2.1773    0.0000 N   0  0  0  0  0  0  0  0  0  0  0  0
   -2.2482   -3.4148    0.0000 N   0  0  0  0  0  0  0  0  0  0  0  0
    0.2896    0.7617    0.0000 C   0  0  0  0  0  0  0  0  0  0  0  0
    0.2881   -0.0631    0.0000 C   0  0  0  0  0  0  0  0  0  0  0  0
   -0.4945    1.0181    0.0000 C   0  0  0  0  0  0  0  0  0  0  0  0
   -0.4968   -0.3167    0.0000 C   0  0  0  0  0  0  0  0  0  0  0  0
   -0.7481    1.8031    0.0000 C   0  0  0  0  0  0  0  0  0  0  0  0
   -1.5337   -1.3523    0.0000 C   0  0  0  0  0  0  0  0  0  0  0  0
    0.8730    2.0661    0.0000 C   0  0  0  0  0  0  0  0  0  0  0  0
   -0.2716   -1.7648    0.0000 C   0  0  0  0  0  0  0  0  0  0  0  0
   -1.5337   -2.1773    0.0000 C   0  0  0  0  0  0  0  0  0  0  0  0
    1.5413    2.5499    0.0000 C   0  0  0  0  0  0  0  0  0  0  0  0
    2.2944    2.2131    0.0000 C   0  0  0  0  0  0  0  0  0  0  0  0
   -2.2482   -2.5898    0.0000 C   0  0  0  0  0  0  0  0  0  0  0  0
   -2.9627   -1.3523    0.0000 C   0  0  0  0  0  0  0  0  0  0  0  0
  1 15  1  0
  1 16  1  0
  3 17  1  0
  4 19  2  0
  5 23  1  0
  6 18  1  0
  6 20  1  0
  7 19  1  0
  8 20  2  0
  8 21  1  0
  9 18  1  0
  9 25  2  0
 11 24  2  0
 11 25  1  0
 12 24  1  0
 13  7  1  1
 13 14  1  0
 13 15  1  0
 14  2  1  1
 14 16  1  0
 15 17  1  6
 16  6  1  6
 18 21  2  0
 19 22  1  0
 21 24  1  0
 22 10  1  1
 22 23  1  0
M  END
>  <DRUGBANK_ID>  (1) 
DB04024

>  <SECONDARY_ACCESSION_NUMBERS>  (1) 
EXPT00371

>  <COMMON_NAME>  (1) 
Serine-3'-aminoadenosine

$$$$
