
     RDKit          2D

 31 35  0  0  1  0  0  0  0  0999 V2000
    3.4258    5.1825    0.0000 C   0  0  0  0  0  0  0  0  0  0  0  0
    2.6616    4.8717    0.0000 N   0  0  0  0  0  0  0  0  0  0  0  0
    2.4639    4.0708    0.0000 C   0  0  0  0  0  0  0  0  0  0  0  0
    1.6410    4.0113    0.0000 C   0  0  0  0  0  0  0  0  0  0  0  0
    1.3302    4.7755    0.0000 C   0  0  0  0  0  0  0  0  0  0  0  0
    1.9610    5.3073    0.0000 N   0  0  0  0  0  0  0  0  0  0  0  0
    1.2055    3.3107    0.0000 C   0  0  0  0  0  0  0  0  0  0  0  0
    1.5163    2.5465    0.0000 C   0  0  0  0  0  0  0  0  0  0  0  0
    0.8855    2.0147    0.0000 C   0  0  0  0  0  0  0  0  0  0  0  0
    0.9080    1.1900    0.0000 C   0  0  0  0  0  0  0  0  0  0  0  0
    0.1311    0.8012    0.0000 C   0  0  0  0  0  0  0  0  0  0  0  0
   -0.5696    1.2367    0.0000 C   0  0  0  0  0  0  0  0  0  0  0  0
   -0.5427    2.0613    0.0000 C   0  0  0  0  0  0  0  0  0  0  0  0
    0.1849    2.4503    0.0000 C   0  0  0  0  0  0  0  0  0  0  0  0
    0.3826    3.2512    0.0000 N   0  0  0  0  0  0  0  0  0  0  0  0
   -1.2971    0.8477    0.0000 N   0  0  0  0  0  0  0  0  0  0  0  0
   -1.9977    1.2833    0.0000 C   0  0  0  0  0  0  0  0  0  0  0  0
   -1.9708    2.1079    0.0000 O   0  0  0  0  0  0  0  0  0  0  0  0
   -2.7253    0.8943    0.0000 C   0  0  0  0  0  0  0  0  0  0  0  0
   -3.4259    1.3299    0.0000 C   0  0  0  0  0  0  0  0  0  0  0  0
   -4.1535    0.9409    0.0000 C   0  0  0  0  0  0  0  0  0  0  0  0
   -4.8541    1.3764    0.0000 C   0  0  0  0  0  0  0  0  0  0  0  0
   -4.8272    2.2010    0.0000 C   0  0  0  0  0  0  0  0  0  0  0  0
   -4.0997    2.5900    0.0000 C   0  0  0  0  0  0  0  0  0  0  0  0
   -3.3990    2.1544    0.0000 C   0  0  0  0  0  0  0  0  0  0  0  0
   -2.7522    0.0697    0.0000 N   0  0  0  0  0  0  0  0  0  0  0  0
    1.5668    0.6934    0.0000 C   0  0  0  0  0  0  0  0  0  0  0  0
    1.4052   -0.1156    0.0000 O   0  0  0  0  0  0  0  0  0  0  0  0
    2.3658    0.8988    0.0000 N   0  0  0  0  0  0  0  0  0  0  0  0
    2.7034    1.6516    0.0000 N   0  0  0  0  0  0  0  0  0  0  0  0
    2.3253    2.3849    0.0000 C   0  0  0  0  0  0  0  0  0  0  0  0
  1  2  1  0
  2  3  1  0
  2  6  1  0
  3  4  2  0
  4  5  1  0
  4  7  1  0
  5  6  2  0
  7  8  2  0
  7 15  1  0
  8  9  1  0
  8 31  1  0
  9 10  1  0
  9 14  2  0
 10 11  2  0
 10 27  1  0
 11 12  1  0
 12 13  2  0
 12 16  1  0
 13 14  1  0
 14 15  1  0
 16 17  1  0
 17 18  2  0
 17 19  1  0
 19 20  1  0
 19 26  1  6
 20 21  1  0
 20 25  1  0
 21 22  1  0
 22 23  1  0
 23 24  1  0
 24 25  1  0
 27 28  2  0
 27 29  1  0
 29 30  1  0
 30 31  2  0
M  END
>  <DRUGBANK_ID>  (1) 
DB12611

>  <COMMON_NAME>  (1) 
PF-477736

>  <CAS_NUMBER>  (1) 
952021-60-2

>  <UNII>  (1) 
XO23PGZ0SM

$$$$
