
     RDKit          2D

 28 30  0  0  1  0  0  0  0  0999 V2000
   -0.1712   -0.6979    0.0000 C   0  0  0  0  0  0  0  0  0  0  0  0
    0.6538   -0.6979    0.0000 C   0  0  0  0  0  0  0  0  0  0  0  0
    1.1387   -0.0305    0.0000 C   0  0  0  0  0  0  0  0  0  0  0  0
    1.9233   -0.2854    0.0000 C   0  0  0  0  0  0  0  0  0  0  0  0
    2.6378    0.1271    0.0000 N   0  0  0  0  0  0  0  0  0  0  0  0
    3.3523   -0.2854    0.0000 C   0  0  0  0  0  0  0  0  0  0  0  0
    3.3523   -1.1104    0.0000 C   0  0  0  0  0  0  0  0  0  0  0  0
    2.6378   -1.5229    0.0000 C   0  0  0  0  0  0  0  0  0  0  0  0
    1.9233   -1.1104    0.0000 N   0  0  0  0  0  0  0  0  0  0  0  0
    1.1387   -1.3654    0.0000 N   0  0  0  0  0  0  0  0  0  0  0  0
    4.0668   -1.5229    0.0000 C   0  0  0  0  0  0  0  0  0  0  0  0
    4.7812   -1.1104    0.0000 O   0  0  0  0  0  0  0  0  0  0  0  0
    4.0668   -2.3479    0.0000 N   0  0  0  0  0  0  0  0  0  0  0  0
    4.7812   -2.7604    0.0000 C   0  0  0  0  0  0  0  0  0  0  0  0
    4.7812   -3.5854    0.0000 C   0  0  0  0  0  0  0  0  0  0  0  0
    3.9562   -3.5854    0.0000 C   0  0  0  0  0  0  0  0  0  0  0  0
    5.6062   -3.5854    0.0000 C   0  0  0  0  0  0  0  0  0  0  0  0
    4.7812   -4.4104    0.0000 N   0  0  0  0  0  0  0  0  0  0  0  0
    5.4957   -4.8229    0.0000 C   0  0  0  0  0  0  0  0  0  0  0  0
    5.4957   -5.6479    0.0000 C   0  0  0  0  0  0  0  0  0  0  0  0
    4.7812   -6.0604    0.0000 O   0  0  0  0  0  0  0  0  0  0  0  0
    6.2102   -6.0604    0.0000 N   0  0  0  0  0  0  0  0  0  0  0  0
    6.9638   -5.7249    0.0000 C   0  0  0  0  0  0  0  0  0  0  0  0
    7.5159   -6.3380    0.0000 C   0  0  0  0  0  0  0  0  0  0  0  0
    7.1034   -7.0525    0.0000 C   0  0  0  0  0  0  0  0  0  0  0  0
    6.2964   -6.8809    0.0000 C   0  0  0  0  0  0  0  0  0  0  0  0
    5.6833   -7.4330    0.0000 C   0  0  0  0  0  0  0  0  0  0  0  0
    5.0702   -7.9850    0.0000 N   0  0  0  0  0  0  0  0  0  0  0  0
  1  2  1  0
  2  3  1  0
  2 10  2  0
  3  4  2  0
  4  5  1  0
  4  9  1  0
  5  6  2  0
  6  7  1  0
  7  8  2  0
  7 11  1  0
  8  9  1  0
  9 10  1  0
 11 12  2  0
 11 13  1  0
 13 14  1  0
 14 15  1  0
 15 16  1  0
 15 17  1  0
 15 18  1  0
 18 19  1  0
 19 20  1  0
 20 21  2  0
 20 22  1  0
 22 23  1  0
 22 26  1  0
 23 24  1  0
 24 25  1  0
 25 26  1  0
 26 27  1  1
 27 28  3  0
M  END
>  <DRUGBANK_ID>  (1) 
DB12417

>  <COMMON_NAME>  (1) 
Anagliptin

>  <CAS_NUMBER>  (1) 
739366-20-2

>  <UNII>  (1) 
K726J96838

>  <SYNONYMS>  (1) 
Anagliptin

$$$$
