
     RDKit          2D

 27 26  0  0  0  0  0  0  0  0999 V2000
   -3.5708    0.0032    0.0000 C   0  0  0  0  0  0  0  0  0  0  0  0
   -2.8567   -0.4102    0.0000 C   0  0  0  0  0  0  0  0  0  0  0  0
   -2.1608    0.0056    0.0000 C   0  0  0  0  0  0  0  0  0  0  0  0
   -1.4468   -0.4077    0.0000 C   0  0  0  0  0  0  0  0  0  0  0  0
   -0.7341    0.0082    0.0000 C   0  0  0  0  0  0  0  0  0  0  0  0
   -0.0202   -0.4051    0.0000 C   0  0  0  0  0  0  0  0  0  0  0  0
   -4.2581   -0.4128    0.0000 C   0  0  0  0  0  0  0  0  0  0  0  0
    0.6922    0.0108    0.0000 O   0  0  0  0  0  0  0  0  0  0  0  0
    2.1213    0.0179    0.0000 O   0  0  0  0  0  0  0  0  0  0  0  0
    2.8358   -0.3946    0.0000 C   0  0  0  0  0  0  0  0  0  0  0  0
    3.5502    0.0179    0.0000 C   0  0  0  0  0  0  0  0  0  0  0  0
    4.2648   -0.3945    0.0000 N   0  0  0  0  0  0  0  0  0  0  0  0
    4.9792    0.0179    0.0000 C   0  0  0  0  0  0  0  0  0  0  0  0
    4.2648   -1.2195    0.0000 C   0  0  0  0  0  0  0  0  0  0  0  0
    4.9810   -0.8128    0.0000 C   0  0  0  0  0  0  0  0  0  0  0  0
    1.4088   -0.3981    0.0000 P   0  0  0  0  0  0  0  0  0  0  0  0
    1.4128   -1.2231    0.0000 O   0  0  0  0  0  0  0  0  0  0  0  0
    1.4088    0.4269    0.0000 O   0  0  0  0  0  0  0  0  0  0  0  0
   -4.9810   -0.0152    0.0000 C   0  0  0  0  0  0  0  0  0  0  0  0
   -1.4305    1.2181    0.0000 C   0  0  0  0  0  0  0  0  0  0  0  0
   -2.1446    0.8047    0.0000 C   0  0  0  0  0  0  0  0  0  0  0  0
   -2.8404    1.2205    0.0000 C   0  0  0  0  0  0  0  0  0  0  0  0
   -3.5544    0.8072    0.0000 C   0  0  0  0  0  0  0  0  0  0  0  0
   -4.2670    1.2231    0.0000 C   0  0  0  0  0  0  0  0  0  0  0  0
   -4.9810    0.8098    0.0000 C   0  0  0  0  0  0  0  0  0  0  0  0
   -0.7431    0.8021    0.0000 C   0  0  0  0  0  0  0  0  0  0  0  0
   -0.0202    1.1995    0.0000 C   0  0  0  0  0  0  0  0  0  0  0  0
  2  1  1  0
  3  2  1  0
  4  3  1  0
  5  4  1  0
  6  5  1  0
  7  1  1  0
  7 19  1  0
  8  6  1  0
  8 16  1  0
 10  9  1  0
 11 10  1  0
 12 11  1  0
 12 13  1  0
 12 14  1  0
 12 15  1  0
 16  9  1  0
 16 17  2  0
 16 18  1  0
 19 25  1  0
 21 20  1  0
 22 21  1  0
 23 22  1  0
 24 23  1  0
 25 24  1  0
 26 20  1  0
 26 27  1  0
M  CHG  2  12   1  18  -1
M  END
>  <DRUGBANK_ID>  (1) 
DB09031

>  <COMMON_NAME>  (1) 
Miltefosine

>  <CAS_NUMBER>  (1) 
58066-85-6

>  <UNII>  (1) 
53EY29W7EC

>  <SYNONYMS>  (1) 
HDPC; hexadecyl 2-(trimethylazaniumyl)ethyl phosphate; Hexadecylphosphocholine; Hexadecylphosphorylcholine; Miltefosin; Miltefosina; Milt√©fosine; Miltefosine; Monohexadecylphosphocholine; Monohexadecylphosphorylcholine

$$$$
