HBC
     RDKit          2D

 22 25  0  0  0  0  0  0  0  0999 V2000
    0.1496   -1.2122    0.0000 C   0  0  0  0  0  0  0  0  0  0  0  0
    0.7873   -1.7357    0.0000 C   0  0  0  0  0  0  0  0  0  0  0  0
    0.6528   -2.5496    0.0000 C   0  0  0  0  0  0  0  0  0  0  0  0
   -0.1194   -2.8402    0.0000 C   0  0  0  0  0  0  0  0  0  0  0  0
   -0.7571   -2.3167    0.0000 C   0  0  0  0  0  0  0  0  0  0  0  0
   -0.6226   -1.5027    0.0000 C   0  0  0  0  0  0  0  0  0  0  0  0
   -1.0841    0.4955    0.0000 C   0  0  0  0  0  0  0  0  0  0  0  0
   -1.8596    0.1052    0.0000 C   0  0  0  0  0  0  0  0  0  0  0  0
   -1.4943    0.7657    0.0000 C   0  0  0  0  0  0  0  0  0  0  0  0
   -0.8540    1.2159    0.0000 C   0  0  0  0  0  0  0  0  0  0  0  0
   -1.0140    2.0313    0.0000 C   0  0  0  0  0  0  0  0  0  0  0  0
   -0.0585    0.7506    0.0000 C   0  0  0  0  0  0  0  0  0  0  0  0
   -0.3536    0.1252    0.0000 C   0  0  0  0  0  0  0  0  0  0  0  0
   -0.5358   -0.6794    0.0000 N   0  0  0  0  0  0  0  0  0  0  0  0
    0.2841   -0.3983    0.0000 C   0  0  0  0  0  0  0  0  0  0  0  0
    1.0562   -0.1077    0.0000 O   0  0  0  0  0  0  0  0  0  0  0  0
    1.3350    0.4342    0.0000 C   0  0  0  0  0  0  0  0  0  0  0  0
    0.7296    0.9947    0.0000 C   0  0  0  0  0  0  0  0  0  0  0  0
    0.9122    1.7992    0.0000 C   0  0  0  0  0  0  0  0  0  0  0  0
    1.7003    2.0432    0.0000 C   0  0  0  0  0  0  0  0  0  0  0  0
    2.3057    1.4828    0.0000 C   0  0  0  0  0  0  0  0  0  0  0  0
    2.1230    0.6783    0.0000 C   0  0  0  0  0  0  0  0  0  0  0  0
  1  2  2  0
  1  6  1  0
  1 15  1  0
  2  3  1  0
  3  4  2  0
  4  5  1  0
  5  6  2  0
  7  8  1  6
  7 11  1  0
  7 13  1  0
  8  9  1  0
 10  9  1  1
 10 11  1  0
 10 12  1  0
 12 13  1  0
 12 18  1  1
 13 14  1  6
 13 15  1  0
 15 16  2  0
 17 18  2  0
 17 22  1  0
 18 19  1  0
 19 20  2  0
 20 21  1  0
 21 22  2  0
M  END
>  <DRUGBANK_ID>  (1) 
DB07883

>  <COMMON_NAME>  (1) 
(2-AMINO-3-PHENYL-BICYCLO[2.2.1]HEPT-2-YL)-PHENYL-METHANONE

$$$$
