K25
     RDKit          2D

 16 17  0  0  0  0  0  0  0  0999 V2000
    3.5420    0.5302    0.0000 C   0  0  0  0  0  0  0  0  0  0  0  0
    3.5420   -0.2948    0.0000 C   0  0  0  0  0  0  0  0  0  0  0  0
    2.8275   -0.7073    0.0000 C   0  0  0  0  0  0  0  0  0  0  0  0
    2.8275    0.9427    0.0000 C   0  0  0  0  0  0  0  0  0  0  0  0
    1.3284   -0.5497    0.0000 N   0  0  0  0  0  0  0  0  0  0  0  0
    2.1130    0.5302    0.0000 C   0  0  0  0  0  0  0  0  0  0  0  0
    2.1130   -0.2948    0.0000 C   0  0  0  0  0  0  0  0  0  0  0  0
    0.8435    0.1177    0.0000 C   0  0  0  0  0  0  0  0  0  0  0  0
    1.3284    0.7851    0.0000 N   0  0  0  0  0  0  0  0  0  0  0  0
    0.0185    0.1177    0.0000 N   0  0  0  0  0  0  0  0  0  0  0  0
   -0.3940   -0.5968    0.0000 C   0  0  0  0  0  0  0  0  0  0  0  0
   -0.3940    0.8322    0.0000 C   0  0  0  0  0  0  0  0  0  0  0  0
    4.2564    0.9427    0.0000 Br  0  0  0  0  0  0  0  0  0  0  0  0
    4.2564   -0.7073    0.0000 Br  0  0  0  0  0  0  0  0  0  0  0  0
    2.8275   -1.5323    0.0000 Br  0  0  0  0  0  0  0  0  0  0  0  0
    2.8275    1.7677    0.0000 Br  0  0  0  0  0  0  0  0  0  0  0  0
  1  2  2  0
  1  4  1  0
  1 13  1  0
  2  3  1  0
  2 14  1  0
  3  7  2  0
  3 15  1  0
  4  6  2  0
  4 16  1  0
  5  7  1  0
  5  8  1  0
  6  7  1  0
  6  9  1  0
  8  9  2  0
  8 10  1  0
 10 11  1  0
 10 12  1  0
M  END
>  <DRUGBANK_ID>  (1) 
DB04719

>  <COMMON_NAME>  (1) 
DIMETHYL-(4,5,6,7-TETRABROMO-1H-BENZOIMIDAZOL-2-YL)-AMINE

$$$$
