
     RDKit          2D

 12  8  0  0  0  0  0  0  0  0999 V2000
    0.0000    0.0000    0.0000 Al  0  0  0  0  0 15  0  0  0  0  0  0
    0.8839    0.0000    0.0000 K   0  0  0  0  0 15  0  0  0  0  0  0
    0.0000   -3.3000    0.0000 O   0  0  0  0  0  0  0  0  0  0  0  0
    0.0000   -2.4750    0.0000 S   0  0  0  0  0  0  0  0  0  0  0  0
    0.0000   -1.6500    0.0000 O   0  0  0  0  0  0  0  0  0  0  0  0
    0.8250   -2.4750    0.0000 O   0  0  0  0  0  0  0  0  0  0  0  0
   -0.8250   -2.4750    0.0000 O   0  0  0  0  0  0  0  0  0  0  0  0
    3.6536   -3.3000    0.0000 O   0  0  0  0  0  0  0  0  0  0  0  0
    3.6536   -2.4750    0.0000 S   0  0  0  0  0  0  0  0  0  0  0  0
    3.6536   -1.6500    0.0000 O   0  0  0  0  0  0  0  0  0  0  0  0
    4.4786   -2.4750    0.0000 O   0  0  0  0  0  0  0  0  0  0  0  0
    2.8286   -2.4750    0.0000 O   0  0  0  0  0  0  0  0  0  0  0  0
  3  4  1  0
  4  5  1  0
  4  6  2  0
  4  7  2  0
  8  9  1  0
  9 10  1  0
  9 11  2  0
  9 12  2  0
M  CHG  6   1   3   2   1   3  -1   5  -1   8  -1  10  -1
M  END
>  <DRUGBANK_ID>  (1) 
DB09087

>  <COMMON_NAME>  (1) 
Potassium alum

>  <CAS_NUMBER>  (1) 
10043-67-1

>  <UNII>  (1) 
09OXB01F3O

>  <SYNONYMS>  (1) 
Alum, potassium; Aluminium potassium bis(sulphate); Aluminium potassium sulfate; Aluminum potassium alum; Aluminum potassium disulfate; Aluminum potassium sulfate; Aluminum potassium sulfate anhydrous; Burnt potassium alum; Potash alum; Potassium aluminium sulfate; Potassium aluminum disulfate

$$$$
