
     RDKit          2D

 22 22  0  0  1  0  0  0  0  0999 V2000
    2.1434    3.7125    0.0000 C   0  0  0  0  0  0  0  0  0  0  0  0
    2.8579    4.1250    0.0000 C   0  0  0  0  0  0  0  0  0  0  0  0
    2.8579    4.9500    0.0000 Cl  0  0  0  0  0  0  0  0  0  0  0  0
    2.1434    2.8875    0.0000 N   0  0  0  0  0  0  0  0  0  0  0  0
    1.4289    2.4750    0.0000 P   0  0  0  0  0  0  0  0  0  0  0  0
    1.0164    3.1895    0.0000 O   0  0  0  0  0  0  0  0  0  0  0  0
    1.8414    1.7605    0.0000 N   0  0  0  0  0  0  0  0  0  0  0  0
    2.6664    1.7605    0.0000 C   0  0  0  0  0  0  0  0  0  0  0  0
    3.0789    1.0461    0.0000 C   0  0  0  0  0  0  0  0  0  0  0  0
    2.6664    0.3316    0.0000 Cl  0  0  0  0  0  0  0  0  0  0  0  0
    0.7145    2.0625    0.0000 O   0  0  0  0  0  0  0  0  0  0  0  0
    0.7145    1.2375    0.0000 C   0  0  0  0  0  0  0  0  0  0  0  0
    1.4289    0.8250    0.0000 C   0  0  0  0  0  0  0  0  0  0  0  0
    1.4289   -0.0000    0.0000 C   0  0  0  0  0  0  0  0  0  0  0  0
    0.7145   -0.4125    0.0000 C   0  0  0  0  0  0  0  0  0  0  0  0
    0.0000    0.0000    0.0000 C   0  0  0  0  0  0  0  0  0  0  0  0
    0.0000    0.8250    0.0000 O   0  0  0  0  0  0  0  0  0  0  0  0
   -0.7145   -0.4125    0.0000 C   0  0  0  0  0  0  0  0  0  0  0  0
   -0.7145   -1.2375    0.0000 O   0  0  0  0  0  0  0  0  0  0  0  0
    0.7145   -1.2375    0.0000 O   0  0  0  0  0  0  0  0  0  0  0  0
    2.1434   -0.4125    0.0000 O   0  0  0  0  0  0  0  0  0  0  0  0
    2.1434    1.2375    0.0000 O   0  0  0  0  0  0  0  0  0  0  0  0
  1  2  1  0
  1  4  1  0
  2  3  1  0
  4  5  1  0
  5  6  2  0
  5  7  1  0
  5 11  1  0
  7  8  1  0
  8  9  1  0
  9 10  1  0
 12 11  1  1
 12 13  1  0
 12 17  1  0
 13 14  1  0
 13 22  1  6
 14 15  1  0
 14 21  1  1
 15 16  1  0
 15 20  1  6
 16 17  1  0
 16 18  1  1
 18 19  1  0
M  END
>  <DRUGBANK_ID>  (1) 
DB06177

>  <COMMON_NAME>  (1) 
Glufosfamide

>  <CAS_NUMBER>  (1) 
132682-98-5

>  <UNII>  (1) 
1W5N8SZD9A

>  <SYNONYMS>  (1) 
Glufosfamide

$$$$
