
     RDKit          2D

 27 29  0  0  0  0  0  0  0  0999 V2000
   -2.8530    1.0181    0.0000 C   0  0  0  0  0  0  0  0  0  0  0  0
   -2.8542    0.1896    0.0000 C   0  0  0  0  0  0  0  0  0  0  0  0
   -2.1383   -0.2239    0.0000 C   0  0  0  0  0  0  0  0  0  0  0  0
   -1.4208    0.1900    0.0000 C   0  0  0  0  0  0  0  0  0  0  0  0
   -1.4237    1.0218    0.0000 C   0  0  0  0  0  0  0  0  0  0  0  0
   -2.1401    1.4315    0.0000 C   0  0  0  0  0  0  0  0  0  0  0  0
   -0.7109    1.4355    0.0000 O   0  0  0  0  0  0  0  0  0  0  0  0
    0.0026    1.0264    0.0000 C   0  0  0  0  0  0  0  0  0  0  0  0
    0.7162    1.4396    0.0000 C   0  0  0  0  0  0  0  0  0  0  0  0
    1.4297    1.0307    0.0000 C   0  0  0  0  0  0  0  0  0  0  0  0
    1.4304    0.2072    0.0000 C   0  0  0  0  0  0  0  0  0  0  0  0
    2.1399   -0.2015    0.0000 C   0  0  0  0  0  0  0  0  0  0  0  0
    2.8533    0.2084    0.0000 N   0  0  0  0  0  0  0  0  0  0  0  0
    2.8526    1.0318    0.0000 C   0  0  0  0  0  0  0  0  0  0  0  0
    2.1386    1.4452    0.0000 C   0  0  0  0  0  0  0  0  0  0  0  0
    3.5685   -0.2051    0.0000 C   0  0  0  0  0  0  0  0  0  0  0  0
    3.5631   -1.0318    0.0000 C   0  0  0  0  0  0  0  0  0  0  0  0
    4.2775   -1.4452    0.0000 C   0  0  0  0  0  0  0  0  0  0  0  0
    4.9943   -1.0325    0.0000 C   0  0  0  0  0  0  0  0  0  0  0  0
    4.9921   -0.2019    0.0000 N   0  0  0  0  0  0  0  0  0  0  0  0
    4.2770    0.2077    0.0000 N   0  0  0  0  0  0  0  0  0  0  0  0
    5.7100   -1.4451    0.0000 C   0  0  0  0  0  0  0  0  0  0  0  0
   -3.5693   -0.2212    0.0000 C   0  0  0  0  0  0  0  0  0  0  0  0
   -4.2829    0.1919    0.0000 O   0  0  0  0  0  0  0  0  0  0  0  0
   -4.9965   -0.2212    0.0000 C   0  0  0  0  0  0  0  0  0  0  0  0
   -5.7100    0.1919    0.0000 C   0  0  0  0  0  0  0  0  0  0  0  0
   -3.5707   -1.0474    0.0000 O   0  0  0  0  0  0  0  0  0  0  0  0
  1  2  2  0
  2  3  1  0
  2 23  1  0
  3  4  2  0
  4  5  1  0
  5  6  2  0
  5  7  1  0
  6  1  1  0
  7  8  1  0
  8  9  1  0
  9 10  1  0
 10 15  1  0
 10 11  1  0
 11 12  1  0
 12 13  1  0
 13 14  1  0
 13 16  1  0
 14 15  1  0
 16 17  2  0
 17 18  1  0
 18 19  2  0
 19 20  1  0
 19 22  1  0
 20 21  2  0
 21 16  1  0
 23 24  1  0
 23 27  2  0
 24 25  1  0
 25 26  1  0
M  END
>  <DRUGBANK_ID>  (1) 
DB08012

>  <COMMON_NAME>  (1) 
Pirodavir

>  <CAS_NUMBER>  (1) 
124436-59-5

>  <UNII>  (1) 
BML697718K

>  <SYNONYMS>  (1) 
Pirodavir; Pirodavirum

$$$$
