
     RDKit          2D

 25 25  0  0  1  0  0  0  0  0999 V2000
   -0.5662    5.6452    0.0000 C   0  0  0  0  0  0  0  0  0  0  0  0
    0.1483    6.0577    0.0000 C   0  0  0  0  0  0  0  0  0  0  0  0
    0.8628    5.6452    0.0000 C   0  0  0  0  0  0  0  0  0  0  0  0
    5.6332    8.1467    0.0000 C   0  0  0  0  0  0  0  0  0  0  0  0
    6.4178    8.4017    0.0000 C   0  0  0  0  0  0  0  0  0  0  0  0
    1.5772    6.0577    0.0000 C   0  0  0  0  0  0  0  0  0  0  0  0
    5.4617    7.3398    0.0000 C   0  0  0  0  0  0  0  0  0  0  0  0
    6.5894    9.2087    0.0000 C   0  0  0  0  0  0  0  0  0  0  0  0
    2.2917    5.6452    0.0000 C   0  0  0  0  0  0  0  0  0  0  0  0
    6.0748    6.7877    0.0000 C   0  0  0  0  0  0  0  0  0  0  0  0
    5.9763    9.7607    0.0000 C   0  0  0  0  0  0  0  0  0  0  0  0
    3.7206    5.6452    0.0000 C   0  0  0  0  0  0  0  0  0  0  0  0
    4.4351    6.0577    0.0000 C   0  0  0  0  0  0  0  0  0  0  0  0
    6.0428    4.6532    0.0000 C   0  0  0  0  0  0  0  0  0  0  0  0
    3.0062    6.0577    0.0000 C   0  0  0  0  0  0  0  0  0  0  0  0
    5.9033    5.9808    0.0000 C   0  0  0  0  0  0  0  0  0  0  0  0
    5.1496    5.6452    0.0000 C   0  0  0  0  0  0  0  0  0  0  0  0
    6.4553    5.3677    0.0000 C   0  0  0  0  0  0  0  0  0  0  0  0
    5.2358    4.8247    0.0000 C   0  0  0  0  0  0  0  0  0  0  0  0
    6.1478   10.5677    0.0000 C   0  0  0  0  0  0  0  0  0  0  0  0
    3.0062    6.8827    0.0000 O   0  0  0  0  0  0  0  0  0  0  0  0
    7.2758    5.4539    0.0000 O   0  0  0  0  0  0  0  0  0  0  0  0
    4.6227    4.2727    0.0000 O   0  0  0  0  0  0  0  0  0  0  0  0
    5.5347   11.1197    0.0000 O   0  0  0  0  0  0  0  0  0  0  0  0
    6.9324   10.8226    0.0000 O   0  0  0  0  0  0  0  0  0  0  0  0
  2  1  1  0
  3  2  1  0
  5  4  1  0
  6  3  1  0
  7  4  2  0
  8  5  1  0
  9  6  1  0
 10  7  1  0
 11  8  1  0
 13 12  2  0
 15  9  1  0
 15 12  1  0
 15 21  1  6
 16 10  1  1
 17 13  1  6
 17 16  1  0
 18 14  1  0
 18 16  1  0
 18 22  1  1
 19 14  1  0
 19 17  1  0
 19 23  1  1
 20 11  1  0
 24 20  2  0
 25 20  1  0
M  END
>  <DRUGBANK_ID>  (1) 
DB12789

>  <COMMON_NAME>  (1) 
Dinoprost

>  <CAS_NUMBER>  (1) 
551-11-1

>  <UNII>  (1) 
B7IN85G1HY

>  <SYNONYMS>  (1) 
Dinoprost; dinoprosta

$$$$
