
     RDKit          2D

 36 41  0  0  0  0  0  0  0  0999 V2000
    1.1311   -1.0011    0.0000 C   0  0  0  0  0  0  0  0  0  0  0  0
   -0.3679   -1.9837    0.0000 C   0  0  0  0  0  0  0  0  0  0  0  0
    1.1311    0.3337    0.0000 C   0  0  0  0  0  0  0  0  0  0  0  0
   -0.3679    0.4912    0.0000 C   0  0  0  0  0  0  0  0  0  0  0  0
    1.6160   -0.3337    0.0000 C   0  0  0  0  0  0  0  0  0  0  0  0
   -1.7969   -1.1587    0.0000 C   0  0  0  0  0  0  0  0  0  0  0  0
   -1.0824    0.0787    0.0000 C   0  0  0  0  0  0  0  0  0  0  0  0
   -1.0824   -2.3962    0.0000 C   0  0  0  0  0  0  0  0  0  0  0  0
   -1.7969   -1.9837    0.0000 C   0  0  0  0  0  0  0  0  0  0  0  0
   -2.5114   -0.7462    0.0000 C   0  0  0  0  0  0  0  0  0  0  0  0
   -2.5114   -2.3962    0.0000 C   0  0  0  0  0  0  0  0  0  0  0  0
   -3.2258   -1.1587    0.0000 C   0  0  0  0  0  0  0  0  0  0  0  0
   -0.3679   -1.1587    0.0000 C   0  0  0  0  0  0  0  0  0  0  0  0
   -1.0824   -0.7462    0.0000 C   0  0  0  0  0  0  0  0  0  0  0  0
   -1.0824   -1.5712    0.0000 F   0  0  0  0  0  0  0  0  0  0  0  0
    0.3464    0.0787    0.0000 C   0  0  0  0  0  0  0  0  0  0  0  0
    0.3464    0.9037    0.0000 C   0  0  0  0  0  0  0  0  0  0  0  0
    0.3464   -0.7462    0.0000 C   0  0  0  0  0  0  0  0  0  0  0  0
   -3.9403   -2.3962    0.0000 O   0  0  0  0  0  0  0  0  0  0  0  0
   -3.2258   -1.9837    0.0000 C   0  0  0  0  0  0  0  0  0  0  0  0
   -1.7969   -0.3337    0.0000 C   0  0  0  0  0  0  0  0  0  0  0  0
    1.8456    0.7462    0.0000 O   0  0  0  0  0  0  0  0  0  0  0  0
    1.1311    1.1587    0.0000 C   0  0  0  0  0  0  0  0  0  0  0  0
   -1.7969    0.4912    0.0000 O   0  0  0  0  0  0  0  0  0  0  0  0
    0.4166    1.5712    0.0000 C   0  0  0  0  0  0  0  0  0  0  0  0
   -0.2977    1.1587    0.0000 O   0  0  0  0  0  0  0  0  0  0  0  0
    1.8456    1.5712    0.0000 O   0  0  0  0  0  0  0  0  0  0  0  0
    2.4129   -0.1202    0.0000 O   0  0  0  0  0  0  0  0  0  0  0  0
    2.6425    0.5327    0.0000 C   0  0  0  0  0  0  0  0  0  0  0  0
   -1.0122    1.5712    0.0000 C   0  0  0  0  0  0  0  0  0  0  0  0
   -1.7266    1.1587    0.0000 C   0  0  0  0  0  0  0  0  0  0  0  0
   -1.0122    2.3962    0.0000 O   0  0  0  0  0  0  0  0  0  0  0  0
    3.3569    0.1202    0.0000 C   0  0  0  0  0  0  0  0  0  0  0  0
    2.6425    1.3577    0.0000 C   0  0  0  0  0  0  0  0  0  0  0  0
    3.4394    1.5712    0.0000 C   0  0  0  0  0  0  0  0  0  0  0  0
    3.9403    0.7036    0.0000 C   0  0  0  0  0  0  0  0  0  0  0  0
  2  8  1  0
  3  5  1  0
  3 22  1  0
  3 23  1  1
  4  7  1  0
  5  1  1  6
  5 28  1  0
  6  9  1  0
  6 10  1  0
  6 21  1  1
  7 24  1  1
  8  9  1  0
  9 11  2  0
 10 12  2  0
 11 20  1  0
 12 20  1  0
 13 14  1  0
 13  2  1  6
 14  6  1  0
 14  7  1  0
 14 15  1  6
 16  3  1  0
 16  4  1  0
 16 17  1  1
 18 13  1  0
 18 16  1  0
 18  1  1  1
 20 19  2  0
 22 29  1  0
 23 25  1  0
 23 27  2  0
 25 26  1  0
 26 30  1  0
 28 29  1  0
 29 34  1  0
 30 31  1  0
 30 32  2  0
 33 29  1  0
 33 36  1  0
 34 35  1  0
 36 35  1  0
M  END
>  <DRUGBANK_ID>  (1) 
DB00288

>  <SECONDARY_ACCESSION_NUMBERS>  (1) 
APRD00788

>  <COMMON_NAME>  (1) 
Amcinonide

>  <CAS_NUMBER>  (1) 
51022-69-6

>  <UNII>  (1) 
423W026MA9

>  <SYNONYMS>  (1) 
Amcin√≥nida; Amcinonide; Amcinonidum; Triamcinolonacetatcyclopentanonid

$$$$
