
     RDKit          2D

 20 19  0  0  0  0  0  0  0  0999 V2000
    0.4946    0.0317    0.0000 C   0  0  0  0  0  0  0  0  0  0  0  0
    0.4946   -0.7933    0.0000 C   0  0  0  0  0  0  0  0  0  0  0  0
   -0.2198   -1.2058    0.0000 C   0  0  0  0  0  0  0  0  0  0  0  0
   -0.2198   -2.0308    0.0000 O   0  0  0  0  0  0  0  0  0  0  0  0
   -0.9343   -0.7933    0.0000 C   0  0  0  0  0  0  0  0  0  0  0  0
   -0.9343    0.0317    0.0000 C   0  0  0  0  0  0  0  0  0  0  0  0
   -0.2198    0.4442    0.0000 N   0  0  0  0  0  0  0  0  0  0  0  0
   -0.2198    1.2692    0.0000 C   0  0  0  0  0  0  0  0  0  0  0  0
    0.4946    1.6817    0.0000 C   0  0  0  0  0  0  0  0  0  0  0  0
    0.4946    2.5067    0.0000 O   0  0  0  0  0  0  0  0  0  0  0  0
    1.2091    1.2692    0.0000 O   0  0  0  0  0  0  0  0  0  0  0  0
   -1.6488   -1.2058    0.0000 I   0  0  0  0  0  0  0  0  0  0  0  0
    1.2091   -1.2058    0.0000 I   0  0  0  0  0  0  0  0  0  0  0  0
    4.5238    0.1768    0.0000 C   0  0  0  0  0  0  0  0  0  0  0  0
    3.8093   -0.2357    0.0000 C   0  0  0  0  0  0  0  0  0  0  0  0
    3.0948    0.1768    0.0000 O   0  0  0  0  0  0  0  0  0  0  0  0
    5.2382   -0.2357    0.0000 N   0  0  0  0  0  0  0  0  0  0  0  0
    5.9527    0.1768    0.0000 C   0  0  0  0  0  0  0  0  0  0  0  0
    6.6672   -0.2357    0.0000 C   0  0  0  0  0  0  0  0  0  0  0  0
    7.3816    0.1768    0.0000 O   0  0  0  0  0  0  0  0  0  0  0  0
  1  2  2  0
  1  7  1  0
  2  3  1  0
  2 13  1  0
  3  4  2  0
  3  5  1  0
  5  6  2  0
  5 12  1  0
  6  7  1  0
  7  8  1  0
  8  9  1  0
  9 10  2  0
  9 11  1  0
 14 15  1  0
 14 17  1  0
 15 16  1  0
 17 18  1  0
 18 19  1  0
 19 20  1  0
M  END
>  <DRUGBANK_ID>  (1) 
DB13568

>  <COMMON_NAME>  (1) 
Diodone

>  <CAS_NUMBER>  (1) 
300-37-8

>  <UNII>  (1) 
ZTK4026YJ5

>  <SYNONYMS>  (1) 
Diodone; Iodopyracet

$$$$
