
     RDKit          2D

 35 39  0  0  0  0  0  0  0  0999 V2000
   -3.7125   -0.3572    0.0000 O   0  0  0  0  0  0  0  0  0  0  0  0
   -2.8875   -0.3572    0.0000 C   0  0  0  0  0  0  0  0  0  0  0  0
   -2.4750   -1.0716    0.0000 C   0  0  0  0  0  0  0  0  0  0  0  0
   -2.8875   -1.7861    0.0000 O   0  0  0  0  0  0  0  0  0  0  0  0
   -1.6500   -1.0716    0.0000 C   0  0  0  0  0  0  0  0  0  0  0  0
   -1.2375   -0.3572    0.0000 C   0  0  0  0  0  0  0  0  0  0  0  0
   -0.8250   -1.0716    0.0000 C   0  0  0  0  0  0  0  0  0  0  0  0
   -0.4125   -0.3572    0.0000 C   0  0  0  0  0  0  0  0  0  0  0  0
    0.0000   -1.0716    0.0000 C   0  0  0  0  0  0  0  0  0  0  0  0
    0.8249   -1.0716    0.0000 C   0  0  0  0  0  0  0  0  0  0  0  0
    1.2374   -0.3572    0.0000 C   0  0  0  0  0  0  0  0  0  0  0  0
    2.0624   -0.3572    0.0000 C   0  0  0  0  0  0  0  0  0  0  0  0
    2.4749   -1.0716    0.0000 C   0  0  0  0  0  0  0  0  0  0  0  0
    2.0624   -1.7861    0.0000 C   0  0  0  0  0  0  0  0  0  0  0  0
    3.3000   -1.0716    0.0000 C   0  0  0  0  0  0  0  0  0  0  0  0
    3.7125   -1.7861    0.0000 C   0  0  0  0  0  0  0  0  0  0  0  0
    3.7125   -0.3572    0.0000 C   0  0  0  0  0  0  0  0  0  0  0  0
    3.3000    0.3572    0.0000 C   0  0  0  0  0  0  0  0  0  0  0  0
    2.4749    0.3572    0.0000 C   0  0  0  0  0  0  0  0  0  0  0  0
    2.8874    1.0717    0.0000 C   0  0  0  0  0  0  0  0  0  0  0  0
    2.4749    1.7861    0.0000 O   0  0  0  0  0  0  0  0  0  0  0  0
    3.7125    1.0717    0.0000 O   0  0  0  0  0  0  0  0  0  0  0  0
    2.0624    1.0717    0.0000 C   0  0  0  0  0  0  0  0  0  0  0  0
    1.2374    1.0717    0.0000 C   0  0  0  0  0  0  0  0  0  0  0  0
    0.8249    0.3572    0.0000 C   0  0  0  0  0  0  0  0  0  0  0  0
    0.4124    1.0717    0.0000 C   0  0  0  0  0  0  0  0  0  0  0  0
    0.0000    0.3572    0.0000 C   0  0  0  0  0  0  0  0  0  0  0  0
   -0.0862    1.1777    0.0000 C   0  0  0  0  0  0  0  0  0  0  0  0
   -0.4125    1.0717    0.0000 C   0  0  0  0  0  0  0  0  0  0  0  0
   -1.2375    1.0717    0.0000 C   0  0  0  0  0  0  0  0  0  0  0  0
   -1.6500    0.3572    0.0000 C   0  0  0  0  0  0  0  0  0  0  0  0
   -2.4750    0.3572    0.0000 C   0  0  0  0  0  0  0  0  0  0  0  0
   -2.3317    1.1697    0.0000 C   0  0  0  0  0  0  0  0  0  0  0  0
   -3.2502    0.6394    0.0000 C   0  0  0  0  0  0  0  0  0  0  0  0
   -3.3935    1.4518    0.0000 O   0  0  0  0  0  0  0  0  0  0  0  0
  2 32  1  0
  2  1  1  6
  3  2  1  0
  3  4  1  1
  5  6  1  0
  5  3  1  0
  6  7  1  6
  6  8  1  0
  6 31  1  0
  8  9  1  6
  9 10  1  0
 10 11  2  0
 11 25  1  0
 12 11  1  1
 12 13  1  0
 13 14  1  6
 13 15  1  0
 15 17  1  0
 15 16  1  1
 17 18  1  0
 19 20  1  6
 19 18  1  0
 19 12  1  0
 20 22  2  0
 20 21  1  0
 23 19  1  0
 24 23  1  0
 25 27  1  0
 25 24  1  0
 25 26  1  1
 27 28  1  6
 27  8  1  0
 29 27  1  0
 30 29  1  0
 31 30  1  6
 32 33  1  6
 32 31  1  0
 32 34  1  0
 34 35  1  0
M  END
>  <DRUGBANK_ID>  (1) 
DB14054

>  <COMMON_NAME>  (1) 
Asiatic acid

>  <CAS_NUMBER>  (1) 
464-92-6

>  <UNII>  (1) 
9PA5A687X5

>  <SYNONYMS>  (1) 
Dammarolic acid

$$$$
