
     RDKit          2D

 22 24  0  0  0  0  0  0  0  0999 V2000
   -0.4421    5.5539    0.0000 C   0  0  0  0  0  0  0  0  0  0  0  0
    2.0329    3.0789    0.0000 C   0  0  0  0  0  0  0  0  0  0  0  0
    5.7454    6.2684    0.0000 C   0  0  0  0  0  0  0  0  0  0  0  0
   -0.0296    4.8395    0.0000 C   0  0  0  0  0  0  0  0  0  0  0  0
   -0.0296    6.2684    0.0000 C   0  0  0  0  0  0  0  0  0  0  0  0
    2.7474    3.4914    0.0000 C   0  0  0  0  0  0  0  0  0  0  0  0
    1.3184    3.4914    0.0000 C   0  0  0  0  0  0  0  0  0  0  0  0
    5.3329    6.9829    0.0000 C   0  0  0  0  0  0  0  0  0  0  0  0
    5.3329    5.5539    0.0000 C   0  0  0  0  0  0  0  0  0  0  0  0
    0.7954    4.8395    0.0000 C   0  0  0  0  0  0  0  0  0  0  0  0
    0.7954    6.2684    0.0000 C   0  0  0  0  0  0  0  0  0  0  0  0
    2.7474    4.3164    0.0000 C   0  0  0  0  0  0  0  0  0  0  0  0
    1.3184    4.3164    0.0000 C   0  0  0  0  0  0  0  0  0  0  0  0
    2.8579    5.5539    0.0000 C   0  0  0  0  0  0  0  0  0  0  0  0
    4.5079    6.9829    0.0000 C   0  0  0  0  0  0  0  0  0  0  0  0
    4.5079    5.5539    0.0000 C   0  0  0  0  0  0  0  0  0  0  0  0
    3.2704    6.2684    0.0000 C   0  0  0  0  0  0  0  0  0  0  0  0
    1.2079    5.5539    0.0000 C   0  0  0  0  0  0  0  0  0  0  0  0
    2.0329    4.7289    0.0000 C   0  0  0  0  0  0  0  0  0  0  0  0
    2.0329    5.5539    0.0000 C   0  0  0  0  0  0  0  0  0  0  0  0
    4.0954    6.2684    0.0000 N   0  0  0  0  0  0  0  0  0  0  0  0
    2.0329    6.3789    0.0000 O   0  0  0  0  0  0  0  0  0  0  0  0
  4  1  2  0
  5  1  1  0
  6  2  2  0
  7  2  1  0
  8  3  1  0
  9  3  1  0
 10  4  1  0
 11  5  2  0
 12  6  1  0
 13  7  2  0
 15  8  1  0
 16  9  1  0
 17 14  1  0
 18 10  2  0
 18 11  1  0
 19 12  2  0
 19 13  1  0
 20 14  1  0
 20 18  1  0
 20 19  1  0
 21 15  1  0
 21 16  1  0
 21 17  1  0
 22 20  1  0
M  END
>  <DRUGBANK_ID>  (1) 
DB13642

>  <COMMON_NAME>  (1) 
Pridinol

>  <CAS_NUMBER>  (1) 
511-45-5

>  <UNII>  (1) 
9E75Q6SUUB

>  <SYNONYMS>  (1) 
Pridinol

$$$$
