
     RDKit          2D

 35 39  0  0  0  0  0  0  0  0999 V2000
   -2.3738    0.9369    0.0000 C   0  0  0  0  0  0  0  0  0  0  0  0
   -1.6592    1.3492    0.0000 C   0  0  0  0  0  0  0  0  0  0  0  0
   -0.9472    0.9373    0.0000 C   0  0  0  0  0  0  0  0  0  0  0  0
   -0.9472    0.1119    0.0000 C   0  0  0  0  0  0  0  0  0  0  0  0
   -1.6574   -0.2997    0.0000 C   0  0  0  0  0  0  0  0  0  0  0  0
   -2.3738    0.1082    0.0000 C   0  0  0  0  0  0  0  0  0  0  0  0
   -1.6592    2.1743    0.0000 O   0  0  0  0  0  0  0  0  0  0  0  0
   -0.9447    2.5868    0.0000 C   0  0  0  0  0  0  0  0  0  0  0  0
   -0.9444    3.4119    0.0000 C   0  0  0  0  0  0  0  0  0  0  0  0
   -0.2317    3.8226    0.0000 C   0  0  0  0  0  0  0  0  0  0  0  0
    0.4830    3.4099    0.0000 C   0  0  0  0  0  0  0  0  0  0  0  0
    0.4845    2.5889    0.0000 C   0  0  0  0  0  0  0  0  0  0  0  0
   -0.2271    2.1725    0.0000 C   0  0  0  0  0  0  0  0  0  0  0  0
   -1.6574   -1.1249    0.0000 C   0  0  0  0  0  0  0  0  0  0  0  0
   -2.3245   -1.6095    0.0000 C   0  0  0  0  0  0  0  0  0  0  0  0
   -2.0697   -2.3938    0.0000 C   0  0  0  0  0  0  0  0  0  0  0  0
   -1.2451   -2.3938    0.0000 N   0  0  0  0  0  0  0  0  0  0  0  0
   -0.9902   -1.6095    0.0000 N   0  0  0  0  0  0  0  0  0  0  0  0
   -3.1215   -1.3960    0.0000 C   0  0  0  0  0  0  0  0  0  0  0  0
   -3.3351   -0.5991    0.0000 N   0  0  0  0  0  0  0  0  0  0  0  0
   -3.7049   -1.9794    0.0000 O   0  0  0  0  0  0  0  0  0  0  0  0
   -0.8328   -3.1080    0.0000 C   0  0  0  0  0  0  0  0  0  0  0  0
   -1.2452   -3.8222    0.0000 C   0  0  0  0  0  0  0  0  0  0  0  0
   -2.0698   -3.8222    0.0000 C   0  0  0  0  0  0  0  0  0  0  0  0
   -2.4820   -3.1080    0.0000 N   0  0  0  0  0  0  0  0  0  0  0  0
   -0.0077   -3.1080    0.0000 C   0  0  0  0  0  0  0  0  0  0  0  0
    0.4048   -2.3935    0.0000 C   0  0  0  0  0  0  0  0  0  0  0  0
    1.2297   -2.3935    0.0000 C   0  0  0  0  0  0  0  0  0  0  0  0
    1.6422   -3.1080    0.0000 N   0  0  0  0  0  0  0  0  0  0  0  0
    1.2298   -3.8226    0.0000 C   0  0  0  0  0  0  0  0  0  0  0  0
    0.4048   -3.8226    0.0000 C   0  0  0  0  0  0  0  0  0  0  0  0
    2.4673   -3.1080    0.0000 C   0  0  0  0  0  0  0  0  0  0  0  0
    2.8798   -3.8226    0.0000 C   0  0  0  0  0  0  0  0  0  0  0  0
    3.7049   -3.8226    0.0000 C   0  0  0  0  0  0  0  0  0  0  0  0
    2.8798   -2.3935    0.0000 O   0  0  0  0  0  0  0  0  0  0  0  0
  1  6  2  0
  2  1  1  0
  2  7  1  0
  3  2  2  0
  4  3  1  0
  5  4  2  0
  5 14  1  0
  6  5  1  0
  7  8  1  0
  8 13  1  0
  9  8  2  0
 10  9  1  0
 11 10  2  0
 12 11  1  0
 13 12  2  0
 15 14  1  0
 15 16  2  0
 15 19  1  0
 16 17  1  0
 16 25  1  0
 17 18  1  0
 17 22  1  0
 18 14  2  0
 19 20  1  0
 19 21  2  0
 22 26  1  6
 23 22  1  0
 24 23  1  0
 25 24  1  0
 26 31  1  0
 27 26  1  0
 28 27  1  0
 29 28  1  0
 29 32  1  0
 30 29  1  0
 31 30  1  0
 32 33  1  0
 32 35  2  0
 33 34  2  0
M  END
>  <DRUGBANK_ID>  (1) 
DB15035

>  <COMMON_NAME>  (1) 
Zanubrutinib

>  <CAS_NUMBER>  (1) 
1691249-45-2

>  <UNII>  (1) 
AG9MHG098Z

>  <SYNONYMS>  (1) 
Zanubrutinib

$$$$
