
     RDKit          2D

  6  5  0  0  0  0  0  0  0  0999 V2000
    0.8250   -1.4289    0.0000 O   0  0  0  0  0  0  0  0  0  0  0  0
    1.2375   -0.7145    0.0000 C   0  0  0  0  0  0  0  0  0  0  0  0
    2.0625   -0.7145    0.0000 C   0  0  0  0  0  0  0  0  0  0  0  0
    2.4750   -1.4289    0.0000 I   0  0  0  0  0  0  0  0  0  0  0  0
    0.8250    0.0000    0.0000 C   0  0  0  0  0  0  0  0  0  0  0  0
    0.0000    0.0000    0.0000 I   0  0  0  0  0  0  0  0  0  0  0  0
  1  2  1  0
  2  3  1  0
  2  5  1  0
  3  4  1  0
  5  6  1  0
M  END
>  <DRUGBANK_ID>  (1) 
DB13383

>  <COMMON_NAME>  (1) 
Diiodohydroxypropane

>  <CAS_NUMBER>  (1) 
534-08-7

>  <UNII>  (1) 
1Z11279H67

$$$$
