
     RDKit          2D

 11 11  0  0  0  0  0  0  0  0999 V2000
    1.7862    0.4125    0.0000 O   0  0  0  0  0  0  0  0  0  0  0  0
    1.7862   -1.2376    0.0000 O   0  0  0  0  0  0  0  0  0  0  0  0
    0.3572    1.2376    0.0000 O   0  0  0  0  0  0  0  0  0  0  0  0
   -1.7862    0.0000    0.0000 O   0  0  0  0  0  0  0  0  0  0  0  0
   -0.3572   -0.8250    0.0000 N   0  0  0  0  0  0  0  0  0  0  0  0
   -1.0717    0.4125    0.0000 N   0  0  0  0  0  0  0  0  0  0  0  0
    1.0717    0.0000    0.0000 C   0  0  0  0  0  0  0  0  0  0  0  0
    1.0717   -0.8250    0.0000 C   0  0  0  0  0  0  0  0  0  0  0  0
    0.3572    0.4125    0.0000 C   0  0  0  0  0  0  0  0  0  0  0  0
    0.3572   -1.2376    0.0000 C   0  0  0  0  0  0  0  0  0  0  0  0
   -0.3572    0.0000    0.0000 C   0  0  0  0  0  0  0  0  0  0  0  0
  4  6  1  0
  5 10  1  0
  5 11  2  0
  6 11  1  0
  7  1  1  1
  7  8  1  0
  7  9  1  0
  8  2  1  6
  8 10  1  0
  9  3  1  6
  9 11  1  0
M  END
>  <DRUGBANK_ID>  (1) 
DB01921

>  <SECONDARY_ACCESSION_NUMBERS>  (1) 
EXPT02054

>  <COMMON_NAME>  (1) 
Xylose-derived lactam oxime

$$$$
