
     RDKit          2D

 31 33  0  0  0  0  0  0  0  0999 V2000
   -1.2412    0.3794    0.0000 C   0  0  0  0  0  0  0  0  0  0  0  0
    3.7112    0.7919    0.0000 C   0  0  0  0  0  0  0  0  0  0  0  0
   -3.1170   -3.1564    0.0000 C   0  0  0  0  0  0  0  0  0  0  0  0
   -3.7112   -0.3609    0.0000 C   0  0  0  0  0  0  0  0  0  0  0  0
   -3.6690   -2.5433    0.0000 C   0  0  0  0  0  0  0  0  0  0  0  0
    1.5677   -0.4455    0.0000 C   0  0  0  0  0  0  0  0  0  0  0  0
    2.2822   -0.0330    0.0000 C   0  0  0  0  0  0  0  0  0  0  0  0
   -1.2481   -2.0287    0.0000 C   0  0  0  0  0  0  0  0  0  0  0  0
   -1.5452   -0.6310    0.0000 C   0  0  0  0  0  0  0  0  0  0  0  0
   -0.4162    0.3794    0.0000 C   0  0  0  0  0  0  0  0  0  0  0  0
   -0.9932   -1.2441    0.0000 C   0  0  0  0  0  0  0  0  0  0  0  0
    0.8533   -0.0330    0.0000 C   0  0  0  0  0  0  0  0  0  0  0  0
    2.2822    0.7919    0.0000 C   0  0  0  0  0  0  0  0  0  0  0  0
   -2.0551   -2.2002    0.0000 C   0  0  0  0  0  0  0  0  0  0  0  0
   -2.3522   -0.8025    0.0000 C   0  0  0  0  0  0  0  0  0  0  0  0
    0.0687   -0.2879    0.0000 C   0  0  0  0  0  0  0  0  0  0  0  0
   -0.1862   -1.0726    0.0000 C   0  0  0  0  0  0  0  0  0  0  0  0
    0.8533    0.7919    0.0000 C   0  0  0  0  0  0  0  0  0  0  0  0
   -2.6071   -1.5871    0.0000 C   0  0  0  0  0  0  0  0  0  0  0  0
    1.5677    1.2044    0.0000 C   0  0  0  0  0  0  0  0  0  0  0  0
    0.3658   -1.6856    0.0000 O   0  0  0  0  0  0  0  0  0  0  0  0
    1.8697    3.1564    0.0000 O   0  0  0  0  0  0  0  0  0  0  0  0
    2.9967    2.8544    0.0000 O   0  0  0  0  0  0  0  0  0  0  0  0
    2.6947    1.7274    0.0000 O   0  0  0  0  0  0  0  0  0  0  0  0
    2.9967    1.2044    0.0000 O   0  0  0  0  0  0  0  0  0  0  0  0
   -2.3100   -2.9849    0.0000 O   0  0  0  0  0  0  0  0  0  0  0  0
   -2.9042   -0.1894    0.0000 O   0  0  0  0  0  0  0  0  0  0  0  0
   -3.4141   -1.7587    0.0000 O   0  0  0  0  0  0  0  0  0  0  0  0
    0.0687    1.0468    0.0000 O   0  0  0  0  0  0  0  0  0  0  0  0
    1.5677    2.0294    0.0000 O   0  0  0  0  0  0  0  0  0  0  0  0
    2.2822    2.4419    0.0000 P   0  0  0  0  0  0  0  0  0  0  0  0
  7  6  2  0
 10  1  1  0
 11  8  2  0
 11  9  1  0
 12  6  1  0
 13  7  1  0
 14  8  1  0
 15  9  2  0
 16 10  2  0
 16 12  1  0
 17 11  1  0
 17 16  1  0
 18 12  2  0
 19 14  2  0
 19 15  1  0
 20 13  2  0
 20 18  1  0
 21 17  2  0
 25  2  1  0
 25 13  1  0
 26  3  1  0
 26 14  1  0
 27  4  1  0
 27 15  1  0
 28  5  1  0
 28 19  1  0
 29 10  1  0
 29 18  1  0
 30 20  1  0
 31 22  1  0
 31 23  1  0
 31 24  2  0
 31 30  1  0
M  END
>  <DRUGBANK_ID>  (1) 
DB06313

>  <COMMON_NAME>  (1) 
BNC105

>  <CAS_NUMBER>  (1) 
945772-45-2

>  <UNII>  (1) 
TO9V2XZF53

$$$$
