
     RDKit          2D

 15 15  0  0  0  0  0  0  0  0999 V2000
   -1.7535   -0.4125    0.0000 C   0  0  0  0  0  0  0  0  0  0  0  0
   -1.0521   -0.8251    0.0000 C   0  0  0  0  0  0  0  0  0  0  0  0
   -1.7535    0.4125    0.0000 C   0  0  0  0  0  0  0  0  0  0  0  0
   -2.4549   -0.8251    0.0000 C   0  0  0  0  0  0  0  0  0  0  0  0
   -0.3094   -0.4125    0.0000 C   0  0  0  0  0  0  0  0  0  0  0  0
   -2.4549    0.8251    0.0000 C   0  0  0  0  0  0  0  0  0  0  0  0
   -3.1975   -0.4125    0.0000 C   0  0  0  0  0  0  0  0  0  0  0  0
    0.3507   -0.8251    0.0000 N   0  0  0  0  0  0  0  0  0  0  0  0
   -3.1975    0.4125    0.0000 C   0  0  0  0  0  0  0  0  0  0  0  0
    1.0520   -0.4125    0.0000 C   0  0  0  0  0  0  0  0  0  0  0  0
    1.7947   -0.8251    0.0000 N   0  0  0  0  0  0  0  0  0  0  0  0
    1.0520    0.4125    0.0000 N   0  0  0  0  0  0  0  0  0  0  0  0
    2.4960   -0.4125    0.0000 C   0  0  0  0  0  0  0  0  0  0  0  0
    3.1975   -0.8251    0.0000 N   0  0  0  0  0  0  0  0  0  0  0  0
    2.4960    0.4125    0.0000 N   0  0  0  0  0  0  0  0  0  0  0  0
  1  2  1  0
  1  3  2  0
  1  4  1  0
  2  5  1  0
  3  6  1  0
  4  7  2  0
  5  8  1  0
  6  9  2  0
  7  9  1  0
  8 10  1  0
 10 11  1  0
 10 12  2  0
 11 13  1  0
 13 14  1  0
 13 15  2  0
M  END
>  <DRUGBANK_ID>  (1) 
DB00914

>  <SECONDARY_ACCESSION_NUMBERS>  (1) 
APRD00511

>  <COMMON_NAME>  (1) 
Phenformin

>  <CAS_NUMBER>  (1) 
114-86-3

>  <UNII>  (1) 
DD5K7529CE

>  <SYNONYMS>  (1) 
Fenformin; Fenformina; Phenformin; Phenformine; Phenforminum; Î²-Phenethybiguanide

$$$$
