
     RDKit          2D

 22 23  0  0  0  0  0  0  0  0999 V2000
    1.6761   -2.7030    0.0000 P   0  0  0  0  0  0  0  0  0  0  0  0
    0.1408   -0.6699    0.0000 O   0  0  0  0  0  0  0  0  0  0  0  0
   -1.4238   -2.1219    0.0000 O   0  0  0  0  0  0  0  0  0  0  0  0
    1.1912   -2.0356    0.0000 O   0  0  0  0  0  0  0  0  0  0  0  0
    0.9023    0.6399    0.0000 O   0  0  0  0  0  0  0  0  0  0  0  0
    2.1610   -3.3704    0.0000 O   0  0  0  0  0  0  0  0  0  0  0  0
    2.3435   -2.2181    0.0000 O   0  0  0  0  0  0  0  0  0  0  0  0
    1.0088   -3.1878    0.0000 O   0  0  0  0  0  0  0  0  0  0  0  0
   -2.6697    1.8773    0.0000 O   0  0  0  0  0  0  0  0  0  0  0  0
   -0.5264    0.6399    0.0000 N   0  0  0  0  0  0  0  0  0  0  0  0
    0.1879    1.8773    0.0000 N   0  0  0  0  0  0  0  0  0  0  0  0
   -0.5264    3.1147    0.0000 N   0  0  0  0  0  0  0  0  0  0  0  0
   -0.9389   -1.4545    0.0000 C   0  0  0  0  0  0  0  0  0  0  0  0
   -0.1140   -1.4545    0.0000 C   0  0  0  0  0  0  0  0  0  0  0  0
   -1.1938   -0.6699    0.0000 C   0  0  0  0  0  0  0  0  0  0  0  0
   -0.5264   -0.1850    0.0000 C   0  0  0  0  0  0  0  0  0  0  0  0
    0.3708   -2.1219    0.0000 C   0  0  0  0  0  0  0  0  0  0  0  0
   -1.2409    1.0523    0.0000 C   0  0  0  0  0  0  0  0  0  0  0  0
    0.1879    1.0523    0.0000 C   0  0  0  0  0  0  0  0  0  0  0  0
   -1.2409    1.8773    0.0000 C   0  0  0  0  0  0  0  0  0  0  0  0
   -0.5264    2.2897    0.0000 C   0  0  0  0  0  0  0  0  0  0  0  0
   -1.9553    2.2897    0.0000 C   0  0  0  0  0  0  0  0  0  0  0  0
  1  4  1  0
  1  6  1  0
  1  7  1  0
  1  8  2  0
  2 14  1  0
  2 16  1  0
  4 17  1  0
  5 19  2  0
  9 22  2  0
 10 18  1  0
 10 19  1  0
 11 19  1  0
 11 21  2  0
 12 21  1  0
 13  3  1  1
 13 14  1  0
 13 15  1  0
 14 17  1  6
 15 16  1  0
 16 10  1  6
 18 20  2  0
 20 21  1  0
 20 22  1  0
M  END
>  <DRUGBANK_ID>  (1) 
DB04603

>  <COMMON_NAME>  (1) 
5-Formyl-2'-deoxy-cytidine-5'-monophosphate

$$$$
