
     RDKit          2D

 15 15  0  0  1  0  0  0  0  0999 V2000
    1.2822    4.0018    0.0000 C   0  0  0  0  0  0  0  0  0  0  0  0
    1.2822    3.1768    0.0000 N   0  0  0  0  0  0  0  0  0  0  0  0
    0.4572    3.1768    0.0000 C   0  0  0  0  0  0  0  0  0  0  0  0
    2.1072    3.1768    0.0000 C   0  0  0  0  0  0  0  0  0  0  0  0
    1.2822    2.3518    0.0000 C   0  0  0  0  0  0  0  0  0  0  0  0
    0.5678    1.9393    0.0000 C   0  0  0  0  0  0  0  0  0  0  0  0
    0.5678    1.1143    0.0000 C   0  0  0  0  0  0  0  0  0  0  0  0
    1.2352    0.6294    0.0000 C   0  0  0  0  0  0  0  0  0  0  0  0
    0.9803   -0.1553    0.0000 N   0  0  0  0  0  0  0  0  0  0  0  0
    0.1553   -0.1553    0.0000 C   0  0  0  0  0  0  0  0  0  0  0  0
   -0.3297   -0.8227    0.0000 S   0  0  0  0  0  0  0  0  0  0  0  0
   -0.0997    0.6294    0.0000 N   0  0  0  0  0  0  0  0  0  0  0  0
    1.9967    1.9393    0.0000 C   0  0  0  0  0  0  0  0  0  0  0  0
    1.9967    1.1143    0.0000 O   0  0  0  0  0  0  0  0  0  0  0  0
    2.7112    2.3518    0.0000 O   0  0  0  0  0  0  0  0  0  0  0  0
  1  2  1  0
  2  3  1  0
  2  4  1  0
  5  2  1  0
  5  6  1  6
  5 13  1  0
  6  7  1  0
  7  8  2  0
  7 12  1  0
  8  9  1  0
  9 10  1  0
 10 11  2  0
 10 12  1  0
 13 14  1  0
 13 15  2  0
M  CHG  2   2   1  14  -1
M  END
>  <DRUGBANK_ID>  (1) 
DB17614

>  <COMMON_NAME>  (1) 
Ergothioneine

>  <CAS_NUMBER>  (1) 
497-30-3

>  <UNII>  (1) 
BDZ3DQM98W

>  <SYNONYMS>  (1) 
L-(+)-ergothioneine; L-ergothioneine; L(+)-ergothioneine; Sympectothion; Thiasine; Thioneine

$$$$
