
     RDKit          2D

 16 17  0  0  0  0  0  0  0  0999 V2000
    2.8579    0.0000    0.0000 C   0  0  0  0  0  0  0  0  0  0  0  0
    5.0013    2.0625    0.0000 C   0  0  0  0  0  0  0  0  0  0  0  0
    0.7145    2.0625    0.0000 C   0  0  0  0  0  0  0  0  0  0  0  0
    1.4289    2.4750    0.0000 C   0  0  0  0  0  0  0  0  0  0  0  0
    1.4289    0.8250    0.0000 C   0  0  0  0  0  0  0  0  0  0  0  0
    3.5724    1.2375    0.0000 C   0  0  0  0  0  0  0  0  0  0  0  0
    0.7145    1.2375    0.0000 C   0  0  0  0  0  0  0  0  0  0  0  0
    2.1434    2.0625    0.0000 C   0  0  0  0  0  0  0  0  0  0  0  0
    2.1434    1.2375    0.0000 C   0  0  0  0  0  0  0  0  0  0  0  0
    3.5724    2.0625    0.0000 C   0  0  0  0  0  0  0  0  0  0  0  0
    2.8579    2.4750    0.0000 C   0  0  0  0  0  0  0  0  0  0  0  0
    0.0000    0.8250    0.0000 F   0  0  0  0  0  0  0  0  0  0  0  0
    2.8579    0.8250    0.0000 N   0  0  0  0  0  0  0  0  0  0  0  0
    2.8579    3.3000    0.0000 O   0  0  0  0  0  0  0  0  0  0  0  0
    4.2868    3.3000    0.0000 O   0  0  0  0  0  0  0  0  0  0  0  0
    4.2868    2.4750    0.0000 S   0  0  0  0  0  0  0  0  0  0  0  0
  4  3  2  0
  7  3  1  0
  7  5  2  0
  8  4  1  0
  9  5  1  0
  9  8  2  0
 10  6  2  0
 11  8  1  0
 11 10  1  0
 12  7  1  0
 13  1  1  0
 13  6  1  0
 13  9  1  0
 14 11  2  0
 16  2  1  0
 16 10  1  0
 16 15  2  0
M  END
>  <DRUGBANK_ID>  (1) 
DB13228

>  <COMMON_NAME>  (1) 
Flosequinan

>  <CAS_NUMBER>  (1) 
76568-02-0

>  <UNII>  (1) 
6NB119DLU7

>  <SYNONYMS>  (1) 
Flosequinan

$$$$
