
     RDKit          2D

 32 34  0  0  0  0  0  0  0  0999 V2000
    0.3572   -2.0625    0.0000 C   0  0  0  0  0  0  0  0  0  0  0  0
   -0.3572   -0.8250    0.0000 C   0  0  0  0  0  0  0  0  0  0  0  0
    1.0717   -1.6500    0.0000 C   0  0  0  0  0  0  0  0  0  0  0  0
    0.3572   -0.4125    0.0000 C   0  0  0  0  0  0  0  0  0  0  0  0
   -3.2151   -1.6500    0.0000 C   0  0  0  0  0  0  0  0  0  0  0  0
   -3.9295   -2.0625    0.0000 C   0  0  0  0  0  0  0  0  0  0  0  0
    1.7861    0.4125    0.0000 C   0  0  0  0  0  0  0  0  0  0  0  0
    3.2151    0.4125    0.0000 C   0  0  0  0  0  0  0  0  0  0  0  0
   -0.3572   -1.6500    0.0000 C   0  0  0  0  0  0  0  0  0  0  0  0
    1.0717   -0.8250    0.0000 C   0  0  0  0  0  0  0  0  0  0  0  0
    2.5006    0.8250    0.0000 C   0  0  0  0  0  0  0  0  0  0  0  0
   -2.5006   -2.0625    0.0000 C   0  0  0  0  0  0  0  0  0  0  0  0
   -4.6440   -1.6500    0.0000 C   0  0  0  0  0  0  0  0  0  0  0  0
    3.2151    2.0625    0.0000 C   0  0  0  0  0  0  0  0  0  0  0  0
    3.9295    1.6500    0.0000 C   0  0  0  0  0  0  0  0  0  0  0  0
   -1.0717   -2.0625    0.0000 C   0  0  0  0  0  0  0  0  0  0  0  0
    3.2151    2.8875    0.0000 C   0  0  0  0  0  0  0  0  0  0  0  0
   -2.5006   -2.8875    0.0000 C   0  0  0  0  0  0  0  0  0  0  0  0
    4.6440    2.8875    0.0000 C   0  0  0  0  0  0  0  0  0  0  0  0
    5.3585    3.3000    0.0000 N   0  0  0  0  0  0  0  0  0  0  0  0
    1.7861   -0.4125    0.0000 N   0  0  0  0  0  0  0  0  0  0  0  0
    3.9295    0.8250    0.0000 N   0  0  0  0  0  0  0  0  0  0  0  0
    2.5006    1.6500    0.0000 N   0  0  0  0  0  0  0  0  0  0  0  0
   -1.7861   -1.6500    0.0000 N   0  0  0  0  0  0  0  0  0  0  0  0
    4.6440    2.0625    0.0000 N   0  0  0  0  0  0  0  0  0  0  0  0
    3.9295    3.3000    0.0000 N   0  0  0  0  0  0  0  0  0  0  0  0
   -5.3585   -2.0625    0.0000 O   0  0  0  0  0  0  0  0  0  0  0  0
   -4.6440   -0.8250    0.0000 O   0  0  0  0  0  0  0  0  0  0  0  0
   -1.0717   -2.8875    0.0000 O   0  0  0  0  0  0  0  0  0  0  0  0
    2.5006    3.3000    0.0000 O   0  0  0  0  0  0  0  0  0  0  0  0
   -1.7861   -3.3000    0.0000 O   0  0  0  0  0  0  0  0  0  0  0  0
   -3.2151   -3.3000    0.0000 O   0  0  0  0  0  0  0  0  0  0  0  0
  3  1  2  0
  4  2  1  0
  6  5  1  0
  9  1  1  0
  9  2  2  0
 10  3  1  0
 10  4  2  0
 11  7  1  0
 11  8  1  0
 12  5  1  6
 12 18  1  0
 12 24  1  0
 13  6  1  0
 15 14  2  0
 16  9  1  0
 17 14  1  0
 20 19  2  0
 21  7  1  0
 21 10  1  0
 22  8  1  0
 22 15  1  0
 23 11  2  0
 23 14  1  0
 24 16  1  0
 25 15  1  0
 25 19  1  0
 26 17  2  0
 26 19  1  0
 27 13  2  0
 28 13  1  0
 29 16  2  0
 30 17  1  0
 31 18  2  0
 32 18  1  0
M  END
>  <DRUGBANK_ID>  (1) 
DB02015

>  <SECONDARY_ACCESSION_NUMBERS>  (1) 
EXPT01190

>  <COMMON_NAME>  (1) 
Dihydrofolic Acid

>  <CAS_NUMBER>  (1) 
4033-27-6

>  <UNII>  (1) 
KXP0KNM559

$$$$
