
     RDKit          2D

 20 20  0  0  0  0  0  0  0  0999 V2000
   -2.8579    4.1250    0.0000 C   0  0  0  0  0  0  0  0  0  0  0  0
    0.7145    2.8875    0.0000 C   0  0  0  0  0  0  0  0  0  0  0  0
   -2.1434    3.7125    0.0000 C   0  0  0  0  0  0  0  0  0  0  0  0
   -1.4289    4.1250    0.0000 C   0  0  0  0  0  0  0  0  0  0  0  0
   -0.7145    3.7125    0.0000 C   0  0  0  0  0  0  0  0  0  0  0  0
    0.0000    4.1250    0.0000 C   0  0  0  0  0  0  0  0  0  0  0  0
    2.1434    3.7125    0.0000 C   0  0  0  0  0  0  0  0  0  0  0  0
    2.8579    4.9500    0.0000 C   0  0  0  0  0  0  0  0  0  0  0  0
    0.7145    3.7125    0.0000 C   0  0  0  0  0  0  0  0  0  0  0  0
    2.8579    4.1250    0.0000 C   0  0  0  0  0  0  0  0  0  0  0  0
    1.4289    4.1250    0.0000 C   0  0  0  0  0  0  0  0  0  0  0  0
    2.1434    5.3625    0.0000 C   0  0  0  0  0  0  0  0  0  0  0  0
    1.4289    4.9500    0.0000 C   0  0  0  0  0  0  0  0  0  0  0  0
    3.5724    3.7125    0.0000 N   0  0  0  0  0  0  0  0  0  0  0  0
    2.1434    6.1875    0.0000 N   0  0  0  0  0  0  0  0  0  0  0  0
    0.7145    5.3625    0.0000 O   0  0  0  0  0  0  0  0  0  0  0  0
    4.2868    4.1250    0.0000 O   0  0  0  0  0  0  0  0  0  0  0  0
    3.5724    2.8875    0.0000 O   0  0  0  0  0  0  0  0  0  0  0  0
    1.4289    6.6000    0.0000 O   0  0  0  0  0  0  0  0  0  0  0  0
    2.8579    6.6000    0.0000 O   0  0  0  0  0  0  0  0  0  0  0  0
  3  1  1  0
  4  3  1  0
  5  4  1  0
  6  5  1  0
  9  2  1  0
  9  6  1  0
 10  7  2  0
 10  8  1  0
 11  7  1  0
 11  9  1  0
 12  8  2  0
 13 11  2  0
 13 12  1  0
 14 10  1  0
 15 12  1  0
 16 13  1  0
 17 14  1  0
 18 14  2  0
 19 15  1  0
 20 15  2  0
M  CHG  4  14   1  15   1  17  -1  19  -1
M  END
>  <DRUGBANK_ID>  (1) 
DB07671

>  <COMMON_NAME>  (1) 
2-[1-METHYLHEXYL]-4,6-DINITROPHENOL

$$$$
