MSI
     RDKit          2D

 28 31  0  0  0  0  0  0  0  0999 V2000
    0.7778   -0.6767    0.0000 S   0  0  0  0  0  0  0  0  0  0  0  0
   -2.1502   -2.1691    0.0000 N   0  0  0  0  0  0  0  0  0  0  0  0
    1.4923   -0.2642    0.0000 N   0  0  0  0  0  0  0  0  0  0  0  0
    0.1808    0.8534    0.0000 O   0  0  0  0  0  0  0  0  0  0  0  0
   -3.4601   -1.5017    0.0000 O   0  0  0  0  0  0  0  0  0  0  0  0
   -2.4052   -0.0496    0.0000 O   0  0  0  0  0  0  0  0  0  0  0  0
    1.1903   -1.3912    0.0000 O   0  0  0  0  0  0  0  0  0  0  0  0
    0.3653    0.0378    0.0000 O   0  0  0  0  0  0  0  0  0  0  0  0
   -2.6351   -1.5017    0.0000 C   0  0  0  0  0  0  0  0  0  0  0  0
   -2.1502   -0.8343    0.0000 C   0  0  0  0  0  0  0  0  0  0  0  0
   -0.6511   -0.6767    0.0000 C   0  0  0  0  0  0  0  0  0  0  0  0
    0.0633   -1.0892    0.0000 C   0  0  0  0  0  0  0  0  0  0  0  0
    0.0633   -1.9142    0.0000 C   0  0  0  0  0  0  0  0  0  0  0  0
   -0.6511   -2.3267    0.0000 C   0  0  0  0  0  0  0  0  0  0  0  0
   -1.3656   -1.9142    0.0000 C   0  0  0  0  0  0  0  0  0  0  0  0
   -1.3656   -1.0892    0.0000 C   0  0  0  0  0  0  0  0  0  0  0  0
    1.5785    0.5563    0.0000 C   0  0  0  0  0  0  0  0  0  0  0  0
    2.3855    0.7278    0.0000 C   0  0  0  0  0  0  0  0  0  0  0  0
    2.7980    0.0133    0.0000 C   0  0  0  0  0  0  0  0  0  0  0  0
    2.2460   -0.5998    0.0000 C   0  0  0  0  0  0  0  0  0  0  0  0
    0.9654    1.1083    0.0000 C   0  0  0  0  0  0  0  0  0  0  0  0
   -0.4323    1.4054    0.0000 C   0  0  0  0  0  0  0  0  0  0  0  0
   -1.2169    1.1505    0.0000 C   0  0  0  0  0  0  0  0  0  0  0  0
   -1.8300    1.7025    0.0000 C   0  0  0  0  0  0  0  0  0  0  0  0
   -1.6585    2.5095    0.0000 C   0  0  0  0  0  0  0  0  0  0  0  0
   -0.8739    2.7644    0.0000 C   0  0  0  0  0  0  0  0  0  0  0  0
   -0.2608    2.2124    0.0000 C   0  0  0  0  0  0  0  0  0  0  0  0
   -2.4052   -2.9538    0.0000 C   0  0  0  0  0  0  0  0  0  0  0  0
  1  3  1  0
  1  7  2  0
  1  8  2  0
  1 12  1  0
  2  9  1  0
  2 15  1  0
  2 28  1  0
  3 17  1  0
  3 20  1  0
  4 21  1  0
  4 22  1  0
  5  9  2  0
  6 10  2  0
  9 10  1  0
 10 16  1  0
 11 12  1  0
 11 16  2  0
 12 13  2  0
 13 14  1  0
 14 15  2  0
 15 16  1  0
 17 18  1  0
 17 21  1  6
 18 19  1  0
 19 20  1  0
 22 23  2  0
 22 27  1  0
 23 24  1  0
 24 25  2  0
 25 26  1  0
 26 27  2  0
M  END
>  <DRUGBANK_ID>  (1) 
DB08213

>  <COMMON_NAME>  (1) 
1-METHYL-5-(2-PHENOXYMETHYL-PYRROLIDINE-1-SULFONYL)-1H-INDOLE-2,3-DIONE

$$$$
