
     RDKit          2D

 31 34  0  0  1  0  0  0  0  0999 V2000
    5.6091    2.4134    0.0000 C   0  0  0  0  0  0  0  0  0  0  0  0
    6.3235    2.0009    0.0000 O   0  0  0  0  0  0  0  0  0  0  0  0
    6.3235    1.1759    0.0000 C   0  0  0  0  0  0  0  0  0  0  0  0
    7.0380    0.7634    0.0000 C   0  0  0  0  0  0  0  0  0  0  0  0
    7.0380   -0.0616    0.0000 C   0  0  0  0  0  0  0  0  0  0  0  0
    6.3235   -0.4741    0.0000 C   0  0  0  0  0  0  0  0  0  0  0  0
    5.6091   -0.0616    0.0000 C   0  0  0  0  0  0  0  0  0  0  0  0
    5.6091    0.7634    0.0000 C   0  0  0  0  0  0  0  0  0  0  0  0
    4.8946    1.1759    0.0000 C   0  0  0  0  0  0  0  0  0  0  0  0
    4.8946    2.0009    0.0000 N   0  0  0  0  0  0  0  0  0  0  0  0
    4.1801    2.4134    0.0000 C   0  0  0  0  0  0  0  0  0  0  0  0
    3.4656    2.0009    0.0000 C   0  0  0  0  0  0  0  0  0  0  0  0
    2.7512    2.4134    0.0000 C   0  0  0  0  0  0  0  0  0  0  0  0
    2.7512    3.2384    0.0000 C   0  0  0  0  0  0  0  0  0  0  0  0
    3.4656    3.6509    0.0000 N   0  0  0  0  0  0  0  0  0  0  0  0
    4.1801    3.2384    0.0000 C   0  0  0  0  0  0  0  0  0  0  0  0
    4.8946    3.6509    0.0000 C   0  0  0  0  0  0  0  0  0  0  0  0
    4.8946    4.4759    0.0000 C   0  0  0  0  0  0  0  0  0  0  0  0
    5.6091    4.8884    0.0000 C   0  0  0  0  0  0  0  0  0  0  0  0
    6.3235    4.4759    0.0000 C   0  0  0  0  0  0  0  0  0  0  0  0
    6.3235    3.6509    0.0000 C   0  0  0  0  0  0  0  0  0  0  0  0
    5.6091    3.2384    0.0000 C   0  0  0  0  0  0  0  0  0  0  0  0
    6.3235   -1.2991    0.0000 N   0  0  0  0  0  0  0  0  0  0  0  0
    6.9910   -1.7840    0.0000 C   0  0  0  0  0  0  0  0  0  0  0  0
    6.7360   -2.5687    0.0000 N   0  0  0  0  0  0  0  0  0  0  0  0
    5.9110   -2.5687    0.0000 N   0  0  0  0  0  0  0  0  0  0  0  0
    5.6561   -1.7840    0.0000 N   0  0  0  0  0  0  0  0  0  0  0  0
    7.7756   -1.5291    0.0000 C   0  0  0  0  0  0  0  0  0  0  0  0
    8.5602   -1.2742    0.0000 F   0  0  0  0  0  0  0  0  0  0  0  0
    8.0305   -2.3137    0.0000 F   0  0  0  0  0  0  0  0  0  0  0  0
    7.5207   -0.7445    0.0000 F   0  0  0  0  0  0  0  0  0  0  0  0
  1  2  1  0
  2  3  1  0
  3  4  2  0
  3  8  1  0
  4  5  1  0
  5  6  2  0
  6  7  1  0
  6 23  1  0
  7  8  2  0
  8  9  1  0
  9 10  1  0
 11 10  1  1
 11 12  1  0
 11 16  1  0
 12 13  1  0
 13 14  1  0
 14 15  1  0
 15 16  1  0
 16 17  1  1
 17 18  2  0
 17 22  1  0
 18 19  1  0
 19 20  2  0
 20 21  1  0
 21 22  2  0
 23 24  1  0
 23 27  1  0
 24 25  2  0
 24 28  1  0
 25 26  1  0
 26 27  2  0
 28 29  1  0
 28 30  1  0
 28 31  1  0
M  END
>  <DRUGBANK_ID>  (1) 
DB12436

>  <COMMON_NAME>  (1) 
Vofopitant

>  <CAS_NUMBER>  (1) 
168266-90-8

>  <UNII>  (1) 
K08BK043YS

>  <SYNONYMS>  (1) 
Vofopitant

$$$$
