
     RDKit          2D

 33 37  0  0  1  0  0  0  0  0999 V2000
    0.1073    0.1997    0.0000 C   0  0  0  0  0  0  0  0  0  0  0  0
   -1.4210    2.2303    0.0000 C   0  0  0  0  0  0  0  0  0  0  0  0
   -0.9807   -0.3169    0.0000 C   0  0  0  0  0  0  0  0  0  0  0  0
    3.6869   -0.6596    0.0000 C   0  0  0  0  0  0  0  0  0  0  0  0
    2.5945   -1.5808    0.0000 C   0  0  0  0  0  0  0  0  0  0  0  0
    3.1551   -0.0289    0.0000 C   0  0  0  0  0  0  0  0  0  0  0  0
    2.0626   -0.9500    0.0000 C   0  0  0  0  0  0  0  0  0  0  0  0
    2.6520    2.7844    0.0000 C   0  0  0  0  0  0  0  0  0  0  0  0
    4.2475    0.8922    0.0000 C   0  0  0  0  0  0  0  0  0  0  0  0
    1.8399    2.6391    0.0000 C   0  0  0  0  0  0  0  0  0  0  0  0
    3.4354    0.7470    0.0000 C   0  0  0  0  0  0  0  0  0  0  0  0
    0.0962    2.2244    0.0000 C   0  0  0  0  0  0  0  0  0  0  0  0
   -0.5867    1.7614    0.0000 C   0  0  0  0  0  0  0  0  0  0  0  0
    3.9960    2.2989    0.0000 C   0  0  0  0  0  0  0  0  0  0  0  0
    0.9990    0.3114    0.0000 C   0  0  0  0  0  0  0  0  0  0  0  0
    3.9384   -2.0662    0.0000 C   0  0  0  0  0  0  0  0  0  0  0  0
   -1.1695    0.8237    0.0000 C   0  0  0  0  0  0  0  0  0  0  0  0
    3.4066   -1.4355    0.0000 C   0  0  0  0  0  0  0  0  0  0  0  0
    2.3429   -0.1741    0.0000 C   0  0  0  0  0  0  0  0  0  0  0  0
    3.1838    2.1537    0.0000 C   0  0  0  0  0  0  0  0  0  0  0  0
    4.5278    1.6682    0.0000 C   0  0  0  0  0  0  0  0  0  0  0  0
    2.9035    1.3777    0.0000 C   0  0  0  0  0  0  0  0  0  0  0  0
    1.5596    1.8632    0.0000 C   0  0  0  0  0  0  0  0  0  0  0  0
    1.8111    0.4566    0.0000 C   0  0  0  0  0  0  0  0  0  0  0  0
    0.7475    1.7180    0.0000 C   0  0  0  0  0  0  0  0  0  0  0  0
    2.0914    1.2325    0.0000 C   0  0  0  0  0  0  0  0  0  0  0  0
    0.4672    0.9421    0.0000 C   0  0  0  0  0  0  0  0  0  0  0  0
   -0.3574    0.9689    0.0000 C   0  0  0  0  0  0  0  0  0  0  0  0
    3.6581   -2.8422    0.0000 N   0  0  0  0  0  0  0  0  0  0  0  0
    5.3399    1.8134    0.0000 O   0  0  0  0  0  0  0  0  0  0  0  0
    4.1899   -3.4729    0.0000 O   0  0  0  0  0  0  0  0  0  0  0  0
   -1.7013    1.4544    0.0000 O   0  0  0  0  0  0  0  0  0  0  0  0
   -0.2978    0.1460    0.0000 O   0  0  0  0  0  0  0  0  0  0  0  0
  6  4  2  0
  7  5  1  0
 10  8  1  0
 11  9  1  0
 13 12  1  0
 18  4  1  0
 18  5  2  0
 18 16  1  0
 19  6  1  0
 19  7  2  0
 20  8  1  0
 20 14  2  0
 21  9  1  0
 21 14  1  0
 22 11  1  0
 22 20  1  0
 23 10  1  6
 24 15  1  0
 24 19  1  1
 25 12  1  1
 25 23  1  0
 26 22  2  0
 26 23  1  0
 26 24  1  0
 27  1  1  1
 27 15  1  0
 27 25  1  0
 28 13  1  0
 28 17  1  6
 28 27  1  0
 28 33  1  0
 29 16  2  0
 30 21  2  0
 31 29  1  0
 32  2  1  0
 32 17  1  0
 33  3  1  0
M  END
>  <DRUGBANK_ID>  (1) 
DB06680

>  <COMMON_NAME>  (1) 
Asoprisnil

>  <CAS_NUMBER>  (1) 
199396-76-4

>  <UNII>  (1) 
72W09924WP

>  <SYNONYMS>  (1) 
Asoprisnil

$$$$
