HBO
     RDKit          2D

 15 16  0  0  0  0  0  0  0  0999 V2000
   -2.2551    0.6568    0.0000 O   0  0  0  0  0  0  0  0  0  0  0  0
   -1.5407   -0.5807    0.0000 C   0  0  0  0  0  0  0  0  0  0  0  0
   -0.8262   -0.9932    0.0000 N   0  0  0  0  0  0  0  0  0  0  0  0
   -0.1117   -0.5807    0.0000 C   0  0  0  0  0  0  0  0  0  0  0  0
   -0.1117    0.2443    0.0000 C   0  0  0  0  0  0  0  0  0  0  0  0
   -0.8262    0.6568    0.0000 O   0  0  0  0  0  0  0  0  0  0  0  0
   -1.5407    0.2443    0.0000 C   0  0  0  0  0  0  0  0  0  0  0  0
    0.6027   -0.9932    0.0000 C   0  0  0  0  0  0  0  0  0  0  0  0
    1.3172   -0.5807    0.0000 C   0  0  0  0  0  0  0  0  0  0  0  0
    0.6027    0.6568    0.0000 C   0  0  0  0  0  0  0  0  0  0  0  0
   -2.2551   -0.9932    0.0000 O   0  0  0  0  0  0  0  0  0  0  0  0
   -0.8262   -1.8182    0.0000 O   0  0  0  0  0  0  0  0  0  0  0  0
    1.3172    0.2443    0.0000 C   0  0  0  0  0  0  0  0  0  0  0  0
    2.0317    0.6568    0.0000 O   0  0  0  0  0  0  0  0  0  0  0  0
    2.0317    1.4818    0.0000 C   0  0  0  0  0  0  0  0  0  0  0  0
  2  3  1  0
  2  7  1  0
  2 11  2  0
  3  4  1  0
  3 12  1  0
  4  5  2  0
  4  8  1  0
  5  6  1  0
  5 10  1  0
  6  7  1  0
  7  1  1  6
  8  9  2  0
  9 13  1  0
 10 13  2  0
 13 14  1  0
 14 15  1  0
M  END
>  <DRUGBANK_ID>  (1) 
DB02185

>  <SECONDARY_ACCESSION_NUMBERS>  (1) 
EXPT01700

>  <COMMON_NAME>  (1) 
2,4-Dihydroxy-7-(Methyloxy)-2h-1,4-Benzoxazin-3(4h)-One

$$$$
