446816
     RDKit          2D

 21 22  0  0  0  0  0  0  0  0999 V2000
    1.6991    4.1420    0.0000 Cl  0  0  0  0  0  0  0  0  0  0  0  0
    3.7829    1.2112    0.0000 O   0  0  0  0  0  0  0  0  0  0  0  0
    4.7934    0.0822    0.0000 N   0  0  0  0  0  0  0  0  0  0  0  0
    5.4609   -0.4027    0.0000 N   0  0  0  0  0  0  0  0  0  0  0  0
    3.3414   -0.1478    0.0000 N   0  0  0  0  0  0  0  0  0  0  0  0
    2.3852    0.9141    0.0000 N   0  0  0  0  0  0  0  0  0  0  0  0
    5.6908   -1.8548    0.0000 C   0  0  0  0  0  0  0  0  0  0  0  0
    5.2059   -1.1873    0.0000 C   0  0  0  0  0  0  0  0  0  0  0  0
    6.1758   -2.5222    0.0000 C   0  0  0  0  0  0  0  0  0  0  0  0
    5.0234   -2.3397    0.0000 C   0  0  0  0  0  0  0  0  0  0  0  0
    6.3583   -1.3699    0.0000 C   0  0  0  0  0  0  0  0  0  0  0  0
    4.3809   -1.1873    0.0000 C   0  0  0  0  0  0  0  0  0  0  0  0
    4.1260   -0.4027    0.0000 C   0  0  0  0  0  0  0  0  0  0  0  0
    4.7934    0.9072    0.0000 C   0  0  0  0  0  0  0  0  0  0  0  0
    3.1698    0.6592    0.0000 C   0  0  0  0  0  0  0  0  0  0  0  0
    2.2137    1.7211    0.0000 C   0  0  0  0  0  0  0  0  0  0  0  0
    1.4291    1.9760    0.0000 C   0  0  0  0  0  0  0  0  0  0  0  0
    2.8268    2.2731    0.0000 C   0  0  0  0  0  0  0  0  0  0  0  0
    1.2575    2.7830    0.0000 C   0  0  0  0  0  0  0  0  0  0  0  0
    2.6553    3.0801    0.0000 C   0  0  0  0  0  0  0  0  0  0  0  0
    1.8706    3.3351    0.0000 C   0  0  0  0  0  0  0  0  0  0  0  0
  1 21  1  0
  2 15  2  0
  3  4  1  0
  3 13  1  0
  3 14  1  0
  4  8  2  0
  5 13  1  0
  5 15  1  0
  6 15  1  0
  6 16  1  0
  7  8  1  0
  7  9  1  0
  7 10  1  0
  7 11  1  0
  8 12  1  0
 12 13  2  0
 16 17  2  0
 16 18  1  0
 17 19  1  0
 18 20  2  0
 19 21  2  0
 20 21  1  0
M  END
>  <DRUGBANK_ID>  (1) 
DB02277

>  <SECONDARY_ACCESSION_NUMBERS>  (1) 
EXPT00726

>  <COMMON_NAME>  (1) 
1-(5-Tert-Butyl-2-Methyl-2h-Pyrazol-3-Yl)-3-(4-Chloro-Phenyl)-Urea

$$$$
