
     RDKit          2D

 22 24  0  0  0  0  0  0  0  0999 V2000
   -0.0173    1.0802    0.0000 S   0  0  0  0  0  0  0  0  0  0  0  0
   -1.4460    1.0789    0.0000 C   0  0  0  0  0  0  0  0  0  0  0  0
   -0.7315    0.6670    0.0000 N   0  0  0  0  0  0  0  0  0  0  0  0
   -2.1145    0.6001    0.0000 N   0  0  0  0  0  0  0  0  0  0  0  0
   -1.6946    1.8681    0.0000 C   0  0  0  0  0  0  0  0  0  0  0  0
   -2.7762    1.0854    0.0000 N   0  0  0  0  0  0  0  0  0  0  0  0
    0.6920    0.6712    0.0000 C   0  0  0  0  0  0  0  0  0  0  0  0
   -2.5170    1.8683    0.0000 C   0  0  0  0  0  0  0  0  0  0  0  0
   -2.1145   -0.2219    0.0000 C   0  0  0  0  0  0  0  0  0  0  0  0
    0.6922   -0.1538    0.0000 C   0  0  0  0  0  0  0  0  0  0  0  0
    1.4062    1.0844    0.0000 C   0  0  0  0  0  0  0  0  0  0  0  0
    2.1208   -0.1525    0.0000 C   0  0  0  0  0  0  0  0  0  0  0  0
    2.8353   -0.5645    0.0000 N   0  0  0  0  0  0  0  0  0  0  0  0
    1.4066   -0.5657    0.0000 C   0  0  0  0  0  0  0  0  0  0  0  0
    2.1206    0.6725    0.0000 C   0  0  0  0  0  0  0  0  0  0  0  0
   -1.4062   -0.6361    0.0000 C   0  0  0  0  0  0  0  0  0  0  0  0
   -2.8334   -0.6267    0.0000 C   0  0  0  0  0  0  0  0  0  0  0  0
   -2.8353   -1.4543    0.0000 C   0  0  0  0  0  0  0  0  0  0  0  0
   -1.4080   -1.4635    0.0000 C   0  0  0  0  0  0  0  0  0  0  0  0
   -2.1269   -1.8683    0.0000 C   0  0  0  0  0  0  0  0  0  0  0  0
   -0.4304    1.7944    0.0000 O   0  0  0  0  0  0  0  0  0  0  0  0
    0.3946    1.7950    0.0000 O   0  0  0  0  0  0  0  0  0  0  0  0
  3  1  1  0
  3  2  1  0
  4  2  1  0
  5  2  2  0
  6  4  1  0
  7  1  1  0
  8  5  1  0
  8  6  2  0
  9  4  1  0
 10  7  2  0
 11  7  1  0
 13 12  1  0
 14 10  1  0
 14 12  2  0
 15 11  2  0
 15 12  1  0
 16  9  2  0
 17  9  1  0
 18 17  2  0
 19 16  1  0
 20 18  1  0
 20 19  2  0
 21  1  2  0
 22  1  2  0
M  END
>  <DRUGBANK_ID>  (1) 
DB06729

>  <COMMON_NAME>  (1) 
Sulfaphenazole

>  <CAS_NUMBER>  (1) 
526-08-9

>  <UNII>  (1) 
0J8L4V3F81

>  <SYNONYMS>  (1) 
1-phenyl-5-sulfanilamidopyrazole; 3-(p-aminobenzenesulfonamido)-2-phenylpyrazole; 5-sulfanilamido-1-phenylpyrazole; N'-(1-phenylpyrazol-5-yl)sulfanilamide; N(1)-(1-phenylpyrazol-5-yl)sulfanilamide; Sulfafenazol; Sulfafenazolo; Sulfaph√©nazol; Sulfaphenazole; Sulfaphenazolum; Sulphaphenazole

$$$$
