
     RDKit          2D

  8  8  0  0  0  0  0  0  0  0999 V2000
   -0.3599   -0.4200    0.0000 C   0  0  0  0  0  0  0  0  0  0  0  0
    0.3517   -0.0048    0.0000 C   0  0  0  0  0  0  0  0  0  0  0  0
   -1.0735   -0.0048    0.0000 C   0  0  0  0  0  0  0  0  0  0  0  0
   -0.3599   -1.2409    0.0000 N   0  0  0  0  0  0  0  0  0  0  0  0
    0.3517    0.8276    0.0000 C   0  0  0  0  0  0  0  0  0  0  0  0
    1.0735   -0.4283    0.0000 N   0  0  0  0  0  0  0  0  0  0  0  0
   -1.0735    0.8195    0.0000 C   0  0  0  0  0  0  0  0  0  0  0  0
   -0.3599    1.2409    0.0000 N   0  0  0  0  0  0  0  0  0  0  0  0
  1  2  2  0
  1  3  1  0
  1  4  1  0
  2  5  1  0
  2  6  1  0
  3  7  2  0
  5  8  2  0
  7  8  1  0
M  END
>  <DRUGBANK_ID>  (1) 
DB11640

>  <COMMON_NAME>  (1) 
Amifampridine

>  <CAS_NUMBER>  (1) 
54-96-6

>  <UNII>  (1) 
RU4S6E2G0J

>  <SYNONYMS>  (1) 
3,4 diaminopyridine; 3,4-DAP; 3,4-Diaminopyridine; 3,4-Pyridinediamine; 4,5-Diaminopyridine; Amifampridine; DAP

$$$$
