GGO
     RDKit          2D

 28 31  0  0  0  0  0  0  0  0999 V2000
    0.6165    1.5179    0.0000 C   0  0  0  0  0  0  0  0  0  0  0  0
   -0.0980    1.1054    0.0000 C   0  0  0  0  0  0  0  0  0  0  0  0
   -0.8124    1.5179    0.0000 C   0  0  0  0  0  0  0  0  0  0  0  0
   -0.8124    2.3429    0.0000 C   0  0  0  0  0  0  0  0  0  0  0  0
   -2.2414    2.3429    0.0000 C   0  0  0  0  0  0  0  0  0  0  0  0
   -1.5269    1.1054    0.0000 C   0  0  0  0  0  0  0  0  0  0  0  0
    3.4744   -0.1321    0.0000 C   0  0  0  0  0  0  0  0  0  0  0  0
    3.4744   -0.9571    0.0000 C   0  0  0  0  0  0  0  0  0  0  0  0
    4.1889   -1.3696    0.0000 C   0  0  0  0  0  0  0  0  0  0  0  0
    4.9033   -0.9571    0.0000 C   0  0  0  0  0  0  0  0  0  0  0  0
    4.9033   -0.1321    0.0000 C   0  0  0  0  0  0  0  0  0  0  0  0
    3.4744    1.5179    0.0000 N   0  0  0  0  0  0  0  0  0  0  0  0
    2.7599    1.1054    0.0000 C   0  0  0  0  0  0  0  0  0  0  0  0
    2.0454    1.5179    0.0000 C   0  0  0  0  0  0  0  0  0  0  0  0
    1.3310    1.1054    0.0000 N   0  0  0  0  0  0  0  0  0  0  0  0
   -1.5269    2.7554    0.0000 C   0  0  0  0  0  0  0  0  0  0  0  0
   -3.0260    2.5979    0.0000 O   0  0  0  0  0  0  0  0  0  0  0  0
   -3.5109    1.9304    0.0000 C   0  0  0  0  0  0  0  0  0  0  0  0
   -3.0260    1.2630    0.0000 O   0  0  0  0  0  0  0  0  0  0  0  0
   -2.2414    1.5179    0.0000 C   0  0  0  0  0  0  0  0  0  0  0  0
    1.3310    0.2804    0.0000 C   0  0  0  0  0  0  0  0  0  0  0  0
    0.6165   -0.1321    0.0000 O   0  0  0  0  0  0  0  0  0  0  0  0
    2.0454   -0.1321    0.0000 C   0  0  0  0  0  0  0  0  0  0  0  0
    2.7599    0.2804    0.0000 C   0  0  0  0  0  0  0  0  0  0  0  0
    4.1889   -2.1946    0.0000 F   0  0  0  0  0  0  0  0  0  0  0  0
    5.6178   -1.3696    0.0000 F   0  0  0  0  0  0  0  0  0  0  0  0
    4.1889    0.2804    0.0000 C   0  0  0  0  0  0  0  0  0  0  0  0
    4.1889    1.1054    0.0000 F   0  0  0  0  0  0  0  0  0  0  0  0
  1  2  1  0
  1 15  1  0
  2  3  1  0
  3  6  1  0
  3  4  2  0
  4 16  1  0
  5 20  1  0
  5 17  1  0
  5 16  2  0
  6 20  2  0
  7 27  1  0
  7  8  2  0
  8  9  1  0
  9 10  2  0
  9 25  1  0
 10 11  1  0
 10 26  1  0
 11 27  2  0
 13 12  1  6
 13 24  1  0
 13 14  1  0
 14 15  1  0
 15 21  1  0
 17 18  1  0
 18 19  1  0
 19 20  1  0
 21 22  2  0
 21 23  1  0
 23 24  1  0
 24  7  1  1
 27 28  1  0
M  END
>  <DRUGBANK_ID>  (1) 
DB07830

>  <COMMON_NAME>  (1) 
(4R,5R)-5-AMINO-1-[2-(1,3-BENZODIOXOL-5-YL)ETHYL]-4-(2,4,5-TRIFLUOROPHENYL)PIPERIDIN-2-ONE

$$$$
