B14
     RDKit          2D

 28 31  0  0  0  0  0  0  0  0999 V2000
   -2.3982   -0.3115    0.0000 C   0  0  0  0  0  0  0  0  0  0  0  0
   -3.1990   -0.1133    0.0000 C   0  0  0  0  0  0  0  0  0  0  0  0
   -3.4278    0.6793    0.0000 C   0  0  0  0  0  0  0  0  0  0  0  0
   -2.8558    1.2738    0.0000 C   0  0  0  0  0  0  0  0  0  0  0  0
   -2.0550    1.0756    0.0000 C   0  0  0  0  0  0  0  0  0  0  0  0
   -1.4829    1.6701    0.0000 C   0  0  0  0  0  0  0  0  0  0  0  0
   -0.6821    1.4719    0.0000 N   0  0  0  0  0  0  0  0  0  0  0  0
   -0.4533    0.6793    0.0000 C   0  0  0  0  0  0  0  0  0  0  0  0
   -1.0253    0.0848    0.0000 N   0  0  0  0  0  0  0  0  0  0  0  0
   -1.8262    0.2830    0.0000 C   0  0  0  0  0  0  0  0  0  0  0  0
   -3.0846    2.0664    0.0000 F   0  0  0  0  0  0  0  0  0  0  0  0
   -2.1694   -1.1041    0.0000 F   0  0  0  0  0  0  0  0  0  0  0  0
    0.1188    1.2738    0.0000 C   0  0  0  0  0  0  0  0  0  0  0  0
    0.9196    1.0756    0.0000 C   0  0  0  0  0  0  0  0  0  0  0  0
    1.1484    0.2830    0.0000 N   0  0  0  0  0  0  0  0  0  0  0  0
    0.5764   -0.3115    0.0000 C   0  0  0  0  0  0  0  0  0  0  0  0
   -0.2245   -0.1133    0.0000 C   0  0  0  0  0  0  0  0  0  0  0  0
    1.9493    0.0848    0.0000 C   0  0  0  0  0  0  0  0  0  0  0  0
    2.5213    0.6793    0.0000 O   0  0  0  0  0  0  0  0  0  0  0  0
   -1.7117    2.4627    0.0000 N   0  0  0  0  0  0  0  0  0  0  0  0
    2.1781   -0.7078    0.0000 C   0  0  0  0  0  0  0  0  0  0  0  0
    2.9789   -0.9060    0.0000 C   0  0  0  0  0  0  0  0  0  0  0  0
    3.2078   -1.6986    0.0000 N   0  0  0  0  0  0  0  0  0  0  0  0
    2.6357   -2.2931    0.0000 C   0  0  0  0  0  0  0  0  0  0  0  0
    1.8349   -2.0949    0.0000 C   0  0  0  0  0  0  0  0  0  0  0  0
    1.6061   -1.3023    0.0000 C   0  0  0  0  0  0  0  0  0  0  0  0
    2.8645   -3.0857    0.0000 C   0  0  0  0  0  0  0  0  0  0  0  0
    3.0933   -3.8783    0.0000 N   0  0  0  0  0  0  0  0  0  0  0  0
  1  2  2  0
  1 10  1  0
  1 12  1  0
  2  3  1  0
  3  4  2  0
  4  5  1  0
  4 11  1  0
  5  6  1  0
  5 10  2  0
  6  7  2  0
  6 20  1  0
  7  8  1  0
  8  9  1  0
  8 13  1  0
  8 17  1  0
  9 10  1  0
 13 14  1  0
 14 15  1  0
 15 16  1  0
 15 18  1  0
 16 17  1  0
 18 19  2  0
 18 21  1  0
 21 22  2  0
 21 26  1  0
 22 23  1  0
 23 24  2  0
 24 25  1  0
 24 27  1  0
 25 26  2  0
 27 28  3  0
M  END
>  <DRUGBANK_ID>  (1) 
DB07405

>  <COMMON_NAME>  (1) 
1-(6-CYANO-3-PYRIDYLCARBONYL)-5',8'-DIFLUOROSPIRO[PIPERIDINE-4,2'(1'H)-QUINAZOLINE]-4'-AMINE

$$$$
