A91
     RDKit          2D

 24 26  0  0  0  0  0  0  0  0999 V2000
   -0.4219    3.4235    0.0000 C   0  0  0  0  0  0  0  0  0  0  0  0
   -1.0893    2.9386    0.0000 C   0  0  0  0  0  0  0  0  0  0  0  0
   -0.8344    2.1540    0.0000 N   0  0  0  0  0  0  0  0  0  0  0  0
   -0.0094    2.1540    0.0000 C   0  0  0  0  0  0  0  0  0  0  0  0
    0.2455    2.9386    0.0000 O   0  0  0  0  0  0  0  0  0  0  0  0
    0.4755    1.4865    0.0000 O   0  0  0  0  0  0  0  0  0  0  0  0
   -1.3193    1.4865    0.0000 N   0  0  0  0  0  0  0  0  0  0  0  0
   -0.9838    0.7329    0.0000 C   0  0  0  0  0  0  0  0  0  0  0  0
   -1.4687    0.0654    0.0000 C   0  0  0  0  0  0  0  0  0  0  0  0
   -1.1331   -0.6882    0.0000 C   0  0  0  0  0  0  0  0  0  0  0  0
   -1.6181   -1.3557    0.0000 C   0  0  0  0  0  0  0  0  0  0  0  0
   -2.4385   -1.2695    0.0000 C   0  0  0  0  0  0  0  0  0  0  0  0
   -2.7741   -0.5158    0.0000 C   0  0  0  0  0  0  0  0  0  0  0  0
   -2.2892    0.1517    0.0000 C   0  0  0  0  0  0  0  0  0  0  0  0
   -0.3127   -0.7745    0.0000 C   0  0  0  0  0  0  0  0  0  0  0  0
    0.5078   -0.8607    0.0000 C   0  0  0  0  0  0  0  0  0  0  0  0
    1.3283   -0.9470    0.0000 C   0  0  0  0  0  0  0  0  0  0  0  0
    1.8132   -0.2795    0.0000 C   0  0  0  0  0  0  0  0  0  0  0  0
    2.6337   -0.3658    0.0000 C   0  0  0  0  0  0  0  0  0  0  0  0
    2.9693   -1.1194    0.0000 N   0  0  0  0  0  0  0  0  0  0  0  0
    2.4843   -1.7869    0.0000 C   0  0  0  0  0  0  0  0  0  0  0  0
    1.6639   -1.7006    0.0000 N   0  0  0  0  0  0  0  0  0  0  0  0
    3.1186    0.3017    0.0000 C   0  0  0  0  0  0  0  0  0  0  0  0
    2.8199   -2.5405    0.0000 N   0  0  0  0  0  0  0  0  0  0  0  0
  1  5  1  0
  1  2  2  0
  2  3  1  0
  3  4  1  0
  3  7  1  0
  4  5  1  0
  4  6  2  0
  7  8  1  0
  8  9  1  0
  9 10  1  0
  9 14  2  0
 10 15  1  0
 10 11  2  0
 11 12  1  0
 12 13  2  0
 13 14  1  0
 15 16  3  0
 16 17  1  0
 17 18  2  0
 17 22  1  0
 18 19  1  0
 19 23  1  0
 19 20  2  0
 20 21  1  0
 21 22  2  0
 21 24  1  0
M  END
>  <DRUGBANK_ID>  (1) 
DB07324

>  <COMMON_NAME>  (1) 
3-({2-[(2-AMINO-6-METHYLPYRIMIDIN-4-YL)ETHYNYL]BENZYL}AMINO)-1,3-OXAZOL-2(3H)-ONE

$$$$
