GCA
     RDKit          2D

 24 25  0  0  0  0  0  0  0  0999 V2000
   -0.6898   -0.4723    0.0000 C   0  0  0  0  0  0  0  0  0  0  0  0
    0.0247   -0.8848    0.0000 C   0  0  0  0  0  0  0  0  0  0  0  0
    0.0247   -1.7098    0.0000 C   0  0  0  0  0  0  0  0  0  0  0  0
   -0.6898   -2.1223    0.0000 C   0  0  0  0  0  0  0  0  0  0  0  0
   -1.4043   -1.7098    0.0000 C   0  0  0  0  0  0  0  0  0  0  0  0
   -1.4043   -0.8848    0.0000 C   0  0  0  0  0  0  0  0  0  0  0  0
    0.7391   -2.1223    0.0000 C   0  0  0  0  0  0  0  0  0  0  0  0
   -2.1188   -2.1223    0.0000 C   0  0  0  0  0  0  0  0  0  0  0  0
   -0.6898    0.3527    0.0000 C   0  0  0  0  0  0  0  0  0  0  0  0
    0.0247    0.7652    0.0000 C   0  0  0  0  0  0  0  0  0  0  0  0
    0.0247    1.5902    0.0000 C   0  0  0  0  0  0  0  0  0  0  0  0
   -0.6898    2.0027    0.0000 C   0  0  0  0  0  0  0  0  0  0  0  0
   -0.6898    2.8277    0.0000 C   0  0  0  0  0  0  0  0  0  0  0  0
   -1.4043    1.5902    0.0000 C   0  0  0  0  0  0  0  0  0  0  0  0
    0.7391    2.0027    0.0000 C   0  0  0  0  0  0  0  0  0  0  0  0
    0.7391    2.8277    0.0000 O   0  0  0  0  0  0  0  0  0  0  0  0
    0.7391    0.3527    0.0000 N   0  0  0  0  0  0  0  0  0  0  0  0
    1.4536    0.7652    0.0000 C   0  0  0  0  0  0  0  0  0  0  0  0
    2.1681    0.3527    0.0000 O   0  0  0  0  0  0  0  0  0  0  0  0
    1.4536    1.5902    0.0000 N   0  0  0  0  0  0  0  0  0  0  0  0
    0.7391   -0.4723    0.0000 C   0  0  0  0  0  0  0  0  0  0  0  0
    1.4536   -0.8848    0.0000 O   0  0  0  0  0  0  0  0  0  0  0  0
    2.1681   -0.4723    0.0000 C   0  0  0  0  0  0  0  0  0  0  0  0
    2.8825   -0.8848    0.0000 C   0  0  0  0  0  0  0  0  0  0  0  0
  1  2  2  0
  1  6  1  0
  1  9  1  0
  2  3  1  0
  3  4  2  0
  3  7  1  0
  4  5  1  0
  5  6  2  0
  5  8  1  0
  9 10  1  0
 10 11  2  0
 10 17  1  0
 11 12  1  0
 11 15  1  0
 12 13  1  0
 12 14  1  0
 15 16  2  0
 15 20  1  0
 17 18  1  0
 17 21  1  0
 18 19  2  0
 18 20  1  0
 21 22  1  0
 22 23  1  0
 23 24  1  0
M  END
>  <DRUGBANK_ID>  (1) 
DB07820

>  <COMMON_NAME>  (1) 
6-(3',5'-DIMETHYLBENZYL)-1-ETHOXYMETHYL-5-ISOPROPYLURACIL

$$$$
