
     RDKit          2D

 38 41  0  0  0  0  0  0  0  0999 V2000
   -6.7762   -0.1314    0.0000 C   0  0  0  0  0  0  0  0  0  0  0  0
   -6.7774   -0.9588    0.0000 C   0  0  0  0  0  0  0  0  0  0  0  0
   -6.0624   -1.3718    0.0000 C   0  0  0  0  0  0  0  0  0  0  0  0
   -6.0641    0.2814    0.0000 C   0  0  0  0  0  0  0  0  0  0  0  0
   -5.3487   -0.1277    0.0000 C   0  0  0  0  0  0  0  0  0  0  0  0
   -5.3498   -0.9563    0.0000 C   0  0  0  0  0  0  0  0  0  0  0  0
   -4.6368   -1.3695    0.0000 C   0  0  0  0  0  0  0  0  0  0  0  0
   -3.9179   -0.9583    0.0000 C   0  0  0  0  0  0  0  0  0  0  0  0
   -4.6344    0.2878    0.0000 C   0  0  0  0  0  0  0  0  0  0  0  0
   -3.9209   -0.1314    0.0000 C   0  0  0  0  0  0  0  0  0  0  0  0
   -3.9098    1.5206    0.0000 C   0  0  0  0  0  0  0  0  0  0  0  0
   -4.6320    1.1131    0.0000 C   0  0  0  0  0  0  0  0  0  0  0  0
   -3.1964    1.1014    0.0000 C   0  0  0  0  0  0  0  0  0  0  0  0
   -3.2076    0.2763    0.0000 C   0  0  0  0  0  0  0  0  0  0  0  0
   -2.4265    0.0107    0.0000 C   0  0  0  0  0  0  0  0  0  0  0  0
   -1.9325    0.6716    0.0000 C   0  0  0  0  0  0  0  0  0  0  0  0
   -2.4083    1.3456    0.0000 C   0  0  0  0  0  0  0  0  0  0  0  0
   -7.4924   -1.3710    0.0000 O   0  0  0  0  0  0  0  0  0  0  0  0
   -3.1992    1.9231    0.0000 C   0  0  0  0  0  0  0  0  0  0  0  0
   -2.1992    2.1942    0.0000 O   0  0  0  0  0  0  0  0  0  0  0  0
   -3.2074   -1.3692    0.0000 C   0  0  0  0  0  0  0  0  0  0  0  0
   -2.4948   -0.9565    0.0000 C   0  0  0  0  0  0  0  0  0  0  0  0
   -1.7820   -1.3692    0.0000 C   0  0  0  0  0  0  0  0  0  0  0  0
   -1.0695   -0.9565    0.0000 C   0  0  0  0  0  0  0  0  0  0  0  0
   -0.3569   -1.3692    0.0000 C   0  0  0  0  0  0  0  0  0  0  0  0
    0.3558   -0.9565    0.0000 C   0  0  0  0  0  0  0  0  0  0  0  0
    1.0683   -1.3692    0.0000 C   0  0  0  0  0  0  0  0  0  0  0  0
    1.7810   -0.9565    0.0000 C   0  0  0  0  0  0  0  0  0  0  0  0
    2.4937   -1.3692    0.0000 C   0  0  0  0  0  0  0  0  0  0  0  0
    3.2062   -0.9565    0.0000 C   0  0  0  0  0  0  0  0  0  0  0  0
    3.9189   -1.3692    0.0000 C   0  0  0  0  0  0  0  0  0  0  0  0
    3.9179   -2.1942    0.0000 O   0  0  0  0  0  0  0  0  0  0  0  0
    4.6341   -0.9574    0.0000 N   0  0  0  0  0  0  0  0  0  0  0  0
    5.3480   -1.3709    0.0000 C   0  0  0  0  0  0  0  0  0  0  0  0
    4.6351   -0.1323    0.0000 C   0  0  0  0  0  0  0  0  0  0  0  0
    6.0633   -0.9591    0.0000 C   0  0  0  0  0  0  0  0  0  0  0  0
    6.7774   -1.3725    0.0000 C   0  0  0  0  0  0  0  0  0  0  0  0
    7.4924   -0.9608    0.0000 C   0  0  0  0  0  0  0  0  0  0  0  0
  1  2  2  0
  2  3  1  0
  2 18  1  0
  3  6  2  0
  4  1  1  0
  5  4  2  0
  5  6  1  0
  5  9  1  0
  6  7  1  0
  7  8  1  0
  8 21  1  6
 10  8  1  6
  9 10  1  0
  9 12  1  1
 10 14  1  0
 11 12  1  0
 13 19  1  1
 13 11  1  0
 13 14  1  0
 14 15  1  1
 15 16  1  0
 16 17  1  0
 17 20  1  1
 17 13  1  0
 21 22  1  0
 22 23  1  0
 23 24  1  0
 24 25  1  0
 25 26  1  0
 26 27  1  0
 27 28  1  0
 28 29  1  0
 29 30  1  0
 30 31  1  0
 31 32  2  0
 31 33  1  0
 33 34  1  0
 33 35  1  0
 34 36  1  0
 36 37  1  0
 37 38  1  0
M  END
>  <DRUGBANK_ID>  (1) 
DB03860

>  <SECONDARY_ACCESSION_NUMBERS>  (1) 
EXPT00529

>  <COMMON_NAME>  (1) 
ICI-164384

>  <CAS_NUMBER>  (1) 
98007-99-9

>  <UNII>  (1) 
84LT43726C

$$$$
