
     RDKit          2D

 30 32  0  0  1  0  0  0  0  0999 V2000
    0.6990    2.0305    0.0000 C   0  0  0  0  0  0  0  0  0  0  0  0
    1.3440    1.5161    0.0000 C   0  0  0  0  0  0  0  0  0  0  0  0
    1.2211    0.7003    0.0000 O   0  0  0  0  0  0  0  0  0  0  0  0
    2.1120    1.8175    0.0000 N   0  0  0  0  0  0  0  0  0  0  0  0
    2.7570    1.3031    0.0000 C   0  0  0  0  0  0  0  0  0  0  0  0
    3.5003    1.6611    0.0000 C   0  0  0  0  0  0  0  0  0  0  0  0
    4.2436    1.3031    0.0000 C   0  0  0  0  0  0  0  0  0  0  0  0
    4.4272    0.4988    0.0000 C   0  0  0  0  0  0  0  0  0  0  0  0
    5.2430    0.3759    0.0000 C   0  0  0  0  0  0  0  0  0  0  0  0
    5.5444   -0.3921    0.0000 C   0  0  0  0  0  0  0  0  0  0  0  0
    5.0300   -1.0371    0.0000 C   0  0  0  0  0  0  0  0  0  0  0  0
    4.2142   -0.9142    0.0000 C   0  0  0  0  0  0  0  0  0  0  0  0
    3.9128   -0.1462    0.0000 C   0  0  0  0  0  0  0  0  0  0  0  0
    3.0878   -0.1462    0.0000 C   0  0  0  0  0  0  0  0  0  0  0  0
    2.5734    0.4988    0.0000 C   0  0  0  0  0  0  0  0  0  0  0  0
    1.7576    0.3759    0.0000 C   0  0  0  0  0  0  0  0  0  0  0  0
    1.4562   -0.3921    0.0000 C   0  0  0  0  0  0  0  0  0  0  0  0
    1.9706   -1.0371    0.0000 C   0  0  0  0  0  0  0  0  0  0  0  0
    2.7864   -0.9142    0.0000 C   0  0  0  0  0  0  0  0  0  0  0  0
    0.6404   -0.5151    0.0000 O   0  0  0  0  0  0  0  0  0  0  0  0
    0.3390   -1.2830    0.0000 P   0  0  0  0  0  0  0  0  0  0  0  0
    0.0376   -2.0510    0.0000 O   0  0  0  0  0  0  0  0  0  0  0  0
    1.1070   -1.5844    0.0000 O   0  0  0  0  0  0  0  0  0  0  0  0
   -0.4289   -0.9816    0.0000 O   0  0  0  0  0  0  0  0  0  0  0  0
    3.6998   -1.5592    0.0000 O   0  0  0  0  0  0  0  0  0  0  0  0
    4.0012   -2.3271    0.0000 C   0  0  0  0  0  0  0  0  0  0  0  0
    5.3314   -1.8051    0.0000 O   0  0  0  0  0  0  0  0  0  0  0  0
    4.8170   -2.4501    0.0000 C   0  0  0  0  0  0  0  0  0  0  0  0
    6.3602   -0.5151    0.0000 O   0  0  0  0  0  0  0  0  0  0  0  0
    6.8745    0.1299    0.0000 C   0  0  0  0  0  0  0  0  0  0  0  0
  1  2  1  0
  2  3  2  0
  2  4  1  0
  5  4  1  1
  5  6  1  0
  5 15  1  0
  6  7  1  0
  7  8  1  0
  8  9  2  0
  8 13  1  0
  9 10  1  0
 10 11  2  0
 10 29  1  0
 11 12  1  0
 11 27  1  0
 12 13  2  0
 12 25  1  0
 13 14  1  0
 14 15  2  0
 14 19  1  0
 15 16  1  0
 16 17  2  0
 17 18  1  0
 17 20  1  0
 18 19  2  0
 20 21  1  0
 21 22  2  0
 21 23  1  0
 21 24  1  0
 25 26  1  0
 27 28  1  0
 29 30  1  0
M  END
>  <DRUGBANK_ID>  (1) 
DB11872

>  <COMMON_NAME>  (1) 
ZD-6126

>  <CAS_NUMBER>  (1) 
219923-05-4

>  <UNII>  (1) 
GBO3S6M9W7

$$$$
