
     RDKit          2D

 38 41  0  0  1  0  0  0  0  0999 V2000
   -0.1782   11.2349    0.0000 C   0  0  0  0  0  0  0  0  0  0  0  0
    0.2092   10.5065    0.0000 C   0  0  0  0  0  0  0  0  0  0  0  0
    1.0337   10.4777    0.0000 C   0  0  0  0  0  0  0  0  0  0  0  0
    1.4210    9.7492    0.0000 C   0  0  0  0  0  0  0  0  0  0  0  0
    0.9838    9.0496    0.0000 C   0  0  0  0  0  0  0  0  0  0  0  0
    0.1593    9.0784    0.0000 C   0  0  0  0  0  0  0  0  0  0  0  0
   -0.2280    9.8068    0.0000 C   0  0  0  0  0  0  0  0  0  0  0  0
    1.3711    8.3212    0.0000 C   0  0  0  0  0  0  0  0  0  0  0  0
    0.9339    7.6215    0.0000 O   0  0  0  0  0  0  0  0  0  0  0  0
    2.1956    8.2924    0.0000 N   0  0  0  0  0  0  0  0  0  0  0  0
    2.5829    7.5639    0.0000 C   0  0  0  0  0  0  0  0  0  0  0  0
    3.4074    7.5352    0.0000 C   0  0  0  0  0  0  0  0  0  0  0  0
    3.7947    6.8067    0.0000 C   0  0  0  0  0  0  0  0  0  0  0  0
    3.3575    6.1071    0.0000 C   0  0  0  0  0  0  0  0  0  0  0  0
    2.5330    6.1359    0.0000 C   0  0  0  0  0  0  0  0  0  0  0  0
    2.1457    6.8643    0.0000 C   0  0  0  0  0  0  0  0  0  0  0  0
    4.0415    5.6457    0.0000 O   0  0  0  0  0  0  0  0  0  0  0  0
    3.3575    5.2821    0.0000 C   0  0  0  0  0  0  0  0  0  0  0  0
    2.6431    4.8696    0.0000 O   0  0  0  0  0  0  0  0  0  0  0  0
    2.6431    4.0446    0.0000 C   0  0  0  0  0  0  0  0  0  0  0  0
    1.9756    3.5597    0.0000 C   0  0  0  0  0  0  0  0  0  0  0  0
    2.2306    2.7750    0.0000 O   0  0  0  0  0  0  0  0  0  0  0  0
    3.0556    2.7750    0.0000 C   0  0  0  0  0  0  0  0  0  0  0  0
    3.3105    3.5597    0.0000 C   0  0  0  0  0  0  0  0  0  0  0  0
    2.6328    8.9920    0.0000 C   0  0  0  0  0  0  0  0  0  0  0  0
    3.4558    9.0496    0.0000 C   0  0  0  0  0  0  0  0  0  0  0  0
    3.6554    9.8501    0.0000 S   0  0  0  0  0  0  0  0  0  0  0  0
    2.9557   10.2872    0.0000 C   0  0  0  0  0  0  0  0  0  0  0  0
    2.3237    9.7569    0.0000 C   0  0  0  0  0  0  0  0  0  0  0  0
    2.8982   11.1102    0.0000 C   0  0  0  0  0  0  0  0  0  0  0  0
    2.8406   11.9332    0.0000 C   0  0  0  0  0  0  0  0  0  0  0  0
    2.7831   12.7562    0.0000 C   0  0  0  0  0  0  0  0  0  0  0  0
    2.7255   13.5792    0.0000 C   0  0  0  0  0  0  0  0  0  0  0  0
    1.9601   12.6987    0.0000 C   0  0  0  0  0  0  0  0  0  0  0  0
    3.6061   12.8138    0.0000 C   0  0  0  0  0  0  0  0  0  0  0  0
    3.9861    8.4176    0.0000 C   0  0  0  0  0  0  0  0  0  0  0  0
    4.7985    8.5608    0.0000 O   0  0  0  0  0  0  0  0  0  0  0  0
    3.7039    7.6423    0.0000 O   0  0  0  0  0  0  0  0  0  0  0  0
  1  2  1  0
  2  3  2  0
  2  7  1  0
  3  4  1  0
  4  5  1  0
  5  6  1  0
  5  8  1  6
  6  7  1  0
  8  9  2  0
  8 10  1  0
 10 25  1  0
 11 10  1  1
 11 12  1  0
 11 16  1  0
 12 13  1  0
 13 14  1  0
 14 15  1  0
 14 17  1  1
 14 18  1  0
 15 16  1  0
 18 19  1  0
 20 19  1  1
 20 21  1  0
 20 24  1  0
 21 22  1  0
 22 23  1  0
 23 24  1  0
 25 26  2  0
 25 29  1  0
 26 27  1  0
 26 36  1  0
 27 28  1  0
 28 29  2  0
 28 30  1  0
 30 31  3  0
 31 32  1  0
 32 33  1  0
 32 34  1  0
 32 35  1  0
 36 37  2  0
 36 38  1  0
M  END
>  <DRUGBANK_ID>  (1) 
DB12065

>  <COMMON_NAME>  (1) 
Radalbuvir

>  <CAS_NUMBER>  (1) 
1314795-11-3

>  <UNII>  (1) 
273K4V0SPC

>  <SYNONYMS>  (1) 
Radalbuvir

$$$$
