
     RDKit          2D

 33 35  0  0  0  0  0  0  0  0999 V2000
   -2.1730    1.9520    0.0000 C   0  0  0  0  0  0  0  0  0  0  0  0
   -2.1730    1.1270    0.0000 C   0  0  0  0  0  0  0  0  0  0  0  0
   -2.9980    1.1270    0.0000 C   0  0  0  0  0  0  0  0  0  0  0  0
   -1.3480    1.1270    0.0000 C   0  0  0  0  0  0  0  0  0  0  0  0
   -2.1730    0.3020    0.0000 C   0  0  0  0  0  0  0  0  0  0  0  0
   -1.4586   -0.1105    0.0000 C   0  0  0  0  0  0  0  0  0  0  0  0
   -1.4586   -0.9355    0.0000 C   0  0  0  0  0  0  0  0  0  0  0  0
   -2.1730   -1.3480    0.0000 C   0  0  0  0  0  0  0  0  0  0  0  0
   -2.8875   -0.9355    0.0000 C   0  0  0  0  0  0  0  0  0  0  0  0
   -2.8875   -0.1105    0.0000 C   0  0  0  0  0  0  0  0  0  0  0  0
   -2.1730   -2.1730    0.0000 C   0  0  0  0  0  0  0  0  0  0  0  0
   -2.8875   -2.5855    0.0000 N   0  0  0  0  0  0  0  0  0  0  0  0
   -3.6020   -2.1730    0.0000 C   0  0  0  0  0  0  0  0  0  0  0  0
   -4.3164   -2.5855    0.0000 C   0  0  0  0  0  0  0  0  0  0  0  0
   -4.3164   -3.4105    0.0000 C   0  0  0  0  0  0  0  0  0  0  0  0
   -5.0309   -3.8230    0.0000 C   0  0  0  0  0  0  0  0  0  0  0  0
   -5.7454   -3.4105    0.0000 C   0  0  0  0  0  0  0  0  0  0  0  0
   -5.7454   -2.5855    0.0000 C   0  0  0  0  0  0  0  0  0  0  0  0
   -5.0309   -2.1730    0.0000 C   0  0  0  0  0  0  0  0  0  0  0  0
   -6.4599   -2.1730    0.0000 O   0  0  0  0  0  0  0  0  0  0  0  0
   -7.1743   -2.5855    0.0000 C   0  0  0  0  0  0  0  0  0  0  0  0
   -7.8888   -2.1730    0.0000 C   0  0  0  0  0  0  0  0  0  0  0  0
   -8.6033   -2.5855    0.0000 O   0  0  0  0  0  0  0  0  0  0  0  0
   -7.8888   -1.3480    0.0000 O   0  0  0  0  0  0  0  0  0  0  0  0
   -2.8875   -3.4105    0.0000 S   0  0  0  0  0  0  0  0  0  0  0  0
   -2.8875   -4.2355    0.0000 O   0  0  0  0  0  0  0  0  0  0  0  0
   -3.7125   -3.4105    0.0000 O   0  0  0  0  0  0  0  0  0  0  0  0
   -2.0625   -3.4105    0.0000 C   0  0  0  0  0  0  0  0  0  0  0  0
   -1.6500   -2.6961    0.0000 C   0  0  0  0  0  0  0  0  0  0  0  0
   -0.8250   -2.6961    0.0000 C   0  0  0  0  0  0  0  0  0  0  0  0
   -0.4125   -3.4105    0.0000 C   0  0  0  0  0  0  0  0  0  0  0  0
   -0.8250   -4.1250    0.0000 N   0  0  0  0  0  0  0  0  0  0  0  0
   -1.6500   -4.1250    0.0000 C   0  0  0  0  0  0  0  0  0  0  0  0
  1  2  1  0
  2  3  1  0
  2  4  1  0
  2  5  1  0
  5  6  2  0
  5 10  1  0
  6  7  1  0
  7  8  2  0
  8  9  1  0
  8 11  1  0
  9 10  2  0
 11 12  1  0
 12 13  1  0
 12 25  1  0
 13 14  1  0
 14 15  2  0
 14 19  1  0
 15 16  1  0
 16 17  2  0
 17 18  1  0
 18 19  2  0
 18 20  1  0
 20 21  1  0
 21 22  1  0
 22 23  2  0
 22 24  1  0
 25 26  2  0
 25 27  2  0
 25 28  1  0
 28 29  2  0
 28 33  1  0
 29 30  1  0
 30 31  2  0
 31 32  1  0
 32 33  2  0
M  END
>  <DRUGBANK_ID>  (1) 
DB12022

>  <COMMON_NAME>  (1) 
Evatanepag

>  <CAS_NUMBER>  (1) 
223488-57-1

>  <UNII>  (1) 
L266R6E31E

>  <SYNONYMS>  (1) 
Evatanepag

$$$$
