
     RDKit          2D

 19 22  0  0  0  0  0  0  0  0999 V2000
   -0.2701    3.4709    0.0000 C   0  0  0  0  0  0  0  0  0  0  0  0
   -0.6140    2.7210    0.0000 C   0  0  0  0  0  0  0  0  0  0  0  0
    0.5512    3.5481    0.0000 C   0  0  0  0  0  0  0  0  0  0  0  0
   -0.1365    2.0482    0.0000 C   0  0  0  0  0  0  0  0  0  0  0  0
    4.6501    3.3434    0.0000 C   0  0  0  0  0  0  0  0  0  0  0  0
    3.8683    3.6070    0.0000 C   0  0  0  0  0  0  0  0  0  0  0  0
    4.1935    1.9893    0.0000 C   0  0  0  0  0  0  0  0  0  0  0  0
    2.7926    1.7077    0.0000 C   0  0  0  0  0  0  0  0  0  0  0  0
    3.4118    2.2529    0.0000 C   0  0  0  0  0  0  0  0  0  0  0  0
    4.8127    2.5346    0.0000 C   0  0  0  0  0  0  0  0  0  0  0  0
    1.0288    2.8753    0.0000 C   0  0  0  0  0  0  0  0  0  0  0  0
    0.6849    2.1254    0.0000 C   0  0  0  0  0  0  0  0  0  0  0  0
    3.2492    3.0617    0.0000 C   0  0  0  0  0  0  0  0  0  0  0  0
    1.8482    2.7801    0.0000 C   0  0  0  0  0  0  0  0  0  0  0  0
    1.2919    1.5666    0.0000 C   0  0  0  0  0  0  0  0  0  0  0  0
    5.5944    2.2710    0.0000 N   0  0  0  0  0  0  0  0  0  0  0  0
    2.4674    3.3253    0.0000 N   0  0  0  0  0  0  0  0  0  0  0  0
    2.0109    1.9712    0.0000 N   0  0  0  0  0  0  0  0  0  0  0  0
    1.1966    0.7472    0.0000 O   0  0  0  0  0  0  0  0  0  0  0  0
  2  1  2  0
  3  1  1  0
  4  2  1  0
  6  5  1  0
  9  7  2  0
  9  8  1  0
 10  5  2  0
 10  7  1  0
 11  3  2  0
 12  4  2  0
 12 11  1  0
 13  6  2  0
 13  9  1  0
 14 11  1  0
 15 12  1  0
 16 10  1  0
 17 13  1  0
 17 14  2  0
 18  8  1  0
 18 14  1  0
 18 15  1  0
 19 15  2  0
M  END
>  <DRUGBANK_ID>  (1) 
DB12804

>  <COMMON_NAME>  (1) 
Daniquidone

>  <CAS_NUMBER>  (1) 
67199-66-0

>  <UNII>  (1) 
E780TX33D2

>  <SYNONYMS>  (1) 
Batracylin; Daniquidone

$$$$
