636
     RDKit          2D

 16 16  0  0  0  0  0  0  0  0999 V2000
    2.3645   -3.0938    0.0000 Cl  0  0  0  0  0  0  0  0  0  0  0  0
    2.3645    0.2063    0.0000 O   0  0  0  0  0  0  0  0  0  0  0  0
    3.7935    1.8563    0.0000 O   0  0  0  0  0  0  0  0  0  0  0  0
    4.5080    0.6188    0.0000 O   0  0  0  0  0  0  0  0  0  0  0  0
    3.0791    0.6188    0.0000 C   0  0  0  0  0  0  0  0  0  0  0  0
    2.6665    1.3332    0.0000 C   0  0  0  0  0  0  0  0  0  0  0  0
    3.4916   -0.0957    0.0000 C   0  0  0  0  0  0  0  0  0  0  0  0
    3.7935    1.0313    0.0000 C   0  0  0  0  0  0  0  0  0  0  0  0
    2.3645   -0.6188    0.0000 C   0  0  0  0  0  0  0  0  0  0  0  0
    4.5080    2.2688    0.0000 C   0  0  0  0  0  0  0  0  0  0  0  0
    3.0791   -1.0313    0.0000 C   0  0  0  0  0  0  0  0  0  0  0  0
    1.6500   -1.0313    0.0000 C   0  0  0  0  0  0  0  0  0  0  0  0
    3.0791   -1.8563    0.0000 C   0  0  0  0  0  0  0  0  0  0  0  0
    1.6500   -1.8563    0.0000 C   0  0  0  0  0  0  0  0  0  0  0  0
    4.5080    3.0938    0.0000 C   0  0  0  0  0  0  0  0  0  0  0  0
    2.3645   -2.2688    0.0000 C   0  0  0  0  0  0  0  0  0  0  0  0
  1 16  1  0
  2  5  1  0
  2  9  1  0
  3  8  1  0
  3 10  1  0
  4  8  2  0
  5  6  1  0
  5  7  1  0
  5  8  1  0
  9 11  2  0
  9 12  1  0
 10 15  1  0
 11 13  1  0
 12 14  2  0
 13 16  2  0
 14 16  1  0
M  END
>  <DRUGBANK_ID>  (1) 
DB00636

>  <SECONDARY_ACCESSION_NUMBERS>  (1) 
APRD00879

>  <COMMON_NAME>  (1) 
Clofibrate

>  <CAS_NUMBER>  (1) 
637-07-0

>  <UNII>  (1) 
HPN91K7FU3

>  <SYNONYMS>  (1) 
2-(4-Chlorophenoxy)-2-methylpropanoic acid ethyl ester; 2-(p-Chlorophenoxy)-2-methylpropionic acid ethyl ester; alpha-(p-Chlorophenoxy)isobutyric acid, ethyl ester; alpha-p-Chlorophenoxyisobutyryl ethyl ester; Clofibrate; Clofibrato; Clofibratum; EPIB; Ethyl 2-(p-chlorophenoxy)isobutyrate; Ethyl chlorophenoxyisobutyrate; Ethyl clofibrate; Liprin

$$$$
