J67
     RDKit          2D

 32 36  0  0  0  0  0  0  0  0999 V2000
   -1.1145    1.6872    0.0000 O   0  0  0  0  0  0  0  0  0  0  0  0
   -0.3075    1.5157    0.0000 N   0  0  0  0  0  0  0  0  0  0  0  0
   -0.0526    0.7310    0.0000 C   0  0  0  0  0  0  0  0  0  0  0  0
   -0.5375    0.0636    0.0000 C   0  0  0  0  0  0  0  0  0  0  0  0
   -1.3625    0.0636    0.0000 O   0  0  0  0  0  0  0  0  0  0  0  0
   -0.0526   -0.6038    0.0000 N   0  0  0  0  0  0  0  0  0  0  0  0
   -0.3075   -1.3885    0.0000 C   0  0  0  0  0  0  0  0  0  0  0  0
   -1.1145   -1.5600    0.0000 C   0  0  0  0  0  0  0  0  0  0  0  0
   -1.6665   -0.9469    0.0000 C   0  0  0  0  0  0  0  0  0  0  0  0
   -2.4735   -1.1184    0.0000 C   0  0  0  0  0  0  0  0  0  0  0  0
   -3.0256   -0.5053    0.0000 F   0  0  0  0  0  0  0  0  0  0  0  0
   -2.7285   -1.9030    0.0000 C   0  0  0  0  0  0  0  0  0  0  0  0
   -2.1764   -2.5161    0.0000 C   0  0  0  0  0  0  0  0  0  0  0  0
   -2.4314   -3.3008    0.0000 C   0  0  0  0  0  0  0  0  0  0  0  0
   -1.8793   -3.9139    0.0000 O   0  0  0  0  0  0  0  0  0  0  0  0
   -1.0724   -3.7423    0.0000 C   0  0  0  0  0  0  0  0  0  0  0  0
   -0.8174   -2.9577    0.0000 O   0  0  0  0  0  0  0  0  0  0  0  0
   -1.3695   -2.3446    0.0000 C   0  0  0  0  0  0  0  0  0  0  0  0
    0.7320   -0.3489    0.0000 C   0  0  0  0  0  0  0  0  0  0  0  0
    1.4465   -0.7614    0.0000 C   0  0  0  0  0  0  0  0  0  0  0  0
    2.1610   -0.3489    0.0000 C   0  0  0  0  0  0  0  0  0  0  0  0
    2.1610    0.4761    0.0000 C   0  0  0  0  0  0  0  0  0  0  0  0
    1.4465    0.8886    0.0000 C   0  0  0  0  0  0  0  0  0  0  0  0
    1.4465    1.7136    0.0000 C   0  0  0  0  0  0  0  0  0  0  0  0
    0.7320    2.1261    0.0000 C   0  0  0  0  0  0  0  0  0  0  0  0
    0.7320    2.9511    0.0000 C   0  0  0  0  0  0  0  0  0  0  0  0
    0.0175    3.3636    0.0000 C   0  0  0  0  0  0  0  0  0  0  0  0
    0.0175    4.1886    0.0000 C   0  0  0  0  0  0  0  0  0  0  0  0
    0.7320    4.6011    0.0000 C   0  0  0  0  0  0  0  0  0  0  0  0
    1.4465    4.1886    0.0000 C   0  0  0  0  0  0  0  0  0  0  0  0
    1.4465    3.3636    0.0000 C   0  0  0  0  0  0  0  0  0  0  0  0
    0.7320    0.4761    0.0000 C   0  0  0  0  0  0  0  0  0  0  0  0
  2  1  1  0
  3  2  2  0
  4  3  1  0
  5  4  2  0
  6  4  1  0
  6 19  1  0
  7  6  1  0
  7  8  1  0
  8  9  2  0
  9 10  1  0
 10 11  1  0
 12 10  2  0
 13 12  1  0
 14 13  1  0
 15 14  1  0
 16 15  1  0
 16 17  1  0
 17 18  1  0
 18  8  1  0
 18 13  2  0
 19 32  2  0
 20 19  1  0
 20 21  2  0
 21 22  1  0
 22 23  2  0
 23 24  1  0
 24 25  2  0
 25 26  1  0
 26 27  2  0
 27 28  1  0
 29 28  2  0
 30 29  1  0
 31 26  1  0
 31 30  2  0
 32  3  1  0
 32 23  1  0
M  END
>  <DRUGBANK_ID>  (1) 
DB08010

>  <COMMON_NAME>  (1) 
(3Z)-1-[(6-fluoro-4H-1,3-benzodioxin-8-yl)methyl]-4-[(E)-2-phenylethenyl]-1H-indole-2,3-dione 3-oxime

$$$$
