
     RDKit          2D

 39 43  0  0  1  0  0  0  0  0999 V2000
    4.6895    5.6417    0.0000 C   0  0  0  0  0  0  0  0  0  0  0  0
    5.5020    5.7849    0.0000 O   0  0  0  0  0  0  0  0  0  0  0  0
    6.0323    5.1529    0.0000 C   0  0  0  0  0  0  0  0  0  0  0  0
    6.7467    4.7404    0.0000 C   0  0  0  0  0  0  0  0  0  0  0  0
    6.7467    3.9154    0.0000 C   0  0  0  0  0  0  0  0  0  0  0  0
    6.0323    3.5029    0.0000 C   0  0  0  0  0  0  0  0  0  0  0  0
    5.3178    3.9154    0.0000 C   0  0  0  0  0  0  0  0  0  0  0  0
    5.3178    4.7404    0.0000 C   0  0  0  0  0  0  0  0  0  0  0  0
    6.0323    2.6779    0.0000 C   0  0  0  0  0  0  0  0  0  0  0  0
    6.7467    2.2654    0.0000 N   0  0  0  0  0  0  0  0  0  0  0  0
    6.7467    1.4403    0.0000 C   0  0  0  0  0  0  0  0  0  0  0  0
    7.4612    1.0279    0.0000 N   0  0  0  0  0  0  0  0  0  0  0  0
    7.4612    0.2029    0.0000 C   0  0  0  0  0  0  0  0  0  0  0  0
    8.1286   -0.2819    0.0000 N   0  0  0  0  0  0  0  0  0  0  0  0
    7.8737   -1.0666    0.0000 N   0  0  0  0  0  0  0  0  0  0  0  0
    7.0487   -1.0666    0.0000 C   0  0  0  0  0  0  0  0  0  0  0  0
    6.5638   -1.7340    0.0000 C   0  0  0  0  0  0  0  0  0  0  0  0
    6.7938   -0.2819    0.0000 C   0  0  0  0  0  0  0  0  0  0  0  0
    6.0323    1.0279    0.0000 C   0  0  0  0  0  0  0  0  0  0  0  0
    5.3178    1.4403    0.0000 C   0  0  0  0  0  0  0  0  0  0  0  0
    4.6033    1.0279    0.0000 C   0  0  0  0  0  0  0  0  0  0  0  0
    5.3178    2.2654    0.0000 N   0  0  0  0  0  0  0  0  0  0  0  0
    6.5626    5.7849    0.0000 C   0  0  0  0  0  0  0  0  0  0  0  0
    6.2804    6.5602    0.0000 O   0  0  0  0  0  0  0  0  0  0  0  0
    7.3750    5.6417    0.0000 N   0  0  0  0  0  0  0  0  0  0  0  0
    7.9053    6.2737    0.0000 C   0  0  0  0  0  0  0  0  0  0  0  0
    7.6232    7.0489    0.0000 C   0  0  0  0  0  0  0  0  0  0  0  0
    8.7178    6.1303    0.0000 C   0  0  0  0  0  0  0  0  0  0  0  0
    9.2481    6.7624    0.0000 C   0  0  0  0  0  0  0  0  0  0  0  0
   10.0606    6.6191    0.0000 C   0  0  0  0  0  0  0  0  0  0  0  0
   10.3425    5.8439    0.0000 C   0  0  0  0  0  0  0  0  0  0  0  0
    9.8124    5.2118    0.0000 N   0  0  0  0  0  0  0  0  0  0  0  0
    9.0000    5.3551    0.0000 C   0  0  0  0  0  0  0  0  0  0  0  0
   11.1552    5.7006    0.0000 N   0  0  0  0  0  0  0  0  0  0  0  0
   11.7486    6.2737    0.0000 C   0  0  0  0  0  0  0  0  0  0  0  0
   12.4771    5.8864    0.0000 C   0  0  0  0  0  0  0  0  0  0  0  0
   13.2186    6.2480    0.0000 F   0  0  0  0  0  0  0  0  0  0  0  0
   12.3338    5.0739    0.0000 C   0  0  0  0  0  0  0  0  0  0  0  0
   11.5168    4.9591    0.0000 N   0  0  0  0  0  0  0  0  0  0  0  0
  1  2  1  0
  3  2  1  1
  3  4  1  0
  3  8  1  0
  3 23  1  0
  4  5  1  0
  6  5  1  0
  6  7  1  0
  6  9  1  1
  7  8  1  0
  9 10  2  0
  9 22  1  0
 10 11  1  0
 11 12  1  0
 11 19  2  0
 12 13  1  0
 13 14  2  0
 13 18  1  0
 14 15  1  0
 15 16  1  0
 16 17  1  0
 16 18  2  0
 19 20  1  0
 20 21  1  0
 20 22  2  0
 23 24  2  0
 23 25  1  0
 26 25  1  0
 26 27  1  1
 26 28  1  0
 28 29  2  0
 28 33  1  0
 29 30  1  0
 30 31  2  0
 31 32  1  0
 31 34  1  0
 32 33  2  0
 34 35  1  0
 34 39  1  0
 35 36  2  0
 36 37  1  0
 36 38  1  0
 38 39  2  0
M  END
>  <DRUGBANK_ID>  (1) 
DB15822

>  <COMMON_NAME>  (1) 
Pralsetinib

>  <CAS_NUMBER>  (1) 
2097132-94-8

>  <UNII>  (1) 
1WPE73O1WV

>  <SYNONYMS>  (1) 
Pralsetinib

$$$$
