AOG
     RDKit          2D

 20 20  0  0  0  0  0  0  0  0999 V2000
   -1.5815    0.1900    0.0000 C   0  0  0  0  0  0  0  0  0  0  0  0
   -0.8671    0.6025    0.0000 O   0  0  0  0  0  0  0  0  0  0  0  0
   -1.5815   -0.6350    0.0000 C   0  0  0  0  0  0  0  0  0  0  0  0
   -0.8671   -1.0476    0.0000 O   0  0  0  0  0  0  0  0  0  0  0  0
   -2.2961   -1.0476    0.0000 C   0  0  0  0  0  0  0  0  0  0  0  0
   -3.0106   -0.6350    0.0000 C   0  0  0  0  0  0  0  0  0  0  0  0
   -3.7251   -1.0476    0.0000 O   0  0  0  0  0  0  0  0  0  0  0  0
   -3.0106    0.1900    0.0000 C   0  0  0  0  0  0  0  0  0  0  0  0
   -2.2961    0.6025    0.0000 O   0  0  0  0  0  0  0  0  0  0  0  0
   -3.7251    0.6025    0.0000 C   0  0  0  0  0  0  0  0  0  0  0  0
   -3.7251    1.4276    0.0000 O   0  0  0  0  0  0  0  0  0  0  0  0
   -2.2961   -1.8726    0.0000 N   0  0  0  0  0  0  0  0  0  0  0  0
   -0.1525    0.1900    0.0000 C   0  0  0  0  0  0  0  0  0  0  0  0
    0.5620    0.6025    0.0000 C   0  0  0  0  0  0  0  0  0  0  0  0
    1.2766    0.1900    0.0000 C   0  0  0  0  0  0  0  0  0  0  0  0
    1.9910    0.6025    0.0000 C   0  0  0  0  0  0  0  0  0  0  0  0
    2.7056    0.1900    0.0000 C   0  0  0  0  0  0  0  0  0  0  0  0
    3.4202    0.6025    0.0000 C   0  0  0  0  0  0  0  0  0  0  0  0
    4.1346    0.1900    0.0000 C   0  0  0  0  0  0  0  0  0  0  0  0
    4.8492    0.6025    0.0000 C   0  0  0  0  0  0  0  0  0  0  0  0
  1  2  1  1
  1  3  1  0
  1  9  1  0
  2 13  1  0
  3  4  1  6
  3  5  1  0
  5  6  1  0
  5 12  1  1
  6  7  1  1
  6  8  1  0
  8  9  1  0
  8 10  1  1
 10 11  1  0
 13 14  1  0
 14 15  1  0
 15 16  1  0
 16 17  1  0
 17 18  1  0
 18 19  1  0
 19 20  1  0
M  END
>  <DRUGBANK_ID>  (1) 
DB07378

>  <COMMON_NAME>  (1) 
4-AMINO-2-OCTYLOXY-6-HYDROXYMETHYL-TETRAHYDRO-PYRAN-3,5-DIOL

$$$$
