
     RDKit          2D

 29 33  0  0  0  0  0  0  0  0999 V2000
   -2.3505   -0.1399    0.0000 C   0  0  0  0  0  0  0  0  0  0  0  0
   -3.0650   -0.5525    0.0000 C   0  0  0  0  0  0  0  0  0  0  0  0
   -3.7794   -0.1400    0.0000 C   0  0  0  0  0  0  0  0  0  0  0  0
   -4.4939   -0.5524    0.0000 C   0  0  0  0  0  0  0  0  0  0  0  0
   -4.4939   -1.3775    0.0000 C   0  0  0  0  0  0  0  0  0  0  0  0
   -5.2084   -1.7899    0.0000 F   0  0  0  0  0  0  0  0  0  0  0  0
   -3.7794   -1.7899    0.0000 C   0  0  0  0  0  0  0  0  0  0  0  0
   -3.0650   -1.3775    0.0000 C   0  0  0  0  0  0  0  0  0  0  0  0
   -2.3505    0.6850    0.0000 O   0  0  0  0  0  0  0  0  0  0  0  0
   -1.6360   -0.5524    0.0000 C   0  0  0  0  0  0  0  0  0  0  0  0
   -0.9214   -0.1399    0.0000 C   0  0  0  0  0  0  0  0  0  0  0  0
   -0.2070   -0.5524    0.0000 C   0  0  0  0  0  0  0  0  0  0  0  0
    0.5074   -0.1399    0.0000 N   0  0  0  0  0  0  0  0  0  0  0  0
    1.2220   -0.5524    0.0000 C   0  0  0  0  0  0  0  0  0  0  0  0
    1.9364   -0.1399    0.0000 C   0  0  0  0  0  0  0  0  0  0  0  0
    2.7333   -0.3534    0.0000 C   0  0  0  0  0  0  0  0  0  0  0  0
    3.1457   -1.0679    0.0000 C   0  0  0  0  0  0  0  0  0  0  0  0
    3.9708   -1.0679    0.0000 C   0  0  0  0  0  0  0  0  0  0  0  0
    4.3833   -0.3534    0.0000 C   0  0  0  0  0  0  0  0  0  0  0  0
    3.9709    0.3609    0.0000 C   0  0  0  0  0  0  0  0  0  0  0  0
    3.1457    0.3609    0.0000 C   0  0  0  0  0  0  0  0  0  0  0  0
    2.7333    1.0755    0.0000 N   0  0  0  0  0  0  0  0  0  0  0  0
    1.9364    0.6850    0.0000 C   0  0  0  0  0  0  0  0  0  0  0  0
    1.2220    1.0975    0.0000 C   0  0  0  0  0  0  0  0  0  0  0  0
    0.5074    0.6850    0.0000 C   0  0  0  0  0  0  0  0  0  0  0  0
    3.1457    1.7899    0.0000 C   0  0  0  0  0  0  0  0  0  0  0  0
    3.9708    1.7899    0.0000 C   0  0  0  0  0  0  0  0  0  0  0  0
    4.3834    1.0755    0.0000 N   0  0  0  0  0  0  0  0  0  0  0  0
    5.2084    1.0755    0.0000 C   0  0  0  0  0  0  0  0  0  0  0  0
  1  2  1  0
  1  9  2  0
  1 10  1  0
  2  3  2  0
  2  8  1  0
  4  3  1  0
  5  4  2  0
  5  6  1  0
  7  5  1  0
  8  7  2  0
 10 11  1  0
 11 12  1  0
 12 13  1  0
 14 13  1  0
 15 14  1  6
 15 16  1  0
 15 23  1  0
 16 17  2  0
 17 18  1  0
 18 19  2  0
 19 20  1  0
 21 20  2  0
 21 16  1  0
 22 21  1  0
 23 22  1  0
 23 24  1  6
 24 25  1  0
 25 13  1  0
 26 22  1  0
 27 26  1  0
 28 27  1  0
 28 29  1  0
 28 20  1  0
M  END
>  <DRUGBANK_ID>  (1) 
DB06077

>  <COMMON_NAME>  (1) 
Lumateperone

>  <CAS_NUMBER>  (1) 
313368-91-1

>  <UNII>  (1) 
70BSQ12069

>  <SYNONYMS>  (1) 
Lumateperone

$$$$
