FRL
     RDKit          2D

 30 33  0  0  0  0  0  0  0  0999 V2000
   -2.3610   -1.1558    0.0000 C   0  0  0  0  0  0  0  0  0  0  0  0
   -1.5360   -1.1558    0.0000 C   0  0  0  0  0  0  0  0  0  0  0  0
   -1.1235   -1.8703    0.0000 C   0  0  0  0  0  0  0  0  0  0  0  0
   -1.5360   -2.5847    0.0000 C   0  0  0  0  0  0  0  0  0  0  0  0
   -2.3610   -2.5847    0.0000 C   0  0  0  0  0  0  0  0  0  0  0  0
   -2.7735   -1.8703    0.0000 C   0  0  0  0  0  0  0  0  0  0  0  0
   -3.5985   -1.8703    0.0000 Cl  0  0  0  0  0  0  0  0  0  0  0  0
   -0.2985   -1.8703    0.0000 C   0  0  0  0  0  0  0  0  0  0  0  0
    0.1864   -2.5377    0.0000 N   0  0  0  0  0  0  0  0  0  0  0  0
    0.9711   -2.2828    0.0000 C   0  0  0  0  0  0  0  0  0  0  0  0
    0.9711   -1.4578    0.0000 C   0  0  0  0  0  0  0  0  0  0  0  0
    0.1864   -1.2028    0.0000 O   0  0  0  0  0  0  0  0  0  0  0  0
    1.6855   -2.6953    0.0000 C   0  0  0  0  0  0  0  0  0  0  0  0
    2.4000   -2.2828    0.0000 C   0  0  0  0  0  0  0  0  0  0  0  0
    2.4000   -1.4578    0.0000 C   0  0  0  0  0  0  0  0  0  0  0  0
    1.6855   -1.0453    0.0000 C   0  0  0  0  0  0  0  0  0  0  0  0
    1.6855   -0.2203    0.0000 C   0  0  0  0  0  0  0  0  0  0  0  0
    0.9711    0.1922    0.0000 C   0  0  0  0  0  0  0  0  0  0  0  0
    0.9711    1.0172    0.0000 C   0  0  0  0  0  0  0  0  0  0  0  0
    1.6855    1.4297    0.0000 C   0  0  0  0  0  0  0  0  0  0  0  0
    1.6855    2.2547    0.0000 O   0  0  0  0  0  0  0  0  0  0  0  0
    0.2566    1.4297    0.0000 N   0  0  0  0  0  0  0  0  0  0  0  0
    2.4000    1.0172    0.0000 C   0  0  0  0  0  0  0  0  0  0  0  0
   -0.4971    1.0942    0.0000 C   0  0  0  0  0  0  0  0  0  0  0  0
   -1.0491    1.7073    0.0000 N   0  0  0  0  0  0  0  0  0  0  0  0
   -0.6366    2.4218    0.0000 C   0  0  0  0  0  0  0  0  0  0  0  0
    0.1704    2.2502    0.0000 C   0  0  0  0  0  0  0  0  0  0  0  0
   -0.9722    3.1754    0.0000 C   0  0  0  0  0  0  0  0  0  0  0  0
   -1.7927    3.2617    0.0000 O   0  0  0  0  0  0  0  0  0  0  0  0
   -0.4873    3.8429    0.0000 N   0  0  0  0  0  0  0  0  0  0  0  0
  1  2  2  0
  1  6  1  0
  2  3  1  0
  3  4  2  0
  3  8  1  0
  4  5  1  0
  5  6  2  0
  6  7  1  0
  8  9  2  0
  8 12  1  0
  9 10  1  0
 10 11  2  0
 10 13  1  0
 11 12  1  0
 11 16  1  0
 13 14  2  0
 14 15  1  0
 15 16  2  0
 16 17  1  0
 17 18  1  0
 19 18  1  6
 19 20  1  0
 19 22  1  0
 20 21  1  0
 20 23  1  1
 22 24  1  0
 22 27  1  0
 24 25  2  0
 25 26  1  0
 26 27  2  0
 26 28  1  0
 28 29  2  0
 28 30  1  0
M  END
>  <DRUGBANK_ID>  (1) 
DB07786

>  <COMMON_NAME>  (1) 
1-((1R,2S)-1-{2-[2-(4-CHLOROPHENYL)-1,3-BENZOXAZOL-7-YL]ETHYL}-2-HYDROXYPROPYL)-1H-IMIDAZOLE-4-CARBOXAMIDE

$$$$
