628
     RDKit          2D

 30 33  0  0  0  0  0  0  0  0999 V2000
    1.8313    0.3452    0.0000 C   0  0  0  0  0  0  0  0  0  0  0  0
    1.1168   -0.0673    0.0000 C   0  0  0  0  0  0  0  0  0  0  0  0
    0.4023    0.3452    0.0000 N   0  0  0  0  0  0  0  0  0  0  0  0
    0.4023    1.1702    0.0000 C   0  0  0  0  0  0  0  0  0  0  0  0
    1.1168    1.5827    0.0000 C   0  0  0  0  0  0  0  0  0  0  0  0
    1.8313    1.1702    0.0000 C   0  0  0  0  0  0  0  0  0  0  0  0
   -0.3823    0.0902    0.0000 C   0  0  0  0  0  0  0  0  0  0  0  0
   -0.8672    0.7577    0.0000 C   0  0  0  0  0  0  0  0  0  0  0  0
   -0.3823    1.4251    0.0000 N   0  0  0  0  0  0  0  0  0  0  0  0
   -3.3422   -2.1002    0.0000 S   0  0  0  0  0  0  0  0  0  0  0  0
   -2.9297   -1.3857    0.0000 C   0  0  0  0  0  0  0  0  0  0  0  0
   -3.3422   -0.6713    0.0000 C   0  0  0  0  0  0  0  0  0  0  0  0
   -2.9297    0.0432    0.0000 C   0  0  0  0  0  0  0  0  0  0  0  0
   -2.1047    0.0432    0.0000 C   0  0  0  0  0  0  0  0  0  0  0  0
   -1.6922   -0.6713    0.0000 C   0  0  0  0  0  0  0  0  0  0  0  0
   -2.1047   -1.3857    0.0000 C   0  0  0  0  0  0  0  0  0  0  0  0
    2.5458   -0.0673    0.0000 C   0  0  0  0  0  0  0  0  0  0  0  0
    3.2602    0.3452    0.0000 C   0  0  0  0  0  0  0  0  0  0  0  0
    3.2602    1.1702    0.0000 C   0  0  0  0  0  0  0  0  0  0  0  0
    3.9747    1.5827    0.0000 C   0  0  0  0  0  0  0  0  0  0  0  0
    4.6892    1.1702    0.0000 C   0  0  0  0  0  0  0  0  0  0  0  0
    4.6892    0.3452    0.0000 C   0  0  0  0  0  0  0  0  0  0  0  0
    3.9747   -0.0673    0.0000 C   0  0  0  0  0  0  0  0  0  0  0  0
    2.5458   -0.8923    0.0000 O   0  0  0  0  0  0  0  0  0  0  0  0
   -3.7547   -2.8147    0.0000 O   0  0  0  0  0  0  0  0  0  0  0  0
   -1.6922    0.7577    0.0000 N   0  0  0  0  0  0  0  0  0  0  0  0
    2.5458    1.5827    0.0000 Cl  0  0  0  0  0  0  0  0  0  0  0  0
    3.9747   -0.8923    0.0000 Cl  0  0  0  0  0  0  0  0  0  0  0  0
   -4.0567   -1.6877    0.0000 N   0  0  0  0  0  0  0  0  0  0  0  0
   -2.6277   -2.5127    0.0000 O   0  0  0  0  0  0  0  0  0  0  0  0
  1  2  2  0
  1  6  1  0
  1 17  1  0
  2  3  1  0
  3  4  1  0
  3  7  1  0
  4  5  1  0
  4  9  2  0
  5  6  2  0
  7  8  2  0
  8  9  1  0
  8 26  1  0
 10 11  1  0
 10 25  2  0
 10 29  1  0
 10 30  2  0
 11 12  2  0
 11 16  1  0
 12 13  1  0
 13 14  2  0
 14 15  1  0
 14 26  1  0
 15 16  2  0
 17 18  1  0
 17 24  2  0
 18 19  2  0
 18 23  1  0
 19 20  1  0
 19 27  1  0
 20 21  2  0
 21 22  1  0
 22 23  2  0
 23 28  1  0
M  END
>  <DRUGBANK_ID>  (1) 
DB04607

>  <COMMON_NAME>  (1) 
PHENYLAMINOIMIDAZO(1,2-ALPHA)PYRIDINE

$$$$
