
     RDKit          2D

 19 20  0  0  0  0  0  0  0  0999 V2000
   -1.2519    0.6617    0.0000 C   0  0  0  0  0  0  0  0  0  0  0  0
   -0.4509    0.8321    0.0000 C   0  0  0  0  0  0  0  0  0  0  0  0
   -0.1960    1.6168    0.0000 C   0  0  0  0  0  0  0  0  0  0  0  0
   -0.7480    2.2299    0.0000 C   0  0  0  0  0  0  0  0  0  0  0  0
   -1.5490    2.0597    0.0000 C   0  0  0  0  0  0  0  0  0  0  0  0
   -1.8040    1.2749    0.0000 C   0  0  0  0  0  0  0  0  0  0  0  0
   -1.5079   -0.1258    0.0000 C   0  0  0  0  0  0  0  0  0  0  0  0
   -2.2896   -0.3798    0.0000 N   0  0  0  0  0  0  0  0  0  0  0  0
   -2.2896   -1.2019    0.0000 O   0  0  0  0  0  0  0  0  0  0  0  0
   -1.5079   -1.4559    0.0000 C   0  0  0  0  0  0  0  0  0  0  0  0
   -1.0246   -0.7909    0.0000 N   0  0  0  0  0  0  0  0  0  0  0  0
   -1.2563   -2.2299    0.0000 N   0  0  0  0  0  0  0  0  0  0  0  0
   -0.1854   -0.7830    0.0000 C   0  0  0  0  0  0  0  0  0  0  0  0
    0.2268   -0.0684    0.0000 C   0  0  0  0  0  0  0  0  0  0  0  0
    1.0519   -0.0681    0.0000 N   0  0  0  0  0  0  0  0  0  0  0  0
    1.4708   -0.7930    0.0000 C   0  0  0  0  0  0  0  0  0  0  0  0
    1.4583    0.6360    0.0000 C   0  0  0  0  0  0  0  0  0  0  0  0
    2.2895    0.6364    0.0000 C   0  0  0  0  0  0  0  0  0  0  0  0
    2.2896   -0.7925    0.0000 C   0  0  0  0  0  0  0  0  0  0  0  0
  1  2  2  0
  1  6  1  0
  1  7  1  0
  2  3  1  0
  3  4  2  0
  4  5  1  0
  5  6  2  0
  7  8  2  0
  7 11  1  0
  8  9  1  0
  9 10  1  0
 10 11  1  0
 10 12  2  0
 11 13  1  0
 13 14  1  0
 14 15  1  0
 15 16  1  0
 15 17  1  0
 16 19  1  0
 17 18  1  0
M  END
>  <DRUGBANK_ID>  (1) 
DB09284

>  <COMMON_NAME>  (1) 
Imolamine

>  <CAS_NUMBER>  (1) 
318-23-0

>  <UNII>  (1) 
K5F4RU5VQJ

>  <SYNONYMS>  (1) 
3-Phenyl-4-diethylaminoethyl-5-imino-1,2,4-oxadiazol; Imolamina; Imolamine; Imolaminum

$$$$
