
     RDKit          2D

 26 27  0  0  0  0  0  0  0  0999 V2000
    3.5087   -0.3603    0.0000 O   0  0  0  0  0  0  0  0  0  0  0  0
   -3.5087    0.3603    0.0000 O   0  0  0  0  0  0  0  0  0  0  0  0
    3.5087    1.0716    0.0000 O   0  0  0  0  0  0  0  0  0  0  0  0
   -3.5087   -1.0620    0.0000 O   0  0  0  0  0  0  0  0  0  0  0  0
    0.2086   -0.3508    0.0000 C   0  0  0  0  0  0  0  0  0  0  0  0
   -0.2086    0.3603    0.0000 C   0  0  0  0  0  0  0  0  0  0  0  0
    1.0336   -0.3508    0.0000 C   0  0  0  0  0  0  0  0  0  0  0  0
   -1.0336    0.3603    0.0000 C   0  0  0  0  0  0  0  0  0  0  0  0
    1.4414   -1.0715    0.0000 C   0  0  0  0  0  0  0  0  0  0  0  0
   -1.4414    1.0716    0.0000 C   0  0  0  0  0  0  0  0  0  0  0  0
    1.4414    0.3603    0.0000 C   0  0  0  0  0  0  0  0  0  0  0  0
   -1.4414   -0.3508    0.0000 C   0  0  0  0  0  0  0  0  0  0  0  0
    2.6837   -0.3603    0.0000 C   0  0  0  0  0  0  0  0  0  0  0  0
   -2.6837    0.3603    0.0000 C   0  0  0  0  0  0  0  0  0  0  0  0
   -0.2086   -1.0715    0.0000 C   0  0  0  0  0  0  0  0  0  0  0  0
    0.2086    1.0716    0.0000 C   0  0  0  0  0  0  0  0  0  0  0  0
    2.2665   -1.0715    0.0000 C   0  0  0  0  0  0  0  0  0  0  0  0
   -2.2664    1.0716    0.0000 C   0  0  0  0  0  0  0  0  0  0  0  0
    2.2665    0.3603    0.0000 C   0  0  0  0  0  0  0  0  0  0  0  0
   -2.2664   -0.3508    0.0000 C   0  0  0  0  0  0  0  0  0  0  0  0
    3.9165    0.3603    0.0000 C   0  0  0  0  0  0  0  0  0  0  0  0
   -3.9164   -0.3508    0.0000 C   0  0  0  0  0  0  0  0  0  0  0  0
    0.2086   -1.7828    0.0000 C   0  0  0  0  0  0  0  0  0  0  0  0
   -0.2086    1.7828    0.0000 C   0  0  0  0  0  0  0  0  0  0  0  0
    4.7415    0.3603    0.0000 C   0  0  0  0  0  0  0  0  0  0  0  0
   -4.7415   -0.3508    0.0000 C   0  0  0  0  0  0  0  0  0  0  0  0
  1 13  1  0
  1 21  1  0
  2 14  1  0
  2 22  1  0
  3 21  2  0
  4 22  2  0
  5  6  1  0
  5  7  1  0
  5 15  2  0
  6  8  1  0
  6 16  2  0
  7  9  2  0
  7 11  1  0
  8 10  2  0
  8 12  1  0
  9 17  1  0
 10 18  1  0
 11 19  2  0
 12 20  2  0
 13 17  2  0
 13 19  1  0
 14 18  2  0
 14 20  1  0
 15 23  1  0
 16 24  1  0
 21 25  1  0
 22 26  1  0
M  END
>  <DRUGBANK_ID>  (1) 
DB14668

>  <SECONDARY_ACCESSION_NUMBERS>  (1) 
DBSALT002243

>  <COMMON_NAME>  (1) 
Dienestrol diacetate

>  <CAS_NUMBER>  (1) 
24705-61-1

>  <UNII>  (1) 
D20D148WPQ

>  <SYNONYMS>  (1) 
Dienestrol acetate; Lipamone

$$$$
