
     RDKit          2D

 12 12  0  0  0  0  0  0  0  0999 V2000
    1.4341    0.4733    0.0000 O   0  0  0  0  0  0  0  0  0  0  0  0
   -1.4341    0.4675    0.0000 O   0  0  0  0  0  0  0  0  0  0  0  0
    0.7084   -0.7686    0.0000 N   0  0  0  0  0  0  0  0  0  0  0  0
   -0.0057    0.4675    0.0000 C   0  0  0  0  0  0  0  0  0  0  0  0
    0.7084    0.0544    0.0000 C   0  0  0  0  0  0  0  0  0  0  0  0
   -0.7200    0.0544    0.0000 C   0  0  0  0  0  0  0  0  0  0  0  0
   -0.5879    1.1760    0.0000 C   0  0  0  0  0  0  0  0  0  0  0  0
    0.4904    1.1157    0.0000 C   0  0  0  0  0  0  0  0  0  0  0  0
   -0.7200   -0.7686    0.0000 C   0  0  0  0  0  0  0  0  0  0  0  0
   -0.0057   -1.1818    0.0000 C   0  0  0  0  0  0  0  0  0  0  0  0
    1.3165    1.1157    0.0000 C   0  0  0  0  0  0  0  0  0  0  0  0
   -1.3854    1.1818    0.0000 C   0  0  0  0  0  0  0  0  0  0  0  0
  1  5  2  0
  2  6  2  0
  3  5  1  0
  3 10  1  0
  4  5  1  0
  4  6  1  0
  4  7  1  0
  4  8  1  0
  6  9  1  0
  7 12  1  0
  8 11  1  0
  9 10  2  0
M  END
>  <DRUGBANK_ID>  (1) 
DB13331

>  <COMMON_NAME>  (1) 
Pyrithyldione

>  <CAS_NUMBER>  (1) 
77-04-3

>  <UNII>  (1) 
8AB20823CK

>  <SYNONYMS>  (1) 
Pyrithyldiona; Pyrithyldione; Pyrithyldionum

$$$$
