MR2
     RDKit          2D

 31 35  0  0  0  0  0  0  0  0999 V2000
   -1.6073   -0.3718    0.0000 C   0  0  0  0  0  0  0  0  0  0  0  0
   -1.6073    0.4532    0.0000 C   0  0  0  0  0  0  0  0  0  0  0  0
   -2.3217    0.8657    0.0000 C   0  0  0  0  0  0  0  0  0  0  0  0
   -2.3217    1.6907    0.0000 C   0  0  0  0  0  0  0  0  0  0  0  0
   -1.6073    2.1032    0.0000 C   0  0  0  0  0  0  0  0  0  0  0  0
   -0.8928    1.6907    0.0000 C   0  0  0  0  0  0  0  0  0  0  0  0
   -0.1783    2.1032    0.0000 C   0  0  0  0  0  0  0  0  0  0  0  0
    0.5361    1.6907    0.0000 C   0  0  0  0  0  0  0  0  0  0  0  0
    0.5361    0.8657    0.0000 C   0  0  0  0  0  0  0  0  0  0  0  0
   -0.1783    0.4532    0.0000 C   0  0  0  0  0  0  0  0  0  0  0  0
   -0.8928    0.8657    0.0000 C   0  0  0  0  0  0  0  0  0  0  0  0
   -0.1783   -0.3718    0.0000 C   0  0  0  0  0  0  0  0  0  0  0  0
    0.6341   -0.2285    0.0000 C   0  0  0  0  0  0  0  0  0  0  0  0
    0.9163    0.5467    0.0000 C   0  0  0  0  0  0  0  0  0  0  0  0
    1.7288    0.6900    0.0000 C   0  0  0  0  0  0  0  0  0  0  0  0
    2.2591    0.0580    0.0000 C   0  0  0  0  0  0  0  0  0  0  0  0
    1.9769   -0.7173    0.0000 C   0  0  0  0  0  0  0  0  0  0  0  0
    1.1644   -0.8605    0.0000 C   0  0  0  0  0  0  0  0  0  0  0  0
    0.1038   -1.1470    0.0000 C   0  0  0  0  0  0  0  0  0  0  0  0
    0.9163   -1.2903    0.0000 C   0  0  0  0  0  0  0  0  0  0  0  0
    1.1985   -2.0655    0.0000 C   0  0  0  0  0  0  0  0  0  0  0  0
    0.6682   -2.6975    0.0000 C   0  0  0  0  0  0  0  0  0  0  0  0
   -0.1443   -2.5543    0.0000 C   0  0  0  0  0  0  0  0  0  0  0  0
   -0.4265   -1.7790    0.0000 C   0  0  0  0  0  0  0  0  0  0  0  0
   -0.1783    2.9282    0.0000 N   0  0  0  0  0  0  0  0  0  0  0  0
   -0.8928   -0.7843    0.0000 O   0  0  0  0  0  0  0  0  0  0  0  0
   -2.3217   -0.7843    0.0000 O   0  0  0  0  0  0  0  0  0  0  0  0
    3.0715    0.2012    0.0000 O   0  0  0  0  0  0  0  0  0  0  0  0
    0.9503   -3.4728    0.0000 O   0  0  0  0  0  0  0  0  0  0  0  0
   -0.8928    3.3407    0.0000 O   0  0  0  0  0  0  0  0  0  0  0  0
    0.5361    3.3407    0.0000 O   0  0  0  0  0  0  0  0  0  0  0  0
  1  2  1  0
  1 26  1  0
  1 27  2  0
  2  3  1  0
  2 11  2  0
  3  4  2  0
  4  5  1  0
  5  6  2  0
  6  7  1  0
  6 11  1  0
  7  8  2  0
  7 25  1  0
  8  9  1  0
  9 10  2  0
 10 11  1  0
 10 12  1  0
 12 13  1  0
 12 19  1  0
 12 26  1  0
 13 14  2  0
 13 18  1  0
 14 15  1  0
 15 16  2  0
 16 17  1  0
 16 28  1  0
 17 18  2  0
 19 20  2  0
 19 24  1  0
 20 21  1  0
 21 22  2  0
 22 23  1  0
 22 29  1  0
 23 24  2  0
 25 30  1  0
 25 31  2  0
M  CHG  2  25   1  30  -1
M  END
>  <DRUGBANK_ID>  (1) 
DB08204

>  <COMMON_NAME>  (1) 
3-DIPHENOL-6-NITRO-3H-BENZO[DE]ISOCHROMEN-1-ONE

$$$$
