3IB
     RDKit          2D

 15 16  0  0  0  0  0  0  0  0999 V2000
   -1.9615    0.1646    0.0000 N   0  0  0  0  0  0  0  0  0  0  0  0
   -1.4094    0.7777    0.0000 C   0  0  0  0  0  0  0  0  0  0  0  0
   -0.6558    0.4421    0.0000 C   0  0  0  0  0  0  0  0  0  0  0  0
   -0.1900   -0.9914    0.0000 C   0  0  0  0  0  0  0  0  0  0  0  0
   -0.4449   -1.7761    0.0000 C   0  0  0  0  0  0  0  0  0  0  0  0
   -1.2519   -1.9476    0.0000 C   0  0  0  0  0  0  0  0  0  0  0  0
   -1.8039   -1.3345    0.0000 C   0  0  0  0  0  0  0  0  0  0  0  0
   -1.5490   -0.5499    0.0000 C   0  0  0  0  0  0  0  0  0  0  0  0
   -0.7420   -0.3784    0.0000 C   0  0  0  0  0  0  0  0  0  0  0  0
    0.0587    0.8546    0.0000 C   0  0  0  0  0  0  0  0  0  0  0  0
    0.7732    0.4421    0.0000 C   0  0  0  0  0  0  0  0  0  0  0  0
    1.4877    0.8546    0.0000 C   0  0  0  0  0  0  0  0  0  0  0  0
    2.2021    0.4421    0.0000 C   0  0  0  0  0  0  0  0  0  0  0  0
    2.9166    0.8546    0.0000 O   0  0  0  0  0  0  0  0  0  0  0  0
    2.2021   -0.3829    0.0000 O   0  0  0  0  0  0  0  0  0  0  0  0
  1  2  1  0
  1  8  1  0
  2  3  2  0
  3  9  1  0
  3 10  1  0
  4  5  1  0
  4  9  2  0
  5  6  2  0
  6  7  1  0
  7  8  2  0
  8  9  1  0
 10 11  1  0
 11 12  1  0
 12 13  1  0
 13 14  1  0
 13 15  2  0
M  END
>  <DRUGBANK_ID>  (1) 
DB02740

>  <SECONDARY_ACCESSION_NUMBERS>  (1) 
EXPT00173

>  <COMMON_NAME>  (1) 
3-Indolebutyric Acid

>  <CAS_NUMBER>  (1) 
133-32-4

>  <UNII>  (1) 
061SKE27JP

$$$$
