
     RDKit          2D

 31 33  0  0  1  0  0  0  0  0999 V2000
   -0.0404    4.0319    0.0000 C   0  0  0  0  0  0  0  0  0  0  0  0
   -0.4529    3.3174    0.0000 C   0  0  0  0  0  0  0  0  0  0  0  0
   -0.0404    2.6029    0.0000 O   0  0  0  0  0  0  0  0  0  0  0  0
   -0.4529    1.8885    0.0000 C   0  0  0  0  0  0  0  0  0  0  0  0
   -0.0404    1.1740    0.0000 C   0  0  0  0  0  0  0  0  0  0  0  0
   -0.4529    0.4595    0.0000 C   0  0  0  0  0  0  0  0  0  0  0  0
   -1.2779    0.4595    0.0000 C   0  0  0  0  0  0  0  0  0  0  0  0
   -1.6904    1.1740    0.0000 C   0  0  0  0  0  0  0  0  0  0  0  0
   -1.2779    1.8885    0.0000 C   0  0  0  0  0  0  0  0  0  0  0  0
   -1.6904    2.6029    0.0000 O   0  0  0  0  0  0  0  0  0  0  0  0
   -1.2779    3.3174    0.0000 C   0  0  0  0  0  0  0  0  0  0  0  0
   -0.0404   -0.2549    0.0000 C   0  0  0  0  0  0  0  0  0  0  0  0
   -0.4529   -0.9694    0.0000 C   0  0  0  0  0  0  0  0  0  0  0  0
   -1.2779   -0.9694    0.0000 S   0  0  0  0  0  0  0  0  0  0  0  0
   -1.2779   -0.1444    0.0000 C   0  0  0  0  0  0  0  0  0  0  0  0
   -1.2779   -1.7944    0.0000 O   0  0  0  0  0  0  0  0  0  0  0  0
   -2.1029   -0.9694    0.0000 O   0  0  0  0  0  0  0  0  0  0  0  0
    0.7846   -0.2549    0.0000 N   0  0  0  0  0  0  0  0  0  0  0  0
    1.2695    0.4125    0.0000 C   0  0  0  0  0  0  0  0  0  0  0  0
    1.0146    1.1971    0.0000 O   0  0  0  0  0  0  0  0  0  0  0  0
    2.0542    0.1576    0.0000 C   0  0  0  0  0  0  0  0  0  0  0  0
    2.8388    0.4125    0.0000 C   0  0  0  0  0  0  0  0  0  0  0  0
    3.3237   -0.2549    0.0000 S   0  0  0  0  0  0  0  0  0  0  0  0
    2.8388   -0.9224    0.0000 C   0  0  0  0  0  0  0  0  0  0  0  0
    3.0937   -1.7070    0.0000 N   0  0  0  0  0  0  0  0  0  0  0  0
    2.5417   -2.3201    0.0000 C   0  0  0  0  0  0  0  0  0  0  0  0
    2.7966   -3.1047    0.0000 C   0  0  0  0  0  0  0  0  0  0  0  0
    1.7347   -2.1486    0.0000 O   0  0  0  0  0  0  0  0  0  0  0  0
    2.0542   -0.6674    0.0000 C   0  0  0  0  0  0  0  0  0  0  0  0
    1.2695   -0.9224    0.0000 C   0  0  0  0  0  0  0  0  0  0  0  0
    1.0146   -1.7070    0.0000 O   0  0  0  0  0  0  0  0  0  0  0  0
  1  2  1  0
  2  3  1  0
  3  4  1  0
  4  5  2  0
  4  9  1  0
  5  6  1  0
  6  7  2  0
  7  8  1  0
  8  9  2  0
  9 10  1  0
 10 11  1  0
 12  6  1  0
 12 13  1  6
 12 18  1  0
 13 14  1  0
 14 15  1  0
 14 16  2  0
 14 17  2  0
 18 19  1  0
 18 30  1  0
 19 20  2  0
 19 21  1  0
 21 22  2  0
 21 29  1  0
 22 23  1  0
 23 24  1  0
 24 25  1  0
 24 29  2  0
 25 26  1  0
 26 27  1  0
 26 28  2  0
 29 30  1  0
 30 31  2  0
M  END
>  <DRUGBANK_ID>  (1) 
DB18075

>  <COMMON_NAME>  (1) 
Mufemilast

>  <CAS_NUMBER>  (1) 
1255909-03-5

>  <UNII>  (1) 
4QX9BK9E7P

$$$$
