
     RDKit          2D

 22 22  0  0  0  0  0  0  0  0999 V2000
   -3.2136   -1.0978    0.0000 C   0  0  0  0  0  0  0  0  0  0  0  0
   -2.4995   -0.6849    0.0000 C   0  0  0  0  0  0  0  0  0  0  0  0
   -0.3571    0.5635    0.0000 C   0  0  0  0  0  0  0  0  0  0  0  0
   -0.3620    1.3894    0.0000 N   0  0  0  0  0  0  0  0  0  0  0  0
   -1.0712    0.1457    0.0000 C   0  0  0  0  0  0  0  0  0  0  0  0
   -2.4995    0.1457    0.0000 C   0  0  0  0  0  0  0  0  0  0  0  0
   -1.7853   -1.0978    0.0000 C   0  0  0  0  0  0  0  0  0  0  0  0
   -3.6314   -1.8072    0.0000 F   0  0  0  0  0  0  0  0  0  0  0  0
   -3.9326   -0.6849    0.0000 F   0  0  0  0  0  0  0  0  0  0  0  0
   -2.8056   -1.8072    0.0000 F   0  0  0  0  0  0  0  0  0  0  0  0
   -1.0712   -0.6849    0.0000 C   0  0  0  0  0  0  0  0  0  0  0  0
   -1.7853    0.5586    0.0000 C   0  0  0  0  0  0  0  0  0  0  0  0
    0.3522    1.8024    0.0000 O   0  0  0  0  0  0  0  0  0  0  0  0
    2.4995    1.3991    0.0000 N   0  0  0  0  0  0  0  0  0  0  0  0
    1.0712    1.3943    0.0000 C   0  0  0  0  0  0  0  0  0  0  0  0
    3.2185    0.1603    0.0000 O   0  0  0  0  0  0  0  0  0  0  0  0
    0.3571    0.1506    0.0000 C   0  0  0  0  0  0  0  0  0  0  0  0
    1.7804    1.8072    0.0000 C   0  0  0  0  0  0  0  0  0  0  0  0
    2.5044    0.5732    0.0000 C   0  0  0  0  0  0  0  0  0  0  0  0
    3.9326    0.5781    0.0000 C   0  0  0  0  0  0  0  0  0  0  0  0
    1.0712    0.5683    0.0000 C   0  0  0  0  0  0  0  0  0  0  0  0
    1.7902    0.1555    0.0000 C   0  0  0  0  0  0  0  0  0  0  0  0
  2  1  1  0
  3  5  1  0
  4  3  2  0
  5 11  1  0
  6  2  2  0
  7  2  1  0
  8  1  1  0
  9  1  1  0
 10  1  1  0
 11  7  2  0
 12  6  1  0
 12  5  2  0
 13  4  1  0
 14 18  1  0
 15 13  1  0
 16 19  1  0
 17  3  1  0
 18 15  1  0
 19 22  1  0
 20 16  1  0
 21 17  1  0
 22 21  1  0
M  END
>  <DRUGBANK_ID>  (1) 
DB00176

>  <SECONDARY_ACCESSION_NUMBERS>  (1) 
APRD00425

>  <COMMON_NAME>  (1) 
Fluvoxamine

>  <CAS_NUMBER>  (1) 
54739-18-3

>  <UNII>  (1) 
O4L1XPO44W

>  <SYNONYMS>  (1) 
Fluvoxamina; Fluvoxamine; Fluvoxaminum

$$$$
