
     RDKit          2D

 13 13  0  0  0  0  0  0  0  0999 V2000
    1.7861    0.0000    0.0000 O   0  0  0  0  0  0  0  0  0  0  0  0
    1.0716    0.4125    0.0000 C   0  0  0  0  0  0  0  0  0  0  0  0
    1.0716    1.2375    0.0000 O   0  0  0  0  0  0  0  0  0  0  0  0
    0.3571    0.0000    0.0000 C   0  0  0  0  0  0  0  0  0  0  0  0
    0.3571   -0.8250    0.0000 N   0  0  0  0  0  0  0  0  0  0  0  0
   -0.3573    0.4124    0.0000 C   0  0  0  0  0  0  0  0  0  0  0  0
   -1.0717    0.0000    0.0000 C   0  0  0  0  0  0  0  0  0  0  0  0
   -1.0717   -0.8250    0.0000 C   0  0  0  0  0  0  0  0  0  0  0  0
   -1.7861    0.4124    0.0000 C   0  0  0  0  0  0  0  0  0  0  0  0
   -2.5006    0.0000    0.0000 C   0  0  0  0  0  0  0  0  0  0  0  0
   -1.7861   -1.2375    0.0000 C   0  0  0  0  0  0  0  0  0  0  0  0
   -2.5006   -0.8250    0.0000 C   0  0  0  0  0  0  0  0  0  0  0  0
    2.5006    0.4124    0.0000 C   0  0  0  0  0  0  0  0  0  0  0  0
  1 13  1  0
  2  1  1  0
  3  2  2  0
  4  2  1  0
  4  5  1  1
  6  4  1  0
  7  6  1  0
  8  7  2  0
  9  7  1  0
 10  9  2  0
 11  8  1  0
 11 12  2  0
 12 10  1  0
M  END
>  <DRUGBANK_ID>  (1) 
DB06838

>  <COMMON_NAME>  (1) 
methyl L-phenylalaninate

>  <CAS_NUMBER>  (1) 
2577-90-4

>  <UNII>  (1) 
10AT497I17

>  <SYNONYMS>  (1) 
(S)-phenylalanine methyl ester; Methyl 3-phenyl-L-alaninate; Phenylalanine methyl ester

$$$$
