FL9
     RDKit          2D

 23 25  0  0  0  0  0  0  0  0999 V2000
   -0.3485    0.5913    0.0000 C   0  0  0  0  0  0  0  0  0  0  0  0
    0.1364    1.2588    0.0000 C   0  0  0  0  0  0  0  0  0  0  0  0
    0.9210    1.0038    0.0000 C   0  0  0  0  0  0  0  0  0  0  0  0
    1.6355    1.4163    0.0000 C   0  0  0  0  0  0  0  0  0  0  0  0
    2.3500    1.0038    0.0000 C   0  0  0  0  0  0  0  0  0  0  0  0
    2.3500    0.1788    0.0000 C   0  0  0  0  0  0  0  0  0  0  0  0
    1.6355   -0.2337    0.0000 C   0  0  0  0  0  0  0  0  0  0  0  0
    0.9210    0.1788    0.0000 C   0  0  0  0  0  0  0  0  0  0  0  0
   -1.1735    0.5913    0.0000 C   0  0  0  0  0  0  0  0  0  0  0  0
   -1.5860   -0.1231    0.0000 C   0  0  0  0  0  0  0  0  0  0  0  0
   -1.1735   -0.8376    0.0000 C   0  0  0  0  0  0  0  0  0  0  0  0
   -1.5860   -1.5521    0.0000 C   0  0  0  0  0  0  0  0  0  0  0  0
   -2.4110   -1.5521    0.0000 C   0  0  0  0  0  0  0  0  0  0  0  0
   -2.8235   -0.8376    0.0000 C   0  0  0  0  0  0  0  0  0  0  0  0
   -2.4110   -0.1231    0.0000 C   0  0  0  0  0  0  0  0  0  0  0  0
   -1.1735   -2.2666    0.0000 Br  0  0  0  0  0  0  0  0  0  0  0  0
   -3.6485   -0.8376    0.0000 Br  0  0  0  0  0  0  0  0  0  0  0  0
    0.1364   -0.0761    0.0000 O   0  0  0  0  0  0  0  0  0  0  0  0
   -0.1185    2.0434    0.0000 O   0  0  0  0  0  0  0  0  0  0  0  0
    1.6355    2.2413    0.0000 O   0  0  0  0  0  0  0  0  0  0  0  0
    3.0644   -0.2337    0.0000 O   0  0  0  0  0  0  0  0  0  0  0  0
   -0.3485   -0.8376    0.0000 O   0  0  0  0  0  0  0  0  0  0  0  0
   -2.8235   -2.2666    0.0000 O   0  0  0  0  0  0  0  0  0  0  0  0
  1  2  1  0
  1  9  2  0
  1 18  1  0
  2  3  1  0
  2 19  2  0
  3  4  1  0
  3  8  2  0
  4  5  2  0
  4 20  1  0
  5  6  1  0
  6  7  2  0
  6 21  1  0
  7  8  1  0
  8 18  1  0
  9 10  1  0
 10 11  2  0
 10 15  1  0
 11 12  1  0
 11 22  1  0
 12 13  2  0
 12 16  1  0
 13 14  1  0
 13 23  1  0
 14 15  2  0
 14 17  1  0
M  END
>  <DRUGBANK_ID>  (1) 
DB07775

>  <COMMON_NAME>  (1) 
3',5'-DIBROMO-2',4,4',6'-TETRAHYDROXY AURONE

>  <UNII>  (1) 
QT9515X0WW

$$$$
