
     RDKit          2D

 23 22  0  0  0  0  0  0  0  0999 V2000
    0.1786    0.5844    0.0000 C   0  0  0  0  0  0  0  0  0  0  0  0
    0.1786   -0.2406    0.0000 C   0  0  0  0  0  0  0  0  0  0  0  0
   -0.5359   -0.6531    0.0000 N   0  0  0  0  0  0  0  0  0  0  0  0
   -1.2503   -0.2406    0.0000 C   0  0  0  0  0  0  0  0  0  0  0  0
   -1.9648   -0.6531    0.0000 O   0  0  0  0  0  0  0  0  0  0  0  0
   -1.2503    0.5844    0.0000 N   0  0  0  0  0  0  0  0  0  0  0  0
   -0.5359    0.9969    0.0000 C   0  0  0  0  0  0  0  0  0  0  0  0
   -0.5359    1.8219    0.0000 O   0  0  0  0  0  0  0  0  0  0  0  0
    0.8931   -0.6531    0.0000 C   0  0  0  0  0  0  0  0  0  0  0  0
    0.8931   -1.4781    0.0000 O   0  0  0  0  0  0  0  0  0  0  0  0
    1.6076   -0.2406    0.0000 O   0  0  0  0  0  0  0  0  0  0  0  0
    6.2333    0.6000    0.0000 C   0  0  0  0  0  0  0  0  0  0  0  0
    6.2333   -0.2250    0.0000 C   0  0  0  0  0  0  0  0  0  0  0  0
    5.5188   -0.6375    0.0000 N   0  0  0  0  0  0  0  0  0  0  0  0
    4.8044   -0.2250    0.0000 C   0  0  0  0  0  0  0  0  0  0  0  0
    4.0899   -0.6375    0.0000 O   0  0  0  0  0  0  0  0  0  0  0  0
    4.8044    0.6000    0.0000 N   0  0  0  0  0  0  0  0  0  0  0  0
    5.5188    1.0125    0.0000 C   0  0  0  0  0  0  0  0  0  0  0  0
    5.5188    1.8375    0.0000 O   0  0  0  0  0  0  0  0  0  0  0  0
    6.9478   -0.6375    0.0000 C   0  0  0  0  0  0  0  0  0  0  0  0
    7.6622   -0.2250    0.0000 O   0  0  0  0  0  0  0  0  0  0  0  0
    6.9478   -1.4625    0.0000 O   0  0  0  0  0  0  0  0  0  0  0  0
    2.3220    0.1719    0.0000 Mg  0  0  0  0  0 15  0  0  0  0  0  0
  1  2  2  0
  1  7  1  0
  2  3  1  0
  2  9  1  0
  3  4  1  0
  4  5  2  0
  4  6  1  0
  6  7  1  0
  7  8  2  0
  9 10  2  0
  9 11  1  0
 12 13  2  0
 12 18  1  0
 13 14  1  0
 13 20  1  0
 14 15  1  0
 15 16  2  0
 15 17  1  0
 17 18  1  0
 18 19  2  0
 20 21  2  0
 20 22  1  0
M  CHG  3  11  -1  22  -1  23   2
M  END
>  <DRUGBANK_ID>  (1) 
DB13786

>  <COMMON_NAME>  (1) 
Magnesium orotate

>  <CAS_NUMBER>  (1) 
34717-03-8

>  <UNII>  (1) 
GI96W46M5A

$$$$
