
     RDKit          2D

 35 38  0  0  0  0  0  0  0  0999 V2000
   -1.5847    1.0212    0.0000 C   0  0  0  0  0  0  0  0  0  0  0  0
   -1.5847    0.1963    0.0000 C   0  0  0  0  0  0  0  0  0  0  0  0
   -2.1645   -0.3875    0.0000 O   0  0  0  0  0  0  0  0  0  0  0  0
   -0.7556    0.1963    0.0000 N   0  0  0  0  0  0  0  0  0  0  0  0
   -0.0439   -0.2161    0.0000 C   0  0  0  0  0  0  0  0  0  0  0  0
    0.6719    0.1963    0.0000 C   0  0  0  0  0  0  0  0  0  0  0  0
    0.6719    1.0212    0.0000 C   0  0  0  0  0  0  0  0  0  0  0  0
   -0.0439    1.4337    0.0000 S   0  0  0  0  0  0  0  0  0  0  0  0
   -0.7556    1.0212    0.0000 C   0  0  0  0  0  0  0  0  0  0  0  0
   -0.0439   -1.0412    0.0000 C   0  0  0  0  0  0  0  0  0  0  0  0
   -0.7556   -1.4536    0.0000 O   0  0  0  0  0  0  0  0  0  0  0  0
    0.6719   -1.4536    0.0000 O   0  0  0  0  0  0  0  0  0  0  0  0
   -2.9635    1.3942    0.0000 C   0  0  0  0  0  0  0  0  0  0  0  0
   -3.5474    1.9739    0.0000 C   0  0  0  0  0  0  0  0  0  0  0  0
   -3.1745    0.5950    0.0000 O   0  0  0  0  0  0  0  0  0  0  0  0
   -2.1644    1.6051    0.0000 N   0  0  0  0  0  0  0  0  0  0  0  0
   -4.3423    1.7628    0.0000 C   0  0  0  0  0  0  0  0  0  0  0  0
   -4.9846    2.2787    0.0000 C   0  0  0  0  0  0  0  0  0  0  0  0
   -5.6746    1.8312    0.0000 C   0  0  0  0  0  0  0  0  0  0  0  0
   -5.4636    1.0362    0.0000 C   0  0  0  0  0  0  0  0  0  0  0  0
   -4.6361    0.9916    0.0000 S   0  0  0  0  0  0  0  0  0  0  0  0
    1.3878   -0.2161    0.0000 C   0  0  0  0  0  0  0  0  0  0  0  0
    2.0995    0.1963    0.0000 C   0  0  0  0  0  0  0  0  0  0  0  0
    2.8153   -0.2161    0.0000 C   0  0  0  0  0  0  0  0  0  0  0  0
    2.8153   -1.0412    0.0000 C   0  0  0  0  0  0  0  0  0  0  0  0
    3.5312   -1.4536    0.0000 C   0  0  0  0  0  0  0  0  0  0  0  0
    4.2429   -1.0412    0.0000 C   0  0  0  0  0  0  0  0  0  0  0  0
    4.2429   -0.2161    0.0000 C   0  0  0  0  0  0  0  0  0  0  0  0
    3.5312    0.1963    0.0000 C   0  0  0  0  0  0  0  0  0  0  0  0
    4.9588   -1.4536    0.0000 N   0  0  0  0  0  0  0  0  0  0  0  0
    5.6746   -1.0412    0.0000 O   0  0  0  0  0  0  0  0  0  0  0  0
    4.9588   -2.2786    0.0000 O   0  0  0  0  0  0  0  0  0  0  0  0
    2.0995   -1.4536    0.0000 N   0  0  0  0  0  0  0  0  0  0  0  0
    1.3878   -1.0412    0.0000 O   0  0  0  0  0  0  0  0  0  0  0  0
    2.0995   -2.2786    0.0000 O   0  0  0  0  0  0  0  0  0  0  0  0
  1  2  1  0
  1  9  1  0
  1 16  1  1
  2  3  2  0
  2  4  1  0
  4  5  1  0
  4  9  1  0
  5  6  2  0
  5 10  1  0
  6  7  1  0
  6 22  1  0
  7  8  1  0
  9  8  1  1
 10 11  2  0
 10 12  1  0
 13 14  1  0
 13 15  2  0
 13 16  1  0
 14 17  1  0
 17 18  2  0
 17 21  1  0
 18 19  1  0
 19 20  2  0
 20 21  1  0
 22 23  2  0
 23 24  1  0
 24 25  2  0
 24 29  1  0
 25 26  1  0
 25 33  1  0
 26 27  2  0
 27 28  1  0
 27 30  1  0
 28 29  2  0
 30 31  2  0
 30 32  1  0
 33 34  2  0
 33 35  1  0
M  CHG  4  30   1  32  -1  33   1  35  -1
M  END
>  <DRUGBANK_ID>  (1) 
DB11592

>  <COMMON_NAME>  (1) 
Nitrocefin

>  <CAS_NUMBER>  (1) 
41906-86-9

>  <UNII>  (1) 
EWP54G0J8F

$$$$
