FTB
     RDKit          2D

 34 37  0  0  0  0  0  0  0  0999 V2000
   -4.5107    2.9119    0.0000 O   0  0  0  0  0  0  0  0  0  0  0  0
   -4.0982    2.1975    0.0000 C   0  0  0  0  0  0  0  0  0  0  0  0
   -4.5107    1.4830    0.0000 C   0  0  0  0  0  0  0  0  0  0  0  0
   -3.2732    2.1975    0.0000 N   0  0  0  0  0  0  0  0  0  0  0  0
   -2.8607    1.4830    0.0000 C   0  0  0  0  0  0  0  0  0  0  0  0
   -2.0357    1.4830    0.0000 C   0  0  0  0  0  0  0  0  0  0  0  0
   -1.6232    0.7685    0.0000 C   0  0  0  0  0  0  0  0  0  0  0  0
   -3.2732    0.7685    0.0000 C   0  0  0  0  0  0  0  0  0  0  0  0
   -2.8607    0.0541    0.0000 C   0  0  0  0  0  0  0  0  0  0  0  0
   -2.0357    0.0541    0.0000 C   0  0  0  0  0  0  0  0  0  0  0  0
   -1.6232   -0.6604    0.0000 C   0  0  0  0  0  0  0  0  0  0  0  0
   -0.7982   -0.6604    0.0000 C   0  0  0  0  0  0  0  0  0  0  0  0
   -0.3133    0.0070    0.0000 N   0  0  0  0  0  0  0  0  0  0  0  0
    0.4713   -0.2479    0.0000 C   0  0  0  0  0  0  0  0  0  0  0  0
    1.1858    0.1646    0.0000 N   0  0  0  0  0  0  0  0  0  0  0  0
    1.1858    0.9896    0.0000 C   0  0  0  0  0  0  0  0  0  0  0  0
    1.9003    1.4021    0.0000 C   0  0  0  0  0  0  0  0  0  0  0  0
    1.9003    2.2271    0.0000 C   0  0  0  0  0  0  0  0  0  0  0  0
    2.6147    2.6396    0.0000 C   0  0  0  0  0  0  0  0  0  0  0  0
    0.4713   -1.0729    0.0000 C   0  0  0  0  0  0  0  0  0  0  0  0
   -0.3133   -1.3278    0.0000 N   0  0  0  0  0  0  0  0  0  0  0  0
    1.1858   -1.4854    0.0000 C   0  0  0  0  0  0  0  0  0  0  0  0
    1.1858   -2.3104    0.0000 O   0  0  0  0  0  0  0  0  0  0  0  0
    1.9003   -1.0729    0.0000 N   0  0  0  0  0  0  0  0  0  0  0  0
    1.9003   -0.2479    0.0000 C   0  0  0  0  0  0  0  0  0  0  0  0
    2.6147    0.1646    0.0000 O   0  0  0  0  0  0  0  0  0  0  0  0
    2.6147   -1.4854    0.0000 C   0  0  0  0  0  0  0  0  0  0  0  0
    2.6147   -2.3104    0.0000 C   0  0  0  0  0  0  0  0  0  0  0  0
    1.9003   -2.7229    0.0000 C   0  0  0  0  0  0  0  0  0  0  0  0
    1.9003   -3.5479    0.0000 C   0  0  0  0  0  0  0  0  0  0  0  0
    2.6147   -3.9604    0.0000 C   0  0  0  0  0  0  0  0  0  0  0  0
    3.3292   -3.5479    0.0000 C   0  0  0  0  0  0  0  0  0  0  0  0
    3.3292   -2.7229    0.0000 C   0  0  0  0  0  0  0  0  0  0  0  0
    4.0437   -2.3104    0.0000 F   0  0  0  0  0  0  0  0  0  0  0  0
  1  2  2  0
  2  3  1  0
  2  4  1  0
  4  5  1  0
  5  6  2  0
  5  8  1  0
  6  7  1  0
  7 10  2  0
  8  9  2  0
  9 10  1  0
 10 11  1  0
 11 12  1  0
 12 13  2  0
 12 21  1  0
 13 14  1  0
 14 15  1  0
 14 20  2  0
 15 16  1  0
 15 25  1  0
 16 17  1  0
 17 18  1  0
 18 19  1  0
 20 21  1  0
 20 22  1  0
 22 23  2  0
 22 24  1  0
 24 25  1  0
 24 27  1  0
 25 26  2  0
 27 28  1  0
 28 29  2  0
 28 33  1  0
 29 30  1  0
 30 31  2  0
 31 32  1  0
 32 33  2  0
 33 34  1  0
M  END
>  <DRUGBANK_ID>  (1) 
DB02008

>  <SECONDARY_ACCESSION_NUMBERS>  (1) 
EXPT01503

>  <COMMON_NAME>  (1) 
1-(2-Fluorobenzyl)-3-Butyl-8-(N-Acetyl-4-Aminobenzyl)-Xanthine

$$$$
