LZK
     RDKit          2D

 22 24  0  0  0  0  0  0  0  0999 V2000
   -1.3623  -10.2636    0.0000 N   0  0  0  0  0  0  0  0  0  0  0  0
   -0.6478  -10.6761    0.0000 C   0  0  0  0  0  0  0  0  0  0  0  0
    0.0667  -10.2636    0.0000 N   0  0  0  0  0  0  0  0  0  0  0  0
   -0.6478  -11.5011    0.0000 N   0  0  0  0  0  0  0  0  0  0  0  0
    0.0667  -11.9136    0.0000 C   0  0  0  0  0  0  0  0  0  0  0  0
    0.7811  -11.5011    0.0000 C   0  0  0  0  0  0  0  0  0  0  0  0
    0.7811  -10.6761    0.0000 C   0  0  0  0  0  0  0  0  0  0  0  0
    1.4956  -10.2636    0.0000 N   0  0  0  0  0  0  0  0  0  0  0  0
    2.2101  -10.6761    0.0000 C   0  0  0  0  0  0  0  0  0  0  0  0
    2.9246  -10.2636    0.0000 N   0  0  0  0  0  0  0  0  0  0  0  0
    1.4956  -11.9136    0.0000 C   0  0  0  0  0  0  0  0  0  0  0  0
    2.2101  -11.5011    0.0000 C   0  0  0  0  0  0  0  0  0  0  0  0
    2.9246  -11.9136    0.0000 C   0  0  0  0  0  0  0  0  0  0  0  0
    3.6390  -11.5011    0.0000 C   0  0  0  0  0  0  0  0  0  0  0  0
    3.6390  -10.6761    0.0000 O   0  0  0  0  0  0  0  0  0  0  0  0
    4.3535  -10.2636    0.0000 C   0  0  0  0  0  0  0  0  0  0  0  0
    2.9246  -12.7386    0.0000 C   0  0  0  0  0  0  0  0  0  0  0  0
    2.2101  -13.1511    0.0000 O   0  0  0  0  0  0  0  0  0  0  0  0
    2.2101  -13.9761    0.0000 C   0  0  0  0  0  0  0  0  0  0  0  0
    3.6390  -13.1511    0.0000 C   0  0  0  0  0  0  0  0  0  0  0  0
    4.3535  -12.7386    0.0000 C   0  0  0  0  0  0  0  0  0  0  0  0
    4.3535  -11.9136    0.0000 C   0  0  0  0  0  0  0  0  0  0  0  0
  1  2  1  0
  2  3  2  0
  2  4  1  0
  3  7  1  0
  4  5  2  0
  5  6  1  0
  6  7  2  0
  6 11  1  0
  7  8  1  0
  8  9  2  0
  9 10  1  0
  9 12  1  0
 11 12  2  0
 12 13  1  0
 13 14  2  0
 13 17  1  0
 14 15  1  0
 14 22  1  0
 15 16  1  0
 17 18  1  0
 17 20  2  0
 18 19  1  0
 20 21  1  0
 21 22  2  0
M  END
>  <DRUGBANK_ID>  (1) 
DB08145

>  <COMMON_NAME>  (1) 
6-(2,6-DIMETHOXYPHENYL)PYRIDO[2,3-D]PYRIMIDINE-2,7-DIAMINE

$$$$
