
     RDKit          2D

 28 31  0  0  0  0  0  0  0  0999 V2000
   -6.3235    3.5277    0.0000 C   0  0  0  0  0  0  0  0  0  0  0  0
   -8.4669    5.5902    0.0000 C   0  0  0  0  0  0  0  0  0  0  0  0
   -5.6091    3.1152    0.0000 C   0  0  0  0  0  0  0  0  0  0  0  0
   -6.3235    4.3527    0.0000 C   0  0  0  0  0  0  0  0  0  0  0  0
   -7.7525    6.0027    0.0000 C   0  0  0  0  0  0  0  0  0  0  0  0
   -9.1814    6.0027    0.0000 C   0  0  0  0  0  0  0  0  0  0  0  0
   -4.8946    6.0027    0.0000 C   0  0  0  0  0  0  0  0  0  0  0  0
   -4.8946    6.8277    0.0000 C   0  0  0  0  0  0  0  0  0  0  0  0
   -4.8946    4.3527    0.0000 C   0  0  0  0  0  0  0  0  0  0  0  0
   -8.4669    7.2402    0.0000 C   0  0  0  0  0  0  0  0  0  0  0  0
   -4.1801    3.1152    0.0000 C   0  0  0  0  0  0  0  0  0  0  0  0
   -4.5926    1.0206    0.0000 C   0  0  0  0  0  0  0  0  0  0  0  0
   -3.5127    1.8053    0.0000 C   0  0  0  0  0  0  0  0  0  0  0  0
   -4.8946    3.5277    0.0000 C   0  0  0  0  0  0  0  0  0  0  0  0
   -5.6091    4.7652    0.0000 C   0  0  0  0  0  0  0  0  0  0  0  0
   -7.7525    6.8277    0.0000 C   0  0  0  0  0  0  0  0  0  0  0  0
   -9.1814    6.8277    0.0000 C   0  0  0  0  0  0  0  0  0  0  0  0
   -5.6091    5.5902    0.0000 C   0  0  0  0  0  0  0  0  0  0  0  0
   -6.3235    6.8277    0.0000 C   0  0  0  0  0  0  0  0  0  0  0  0
   -3.7676    1.0206    0.0000 N   0  0  0  0  0  0  0  0  0  0  0  0
   -5.6091    7.2402    0.0000 N   0  0  0  0  0  0  0  0  0  0  0  0
   -4.8476    1.8053    0.0000 N   0  0  0  0  0  0  0  0  0  0  0  0
   -7.0380    7.2402    0.0000 N   0  0  0  0  0  0  0  0  0  0  0  0
   -6.3235    6.0027    0.0000 N   0  0  0  0  0  0  0  0  0  0  0  0
   -4.1801    2.2902    0.0000 N   0  0  0  0  0  0  0  0  0  0  0  0
   -9.8959    7.2402    0.0000 N   0  0  0  0  0  0  0  0  0  0  0  0
  -10.6104    6.8277    0.0000 O   0  0  0  0  0  0  0  0  0  0  0  0
   -9.8959    8.0652    0.0000 O   0  0  0  0  0  0  0  0  0  0  0  0
  3  1  2  0
  4  1  1  0
  5  2  2  0
  6  2  1  0
  8  7  1  0
 14  3  1  0
 14  9  2  0
 14 11  1  0
 15  4  2  0
 15  9  1  0
 16  5  1  0
 16 10  2  0
 17  6  2  0
 17 10  1  0
 18  7  1  0
 18 15  1  0
 20 12  1  0
 20 13  2  0
 21  8  2  0
 21 19  1  0
 22 12  2  0
 23 16  1  0
 23 19  2  0
 24 18  2  0
 24 19  1  0
 25 11  1  0
 25 13  1  0
 25 22  1  0
 26 17  1  0
 27 26  1  0
 28 26  2  0
M  CHG  2  26   1  27  -1
M  END
>  <DRUGBANK_ID>  (1) 
DB08218

>  <COMMON_NAME>  (1) 
HYDROXY(OXO)(3-{[(2Z)-4-[3-(1H-1,2,4-TRIAZOL-1-YLMETHYL)PHENYL]PYRIMIDIN-2(5H)-YLIDENE]AMINO}PHENYL)AMMONIUM

$$$$
