HPH
     RDKit          2D

 12 12  0  0  0  0  0  0  0  0999 V2000
    1.1341    1.0609    0.0000 C   0  0  0  0  0  0  0  0  0  0  0  0
    1.1341    1.8859    0.0000 O   0  0  0  0  0  0  0  0  0  0  0  0
    1.8485    0.6484    0.0000 O   0  0  0  0  0  0  0  0  0  0  0  0
    0.4196    0.6484    0.0000 C   0  0  0  0  0  0  0  0  0  0  0  0
   -0.2949    1.0609    0.0000 N   0  0  0  0  0  0  0  0  0  0  0  0
    0.4196   -0.1766    0.0000 C   0  0  0  0  0  0  0  0  0  0  0  0
   -0.2949   -0.5891    0.0000 C   0  0  0  0  0  0  0  0  0  0  0  0
   -0.2949   -1.4141    0.0000 C   0  0  0  0  0  0  0  0  0  0  0  0
   -1.0093   -0.1766    0.0000 C   0  0  0  0  0  0  0  0  0  0  0  0
   -1.0093   -1.8266    0.0000 C   0  0  0  0  0  0  0  0  0  0  0  0
   -1.7238   -0.5891    0.0000 C   0  0  0  0  0  0  0  0  0  0  0  0
   -1.7238   -1.4141    0.0000 C   0  0  0  0  0  0  0  0  0  0  0  0
  1  2  1  0
  1  3  1  0
  1  4  1  0
  4  5  1  6
  4  6  1  0
  6  7  1  0
  7  8  2  0
  7  9  1  0
  8 10  1  0
  9 11  2  0
 10 12  2  0
 11 12  1  0
M  END
>  <DRUGBANK_ID>  (1) 
DB07910

>  <COMMON_NAME>  (1) 
(2S)-2-amino-3-phenylpropane-1,1-diol

$$$$
