
     RDKit          2D

 22 24  0  0  0  0  0  0  0  0999 V2000
    0.6683   -0.9580    0.0000 S   0  0  0  0  0  0  0  0  0  0  0  0
   -1.9336    1.6219    0.0000 N   0  0  0  0  0  0  0  0  0  0  0  0
    0.1869   -0.2941    0.0000 C   0  0  0  0  0  0  0  0  0  0  0  0
    0.1869   -1.6219    0.0000 C   0  0  0  0  0  0  0  0  0  0  0  0
   -0.5937   -0.5455    0.0000 C   0  0  0  0  0  0  0  0  0  0  0  0
   -0.5937   -1.3705    0.0000 C   0  0  0  0  0  0  0  0  0  0  0  0
   -0.0667    0.4909    0.0000 C   0  0  0  0  0  0  0  0  0  0  0  0
    0.8551    0.1897    0.0000 C   0  0  0  0  0  0  0  0  0  0  0  0
   -0.8734    0.6639    0.0000 C   0  0  0  0  0  0  0  0  0  0  0  0
    0.8551   -2.1057    0.0000 C   0  0  0  0  0  0  0  0  0  0  0  0
   -0.0667   -2.4070    0.0000 C   0  0  0  0  0  0  0  0  0  0  0  0
   -1.3082   -0.1329    0.0000 C   0  0  0  0  0  0  0  0  0  0  0  0
   -1.3082   -1.7830    0.0000 C   0  0  0  0  0  0  0  0  0  0  0  0
   -1.1270    1.4490    0.0000 C   0  0  0  0  0  0  0  0  0  0  0  0
    0.7703    1.0103    0.0000 C   0  0  0  0  0  0  0  0  0  0  0  0
    1.6082   -0.1471    0.0000 C   0  0  0  0  0  0  0  0  0  0  0  0
   -2.0228   -0.5455    0.0000 C   0  0  0  0  0  0  0  0  0  0  0  0
   -2.0228   -1.3705    0.0000 C   0  0  0  0  0  0  0  0  0  0  0  0
    1.4386    1.4941    0.0000 C   0  0  0  0  0  0  0  0  0  0  0  0
    2.2766    0.3366    0.0000 C   0  0  0  0  0  0  0  0  0  0  0  0
    2.1918    1.1572    0.0000 C   0  0  0  0  0  0  0  0  0  0  0  0
   -2.1872    2.4070    0.0000 C   0  0  0  0  0  0  0  0  0  0  0  0
  1  3  1  0
  1  4  1  0
  2 14  1  0
  2 22  1  0
  3  5  1  0
  3  7  1  0
  3  8  1  0
  4  6  1  0
  4 10  1  0
  4 11  1  0
  5  6  2  0
  5 12  1  0
  6 13  1  0
  7  9  1  0
  8 15  2  0
  8 16  1  0
  9 14  1  0
 12 17  2  0
 13 18  2  0
 15 19  1  0
 16 20  2  0
 17 18  1  0
 19 21  2  0
 20 21  1  0
M  END
>  <DRUGBANK_ID>  (1) 
DB09191

>  <COMMON_NAME>  (1) 
Talsupram

>  <CAS_NUMBER>  (1) 
21489-20-3

>  <UNII>  (1) 
C6Z73MW6CR

>  <SYNONYMS>  (1) 
Talsupram

$$$$
