
     RDKit          2D

 20 22  0  0  0  0  0  0  0  0999 V2000
    2.9992   -0.4125    0.0000 C   0  0  0  0  0  0  0  0  0  0  0  0
    2.9992    0.4125    0.0000 C   0  0  0  0  0  0  0  0  0  0  0  0
    2.2847   -0.8250    0.0000 C   0  0  0  0  0  0  0  0  0  0  0  0
    2.2847    0.8250    0.0000 C   0  0  0  0  0  0  0  0  0  0  0  0
   -0.9367    0.7144    0.0000 C   0  0  0  0  0  0  0  0  0  0  0  0
   -1.7617    0.7144    0.0000 C   0  0  0  0  0  0  0  0  0  0  0  0
    1.5703   -0.4125    0.0000 C   0  0  0  0  0  0  0  0  0  0  0  0
    1.5703    0.4125    0.0000 C   0  0  0  0  0  0  0  0  0  0  0  0
   -0.5242    0.0000    0.0000 C   0  0  0  0  0  0  0  0  0  0  0  0
   -2.1742    0.0000    0.0000 C   0  0  0  0  0  0  0  0  0  0  0  0
   -0.9367   -0.7144    0.0000 C   0  0  0  0  0  0  0  0  0  0  0  0
    0.7856   -0.6674    0.0000 C   0  0  0  0  0  0  0  0  0  0  0  0
    0.7856    0.6674    0.0000 C   0  0  0  0  0  0  0  0  0  0  0  0
   -1.7617   -0.7144    0.0000 N   0  0  0  0  0  0  0  0  0  0  0  0
    0.3007    0.0000    0.0000 N   0  0  0  0  0  0  0  0  0  0  0  0
   -2.9992    0.0000    0.0000 O   0  0  0  0  0  0  0  0  0  0  0  0
   -0.5242   -1.4289    0.0000 O   0  0  0  0  0  0  0  0  0  0  0  0
    0.5307   -1.4520    0.0000 O   0  0  0  0  0  0  0  0  0  0  0  0
    0.5307    1.4520    0.0000 O   0  0  0  0  0  0  0  0  0  0  0  0
    2.2847   -1.6500    0.0000 N   0  0  0  0  0  0  0  0  0  0  0  0
  2  1  2  0
  3  1  1  0
  3 20  1  0
  4  2  1  0
  6  5  1  0
  7  3  2  0
  8  4  2  0
  8  7  1  0
  9  5  1  0
 10  6  1  0
 11  9  1  0
 12  7  1  0
 13  8  1  0
 14 10  1  0
 14 11  1  0
 15  9  1  0
 15 12  1  0
 15 13  1  0
 16 10  2  0
 17 11  2  0
 18 12  2  0
 19 13  2  0
M  END
>  <DRUGBANK_ID>  (1) 
DB08910

>  <COMMON_NAME>  (1) 
Pomalidomide

>  <CAS_NUMBER>  (1) 
19171-19-8

>  <UNII>  (1) 
D2UX06XLB5

>  <SYNONYMS>  (1) 
Pomalidomida; Pomalidomide

$$$$
