
     RDKit          2D

 28 27  0  0  0  0  0  0  0  0999 V2000
   -1.7799    2.2964    0.0000 Cr  0  0  0  0  0 15  0  0  0  0  0  0
    0.3455    3.7159    0.0000 O   0  0  0  0  0  0  0  0  0  0  0  0
    1.0590    3.2998    0.0000 C   0  0  0  0  0  0  0  0  0  0  0  0
    1.7724    3.7159    0.0000 O   0  0  0  0  0  0  0  0  0  0  0  0
    1.0590    2.4748    0.0000 C   0  0  0  0  0  0  0  0  0  0  0  0
    1.7724    2.0661    0.0000 N   0  0  0  0  0  0  0  0  0  0  0  0
    1.7724    1.2411    0.0000 C   0  0  0  0  0  0  0  0  0  0  0  0
    1.0590    0.8249    0.0000 C   0  0  0  0  0  0  0  0  0  0  0  0
    0.3455    1.2411    0.0000 C   0  0  0  0  0  0  0  0  0  0  0  0
    0.3455    2.0661    0.0000 C   0  0  0  0  0  0  0  0  0  0  0  0
   -2.4934   -0.8249    0.0000 O   0  0  0  0  0  0  0  0  0  0  0  0
   -1.7799   -1.2411    0.0000 C   0  0  0  0  0  0  0  0  0  0  0  0
   -1.0665   -0.8249    0.0000 O   0  0  0  0  0  0  0  0  0  0  0  0
   -1.7799   -2.0660    0.0000 C   0  0  0  0  0  0  0  0  0  0  0  0
   -1.0665   -2.4748    0.0000 N   0  0  0  0  0  0  0  0  0  0  0  0
   -1.0665   -3.2997    0.0000 C   0  0  0  0  0  0  0  0  0  0  0  0
   -1.7799   -3.7159    0.0000 C   0  0  0  0  0  0  0  0  0  0  0  0
   -2.4934   -3.2997    0.0000 C   0  0  0  0  0  0  0  0  0  0  0  0
   -2.4934   -2.4748    0.0000 C   0  0  0  0  0  0  0  0  0  0  0  0
    1.0590   -0.8249    0.0000 O   0  0  0  0  0  0  0  0  0  0  0  0
    1.7724   -1.2411    0.0000 C   0  0  0  0  0  0  0  0  0  0  0  0
    2.4934   -0.8249    0.0000 O   0  0  0  0  0  0  0  0  0  0  0  0
    1.7724   -2.0660    0.0000 C   0  0  0  0  0  0  0  0  0  0  0  0
    2.4934   -2.4748    0.0000 N   0  0  0  0  0  0  0  0  0  0  0  0
    2.4934   -3.2997    0.0000 C   0  0  0  0  0  0  0  0  0  0  0  0
    1.7724   -3.7159    0.0000 C   0  0  0  0  0  0  0  0  0  0  0  0
    1.0590   -3.2997    0.0000 C   0  0  0  0  0  0  0  0  0  0  0  0
    1.0590   -2.4748    0.0000 C   0  0  0  0  0  0  0  0  0  0  0  0
  2  3  1  0
  3  4  2  0
  3  5  1  0
  5  6  2  0
  5 10  1  0
  6  7  1  0
  7  8  2  0
  8  9  1  0
  9 10  2  0
 11 12  1  0
 12 13  2  0
 12 14  1  0
 14 15  2  0
 14 19  1  0
 15 16  1  0
 16 17  2  0
 17 18  1  0
 18 19  2  0
 20 21  1  0
 21 22  2  0
 21 23  1  0
 23 24  2  0
 23 28  1  0
 24 25  1  0
 25 26  2  0
 26 27  1  0
 27 28  2  0
M  CHG  4   1   3   2  -1  11  -1  20  -1
M  END
>  <DRUGBANK_ID>  (1) 
DB11255

>  <COMMON_NAME>  (1) 
Chromium picolinate

>  <CAS_NUMBER>  (1) 
14639-25-9

>  <UNII>  (1) 
S71T8B8Z6P

>  <SYNONYMS>  (1) 
Chromium(III) picolinate

$$$$
