
     RDKit          2D

 27 28  0  0  0  0  0  0  0  0999 V2000
    1.7861    3.7125    0.0000 C   0  0  0  0  0  0  0  0  0  0  0  0
    2.5006    3.3000    0.0000 S   0  0  0  0  0  0  0  0  0  0  0  0
    2.5006    2.4750    0.0000 C   0  0  0  0  0  0  0  0  0  0  0  0
    3.2151    2.0625    0.0000 C   0  0  0  0  0  0  0  0  0  0  0  0
    3.2151    1.2375    0.0000 C   0  0  0  0  0  0  0  0  0  0  0  0
    2.5006    0.8250    0.0000 C   0  0  0  0  0  0  0  0  0  0  0  0
    1.7861    1.2375    0.0000 C   0  0  0  0  0  0  0  0  0  0  0  0
    1.7861    2.0625    0.0000 C   0  0  0  0  0  0  0  0  0  0  0  0
    2.5006    0.0000    0.0000 C   0  0  0  0  0  0  0  0  0  0  0  0
    3.2151   -0.4125    0.0000 O   0  0  0  0  0  0  0  0  0  0  0  0
    1.7861   -0.4125    0.0000 C   0  0  0  0  0  0  0  0  0  0  0  0
    1.7861   -1.2375    0.0000 C   0  0  0  0  0  0  0  0  0  0  0  0
    1.0717   -1.6500    0.0000 C   0  0  0  0  0  0  0  0  0  0  0  0
    1.0717   -2.4750    0.0000 C   0  0  0  0  0  0  0  0  0  0  0  0
    0.3572   -2.8875    0.0000 C   0  0  0  0  0  0  0  0  0  0  0  0
    0.3572   -3.7125    0.0000 C   0  0  0  0  0  0  0  0  0  0  0  0
   -0.3572   -2.4750    0.0000 C   0  0  0  0  0  0  0  0  0  0  0  0
   -1.0717   -2.8875    0.0000 O   0  0  0  0  0  0  0  0  0  0  0  0
   -1.7861   -2.4750    0.0000 C   0  0  0  0  0  0  0  0  0  0  0  0
   -1.3736   -1.7605    0.0000 C   0  0  0  0  0  0  0  0  0  0  0  0
   -2.1986   -3.1894    0.0000 C   0  0  0  0  0  0  0  0  0  0  0  0
   -2.5006   -2.0625    0.0000 C   0  0  0  0  0  0  0  0  0  0  0  0
   -3.2151   -2.4750    0.0000 O   0  0  0  0  0  0  0  0  0  0  0  0
   -2.5006   -1.2375    0.0000 O   0  0  0  0  0  0  0  0  0  0  0  0
   -0.3572   -1.6500    0.0000 C   0  0  0  0  0  0  0  0  0  0  0  0
   -1.0717   -1.2375    0.0000 C   0  0  0  0  0  0  0  0  0  0  0  0
    0.3572   -1.2375    0.0000 C   0  0  0  0  0  0  0  0  0  0  0  0
  1  2  1  0
  2  3  1  0
  3  4  2  0
  3  8  1  0
  4  5  1  0
  5  6  2  0
  6  7  1  0
  6  9  1  0
  7  8  2  0
  9 10  2  0
  9 11  1  0
 11 12  2  0
 12 13  1  0
 13 14  2  0
 13 27  1  0
 14 15  1  0
 15 16  1  0
 15 17  2  0
 17 18  1  0
 17 25  1  0
 18 19  1  0
 19 20  1  0
 19 21  1  0
 19 22  1  0
 22 23  2  0
 22 24  1  0
 25 26  1  0
 25 27  2  0
M  END
>  <DRUGBANK_ID>  (1) 
DB05187

>  <COMMON_NAME>  (1) 
Elafibranor

>  <CAS_NUMBER>  (1) 
923978-27-2

>  <UNII>  (1) 
2J3H5C81A5

>  <SYNONYMS>  (1) 
Elafibranor

$$$$
