
     RDKit          2D

 40 44  0  0  1  0  0  0  0  0999 V2000
   -0.1712    0.7310    0.0000 C   0  0  0  0  0  0  0  0  0  0  0  0
   -0.5837    0.0165    0.0000 C   0  0  0  0  0  0  0  0  0  0  0  0
   -0.1712   -0.6979    0.0000 O   0  0  0  0  0  0  0  0  0  0  0  0
    0.6538   -0.6979    0.0000 C   0  0  0  0  0  0  0  0  0  0  0  0
    1.1387   -0.0305    0.0000 C   0  0  0  0  0  0  0  0  0  0  0  0
    1.9233   -0.2854    0.0000 C   0  0  0  0  0  0  0  0  0  0  0  0
    2.6378    0.1271    0.0000 C   0  0  0  0  0  0  0  0  0  0  0  0
    3.3523   -0.2854    0.0000 C   0  0  0  0  0  0  0  0  0  0  0  0
    3.3523   -1.1104    0.0000 C   0  0  0  0  0  0  0  0  0  0  0  0
    2.6378   -1.5229    0.0000 C   0  0  0  0  0  0  0  0  0  0  0  0
    1.9233   -1.1104    0.0000 C   0  0  0  0  0  0  0  0  0  0  0  0
    1.1387   -1.3654    0.0000 C   0  0  0  0  0  0  0  0  0  0  0  0
    0.8838   -2.1500    0.0000 N   0  0  0  0  0  0  0  0  0  0  0  0
    1.4358   -2.7631    0.0000 C   0  0  0  0  0  0  0  0  0  0  0  0
    1.1809   -3.5477    0.0000 C   0  0  0  0  0  0  0  0  0  0  0  0
    0.3739   -3.7192    0.0000 N   0  0  0  0  0  0  0  0  0  0  0  0
   -0.1781   -3.1062    0.0000 C   0  0  0  0  0  0  0  0  0  0  0  0
    0.0768   -2.3215    0.0000 C   0  0  0  0  0  0  0  0  0  0  0  0
   -0.4752   -1.7084    0.0000 C   0  0  0  0  0  0  0  0  0  0  0  0
    0.1190   -4.5039    0.0000 C   0  0  0  0  0  0  0  0  0  0  0  0
    0.1478   -5.3284    0.0000 C   0  0  0  0  0  0  0  0  0  0  0  0
   -0.5519   -5.7655    0.0000 C   0  0  0  0  0  0  0  0  0  0  0  0
   -1.2803   -5.3782    0.0000 N   0  0  0  0  0  0  0  0  0  0  0  0
   -1.3091   -4.5537    0.0000 C   0  0  0  0  0  0  0  0  0  0  0  0
   -0.6095   -4.1166    0.0000 C   0  0  0  0  0  0  0  0  0  0  0  0
   -1.9800   -5.8154    0.0000 C   0  0  0  0  0  0  0  0  0  0  0  0
   -1.9512   -6.6399    0.0000 O   0  0  0  0  0  0  0  0  0  0  0  0
   -2.7084   -5.4281    0.0000 C   0  0  0  0  0  0  0  0  0  0  0  0
   -3.4080   -5.8653    0.0000 C   0  0  0  0  0  0  0  0  0  0  0  0
   -4.1365   -5.4780    0.0000 N   0  0  0  0  0  0  0  0  0  0  0  0
   -4.1652   -4.6535    0.0000 C   0  0  0  0  0  0  0  0  0  0  0  0
   -3.4656   -4.2163    0.0000 N   0  0  0  0  0  0  0  0  0  0  0  0
   -2.7372   -4.6036    0.0000 C   0  0  0  0  0  0  0  0  0  0  0  0
   -2.0375   -4.1664    0.0000 C   0  0  0  0  0  0  0  0  0  0  0  0
   -3.3792   -6.6898    0.0000 C   0  0  0  0  0  0  0  0  0  0  0  0
    0.9359   -4.6187    0.0000 C   0  0  0  0  0  0  0  0  0  0  0  0
    4.0668    0.1271    0.0000 C   0  0  0  0  0  0  0  0  0  0  0  0
    4.7812    0.5396    0.0000 F   0  0  0  0  0  0  0  0  0  0  0  0
    4.4793   -0.5874    0.0000 F   0  0  0  0  0  0  0  0  0  0  0  0
    3.6543    0.8415    0.0000 F   0  0  0  0  0  0  0  0  0  0  0  0
  1  2  1  0
  2  3  1  0
  4  3  1  6
  4  5  1  0
  4 12  1  0
  5  6  1  0
  6  7  2  0
  6 11  1  0
  7  8  1  0
  8  9  2  0
  8 37  1  0
  9 10  1  0
 10 11  2  0
 11 12  1  0
 12 13  1  1
 13 14  1  0
 13 18  1  0
 14 15  1  0
 15 16  1  0
 16 17  1  0
 16 20  1  0
 17 18  1  0
 18 19  1  6
 20 21  1  0
 20 25  1  0
 20 36  1  0
 21 22  1  0
 22 23  1  0
 23 24  1  0
 23 26  1  0
 24 25  1  0
 26 27  2  0
 26 28  1  0
 28 29  2  0
 28 33  1  0
 29 30  1  0
 29 35  1  0
 30 31  2  0
 31 32  1  0
 32 33  2  0
 33 34  1  0
 37 38  1  0
 37 39  1  0
 37 40  1  0
M  END
>  <DRUGBANK_ID>  (1) 
DB12960

>  <SECONDARY_ACCESSION_NUMBERS>  (1) 
DB05062

>  <COMMON_NAME>  (1) 
INCB-9471

>  <CAS_NUMBER>  (1) 
869769-98-2

>  <UNII>  (1) 
C5D4W25708

$$$$
