
     RDKit          2D

 26 30  0  0  0  0  0  0  0  0999 V2000
    0.2910   -1.5930    0.0000 C   0  0  0  0  0  0  0  0  0  0  0  0
    0.2617   -2.5382    0.0000 O   0  0  0  0  0  0  0  0  0  0  0  0
   -0.5141   -1.0905    0.0000 O   0  0  0  0  0  0  0  0  0  0  0  0
   -1.3636   -1.5330    0.0000 C   0  0  0  0  0  0  0  0  0  0  0  0
    1.1118   -1.1549    0.0000 C   0  0  0  0  0  0  0  0  0  0  0  0
    1.1092    1.3058    0.0000 N   0  0  0  0  0  0  0  0  0  0  0  0
   -0.3566    2.1275    0.0000 C   0  0  0  0  0  0  0  0  0  0  0  0
    1.1393    2.1272    0.0000 C   0  0  0  0  0  0  0  0  0  0  0  0
    0.3824    0.8998    0.0000 C   0  0  0  0  0  0  0  0  0  0  0  0
    0.3824    0.0785    0.0000 C   0  0  0  0  0  0  0  0  0  0  0  0
    1.1131   -0.3299    0.0000 C   0  0  0  0  0  0  0  0  0  0  0  0
    1.8350    0.0785    0.0000 C   0  0  0  0  0  0  0  0  0  0  0  0
    1.8350    0.8998    0.0000 C   0  0  0  0  0  0  0  0  0  0  0  0
   -0.3528    1.3041    0.0000 C   0  0  0  0  0  0  0  0  0  0  0  0
   -1.7732    2.1276    0.0000 C   0  0  0  0  0  0  0  0  0  0  0  0
   -1.7757    1.3063    0.0000 C   0  0  0  0  0  0  0  0  0  0  0  0
   -3.2397    2.1296    0.0000 C   0  0  0  0  0  0  0  0  0  0  0  0
   -3.2409    1.3060    0.0000 C   0  0  0  0  0  0  0  0  0  0  0  0
   -2.5289    0.8799    0.0000 C   0  0  0  0  0  0  0  0  0  0  0  0
   -2.5307    2.5342    0.0000 C   0  0  0  0  0  0  0  0  0  0  0  0
   -1.0536    0.8999    0.0000 N   0  0  0  0  0  0  0  0  0  0  0  0
    0.4298    2.5382    0.0000 C   0  0  0  0  0  0  0  0  0  0  0  0
    2.5283   -0.3299    0.0000 C   0  0  0  0  0  0  0  0  0  0  0  0
    2.5283   -1.1511    0.0000 O   0  0  0  0  0  0  0  0  0  0  0  0
    1.8187   -1.5425    0.0000 C   0  0  0  0  0  0  0  0  0  0  0  0
    3.2409    0.0650    0.0000 C   0  0  0  0  0  0  0  0  0  0  0  0
  1  3  1  0
  1  2  2  0
  1  5  1  0
  3  4  1  0
  5 11  1  0
  6  8  1  0
  7 15  1  0
  7 14  2  0
  8 22  1  0
  9  6  1  0
  9 10  1  1
 11 10  1  1
 11 12  1  0
 12 13  1  6
 12 23  1  0
 13  6  1  0
 14  9  1  0
 15 20  2  0
 15 16  1  0
 16 21  1  0
 17 18  2  0
 18 19  1  0
 19 16  2  0
 20 17  1  0
 21 14  1  0
 22  7  1  0
 23 24  1  0
 23 26  1  6
 24 25  1  0
 25  5  2  0
M  END
>  <DRUGBANK_ID>  (1) 
DB15949

>  <COMMON_NAME>  (1) 
Raubasine

>  <CAS_NUMBER>  (1) 
483-04-5

>  <UNII>  (1) 
4QJL8OX71Z

>  <SYNONYMS>  (1) 
Ajmalicin; Circolene; delta-Yohimbine; Hydrosarpan

$$$$
