
     RDKit          2D

 31 33  0  0  1  0  0  0  0  0999 V2000
    2.3435   -5.5590    0.0000 O   0  0  0  0  0  0  0  0  0  0  0  0
    1.5365   -5.3875    0.0000 C   0  0  0  0  0  0  0  0  0  0  0  0
    0.9234   -5.9395    0.0000 C   0  0  0  0  0  0  0  0  0  0  0  0
    1.0097   -6.7600    0.0000 C   0  0  0  0  0  0  0  0  0  0  0  0
    1.7634   -7.0956    0.0000 O   0  0  0  0  0  0  0  0  0  0  0  0
    1.8496   -7.9161    0.0000 P   0  0  0  0  0  0  0  0  0  0  0  0
    1.9358   -8.7365    0.0000 O   0  0  0  0  0  0  0  0  0  0  0  0
    2.6701   -7.8298    0.0000 O   0  0  0  0  0  0  0  0  0  0  0  0
    1.0291   -8.0023    0.0000 O   0  0  0  0  0  0  0  0  0  0  0  0
    0.2090   -5.5270    0.0000 O   0  0  0  0  0  0  0  0  0  0  0  0
    0.3805   -4.7201    0.0000 C   0  0  0  0  0  0  0  0  0  0  0  0
    1.2010   -4.6338    0.0000 C   0  0  0  0  0  0  0  0  0  0  0  0
    1.6135   -3.9194    0.0000 O   0  0  0  0  0  0  0  0  0  0  0  0
   -0.1715   -4.1070    0.0000 N   0  0  0  0  0  0  0  0  0  0  0  0
   -0.9920   -4.1932    0.0000 C   0  0  0  0  0  0  0  0  0  0  0  0
   -1.3276   -3.4395    0.0000 N   0  0  0  0  0  0  0  0  0  0  0  0
   -0.7145   -2.8875    0.0000 C   0  0  0  0  0  0  0  0  0  0  0  0
   -0.7145   -2.0625    0.0000 C   0  0  0  0  0  0  0  0  0  0  0  0
   -1.4289   -1.6500    0.0000 N   0  0  0  0  0  0  0  0  0  0  0  0
   -1.4289   -0.8250    0.0000 C   0  0  0  0  0  0  0  0  0  0  0  0
   -2.1434   -0.4125    0.0000 C   0  0  0  0  0  0  0  0  0  0  0  0
   -2.1434    0.4125    0.0000 C   0  0  0  0  0  0  0  0  0  0  0  0
   -2.8579    0.8250    0.0000 O   0  0  0  0  0  0  0  0  0  0  0  0
   -1.4289    0.8250    0.0000 O   0  0  0  0  0  0  0  0  0  0  0  0
   -0.7145   -0.4125    0.0000 C   0  0  0  0  0  0  0  0  0  0  0  0
   -0.7145    0.4125    0.0000 O   0  0  0  0  0  0  0  0  0  0  0  0
    0.0000   -0.8250    0.0000 O   0  0  0  0  0  0  0  0  0  0  0  0
    0.0000   -1.6500    0.0000 N   0  0  0  0  0  0  0  0  0  0  0  0
    0.7145   -2.0625    0.0000 C   0  0  0  0  0  0  0  0  0  0  0  0
    0.7145   -2.8875    0.0000 N   0  0  0  0  0  0  0  0  0  0  0  0
    0.0000   -3.3000    0.0000 C   0  0  0  0  0  0  0  0  0  0  0  0
  2  1  1  6
  2  3  1  0
  2 12  1  0
  3  4  1  1
  3 10  1  0
  4  5  1  0
  5  6  1  0
  6  7  1  0
  6  8  1  0
  6  9  2  0
 10 11  1  0
 11 12  1  0
 11 14  1  1
 12 13  1  6
 14 15  1  0
 14 31  1  0
 15 16  2  0
 16 17  1  0
 17 18  1  0
 17 31  2  0
 18 19  1  0
 18 28  2  0
 20 19  1  0
 20 21  1  1
 20 25  1  0
 21 22  1  0
 22 23  1  0
 22 24  2  0
 25 26  1  0
 25 27  2  0
 28 29  1  0
 29 30  2  0
 30 31  1  0
M  END
>  <DRUGBANK_ID>  (1) 
DB04418

>  <SECONDARY_ACCESSION_NUMBERS>  (1) 
EXPT00146

>  <COMMON_NAME>  (1) 
Adenylosuccinic acid

>  <CAS_NUMBER>  (1) 
19046-78-7

>  <UNII>  (1) 
X1B4ZJ0IIV

>  <SYNONYMS>  (1) 
Aspartyl adenylate; Succinyl AMP

$$$$
