
     RDKit          2D

 24 26  0  0  0  0  0  0  0  0999 V2000
    5.7904    1.2297    0.0000 C   0  0  0  0  0  0  0  0  0  0  0  0
    4.9654    1.2297    0.0000 C   0  0  0  0  0  0  0  0  0  0  0  0
    4.5529    0.5152    0.0000 O   0  0  0  0  0  0  0  0  0  0  0  0
    4.5529    1.9441    0.0000 O   0  0  0  0  0  0  0  0  0  0  0  0
    3.7279    1.9441    0.0000 C   0  0  0  0  0  0  0  0  0  0  0  0
    3.3700    1.2008    0.0000 C   0  0  0  0  0  0  0  0  0  0  0  0
    3.8843    0.5558    0.0000 O   0  0  0  0  0  0  0  0  0  0  0  0
    2.5656    1.0173    0.0000 N   0  0  0  0  0  0  0  0  0  0  0  0
    1.9206    1.5316    0.0000 C   0  0  0  0  0  0  0  0  0  0  0  0
    1.2062    1.1191    0.0000 C   0  0  0  0  0  0  0  0  0  0  0  0
    0.4917    1.5316    0.0000 C   0  0  0  0  0  0  0  0  0  0  0  0
    0.4917    2.3566    0.0000 C   0  0  0  0  0  0  0  0  0  0  0  0
    1.2062    2.7691    0.0000 C   0  0  0  0  0  0  0  0  0  0  0  0
    1.9206    2.3566    0.0000 C   0  0  0  0  0  0  0  0  0  0  0  0
    2.5656    2.8710    0.0000 C   0  0  0  0  0  0  0  0  0  0  0  0
    3.3700    2.6874    0.0000 N   0  0  0  0  0  0  0  0  0  0  0  0
    2.3821    3.6753    0.0000 C   0  0  0  0  0  0  0  0  0  0  0  0
    1.5937    3.9185    0.0000 C   0  0  0  0  0  0  0  0  0  0  0  0
    1.4101    4.7228    0.0000 C   0  0  0  0  0  0  0  0  0  0  0  0
    2.0149    5.2840    0.0000 C   0  0  0  0  0  0  0  0  0  0  0  0
    2.8032    5.0408    0.0000 C   0  0  0  0  0  0  0  0  0  0  0  0
    2.9868    4.2365    0.0000 C   0  0  0  0  0  0  0  0  0  0  0  0
   -0.2228    2.7691    0.0000 Cl  0  0  0  0  0  0  0  0  0  0  0  0
    2.3821    0.2130    0.0000 C   0  0  0  0  0  0  0  0  0  0  0  0
  1  2  1  0
  2  3  2  0
  2  4  1  0
  4  5  1  0
  5  6  1  0
  5 16  1  0
  6  7  2  0
  6  8  1  0
  8  9  1  0
  8 24  1  0
  9 10  2  0
  9 14  1  0
 10 11  1  0
 11 12  2  0
 12 13  1  0
 12 23  1  0
 13 14  2  0
 14 15  1  0
 15 16  2  0
 15 17  1  0
 17 18  2  0
 17 22  1  0
 18 19  1  0
 19 20  2  0
 20 21  1  0
 21 22  2  0
M  END
>  <DRUGBANK_ID>  (1) 
DB14671

>  <SECONDARY_ACCESSION_NUMBERS>  (1) 
DBSALT002270

>  <COMMON_NAME>  (1) 
Temazepam acetate

>  <CAS_NUMBER>  (1) 
18818-64-9

>  <UNII>  (1) 
9F3H3E4BIM

$$$$
