
     RDKit          2D

 22 25  0  0  0  0  0  0  0  0999 V2000
   -0.5275    0.6954    0.0000 C   0  0  0  0  0  0  0  0  0  0  0  0
    0.8275    0.0844    0.0000 C   0  0  0  0  0  0  0  0  0  0  0  0
    0.0028    0.0636    0.0000 N   0  0  0  0  0  0  0  0  0  0  0  0
   -1.9281    0.9783    0.0000 C   0  0  0  0  0  0  0  0  0  0  0  0
   -1.7648    1.7869    0.0000 C   0  0  0  0  0  0  0  0  0  0  0  0
   -0.9829    2.0499    0.0000 C   0  0  0  0  0  0  0  0  0  0  0  0
   -1.3094    0.4326    0.0000 C   0  0  0  0  0  0  0  0  0  0  0  0
   -0.3643    1.5041    0.0000 C   0  0  0  0  0  0  0  0  0  0  0  0
    0.3697    1.8806    0.0000 N   0  0  0  0  0  0  0  0  0  0  0  0
    1.3255    0.7421    0.0000 C   0  0  0  0  0  0  0  0  0  0  0  0
    1.1217    1.5415    0.0000 C   0  0  0  0  0  0  0  0  0  0  0  0
    1.7122    2.1176    0.0000 C   0  0  0  0  0  0  0  0  0  0  0  0
    2.5063    1.8943    0.0000 C   0  0  0  0  0  0  0  0  0  0  0  0
    2.7101    1.0950    0.0000 C   0  0  0  0  0  0  0  0  0  0  0  0
    2.1197    0.5188    0.0000 C   0  0  0  0  0  0  0  0  0  0  0  0
    1.2040   -0.6495    0.0000 N   0  0  0  0  0  0  0  0  0  0  0  0
    2.0279   -0.6905    0.0000 C   0  0  0  0  0  0  0  0  0  0  0  0
    2.4044   -1.4245    0.0000 C   0  0  0  0  0  0  0  0  0  0  0  0
    1.9570   -2.1176    0.0000 N   0  0  0  0  0  0  0  0  0  0  0  0
    1.1331   -2.0766    0.0000 C   0  0  0  0  0  0  0  0  0  0  0  0
    0.7565   -1.3427    0.0000 C   0  0  0  0  0  0  0  0  0  0  0  0
   -2.7101    0.7154    0.0000 Cl  0  0  0  0  0  0  0  0  0  0  0  0
  1  7  1  0
  1  8  2  0
  2  3  2  0
  2 16  1  0
  3  1  1  0
  4  5  1  0
  4 22  1  0
  5  6  2  0
  6  8  1  0
  7  4  2  0
  8  9  1  0
  9 11  1  0
 10 11  2  0
 10  2  1  0
 11 12  1  0
 12 13  2  0
 13 14  1  0
 14 15  2  0
 15 10  1  0
 16 17  1  0
 16 21  1  0
 17 18  1  0
 18 19  1  0
 19 20  1  0
 20 21  1  0
M  END
>  <DRUGBANK_ID>  (1) 
DB05766

>  <COMMON_NAME>  (1) 
Norclozapine

>  <CAS_NUMBER>  (1) 
6104-71-8

>  <UNII>  (1) 
1I9001LWY8

>  <SYNONYMS>  (1) 
Demethylclozapine; Desmethylclozapine; N-Desmethylclozapine

$$$$
