
     RDKit          2D

 37 38  0  0  0  0  0  0  0  0999 V2000
   -0.0001    2.0974    0.0000 P   0  0  0  0  0  0  0  0  0  0  0  0
   -0.0001    1.2738    0.0000 C   0  0  0  0  0  0  0  0  0  0  0  0
    0.6673    0.7861    0.0000 O   0  0  0  0  0  0  0  0  0  0  0  0
    0.4119    0.0027    0.0000 C   0  0  0  0  0  0  0  0  0  0  0  0
   -0.4119    0.0027    0.0000 C   0  0  0  0  0  0  0  0  0  0  0  0
   -0.6673    0.7861    0.0000 C   0  0  0  0  0  0  0  0  0  0  0  0
    0.8995   -0.6648    0.0000 C   0  0  0  0  0  0  0  0  0  0  0  0
    1.7233   -0.6648    0.0000 N   0  0  0  0  0  0  0  0  0  0  0  0
    1.9787   -1.4482    0.0000 C   0  0  0  0  0  0  0  0  0  0  0  0
    1.3114   -1.9359    0.0000 S   0  0  0  0  0  0  0  0  0  0  0  0
    0.6440   -1.4482    0.0000 C   0  0  0  0  0  0  0  0  0  0  0  0
   -0.1440   -1.7035    0.0000 C   0  0  0  0  0  0  0  0  0  0  0  0
   -0.2688   -2.5206    0.0000 C   0  0  0  0  0  0  0  0  0  0  0  0
    0.3692   -3.0372    0.0000 C   0  0  0  0  0  0  0  0  0  0  0  0
   -0.3982   -3.3331    0.0000 C   0  0  0  0  0  0  0  0  0  0  0  0
   -1.0409   -2.8120    0.0000 C   0  0  0  0  0  0  0  0  0  0  0  0
   -0.7555   -1.1506    0.0000 O   0  0  0  0  0  0  0  0  0  0  0  0
    2.7621   -1.7035    0.0000 N   0  0  0  0  0  0  0  0  0  0  0  0
    0.7149    2.5094    0.0000 N   0  0  0  0  0  0  0  0  0  0  0  0
    1.4298    2.0974    0.0000 C   0  0  0  0  0  0  0  0  0  0  0  0
    2.1446    2.5094    0.0000 C   0  0  0  0  0  0  0  0  0  0  0  0
    2.1446    3.3331    0.0000 O   0  0  0  0  0  0  0  0  0  0  0  0
    2.8549    2.0974    0.0000 O   0  0  0  0  0  0  0  0  0  0  0  0
    3.5697    2.5094    0.0000 C   0  0  0  0  0  0  0  0  0  0  0  0
    4.2846    2.0974    0.0000 C   0  0  0  0  0  0  0  0  0  0  0  0
    1.0179    1.3827    0.0000 C   0  0  0  0  0  0  0  0  0  0  0  0
    1.8417    1.3827    0.0000 C   0  0  0  0  0  0  0  0  0  0  0  0
   -0.7149    2.5094    0.0000 N   0  0  0  0  0  0  0  0  0  0  0  0
   -1.4298    2.0974    0.0000 C   0  0  0  0  0  0  0  0  0  0  0  0
   -2.1447    2.5094    0.0000 C   0  0  0  0  0  0  0  0  0  0  0  0
   -2.1447    3.3331    0.0000 O   0  0  0  0  0  0  0  0  0  0  0  0
   -2.8550    2.0974    0.0000 O   0  0  0  0  0  0  0  0  0  0  0  0
   -3.5697    2.5094    0.0000 C   0  0  0  0  0  0  0  0  0  0  0  0
   -4.2846    2.0974    0.0000 C   0  0  0  0  0  0  0  0  0  0  0  0
   -1.8416    1.3827    0.0000 C   0  0  0  0  0  0  0  0  0  0  0  0
   -1.0179    1.3827    0.0000 C   0  0  0  0  0  0  0  0  0  0  0  0
   -0.0001    3.0159    0.0000 O   0  0  0  0  0  0  0  0  0  0  0  0
  1  2  1  0
  1 19  1  0
  1 28  1  0
  1 37  2  0
  2  6  2  0
  3  2  1  0
  3  4  1  0
  4  7  1  0
  5  4  2  0
  6  5  1  0
  7 11  2  0
  8  7  1  0
  9  8  2  0
  9 18  1  0
 10  9  1  0
 10 11  1  0
 11 12  1  0
 12 13  1  0
 12 17  2  0
 13 14  1  0
 13 15  1  0
 13 16  1  0
 19 20  1  0
 20 26  1  0
 20 27  1  0
 21 20  1  0
 21 22  2  0
 21 23  1  0
 23 24  1  0
 24 25  1  0
 28 29  1  0
 29 35  1  0
 29 36  1  0
 30 29  1  0
 30 31  2  0
 30 32  1  0
 32 33  1  0
 33 34  1  0
M  END
>  <DRUGBANK_ID>  (1) 
DB05053

>  <COMMON_NAME>  (1) 
MB-07803

>  <CAS_NUMBER>  (1) 
882757-24-6

>  <UNII>  (1) 
GG81XF45C2

$$$$
