
     RDKit          2D

 30 33  0  0  0  0  0  0  0  0999 V2000
   -5.8855    3.0364    0.0000 C   0  0  0  0  0  0  0  0  0  0  0  0
   -5.2724    2.4844    0.0000 C   0  0  0  0  0  0  0  0  0  0  0  0
   -4.4878    2.7393    0.0000 N   0  0  0  0  0  0  0  0  0  0  0  0
   -4.3162    3.5463    0.0000 C   0  0  0  0  0  0  0  0  0  0  0  0
   -4.9293    4.0983    0.0000 C   0  0  0  0  0  0  0  0  0  0  0  0
   -3.8747    2.1873    0.0000 C   0  0  0  0  0  0  0  0  0  0  0  0
   -3.0900    2.4422    0.0000 C   0  0  0  0  0  0  0  0  0  0  0  0
   -2.4769    1.8902    0.0000 N   0  0  0  0  0  0  0  0  0  0  0  0
   -2.6485    1.0832    0.0000 C   0  0  0  0  0  0  0  0  0  0  0  0
   -2.0354    0.5312    0.0000 C   0  0  0  0  0  0  0  0  0  0  0  0
   -1.2508    0.7861    0.0000 C   0  0  0  0  0  0  0  0  0  0  0  0
   -1.0792    1.5931    0.0000 C   0  0  0  0  0  0  0  0  0  0  0  0
   -0.2587    1.6793    0.0000 C   0  0  0  0  0  0  0  0  0  0  0  0
    0.0768    0.9256    0.0000 C   0  0  0  0  0  0  0  0  0  0  0  0
   -0.5363    0.3736    0.0000 N   0  0  0  0  0  0  0  0  0  0  0  0
    0.8838    0.7541    0.0000 C   0  0  0  0  0  0  0  0  0  0  0  0
    1.1387   -0.0305    0.0000 C   0  0  0  0  0  0  0  0  0  0  0  0
    1.9233   -0.2854    0.0000 C   0  0  0  0  0  0  0  0  0  0  0  0
    2.6378    0.1271    0.0000 C   0  0  0  0  0  0  0  0  0  0  0  0
    3.3523   -0.2854    0.0000 C   0  0  0  0  0  0  0  0  0  0  0  0
    3.3523   -1.1104    0.0000 C   0  0  0  0  0  0  0  0  0  0  0  0
    2.6378   -1.5229    0.0000 C   0  0  0  0  0  0  0  0  0  0  0  0
    1.9233   -1.1104    0.0000 C   0  0  0  0  0  0  0  0  0  0  0  0
    1.1387   -1.3654    0.0000 N   0  0  0  0  0  0  0  0  0  0  0  0
    0.6538   -0.6979    0.0000 C   0  0  0  0  0  0  0  0  0  0  0  0
   -0.1712   -0.6979    0.0000 O   0  0  0  0  0  0  0  0  0  0  0  0
    4.0668    0.1271    0.0000 F   0  0  0  0  0  0  0  0  0  0  0  0
    0.1538    2.3938    0.0000 C   0  0  0  0  0  0  0  0  0  0  0  0
   -1.6923    2.1451    0.0000 C   0  0  0  0  0  0  0  0  0  0  0  0
   -1.5208    2.9521    0.0000 O   0  0  0  0  0  0  0  0  0  0  0  0
  1  2  1  0
  2  3  1  0
  3  4  1  0
  3  6  1  0
  4  5  1  0
  6  7  1  0
  7  8  1  0
  8  9  1  0
  8 29  1  0
  9 10  1  0
 10 11  1  0
 11 12  2  0
 11 15  1  0
 12 13  1  0
 12 29  1  0
 13 14  2  0
 13 28  1  0
 14 15  1  0
 14 16  1  0
 16 17  2  0
 17 18  1  0
 17 25  1  0
 18 19  2  0
 18 23  1  0
 19 20  1  0
 20 21  2  0
 20 27  1  0
 21 22  1  0
 22 23  2  0
 23 24  1  0
 24 25  1  0
 25 26  2  0
 29 30  2  0
M  END
>  <DRUGBANK_ID>  (1) 
DB11741

>  <COMMON_NAME>  (1) 
Famitinib

>  <CAS_NUMBER>  (1) 
1044040-56-3

>  <UNII>  (1) 
768FW21J3L

$$$$
