
     RDKit          2D

 23 22  0  0  0  0  0  0  0  0999 V2000
    0.3572   -1.4437    0.0000 S   0  0  0  0  0  0  0  0  0  0  0  0
   -0.3572   -1.0312    0.0000 O   0  0  0  0  0  0  0  0  0  0  0  0
    1.7862    1.0312    0.0000 O   0  0  0  0  0  0  0  0  0  0  0  0
   -4.6441   -0.2062    0.0000 O   0  0  0  0  0  0  0  0  0  0  0  0
   -3.9296    1.0312    0.0000 O   0  0  0  0  0  0  0  0  0  0  0  0
    4.6441    0.2062    0.0000 O   0  0  0  0  0  0  0  0  0  0  0  0
    3.9296   -1.0312    0.0000 O   0  0  0  0  0  0  0  0  0  0  0  0
    0.3572    0.2062    0.0000 N   0  0  0  0  0  0  0  0  0  0  0  0
    2.5007   -0.2062    0.0000 N   0  0  0  0  0  0  0  0  0  0  0  0
   -3.2151   -1.0312    0.0000 N   0  0  0  0  0  0  0  0  0  0  0  0
   -1.7862   -0.2062    0.0000 C   0  0  0  0  0  0  0  0  0  0  0  0
   -2.5007    0.2062    0.0000 C   0  0  0  0  0  0  0  0  0  0  0  0
   -1.0716    0.2062    0.0000 C   0  0  0  0  0  0  0  0  0  0  0  0
    1.0716   -0.2062    0.0000 C   0  0  0  0  0  0  0  0  0  0  0  0
   -3.2151   -0.2062    0.0000 C   0  0  0  0  0  0  0  0  0  0  0  0
   -0.3572   -0.2062    0.0000 C   0  0  0  0  0  0  0  0  0  0  0  0
    1.0716   -1.0312    0.0000 C   0  0  0  0  0  0  0  0  0  0  0  0
    1.7862    0.2062    0.0000 C   0  0  0  0  0  0  0  0  0  0  0  0
   -3.9296    0.2062    0.0000 C   0  0  0  0  0  0  0  0  0  0  0  0
    3.2151    0.2062    0.0000 C   0  0  0  0  0  0  0  0  0  0  0  0
    3.2151    1.0312    0.0000 C   0  0  0  0  0  0  0  0  0  0  0  0
    3.9296   -0.2062    0.0000 C   0  0  0  0  0  0  0  0  0  0  0  0
    3.9296    1.4437    0.0000 C   0  0  0  0  0  0  0  0  0  0  0  0
  1 17  1  0
  2 16  2  0
  3 18  2  0
  4 19  1  0
  5 19  2  0
  6 22  1  0
  7 22  2  0
  8 16  1  0
  9 18  1  0
 11 12  1  0
 11 13  1  0
 12 15  1  0
 13 16  1  0
 14  8  1  0
 14 17  1  6
 14 18  1  0
 15 10  1  6
 15 19  1  0
 20  9  1  0
 20 21  1  6
 20 22  1  0
 21 23  2  0
M  END
>  <DRUGBANK_ID>  (1) 
DB03427

>  <SECONDARY_ACCESSION_NUMBERS>  (1) 
EXPT00577

>  <COMMON_NAME>  (1) 
delta-(L-alpha-Aminoadipoyl)-L-cysteinyl-D-vinylglycine

$$$$
