AAF
     RDKit          2D

 29 31  0  0  0  0  0  0  0  0999 V2000
   -3.0458    0.2218    0.0000 C   0  0  0  0  0  0  0  0  0  0  0  0
   -2.2253    0.3080    0.0000 C   0  0  0  0  0  0  0  0  0  0  0  0
   -1.8128    1.0225    0.0000 C   0  0  0  0  0  0  0  0  0  0  0  0
   -1.0059    0.8510    0.0000 C   0  0  0  0  0  0  0  0  0  0  0  0
   -0.9196    0.0305    0.0000 C   0  0  0  0  0  0  0  0  0  0  0  0
   -0.2052   -0.3820    0.0000 C   0  0  0  0  0  0  0  0  0  0  0  0
   -3.3814   -0.5319    0.0000 O   0  0  0  0  0  0  0  0  0  0  0  0
   -1.6733   -0.3051    0.0000 N   0  0  0  0  0  0  0  0  0  0  0  0
   -3.5307    0.8892    0.0000 N   0  0  0  0  0  0  0  0  0  0  0  0
   -4.3557    0.8892    0.0000 C   0  0  0  0  0  0  0  0  0  0  0  0
   -4.6107    1.6739    0.0000 C   0  0  0  0  0  0  0  0  0  0  0  0
   -3.9432    2.1588    0.0000 C   0  0  0  0  0  0  0  0  0  0  0  0
   -3.2758    1.6739    0.0000 C   0  0  0  0  0  0  0  0  0  0  0  0
   -4.8407    0.2218    0.0000 C   0  0  0  0  0  0  0  0  0  0  0  0
    0.5093    0.0305    0.0000 N   0  0  0  0  0  0  0  0  0  0  0  0
    1.2238   -0.3820    0.0000 C   0  0  0  0  0  0  0  0  0  0  0  0
    1.2238   -1.2070    0.0000 O   0  0  0  0  0  0  0  0  0  0  0  0
   -5.6611    0.3080    0.0000 N   0  0  0  0  0  0  0  0  0  0  0  0
    1.9383    0.0305    0.0000 N   0  0  0  0  0  0  0  0  0  0  0  0
    2.6527   -0.3820    0.0000 C   0  0  0  0  0  0  0  0  0  0  0  0
    3.3672    0.0305    0.0000 C   0  0  0  0  0  0  0  0  0  0  0  0
    4.0817   -0.3820    0.0000 C   0  0  0  0  0  0  0  0  0  0  0  0
    4.0817   -1.2070    0.0000 C   0  0  0  0  0  0  0  0  0  0  0  0
    3.3672   -1.6195    0.0000 C   0  0  0  0  0  0  0  0  0  0  0  0
    2.6527   -1.2070    0.0000 C   0  0  0  0  0  0  0  0  0  0  0  0
    4.7961   -1.6195    0.0000 C   0  0  0  0  0  0  0  0  0  0  0  0
    5.5106   -1.2070    0.0000 O   0  0  0  0  0  0  0  0  0  0  0  0
    4.7961   -2.4445    0.0000 O   0  0  0  0  0  0  0  0  0  0  0  0
    5.5106   -2.8570    0.0000 C   0  0  0  0  0  0  0  0  0  0  0  0
  1  7  2  0
  1  9  1  0
  2  1  1  6
  2  3  1  0
  2  8  1  0
  3  4  1  0
  4  5  1  0
  5  6  1  6
  5  8  1  0
  6 15  1  0
  9 10  1  0
  9 13  1  0
 10 11  1  0
 10 14  1  6
 11 12  1  0
 12 13  1  0
 14 18  1  0
 15 16  1  0
 16 17  2  0
 16 19  1  0
 19 20  1  0
 20 21  2  0
 20 25  1  0
 21 22  1  0
 22 23  2  0
 23 24  1  0
 23 26  1  0
 24 25  2  0
 26 27  2  0
 26 28  1  0
 28 29  1  0
M  END
>  <DRUGBANK_ID>  (1) 
DB07328

>  <COMMON_NAME>  (1) 
METHYL 4-{[({[(2R,5S)-5-{[(2S)-2-(AMINOMETHYL)PYRROLIDIN-1-YL]CARBONYL}PYRROLIDIN-2-YL]METHYL}AMINO)CARBONYL]AMINO}BENZOATE

$$$$
