CXA
     RDKit          2D

 16 16  0  0  0  0  0  0  0  0999 V2000
   -1.0250   -0.3071    0.0000 C   0  0  0  0  0  0  0  0  0  0  0  0
   -1.7394   -0.7196    0.0000 C   0  0  0  0  0  0  0  0  0  0  0  0
   -2.4539   -0.3071    0.0000 C   0  0  0  0  0  0  0  0  0  0  0  0
   -2.4539    0.5179    0.0000 C   0  0  0  0  0  0  0  0  0  0  0  0
   -1.7394    0.9304    0.0000 C   0  0  0  0  0  0  0  0  0  0  0  0
   -1.0250    0.5179    0.0000 C   0  0  0  0  0  0  0  0  0  0  0  0
   -0.3105   -0.7196    0.0000 C   0  0  0  0  0  0  0  0  0  0  0  0
    0.4040   -0.3071    0.0000 C   0  0  0  0  0  0  0  0  0  0  0  0
    0.4040    0.5179    0.0000 C   0  0  0  0  0  0  0  0  0  0  0  0
   -0.3105    0.9304    0.0000 O   0  0  0  0  0  0  0  0  0  0  0  0
    1.1184    0.9304    0.0000 O   0  0  0  0  0  0  0  0  0  0  0  0
    1.1184   -0.7196    0.0000 N   0  0  0  0  0  0  0  0  0  0  0  0
    1.8329   -0.3071    0.0000 S   0  0  0  0  0  0  0  0  0  0  0  0
    2.5474    0.1054    0.0000 N   0  0  0  0  0  0  0  0  0  0  0  0
    2.2454   -1.0216    0.0000 O   0  0  0  0  0  0  0  0  0  0  0  0
    1.4204    0.4074    0.0000 O   0  0  0  0  0  0  0  0  0  0  0  0
  1  2  2  0
  1  6  1  0
  1  7  1  0
  2  3  1  0
  3  4  2  0
  4  5  1  0
  5  6  2  0
  8  7  1  1
  8  9  1  0
  8 12  1  0
  9 10  1  0
  9 11  2  0
 12 13  1  0
 13 14  1  0
 13 15  2  0
 13 16  2  0
M  END
>  <DRUGBANK_ID>  (1) 
DB03012

>  <SECONDARY_ACCESSION_NUMBERS>  (1) 
EXPT01063

>  <COMMON_NAME>  (1) 
Phenylalanine-N-Sulfonamide

$$$$
