
     RDKit          2D

  9  8  0  0  0  0  0  0  0  0999 V2000
   -0.6039   -1.6500    0.0000 O   0  0  0  0  0  0  0  0  0  0  0  0
    0.1105   -1.2375    0.0000 P   0  0  0  0  0  0  0  0  0  0  0  0
    0.5230   -1.9520    0.0000 O   0  0  0  0  0  0  0  0  0  0  0  0
   -0.3020   -0.5230    0.0000 O   0  0  0  0  0  0  0  0  0  0  0  0
    0.8250   -0.8250    0.0000 O   0  0  0  0  0  0  0  0  0  0  0  0
    0.8250    0.0000    0.0000 P   0  0  0  0  0  0  0  0  0  0  0  0
    0.8250    0.8250    0.0000 O   0  0  0  0  0  0  0  0  0  0  0  0
    1.6500    0.0000    0.0000 O   0  0  0  0  0  0  0  0  0  0  0  0
    0.0000    0.0000    0.0000 O   0  0  0  0  0  0  0  0  0  0  0  0
  1  2  1  0
  2  3  1  0
  2  4  2  0
  2  5  1  0
  5  6  1  0
  6  7  1  0
  6  8  1  0
  6  9  2  0
M  END
>  <DRUGBANK_ID>  (1) 
DB04160

>  <SECONDARY_ACCESSION_NUMBERS>  (1) 
EXPT01258; DB11055

>  <COMMON_NAME>  (1) 
Pyrophosphoric acid

>  <CAS_NUMBER>  (1) 
2466-09-3

>  <UNII>  (1) 
4E862E7GRQ

>  <SYNONYMS>  (1) 
acide diphosphorique; Diphosphoric acid; Diphosphorsäure; Pyrophosphorsäure

$$$$
