
     RDKit          2D

 22 23  0  0  0  0  0  0  0  0999 V2000
   -0.7144   -1.0312    0.0000 C   0  0  0  0  0  0  0  0  0  0  0  0
   -0.7144   -0.2062    0.0000 C   0  0  0  0  0  0  0  0  0  0  0  0
   -1.4289    0.2062    0.0000 C   0  0  0  0  0  0  0  0  0  0  0  0
   -2.1434   -0.2062    0.0000 O   0  0  0  0  0  0  0  0  0  0  0  0
   -2.8578    0.2062    0.0000 C   0  0  0  0  0  0  0  0  0  0  0  0
   -3.5723   -0.2062    0.0000 C   0  0  0  0  0  0  0  0  0  0  0  0
   -4.2868    0.2062    0.0000 C   0  0  0  0  0  0  0  0  0  0  0  0
   -4.2868    1.0312    0.0000 C   0  0  0  0  0  0  0  0  0  0  0  0
   -3.5723    1.4437    0.0000 C   0  0  0  0  0  0  0  0  0  0  0  0
   -2.8578    1.0312    0.0000 C   0  0  0  0  0  0  0  0  0  0  0  0
    0.0000    0.2062    0.0000 N   0  0  0  0  0  0  0  0  0  0  0  0
    0.7144   -0.2062    0.0000 C   0  0  0  0  0  0  0  0  0  0  0  0
    0.7144   -1.0312    0.0000 C   0  0  0  0  0  0  0  0  0  0  0  0
    1.4289    0.2062    0.0000 C   0  0  0  0  0  0  0  0  0  0  0  0
    1.4289    1.0312    0.0000 O   0  0  0  0  0  0  0  0  0  0  0  0
    2.1434   -0.2062    0.0000 C   0  0  0  0  0  0  0  0  0  0  0  0
    2.8578    0.2062    0.0000 C   0  0  0  0  0  0  0  0  0  0  0  0
    3.5723   -0.2062    0.0000 C   0  0  0  0  0  0  0  0  0  0  0  0
    3.5723   -1.0312    0.0000 C   0  0  0  0  0  0  0  0  0  0  0  0
    4.2868   -1.4437    0.0000 O   0  0  0  0  0  0  0  0  0  0  0  0
    2.8578   -1.4437    0.0000 C   0  0  0  0  0  0  0  0  0  0  0  0
    2.1434   -1.0312    0.0000 C   0  0  0  0  0  0  0  0  0  0  0  0
  2  1  1  6
  2  3  1  0
  2 11  1  0
  3  4  1  0
  4  5  1  0
  5  6  2  0
  5 10  1  0
  6  7  1  0
  7  8  2  0
  8  9  1  0
  9 10  2  0
 11 12  1  0
 12 13  1  1
 12 14  1  0
 14 15  1  1
 14 16  1  0
 16 17  2  0
 16 22  1  0
 17 18  1  0
 18 19  2  0
 19 20  1  0
 19 21  1  0
 21 22  2  0
M  END
>  <DRUGBANK_ID>  (1) 
DB08941

>  <COMMON_NAME>  (1) 
Isoxsuprine

>  <CAS_NUMBER>  (1) 
395-28-8

>  <UNII>  (1) 
R15UI3245N

>  <SYNONYMS>  (1) 
Isoxsuprine

$$$$
