
     RDKit          2D

 36 40  0  0  0  0  0  0  0  0999 V2000
   -2.5769   -2.4043    0.0000 C   0  0  0  0  0  0  0  0  0  0  0  0
   -2.5769   -3.2408    0.0000 C   0  0  0  0  0  0  0  0  0  0  0  0
   -1.8658   -3.6591    0.0000 C   0  0  0  0  0  0  0  0  0  0  0  0
   -1.1131   -3.2408    0.0000 C   0  0  0  0  0  0  0  0  0  0  0  0
   -1.1131   -2.4043    0.0000 C   0  0  0  0  0  0  0  0  0  0  0  0
   -1.8658   -1.9860    0.0000 C   0  0  0  0  0  0  0  0  0  0  0  0
   -0.4019   -3.6591    0.0000 C   0  0  0  0  0  0  0  0  0  0  0  0
    0.3090   -3.2408    0.0000 C   0  0  0  0  0  0  0  0  0  0  0  0
    0.3090   -2.4043    0.0000 C   0  0  0  0  0  0  0  0  0  0  0  0
   -0.4019   -1.9860    0.0000 C   0  0  0  0  0  0  0  0  0  0  0  0
   -1.8658   -1.1495    0.0000 C   0  0  0  0  0  0  0  0  0  0  0  0
    1.0201   -3.6591    0.0000 N   0  0  0  0  0  0  0  0  0  0  0  0
    1.7311   -3.2408    0.0000 C   0  0  0  0  0  0  0  0  0  0  0  0
    2.4421   -3.6591    0.0000 O   0  0  0  0  0  0  0  0  0  0  0  0
    1.7311   -2.4043    0.0000 O   0  0  0  0  0  0  0  0  0  0  0  0
    3.1532   -3.2408    0.0000 C   0  0  0  0  0  0  0  0  0  0  0  0
    3.8642   -3.6591    0.0000 C   0  0  0  0  0  0  0  0  0  0  0  0
   -2.5769   -0.7313    0.0000 C   0  0  0  0  0  0  0  0  0  0  0  0
   -2.5769    0.1052    0.0000 C   0  0  0  0  0  0  0  0  0  0  0  0
   -1.8658    0.5234    0.0000 C   0  0  0  0  0  0  0  0  0  0  0  0
   -1.8658    1.3600    0.0000 C   0  0  0  0  0  0  0  0  0  0  0  0
   -2.5769    1.7782    0.0000 C   0  0  0  0  0  0  0  0  0  0  0  0
   -3.2880    1.3600    0.0000 C   0  0  0  0  0  0  0  0  0  0  0  0
   -3.2880    0.5234    0.0000 N   0  0  0  0  0  0  0  0  0  0  0  0
   -2.5769    2.6148    0.0000 C   0  0  0  0  0  0  0  0  0  0  0  0
   -1.8658    3.0330    0.0000 C   0  0  0  0  0  0  0  0  0  0  0  0
   -1.8658    3.8696    0.0000 C   0  0  0  0  0  0  0  0  0  0  0  0
   -2.5769    4.2877    0.0000 C   0  0  0  0  0  0  0  0  0  0  0  0
   -3.2880    3.8696    0.0000 C   0  0  0  0  0  0  0  0  0  0  0  0
   -3.2880    3.0330    0.0000 C   0  0  0  0  0  0  0  0  0  0  0  0
   -1.1548    4.2877    0.0000 F   0  0  0  0  0  0  0  0  0  0  0  0
   -3.3725   -2.1458    0.0000 C   0  0  0  0  0  0  0  0  0  0  0  0
   -3.8642   -2.8225    0.0000 O   0  0  0  0  0  0  0  0  0  0  0  0
   -3.3725   -3.4993    0.0000 C   0  0  0  0  0  0  0  0  0  0  0  0
   -3.6288   -1.3573    0.0000 C   0  0  0  0  0  0  0  0  0  0  0  0
   -3.6288   -4.2877    0.0000 O   0  0  0  0  0  0  0  0  0  0  0  0
  1  2  1  0
  1  6  1  0
  1 32  1  1
  2  3  1  1
  2 34  1  0
  4  3  1  1
  4  5  1  0
  4  7  1  0
  5  6  1  0
  5 10  1  6
  6 11  1  1
  7  8  1  0
  8  9  1  0
  8 12  1  1
  9 10  1  0
 11 18  2  0
 12 13  1  0
 13 14  1  0
 13 15  2  0
 14 16  1  0
 16 17  1  0
 18 19  1  0
 19 20  2  0
 19 24  1  0
 20 21  1  0
 21 22  2  0
 22 23  1  0
 22 25  1  0
 23 24  2  0
 25 26  2  0
 25 30  1  0
 26 27  1  0
 27 28  2  0
 27 31  1  0
 28 29  1  0
 29 30  2  0
 32 33  1  0
 32 35  1  6
 33 34  1  0
 34 36  2  0
M  END
>  <DRUGBANK_ID>  (1) 
DB09030

>  <SECONDARY_ACCESSION_NUMBERS>  (1) 
DB05692

>  <COMMON_NAME>  (1) 
Vorapaxar

>  <CAS_NUMBER>  (1) 
618385-01-6

>  <UNII>  (1) 
ZCE93644N2

>  <SYNONYMS>  (1) 
[(1R,3aR,4aR,6R,8aR,9S,9aS)-9-{(E)-2-[5-(3-Fluorophényl)-2-pyridinyl]vinyl}-1-méthyl-3-oxododécahydronaphto[2,3-c]furan-6-yl]carbamate d'éthyle; Carbamic acid, [(1R,3aR,4aR,6R,8aR,9S,9aS)-9-[(1E)-2-[5-(3-fluorophenyl)-2- pyridinyl]ethenyl]dodecahydro-1-methyl-3-oxonaphtho[2,3-c]furan-6-yl]-, ethyl ester; Carbamic acid, N-[(1R,3aR,4aR,6R,8aR,9S,9aS)-9-[(E)-2-[5-(3-fluorophenyl)-2-pyridinyl]ethenyl]dodecahydro-1-methyl-3-oxonaphtho[2,3-c]furan-6-yl]-, ethyl ester; Ethyl N-[(3R,3aS,4S,4aR,7R,8aR,9aR)-4-[(E)-2-[5-(3-fluorophenyl)-2-pyridyl]vinyl]-3-methyl-1-oxo-3a,4,4a,5,6,7,8,8a,9,9a-decahydro-3H-benzo[f]isobenzofuran-7-yl]carbamate; Vorapaxar

$$$$
