
     RDKit          2D

 23 26  0  0  0  0  0  0  0  0999 V2000
   -1.4587    0.4124    0.0000 C   0  0  0  0  0  0  0  0  0  0  0  0
   -1.4587   -0.4107    0.0000 C   0  0  0  0  0  0  0  0  0  0  0  0
   -0.7442    0.8247    0.0000 C   0  0  0  0  0  0  0  0  0  0  0  0
   -2.1734    0.8247    0.0000 C   0  0  0  0  0  0  0  0  0  0  0  0
   -0.7442   -0.8230    0.0000 C   0  0  0  0  0  0  0  0  0  0  0  0
   -2.1734   -0.8230    0.0000 C   0  0  0  0  0  0  0  0  0  0  0  0
   -0.0296    0.4124    0.0000 C   0  0  0  0  0  0  0  0  0  0  0  0
   -0.7442    1.6510    0.0000 C   0  0  0  0  0  0  0  0  0  0  0  0
   -2.1734    1.6510    0.0000 N   0  0  0  0  0  0  0  0  0  0  0  0
   -2.8880    0.4124    0.0000 O   0  0  0  0  0  0  0  0  0  0  0  0
   -0.0296   -0.4107    0.0000 C   0  0  0  0  0  0  0  0  0  0  0  0
   -0.7442   -1.6493    0.0000 C   0  0  0  0  0  0  0  0  0  0  0  0
   -2.1734   -1.6493    0.0000 C   0  0  0  0  0  0  0  0  0  0  0  0
    0.7539    0.6670    0.0000 N   0  0  0  0  0  0  0  0  0  0  0  0
   -1.4587    2.0617    0.0000 C   0  0  0  0  0  0  0  0  0  0  0  0
    0.7539   -0.6653    0.0000 N   0  0  0  0  0  0  0  0  0  0  0  0
   -1.4587   -2.0617    0.0000 C   0  0  0  0  0  0  0  0  0  0  0  0
   -2.8880   -2.0617    0.0000 F   0  0  0  0  0  0  0  0  0  0  0  0
    1.2386    0.0000    0.0000 C   0  0  0  0  0  0  0  0  0  0  0  0
    2.0633    0.0000    0.0000 C   0  0  0  0  0  0  0  0  0  0  0  0
    2.4755   -0.7129    0.0000 C   0  0  0  0  0  0  0  0  0  0  0  0
    2.4755    0.7146    0.0000 C   0  0  0  0  0  0  0  0  0  0  0  0
    2.8880    0.0000    0.0000 C   0  0  0  0  0  0  0  0  0  0  0  0
  1  2  2  0
  1  3  1  0
  1  4  1  0
  2  5  1  0
  2  6  1  0
  3  7  2  0
  3  8  1  0
  4  9  1  0
  4 10  2  0
  5 11  2  0
  5 12  1  0
  6 13  2  0
  7 11  1  0
  7 14  1  0
  8 15  2  0
  9 15  1  0
 11 16  1  0
 12 17  2  0
 13 17  1  0
 13 18  1  0
 14 19  2  0
 16 19  1  0
 19 20  1  0
 20 21  1  0
 20 22  1  0
 20 23  1  0
M  END
>  <DRUGBANK_ID>  (1) 
DB04716

>  <COMMON_NAME>  (1) 
2-tert-butyl-9-fluoro-1,6-dihydrobenzo[h]imidazo[4,5-f]isoquinolin-7-one

>  <CAS_NUMBER>  (1) 
457081-03-7

>  <UNII>  (1) 
LDX3F0CCST

>  <SYNONYMS>  (1) 
CMP 6; Pyridone 6

$$$$
