
     RDKit          2D

 37 41  0  0  1  0  0  0  0  0999 V2000
   -8.0591    2.3987    0.0000 N   0  0  0  0  0  0  0  0  0  0  0  0
   -7.3054    2.0632    0.0000 C   0  0  0  0  0  0  0  0  0  0  0  0
   -6.6380    2.5481    0.0000 C   0  0  0  0  0  0  0  0  0  0  0  0
   -6.5518    3.3686    0.0000 N   0  0  0  0  0  0  0  0  0  0  0  0
   -5.7448    3.5401    0.0000 C   0  0  0  0  0  0  0  0  0  0  0  0
   -5.3323    2.8256    0.0000 N   0  0  0  0  0  0  0  0  0  0  0  0
   -4.5118    2.7394    0.0000 C   0  0  0  0  0  0  0  0  0  0  0  0
   -3.9598    3.3525    0.0000 O   0  0  0  0  0  0  0  0  0  0  0  0
   -3.2061    3.0169    0.0000 C   0  0  0  0  0  0  0  0  0  0  0  0
   -2.4916    3.4294    0.0000 C   0  0  0  0  0  0  0  0  0  0  0  0
   -1.7772    3.0169    0.0000 O   0  0  0  0  0  0  0  0  0  0  0  0
   -1.0627    3.4294    0.0000 P   0  0  0  0  0  0  0  0  0  0  0  0
   -0.6502    2.7150    0.0000 O   0  0  0  0  0  0  0  0  0  0  0  0
   -1.4752    4.1439    0.0000 O   0  0  0  0  0  0  0  0  0  0  0  0
   -0.3482    3.8419    0.0000 O   0  0  0  0  0  0  0  0  0  0  0  0
    0.3663    3.4294    0.0000 C   0  0  0  0  0  0  0  0  0  0  0  0
    1.0807    3.8419    0.0000 C   0  0  0  0  0  0  0  0  0  0  0  0
    1.7952    3.4294    0.0000 C   0  0  0  0  0  0  0  0  0  0  0  0
    2.5097    3.8419    0.0000 C   0  0  0  0  0  0  0  0  0  0  0  0
    3.2241    3.4294    0.0000 C   0  0  0  0  0  0  0  0  0  0  0  0
    3.9386    3.8419    0.0000 C   0  0  0  0  0  0  0  0  0  0  0  0
    4.0249    4.6624    0.0000 S   0  0  0  0  0  0  0  0  0  0  0  0
    4.8318    4.8339    0.0000 C   0  0  0  0  0  0  0  0  0  0  0  0
    5.2443    4.1195    0.0000 C   0  0  0  0  0  0  0  0  0  0  0  0
    5.9980    3.7839    0.0000 N   0  0  0  0  0  0  0  0  0  0  0  0
    5.9118    2.9634    0.0000 C   0  0  0  0  0  0  0  0  0  0  0  0
    6.5249    2.4114    0.0000 O   0  0  0  0  0  0  0  0  0  0  0  0
    5.1048    2.7919    0.0000 N   0  0  0  0  0  0  0  0  0  0  0  0
    4.6923    3.5064    0.0000 C   0  0  0  0  0  0  0  0  0  0  0  0
   -3.2923    2.1964    0.0000 C   0  0  0  0  0  0  0  0  0  0  0  0
   -2.6792    1.6444    0.0000 O   0  0  0  0  0  0  0  0  0  0  0  0
   -4.0993    2.0249    0.0000 C   0  0  0  0  0  0  0  0  0  0  0  0
   -4.4349    1.2712    0.0000 O   0  0  0  0  0  0  0  0  0  0  0  0
   -5.8843    2.2125    0.0000 C   0  0  0  0  0  0  0  0  0  0  0  0
   -5.7981    1.3920    0.0000 N   0  0  0  0  0  0  0  0  0  0  0  0
   -6.4655    0.9071    0.0000 C   0  0  0  0  0  0  0  0  0  0  0  0
   -7.2192    1.2427    0.0000 N   0  0  0  0  0  0  0  0  0  0  0  0
  1  2  1  0
  2  3  2  0
  2 37  1  0
  3  4  1  0
  3 34  1  0
  4  5  2  0
  5  6  1  0
  6 34  1  0
  7  6  1  6
  7  8  1  0
  7 32  1  0
  8  9  1  0
  9 10  1  6
  9 30  1  0
 10 11  1  0
 12 11  1  0
 12 13  1  0
 12 14  2  0
 12 15  1  0
 15 16  1  0
 16 17  1  0
 17 18  1  0
 18 19  1  0
 19 20  1  0
 21 20  1  6
 21 22  1  0
 21 29  1  0
 22 23  1  0
 24 23  1  6
 24 25  1  0
 24 29  1  0
 25 26  1  0
 26 27  2  0
 26 28  1  0
 29 28  1  6
 30 31  1  1
 30 32  1  0
 32 33  1  1
 34 35  2  0
 35 36  1  0
 36 37  2  0
M  END
>  <DRUGBANK_ID>  (1) 
DB04651

>  <COMMON_NAME>  (1) 
BIOTINOL-5-AMP

$$$$
