342
     RDKit          2D

 28 32  0  0  0  0  0  0  0  0999 V2000
   -1.4638   -2.6062    0.0000 C   0  0  0  0  0  0  0  0  0  0  0  0
   -2.1783   -3.0187    0.0000 C   0  0  0  0  0  0  0  0  0  0  0  0
   -2.9629   -2.7638    0.0000 O   0  0  0  0  0  0  0  0  0  0  0  0
   -3.4478   -3.4312    0.0000 C   0  0  0  0  0  0  0  0  0  0  0  0
   -2.9629   -4.0987    0.0000 O   0  0  0  0  0  0  0  0  0  0  0  0
   -2.1783   -3.8437    0.0000 C   0  0  0  0  0  0  0  0  0  0  0  0
   -1.4638   -4.2562    0.0000 C   0  0  0  0  0  0  0  0  0  0  0  0
   -0.7494   -3.8437    0.0000 C   0  0  0  0  0  0  0  0  0  0  0  0
   -0.7494   -3.0187    0.0000 C   0  0  0  0  0  0  0  0  0  0  0  0
   -0.0349   -2.6062    0.0000 C   0  0  0  0  0  0  0  0  0  0  0  0
   -0.0349   -1.7812    0.0000 N   0  0  0  0  0  0  0  0  0  0  0  0
    0.6796   -1.3687    0.0000 C   0  0  0  0  0  0  0  0  0  0  0  0
   -0.7494   -1.3687    0.0000 C   0  0  0  0  0  0  0  0  0  0  0  0
   -0.7494   -0.5437    0.0000 C   0  0  0  0  0  0  0  0  0  0  0  0
   -0.0349   -0.1312    0.0000 C   0  0  0  0  0  0  0  0  0  0  0  0
    0.6796   -0.5437    0.0000 C   0  0  0  0  0  0  0  0  0  0  0  0
    1.3941   -0.1312    0.0000 O   0  0  0  0  0  0  0  0  0  0  0  0
    2.1085   -0.5437    0.0000 C   0  0  0  0  0  0  0  0  0  0  0  0
    2.8230   -0.1312    0.0000 C   0  0  0  0  0  0  0  0  0  0  0  0
    3.5375   -0.5437    0.0000 C   0  0  0  0  0  0  0  0  0  0  0  0
    2.1085   -1.3687    0.0000 C   0  0  0  0  0  0  0  0  0  0  0  0
    2.8230   -1.7812    0.0000 C   0  0  0  0  0  0  0  0  0  0  0  0
    3.5375   -1.3687    0.0000 C   0  0  0  0  0  0  0  0  0  0  0  0
    4.2519   -1.7812    0.0000 N   0  0  0  0  0  0  0  0  0  0  0  0
    5.0056   -1.4457    0.0000 C   0  0  0  0  0  0  0  0  0  0  0  0
    5.5576   -2.0588    0.0000 C   0  0  0  0  0  0  0  0  0  0  0  0
    5.1451   -2.7732    0.0000 N   0  0  0  0  0  0  0  0  0  0  0  0
    4.3382   -2.6017    0.0000 C   0  0  0  0  0  0  0  0  0  0  0  0
  1  9  2  0
  1  2  1  0
  2  3  1  0
  2  6  2  0
  3  4  1  0
  4  5  1  0
  5  6  1  0
  6  7  1  0
  7  8  2  0
  8  9  1  0
  9 10  1  0
 10 11  1  0
 11 13  1  0
 11 12  1  0
 12 16  1  0
 13 14  1  0
 14 15  1  0
 15 16  1  0
 16 17  1  6
 17 18  1  0
 18 19  2  0
 18 21  1  0
 19 20  1  0
 20 23  2  0
 21 22  2  0
 22 23  1  0
 23 24  1  0
 24 25  1  0
 24 28  1  0
 25 26  2  0
 26 27  1  0
 27 28  2  0
M  END
>  <DRUGBANK_ID>  (1) 
DB07011

>  <COMMON_NAME>  (1) 
(3S)-1-(1,3-BENZODIOXOL-5-YLMETHYL)-3-[4-(1H-IMIDAZOL-1-YL)PHENOXY]PIPERIDINE

$$$$
