
     RDKit          2D

 12 12  0  0  1  0  0  0  0  0999 V2000
    0.5678    1.9393    0.0000 N   0  0  0  0  0  0  0  0  0  0  0  0
    0.5678    1.1143    0.0000 C   0  0  0  0  0  0  0  0  0  0  0  0
    1.2352    0.6294    0.0000 C   0  0  0  0  0  0  0  0  0  0  0  0
    0.9803   -0.1553    0.0000 C   0  0  0  0  0  0  0  0  0  0  0  0
    0.1553   -0.1553    0.0000 C   0  0  0  0  0  0  0  0  0  0  0  0
   -0.0997    0.6294    0.0000 C   0  0  0  0  0  0  0  0  0  0  0  0
   -0.8843    0.8843    0.0000 C   0  0  0  0  0  0  0  0  0  0  0  0
   -1.4974    0.3323    0.0000 F   0  0  0  0  0  0  0  0  0  0  0  0
   -1.0558    1.6913    0.0000 F   0  0  0  0  0  0  0  0  0  0  0  0
    1.4652   -0.8227    0.0000 C   0  0  0  0  0  0  0  0  0  0  0  0
    2.2857   -0.7365    0.0000 O   0  0  0  0  0  0  0  0  0  0  0  0
    1.1296   -1.5764    0.0000 O   0  0  0  0  0  0  0  0  0  0  0  0
  2  1  1  1
  2  3  1  0
  2  6  1  0
  4  3  1  0
  4  5  1  0
  4 10  1  1
  5  6  1  0
  6  7  2  3
  7  8  1  0
  7  9  1  0
 10 11  1  0
 10 12  2  0
M  END
>  <DRUGBANK_ID>  (1) 
DB17919

>  <COMMON_NAME>  (1) 
CPP-115 free base

>  <CAS_NUMBER>  (1) 
640897-20-7

>  <UNII>  (1) 
5TD9324Z2U

>  <SYNONYMS>  (1) 
(+)-(1s,4s)-4-amino-3-(difluoromethylene)-1-cyclopentanecarboxylic acid; (1s,3s)-3-amino-4-(difluoromethylene) cyclopentanecarboxylic acid; (1s,3s)-3-amino-4-difluoromethylenyl-1-cyclopentanoic acid

$$$$
