
     RDKit          2D

 20 22  0  0  1  0  0  0  0  0999 V2000
   -0.7846    3.9841    0.0000 C   0  0  0  0  0  0  0  0  0  0  0  0
   -1.2695    0.4125    0.0000 C   0  0  0  0  0  0  0  0  0  0  0  0
   -1.0396    3.1994    0.0000 C   0  0  0  0  0  0  0  0  0  0  0  0
    0.0000    0.0000    0.0000 C   0  0  0  0  0  0  0  0  0  0  0  0
   -1.8242    2.9445    0.0000 C   0  0  0  0  0  0  0  0  0  0  0  0
   -1.8242    2.1195    0.0000 C   0  0  0  0  0  0  0  0  0  0  0  0
    0.7145   -0.4125    0.0000 C   0  0  0  0  0  0  0  0  0  0  0  0
    0.0000    0.8250    0.0000 C   0  0  0  0  0  0  0  0  0  0  0  0
   -1.0396    1.8646    0.0000 C   0  0  0  0  0  0  0  0  0  0  0  0
    1.4289    0.8250    0.0000 C   0  0  0  0  0  0  0  0  0  0  0  0
    2.1434    1.2375    0.0000 F   0  0  0  0  0  0  0  0  0  0  0  0
    0.7145   -1.2375    0.0000 N   0  0  0  0  0  0  0  0  0  0  0  0
   -0.7846   -0.2549    0.0000 N   0  0  0  0  0  0  0  0  0  0  0  0
    1.4289    0.0000    0.0000 N   0  0  0  0  0  0  0  0  0  0  0  0
    0.7145    1.2375    0.0000 N   0  0  0  0  0  0  0  0  0  0  0  0
   -0.7846    1.0799    0.0000 N   0  0  0  0  0  0  0  0  0  0  0  0
   -1.3367    4.5972    0.0000 O   0  0  0  0  0  0  0  0  0  0  0  0
   -2.4916    3.4294    0.0000 O   0  0  0  0  0  0  0  0  0  0  0  0
   -2.4916    1.6346    0.0000 O   0  0  0  0  0  0  0  0  0  0  0  0
   -0.5546    2.5320    0.0000 O   0  0  0  0  0  0  0  0  0  0  0  0
  3  1  1  1
  5  3  1  0
  5 18  1  6
  6  5  1  0
  6 19  1  6
  7  4  2  0
  8  4  1  0
  9  6  1  0
  9 16  1  1
 11 10  1  0
 12  7  1  0
 13  2  2  0
 13  4  1  0
 14  7  1  0
 14 10  2  0
 15  8  2  0
 15 10  1  0
 16  2  1  0
 16  8  1  0
 17  1  1  0
 20  3  1  0
 20  9  1  0
M  END
>  <DRUGBANK_ID>  (1) 
DB04441

>  <SECONDARY_ACCESSION_NUMBERS>  (1) 
EXPT00114

>  <COMMON_NAME>  (1) 
2-Fluoroadenosine

>  <CAS_NUMBER>  (1) 
146-78-1

>  <UNII>  (1) 
0S67290CRJ

>  <SYNONYMS>  (1) 
2-(6-amino-2-fluoro-purin-9-yl)-5-hydroxymethyl-tetrahydro-furan-3,4-diol; 6-amino-2-fluoro-9-Î²-D-ribofuranosylpurine

$$$$
