
     RDKit          2D

 35 39  0  0  1  0  0  0  0  0999 V2000
    6.1418   -0.5791    0.0000 C   0  0  0  0  0  0  0  0  0  0  0  0
    5.8398   -1.7060    0.0000 C   0  0  0  0  0  0  0  0  0  0  0  0
    5.0148   -0.2771    0.0000 C   0  0  0  0  0  0  0  0  0  0  0  0
    1.8549   -2.2291    0.0000 C   0  0  0  0  0  0  0  0  0  0  0  0
    4.7128    0.2459    0.0000 C   0  0  0  0  0  0  0  0  0  0  0  0
    2.5694    3.9584    0.0000 C   0  0  0  0  0  0  0  0  0  0  0  0
    4.7128    1.0709    0.0000 C   0  0  0  0  0  0  0  0  0  0  0  0
    3.9983   -0.1666    0.0000 C   0  0  0  0  0  0  0  0  0  0  0  0
    1.8549    3.5459    0.0000 C   0  0  0  0  0  0  0  0  0  0  0  0
    3.2839    3.5459    0.0000 C   0  0  0  0  0  0  0  0  0  0  0  0
    3.9983    1.4834    0.0000 C   0  0  0  0  0  0  0  0  0  0  0  0
    3.2839    0.2459    0.0000 C   0  0  0  0  0  0  0  0  0  0  0  0
    1.8549    2.7209    0.0000 C   0  0  0  0  0  0  0  0  0  0  0  0
    3.2839    2.7209    0.0000 C   0  0  0  0  0  0  0  0  0  0  0  0
    4.7128   -2.2291    0.0000 C   0  0  0  0  0  0  0  0  0  0  0  0
    3.9983   -2.6416    0.0000 C   0  0  0  0  0  0  0  0  0  0  0  0
    0.4260    0.2459    0.0000 C   0  0  0  0  0  0  0  0  0  0  0  0
    1.0030    0.3834    0.0000 C   0  0  0  0  0  0  0  0  0  0  0  0
    0.4260    1.0709    0.0000 C   0  0  0  0  0  0  0  0  0  0  0  0
    1.0030    0.9334    0.0000 C   0  0  0  0  0  0  0  0  0  0  0  0
    3.9983   -0.9916    0.0000 C   0  0  0  0  0  0  0  0  0  0  0  0
    2.5694   -0.9916    0.0000 C   0  0  0  0  0  0  0  0  0  0  0  0
    3.2839    1.0709    0.0000 C   0  0  0  0  0  0  0  0  0  0  0  0
    2.5694    2.3084    0.0000 C   0  0  0  0  0  0  0  0  0  0  0  0
    1.1405   -0.1666    0.0000 C   0  0  0  0  0  0  0  0  0  0  0  0
    3.2839   -1.4041    0.0000 C   0  0  0  0  0  0  0  0  0  0  0  0
    4.7128   -1.4041    0.0000 C   0  0  0  0  0  0  0  0  0  0  0  0
    3.2839   -2.2291    0.0000 C   0  0  0  0  0  0  0  0  0  0  0  0
    2.5694    1.4834    0.0000 C   0  0  0  0  0  0  0  0  0  0  0  0
    1.8549    0.2459    0.0000 C   0  0  0  0  0  0  0  0  0  0  0  0
    1.8549    1.0709    0.0000 C   0  0  0  0  0  0  0  0  0  0  0  0
    5.4273   -0.9916    0.0000 C   0  0  0  0  0  0  0  0  0  0  0  0
    2.5694   -0.1666    0.0000 N   0  0  0  0  0  0  0  0  0  0  0  0
    1.1405    1.4834    0.0000 N   0  0  0  0  0  0  0  0  0  0  0  0
    2.5694   -2.6416    0.0000 O   0  0  0  0  0  0  0  0  0  0  0  0
  7  5  2  0
  8  5  1  0
  9  6  2  0
 10  6  1  0
 11  7  1  0
 12  8  2  0
 13  9  1  0
 14 10  2  0
 16 15  2  0
 19 17  1  0
 20 18  1  0
 23 11  2  0
 23 12  1  0
 24 13  2  0
 24 14  1  0
 25 17  1  0
 25 18  1  0
 26 21  1  0
 26 22  1  0
 27 15  1  0
 27 21  2  0
 28 16  1  0
 28 26  2  0
 29 23  1  0
 29 24  1  0
 30 25  1  0
 30 33  1  1
 31 29  1  1
 31 30  1  0
 32  1  1  0
 32  2  1  0
 32  3  1  0
 32 27  1  0
 33 22  1  0
 34 19  1  0
 34 20  1  0
 34 31  1  0
 35  4  1  0
 35 28  1  0
M  END
>  <DRUGBANK_ID>  (1) 
DB11427

>  <COMMON_NAME>  (1) 
Maropitant

>  <CAS_NUMBER>  (1) 
147116-67-4

>  <UNII>  (1) 
4XE2T9H4DH

>  <SYNONYMS>  (1) 
Maropitant

$$$$
