L41
     RDKit          2D

 29 30  0  0  0  0  0  0  0  0999 V2000
   -2.8631   -0.8657    0.0000 C   0  0  0  0  0  0  0  0  0  0  0  0
   -2.1486   -0.4532    0.0000 C   0  0  0  0  0  0  0  0  0  0  0  0
   -3.5776   -0.4532    0.0000 C   0  0  0  0  0  0  0  0  0  0  0  0
   -2.8631   -1.6907    0.0000 C   0  0  0  0  0  0  0  0  0  0  0  0
   -2.1486    0.3718    0.0000 C   0  0  0  0  0  0  0  0  0  0  0  0
   -1.4342   -0.8657    0.0000 O   0  0  0  0  0  0  0  0  0  0  0  0
   -3.5776    0.3718    0.0000 C   0  0  0  0  0  0  0  0  0  0  0  0
   -4.2920   -0.8657    0.0000 O   0  0  0  0  0  0  0  0  0  0  0  0
   -2.1486   -2.1032    0.0000 C   0  0  0  0  0  0  0  0  0  0  0  0
   -2.8631    0.7843    0.0000 C   0  0  0  0  0  0  0  0  0  0  0  0
   -0.7197   -0.4532    0.0000 C   0  0  0  0  0  0  0  0  0  0  0  0
   -4.2920    0.7843    0.0000 C   0  0  0  0  0  0  0  0  0  0  0  0
   -2.1486   -2.9282    0.0000 C   0  0  0  0  0  0  0  0  0  0  0  0
   -0.0052   -0.8657    0.0000 C   0  0  0  0  0  0  0  0  0  0  0  0
   -4.2920    1.6093    0.0000 C   0  0  0  0  0  0  0  0  0  0  0  0
   -5.0065    0.3718    0.0000 O   0  0  0  0  0  0  0  0  0  0  0  0
    0.7093   -0.4532    0.0000 C   0  0  0  0  0  0  0  0  0  0  0  0
    1.4237   -0.8657    0.0000 O   0  0  0  0  0  0  0  0  0  0  0  0
    2.1382   -0.4532    0.0000 C   0  0  0  0  0  0  0  0  0  0  0  0
    2.8527   -0.8657    0.0000 C   0  0  0  0  0  0  0  0  0  0  0  0
    2.1382    0.3718    0.0000 C   0  0  0  0  0  0  0  0  0  0  0  0
    3.5671   -0.4532    0.0000 C   0  0  0  0  0  0  0  0  0  0  0  0
    2.8527    0.7843    0.0000 C   0  0  0  0  0  0  0  0  0  0  0  0
    3.5671    0.3718    0.0000 C   0  0  0  0  0  0  0  0  0  0  0  0
    4.2816    0.7843    0.0000 O   0  0  0  0  0  0  0  0  0  0  0  0
    4.2816    1.6093    0.0000 C   0  0  0  0  0  0  0  0  0  0  0  0
    4.9961    2.0218    0.0000 C   0  0  0  0  0  0  0  0  0  0  0  0
    4.9961    2.8468    0.0000 O   0  0  0  0  0  0  0  0  0  0  0  0
    5.7106    1.6093    0.0000 O   0  0  0  0  0  0  0  0  0  0  0  0
  1  4  1  0
  2  1  2  0
  2  6  1  0
  3  1  1  0
  3  8  1  0
  4  9  1  0
  5  2  1  0
  7  3  2  0
  9 13  1  0
 10  5  2  0
 10  7  1  0
 11  6  1  0
 11 14  1  0
 12  7  1  0
 12 16  2  0
 14 17  1  0
 15 12  1  0
 18 17  1  0
 19 18  1  0
 19 21  1  0
 20 19  2  0
 22 20  1  0
 22 24  2  0
 23 21  2  0
 24 23  1  0
 25 24  1  0
 25 26  1  0
 26 27  1  0
 27 29  2  0
 27 28  1  0
M  END
>  <DRUGBANK_ID>  (1) 
DB08078

>  <COMMON_NAME>  (1) 
{4-[3-(4-acetyl-3-hydroxy-2-propylphenoxy)propoxy]phenoxy}acetic acid

>  <UNII>  (1) 
7RV682Z3FQ

$$$$
