
     RDKit          2D

 40 45  0  0  0  0  0  0  0  0999 V2000
    1.4300   -2.3626    0.0000 C   0  0  0  0  0  0  0  0  0  0  0  0
    1.4301   -1.5375    0.0000 C   0  0  0  0  0  0  0  0  0  0  0  0
    0.7156   -1.1251    0.0000 C   0  0  0  0  0  0  0  0  0  0  0  0
    0.0012   -1.5376    0.0000 C   0  0  0  0  0  0  0  0  0  0  0  0
    0.0011   -2.3625    0.0000 C   0  0  0  0  0  0  0  0  0  0  0  0
    0.7156   -2.7750    0.0000 N   0  0  0  0  0  0  0  0  0  0  0  0
    2.2147   -1.2826    0.0000 C   0  0  0  0  0  0  0  0  0  0  0  0
    2.6997   -1.9501    0.0000 C   0  0  0  0  0  0  0  0  0  0  0  0
    2.2147   -2.6175    0.0000 C   0  0  0  0  0  0  0  0  0  0  0  0
    3.9692   -1.5376    0.0000 C   0  0  0  0  0  0  0  0  0  0  0  0
    3.1845   -1.2826    0.0000 C   0  0  0  0  0  0  0  0  0  0  0  0
    3.0130   -0.4756    0.0000 C   0  0  0  0  0  0  0  0  0  0  0  0
    3.6261    0.0762    0.0000 C   0  0  0  0  0  0  0  0  0  0  0  0
    4.4107   -0.1786    0.0000 C   0  0  0  0  0  0  0  0  0  0  0  0
    4.5823   -0.9855    0.0000 N   0  0  0  0  0  0  0  0  0  0  0  0
    3.9692   -2.3626    0.0000 N   0  0  0  0  0  0  0  0  0  0  0  0
    3.1845   -2.6176    0.0000 C   0  0  0  0  0  0  0  0  0  0  0  0
   -0.7133   -1.1251    0.0000 C   0  0  0  0  0  0  0  0  0  0  0  0
   -1.4483   -1.4996    0.0000 O   0  0  0  0  0  0  0  0  0  0  0  0
   -0.7132   -0.3000    0.0000 N   0  0  0  0  0  0  0  0  0  0  0  0
    2.9296   -3.4022    0.0000 O   0  0  0  0  0  0  0  0  0  0  0  0
   -2.1422    1.3498    0.0000 N   0  0  0  0  0  0  0  0  0  0  0  0
   -1.4277    0.9373    0.0000 C   0  0  0  0  0  0  0  0  0  0  0  0
   -1.4277    0.1123    0.0000 C   0  0  0  0  0  0  0  0  0  0  0  0
   -2.1421   -0.3001    0.0000 C   0  0  0  0  0  0  0  0  0  0  0  0
   -2.8566    0.1123    0.0000 C   0  0  0  0  0  0  0  0  0  0  0  0
   -2.8566    0.9373    0.0000 C   0  0  0  0  0  0  0  0  0  0  0  0
   -2.1421    2.1748    0.0000 C   0  0  0  0  0  0  0  0  0  0  0  0
   -1.4071    2.5494    0.0000 C   0  0  0  0  0  0  0  0  0  0  0  0
   -0.7152    2.1001    0.0000 F   0  0  0  0  0  0  0  0  0  0  0  0
   -0.6720    2.9239    0.0000 F   0  0  0  0  0  0  0  0  0  0  0  0
   -1.3639    3.3732    0.0000 F   0  0  0  0  0  0  0  0  0  0  0  0
   -3.5711   -0.3001    0.0000 C   0  0  0  0  0  0  0  0  0  0  0  0
   -3.5711   -1.1251    0.0000 C   0  0  0  0  0  0  0  0  0  0  0  0
   -4.2856   -1.5376    0.0000 C   0  0  0  0  0  0  0  0  0  0  0  0
   -5.0001   -1.1251    0.0000 C   0  0  0  0  0  0  0  0  0  0  0  0
   -5.0000   -0.3001    0.0000 C   0  0  0  0  0  0  0  0  0  0  0  0
   -4.2856    0.1123    0.0000 C   0  0  0  0  0  0  0  0  0  0  0  0
   -0.7132    1.3498    0.0000 O   0  0  0  0  0  0  0  0  0  0  0  0
   -3.5711    1.3499    0.0000 C   0  0  0  0  0  0  0  0  0  0  0  0
  1  2  1  0
  1  6  2  0
  1  9  1  0
  2  3  2  0
  2  7  1  0
  3  4  1  0
  4  5  2  0
  4 18  1  0
  5  6  1  0
  8  7  1  6
  8  9  1  0
  8 11  1  0
  8 17  1  0
 10 11  1  0
 10 15  2  0
 10 16  1  0
 11 12  2  0
 12 13  1  0
 13 14  2  0
 14 15  1  0
 16 17  1  0
 17 21  2  0
 18 19  2  0
 18 20  1  0
 22 23  1  0
 22 27  1  0
 22 28  1  0
 23 24  1  0
 23 39  2  0
 24 25  1  0
 24 20  1  1
 25 26  1  0
 26 27  1  0
 26 33  1  1
 27 40  1  1
 28 29  1  0
 29 30  1  0
 29 31  1  0
 29 32  1  0
 33 34  2  0
 33 38  1  0
 34 35  1  0
 35 36  2  0
 36 37  1  0
 37 38  2  0
M  END
>  <DRUGBANK_ID>  (1) 
DB15328

>  <COMMON_NAME>  (1) 
Ubrogepant

>  <CAS_NUMBER>  (1) 
1374248-77-7

>  <UNII>  (1) 
AD0O8X2QJR

>  <SYNONYMS>  (1) 
Ubrogepant; Ubrog√©pant; Ubrogepantum

$$$$
