
     RDKit          2D

 32 36  0  0  0  0  0  0  0  0999 V2000
   -4.1293    1.9361    0.0000 C   0  0  0  0  0  0  0  0  0  0  0  0
   -3.6444    1.2687    0.0000 N   0  0  0  0  0  0  0  0  0  0  0  0
   -3.8993    0.4841    0.0000 C   0  0  0  0  0  0  0  0  0  0  0  0
   -4.6839    0.2291    0.0000 C   0  0  0  0  0  0  0  0  0  0  0  0
   -5.2970    0.7812    0.0000 N   0  0  0  0  0  0  0  0  0  0  0  0
   -6.0816    0.5262    0.0000 C   0  0  0  0  0  0  0  0  0  0  0  0
   -6.2532   -0.2807    0.0000 C   0  0  0  0  0  0  0  0  0  0  0  0
   -7.0378   -0.5357    0.0000 C   0  0  0  0  0  0  0  0  0  0  0  0
   -7.6509    0.0164    0.0000 C   0  0  0  0  0  0  0  0  0  0  0  0
   -7.4794    0.8233    0.0000 C   0  0  0  0  0  0  0  0  0  0  0  0
   -6.6947    1.0783    0.0000 C   0  0  0  0  0  0  0  0  0  0  0  0
   -8.4355   -0.2386    0.0000 C   0  0  0  0  0  0  0  0  0  0  0  0
   -9.0486    0.3134    0.0000 N   0  0  0  0  0  0  0  0  0  0  0  0
   -8.6070   -1.0456    0.0000 N   0  0  0  0  0  0  0  0  0  0  0  0
   -3.2319   -0.0008    0.0000 N   0  0  0  0  0  0  0  0  0  0  0  0
   -2.5644    0.4841    0.0000 C   0  0  0  0  0  0  0  0  0  0  0  0
   -2.8194    1.2687    0.0000 C   0  0  0  0  0  0  0  0  0  0  0  0
   -2.2673    1.8818    0.0000 C   0  0  0  0  0  0  0  0  0  0  0  0
   -1.4604    1.7103    0.0000 C   0  0  0  0  0  0  0  0  0  0  0  0
   -1.2054    0.9256    0.0000 C   0  0  0  0  0  0  0  0  0  0  0  0
   -0.3984    0.7541    0.0000 C   0  0  0  0  0  0  0  0  0  0  0  0
   -0.1435   -0.0305    0.0000 N   0  0  0  0  0  0  0  0  0  0  0  0
   -0.6284   -0.6979    0.0000 C   0  0  0  0  0  0  0  0  0  0  0  0
   -1.4534   -0.6979    0.0000 C   0  0  0  0  0  0  0  0  0  0  0  0
   -0.1435   -1.3654    0.0000 N   0  0  0  0  0  0  0  0  0  0  0  0
    0.6411   -1.1104    0.0000 C   0  0  0  0  0  0  0  0  0  0  0  0
    0.6411   -0.2854    0.0000 C   0  0  0  0  0  0  0  0  0  0  0  0
    1.3556    0.1271    0.0000 C   0  0  0  0  0  0  0  0  0  0  0  0
    2.0701   -0.2854    0.0000 C   0  0  0  0  0  0  0  0  0  0  0  0
    2.0701   -1.1104    0.0000 C   0  0  0  0  0  0  0  0  0  0  0  0
    1.3556   -1.5229    0.0000 C   0  0  0  0  0  0  0  0  0  0  0  0
   -1.7575    0.3126    0.0000 C   0  0  0  0  0  0  0  0  0  0  0  0
  1  2  1  0
  2  3  1  0
  2 17  1  0
  3  4  1  0
  3 15  2  0
  4  5  1  0
  5  6  1  0
  6  7  2  0
  6 11  1  0
  7  8  1  0
  8  9  2  0
  9 10  1  0
  9 12  1  0
 10 11  2  0
 12 13  1  0
 12 14  2  0
 15 16  1  0
 16 17  2  0
 16 32  1  0
 17 18  1  0
 18 19  2  0
 19 20  1  0
 20 21  1  0
 20 32  2  0
 21 22  1  0
 22 23  1  0
 22 27  1  0
 23 24  1  0
 23 25  2  0
 25 26  1  0
 26 27  2  0
 26 31  1  0
 27 28  1  0
 28 29  2  0
 29 30  1  0
 30 31  2  0
M  END
>  <DRUGBANK_ID>  (1) 
DB02354

>  <SECONDARY_ACCESSION_NUMBERS>  (1) 
EXPT02739

>  <COMMON_NAME>  (1) 
4-{[1-Methyl-5-(2-Methyl-Benzoimidazol-1-Ylmethyl)-1h-Benzoimidazol-2-Ylmethyl]-Amino}-Benzamidine

$$$$
