
     RDKit          2D

 11 10  0  0  0  0  0  0  0  0999 V2000
    2.7770   -0.3020    0.0000 C   0  0  0  0  0  0  0  0  0  0  0  0
    0.1105    0.4125    0.0000 C   0  0  0  0  0  0  0  0  0  0  0  0
    0.3020    1.1270    0.0000 C   0  0  0  0  0  0  0  0  0  0  0  0
   -0.1105    1.8414    0.0000 C   0  0  0  0  0  0  0  0  0  0  0  0
   -0.9355    1.8414    0.0000 Cl  0  0  0  0  0  0  0  0  0  0  0  0
    0.3020    2.5559    0.0000 Cl  0  0  0  0  0  0  0  0  0  0  0  0
    2.2539    0.8250    0.0000 O   0  0  0  0  0  0  0  0  0  0  0  0
    1.9520   -0.3020    0.0000 O   0  0  0  0  0  0  0  0  0  0  0  0
    0.8250    0.0000    0.0000 O   0  0  0  0  0  0  0  0  0  0  0  0
    1.1270    1.1270    0.0000 O   0  0  0  0  0  0  0  0  0  0  0  0
    1.5395    0.4125    0.0000 P   0  0  0  0  0  0  0  0  0  0  0  0
  4  3  2  3
  5  4  1  0
  6  4  1  0
  8  1  1  0
  9  2  1  0
 10  3  1  0
 11  7  2  0
 11  8  1  0
 11  9  1  0
 11 10  1  0
M  END
>  <DRUGBANK_ID>  (1) 
DB11397

>  <COMMON_NAME>  (1) 
Dichlorvos

>  <CAS_NUMBER>  (1) 
62-73-7

>  <UNII>  (1) 
7U370BPS14

>  <SYNONYMS>  (1) 
2,2-Dichloroethenyl dimethyl phosphate; DDVP; Dichlorvos; Dimethyl 2,2-dichlorovinyl phosphate; Dimethyl-2,2-dichlorovinyl phosphate; Phosphoric acid, 2,2-dichloroethenyl dimethyl ester; Phosphoric acid, 2,2-dichlorovinyl dimethyl ester

$$$$
