
     RDKit          2D

 29 29  0  0  1  0  0  0  0  0999 V2000
    0.0411   -1.9866    0.0000 C   0  0  0  0  0  0  0  0  0  0  0  0
   -0.6600   -2.4215    0.0000 C   0  0  0  0  0  0  0  0  0  0  0  0
   -1.5178   -2.0027    0.0000 C   0  0  0  0  0  0  0  0  0  0  0  0
   -0.7763   -0.8362    0.0000 N   0  0  0  0  0  0  0  0  0  0  0  0
    0.6430   -0.6721    0.0000 C   0  0  0  0  0  0  0  0  0  0  0  0
    0.5485    0.1474    0.0000 N   0  0  0  0  0  0  0  0  0  0  0  0
    1.0941    0.7662    0.0000 C   0  0  0  0  0  0  0  0  0  0  0  0
    0.8310    1.5481    0.0000 C   0  0  0  0  0  0  0  0  0  0  0  0
    1.3767    2.1669    0.0000 C   0  0  0  0  0  0  0  0  0  0  0  0
    2.1854    2.0038    0.0000 C   0  0  0  0  0  0  0  0  0  0  0  0
    2.4485    1.2219    0.0000 C   0  0  0  0  0  0  0  0  0  0  0  0
    1.9028    0.6031    0.0000 C   0  0  0  0  0  0  0  0  0  0  0  0
    0.0221    1.7113    0.0000 N   0  0  0  0  0  0  0  0  0  0  0  0
   -0.3976    2.4215    0.0000 C   0  0  0  0  0  0  0  0  0  0  0  0
   -1.2225    2.4129    0.0000 C   0  0  0  0  0  0  0  0  0  0  0  0
   -1.6274    1.6942    0.0000 N   0  0  0  0  0  0  0  0  0  0  0  0
   -2.4328    1.5143    0.0000 C   0  0  0  0  0  0  0  0  0  0  0  0
   -2.6796    0.7271    0.0000 C   0  0  0  0  0  0  0  0  0  0  0  0
   -3.4846    0.5472    0.0000 C   0  0  0  0  0  0  0  0  0  0  0  0
   -4.0430    1.1545    0.0000 C   0  0  0  0  0  0  0  0  0  0  0  0
   -3.7963    1.9417    0.0000 C   0  0  0  0  0  0  0  0  0  0  0  0
   -2.9910    2.1215    0.0000 C   0  0  0  0  0  0  0  0  0  0  0  0
   -2.1210    0.1198    0.0000 N   0  0  0  0  0  0  0  0  0  0  0  0
   -2.1988   -0.7015    0.0000 C   0  0  0  0  0  0  0  0  0  0  0  0
   -1.5265   -1.1794    0.0000 C   0  0  0  0  0  0  0  0  0  0  0  0
   -0.0191   -1.1637    0.0000 C   0  0  0  0  0  0  0  0  0  0  0  0
    4.0430   -0.4199    0.0000 Cl  0  0  0  0  0  0  0  0  0  0  0  0
   -0.9247    0.6450    0.0000 Mn  0  0  0  0  0 15  0  0  0  0  0  0
    4.0430   -0.4199    0.0000 Cl  0  0  0  0  0  0  0  0  0  0  0  0
  1 26  2  0
  2  1  1  0
  3  2  2  0
  3 25  1  0
  4 25  2  0
  5  6  1  0
  5 26  1  0
  7  6  1  0
  7 12  1  6
  8  7  1  0
  8 13  1  0
  8  9  1  1
 10  9  1  0
 11 10  1  0
 12 11  1  0
 13 14  1  0
 14 15  1  0
 15 16  1  0
 17 16  1  0
 17 22  1  6
 18 17  1  0
 18 23  1  0
 18 19  1  1
 20 19  1  0
 21 20  1  0
 22 21  1  0
 23 24  1  0
 24 25  1  0
 26  4  1  0
M  CHG  3  27  -1  28   2  29  -1
M  END
>  <DRUGBANK_ID>  (1) 
DB16354

>  <COMMON_NAME>  (1) 
Avasopasem manganese

>  <CAS_NUMBER>  (1) 
435327-40-5

>  <UNII>  (1) 
EY1WA413UL

>  <SYNONYMS>  (1) 
Avasopasem manganese

$$$$
