
     RDKit          2D

 32 33  0  0  1  0  0  0  0  0999 V2000
    9.9085   -6.2161    0.0000 C   0  0  0  0  0  0  0  0  0  0  0  0
    9.3684   -5.5924    0.0000 C   0  0  0  0  0  0  0  0  0  0  0  0
    8.5582   -5.7483    0.0000 C   0  0  0  0  0  0  0  0  0  0  0  0
    9.6384   -4.8129    0.0000 O   0  0  0  0  0  0  0  0  0  0  0  0
    9.0983   -4.1892    0.0000 C   0  0  0  0  0  0  0  0  0  0  0  0
    8.2882   -4.3451    0.0000 O   0  0  0  0  0  0  0  0  0  0  0  0
    9.3684   -3.4097    0.0000 C   0  0  0  0  0  0  0  0  0  0  0  0
    8.8283   -2.7860    0.0000 C   0  0  0  0  0  0  0  0  0  0  0  0
    8.0181   -2.9419    0.0000 C   0  0  0  0  0  0  0  0  0  0  0  0
    7.4781   -2.3183    0.0000 C   0  0  0  0  0  0  0  0  0  0  0  0
    6.6679   -2.4742    0.0000 O   0  0  0  0  0  0  0  0  0  0  0  0
    7.7481   -1.5388    0.0000 C   0  0  0  0  0  0  0  0  0  0  0  0
    7.2080   -0.9151    0.0000 N   0  0  0  0  0  0  0  0  0  0  0  0
    6.6679   -0.2915    0.0000 N   0  0  0  0  0  0  0  0  0  0  0  0
   10.1785   -3.2538    0.0000 N   0  0  0  0  0  0  0  0  0  0  0  0
   10.7186   -3.8774    0.0000 C   0  0  0  0  0  0  0  0  0  0  0  0
   10.4485   -4.6570    0.0000 O   0  0  0  0  0  0  0  0  0  0  0  0
   11.5287   -3.7215    0.0000 C   0  0  0  0  0  0  0  0  0  0  0  0
   12.0688   -4.3451    0.0000 C   0  0  0  0  0  0  0  0  0  0  0  0
   12.8789   -4.1892    0.0000 C   0  0  0  0  0  0  0  0  0  0  0  0
   13.2290   -3.4422    0.0000 C   0  0  0  0  0  0  0  0  0  0  0  0
   14.0477   -3.5442    0.0000 N   0  0  0  0  0  0  0  0  0  0  0  0
   14.2036   -4.3544    0.0000 C   0  0  0  0  0  0  0  0  0  0  0  0
   14.9099   -4.7806    0.0000 C   0  0  0  0  0  0  0  0  0  0  0  0
   14.8940   -5.6054    0.0000 C   0  0  0  0  0  0  0  0  0  0  0  0
   14.1717   -6.0041    0.0000 C   0  0  0  0  0  0  0  0  0  0  0  0
   13.4653   -5.5778    0.0000 C   0  0  0  0  0  0  0  0  0  0  0  0
   13.4813   -4.7530    0.0000 C   0  0  0  0  0  0  0  0  0  0  0  0
   11.7988   -2.9419    0.0000 N   0  0  0  0  0  0  0  0  0  0  0  0
   11.2587   -2.3183    0.0000 C   0  0  0  0  0  0  0  0  0  0  0  0
   10.4485   -2.4742    0.0000 C   0  0  0  0  0  0  0  0  0  0  0  0
   11.5287   -1.5388    0.0000 O   0  0  0  0  0  0  0  0  0  0  0  0
  1  2  1  0
  2  3  1  0
  2  4  1  0
  4  5  1  0
  5  6  2  0
  7  5  1  0
  7  8  1  6
  7 15  1  0
  8  9  1  0
  9 10  1  0
 10 11  2  0
 10 12  1  0
 12 13  2  0
 13 14  2  0
 15 16  1  0
 16 17  2  0
 18 16  1  0
 18 19  1  1
 18 29  1  0
 19 20  1  0
 20 21  2  0
 20 28  1  0
 21 22  1  0
 22 23  1  0
 23 24  1  0
 23 28  2  0
 24 25  2  0
 25 26  1  0
 26 27  2  0
 27 28  1  0
 29 30  1  0
 30 31  1  0
 30 32  2  0
M  CHG  2  13   1  14  -1
M  END
>  <DRUGBANK_ID>  (1) 
DB17536

>  <COMMON_NAME>  (1) 
Sirpiglenastat

>  <CAS_NUMBER>  (1) 
2079939-05-0

>  <UNII>  (1) 
9GGE6A0ZMK

>  <SYNONYMS>  (1) 
(-)-sirpiglenastat; (s)-isopropyl 2-((s)-2-acetamido-3-(1h-indol-3-yl)propanamido)-6-diazo-5-oxohexanoate; L-norleucine, n-acetyl-l-tryptophyl-6-diazo-5-oxo-, 1-methylethyl ester; Propan-2-yl (2s)-2-((n-acetyl-l-tryptophyl)amino)-6-diazo-5-oxohexanoate

$$$$
