FDN
     RDKit          2D

 23 25  0  0  0  0  0  0  0  0999 V2000
    0.3443    1.8972    0.0000 F   0  0  0  0  0  0  0  0  0  0  0  0
    1.1512    1.7257    0.0000 C   0  0  0  0  0  0  0  0  0  0  0  0
    1.7033    2.3388    0.0000 C   0  0  0  0  0  0  0  0  0  0  0  0
    2.5102    2.1673    0.0000 C   0  0  0  0  0  0  0  0  0  0  0  0
    3.0623    2.7803    0.0000 F   0  0  0  0  0  0  0  0  0  0  0  0
    2.7652    1.3826    0.0000 C   0  0  0  0  0  0  0  0  0  0  0  0
    2.2132    0.7695    0.0000 C   0  0  0  0  0  0  0  0  0  0  0  0
    1.4062    0.9411    0.0000 C   0  0  0  0  0  0  0  0  0  0  0  0
    0.8541    0.3280    0.0000 C   0  0  0  0  0  0  0  0  0  0  0  0
    0.3021    0.9411    0.0000 C   0  0  0  0  0  0  0  0  0  0  0  0
    1.5216   -0.1570    0.0000 O   0  0  0  0  0  0  0  0  0  0  0  0
    1.2666   -0.9416    0.0000 C   0  0  0  0  0  0  0  0  0  0  0  0
    1.7516   -1.6090    0.0000 O   0  0  0  0  0  0  0  0  0  0  0  0
    0.4416   -0.9416    0.0000 N   0  0  0  0  0  0  0  0  0  0  0  0
    0.1867   -0.1570    0.0000 C   0  0  0  0  0  0  0  0  0  0  0  0
   -0.5979    0.0980    0.0000 O   0  0  0  0  0  0  0  0  0  0  0  0
   -0.0433   -1.6090    0.0000 N   0  0  0  0  0  0  0  0  0  0  0  0
   -0.8638   -1.5228    0.0000 C   0  0  0  0  0  0  0  0  0  0  0  0
   -1.3487   -2.1902    0.0000 C   0  0  0  0  0  0  0  0  0  0  0  0
   -2.1692   -2.1040    0.0000 C   0  0  0  0  0  0  0  0  0  0  0  0
   -2.5047   -1.3503    0.0000 C   0  0  0  0  0  0  0  0  0  0  0  0
   -2.0198   -0.6829    0.0000 C   0  0  0  0  0  0  0  0  0  0  0  0
   -1.1993   -0.7691    0.0000 C   0  0  0  0  0  0  0  0  0  0  0  0
  1  2  1  0
  2  3  2  0
  2  8  1  0
  3  4  1  0
  4  5  1  0
  4  6  2  0
  6  7  1  0
  7  8  2  0
  9  8  1  0
  9 10  1  1
  9 11  1  0
  9 15  1  0
 11 12  1  0
 12 13  2  0
 12 14  1  0
 14 15  1  0
 14 17  1  0
 15 16  2  0
 17 18  1  0
 18 19  2  0
 18 23  1  0
 19 20  1  0
 20 21  2  0
 21 22  1  0
 22 23  2  0
M  END
>  <DRUGBANK_ID>  (1) 
DB07763

>  <COMMON_NAME>  (1) 
(5S)-3-ANILINO-5-(2,4-DIFLUOROPHENYL)-5-METHYL-1,3-OXAZOLIDINE-2,4-DIONE

$$$$
