1BD
     RDKit          2D

 18 18  0  0  0  0  0  0  0  0999 V2000
   -1.7607   -1.0930    0.0000 C   0  0  0  0  0  0  0  0  0  0  0  0
   -1.0462   -0.6805    0.0000 C   0  0  0  0  0  0  0  0  0  0  0  0
   -1.0462    0.1445    0.0000 C   0  0  0  0  0  0  0  0  0  0  0  0
   -1.7607    0.5570    0.0000 C   0  0  0  0  0  0  0  0  0  0  0  0
   -2.4752    0.1445    0.0000 C   0  0  0  0  0  0  0  0  0  0  0  0
   -2.4752   -0.6805    0.0000 C   0  0  0  0  0  0  0  0  0  0  0  0
   -0.3318    0.5570    0.0000 C   0  0  0  0  0  0  0  0  0  0  0  0
    0.3827    0.1445    0.0000 N   0  0  0  0  0  0  0  0  0  0  0  0
    1.0972    0.5570    0.0000 O   0  0  0  0  0  0  0  0  0  0  0  0
    1.8116    0.1445    0.0000 C   0  0  0  0  0  0  0  0  0  0  0  0
    2.5261    0.5570    0.0000 C   0  0  0  0  0  0  0  0  0  0  0  0
    3.2406    0.1445    0.0000 C   0  0  0  0  0  0  0  0  0  0  0  0
    3.9551    0.5570    0.0000 O   0  0  0  0  0  0  0  0  0  0  0  0
    3.2406   -0.6805    0.0000 O   0  0  0  0  0  0  0  0  0  0  0  0
   -1.7607    1.3820    0.0000 C   0  0  0  0  0  0  0  0  0  0  0  0
   -2.5857    1.3820    0.0000 F   0  0  0  0  0  0  0  0  0  0  0  0
   -1.7607    2.2070    0.0000 F   0  0  0  0  0  0  0  0  0  0  0  0
   -0.9357    1.3820    0.0000 F   0  0  0  0  0  0  0  0  0  0  0  0
  1  6  2  0
  2  1  1  0
  3  2  2  0
  3  4  1  0
  4  5  2  0
  5  6  1  0
  7  3  1  0
  8  7  2  0
  9  8  1  0
 10  9  1  0
 11 10  1  0
 12 11  1  0
 13 12  2  0
 14 12  1  0
 15  4  1  0
 15 17  1  0
 16 15  1  0
 18 15  1  0
M  END
>  <DRUGBANK_ID>  (1) 
DB06885

>  <COMMON_NAME>  (1) 
3-[({(1E)-[2-(trifluoromethyl)phenyl]methylidene}amino)oxy]propanoic acid

$$$$
