
     RDKit          2D

 21 22  0  0  0  0  0  0  0  0999 V2000
   -0.4564   -2.4561    0.0000 O   0  0  0  0  0  0  0  0  0  0  0  0
   -0.7933   -1.7009    0.0000 C   0  0  0  0  0  0  0  0  0  0  0  0
   -0.0760   -1.2933    0.0000 C   0  0  0  0  0  0  0  0  0  0  0  0
    0.7444   -1.2064    0.0000 C   0  0  0  0  0  0  0  0  0  0  0  0
    1.0759   -0.4510    0.0000 O   0  0  0  0  0  0  0  0  0  0  0  0
    1.8964   -0.3640    0.0000 P   0  0  0  0  0  0  0  0  0  0  0  0
    1.9834   -1.1846    0.0000 O   0  0  0  0  0  0  0  0  0  0  0  0
    1.8094    0.4564    0.0000 O   0  0  0  0  0  0  0  0  0  0  0  0
    2.7170   -0.2771    0.0000 O   0  0  0  0  0  0  0  0  0  0  0  0
   -0.2499   -0.4836    0.0000 O   0  0  0  0  0  0  0  0  0  0  0  0
   -1.0704   -0.3967    0.0000 C   0  0  0  0  0  0  0  0  0  0  0  0
   -1.4019   -1.1519    0.0000 C   0  0  0  0  0  0  0  0  0  0  0  0
   -2.0160   -1.7009    0.0000 O   0  0  0  0  0  0  0  0  0  0  0  0
   -1.4780    0.3151    0.0000 N   0  0  0  0  0  0  0  0  0  0  0  0
   -1.0704    1.0269    0.0000 N   0  0  0  0  0  0  0  0  0  0  0  0
   -1.4780    1.7443    0.0000 C   0  0  0  0  0  0  0  0  0  0  0  0
   -2.3040    1.7443    0.0000 C   0  0  0  0  0  0  0  0  0  0  0  0
   -2.7170    2.4561    0.0000 O   0  0  0  0  0  0  0  0  0  0  0  0
   -2.7170    1.0269    0.0000 N   0  0  0  0  0  0  0  0  0  0  0  0
   -2.3040    0.3151    0.0000 C   0  0  0  0  0  0  0  0  0  0  0  0
   -2.7170   -0.3967    0.0000 O   0  0  0  0  0  0  0  0  0  0  0  0
  2  1  1  1
  2  3  1  0
  2 12  1  0
  3  4  1  6
  3 10  1  0
  4  5  1  0
  5  6  1  0
  6  7  1  0
  6  8  1  0
  6  9  2  0
 10 11  1  0
 11 12  1  0
 11 14  1  6
 12 13  1  1
 14 15  1  0
 14 20  1  0
 15 16  2  0
 16 17  1  0
 17 18  2  0
 17 19  1  0
 19 20  1  0
 20 21  2  0
M  END
>  <DRUGBANK_ID>  (1) 
DB03718

>  <SECONDARY_ACCESSION_NUMBERS>  (1) 
EXPT03195

>  <COMMON_NAME>  (1) 
6-aza uridine 5'-monophosphate

>  <CAS_NUMBER>  (1) 
2018-19-1

>  <SYNONYMS>  (1) 
6-Aza-UMP; 6-Aza-Uridine Monophosphate; 6-Azauridine-5'-monophosphate

$$$$
