
     RDKit          2D

 31 36  0  0  0  0  0  0  0  0999 V2000
   -3.4568   -1.8848    0.0000 C   0  0  0  0  0  0  0  0  0  0  0  0
   -3.4568   -1.0598    0.0000 C   0  0  0  0  0  0  0  0  0  0  0  0
   -2.7452   -0.6473    0.0000 C   0  0  0  0  0  0  0  0  0  0  0  0
   -2.7451   -2.2973    0.0000 C   0  0  0  0  0  0  0  0  0  0  0  0
   -2.0293   -1.8848    0.0000 C   0  0  0  0  0  0  0  0  0  0  0  0
   -1.3134   -2.2973    0.0000 C   0  0  0  0  0  0  0  0  0  0  0  0
   -0.5976   -1.8848    0.0000 C   0  0  0  0  0  0  0  0  0  0  0  0
   -0.5976   -1.0598    0.0000 C   0  0  0  0  0  0  0  0  0  0  0  0
    0.1140   -0.6473    0.0000 C   0  0  0  0  0  0  0  0  0  0  0  0
    0.8987   -0.9044    0.0000 C   0  0  0  0  0  0  0  0  0  0  0  0
    1.3834   -0.2348    0.0000 C   0  0  0  0  0  0  0  0  0  0  0  0
    2.1681    0.0181    0.0000 O   0  0  0  0  0  0  0  0  0  0  0  0
    0.8987    0.4306    0.0000 C   0  0  0  0  0  0  0  0  0  0  0  0
    1.3834    1.1002    0.0000 C   0  0  0  0  0  0  0  0  0  0  0  0
    2.1681    0.8431    0.0000 C   0  0  0  0  0  0  0  0  0  0  0  0
    2.9225    0.5097    0.0000 O   0  0  0  0  0  0  0  0  0  0  0  0
    2.0833    1.6654    0.0000 C   0  0  0  0  0  0  0  0  0  0  0  0
    2.7529    2.1501    0.0000 C   0  0  0  0  0  0  0  0  0  0  0  0
    3.5031    1.8125    0.0000 C   0  0  0  0  0  0  0  0  0  0  0  0
    3.5880    0.9944    0.0000 C   0  0  0  0  0  0  0  0  0  0  0  0
    4.1727    2.2973    0.0000 C   0  0  0  0  0  0  0  0  0  0  0  0
    1.1305    1.8848    0.0000 C   0  0  0  0  0  0  0  0  0  0  0  0
    0.1140    0.1776    0.0000 C   0  0  0  0  0  0  0  0  0  0  0  0
   -0.0692    1.1193    0.0000 C   0  0  0  0  0  0  0  0  0  0  0  0
   -0.5976    0.5901    0.0000 C   0  0  0  0  0  0  0  0  0  0  0  0
   -1.3134    0.1776    0.0000 C   0  0  0  0  0  0  0  0  0  0  0  0
   -1.3134   -0.6473    0.0000 C   0  0  0  0  0  0  0  0  0  0  0  0
   -2.0293   -1.0598    0.0000 C   0  0  0  0  0  0  0  0  0  0  0  0
   -2.0293   -0.2348    0.0000 C   0  0  0  0  0  0  0  0  0  0  0  0
   -2.7452    0.1776    0.0000 O   0  0  0  0  0  0  0  0  0  0  0  0
   -4.1727   -2.2973    0.0000 O   0  0  0  0  0  0  0  0  0  0  0  0
  1  2  1  0
  1  4  1  0
  1 31  1  1
  2  3  1  0
  3 28  1  0
  3 30  1  1
  4  5  1  0
  5  6  2  0
  5 28  1  0
  6  7  1  0
  8  7  1  6
  8  9  1  0
  8 27  1  0
  9 10  1  1
  9 23  1  0
 11 10  1  1
 11 12  1  0
 13 11  1  1
 13 14  1  0
 13 23  1  0
 14 15  1  0
 14 22  1  6
 15 12  1  0
 15 16  1  0
 15 17  1  1
 16 20  1  0
 17 18  1  0
 18 19  1  0
 19 20  1  0
 19 21  1  1
 23 24  1  1
 23 25  1  0
 25 26  1  0
 27 26  1  1
 27 28  1  0
 28 29  1  1
M  END
>  <DRUGBANK_ID>  (1) 
DB15830

>  <COMMON_NAME>  (1) 
Ruscogenin

>  <CAS_NUMBER>  (1) 
472-11-7

>  <UNII>  (1) 
BXI92R2VUJ

$$$$
