
     RDKit          2D

 10  9  0  0  0  0  0  0  0  0999 V2000
    2.2539    3.3000    0.0000 C   0  0  0  0  0  0  0  0  0  0  0  0
    0.8250   -0.8250    0.0000 C   0  0  0  0  0  0  0  0  0  0  0  0
    1.6500    0.0000    0.0000 C   0  0  0  0  0  0  0  0  0  0  0  0
    1.5395    1.2375    0.0000 C   0  0  0  0  0  0  0  0  0  0  0  0
    1.5395    2.0625    0.0000 C   0  0  0  0  0  0  0  0  0  0  0  0
    0.8250    0.8250    0.0000 C   0  0  0  0  0  0  0  0  0  0  0  0
    2.2539    2.4750    0.0000 C   0  0  0  0  0  0  0  0  0  0  0  0
    0.8250    0.0000    0.0000 C   0  0  0  0  0  0  0  0  0  0  0  0
    2.9684    2.0625    0.0000 N   0  0  0  0  0  0  0  0  0  0  0  0
    0.0000    0.0000    0.0000 O   0  0  0  0  0  0  0  0  0  0  0  0
  5  4  1  0
  6  4  1  0
  7  1  1  0
  7  5  1  0
  8  2  1  0
  8  3  1  0
  8  6  1  0
  9  7  1  0
 10  8  1  0
M  END
>  <DRUGBANK_ID>  (1) 
DB13574

>  <COMMON_NAME>  (1) 
Heptaminol

>  <CAS_NUMBER>  (1) 
372-66-7

>  <UNII>  (1) 
3DQS188SY5

>  <SYNONYMS>  (1) 
Heptaminol

$$$$
