
     RDKit          2D

 32 34  0  0  0  0  0  0  0  0999 V2000
    0.0288    3.7827    0.0000 C   0  0  0  0  0  0  0  0  0  0  0  0
   -0.6856    3.3702    0.0000 C   0  0  0  0  0  0  0  0  0  0  0  0
   -0.6856    2.5452    0.0000 C   0  0  0  0  0  0  0  0  0  0  0  0
    0.0288    2.1327    0.0000 C   0  0  0  0  0  0  0  0  0  0  0  0
    0.7433    2.5452    0.0000 C   0  0  0  0  0  0  0  0  0  0  0  0
    0.7433    3.3702    0.0000 C   0  0  0  0  0  0  0  0  0  0  0  0
    0.0288    4.6076    0.0000 Cl  0  0  0  0  0  0  0  0  0  0  0  0
    0.0288    1.3076    0.0000 C   0  0  0  0  0  0  0  0  0  0  0  0
   -0.6856    0.8951    0.0000 N   0  0  0  0  0  0  0  0  0  0  0  0
   -0.6856    0.0702    0.0000 C   0  0  0  0  0  0  0  0  0  0  0  0
   -1.4001    1.3076    0.0000 C   0  0  0  0  0  0  0  0  0  0  0  0
   -2.1146    0.8951    0.0000 C   0  0  0  0  0  0  0  0  0  0  0  0
   -2.8682    1.2308    0.0000 S   0  0  0  0  0  0  0  0  0  0  0  0
   -3.4202    0.6176    0.0000 C   0  0  0  0  0  0  0  0  0  0  0  0
   -3.0077   -0.0967    0.0000 C   0  0  0  0  0  0  0  0  0  0  0  0
   -2.2008    0.0747    0.0000 C   0  0  0  0  0  0  0  0  0  0  0  0
   -4.2407    0.7039    0.0000 N   0  0  0  0  0  0  0  0  0  0  0  0
   -4.7256    0.0365    0.0000 O   0  0  0  0  0  0  0  0  0  0  0  0
   -4.5763    1.4576    0.0000 O   0  0  0  0  0  0  0  0  0  0  0  0
    0.0288   -0.3422    0.0000 C   0  0  0  0  0  0  0  0  0  0  0  0
    0.1150   -1.1627    0.0000 C   0  0  0  0  0  0  0  0  0  0  0  0
    0.9219   -1.3342    0.0000 N   0  0  0  0  0  0  0  0  0  0  0  0
    1.3344   -0.6198    0.0000 C   0  0  0  0  0  0  0  0  0  0  0  0
    0.7824   -0.0066    0.0000 C   0  0  0  0  0  0  0  0  0  0  0  0
    1.2575   -2.0879    0.0000 C   0  0  0  0  0  0  0  0  0  0  0  0
    0.7726   -2.7554    0.0000 O   0  0  0  0  0  0  0  0  0  0  0  0
    2.0780   -2.1742    0.0000 N   0  0  0  0  0  0  0  0  0  0  0  0
    2.4135   -2.9278    0.0000 C   0  0  0  0  0  0  0  0  0  0  0  0
    3.2340   -3.0140    0.0000 C   0  0  0  0  0  0  0  0  0  0  0  0
    3.5696   -3.7677    0.0000 C   0  0  0  0  0  0  0  0  0  0  0  0
    4.3901   -3.8540    0.0000 C   0  0  0  0  0  0  0  0  0  0  0  0
    4.7256   -4.6077    0.0000 C   0  0  0  0  0  0  0  0  0  0  0  0
  1  2  2  0
  1  6  1  0
  1  7  1  0
  2  3  1  0
  3  4  2  0
  4  5  1  0
  4  8  1  0
  5  6  2  0
  8  9  1  0
  9 10  1  0
  9 11  1  0
 10 20  1  0
 11 12  1  0
 12 13  1  0
 12 16  2  0
 13 14  1  0
 14 15  2  0
 14 17  1  0
 15 16  1  0
 17 18  1  0
 17 19  2  0
 20 21  1  0
 20 24  1  0
 21 22  1  0
 22 23  1  0
 22 25  1  0
 23 24  1  0
 25 26  2  0
 25 27  1  0
 27 28  1  0
 28 29  1  0
 29 30  1  0
 30 31  1  0
 31 32  1  0
M  CHG  2  17   1  18  -1
M  END
>  <DRUGBANK_ID>  (1) 
DB14014

>  <COMMON_NAME>  (1) 
SR-9011

>  <CAS_NUMBER>  (1) 
1379686-29-9

>  <UNII>  (1) 
VYI79FLZ6W

>  <SYNONYMS>  (1) 
1-Pyrrolidinecarboxamide, 3-((((4-chlorophenyl)methyl)((5-nitro-2-thienyl)methyl)amino)methyl)-n-pentyl-

$$$$
