
     RDKit          2D

 10 10  0  0  1  0  0  0  0  0999 V2000
   -0.7145    1.2375    0.0000 C   0  0  0  0  0  0  0  0  0  0  0  0
    1.4289    0.8250    0.0000 C   0  0  0  0  0  0  0  0  0  0  0  0
    0.0000    0.8250    0.0000 C   0  0  0  0  0  0  0  0  0  0  0  0
    0.7145    1.2375    0.0000 C   0  0  0  0  0  0  0  0  0  0  0  0
    1.4289   -0.0000    0.0000 C   0  0  0  0  0  0  0  0  0  0  0  0
    0.7145   -0.4125    0.0000 C   0  0  0  0  0  0  0  0  0  0  0  0
    0.7145    2.0625    0.0000 O   0  0  0  0  0  0  0  0  0  0  0  0
    2.1434   -0.4125    0.0000 O   0  0  0  0  0  0  0  0  0  0  0  0
    0.7145   -1.2375    0.0000 O   0  0  0  0  0  0  0  0  0  0  0  0
    0.0000    0.0000    0.0000 O   0  0  0  0  0  0  0  0  0  0  0  0
  3  1  1  6
  4  2  1  0
  4  3  1  0
  4  7  1  1
  5  2  1  0
  5  8  1  6
  6  5  1  0
  6  9  1  1
 10  3  1  0
 10  6  1  0
M  END
>  <DRUGBANK_ID>  (1) 
DB04028

>  <SECONDARY_ACCESSION_NUMBERS>  (1) 
EXPT03143

>  <COMMON_NAME>  (1) 
Tyvelose

>  <CAS_NUMBER>  (1) 
5658-12-8

>  <SYNONYMS>  (1) 
3,6-dideoxy-α-D-arabino-hexopyranose; α-Tyv; α-tyvelopyranose

$$$$
