
     RDKit          2D

 25 24  0  0  0  0  0  0  0  0999 V2000
   -8.2164    0.2062    0.0000 C   0  0  0  0  0  0  0  0  0  0  0  0
    8.2164    0.6187    0.0000 C   0  0  0  0  0  0  0  0  0  0  0  0
   -7.5019    0.6187    0.0000 C   0  0  0  0  0  0  0  0  0  0  0  0
    7.5019    0.2062    0.0000 C   0  0  0  0  0  0  0  0  0  0  0  0
   -6.7874    0.2062    0.0000 C   0  0  0  0  0  0  0  0  0  0  0  0
    6.7874    0.6187    0.0000 C   0  0  0  0  0  0  0  0  0  0  0  0
   -6.0730    0.6187    0.0000 C   0  0  0  0  0  0  0  0  0  0  0  0
    6.0730    0.2062    0.0000 C   0  0  0  0  0  0  0  0  0  0  0  0
   -5.3585    0.2062    0.0000 C   0  0  0  0  0  0  0  0  0  0  0  0
   -4.6440    0.6187    0.0000 C   0  0  0  0  0  0  0  0  0  0  0  0
   -3.9295    0.2062    0.0000 C   0  0  0  0  0  0  0  0  0  0  0  0
   -3.2151    0.6187    0.0000 C   0  0  0  0  0  0  0  0  0  0  0  0
   -2.5006    0.2062    0.0000 C   0  0  0  0  0  0  0  0  0  0  0  0
   -1.7861    0.6187    0.0000 C   0  0  0  0  0  0  0  0  0  0  0  0
   -1.0717    0.2062    0.0000 C   0  0  0  0  0  0  0  0  0  0  0  0
   -0.3572    0.6187    0.0000 C   0  0  0  0  0  0  0  0  0  0  0  0
    5.3585    0.6187    0.0000 C   0  0  0  0  0  0  0  0  0  0  0  0
    0.3572    0.2062    0.0000 C   0  0  0  0  0  0  0  0  0  0  0  0
    4.6440    0.2062    0.0000 C   0  0  0  0  0  0  0  0  0  0  0  0
    1.0717    0.6187    0.0000 C   0  0  0  0  0  0  0  0  0  0  0  0
    3.9295    0.6187    0.0000 C   0  0  0  0  0  0  0  0  0  0  0  0
    1.7861    0.2062    0.0000 C   0  0  0  0  0  0  0  0  0  0  0  0
    3.2151    0.2062    0.0000 C   0  0  0  0  0  0  0  0  0  0  0  0
    3.2151   -0.6187    0.0000 O   0  0  0  0  0  0  0  0  0  0  0  0
    2.5006    0.6187    0.0000 O   0  0  0  0  0  0  0  0  0  0  0  0
  3  1  1  0
  4  2  1  0
  5  3  1  0
  6  4  1  0
  7  5  1  0
  8  6  1  0
  9  7  1  0
 10  9  1  0
 11 10  1  0
 12 11  1  0
 13 12  1  0
 14 13  1  0
 15 14  1  0
 16 15  1  0
 17  8  1  0
 18 16  1  0
 19 17  1  0
 20 18  1  0
 21 19  1  0
 22 20  1  0
 23 21  1  0
 24 23  2  0
 25 22  1  0
 25 23  1  0
M  END
>  <DRUGBANK_ID>  (1) 
DB02425

>  <SECONDARY_ACCESSION_NUMBERS>  (1) 
EXPT00974

>  <COMMON_NAME>  (1) 
Hexadecyl Octanoate

>  <CAS_NUMBER>  (1) 
29710-31-4

>  <UNII>  (1) 
418Q5V6PLJ

>  <SYNONYMS>  (1) 
Caprylic acid, cetyl ester; Cetyl caprylate; Cetyl octanoate; Hexadecyl caprylate; Hexadecyl N-octanoate

$$$$
