
     RDKit          2D

 33 36  0  0  0  0  0  0  0  0999 V2000
   -2.0502   -1.0073    0.0000 C   0  0  0  0  0  0  0  0  0  0  0  0
    0.1190    0.1796    0.0000 C   0  0  0  0  0  0  0  0  0  0  0  0
   -2.0585   -1.8307    0.0000 C   0  0  0  0  0  0  0  0  0  0  0  0
    0.1150   -0.6437    0.0000 C   0  0  0  0  0  0  0  0  0  0  0  0
   -0.6122   -1.0407    0.0000 C   0  0  0  0  0  0  0  0  0  0  0  0
   -1.3270   -0.6103    0.0000 C   0  0  0  0  0  0  0  0  0  0  0  0
    0.8966    0.4220    0.0000 C   0  0  0  0  0  0  0  0  0  0  0  0
   -2.7690   -0.5767    0.0000 C   0  0  0  0  0  0  0  0  0  0  0  0
   -0.5997    0.6059    0.0000 C   0  0  0  0  0  0  0  0  0  0  0  0
   -1.3229    0.2132    0.0000 C   0  0  0  0  0  0  0  0  0  0  0  0
    0.8966   -0.9196    0.0000 C   0  0  0  0  0  0  0  0  0  0  0  0
    1.3897   -0.2633    0.0000 C   0  0  0  0  0  0  0  0  0  0  0  0
   -0.6165   -1.8643    0.0000 C   0  0  0  0  0  0  0  0  0  0  0  0
   -1.3395   -2.2613    0.0000 C   0  0  0  0  0  0  0  0  0  0  0  0
   -2.7816   -2.2278    0.0000 C   0  0  0  0  0  0  0  0  0  0  0  0
    3.0450    2.3030    0.0000 C   0  0  0  0  0  0  0  0  0  0  0  0
   -3.4880   -0.9740    0.0000 C   0  0  0  0  0  0  0  0  0  0  0  0
    1.1724    1.2037    0.0000 C   0  0  0  0  0  0  0  0  0  0  0  0
   -3.4963   -1.7973    0.0000 C   0  0  0  0  0  0  0  0  0  0  0  0
    3.5967    1.6803    0.0000 C   0  0  0  0  0  0  0  0  0  0  0  0
    2.2467    2.1442    0.0000 O   0  0  0  0  0  0  0  0  0  0  0  0
    3.3167    3.0847    0.0000 O   0  0  0  0  0  0  0  0  0  0  0  0
    1.9708    1.3626    0.0000 C   0  0  0  0  0  0  0  0  0  0  0  0
    0.6166    1.8265    0.0000 O   0  0  0  0  0  0  0  0  0  0  0  0
   -4.2194   -2.1943    0.0000 O   0  0  0  0  0  0  0  0  0  0  0  0
   -2.0459   -0.1840    0.0000 C   0  0  0  0  0  0  0  0  0  0  0  0
    0.0773    1.0115    0.0000 C   0  0  0  0  0  0  0  0  0  0  0  0
   -1.3437   -3.0847    0.0000 F   0  0  0  0  0  0  0  0  0  0  0  0
   -2.0376    0.6436    0.0000 O   0  0  0  0  0  0  0  0  0  0  0  0
    2.2132   -0.2675    0.0000 C   0  0  0  0  0  0  0  0  0  0  0  0
    2.9740    1.1243    0.0000 C   0  0  0  0  0  0  0  0  0  0  0  0
    4.2194    2.2320    0.0000 C   0  0  0  0  0  0  0  0  0  0  0  0
    4.1484    1.0573    0.0000 C   0  0  0  0  0  0  0  0  0  0  0  0
  1 26  1  1
  2  9  1  0
  2 27  1  1
  2  4  1  0
  3  1  1  0
  4  5  1  0
  5  6  1  0
  5 13  1  6
  6  1  1  0
  7  2  1  0
  7 18  1  1
  8  1  1  0
  9 10  1  0
  6 10  1  1
 10 29  1  1
  4 11  1  1
 12 11  1  0
 12 30  1  6
 12  7  1  0
 13 14  1  0
 14  3  1  0
 14 28  1  6
 15  3  2  0
 16 21  1  0
 17  8  2  0
 17 19  1  0
 19 15  1  0
 20 16  1  0
 21 23  1  0
 22 16  2  0
 23 18  1  0
 24 18  2  0
 25 19  2  0
 31 20  1  0
 32 20  1  0
 33 20  1  0
M  END
>  <DRUGBANK_ID>  (1) 
DB15777

>  <COMMON_NAME>  (1) 
Fluocortolone pivalate

>  <CAS_NUMBER>  (1) 
29205-06-9

>  <UNII>  (1) 
9J8AL6K50Q

>  <SYNONYMS>  (1) 
Fluocortolone 21-pivalate; Fluocortolone trimethylacetate

$$$$
