
     RDKit          2D

 26 30  0  0  1  0  0  0  0  0999 V2000
    0.5343   -0.4663    0.0000 C   0  0  0  0  0  0  0  0  0  0  0  0
    1.8923   -2.5355    0.0000 C   0  0  0  0  0  0  0  0  0  0  0  0
    0.0817    0.2234    0.0000 C   0  0  0  0  0  0  0  0  0  0  0  0
    2.2633   -1.7987    0.0000 C   0  0  0  0  0  0  0  0  0  0  0  0
    4.3623    2.0281    0.0000 C   0  0  0  0  0  0  0  0  0  0  0  0
    4.3231    1.2040    0.0000 C   0  0  0  0  0  0  0  0  0  0  0  0
   -0.8237    1.6029    0.0000 C   0  0  0  0  0  0  0  0  0  0  0  0
    3.6683    2.4741    0.0000 C   0  0  0  0  0  0  0  0  0  0  0  0
    3.5899    0.8259    0.0000 C   0  0  0  0  0  0  0  0  0  0  0  0
    1.5656    3.1709    0.0000 C   0  0  0  0  0  0  0  0  0  0  0  0
   -0.3710    0.9131    0.0000 C   0  0  0  0  0  0  0  0  0  0  0  0
   -0.4527    2.3397    0.0000 C   0  0  0  0  0  0  0  0  0  0  0  0
    0.7420    3.1238    0.0000 C   0  0  0  0  0  0  0  0  0  0  0  0
    0.9053    0.2705    0.0000 C   0  0  0  0  0  0  0  0  0  0  0  0
    2.9350    2.0960    0.0000 C   0  0  0  0  0  0  0  0  0  0  0  0
    2.0183    2.4812    0.0000 C   0  0  0  0  0  0  0  0  0  0  0  0
    2.8958    1.2719    0.0000 C   0  0  0  0  0  0  0  0  0  0  0  0
    1.7290    0.3177    0.0000 C   0  0  0  0  0  0  0  0  0  0  0  0
    1.6473    1.7443    0.0000 C   0  0  0  0  0  0  0  0  0  0  0  0
    0.8237    1.6971    0.0000 C   0  0  0  0  0  0  0  0  0  0  0  0
    2.1816   -0.3720    0.0000 C   0  0  0  0  0  0  0  0  0  0  0  0
    0.4527    0.9603    0.0000 C   0  0  0  0  0  0  0  0  0  0  0  0
    0.3710    2.3869    0.0000 N   0  0  0  0  0  0  0  0  0  0  0  0
    2.1000    1.0546    0.0000 N   0  0  0  0  0  0  0  0  0  0  0  0
    3.0053   -0.3249    0.0000 O   0  0  0  0  0  0  0  0  0  0  0  0
    1.8106   -1.1089    0.0000 O   0  0  0  0  0  0  0  0  0  0  0  0
  3  1  1  0
  4  2  1  0
  6  5  2  0
  8  5  1  0
  9  6  1  0
 11  7  1  0
 12  7  1  0
 13 10  1  0
 15  8  2  0
 16 10  1  0
 16 15  1  0
 17  9  2  0
 17 15  1  0
 18 14  2  0
 19 16  2  0
 20 19  1  0
 21 18  1  0
 22  3  1  1
 22 11  1  0
 22 14  1  0
 22 20  1  0
 23 12  1  0
 23 13  1  0
 20 23  1  6
 24 17  1  0
 24 18  1  0
 24 19  1  0
 25 21  2  0
 26  4  1  0
 26 21  1  0
M  END
>  <DRUGBANK_ID>  (1) 
DB12131

>  <COMMON_NAME>  (1) 
Vinpocetine

>  <CAS_NUMBER>  (1) 
42971-09-5

>  <UNII>  (1) 
543512OBTC

>  <SYNONYMS>  (1) 
CERACTIN; ETHYL APOVINCAMIN-22-OATE; Vinpocetina; Vinpocetine

$$$$
