
     RDKit          2D

 41 45  0  0  1  0  0  0  0  0999 V2000
   10.4292   -6.1680    0.0000 O   0  0  0  0  0  0  0  0  0  0  0  0
   10.3307   -6.9871    0.0000 C   0  0  0  0  0  0  0  0  0  0  0  0
   10.9908   -7.4819    0.0000 O   0  0  0  0  0  0  0  0  0  0  0  0
    9.5721   -7.3113    0.0000 C   0  0  0  0  0  0  0  0  0  0  0  0
    9.4736   -8.1304    0.0000 N   0  0  0  0  0  0  0  0  0  0  0  0
   10.1688   -8.5746    0.0000 C   0  0  0  0  0  0  0  0  0  0  0  0
   10.8362   -8.0896    0.0000 C   0  0  0  0  0  0  0  0  0  0  0  0
   11.5899   -8.4252    0.0000 C   0  0  0  0  0  0  0  0  0  0  0  0
   11.6762   -9.2457    0.0000 C   0  0  0  0  0  0  0  0  0  0  0  0
   11.0087   -9.7306    0.0000 C   0  0  0  0  0  0  0  0  0  0  0  0
   10.2550   -9.3950    0.0000 C   0  0  0  0  0  0  0  0  0  0  0  0
    9.6673   -9.9740    0.0000 C   0  0  0  0  0  0  0  0  0  0  0  0
    8.8482   -9.8755    0.0000 C   0  0  0  0  0  0  0  0  0  0  0  0
    8.4145   -9.1737    0.0000 C   0  0  0  0  0  0  0  0  0  0  0  0
    7.5941   -9.2599    0.0000 N   0  0  0  0  0  0  0  0  0  0  0  0
    7.1091   -8.5925    0.0000 C   0  0  0  0  0  0  0  0  0  0  0  0
    7.4447   -7.8388    0.0000 O   0  0  0  0  0  0  0  0  0  0  0  0
    6.2887   -8.6787    0.0000 C   0  0  0  0  0  0  0  0  0  0  0  0
    6.2887   -7.8537    0.0000 C   0  0  0  0  0  0  0  0  0  0  0  0
    5.5742   -7.4412    0.0000 C   0  0  0  0  0  0  0  0  0  0  0  0
    5.5742   -6.6162    0.0000 C   0  0  0  0  0  0  0  0  0  0  0  0
    4.8597   -6.2037    0.0000 C   0  0  0  0  0  0  0  0  0  0  0  0
    4.8597   -5.3787    0.0000 C   0  0  0  0  0  0  0  0  0  0  0  0
    4.1452   -4.9662    0.0000 C   0  0  0  0  0  0  0  0  0  0  0  0
    4.1452   -4.1412    0.0000 C   0  0  0  0  0  0  0  0  0  0  0  0
    4.8597   -3.7287    0.0000 C   0  0  0  0  0  0  0  0  0  0  0  0
    5.5742   -4.1412    0.0000 C   0  0  0  0  0  0  0  0  0  0  0  0
    6.2887   -3.7287    0.0000 C   0  0  0  0  0  0  0  0  0  0  0  0
    7.0031   -4.1412    0.0000 C   0  0  0  0  0  0  0  0  0  0  0  0
    7.0031   -4.9662    0.0000 C   0  0  0  0  0  0  0  0  0  0  0  0
    6.2887   -5.3787    0.0000 C   0  0  0  0  0  0  0  0  0  0  0  0
    5.5742   -4.9662    0.0000 C   0  0  0  0  0  0  0  0  0  0  0  0
    4.8597   -7.8537    0.0000 C   0  0  0  0  0  0  0  0  0  0  0  0
    4.8597   -8.6787    0.0000 O   0  0  0  0  0  0  0  0  0  0  0  0
    4.1452   -7.4412    0.0000 O   0  0  0  0  0  0  0  0  0  0  0  0
    6.4602   -9.4857    0.0000 C   0  0  0  0  0  0  0  0  0  0  0  0
    5.7457   -9.8982    0.0000 C   0  0  0  0  0  0  0  0  0  0  0  0
    5.1326   -9.3462    0.0000 C   0  0  0  0  0  0  0  0  0  0  0  0
    5.4682   -8.5925    0.0000 C   0  0  0  0  0  0  0  0  0  0  0  0
    8.6928   -8.3971    0.0000 C   0  0  0  0  0  0  0  0  0  0  0  0
    8.1139   -7.8094    0.0000 O   0  0  0  0  0  0  0  0  0  0  0  0
  1  2  1  0
  2  3  2  0
  2  4  1  0
  4  5  1  0
  5  6  1  0
  5 40  1  0
  6  7  2  0
  6 11  1  0
  7  8  1  0
  8  9  2  0
  9 10  1  0
 10 11  2  0
 11 12  1  0
 12 13  1  0
 14 13  1  0
 14 15  1  6
 14 40  1  0
 15 16  1  0
 16 17  2  0
 16 18  1  0
 18 19  1  0
 18 36  1  0
 18 39  1  0
 20 19  1  6
 20 21  1  0
 20 33  1  0
 21 22  1  0
 22 23  1  0
 23 24  2  0
 23 32  1  0
 24 25  1  0
 25 26  2  0
 26 27  1  0
 27 28  1  0
 27 32  2  0
 28 29  2  0
 29 30  1  0
 30 31  2  0
 31 32  1  0
 33 34  1  0
 33 35  2  0
 36 37  1  0
 37 38  1  0
 38 39  1  0
 40 41  2  0
M  END
>  <DRUGBANK_ID>  (1) 
DB15356

>  <COMMON_NAME>  (1) 
SLV-334

>  <CAS_NUMBER>  (1) 
182821-33-6

>  <UNII>  (1) 
3613ZP748K

$$$$
