SX6
     RDKit          2D

 30 32  0  0  0  0  0  0  0  0999 V2000
   -3.3231   -0.0014    0.0000 O   0  0  0  0  0  0  0  0  0  0  0  0
   -3.3231   -0.8264    0.0000 C   0  0  0  0  0  0  0  0  0  0  0  0
   -4.0376   -1.2389    0.0000 N   0  0  0  0  0  0  0  0  0  0  0  0
   -4.7521   -0.8264    0.0000 C   0  0  0  0  0  0  0  0  0  0  0  0
   -5.4666   -1.2389    0.0000 C   0  0  0  0  0  0  0  0  0  0  0  0
   -5.4666   -2.0639    0.0000 O   0  0  0  0  0  0  0  0  0  0  0  0
   -4.7521   -2.4764    0.0000 C   0  0  0  0  0  0  0  0  0  0  0  0
   -4.0376   -2.0639    0.0000 C   0  0  0  0  0  0  0  0  0  0  0  0
   -2.6087   -1.2389    0.0000 C   0  0  0  0  0  0  0  0  0  0  0  0
   -1.8942   -0.8264    0.0000 C   0  0  0  0  0  0  0  0  0  0  0  0
   -1.1797   -1.2389    0.0000 C   0  0  0  0  0  0  0  0  0  0  0  0
   -1.1797   -2.0639    0.0000 O   0  0  0  0  0  0  0  0  0  0  0  0
   -0.4653   -0.8264    0.0000 N   0  0  0  0  0  0  0  0  0  0  0  0
    0.2492   -1.2389    0.0000 C   0  0  0  0  0  0  0  0  0  0  0  0
    0.2492   -2.0639    0.0000 C   0  0  0  0  0  0  0  0  0  0  0  0
    0.9637   -2.4764    0.0000 C   0  0  0  0  0  0  0  0  0  0  0  0
    1.6781   -2.0639    0.0000 C   0  0  0  0  0  0  0  0  0  0  0  0
    2.3926   -2.4764    0.0000 Br  0  0  0  0  0  0  0  0  0  0  0  0
    1.6781   -1.2389    0.0000 C   0  0  0  0  0  0  0  0  0  0  0  0
    0.9637   -0.8264    0.0000 C   0  0  0  0  0  0  0  0  0  0  0  0
    0.9637   -0.0014    0.0000 C   0  0  0  0  0  0  0  0  0  0  0  0
    0.2492    0.4111    0.0000 O   0  0  0  0  0  0  0  0  0  0  0  0
    1.6781    0.4111    0.0000 N   0  0  0  0  0  0  0  0  0  0  0  0
    2.3926   -0.0014    0.0000 C   0  0  0  0  0  0  0  0  0  0  0  0
    3.1071    0.4111    0.0000 C   0  0  0  0  0  0  0  0  0  0  0  0
    3.8216   -0.0014    0.0000 C   0  0  0  0  0  0  0  0  0  0  0  0
    3.1071    1.2361    0.0000 C   0  0  0  0  0  0  0  0  0  0  0  0
    1.6781    1.2361    0.0000 C   0  0  0  0  0  0  0  0  0  0  0  0
    2.3926    1.6486    0.0000 C   0  0  0  0  0  0  0  0  0  0  0  0
    2.3926    2.4736    0.0000 C   0  0  0  0  0  0  0  0  0  0  0  0
  1  2  2  0
  2  9  1  0
  3  2  1  0
  3  8  1  0
  4  3  1  0
  5  4  1  0
  5  6  1  0
  6  7  1  0
  7  8  1  0
  9 10  1  0
 10 11  1  0
 11 12  2  0
 13 11  1  0
 13 14  1  0
 14 20  1  0
 14 15  2  0
 15 16  1  0
 16 17  2  0
 17 18  1  0
 19 17  1  0
 20 19  2  0
 21 20  1  0
 21 23  1  0
 22 21  2  0
 23 28  1  0
 24 23  1  0
 24 25  1  0
 25 27  1  0
 25 26  1  6
 27 29  1  0
 28 29  1  0
 29 30  1  6
M  END
>  <DRUGBANK_ID>  (1) 
DB08582

>  <COMMON_NAME>  (1) 
N-(4-bromo-2-{[(3R,5S)-3,5-dimethylpiperidin-1-yl]carbonyl}phenyl)-4-morpholin-4-yl-4-oxobutanamide

$$$$
