DVP
     RDKit          2D

 32 35  0  0  0  0  0  0  0  0999 V2000
   -5.9113   -0.1479    0.0000 C   0  0  0  0  0  0  0  0  0  0  0  0
   -5.1968   -0.5604    0.0000 O   0  0  0  0  0  0  0  0  0  0  0  0
   -4.4823   -0.1479    0.0000 C   0  0  0  0  0  0  0  0  0  0  0  0
   -4.4823    0.6771    0.0000 O   0  0  0  0  0  0  0  0  0  0  0  0
   -3.7678   -0.5604    0.0000 C   0  0  0  0  0  0  0  0  0  0  0  0
   -3.0534   -0.1479    0.0000 C   0  0  0  0  0  0  0  0  0  0  0  0
   -2.3389   -0.5604    0.0000 C   0  0  0  0  0  0  0  0  0  0  0  0
   -3.7678   -1.3854    0.0000 C   0  0  0  0  0  0  0  0  0  0  0  0
   -3.0534   -1.7979    0.0000 C   0  0  0  0  0  0  0  0  0  0  0  0
   -2.3389   -1.3854    0.0000 N   0  0  0  0  0  0  0  0  0  0  0  0
   -1.6244   -1.7979    0.0000 C   0  0  0  0  0  0  0  0  0  0  0  0
   -1.6244   -2.6229    0.0000 O   0  0  0  0  0  0  0  0  0  0  0  0
   -0.9100   -1.3854    0.0000 C   0  0  0  0  0  0  0  0  0  0  0  0
   -0.9100   -0.5604    0.0000 C   0  0  0  0  0  0  0  0  0  0  0  0
   -0.1955   -0.1479    0.0000 C   0  0  0  0  0  0  0  0  0  0  0  0
   -0.1955   -1.7979    0.0000 C   0  0  0  0  0  0  0  0  0  0  0  0
    0.5190   -1.3854    0.0000 C   0  0  0  0  0  0  0  0  0  0  0  0
    0.5190   -0.5604    0.0000 C   0  0  0  0  0  0  0  0  0  0  0  0
    1.2335   -0.1479    0.0000 N   0  0  0  0  0  0  0  0  0  0  0  0
    1.2335    0.6771    0.0000 C   0  0  0  0  0  0  0  0  0  0  0  0
    1.9479    1.0896    0.0000 C   0  0  0  0  0  0  0  0  0  0  0  0
    1.9479    1.9146    0.0000 C   0  0  0  0  0  0  0  0  0  0  0  0
    2.6624    2.3271    0.0000 N   0  0  0  0  0  0  0  0  0  0  0  0
    3.3769    1.9146    0.0000 C   0  0  0  0  0  0  0  0  0  0  0  0
    4.0913    2.3271    0.0000 N   0  0  0  0  0  0  0  0  0  0  0  0
    4.8058    1.9146    0.0000 C   0  0  0  0  0  0  0  0  0  0  0  0
    5.5203    2.3271    0.0000 N   0  0  0  0  0  0  0  0  0  0  0  0
    4.8058    1.0896    0.0000 N   0  0  0  0  0  0  0  0  0  0  0  0
    4.0913    0.6771    0.0000 C   0  0  0  0  0  0  0  0  0  0  0  0
    4.0913   -0.1479    0.0000 N   0  0  0  0  0  0  0  0  0  0  0  0
    3.3769    1.0896    0.0000 C   0  0  0  0  0  0  0  0  0  0  0  0
    2.6624    0.6771    0.0000 N   0  0  0  0  0  0  0  0  0  0  0  0
  1  2  1  0
  2  3  1  0
  3  4  2  0
  3  5  1  0
  5  6  1  0
  5  8  1  0
  6  7  1  0
  7 10  1  0
  8  9  1  0
  9 10  1  0
 10 11  1  0
 11 12  2  0
 11 13  1  0
 13 14  2  0
 13 16  1  0
 14 15  1  0
 15 18  2  0
 16 17  2  0
 17 18  1  0
 18 19  1  0
 19 20  1  0
 20 21  1  0
 21 22  2  0
 21 32  1  0
 22 23  1  0
 23 24  2  0
 24 25  1  0
 24 31  1  0
 25 26  2  0
 26 27  1  0
 26 28  1  0
 28 29  2  0
 29 30  1  0
 29 31  1  0
 31 32  2  0
M  END
>  <DRUGBANK_ID>  (1) 
DB07689

>  <COMMON_NAME>  (1) 
METHYL 1-(4-{[(2,4-DIAMINOPTERIDIN-6-YL)METHYL]AMINO}BENZOYL)PIPERIDINE-4-CARBOXYLATE

$$$$
