B67
     RDKit          2D

 32 33  0  0  0  0  0  0  0  0999 V2000
   -2.4887    2.8878    0.0000 F   0  0  0  0  0  0  0  0  0  0  0  0
   -2.4887    2.0628    0.0000 C   0  0  0  0  0  0  0  0  0  0  0  0
   -3.3137    2.0628    0.0000 F   0  0  0  0  0  0  0  0  0  0  0  0
   -1.6637    2.0628    0.0000 F   0  0  0  0  0  0  0  0  0  0  0  0
   -2.4887    1.2378    0.0000 C   0  0  0  0  0  0  0  0  0  0  0  0
   -1.7742    0.8253    0.0000 C   0  0  0  0  0  0  0  0  0  0  0  0
   -3.2032    0.8253    0.0000 C   0  0  0  0  0  0  0  0  0  0  0  0
   -3.9176    1.2378    0.0000 N   0  0  0  0  0  0  0  0  0  0  0  0
   -4.6321    0.8253    0.0000 O   0  0  0  0  0  0  0  0  0  0  0  0
   -3.9176    2.0628    0.0000 O   0  0  0  0  0  0  0  0  0  0  0  0
   -3.2032    0.0003    0.0000 C   0  0  0  0  0  0  0  0  0  0  0  0
   -2.4887   -0.4122    0.0000 C   0  0  0  0  0  0  0  0  0  0  0  0
   -1.7742    0.0003    0.0000 C   0  0  0  0  0  0  0  0  0  0  0  0
   -1.0598   -0.4122    0.0000 N   0  0  0  0  0  0  0  0  0  0  0  0
   -0.3453    0.0003    0.0000 C   0  0  0  0  0  0  0  0  0  0  0  0
   -0.3453    0.8253    0.0000 O   0  0  0  0  0  0  0  0  0  0  0  0
    0.3692   -0.4122    0.0000 C   0  0  0  0  0  0  0  0  0  0  0  0
   -0.0433   -1.1266    0.0000 O   0  0  0  0  0  0  0  0  0  0  0  0
    0.7817    0.3023    0.0000 C   0  0  0  0  0  0  0  0  0  0  0  0
    1.0837   -0.8247    0.0000 C   0  0  0  0  0  0  0  0  0  0  0  0
    1.7981   -0.4122    0.0000 O   0  0  0  0  0  0  0  0  0  0  0  0
    2.5126   -0.8247    0.0000 C   0  0  0  0  0  0  0  0  0  0  0  0
    3.2271   -0.4122    0.0000 C   0  0  0  0  0  0  0  0  0  0  0  0
    3.2271    0.4128    0.0000 F   0  0  0  0  0  0  0  0  0  0  0  0
    3.9415   -0.8247    0.0000 C   0  0  0  0  0  0  0  0  0  0  0  0
    4.6560   -0.4122    0.0000 F   0  0  0  0  0  0  0  0  0  0  0  0
    3.9415   -1.6497    0.0000 C   0  0  0  0  0  0  0  0  0  0  0  0
    4.6560   -2.0622    0.0000 F   0  0  0  0  0  0  0  0  0  0  0  0
    3.2271   -2.0622    0.0000 C   0  0  0  0  0  0  0  0  0  0  0  0
    3.2271   -2.8872    0.0000 F   0  0  0  0  0  0  0  0  0  0  0  0
    2.5126   -1.6497    0.0000 C   0  0  0  0  0  0  0  0  0  0  0  0
    1.7981   -2.0622    0.0000 F   0  0  0  0  0  0  0  0  0  0  0  0
  1  2  1  0
  2  3  1  0
  2  4  1  0
  2  5  1  0
  5  6  2  0
  5  7  1  0
  6 13  1  0
  7  8  1  0
  7 11  2  0
  8  9  2  0
 10  8  1  0
 11 12  1  0
 12 13  2  0
 13 14  1  0
 14 15  1  0
 15 16  2  0
 17 15  1  0
 17 18  1  0
 17 19  1  1
 17 20  1  0
 20 21  1  0
 21 22  1  0
 22 23  2  0
 22 31  1  0
 23 24  1  0
 23 25  1  0
 25 26  1  0
 25 27  2  0
 27 28  1  0
 27 29  1  0
 29 30  1  0
 29 31  2  0
 31 32  1  0
M  CHG  2   8   1  10  -1
M  END
>  <DRUGBANK_ID>  (1) 
DB07422

>  <COMMON_NAME>  (1) 
(2S)-2-hydroxy-2-methyl-N-[4-nitro-3-(trifluoromethyl)phenyl]-3-(pentafluorophenoxy)propanamide

$$$$
