
     RDKit          2D

 41 46  0  0  0  0  0  0  0  0999 V2000
   -1.7078    6.4180    0.0000 C   0  0  0  0  0  0  0  0  0  0  0  0
   -1.4528    5.6334    0.0000 N   0  0  0  0  0  0  0  0  0  0  0  0
   -0.6459    5.4618    0.0000 C   0  0  0  0  0  0  0  0  0  0  0  0
   -0.3909    4.6772    0.0000 C   0  0  0  0  0  0  0  0  0  0  0  0
   -0.9429    4.0641    0.0000 N   0  0  0  0  0  0  0  0  0  0  0  0
   -1.7499    4.2357    0.0000 C   0  0  0  0  0  0  0  0  0  0  0  0
   -2.0049    5.0203    0.0000 C   0  0  0  0  0  0  0  0  0  0  0  0
   -0.6880    3.2795    0.0000 C   0  0  0  0  0  0  0  0  0  0  0  0
    0.1190    3.1080    0.0000 C   0  0  0  0  0  0  0  0  0  0  0  0
    0.3739    2.3234    0.0000 C   0  0  0  0  0  0  0  0  0  0  0  0
   -0.1781    1.7103    0.0000 C   0  0  0  0  0  0  0  0  0  0  0  0
   -0.9851    1.8818    0.0000 C   0  0  0  0  0  0  0  0  0  0  0  0
   -1.2400    2.6664    0.0000 C   0  0  0  0  0  0  0  0  0  0  0  0
   -1.5371    1.2687    0.0000 N   0  0  0  0  0  0  0  0  0  0  0  0
   -2.3441    1.4402    0.0000 C   0  0  0  0  0  0  0  0  0  0  0  0
   -2.8961    0.8271    0.0000 C   0  0  0  0  0  0  0  0  0  0  0  0
   -3.7031    0.9987    0.0000 C   0  0  0  0  0  0  0  0  0  0  0  0
   -3.9580    1.7833    0.0000 O   0  0  0  0  0  0  0  0  0  0  0  0
   -3.4060    2.3964    0.0000 C   0  0  0  0  0  0  0  0  0  0  0  0
   -2.5990    2.2248    0.0000 C   0  0  0  0  0  0  0  0  0  0  0  0
    0.0768    0.9256    0.0000 C   0  0  0  0  0  0  0  0  0  0  0  0
   -0.4752    0.3126    0.0000 O   0  0  0  0  0  0  0  0  0  0  0  0
    0.8838    0.7541    0.0000 N   0  0  0  0  0  0  0  0  0  0  0  0
    1.1387   -0.0305    0.0000 C   0  0  0  0  0  0  0  0  0  0  0  0
    1.9233   -0.2854    0.0000 C   0  0  0  0  0  0  0  0  0  0  0  0
    2.6378    0.1271    0.0000 C   0  0  0  0  0  0  0  0  0  0  0  0
    3.3523   -0.2854    0.0000 C   0  0  0  0  0  0  0  0  0  0  0  0
    3.3523   -1.1104    0.0000 C   0  0  0  0  0  0  0  0  0  0  0  0
    2.6378   -1.5229    0.0000 C   0  0  0  0  0  0  0  0  0  0  0  0
    1.9233   -1.1104    0.0000 C   0  0  0  0  0  0  0  0  0  0  0  0
    1.1387   -1.3654    0.0000 N   0  0  0  0  0  0  0  0  0  0  0  0
    0.6538   -0.6979    0.0000 N   0  0  0  0  0  0  0  0  0  0  0  0
    4.0668    0.1271    0.0000 C   0  0  0  0  0  0  0  0  0  0  0  0
    4.7812   -0.2854    0.0000 C   0  0  0  0  0  0  0  0  0  0  0  0
    5.4957    0.1271    0.0000 C   0  0  0  0  0  0  0  0  0  0  0  0
    6.2102   -0.2854    0.0000 C   0  0  0  0  0  0  0  0  0  0  0  0
    6.2102   -1.1104    0.0000 C   0  0  0  0  0  0  0  0  0  0  0  0
    5.4957   -1.5229    0.0000 C   0  0  0  0  0  0  0  0  0  0  0  0
    4.7812   -1.1104    0.0000 C   0  0  0  0  0  0  0  0  0  0  0  0
    5.4957   -2.3479    0.0000 F   0  0  0  0  0  0  0  0  0  0  0  0
    6.9246    0.1271    0.0000 F   0  0  0  0  0  0  0  0  0  0  0  0
  1  2  1  0
  2  3  1  0
  2  7  1  0
  3  4  1  0
  4  5  1  0
  5  6  1  0
  5  8  1  0
  6  7  1  0
  8  9  2  0
  8 13  1  0
  9 10  1  0
 10 11  2  0
 11 12  1  0
 11 21  1  0
 12 13  2  0
 12 14  1  0
 14 15  1  0
 15 16  1  0
 15 20  1  0
 16 17  1  0
 17 18  1  0
 18 19  1  0
 19 20  1  0
 21 22  2  0
 21 23  1  0
 23 24  1  0
 24 25  1  0
 24 32  2  0
 25 26  2  0
 25 30  1  0
 26 27  1  0
 27 28  2  0
 27 33  1  0
 28 29  1  0
 29 30  2  0
 30 31  1  0
 31 32  1  0
 33 34  1  0
 34 35  2  0
 34 39  1  0
 35 36  1  0
 36 37  2  0
 36 41  1  0
 37 38  1  0
 38 39  2  0
 38 40  1  0
M  END
>  <DRUGBANK_ID>  (1) 
DB11986

>  <COMMON_NAME>  (1) 
Entrectinib

>  <CAS_NUMBER>  (1) 
1108743-60-7

>  <UNII>  (1) 
L5ORF0AN1I

>  <SYNONYMS>  (1) 
Entrectinib; N-[5-[(3,5-difluorophenyl)methyl]-1H-indazol-3-yl]-4-(4-methylpiperazin-1-yl)-2-(oxan-4-ylamino)benzamide

$$$$
