
     RDKit          2D

 11 11  0  0  0  0  0  0  0  0999 V2000
    0.5678    1.9393    0.0000 C   0  0  0  0  0  0  0  0  0  0  0  0
    0.5678    1.1143    0.0000 C   0  0  0  0  0  0  0  0  0  0  0  0
    1.2352    0.6294    0.0000 C   0  0  0  0  0  0  0  0  0  0  0  0
    0.9803   -0.1553    0.0000 C   0  0  0  0  0  0  0  0  0  0  0  0
    0.1553   -0.1553    0.0000 C   0  0  0  0  0  0  0  0  0  0  0  0
   -0.0997    0.6294    0.0000 O   0  0  0  0  0  0  0  0  0  0  0  0
   -0.3297   -0.8227    0.0000 S   0  0  0  0  0  0  0  0  0  0  0  0
   -0.9971   -0.3378    0.0000 O   0  0  0  0  0  0  0  0  0  0  0  0
    0.3378   -1.3076    0.0000 O   0  0  0  0  0  0  0  0  0  0  0  0
   -0.8146   -1.4901    0.0000 N   0  0  0  0  0  0  0  0  0  0  0  0
   -0.4790   -2.2438    0.0000 O   0  0  0  0  0  0  0  0  0  0  0  0
  1  2  1  0
  2  3  2  0
  2  6  1  0
  3  4  1  0
  4  5  2  0
  5  6  1  0
  5  7  1  0
  7  8  2  0
  7  9  2  0
  7 10  1  0
 10 11  1  0
M  END
>  <DRUGBANK_ID>  (1) 
DB14983

>  <COMMON_NAME>  (1) 
Cimlanod

>  <CAS_NUMBER>  (1) 
1620330-72-4

>  <UNII>  (1) 
2US4FK1EPV

>  <SYNONYMS>  (1) 
BMS-986231; Cimlanod

$$$$
