FBQ
     RDKit          2D

 29 31  0  0  0  0  0  0  0  0999 V2000
    1.5310   -2.8328    0.0000 N   0  0  0  0  0  0  0  0  0  0  0  0
    2.2455   -2.4203    0.0000 C   0  0  0  0  0  0  0  0  0  0  0  0
    2.2455   -1.5953    0.0000 C   0  0  0  0  0  0  0  0  0  0  0  0
    1.5310   -1.1828    0.0000 C   0  0  0  0  0  0  0  0  0  0  0  0
    0.8165   -1.5953    0.0000 C   0  0  0  0  0  0  0  0  0  0  0  0
    0.8165   -2.4203    0.0000 C   0  0  0  0  0  0  0  0  0  0  0  0
    2.9599   -1.1828    0.0000 C   0  0  0  0  0  0  0  0  0  0  0  0
    3.6744   -1.5953    0.0000 C   0  0  0  0  0  0  0  0  0  0  0  0
    3.6744   -2.4203    0.0000 C   0  0  0  0  0  0  0  0  0  0  0  0
    2.9599   -2.8328    0.0000 C   0  0  0  0  0  0  0  0  0  0  0  0
    1.5310   -0.3578    0.0000 N   0  0  0  0  0  0  0  0  0  0  0  0
    0.1021   -1.1828    0.0000 C   0  0  0  0  0  0  0  0  0  0  0  0
    0.1021   -0.3578    0.0000 S   0  0  0  0  0  0  0  0  0  0  0  0
   -0.6124    0.0547    0.0000 C   0  0  0  0  0  0  0  0  0  0  0  0
   -0.6124    0.8797    0.0000 C   0  0  0  0  0  0  0  0  0  0  0  0
   -1.3269    1.2922    0.0000 C   0  0  0  0  0  0  0  0  0  0  0  0
   -1.3269    2.1172    0.0000 C   0  0  0  0  0  0  0  0  0  0  0  0
   -0.6124    2.5297    0.0000 C   0  0  0  0  0  0  0  0  0  0  0  0
    0.1021    2.1172    0.0000 C   0  0  0  0  0  0  0  0  0  0  0  0
    0.1021    1.2922    0.0000 C   0  0  0  0  0  0  0  0  0  0  0  0
   -2.0414    2.5297    0.0000 C   0  0  0  0  0  0  0  0  0  0  0  0
   -2.7558    2.9422    0.0000 C   0  0  0  0  0  0  0  0  0  0  0  0
   -3.4703    3.3547    0.0000 F   0  0  0  0  0  0  0  0  0  0  0  0
   -2.3433    3.6567    0.0000 F   0  0  0  0  0  0  0  0  0  0  0  0
   -3.1683    2.2278    0.0000 F   0  0  0  0  0  0  0  0  0  0  0  0
   -1.6289    3.2442    0.0000 O   0  0  0  0  0  0  0  0  0  0  0  0
    2.9599   -0.3578    0.0000 F   0  0  0  0  0  0  0  0  0  0  0  0
    0.1021   -2.8328    0.0000 C   0  0  0  0  0  0  0  0  0  0  0  0
   -2.4539    1.8153    0.0000 O   0  0  0  0  0  0  0  0  0  0  0  0
  1  2  2  0
  1  6  1  0
  2  3  1  0
  2 10  1  0
  3  4  2  0
  3  7  1  0
  4  5  1  0
  4 11  1  0
  5  6  2  0
  5 12  1  0
  6 28  1  0
  7  8  2  0
  7 27  1  0
  8  9  1  0
  9 10  2  0
 12 13  1  0
 13 14  1  0
 14 15  1  0
 15 16  2  0
 15 20  1  0
 16 17  1  0
 17 18  2  0
 17 21  1  0
 18 19  1  0
 19 20  2  0
 21 22  1  0
 21 26  1  0
 21 29  1  0
 22 23  1  0
 22 24  1  0
 22 25  1  0
M  END
>  <DRUGBANK_ID>  (1) 
DB07756

>  <COMMON_NAME>  (1) 
1-[3-({[(4-AMINO-5-FLUORO-2-METHYLQUINOLIN-3-YL)METHYL]THIO}METHYL)PHENYL]-2,2,2-TRIFLUOROETHANE-1,1-DIOL

$$$$
