
     RDKit          2D

 29 29  0  0  0  0  0  0  0  0999 V2000
    1.4289   -0.5634    0.0000 P   0  0  0  0  0  0  0  0  0  0  0  0
   -0.7144    3.1490    0.0000 P   0  0  0  0  0  0  0  0  0  0  0  0
   -2.1433    1.4990    0.0000 P   0  0  0  0  0  0  0  0  0  0  0  0
    1.4289    0.2615    0.0000 O   0  0  0  0  0  0  0  0  0  0  0  0
    0.0000    2.7365    0.0000 O   0  0  0  0  0  0  0  0  0  0  0  0
   -1.4289    1.9115    0.0000 O   0  0  0  0  0  0  0  0  0  0  0  0
    1.4289    1.9115    0.0000 O   0  0  0  0  0  0  0  0  0  0  0  0
   -1.4289    0.2615    0.0000 O   0  0  0  0  0  0  0  0  0  0  0  0
    0.0000   -0.5634    0.0000 O   0  0  0  0  0  0  0  0  0  0  0  0
    1.4289   -1.3884    0.0000 O   0  0  0  0  0  0  0  0  0  0  0  0
    2.2539   -0.5634    0.0000 O   0  0  0  0  0  0  0  0  0  0  0  0
   -0.3019    3.8634    0.0000 O   0  0  0  0  0  0  0  0  0  0  0  0
   -1.4289    3.5615    0.0000 O   0  0  0  0  0  0  0  0  0  0  0  0
   -2.8578    1.0865    0.0000 O   0  0  0  0  0  0  0  0  0  0  0  0
   -2.5558    2.2134    0.0000 O   0  0  0  0  0  0  0  0  0  0  0  0
    0.6039   -0.5634    0.0000 O   0  0  0  0  0  0  0  0  0  0  0  0
   -1.1269    2.4345    0.0000 O   0  0  0  0  0  0  0  0  0  0  0  0
   -1.7308    0.7845    0.0000 O   0  0  0  0  0  0  0  0  0  0  0  0
    1.4289   -3.0384    0.0000 O   0  0  0  0  0  0  0  0  0  0  0  0
    2.8578   -3.8634    0.0000 O   0  0  0  0  0  0  0  0  0  0  0  0
    0.0000    1.9115    0.0000 C   0  0  0  0  0  0  0  0  0  0  0  0
   -0.7144    1.4990    0.0000 C   0  0  0  0  0  0  0  0  0  0  0  0
    0.7145    0.6740    0.0000 C   0  0  0  0  0  0  0  0  0  0  0  0
    0.7145    1.4990    0.0000 C   0  0  0  0  0  0  0  0  0  0  0  0
   -0.7144    0.6740    0.0000 C   0  0  0  0  0  0  0  0  0  0  0  0
    0.0000    0.2615    0.0000 C   0  0  0  0  0  0  0  0  0  0  0  0
    2.1434   -1.8009    0.0000 C   0  0  0  0  0  0  0  0  0  0  0  0
    2.1434   -2.6259    0.0000 C   0  0  0  0  0  0  0  0  0  0  0  0
    2.8578   -3.0384    0.0000 C   0  0  0  0  0  0  0  0  0  0  0  0
  1  4  1  0
  1 10  1  0
  1 11  1  0
  1 16  2  0
  2  5  1  0
  2 12  1  0
  2 13  1  0
  2 17  2  0
  3  6  1  0
  3 14  1  0
  3 15  1  0
  3 18  2  0
  4 23  1  0
 10 27  1  0
 19 28  2  0
 20 29  1  0
 21  5  1  6
 21 22  1  0
 21 24  1  0
 22  6  1  1
 22 25  1  0
 23 24  1  0
 23 26  1  0
 24  7  1  1
 25  8  1  6
 25 26  1  0
 26  9  1  6
 27 28  1  0
 28 29  1  0
M  END
>  <DRUGBANK_ID>  (1) 
DB02028

>  <SECONDARY_ACCESSION_NUMBERS>  (1) 
EXPT01828

>  <COMMON_NAME>  (1) 
(1R,2R,3S,4R,6S)-3,4,6-Trihydroxy-5-{[(S)-hydroxy(3-hydroxy-2-oxopropoxy)phosphoryl]oxy}-1,2-cyclohexanediyl bis[dihydrogen (phosphate)]

$$$$
