
     RDKit          2D

 22 24  0  0  0  0  0  0  0  0999 V2000
   -2.5017   -0.2104    0.0000 C   0  0  0  0  0  0  0  0  0  0  0  0
   -2.5030   -1.0371    0.0000 C   0  0  0  0  0  0  0  0  0  0  0  0
   -1.7909   -1.4495    0.0000 C   0  0  0  0  0  0  0  0  0  0  0  0
   -1.7928    0.2017    0.0000 C   0  0  0  0  0  0  0  0  0  0  0  0
   -1.0755   -0.2065    0.0000 C   0  0  0  0  0  0  0  0  0  0  0  0
   -1.0719   -1.0392    0.0000 C   0  0  0  0  0  0  0  0  0  0  0  0
   -0.3529   -1.4500    0.0000 C   0  0  0  0  0  0  0  0  0  0  0  0
    0.3668   -1.0327    0.0000 C   0  0  0  0  0  0  0  0  0  0  0  0
    0.3631   -0.2000    0.0000 C   0  0  0  0  0  0  0  0  0  0  0  0
   -0.3602    0.2152    0.0000 O   0  0  0  0  0  0  0  0  0  0  0  0
   -3.2157    0.2008    0.0000 O   0  0  0  0  0  0  0  0  0  0  0  0
   -1.7935   -2.2736    0.0000 O   0  0  0  0  0  0  0  0  0  0  0  0
   -0.3504   -2.2740    0.0000 O   0  0  0  0  0  0  0  0  0  0  0  0
    1.0739    0.2133    0.0000 C   0  0  0  0  0  0  0  0  0  0  0  0
    1.7892   -0.1978    0.0000 C   0  0  0  0  0  0  0  0  0  0  0  0
    2.5008    0.2158    0.0000 C   0  0  0  0  0  0  0  0  0  0  0  0
    2.4985    1.0407    0.0000 C   0  0  0  0  0  0  0  0  0  0  0  0
    1.7785    1.4501    0.0000 C   0  0  0  0  0  0  0  0  0  0  0  0
    1.0696    1.0338    0.0000 C   0  0  0  0  0  0  0  0  0  0  0  0
    1.7726    2.2740    0.0000 O   0  0  0  0  0  0  0  0  0  0  0  0
    3.2103    1.4559    0.0000 O   0  0  0  0  0  0  0  0  0  0  0  0
    3.2157   -0.1941    0.0000 O   0  0  0  0  0  0  0  0  0  0  0  0
  1 11  1  0
  1  2  2  0
  2  3  1  0
  3 12  1  0
  3  6  2  0
  4  1  1  0
  5  6  1  0
  5  4  2  0
  5 10  1  0
  6  7  1  0
  7 13  2  0
  7  8  1  0
  8  9  2  0
  9 14  1  0
  9 10  1  0
 14 15  2  0
 15 16  1  0
 16 17  2  0
 16 22  1  0
 17 18  1  0
 17 21  1  0
 18 19  2  0
 18 20  1  0
 19 14  1  0
M  END
>  <DRUGBANK_ID>  (1) 
DB08230

>  <COMMON_NAME>  (1) 
Tricetin

>  <CAS_NUMBER>  (1) 
520-31-0

>  <UNII>  (1) 
5627PY99ZO

>  <SYNONYMS>  (1) 
3',4',5,5',7-pentahydroxyflavone; 5,7,3',4',5'-Pentahydroxyflavone; Tricetin; Tricetinidin

$$$$
