
     RDKit          2D

 21 23  0  0  0  0  0  0  0  0999 V2000
    2.1434    1.4597    0.0000 N   0  0  0  0  0  0  0  0  0  0  0  0
    1.4290    1.8722    0.0000 C   0  0  0  0  0  0  0  0  0  0  0  0
    0.7145    1.4597    0.0000 C   0  0  0  0  0  0  0  0  0  0  0  0
    0.0000    1.8722    0.0000 C   0  0  0  0  0  0  0  0  0  0  0  0
   -0.7144    1.4597    0.0000 C   0  0  0  0  0  0  0  0  0  0  0  0
   -1.4288    1.8722    0.0000 C   0  0  0  0  0  0  0  0  0  0  0  0
   -1.4288    2.6972    0.0000 C   0  0  0  0  0  0  0  0  0  0  0  0
   -2.1433    3.1098    0.0000 Cl  0  0  0  0  0  0  0  0  0  0  0  0
   -0.7144    3.1098    0.0000 C   0  0  0  0  0  0  0  0  0  0  0  0
    0.0000    2.6972    0.0000 C   0  0  0  0  0  0  0  0  0  0  0  0
    0.7145    0.6347    0.0000 C   0  0  0  0  0  0  0  0  0  0  0  0
    1.4290    0.2222    0.0000 C   0  0  0  0  0  0  0  0  0  0  0  0
    1.4290   -0.6027    0.0000 C   0  0  0  0  0  0  0  0  0  0  0  0
    0.7145   -1.0152    0.0000 C   0  0  0  0  0  0  0  0  0  0  0  0
    0.0000   -0.6027    0.0000 C   0  0  0  0  0  0  0  0  0  0  0  0
    0.0000    0.2222    0.0000 C   0  0  0  0  0  0  0  0  0  0  0  0
    0.7145   -1.8402    0.0000 C   0  0  0  0  0  0  0  0  0  0  0  0
    1.3818   -2.3252    0.0000 C   0  0  0  0  0  0  0  0  0  0  0  0
    1.1270   -3.1098    0.0000 N   0  0  0  0  0  0  0  0  0  0  0  0
    0.3020   -3.1098    0.0000 N   0  0  0  0  0  0  0  0  0  0  0  0
    0.0470   -2.3252    0.0000 C   0  0  0  0  0  0  0  0  0  0  0  0
  2  1  1  0
  3  2  1  1
  3  4  1  0
  3 11  1  0
  4  5  2  0
  5  6  1  0
  6  7  2  0
  7  8  1  0
  7  9  1  0
 10  4  1  0
 10  9  2  0
 11 12  2  0
 11 16  1  0
 12 13  1  0
 13 14  2  0
 14 15  1  0
 14 17  1  0
 15 16  2  0
 17 18  1  0
 17 21  2  0
 18 19  2  0
 19 20  1  0
 21 20  1  0
M  END
>  <DRUGBANK_ID>  (1) 
DB07858

>  <COMMON_NAME>  (1) 
(2S)-2-(4-chlorophenyl)-2-[4-(1H-pyrazol-4-yl)phenyl]ethanamine

$$$$
