
     RDKit          2D

 15 14  0  0  0  0  0  0  0  0999 V2000
   -0.3757   -0.1910    0.0000 C   0  0  0  0  0  0  0  0  0  0  0  0
   -1.0816    0.2202    0.0000 C   0  0  0  0  0  0  0  0  0  0  0  0
    0.3367    0.2331    0.0000 C   0  0  0  0  0  0  0  0  0  0  0  0
   -0.3757   -1.0201    0.0000 O   0  0  0  0  0  0  0  0  0  0  0  0
   -1.0784    1.0363    0.0000 O   0  0  0  0  0  0  0  0  0  0  0  0
    1.0589   -0.1748    0.0000 O   0  0  0  0  0  0  0  0  0  0  0  0
   -1.0913   -1.4346    0.0000 C   0  0  0  0  0  0  0  0  0  0  0  0
   -1.7844    1.4476    0.0000 C   0  0  0  0  0  0  0  0  0  0  0  0
    1.7714    0.2493    0.0000 C   0  0  0  0  0  0  0  0  0  0  0  0
   -1.0816   -2.2637    0.0000 C   0  0  0  0  0  0  0  0  0  0  0  0
   -1.8070   -1.0234    0.0000 O   0  0  0  0  0  0  0  0  0  0  0  0
   -1.7844    2.2637    0.0000 C   0  0  0  0  0  0  0  0  0  0  0  0
   -2.4904    1.0427    0.0000 O   0  0  0  0  0  0  0  0  0  0  0  0
    2.4904   -0.1554    0.0000 C   0  0  0  0  0  0  0  0  0  0  0  0
    1.7520    1.0784    0.0000 O   0  0  0  0  0  0  0  0  0  0  0  0
  1  2  1  0
  1  3  1  0
  1  4  1  0
  2  5  1  0
  3  6  1  0
  4  7  1  0
  5  8  1  0
  6  9  1  0
  7 10  1  0
  7 11  2  0
  8 12  1  0
  8 13  2  0
  9 14  1  0
  9 15  2  0
M  END
>  <DRUGBANK_ID>  (1) 
DB16005

>  <COMMON_NAME>  (1) 
Triacetin

>  <CAS_NUMBER>  (1) 
102-76-1

>  <UNII>  (1) 
XHX3C3X673

>  <SYNONYMS>  (1) 
1,2,3-Propanetriol triacetate; Glyceryl triacetate; Triacetin; Triacetina; Triacetine; Triacetinum

$$$$
