
     RDKit          2D

  5  3  0  0  0  0  0  0  0  0999 V2000
   -1.2828   -1.1224    0.0000 Mg  0  0  0  0  0 15  0  0  0  0  0  0
    0.5610   -0.0798    0.0000 O   0  0  0  0  0  0  0  0  0  0  0  0
    0.5610    0.7214    0.0000 C   0  0  0  0  0  0  0  0  0  0  0  0
    1.2828    1.1224    0.0000 O   0  0  0  0  0  0  0  0  0  0  0  0
   -0.1600    1.1224    0.0000 O   0  0  0  0  0  0  0  0  0  0  0  0
  2  3  2  0
  3  4  1  0
  3  5  1  0
M  CHG  3   1   2   4  -1   5  -1
M  END
>  <DRUGBANK_ID>  (1) 
DB09481

>  <COMMON_NAME>  (1) 
Magnesium carbonate

>  <CAS_NUMBER>  (1) 
546-93-0

>  <UNII>  (1) 
0IHC698356

>  <SYNONYMS>  (1) 
Magnesio carbonato

$$$$
