
     RDKit          2D

 29 33  0  0  1  0  0  0  0  0999 V2000
    4.8919    3.9995    0.0000 O   0  0  0  0  0  0  0  0  0  0  0  0
    6.4542    2.7012    0.0000 O   0  0  0  0  0  0  0  0  0  0  0  0
    2.7356    2.7051    0.0000 O   0  0  0  0  0  0  0  0  0  0  0  0
    6.3519    3.9796    0.0000 O   0  0  0  0  0  0  0  0  0  0  0  0
    3.1148   -3.5844    0.0000 O   0  0  0  0  0  0  0  0  0  0  0  0
    3.4499    1.4677    0.0000 N   0  0  0  0  0  0  0  0  0  0  0  0
    4.5038   -0.4301    0.0000 N   0  0  0  0  0  0  0  0  0  0  0  0
    4.1643    1.0552    0.0000 C   0  0  0  0  0  0  0  0  0  0  0  0
    4.8788    2.2926    0.0000 C   0  0  0  0  0  0  0  0  0  0  0  0
    5.6294    2.7108    0.0000 C   0  0  0  0  0  0  0  0  0  0  0  0
    2.8419    0.9174    0.0000 C   0  0  0  0  0  0  0  0  0  0  0  0
    3.1761    0.1685    0.0000 C   0  0  0  0  0  0  0  0  0  0  0  0
    3.9917    0.2536    0.0000 C   0  0  0  0  0  0  0  0  0  0  0  0
    4.1643    2.7051    0.0000 C   0  0  0  0  0  0  0  0  0  0  0  0
    4.8788    1.4677    0.0000 C   0  0  0  0  0  0  0  0  0  0  0  0
    3.4499    2.2926    0.0000 C   0  0  0  0  0  0  0  0  0  0  0  0
    2.8160   -0.6059    0.0000 C   0  0  0  0  0  0  0  0  0  0  0  0
    6.0336    1.9916    0.0000 C   0  0  0  0  0  0  0  0  0  0  0  0
    4.1511    3.5642    0.0000 C   0  0  0  0  0  0  0  0  0  0  0  0
    5.6360    3.5700    0.0000 C   0  0  0  0  0  0  0  0  0  0  0  0
    3.3122   -1.3013    0.0000 C   0  0  0  0  0  0  0  0  0  0  0  0
    1.9947   -0.6820    0.0000 C   0  0  0  0  0  0  0  0  0  0  0  0
    4.1617   -1.2128    0.0000 C   0  0  0  0  0  0  0  0  0  0  0  0
    5.6128    1.2820    0.0000 C   0  0  0  0  0  0  0  0  0  0  0  0
    2.9371   -2.1081    0.0000 C   0  0  0  0  0  0  0  0  0  0  0  0
    1.6499   -1.4314    0.0000 C   0  0  0  0  0  0  0  0  0  0  0  0
    4.6951   -1.9248    0.0000 C   0  0  0  0  0  0  0  0  0  0  0  0
    3.4539   -2.8324    0.0000 C   0  0  0  0  0  0  0  0  0  0  0  0
    4.3388   -2.7401    0.0000 C   0  0  0  0  0  0  0  0  0  0  0  0
  1 19  1  0
  1 20  1  0
  3 16  2  0
  4 20  2  0
  5 28  1  0
  6  8  1  0
  6 11  1  0
  6 16  1  0
  7 13  2  0
  7 23  1  0
  8 13  1  0
  8 15  2  0
  9 10  1  0
  9 14  2  0
  9 15  1  0
 10  2  1  1
 10 18  1  0
 10 20  1  0
 11 12  1  0
 12 13  1  0
 12 17  2  0
 14 16  1  0
 14 19  1  0
 17 21  1  0
 17 22  1  0
 18 24  1  0
 21 23  2  0
 21 25  1  0
 22 26  1  0
 23 27  1  0
 25 28  2  0
 27 29  2  0
 28 29  1  0
M  END
>  <DRUGBANK_ID>  (1) 
DB05482

>  <SECONDARY_ACCESSION_NUMBERS>  (1) 
DB12552

>  <COMMON_NAME>  (1) 
SN-38

>  <CAS_NUMBER>  (1) 
86639-52-3

>  <UNII>  (1) 
0H43101T0J

>  <SYNONYMS>  (1) 
1H-PYRANO(3',4':6,7)INDOLIZINO(1,2-B)QUINOLINE-3,14(4H,12H)-DIONE, 4,11-DIETHYL-4,9-DIHYDROXY-, (4S)-; IRINOTECAN RELATED COMPOUND B

$$$$
