FRX
     RDKit          2D

 30 33  0  0  0  0  0  0  0  0999 V2000
    1.6973   -2.0477    0.0000 O   0  0  0  0  0  0  0  0  0  0  0  0
    1.6973   -2.8727    0.0000 C   0  0  0  0  0  0  0  0  0  0  0  0
    2.4118   -3.2852    0.0000 N   0  0  0  0  0  0  0  0  0  0  0  0
    3.1263   -2.8727    0.0000 C   0  0  0  0  0  0  0  0  0  0  0  0
    3.8407   -3.2852    0.0000 C   0  0  0  0  0  0  0  0  0  0  0  0
    4.5552   -2.8727    0.0000 O   0  0  0  0  0  0  0  0  0  0  0  0
    0.9828   -3.2852    0.0000 C   0  0  0  0  0  0  0  0  0  0  0  0
    0.2684   -2.8727    0.0000 N   0  0  0  0  0  0  0  0  0  0  0  0
   -0.4461   -3.2852    0.0000 C   0  0  0  0  0  0  0  0  0  0  0  0
   -0.4461   -4.1102    0.0000 O   0  0  0  0  0  0  0  0  0  0  0  0
    0.2684   -2.0477    0.0000 C   0  0  0  0  0  0  0  0  0  0  0  0
    0.9828   -1.6352    0.0000 C   0  0  0  0  0  0  0  0  0  0  0  0
    0.9828   -0.8102    0.0000 C   0  0  0  0  0  0  0  0  0  0  0  0
    0.2684   -0.3977    0.0000 C   0  0  0  0  0  0  0  0  0  0  0  0
   -0.4461   -1.6352    0.0000 C   0  0  0  0  0  0  0  0  0  0  0  0
   -0.4461   -0.8102    0.0000 C   0  0  0  0  0  0  0  0  0  0  0  0
   -1.1606   -2.0477    0.0000 C   0  0  0  0  0  0  0  0  0  0  0  0
   -1.1606   -2.8727    0.0000 C   0  0  0  0  0  0  0  0  0  0  0  0
   -1.8750   -3.2852    0.0000 N   0  0  0  0  0  0  0  0  0  0  0  0
   -1.8750   -4.1102    0.0000 C   0  0  0  0  0  0  0  0  0  0  0  0
   -1.1606   -4.5227    0.0000 O   0  0  0  0  0  0  0  0  0  0  0  0
   -2.5895   -4.5227    0.0000 C   0  0  0  0  0  0  0  0  0  0  0  0
   -3.3432   -4.1871    0.0000 N   0  0  0  0  0  0  0  0  0  0  0  0
   -3.8952   -4.8002    0.0000 C   0  0  0  0  0  0  0  0  0  0  0  0
   -3.4827   -5.5147    0.0000 C   0  0  0  0  0  0  0  0  0  0  0  0
   -2.6758   -5.3431    0.0000 C   0  0  0  0  0  0  0  0  0  0  0  0
   -4.0348   -6.1278    0.0000 C   0  0  0  0  0  0  0  0  0  0  0  0
   -4.7022   -4.9717    0.0000 S   0  0  0  0  0  0  0  0  0  0  0  0
   -4.7884   -5.7922    0.0000 C   0  0  0  0  0  0  0  0  0  0  0  0
   -5.5029   -6.2047    0.0000 Cl  0  0  0  0  0  0  0  0  0  0  0  0
  1  2  2  0
  2  7  1  0
  2  3  1  0
  3  4  1  0
  4  5  1  0
  5  6  1  0
  7  8  1  0
  8 11  1  0
  8  9  1  0
  9 18  1  0
  9 10  2  0
 11 15  2  0
 11 12  1  0
 12 13  2  0
 13 14  1  0
 14 16  2  0
 15 16  1  0
 15 17  1  0
 17 18  1  0
 18 19  1  1
 19 20  1  0
 20 22  1  0
 20 21  2  0
 22 26  2  0
 22 23  1  0
 23 24  1  0
 24 25  2  0
 24 28  1  0
 25 27  1  0
 25 26  1  0
 27 29  2  0
 28 29  1  0
 29 30  1  0
M  END
>  <DRUGBANK_ID>  (1) 
DB07792

>  <COMMON_NAME>  (1) 
(S)-2-CHLORO-N-(1-(2-(2-HYDROXYETHYLAMINO)-2-OXOETHYL)-2-OXO-1,2,3,4-TETRAHYDROQUINOLIN-3-YL)-6H-THIENO[2,3-B]PYRROLE-5-CARBOXAMIDE

$$$$
