EBP
     RDKit          2D

 16 16  0  0  0  0  0  0  0  0999 V2000
    0.3294   -1.0026    0.0000 C   0  0  0  0  0  0  0  0  0  0  0  0
    0.9127   -1.5860    0.0000 C   0  0  0  0  0  0  0  0  0  0  0  0
    0.6992   -2.3829    0.0000 C   0  0  0  0  0  0  0  0  0  0  0  0
   -0.0977   -2.5964    0.0000 C   0  0  0  0  0  0  0  0  0  0  0  0
   -0.6810   -2.0130    0.0000 C   0  0  0  0  0  0  0  0  0  0  0  0
   -0.4675   -1.2161    0.0000 C   0  0  0  0  0  0  0  0  0  0  0  0
    0.5429   -0.2057    0.0000 C   0  0  0  0  0  0  0  0  0  0  0  0
   -0.3112   -3.3933    0.0000 C   0  0  0  0  0  0  0  0  0  0  0  0
   -0.4103    1.7579    0.0000 C   0  0  0  0  0  0  0  0  0  0  0  0
   -0.9937    2.3413    0.0000 C   0  0  0  0  0  0  0  0  0  0  0  0
    0.3294    1.7579    0.0000 C   0  0  0  0  0  0  0  0  0  0  0  0
    0.9127    2.3413    0.0000 C   0  0  0  0  0  0  0  0  0  0  0  0
   -0.0405    0.3776    0.0000 P   0  0  0  0  0  0  0  0  0  0  0  0
   -0.6238    0.9610    0.0000 O   0  0  0  0  0  0  0  0  0  0  0  0
    0.5429    0.9610    0.0000 O   0  0  0  0  0  0  0  0  0  0  0  0
   -0.6238   -0.2057    0.0000 O   0  0  0  0  0  0  0  0  0  0  0  0
  1  2  2  0
  1  6  1  0
  1  7  1  0
  2  3  1  0
  3  4  2  0
  4  5  1  0
  4  8  1  0
  5  6  2  0
  7 13  1  0
  9 10  1  0
  9 14  1  0
 11 12  1  0
 11 15  1  0
 13 14  1  0
 13 15  1  0
 13 16  2  0
M  END
>  <DRUGBANK_ID>  (1) 
DB02138

>  <SECONDARY_ACCESSION_NUMBERS>  (1) 
EXPT01324

>  <COMMON_NAME>  (1) 
Diethyl 4-Methylbenzylphosphonate

>  <CAS_NUMBER>  (1) 
3762-25-2

>  <UNII>  (1) 
KR7824QXJ2

$$$$
