J88
     RDKit          2D

 30 34  0  0  0  0  0  0  0  0999 V2000
   -0.8723   -2.1508    0.0000 O   0  0  0  0  0  0  0  0  0  0  0  0
   -0.0653   -1.9792    0.0000 N   0  0  0  0  0  0  0  0  0  0  0  0
    0.1896   -1.1946    0.0000 C   0  0  0  0  0  0  0  0  0  0  0  0
   -0.2953   -0.5272    0.0000 C   0  0  0  0  0  0  0  0  0  0  0  0
   -1.1203   -0.5272    0.0000 O   0  0  0  0  0  0  0  0  0  0  0  0
    0.1896    0.1403    0.0000 N   0  0  0  0  0  0  0  0  0  0  0  0
   -0.0653    0.9249    0.0000 C   0  0  0  0  0  0  0  0  0  0  0  0
   -0.8723    1.0964    0.0000 C   0  0  0  0  0  0  0  0  0  0  0  0
   -1.4243    0.4833    0.0000 C   0  0  0  0  0  0  0  0  0  0  0  0
   -2.2313    0.6548    0.0000 C   0  0  0  0  0  0  0  0  0  0  0  0
   -2.7833    0.0417    0.0000 F   0  0  0  0  0  0  0  0  0  0  0  0
   -2.4862    1.4395    0.0000 C   0  0  0  0  0  0  0  0  0  0  0  0
   -1.9342    2.0526    0.0000 C   0  0  0  0  0  0  0  0  0  0  0  0
   -2.1891    2.8372    0.0000 C   0  0  0  0  0  0  0  0  0  0  0  0
   -1.6371    3.4503    0.0000 O   0  0  0  0  0  0  0  0  0  0  0  0
   -0.8301    3.2787    0.0000 C   0  0  0  0  0  0  0  0  0  0  0  0
   -0.5752    2.4941    0.0000 O   0  0  0  0  0  0  0  0  0  0  0  0
   -1.1272    1.8810    0.0000 C   0  0  0  0  0  0  0  0  0  0  0  0
    0.9743   -0.1147    0.0000 C   0  0  0  0  0  0  0  0  0  0  0  0
    1.6887    0.2978    0.0000 C   0  0  0  0  0  0  0  0  0  0  0  0
    2.4032   -0.1147    0.0000 C   0  0  0  0  0  0  0  0  0  0  0  0
    2.4032   -0.9397    0.0000 C   0  0  0  0  0  0  0  0  0  0  0  0
    1.6887   -1.3522    0.0000 C   0  0  0  0  0  0  0  0  0  0  0  0
    0.9743   -0.9397    0.0000 C   0  0  0  0  0  0  0  0  0  0  0  0
    1.6887   -2.1772    0.0000 C   0  0  0  0  0  0  0  0  0  0  0  0
    2.4032   -2.5897    0.0000 C   0  0  0  0  0  0  0  0  0  0  0  0
    2.4032   -3.4147    0.0000 C   0  0  0  0  0  0  0  0  0  0  0  0
    1.6887   -3.8272    0.0000 C   0  0  0  0  0  0  0  0  0  0  0  0
    0.9743   -3.4147    0.0000 C   0  0  0  0  0  0  0  0  0  0  0  0
    0.9743   -2.5897    0.0000 C   0  0  0  0  0  0  0  0  0  0  0  0
  1  2  1  0
  2  3  2  0
  3  4  1  0
  3 24  1  0
  4  5  2  0
  4  6  1  0
  6  7  1  0
  6 19  1  0
  7  8  1  0
  8  9  2  0
  8 18  1  0
  9 10  1  0
 10 11  1  0
 10 12  2  0
 12 13  1  0
 13 14  1  0
 13 18  2  0
 14 15  1  0
 15 16  1  0
 16 17  1  0
 17 18  1  0
 19 20  2  0
 19 24  1  0
 20 21  1  0
 21 22  2  0
 22 23  1  0
 23 24  2  0
 23 25  1  0
 25 26  2  0
 25 30  1  0
 26 27  1  0
 27 28  2  0
 28 29  1  0
 29 30  2  0
M  END
>  <DRUGBANK_ID>  (1) 
DB08015

>  <COMMON_NAME>  (1) 
(3Z)-1-[(6-fluoro-4H-1,3-benzodioxin-8-yl)methyl]-4-phenyl-1H-indole-2,3-dione 3-oxime

$$$$
