
     RDKit          2D

 14 14  0  0  0  0  0  0  0  0999 V2000
   -0.3608    0.2062    0.0000 C   0  0  0  0  0  0  0  0  0  0  0  0
    0.3065    0.6912    0.0000 S   0  0  0  0  0  0  0  0  0  0  0  0
   -0.1059   -0.5783    0.0000 N   0  0  0  0  0  0  0  0  0  0  0  0
   -1.1455    0.4612    0.0000 N   0  0  0  0  0  0  0  0  0  0  0  0
    0.9739    0.2062    0.0000 C   0  0  0  0  0  0  0  0  0  0  0  0
    0.7190   -0.5783    0.0000 N   0  0  0  0  0  0  0  0  0  0  0  0
   -0.5908   -1.2457    0.0000 C   0  0  0  0  0  0  0  0  0  0  0  0
   -1.7585   -0.0908    0.0000 C   0  0  0  0  0  0  0  0  0  0  0  0
    1.7586    0.4612    0.0000 S   0  0  0  0  0  0  0  0  0  0  0  0
   -2.5432    0.1641    0.0000 C   0  0  0  0  0  0  0  0  0  0  0  0
   -1.5870   -0.8978    0.0000 O   0  0  0  0  0  0  0  0  0  0  0  0
    2.5432    0.7161    0.0000 N   0  0  0  0  0  0  0  0  0  0  0  0
    2.0135   -0.3233    0.0000 O   0  0  0  0  0  0  0  0  0  0  0  0
    1.5036    1.2458    0.0000 O   0  0  0  0  0  0  0  0  0  0  0  0
  1  2  1  0
  1  3  1  0
  1  4  2  0
  2  5  1  0
  3  6  1  0
  3  7  1  0
  4  8  1  0
  5  9  1  0
  5  6  2  0
  8 10  1  0
  8 11  2  0
  9 12  1  0
  9 13  2  0
  9 14  2  0
M  END
>  <DRUGBANK_ID>  (1) 
DB00703

>  <SECONDARY_ACCESSION_NUMBERS>  (1) 
APRD00740

>  <COMMON_NAME>  (1) 
Methazolamide

>  <CAS_NUMBER>  (1) 
554-57-4

>  <UNII>  (1) 
W733B0S9SD

>  <SYNONYMS>  (1) 
Metazolamida; Methazolamid; Methazolamide; MÃ©thazolamide; Methazolamidum; Methenamide; Neptazaneat

$$$$
