5NS
     RDKit          2D

 15 16  0  0  0  0  0  0  0  0999 V2000
   -1.7288   -0.1806    0.0000 C   0  0  0  0  0  0  0  0  0  0  0  0
   -1.7288    0.6444    0.0000 C   0  0  0  0  0  0  0  0  0  0  0  0
   -1.0143    1.0569    0.0000 C   0  0  0  0  0  0  0  0  0  0  0  0
   -0.2999    0.6444    0.0000 C   0  0  0  0  0  0  0  0  0  0  0  0
   -0.2999   -0.1806    0.0000 C   0  0  0  0  0  0  0  0  0  0  0  0
   -1.0143   -0.5931    0.0000 C   0  0  0  0  0  0  0  0  0  0  0  0
    1.1291   -0.1806    0.0000 C   0  0  0  0  0  0  0  0  0  0  0  0
    0.4146   -0.5931    0.0000 C   0  0  0  0  0  0  0  0  0  0  0  0
   -1.0143   -2.2431    0.0000 O   0  0  0  0  0  0  0  0  0  0  0  0
   -1.0143   -1.4181    0.0000 S   0  0  0  0  0  0  0  0  0  0  0  0
   -0.1893   -1.4181    0.0000 O   0  0  0  0  0  0  0  0  0  0  0  0
   -1.8393   -1.4181    0.0000 O   0  0  0  0  0  0  0  0  0  0  0  0
    1.1291    0.6444    0.0000 C   0  0  0  0  0  0  0  0  0  0  0  0
    0.4146    1.0569    0.0000 C   0  0  0  0  0  0  0  0  0  0  0  0
    0.4146    1.8819    0.0000 N   0  0  0  0  0  0  0  0  0  0  0  0
  1  2  2  0
  2  3  1  0
  4  3  2  0
  4 14  1  0
  5  4  1  0
  6  1  1  0
  6  5  2  0
  7 13  1  0
  8  5  1  0
  8  7  2  0
  9 10  1  0
 10  6  1  0
 11 10  2  0
 12 10  2  0
 13 14  2  0
 14 15  1  0
M  END
>  <DRUGBANK_ID>  (1) 
DB07176

>  <COMMON_NAME>  (1) 
1-Naphthylamine-5-sulfonic acid

>  <CAS_NUMBER>  (1) 
84-89-9

>  <UNII>  (1) 
W70WC365OD

>  <SYNONYMS>  (1) 
1-Amino-5-naphthalenesufonic acid; 1-Amino-5-sulfonaphthalene; 5-Naphthylamine-1-sulfonic acid; Laurent acid

$$$$
