235
     RDKit          2D

 30 31  0  0  0  0  0  0  0  0999 V2000
   -3.1150    1.5657    0.0000 C   0  0  0  0  0  0  0  0  0  0  0  0
   -3.7774    2.0574    0.0000 C   0  0  0  0  0  0  0  0  0  0  0  0
   -4.5345    1.7296    0.0000 C   0  0  0  0  0  0  0  0  0  0  0  0
   -4.6291    0.9101    0.0000 C   0  0  0  0  0  0  0  0  0  0  0  0
   -3.9667    0.4183    0.0000 C   0  0  0  0  0  0  0  0  0  0  0  0
   -3.2096    0.7461    0.0000 C   0  0  0  0  0  0  0  0  0  0  0  0
   -2.5472    0.2544    0.0000 S   0  0  0  0  0  0  0  0  0  0  0  0
   -2.0555    0.9168    0.0000 O   0  0  0  0  0  0  0  0  0  0  0  0
   -3.0389   -0.4080    0.0000 O   0  0  0  0  0  0  0  0  0  0  0  0
   -1.8848   -0.2373    0.0000 N   0  0  0  0  0  0  0  0  0  0  0  0
   -1.1277    0.0905    0.0000 C   0  0  0  0  0  0  0  0  0  0  0  0
   -1.0331    0.9101    0.0000 C   0  0  0  0  0  0  0  0  0  0  0  0
   -0.2760    1.2379    0.0000 C   0  0  0  0  0  0  0  0  0  0  0  0
   -1.6955    1.4018    0.0000 C   0  0  0  0  0  0  0  0  0  0  0  0
   -0.4652   -0.4012    0.0000 P   0  0  0  0  0  0  0  0  0  0  0  0
   -0.9570   -1.0637    0.0000 O   0  0  0  0  0  0  0  0  0  0  0  0
    0.0265    0.2612    0.0000 O   0  0  0  0  0  0  0  0  0  0  0  0
    0.1972   -0.8930    0.0000 C   0  0  0  0  0  0  0  0  0  0  0  0
    0.9543   -0.5651    0.0000 C   0  0  0  0  0  0  0  0  0  0  0  0
    1.0489    0.2544    0.0000 C   0  0  0  0  0  0  0  0  0  0  0  0
    0.3865    0.7461    0.0000 O   0  0  0  0  0  0  0  0  0  0  0  0
    1.8060    0.5822    0.0000 O   0  0  0  0  0  0  0  0  0  0  0  0
    1.6167   -1.0569    0.0000 C   0  0  0  0  0  0  0  0  0  0  0  0
    2.3738   -0.7291    0.0000 C   0  0  0  0  0  0  0  0  0  0  0  0
    1.5221   -1.8764    0.0000 C   0  0  0  0  0  0  0  0  0  0  0  0
    2.1845   -2.3682    0.0000 C   0  0  0  0  0  0  0  0  0  0  0  0
    2.9416   -2.0403    0.0000 C   0  0  0  0  0  0  0  0  0  0  0  0
    3.0362   -1.2208    0.0000 C   0  0  0  0  0  0  0  0  0  0  0  0
    3.7933   -0.8930    0.0000 C   0  0  0  0  0  0  0  0  0  0  0  0
    3.8879   -0.0734    0.0000 N   0  0  0  0  0  0  0  0  0  0  0  0
  1  6  2  0
  1  2  1  0
  2  3  2  0
  3  4  1  0
  4  5  2  0
  5  6  1  0
  6  7  1  0
  7 10  1  0
  7  8  2  0
  7  9  2  0
 11 10  1  1
 11 12  1  0
 11 15  1  0
 12 13  1  0
 12 14  1  0
 15 16  2  0
 15 18  1  0
 15 17  1  0
 19 18  1  6
 19 23  1  0
 19 20  1  0
 20 21  2  0
 20 22  1  0
 23 24  2  0
 23 25  1  0
 24 28  1  0
 25 26  2  0
 26 27  1  0
 27 28  2  0
 28 29  1  0
 29 30  1  0
M  END
>  <DRUGBANK_ID>  (1) 
DB06921

>  <COMMON_NAME>  (1) 
(2S)-2-[3-(AMINOMETHYL)PHENYL]-3-[(R)-HYDROXY{(1R)-2-METHYL-1-[(PHENYLSULFONYL)AMINO]PROPYL}PHOSPHORYL]PROPANOIC ACID

$$$$
