
     RDKit          2D

 25 28  0  0  1  0  0  0  0  0999 V2000
    3.9359   -0.8048    0.0000 C   0  0  0  0  0  0  0  0  0  0  0  0
    3.4379   -0.1470    0.0000 N   0  0  0  0  0  0  0  0  0  0  0  0
    3.6774    0.6425    0.0000 C   0  0  0  0  0  0  0  0  0  0  0  0
    3.0005    1.1142    0.0000 C   0  0  0  0  0  0  0  0  0  0  0  0
    2.3427    0.6162    0.0000 C   0  0  0  0  0  0  0  0  0  0  0  0
    2.0724    1.3956    0.0000 C   0  0  0  0  0  0  0  0  0  0  0  0
    2.6131   -0.1633    0.0000 C   0  0  0  0  0  0  0  0  0  0  0  0
    1.9554   -0.6613    0.0000 N   0  0  0  0  0  0  0  0  0  0  0  0
    1.9716   -1.4861    0.0000 C   0  0  0  0  0  0  0  0  0  0  0  0
    1.2785   -0.1896    0.0000 C   0  0  0  0  0  0  0  0  0  0  0  0
    0.4750   -0.3770    0.0000 C   0  0  0  0  0  0  0  0  0  0  0  0
   -0.0890    0.2251    0.0000 C   0  0  0  0  0  0  0  0  0  0  0  0
    0.1505    1.0146    0.0000 C   0  0  0  0  0  0  0  0  0  0  0  0
   -0.4136    1.6167    0.0000 O   0  0  0  0  0  0  0  0  0  0  0  0
   -0.1741    2.4062    0.0000 C   0  0  0  0  0  0  0  0  0  0  0  0
    0.6293    2.5936    0.0000 O   0  0  0  0  0  0  0  0  0  0  0  0
   -0.7381    3.0083    0.0000 N   0  0  0  0  0  0  0  0  0  0  0  0
   -0.4987    3.7978    0.0000 C   0  0  0  0  0  0  0  0  0  0  0  0
   -1.0627    4.3999    0.0000 C   0  0  0  0  0  0  0  0  0  0  0  0
   -0.8233    5.1894    0.0000 C   0  0  0  0  0  0  0  0  0  0  0  0
   -0.0199    5.3768    0.0000 C   0  0  0  0  0  0  0  0  0  0  0  0
    0.5441    4.7747    0.0000 C   0  0  0  0  0  0  0  0  0  0  0  0
    0.3047    3.9852    0.0000 C   0  0  0  0  0  0  0  0  0  0  0  0
    0.9539    1.2020    0.0000 C   0  0  0  0  0  0  0  0  0  0  0  0
    1.5179    0.5999    0.0000 C   0  0  0  0  0  0  0  0  0  0  0  0
  1  2  1  0
  2  3  1  0
  3  4  1  0
  5  4  1  0
  5  6  1  6
  5  7  1  0
  5 25  1  0
  7  2  1  1
  7  8  1  0
  8  9  1  0
  8 10  1  0
 10 11  1  0
 10 25  2  0
 11 12  2  0
 12 13  1  0
 13 14  1  0
 13 24  2  0
 14 15  1  0
 15 16  2  0
 15 17  1  0
 17 18  1  0
 18 19  2  0
 18 23  1  0
 19 20  1  0
 20 21  2  0
 21 22  1  0
 22 23  2  0
 24 25  1  0
M  END
>  <DRUGBANK_ID>  (1) 
DB15317

>  <COMMON_NAME>  (1) 
Posiphen

>  <CAS_NUMBER>  (1) 
116839-68-0

>  <UNII>  (1) 
Z0O4TJ588O

>  <SYNONYMS>  (1) 
(+)-Posiphen

$$$$
