
     RDKit          2D

 26 25  0  0  1  0  0  0  0  0999 V2000
    1.8562   -2.8578    0.0000 C   0  0  0  0  0  0  0  0  0  0  0  0
    2.6812   -2.8578    0.0000 C   0  0  0  0  0  0  0  0  0  0  0  0
    3.0937   -3.5723    0.0000 C   0  0  0  0  0  0  0  0  0  0  0  0
    3.9187   -3.5723    0.0000 C   0  0  0  0  0  0  0  0  0  0  0  0
    4.3312   -2.8578    0.0000 C   0  0  0  0  0  0  0  0  0  0  0  0
    3.9187   -2.1433    0.0000 C   0  0  0  0  0  0  0  0  0  0  0  0
    3.0937   -2.1433    0.0000 O   0  0  0  0  0  0  0  0  0  0  0  0
    4.3312   -1.4289    0.0000 C   0  0  0  0  0  0  0  0  0  0  0  0
    3.9187   -0.7144    0.0000 C   0  0  0  0  0  0  0  0  0  0  0  0
    3.0937   -0.7144    0.0000 C   0  0  0  0  0  0  0  0  0  0  0  0
    2.6812    0.0000    0.0000 C   0  0  0  0  0  0  0  0  0  0  0  0
    1.8562    0.0000    0.0000 C   0  0  0  0  0  0  0  0  0  0  0  0
    1.4437    0.7144    0.0000 C   0  0  0  0  0  0  0  0  0  0  0  0
    0.6187    0.7144    0.0000 C   0  0  0  0  0  0  0  0  0  0  0  0
    0.2062    0.0000    0.0000 O   0  0  0  0  0  0  0  0  0  0  0  0
    0.2062    1.4289    0.0000 C   0  0  0  0  0  0  0  0  0  0  0  0
    0.6187    2.1433    0.0000 C   0  0  0  0  0  0  0  0  0  0  0  0
    0.2062    2.8578    0.0000 C   0  0  0  0  0  0  0  0  0  0  0  0
   -0.6187    2.8578    0.0000 C   0  0  0  0  0  0  0  0  0  0  0  0
   -1.0312    3.5723    0.0000 C   0  0  0  0  0  0  0  0  0  0  0  0
   -1.8562    3.5723    0.0000 C   0  0  0  0  0  0  0  0  0  0  0  0
   -2.2687    2.8578    0.0000 C   0  0  0  0  0  0  0  0  0  0  0  0
   -3.0937    2.8578    0.0000 C   0  0  0  0  0  0  0  0  0  0  0  0
   -3.5062    2.1433    0.0000 C   0  0  0  0  0  0  0  0  0  0  0  0
   -4.3312    2.1433    0.0000 O   0  0  0  0  0  0  0  0  0  0  0  0
   -3.0937    1.4289    0.0000 O   0  0  0  0  0  0  0  0  0  0  0  0
  1  2  1  0
  2  3  1  0
  3  4  2  0
  4  5  1  0
  6  5  1  0
  6  7  1  6
  6  8  1  0
  8  9  2  0
  9 10  1  0
 10 11  2  0
 11 12  1  0
 12 13  2  0
 14 13  1  0
 14 15  1  6
 14 16  1  0
 16 17  1  0
 17 18  2  0
 18 19  1  0
 19 20  1  0
 20 21  2  0
 21 22  1  0
 22 23  1  0
 23 24  1  0
 24 25  1  0
 24 26  2  0
M  END
>  <DRUGBANK_ID>  (1) 
DB18511

>  <COMMON_NAME>  (1) 
AP-001

>  <CAS_NUMBER>  (1) 
660430-03-5

>  <UNII>  (1) 
P3FX063KLI

>  <SYNONYMS>  (1) 
(4Z,7Z,10R,11E,13E,15Z,17S,19Z) 10,17-DIHYDROXY-DOCOSA-4,7,11,13,15,19-HEXAENOIC ACID; 4,7,11,13,15,19-DOCOSAHEXAENOIC ACID, 10,17-DIHYDROXY-, (4Z,7Z,10R,11E,13E,15Z,17S,19Z)-; NEUROPROTECTIN D1; NPD-1; PROTECTIN D1

$$$$
