
     RDKit          2D

 26 28  0  0  1  0  0  0  0  0999 V2000
   -2.4761    0.8249    0.0000 C   0  0  0  0  0  0  0  0  0  0  0  0
   -1.7617    1.2374    0.0000 C   0  0  0  0  0  0  0  0  0  0  0  0
   -1.0473    0.8249    0.0000 C   0  0  0  0  0  0  0  0  0  0  0  0
   -0.3327    1.2374    0.0000 C   0  0  0  0  0  0  0  0  0  0  0  0
   -0.3327    2.0624    0.0000 C   0  0  0  0  0  0  0  0  0  0  0  0
   -1.0473    2.4749    0.0000 C   0  0  0  0  0  0  0  0  0  0  0  0
   -1.7617    2.0624    0.0000 C   0  0  0  0  0  0  0  0  0  0  0  0
   -1.0473    3.2999    0.0000 F   0  0  0  0  0  0  0  0  0  0  0  0
    0.3817    0.8249    0.0000 O   0  0  0  0  0  0  0  0  0  0  0  0
    0.3817    0.0000    0.0000 C   0  0  0  0  0  0  0  0  0  0  0  0
    1.0961   -0.4125    0.0000 C   0  0  0  0  0  0  0  0  0  0  0  0
    1.8807   -0.1575    0.0000 C   0  0  0  0  0  0  0  0  0  0  0  0
    2.3657   -0.8250    0.0000 C   0  0  0  0  0  0  0  0  0  0  0  0
    1.8807   -1.4924    0.0000 C   0  0  0  0  0  0  0  0  0  0  0  0
    1.0961   -1.2375    0.0000 C   0  0  0  0  0  0  0  0  0  0  0  0
    0.3817   -1.6500    0.0000 C   0  0  0  0  0  0  0  0  0  0  0  0
   -0.3327   -1.2375    0.0000 C   0  0  0  0  0  0  0  0  0  0  0  0
   -0.3327   -0.4125    0.0000 C   0  0  0  0  0  0  0  0  0  0  0  0
    0.3817   -2.4750    0.0000 S   0  0  0  0  0  0  0  0  0  0  0  0
   -0.4432   -2.4750    0.0000 O   0  0  0  0  0  0  0  0  0  0  0  0
    1.2067   -2.4750    0.0000 O   0  0  0  0  0  0  0  0  0  0  0  0
    0.3817   -3.3000    0.0000 C   0  0  0  0  0  0  0  0  0  0  0  0
    2.1357   -2.2771    0.0000 O   0  0  0  0  0  0  0  0  0  0  0  0
    3.1907   -0.8250    0.0000 F   0  0  0  0  0  0  0  0  0  0  0  0
    2.1357    0.6270    0.0000 F   0  0  0  0  0  0  0  0  0  0  0  0
   -3.1907    0.4124    0.0000 N   0  0  0  0  0  0  0  0  0  0  0  0
  1  2  1  0
  1 26  3  0
  2  3  2  0
  2  7  1  0
  3  4  1  0
  4  5  2  0
  4  9  1  0
  5  6  1  0
  6  7  2  0
  6  8  1  0
  9 10  1  0
 10 18  1  0
 11 10  2  0
 11 15  1  0
 12 11  1  0
 12 25  1  1
 13 12  1  0
 13 24  1  1
 14 13  1  0
 14 15  1  0
 14 23  1  1
 16 15  2  0
 16 19  1  0
 17 16  1  0
 18 17  2  0
 19 20  2  0
 19 21  2  0
 19 22  1  0
M  END
>  <DRUGBANK_ID>  (1) 
DB15463

>  <COMMON_NAME>  (1) 
Belzutifan

>  <CAS_NUMBER>  (1) 
1672668-24-4

>  <UNII>  (1) 
7K28NB895L

>  <SYNONYMS>  (1) 
Belzutifan

$$$$
