
     RDKit          2D

 34 37  0  0  0  0  0  0  0  0999 V2000
    8.7797   -4.3538    0.0000 Cl  0  0  0  0  0  0  0  0  0  0  0  0
   10.2181   -3.5454    0.0000 F   0  0  0  0  0  0  0  0  0  0  0  0
    1.6500    3.9413    0.0000 O   0  0  0  0  0  0  0  0  0  0  0  0
    4.5080    0.6412    0.0000 O   0  0  0  0  0  0  0  0  0  0  0  0
    3.7935    0.2287    0.0000 O   0  0  0  0  0  0  0  0  0  0  0  0
    3.0791    3.1163    0.0000 N   0  0  0  0  0  0  0  0  0  0  0  0
    4.5080   -1.0088    0.0000 N   0  0  0  0  0  0  0  0  0  0  0  0
    7.3795   -1.8624    0.0000 N   0  0  0  0  0  0  0  0  0  0  0  0
    7.3889    0.6698    0.0000 N   0  0  0  0  0  0  0  0  0  0  0  0
    8.1365   -0.6135    0.0000 N   0  0  0  0  0  0  0  0  0  0  0  0
    3.7935    2.7037    0.0000 C   0  0  0  0  0  0  0  0  0  0  0  0
    2.3645    2.7037    0.0000 C   0  0  0  0  0  0  0  0  0  0  0  0
    3.0791    3.9413    0.0000 C   0  0  0  0  0  0  0  0  0  0  0  0
    3.7935    1.8787    0.0000 C   0  0  0  0  0  0  0  0  0  0  0  0
    1.6500    3.1163    0.0000 C   0  0  0  0  0  0  0  0  0  0  0  0
    2.3645    4.3538    0.0000 C   0  0  0  0  0  0  0  0  0  0  0  0
    4.5080    1.4662    0.0000 C   0  0  0  0  0  0  0  0  0  0  0  0
    5.2224    0.2287    0.0000 C   0  0  0  0  0  0  0  0  0  0  0  0
    5.2224   -0.5963    0.0000 C   0  0  0  0  0  0  0  0  0  0  0  0
    6.6515   -0.5963    0.0000 C   0  0  0  0  0  0  0  0  0  0  0  0
    5.9370    0.6412    0.0000 C   0  0  0  0  0  0  0  0  0  0  0  0
    6.6515    0.2287    0.0000 C   0  0  0  0  0  0  0  0  0  0  0  0
    5.9370   -1.0088    0.0000 C   0  0  0  0  0  0  0  0  0  0  0  0
    7.3889   -1.0375    0.0000 C   0  0  0  0  0  0  0  0  0  0  0  0
    8.0891   -2.2832    0.0000 C   0  0  0  0  0  0  0  0  0  0  0  0
    8.1365    0.2459    0.0000 C   0  0  0  0  0  0  0  0  0  0  0  0
    3.7935   -0.5963    0.0000 C   0  0  0  0  0  0  0  0  0  0  0  0
    8.0796   -3.1081    0.0000 C   0  0  0  0  0  0  0  0  0  0  0  0
    8.8083   -1.8789    0.0000 C   0  0  0  0  0  0  0  0  0  0  0  0
    8.7892   -3.5289    0.0000 C   0  0  0  0  0  0  0  0  0  0  0  0
    9.5180   -2.2997    0.0000 C   0  0  0  0  0  0  0  0  0  0  0  0
    3.0791   -1.0088    0.0000 C   0  0  0  0  0  0  0  0  0  0  0  0
    9.5084   -3.1246    0.0000 C   0  0  0  0  0  0  0  0  0  0  0  0
    2.3645   -0.5963    0.0000 C   0  0  0  0  0  0  0  0  0  0  0  0
  1 30  1  0
  2 33  1  0
  3 15  1  0
  3 16  1  0
  4 17  1  0
  4 18  1  0
  5 27  2  0
  6 11  1  0
  6 12  1  0
  6 13  1  0
  7 19  1  0
  7 27  1  0
  8 24  1  0
  8 25  1  0
  9 22  2  0
  9 26  1  0
 10 24  1  0
 10 26  2  0
 11 14  1  0
 12 15  1  0
 13 16  1  0
 14 17  1  0
 18 19  1  0
 18 21  2  0
 19 23  2  0
 20 22  1  0
 20 23  1  0
 20 24  2  0
 21 22  1  0
 25 28  2  0
 25 29  1  0
 27 32  1  0
 28 30  1  0
 29 31  2  0
 30 33  2  0
 31 33  1  0
 32 34  2  0
M  END
>  <DRUGBANK_ID>  (1) 
DB05424

>  <COMMON_NAME>  (1) 
Canertinib

>  <CAS_NUMBER>  (1) 
267243-28-7

>  <UNII>  (1) 
C78W1K5ASF

>  <SYNONYMS>  (1) 
Canertinib

$$$$
