
     RDKit          2D

 28 31  0  0  0  0  0  0  0  0999 V2000
    6.1368    2.0625    0.0000 C   0  0  0  0  0  0  0  0  0  0  0  0
    5.4223    2.4750    0.0000 O   0  0  0  0  0  0  0  0  0  0  0  0
    4.7079    2.0625    0.0000 C   0  0  0  0  0  0  0  0  0  0  0  0
    5.1928    1.3951    0.0000 O   0  0  0  0  0  0  0  0  0  0  0  0
    3.9934    2.4750    0.0000 C   0  0  0  0  0  0  0  0  0  0  0  0
    3.2789    2.0625    0.0000 C   0  0  0  0  0  0  0  0  0  0  0  0
    2.5645    2.4750    0.0000 C   0  0  0  0  0  0  0  0  0  0  0  0
    2.5645    3.3000    0.0000 C   0  0  0  0  0  0  0  0  0  0  0  0
    1.7798    3.5549    0.0000 O   0  0  0  0  0  0  0  0  0  0  0  0
    1.2949    2.8875    0.0000 C   0  0  0  0  0  0  0  0  0  0  0  0
    1.7798    2.2201    0.0000 O   0  0  0  0  0  0  0  0  0  0  0  0
    3.2789    3.7125    0.0000 C   0  0  0  0  0  0  0  0  0  0  0  0
    3.2789    4.5375    0.0000 O   0  0  0  0  0  0  0  0  0  0  0  0
    3.9934    4.9500    0.0000 C   0  0  0  0  0  0  0  0  0  0  0  0
    3.9934    3.3000    0.0000 C   0  0  0  0  0  0  0  0  0  0  0  0
    3.2789    1.2375    0.0000 C   0  0  0  0  0  0  0  0  0  0  0  0
    3.9934    0.8250    0.0000 C   0  0  0  0  0  0  0  0  0  0  0  0
    4.7079    1.2375    0.0000 C   0  0  0  0  0  0  0  0  0  0  0  0
    5.4223    0.8250    0.0000 O   0  0  0  0  0  0  0  0  0  0  0  0
    3.9934    0.0000    0.0000 C   0  0  0  0  0  0  0  0  0  0  0  0
    3.2789   -0.4125    0.0000 C   0  0  0  0  0  0  0  0  0  0  0  0
    3.2789   -1.2375    0.0000 O   0  0  0  0  0  0  0  0  0  0  0  0
    3.9934   -1.6500    0.0000 C   0  0  0  0  0  0  0  0  0  0  0  0
    2.5645    0.0000    0.0000 C   0  0  0  0  0  0  0  0  0  0  0  0
    2.5645    0.8250    0.0000 C   0  0  0  0  0  0  0  0  0  0  0  0
    1.7798    1.0799    0.0000 O   0  0  0  0  0  0  0  0  0  0  0  0
    1.2949    0.4125    0.0000 C   0  0  0  0  0  0  0  0  0  0  0  0
    1.7798   -0.2549    0.0000 O   0  0  0  0  0  0  0  0  0  0  0  0
  1  2  1  0
  2  3  1  0
  3  4  2  0
  3  5  1  0
  5  6  2  0
  5 15  1  0
  6  7  1  0
  6 16  1  0
  7  8  2  0
  7 11  1  0
  8  9  1  0
  8 12  1  0
  9 10  1  0
 10 11  1  0
 12 13  1  0
 12 15  2  0
 13 14  1  0
 16 17  2  0
 16 25  1  0
 17 18  1  0
 17 20  1  0
 18 19  1  0
 20 21  2  0
 21 22  1  0
 21 24  1  0
 22 23  1  0
 24 25  2  0
 24 28  1  0
 25 26  1  0
 26 27  1  0
 27 28  1  0
M  END
>  <DRUGBANK_ID>  (1) 
DB16014

>  <COMMON_NAME>  (1) 
Bicyclol

>  <CAS_NUMBER>  (1) 
118159-48-1

>  <UNII>  (1) 
9734122TH2

>  <SYNONYMS>  (1) 
4,4'-bi-1,3-benzodioxole)-5-carboxylic acid, 5'-(hydroxymethyl)-7,7'-dimethoxy-, methyl ester

$$$$
