
     RDKit          2D

 21 22  0  0  0  0  0  0  0  0999 V2000
    0.8293   -0.0237    0.0000 N   0  0  0  0  0  0  0  0  0  0  0  0
    0.1788   -0.5292    0.0000 C   0  0  0  0  0  0  0  0  0  0  0  0
    2.0819    0.4358    0.0000 C   0  0  0  0  0  0  0  0  0  0  0  0
    1.6184   -0.2513    0.0000 N   0  0  0  0  0  0  0  0  0  0  0  0
    1.5648    1.0876    0.0000 N   0  0  0  0  0  0  0  0  0  0  0  0
   -0.0831   -1.3155    0.0000 C   0  0  0  0  0  0  0  0  0  0  0  0
   -0.4825   -0.0424    0.0000 O   0  0  0  0  0  0  0  0  0  0  0  0
    0.7968    0.7962    0.0000 C   0  0  0  0  0  0  0  0  0  0  0  0
   -0.9069   -1.3113    0.0000 C   0  0  0  0  0  0  0  0  0  0  0  0
   -1.1564   -0.5249    0.0000 C   0  0  0  0  0  0  0  0  0  0  0  0
    2.9032    0.4698    0.0000 C   0  0  0  0  0  0  0  0  0  0  0  0
    3.2866    1.1989    0.0000 O   0  0  0  0  0  0  0  0  0  0  0  0
    0.3994   -1.9853    0.0000 O   0  0  0  0  0  0  0  0  0  0  0  0
    3.3447   -0.2277    0.0000 N   0  0  0  0  0  0  0  0  0  0  0  0
   -1.3936   -1.9727    0.0000 O   0  0  0  0  0  0  0  0  0  0  0  0
   -1.8649   -0.0973    0.0000 C   0  0  0  0  0  0  0  0  0  0  0  0
   -1.8409    0.7296    0.0000 O   0  0  0  0  0  0  0  0  0  0  0  0
   -2.5422    1.1618    0.0000 P   0  0  0  0  0  0  0  0  0  0  0  0
   -2.5184    1.9853    0.0000 O   0  0  0  0  0  0  0  0  0  0  0  0
   -3.3447    0.9517    0.0000 O   0  0  0  0  0  0  0  0  0  0  0  0
   -2.5501    0.3402    0.0000 O   0  0  0  0  0  0  0  0  0  0  0  0
  2  1  1  1
  3  4  2  0
  3  5  1  0
  4  1  1  0
  5  8  2  0
  6  2  1  0
  6 13  1  6
  7  2  1  0
  8  1  1  0
  9  6  1  0
  9 15  1  6
 10  7  1  0
 10 16  1  1
 10  9  1  0
 11  3  1  0
 12 11  2  0
 14 11  1  0
 17 16  1  0
 17 18  1  0
 18 19  2  0
 18 20  1  0
 18 21  1  0
M  END
>  <DRUGBANK_ID>  (1) 
DB14663

>  <SECONDARY_ACCESSION_NUMBERS>  (1) 
DBSALT001876

>  <COMMON_NAME>  (1) 
Ribavirin monophosphate

>  <CAS_NUMBER>  (1) 
40925-28-8

>  <UNII>  (1) 
O9FVV27P11

>  <SYNONYMS>  (1) 
Ribavirin 5'-monophosphate; Virazole 5'-phosphate

$$$$
