
     RDKit          2D

 35 38  0  0  0  0  0  0  0  0999 V2000
   -0.0336   -0.8365    0.0000 C   0  0  0  0  0  0  0  0  0  0  0  0
   -0.7447   -1.2548    0.0000 C   0  0  0  0  0  0  0  0  0  0  0  0
   -0.0336   -0.0417    0.0000 C   0  0  0  0  0  0  0  0  0  0  0  0
    1.3466   -0.8365    0.0000 C   0  0  0  0  0  0  0  0  0  0  0  0
   -1.4558   -0.8365    0.0000 C   0  0  0  0  0  0  0  0  0  0  0  0
   -0.7447   -2.0495    0.0000 C   0  0  0  0  0  0  0  0  0  0  0  0
    0.6774    0.3765    0.0000 C   0  0  0  0  0  0  0  0  0  0  0  0
   -0.7447    0.3765    0.0000 C   0  0  0  0  0  0  0  0  0  0  0  0
   -0.0336    0.7948    0.0000 C   0  0  0  0  0  0  0  0  0  0  0  0
    1.3466   -0.0417    0.0000 C   0  0  0  0  0  0  0  0  0  0  0  0
   -2.1669   -1.2548    0.0000 C   0  0  0  0  0  0  0  0  0  0  0  0
   -1.4558   -0.0417    0.0000 C   0  0  0  0  0  0  0  0  0  0  0  0
   -1.4558   -2.4678    0.0000 C   0  0  0  0  0  0  0  0  0  0  0  0
    0.6774    1.2131    0.0000 C   0  0  0  0  0  0  0  0  0  0  0  0
   -2.1669   -2.0495    0.0000 C   0  0  0  0  0  0  0  0  0  0  0  0
   -2.8780   -0.8365    0.0000 C   0  0  0  0  0  0  0  0  0  0  0  0
   -2.1669   -0.4182    0.0000 C   0  0  0  0  0  0  0  0  0  0  0  0
   -2.1669    0.3765    0.0000 O   0  0  0  0  0  0  0  0  0  0  0  0
   -0.0336    1.6313    0.0000 O   0  0  0  0  0  0  0  0  0  0  0  0
   -2.8780   -2.4678    0.0000 C   0  0  0  0  0  0  0  0  0  0  0  0
   -3.5891   -1.2548    0.0000 C   0  0  0  0  0  0  0  0  0  0  0  0
   -3.5891   -2.0495    0.0000 C   0  0  0  0  0  0  0  0  0  0  0  0
   -4.3002   -2.4678    0.0000 O   0  0  0  0  0  0  0  0  0  0  0  0
    1.4036    1.6284    0.0000 C   0  0  0  0  0  0  0  0  0  0  0  0
    2.1137    1.2144    0.0000 O   0  0  0  0  0  0  0  0  0  0  0  0
    2.8286    1.6233    0.0000 C   0  0  0  0  0  0  0  0  0  0  0  0
    3.5345    1.2119    0.0000 C   0  0  0  0  0  0  0  0  0  0  0  0
    4.2516    1.6221    0.0000 C   0  0  0  0  0  0  0  0  0  0  0  0
    2.7972    2.4678    0.0000 O   0  0  0  0  0  0  0  0  0  0  0  0
    1.4091    0.7820    0.0000 O   0  0  0  0  0  0  0  0  0  0  0  0
    2.1054    0.3636    0.0000 C   0  0  0  0  0  0  0  0  0  0  0  0
    2.8380    0.7697    0.0000 C   0  0  0  0  0  0  0  0  0  0  0  0
    3.5731    0.3281    0.0000 C   0  0  0  0  0  0  0  0  0  0  0  0
    4.3002    0.7313    0.0000 C   0  0  0  0  0  0  0  0  0  0  0  0
    2.0909   -0.4600    0.0000 O   0  0  0  0  0  0  0  0  0  0  0  0
  1  2  1  0
  1  3  1  0
  1  4  1  1
  2  5  1  0
  2  6  1  6
  3  7  1  0
  3  8  1  0
  3  9  1  1
  4 10  1  0
  5 11  1  0
  5 12  1  1
  6 13  1  0
  7 14  1  0
  7 10  1  0
  7 30  1  6
  8 12  1  0
 11 15  1  0
 11 16  1  0
 11 17  1  1
 12 18  1  1
 13 15  1  0
 14 19  2  0
 14 24  1  0
 15 20  2  0
 16 21  1  0
 20 22  1  0
 21 22  1  0
 22 23  2  0
 24 25  1  0
 25 26  1  0
 26 27  1  0
 26 29  2  0
 27 28  1  0
 30 31  1  0
 31 32  1  0
 31 35  2  0
 32 33  1  0
 33 34  1  0
M  END
>  <DRUGBANK_ID>  (1) 
DB14543

>  <SECONDARY_ACCESSION_NUMBERS>  (1) 
DBSALT000783

>  <COMMON_NAME>  (1) 
Hydrocortisone probutate

>  <CAS_NUMBER>  (1) 
72590-77-3

>  <UNII>  (1) 
O6550D6K3A

>  <SYNONYMS>  (1) 
Hydrocortisone buteprate; Hydrocortisone butyrate propionate; Hydrocortisone probutate

$$$$
