
     RDKit          2D

 17 16  0  0  0  0  0  0  0  0999 V2000
    1.4289    1.0312    0.0000 C   0  0  0  0  0  0  0  0  0  0  0  0
    0.7145    1.4437    0.0000 C   0  0  0  0  0  0  0  0  0  0  0  0
    1.4289    0.2062    0.0000 N   0  0  0  0  0  0  0  0  0  0  0  0
    2.1434    1.4437    0.0000 C   0  0  0  0  0  0  0  0  0  0  0  0
    0.0000    1.0312    0.0000 C   0  0  0  0  0  0  0  0  0  0  0  0
    0.7145   -0.2062    0.0000 C   0  0  0  0  0  0  0  0  0  0  0  0
    2.8578    1.0312    0.0000 O   0  0  0  0  0  0  0  0  0  0  0  0
    2.1434    2.2688    0.0000 O   0  0  0  0  0  0  0  0  0  0  0  0
   -0.7145    1.4437    0.0000 C   0  0  0  0  0  0  0  0  0  0  0  0
    0.7145   -1.0312    0.0000 C   0  0  0  0  0  0  0  0  0  0  0  0
   -1.4289    1.0312    0.0000 N   0  0  0  0  0  0  0  0  0  0  0  0
    0.0000   -1.4437    0.0000 C   0  0  0  0  0  0  0  0  0  0  0  0
   -2.1434    1.4437    0.0000 C   0  0  0  0  0  0  0  0  0  0  0  0
   -0.7145   -1.0312    0.0000 O   0  0  0  0  0  0  0  0  0  0  0  0
    0.0000   -2.2688    0.0000 O   0  0  0  0  0  0  0  0  0  0  0  0
   -2.8578    1.0312    0.0000 N   0  0  0  0  0  0  0  0  0  0  0  0
   -2.1434    2.2688    0.0000 N   0  0  0  0  0  0  0  0  0  0  0  0
  1  2  1  1
  1  3  1  0
  1  4  1  0
  2  5  1  0
  3  6  1  0
  4  7  1  0
  4  8  2  0
  5  9  1  0
  6 10  1  0
  9 11  1  0
 10 12  1  0
 11 13  1  0
 12 14  1  0
 12 15  2  0
 13 16  1  0
 13 17  2  0
M  END
>  <DRUGBANK_ID>  (1) 
DB04189

>  <SECONDARY_ACCESSION_NUMBERS>  (1) 
EXPT00953

>  <COMMON_NAME>  (1) 
N(2)-(2-carboxyethyl)-L-arginine

>  <SYNONYMS>  (1) 
L-N2-(2-Carboxyethyl)arginine; N2-(2-Carboxyethyl)-L-arginine; N2-(2-carboxyethyl)arginine; N2-(carboxyethyl)-L-arginine

$$$$
