
     RDKit          2D

  3  2  0  0  0  0  0  0  0  0999 V2000
    1.2375   -0.7145    0.0000 O   0  0  0  0  0  0  0  0  0  0  0  0
    1.9520   -1.1270    0.0000 P   0  0  0  0  0  0  0  0  0  0  0  0
    2.6664   -0.7145    0.0000 O   0  0  0  0  0  0  0  0  0  0  0  0
  1  2  1  0
  2  3  2  0
M  CHG  1   1  -1
M  END
>  <DRUGBANK_ID>  (1) 
DB04053

>  <SECONDARY_ACCESSION_NUMBERS>  (1) 
EXPT02627

>  <COMMON_NAME>  (1) 
Hypophosphite

>  <CAS_NUMBER>  (1) 
15460-68-1

>  <UNII>  (1) 
238U65NZ04

>  <SYNONYMS>  (1) 
Hypophosphite ion

$$$$
