
     RDKit          2D

 31 34  0  0  0  0  0  0  0  0999 V2000
    0.8807    2.0059    0.0000 O   0  0  0  0  0  0  0  0  0  0  0  0
    1.3933    3.5743    0.0000 O   0  0  0  0  0  0  0  0  0  0  0  0
   -0.3357   -4.1790    0.0000 N   0  0  0  0  0  0  0  0  0  0  0  0
    0.2913    4.8024    0.0000 N   0  0  0  0  0  0  0  0  0  0  0  0
    0.4448   -5.2554    0.0000 N   0  0  0  0  0  0  0  0  0  0  0  0
    0.1501   -2.5292    0.0000 N   0  0  0  0  0  0  0  0  0  0  0  0
   -0.1444   -1.1309    0.0000 N   0  0  0  0  0  0  0  0  0  0  0  0
    1.2138   -1.5748    0.0000 N   0  0  0  0  0  0  0  0  0  0  0  0
    0.5861    3.4042    0.0000 C   0  0  0  0  0  0  0  0  0  0  0  0
    0.0350    4.0183    0.0000 C   0  0  0  0  0  0  0  0  0  0  0  0
    0.4448   -3.9275    0.0000 C   0  0  0  0  0  0  0  0  0  0  0  0
    0.3296    2.6199    0.0000 C   0  0  0  0  0  0  0  0  0  0  0  0
   -0.3357   -5.0040    0.0000 C   0  0  0  0  0  0  0  0  0  0  0  0
    0.9264   -4.5915    0.0000 C   0  0  0  0  0  0  0  0  0  0  0  0
    0.7012   -3.1433    0.0000 C   0  0  0  0  0  0  0  0  0  0  0  0
   -1.0503   -3.7664    0.0000 C   0  0  0  0  0  0  0  0  0  0  0  0
   -0.2595    5.4165    0.0000 C   0  0  0  0  0  0  0  0  0  0  0  0
    1.0986    4.9725    0.0000 C   0  0  0  0  0  0  0  0  0  0  0  0
   -1.0503   -5.4165    0.0000 C   0  0  0  0  0  0  0  0  0  0  0  0
    1.7514   -4.5915    0.0000 C   0  0  0  0  0  0  0  0  0  0  0  0
    0.6244    1.2216    0.0000 C   0  0  0  0  0  0  0  0  0  0  0  0
   -1.7648   -4.1790    0.0000 C   0  0  0  0  0  0  0  0  0  0  0  0
   -1.7648   -5.0040    0.0000 C   0  0  0  0  0  0  0  0  0  0  0  0
    1.5084   -2.9732    0.0000 C   0  0  0  0  0  0  0  0  0  0  0  0
    0.1118   -0.3467    0.0000 C   0  0  0  0  0  0  0  0  0  0  0  0
    0.4065   -1.7450    0.0000 C   0  0  0  0  0  0  0  0  0  0  0  0
   -0.1828    1.0515    0.0000 C   0  0  0  0  0  0  0  0  0  0  0  0
    1.1753    0.6076    0.0000 C   0  0  0  0  0  0  0  0  0  0  0  0
   -0.4391    0.2672    0.0000 C   0  0  0  0  0  0  0  0  0  0  0  0
    0.9191   -0.1766    0.0000 C   0  0  0  0  0  0  0  0  0  0  0  0
    1.7648   -2.1890    0.0000 C   0  0  0  0  0  0  0  0  0  0  0  0
  1 12  1  0
  1 21  1  0
  3 11  1  0
  3 13  1  0
  3 16  1  0
  4 10  1  0
  4 17  1  0
  4 18  1  0
  5 13  2  0
  5 14  1  0
  6 15  2  0
  6 26  1  0
  7 25  1  0
  7 26  1  0
  8 26  2  0
  8 31  1  0
  9  2  1  6
  9 10  1  0
  9 12  1  0
 11 14  2  0
 11 15  1  0
 13 19  1  0
 14 20  1  0
 15 24  1  0
 16 22  2  0
 19 23  2  0
 21 27  2  0
 21 28  1  0
 22 23  1  0
 24 31  2  0
 25 29  2  0
 25 30  1  0
 27 29  1  0
 28 30  2  0
M  END
>  <DRUGBANK_ID>  (1) 
DB07889

>  <COMMON_NAME>  (1) 
(2S)-1-(Dimethylamino)-3-(4-{[4-(2-methylimidazo[1,2-a]pyridin-3-yl)-2-pyrimidinyl]amino}phenoxy)-2-propanol

$$$$
