928
     RDKit          2D

 15 16  0  0  0  0  0  0  0  0999 V2000
    0.7084    3.0771    0.0000 N   0  0  0  0  0  0  0  0  0  0  0  0
    0.7084    2.2521    0.0000 C   0  0  0  0  0  0  0  0  0  0  0  0
    0.7084    1.4271    0.0000 C   0  0  0  0  0  0  0  0  0  0  0  0
    1.3758    0.9422    0.0000 C   0  0  0  0  0  0  0  0  0  0  0  0
    1.1209    0.1575    0.0000 N   0  0  0  0  0  0  0  0  0  0  0  0
    0.0409    0.9422    0.0000 C   0  0  0  0  0  0  0  0  0  0  0  0
   -0.7437    1.1971    0.0000 N   0  0  0  0  0  0  0  0  0  0  0  0
    0.2959    0.1575    0.0000 N   0  0  0  0  0  0  0  0  0  0  0  0
   -0.1890   -0.5099    0.0000 C   0  0  0  0  0  0  0  0  0  0  0  0
    0.1465   -1.2636    0.0000 C   0  0  0  0  0  0  0  0  0  0  0  0
   -0.3384   -1.9310    0.0000 C   0  0  0  0  0  0  0  0  0  0  0  0
   -1.1589   -1.8448    0.0000 C   0  0  0  0  0  0  0  0  0  0  0  0
   -1.6438   -2.5122    0.0000 Cl  0  0  0  0  0  0  0  0  0  0  0  0
   -1.4944   -1.0911    0.0000 C   0  0  0  0  0  0  0  0  0  0  0  0
   -1.0095   -0.4237    0.0000 C   0  0  0  0  0  0  0  0  0  0  0  0
  1  2  3  0
  2  3  1  0
  3  4  1  0
  3  6  2  0
  4  5  2  0
  5  8  1  0
  6  7  1  0
  6  8  1  0
  8  9  1  0
  9 10  2  0
  9 15  1  0
 10 11  1  0
 11 12  2  0
 12 13  1  0
 12 14  1  0
 14 15  2  0
M  END
>  <DRUGBANK_ID>  (1) 
DB07291

>  <COMMON_NAME>  (1) 
5-amino-1-(4-chlorophenyl)-1H-pyrazole-4-carbonitrile

$$$$
