LI2
     RDKit          2D

 33 37  0  0  0  0  0  0  0  0999 V2000
    2.2219    1.9595    0.0000 F   0  0  0  0  0  0  0  0  0  0  0  0
    2.2219    1.1345    0.0000 C   0  0  0  0  0  0  0  0  0  0  0  0
    2.9364    0.7220    0.0000 C   0  0  0  0  0  0  0  0  0  0  0  0
    2.9364   -0.1030    0.0000 C   0  0  0  0  0  0  0  0  0  0  0  0
    2.2219   -0.5155    0.0000 C   0  0  0  0  0  0  0  0  0  0  0  0
    1.5074   -0.1030    0.0000 C   0  0  0  0  0  0  0  0  0  0  0  0
    1.5074    0.7220    0.0000 C   0  0  0  0  0  0  0  0  0  0  0  0
    0.7929   -0.5155    0.0000 C   0  0  0  0  0  0  0  0  0  0  0  0
    0.7929   -1.3405    0.0000 O   0  0  0  0  0  0  0  0  0  0  0  0
    0.0785   -0.1030    0.0000 N   0  0  0  0  0  0  0  0  0  0  0  0
   -0.6360   -0.5155    0.0000 C   0  0  0  0  0  0  0  0  0  0  0  0
   -0.6360   -1.3405    0.0000 C   0  0  0  0  0  0  0  0  0  0  0  0
   -1.3505   -1.7530    0.0000 C   0  0  0  0  0  0  0  0  0  0  0  0
   -2.0649   -1.3405    0.0000 C   0  0  0  0  0  0  0  0  0  0  0  0
   -2.8496   -1.5955    0.0000 N   0  0  0  0  0  0  0  0  0  0  0  0
   -3.3345   -0.9280    0.0000 C   0  0  0  0  0  0  0  0  0  0  0  0
   -2.8496   -0.2606    0.0000 C   0  0  0  0  0  0  0  0  0  0  0  0
   -3.1045    0.5240    0.0000 C   0  0  0  0  0  0  0  0  0  0  0  0
   -3.9115    0.6956    0.0000 C   0  0  0  0  0  0  0  0  0  0  0  0
   -4.1664    1.4802    0.0000 C   0  0  0  0  0  0  0  0  0  0  0  0
   -4.9734    1.6517    0.0000 C   0  0  0  0  0  0  0  0  0  0  0  0
   -5.2283    2.4363    0.0000 C   0  0  0  0  0  0  0  0  0  0  0  0
   -4.6763    3.0494    0.0000 N   0  0  0  0  0  0  0  0  0  0  0  0
   -3.8693    2.8779    0.0000 C   0  0  0  0  0  0  0  0  0  0  0  0
   -3.6144    2.0933    0.0000 C   0  0  0  0  0  0  0  0  0  0  0  0
   -2.0649   -0.5155    0.0000 C   0  0  0  0  0  0  0  0  0  0  0  0
   -1.3505   -0.1030    0.0000 C   0  0  0  0  0  0  0  0  0  0  0  0
    3.6508   -0.5155    0.0000 N   0  0  0  0  0  0  0  0  0  0  0  0
    4.3653   -0.1030    0.0000 C   0  0  0  0  0  0  0  0  0  0  0  0
    5.0798   -0.5155    0.0000 C   0  0  0  0  0  0  0  0  0  0  0  0
    5.0798   -1.3405    0.0000 O   0  0  0  0  0  0  0  0  0  0  0  0
    4.3653   -1.7530    0.0000 C   0  0  0  0  0  0  0  0  0  0  0  0
    3.6508   -1.3405    0.0000 C   0  0  0  0  0  0  0  0  0  0  0  0
  1  2  1  0
  2  3  2  0
  2  7  1  0
  3  4  1  0
  4  5  2  0
  4 28  1  0
  5  6  1  0
  6  7  2  0
  6  8  1  0
  8  9  2  0
  8 10  1  0
 10 11  1  0
 11 12  2  0
 11 27  1  0
 12 13  1  0
 13 14  2  0
 14 15  1  0
 14 26  1  0
 15 16  1  0
 16 17  2  0
 17 18  1  0
 17 26  1  0
 18 19  1  0
 19 20  1  0
 20 21  2  0
 20 25  1  0
 21 22  1  0
 22 23  2  0
 23 24  1  0
 24 25  2  0
 26 27  2  0
 28 29  1  0
 28 33  1  0
 29 30  1  0
 30 31  1  0
 31 32  1  0
 32 33  1  0
M  END
>  <DRUGBANK_ID>  (1) 
DB08091

>  <COMMON_NAME>  (1) 
3-FLUORO-5-MORPHOLIN-4-YL-N-[3-(2-PYRIDIN-4-YLETHYL)-1H-INDOL-5-YL]BENZAMIDE

$$$$
