
     RDKit          2D

 27 30  0  0  0  0  0  0  0  0999 V2000
    4.6906   -0.8351    0.0000 C   0  0  0  0  0  0  0  0  0  0  0  0
    4.4360   -0.0513    0.0000 C   0  0  0  0  0  0  0  0  0  0  0  0
    3.6467    0.2051    0.0000 C   0  0  0  0  0  0  0  0  0  0  0  0
    3.6467    1.0349    0.0000 C   0  0  0  0  0  0  0  0  0  0  0  0
    4.4360    1.2913    0.0000 N   0  0  0  0  0  0  0  0  0  0  0  0
    4.9237    0.6199    0.0000 N   0  0  0  0  0  0  0  0  0  0  0  0
    2.9314    1.4534    0.0000 C   0  0  0  0  0  0  0  0  0  0  0  0
    2.2162    1.0349    0.0000 C   0  0  0  0  0  0  0  0  0  0  0  0
    2.2162    0.2062    0.0000 C   0  0  0  0  0  0  0  0  0  0  0  0
    2.9314   -0.2041    0.0000 C   0  0  0  0  0  0  0  0  0  0  0  0
    1.5032   -0.2069    0.0000 C   0  0  0  0  0  0  0  0  0  0  0  0
    0.7883    0.2031    0.0000 C   0  0  0  0  0  0  0  0  0  0  0  0
    0.0735   -0.2068    0.0000 C   0  0  0  0  0  0  0  0  0  0  0  0
    0.0735   -1.0351    0.0000 C   0  0  0  0  0  0  0  0  0  0  0  0
    0.7881   -1.4534    0.0000 N   0  0  0  0  0  0  0  0  0  0  0  0
    1.5032   -1.0352    0.0000 C   0  0  0  0  0  0  0  0  0  0  0  0
   -0.6395    0.2062    0.0000 O   0  0  0  0  0  0  0  0  0  0  0  0
   -1.3537   -0.2046    0.0000 C   0  0  0  0  0  0  0  0  0  0  0  0
   -2.0668    0.2084    0.0000 C   0  0  0  0  0  0  0  0  0  0  0  0
   -2.0668    1.0324    0.0000 N   0  0  0  0  0  0  0  0  0  0  0  0
   -2.7810   -0.2025    0.0000 C   0  0  0  0  0  0  0  0  0  0  0  0
   -3.4940    0.2105    0.0000 C   0  0  0  0  0  0  0  0  0  0  0  0
   -3.4940    1.0389    0.0000 C   0  0  0  0  0  0  0  0  0  0  0  0
   -4.2106    1.4476    0.0000 C   0  0  0  0  0  0  0  0  0  0  0  0
   -4.9237    1.0325    0.0000 C   0  0  0  0  0  0  0  0  0  0  0  0
   -4.9237    0.2084    0.0000 C   0  0  0  0  0  0  0  0  0  0  0  0
   -4.2107   -0.2046    0.0000 C   0  0  0  0  0  0  0  0  0  0  0  0
  1  2  1  0
  2  3  1  0
  2  6  2  0
  4  3  2  0
  4  7  1  0
  5  4  1  0
  6  5  1  0
  7  8  2  0
  8  9  1  0
  9 10  2  0
  9 11  1  0
 10  3  1  0
 11 12  2  0
 11 16  1  0
 13 12  1  0
 13 17  1  0
 14 13  2  0
 15 14  1  0
 16 15  2  0
 17 18  1  0
 18 19  1  0
 19 20  1  6
 19 21  1  0
 21 22  1  0
 22 23  2  0
 22 27  1  0
 24 23  1  0
 25 24  2  0
 26 25  1  0
 27 26  2  0
M  END
>  <DRUGBANK_ID>  (1) 
DB08568

>  <COMMON_NAME>  (1) 
A-674563

>  <CAS_NUMBER>  (1) 
552325-73-2

>  <UNII>  (1) 
3W2X0WGW6C

>  <SYNONYMS>  (1) 
(alphaS)-alpha-(((5-(3-Methyl-1H-indazol-5-yl)-3-pyridinyl)oxy)methyl)benzeneethanamine

$$$$
