D2G
     RDKit          2D

 14 15  0  0  0  0  0  0  0  0999 V2000
    0.8523    1.1018    0.0000 C   0  0  0  0  0  0  0  0  0  0  0  0
    0.1378    1.5143    0.0000 C   0  0  0  0  0  0  0  0  0  0  0  0
    0.1378    2.3393    0.0000 C   0  0  0  0  0  0  0  0  0  0  0  0
    0.8523    2.7518    0.0000 C   0  0  0  0  0  0  0  0  0  0  0  0
    1.5667    2.3393    0.0000 N   0  0  0  0  0  0  0  0  0  0  0  0
    1.5667    1.5143    0.0000 C   0  0  0  0  0  0  0  0  0  0  0  0
    0.8523    0.2768    0.0000 C   0  0  0  0  0  0  0  0  0  0  0  0
    1.5197   -0.2081    0.0000 C   0  0  0  0  0  0  0  0  0  0  0  0
    1.2648   -0.9927    0.0000 C   0  0  0  0  0  0  0  0  0  0  0  0
    0.4398   -0.9927    0.0000 C   0  0  0  0  0  0  0  0  0  0  0  0
    0.1848   -0.2081    0.0000 O   0  0  0  0  0  0  0  0  0  0  0  0
   -0.0452   -1.6602    0.0000 C   0  0  0  0  0  0  0  0  0  0  0  0
   -0.8656   -1.5739    0.0000 N   0  0  0  0  0  0  0  0  0  0  0  0
   -1.3506   -2.2414    0.0000 C   0  0  0  0  0  0  0  0  0  0  0  0
  1  2  2  0
  1  6  1  0
  1  7  1  0
  2  3  1  0
  3  4  2  0
  4  5  1  0
  5  6  2  0
  7  8  2  0
  7 11  1  0
  8  9  1  0
  9 10  2  0
 10 11  1  0
 10 12  1  0
 12 13  1  0
 13 14  1  0
M  END
>  <DRUGBANK_ID>  (1) 
DB07617

>  <COMMON_NAME>  (1) 
N-METHYL(5-(PYRIDIN-3-YL)FURAN-2-YL)METHANAMINE

>  <UNII>  (1) 
9H3XGZ5L94

$$$$
