G15
     RDKit          2D

 31 34  0  0  0  0  0  0  0  0999 V2000
   -0.6224   -4.6749    0.0000 O   0  0  0  0  0  0  0  0  0  0  0  0
    0.1981   -4.5886    0.0000 C   0  0  0  0  0  0  0  0  0  0  0  0
    0.6830   -5.2561    0.0000 N   0  0  0  0  0  0  0  0  0  0  0  0
    1.5035   -5.1698    0.0000 C   0  0  0  0  0  0  0  0  0  0  0  0
    1.9884   -5.8373    0.0000 C   0  0  0  0  0  0  0  0  0  0  0  0
    1.6529   -6.5910    0.0000 O   0  0  0  0  0  0  0  0  0  0  0  0
    0.8324   -6.6772    0.0000 C   0  0  0  0  0  0  0  0  0  0  0  0
    0.3475   -6.0098    0.0000 C   0  0  0  0  0  0  0  0  0  0  0  0
    0.5337   -3.8350    0.0000 C   0  0  0  0  0  0  0  0  0  0  0  0
    1.3541   -3.7487    0.0000 C   0  0  0  0  0  0  0  0  0  0  0  0
    0.0487   -3.1675    0.0000 N   0  0  0  0  0  0  0  0  0  0  0  0
   -0.7763   -3.1675    0.0000 C   0  0  0  0  0  0  0  0  0  0  0  0
   -1.0312   -2.3829    0.0000 C   0  0  0  0  0  0  0  0  0  0  0  0
    0.3037   -2.3829    0.0000 C   0  0  0  0  0  0  0  0  0  0  0  0
    1.0883   -2.1280    0.0000 O   0  0  0  0  0  0  0  0  0  0  0  0
   -0.3638   -1.8980    0.0000 C   0  0  0  0  0  0  0  0  0  0  0  0
   -0.3638   -1.0730    0.0000 N   0  0  0  0  0  0  0  0  0  0  0  0
   -1.0782   -0.6605    0.0000 S   0  0  0  0  0  0  0  0  0  0  0  0
   -1.4907   -1.3750    0.0000 O   0  0  0  0  0  0  0  0  0  0  0  0
   -0.6657    0.0540    0.0000 O   0  0  0  0  0  0  0  0  0  0  0  0
   -1.7927   -0.2480    0.0000 C   0  0  0  0  0  0  0  0  0  0  0  0
   -2.5464   -0.5835    0.0000 N   0  0  0  0  0  0  0  0  0  0  0  0
   -3.0984    0.0296    0.0000 N   0  0  0  0  0  0  0  0  0  0  0  0
   -1.8789    0.5725    0.0000 N   0  0  0  0  0  0  0  0  0  0  0  0
   -2.6859    0.7440    0.0000 C   0  0  0  0  0  0  0  0  0  0  0  0
   -3.0215    1.4977    0.0000 C   0  0  0  0  0  0  0  0  0  0  0  0
   -3.8284    1.6692    0.0000 C   0  0  0  0  0  0  0  0  0  0  0  0
   -3.9147    2.4897    0.0000 C   0  0  0  0  0  0  0  0  0  0  0  0
   -3.1610    2.8253    0.0000 C   0  0  0  0  0  0  0  0  0  0  0  0
   -2.6090    2.2122    0.0000 S   0  0  0  0  0  0  0  0  0  0  0  0
   -2.9895    3.6322    0.0000 Cl  0  0  0  0  0  0  0  0  0  0  0  0
  1  2  2  0
  2  3  1  0
  2  9  1  0
  3  4  1  0
  3  8  1  0
  4  5  1  0
  5  6  1  0
  6  7  1  0
  7  8  1  0
  9 10  1  1
  9 11  1  0
 11 12  1  0
 11 14  1  0
 12 13  1  0
 13 16  1  0
 14 15  2  0
 14 16  1  0
 16 17  1  6
 17 18  1  0
 18 20  2  0
 18 21  1  0
 18 19  2  0
 21 22  2  0
 21 24  1  0
 22 23  1  0
 23 25  1  0
 24 25  2  0
 25 26  1  0
 26 27  2  0
 26 30  1  0
 27 28  1  0
 28 29  2  0
 29 30  1  0
 29 31  1  0
M  END
>  <DRUGBANK_ID>  (1) 
DB07804

>  <COMMON_NAME>  (1) 
5-(5-CHLORO-2-THIENYL)-N-{(3S)-1-[(1S)-1-METHYL-2-MORPHOLIN-4-YL-2-OXOETHYL]-2-OXOPYRROLIDIN-3-YL}-1H-1,2,4-TRIAZOLE-3-SULFONAMIDE

$$$$
