
     RDKit          2D

 36 40  0  0  0  0  0  0  0  0999 V2000
   -3.5498    1.2430    0.0000 C   0  0  0  0  0  0  0  0  0  0  0  0
   -3.5498    0.4105    0.0000 C   0  0  0  0  0  0  0  0  0  0  0  0
   -2.8331    0.0029    0.0000 C   0  0  0  0  0  0  0  0  0  0  0  0
   -2.1229    0.4142    0.0000 C   0  0  0  0  0  0  0  0  0  0  0  0
   -2.1229    1.2433    0.0000 C   0  0  0  0  0  0  0  0  0  0  0  0
   -2.8350    1.6549    0.0000 C   0  0  0  0  0  0  0  0  0  0  0  0
   -1.4099    1.6539    0.0000 C   0  0  0  0  0  0  0  0  0  0  0  0
   -0.6901    1.2417    0.0000 N   0  0  0  0  0  0  0  0  0  0  0  0
   -0.6901    0.4170    0.0000 N   0  0  0  0  0  0  0  0  0  0  0  0
   -1.4047    0.0004    0.0000 C   0  0  0  0  0  0  0  0  0  0  0  0
   -1.4047   -0.8235    0.0000 C   0  0  0  0  0  0  0  0  0  0  0  0
   -0.6863   -1.2407    0.0000 C   0  0  0  0  0  0  0  0  0  0  0  0
   -0.6863   -2.0624    0.0000 C   0  0  0  0  0  0  0  0  0  0  0  0
   -1.4058   -2.4746    0.0000 C   0  0  0  0  0  0  0  0  0  0  0  0
   -2.1178   -2.0659    0.0000 C   0  0  0  0  0  0  0  0  0  0  0  0
   -2.1178   -1.2422    0.0000 C   0  0  0  0  0  0  0  0  0  0  0  0
   -2.8323   -2.4780    0.0000 F   0  0  0  0  0  0  0  0  0  0  0  0
    0.0245    1.6539    0.0000 C   0  0  0  0  0  0  0  0  0  0  0  0
    0.7391    1.2417    0.0000 C   0  0  0  0  0  0  0  0  0  0  0  0
    1.4539    1.6539    0.0000 N   0  0  0  0  0  0  0  0  0  0  0  0
    2.1685    1.2417    0.0000 C   0  0  0  0  0  0  0  0  0  0  0  0
    2.8880    1.6537    0.0000 C   0  0  0  0  0  0  0  0  0  0  0  0
    3.6002    1.2421    0.0000 C   0  0  0  0  0  0  0  0  0  0  0  0
    3.6002    0.4130    0.0000 C   0  0  0  0  0  0  0  0  0  0  0  0
    2.8898    0.0015    0.0000 C   0  0  0  0  0  0  0  0  0  0  0  0
    2.1685    0.4092    0.0000 C   0  0  0  0  0  0  0  0  0  0  0  0
    4.3874    0.1589    0.0000 N   0  0  0  0  0  0  0  0  0  0  0  0
    4.8698    0.8253    0.0000 C   0  0  0  0  0  0  0  0  0  0  0  0
    4.3873    1.4961    0.0000 O   0  0  0  0  0  0  0  0  0  0  0  0
    5.6985    0.8253    0.0000 C   0  0  0  0  0  0  0  0  0  0  0  0
    1.4539    2.4780    0.0000 C   0  0  0  0  0  0  0  0  0  0  0  0
    0.7391    0.4128    0.0000 O   0  0  0  0  0  0  0  0  0  0  0  0
   -1.4099    2.4780    0.0000 O   0  0  0  0  0  0  0  0  0  0  0  0
   -4.2645    1.6551    0.0000 O   0  0  0  0  0  0  0  0  0  0  0  0
   -4.9838    1.2430    0.0000 C   0  0  0  0  0  0  0  0  0  0  0  0
   -5.6985    1.6551    0.0000 C   0  0  0  0  0  0  0  0  0  0  0  0
  1  2  2  0
  1 34  1  0
  2  3  1  0
  3  4  2  0
  4  5  1  0
  4 10  1  0
  5  6  2  0
  5  7  1  0
  6  1  1  0
  7 33  2  0
  8  7  1  0
  8 18  1  0
  9  8  1  0
 10  9  2  0
 10 11  1  0
 11 16  1  0
 12 11  2  0
 13 12  1  0
 14 13  2  0
 15 14  1  0
 15 17  1  0
 16 15  2  0
 18 19  1  0
 19 20  1  0
 19 32  2  0
 20 21  1  0
 20 31  1  0
 21 26  1  0
 22 21  2  0
 23 22  1  0
 23 29  1  0
 24 23  2  0
 24 27  1  0
 25 24  1  0
 26 25  2  0
 27 28  2  0
 28 29  1  0
 28 30  1  0
 34 35  1  0
 35 36  1  0
M  END
>  <DRUGBANK_ID>  (1) 
DB16878

>  <COMMON_NAME>  (1) 
FDL169

>  <CAS_NUMBER>  (1) 
1628416-28-3

>  <UNII>  (1) 
49PN4S4FDH

>  <SYNONYMS>  (1) 
2-(7-ethoxy-4-(3-fluorophenyl)-1-oxophthalazin-2(1H)-yl)-N-methyl-N-(2-methylbenzo(D)oxazol-6-yl)acetamide; 2-(7-ethoxy-4-(3-fluorophenyl)-1-oxophthalazin-2(1H)-yl)-N-methyl-N-(2-methylbenzo[D]oxazol-6-yl)acetamide

$$$$
