
     RDKit          2D

 36 37  0  0  0  0  0  0  0  0999 V2000
   -8.1359   -1.1615    0.0000 C   0  0  0  0  0  0  0  0  0  0  0  0
   -7.4207   -0.7501    0.0000 C   0  0  0  0  0  0  0  0  0  0  0  0
   -6.7056   -1.1615    0.0000 C   0  0  0  0  0  0  0  0  0  0  0  0
   -5.9907   -0.7501    0.0000 C   0  0  0  0  0  0  0  0  0  0  0  0
   -5.2755   -1.1615    0.0000 C   0  0  0  0  0  0  0  0  0  0  0  0
   -4.5604   -0.7501    0.0000 C   0  0  0  0  0  0  0  0  0  0  0  0
   -3.8453   -1.1615    0.0000 C   0  0  0  0  0  0  0  0  0  0  0  0
   -3.1302   -0.7501    0.0000 C   0  0  0  0  0  0  0  0  0  0  0  0
   -2.4152   -1.1615    0.0000 C   0  0  0  0  0  0  0  0  0  0  0  0
   -1.7001   -0.7501    0.0000 C   0  0  0  0  0  0  0  0  0  0  0  0
   -0.9850   -1.1615    0.0000 C   0  0  0  0  0  0  0  0  0  0  0  0
   -0.2699   -0.7501    0.0000 C   0  0  0  0  0  0  0  0  0  0  0  0
    0.4450   -1.1615    0.0000 C   0  0  0  0  0  0  0  0  0  0  0  0
    1.1601   -0.7501    0.0000 C   0  0  0  0  0  0  0  0  0  0  0  0
    1.8752   -1.1615    0.0000 C   0  0  0  0  0  0  0  0  0  0  0  0
    2.5903   -0.7501    0.0000 C   0  0  0  0  0  0  0  0  0  0  0  0
    3.3055   -1.1615    0.0000 C   0  0  0  0  0  0  0  0  0  0  0  0
    4.0204   -0.7501    0.0000 C   0  0  0  0  0  0  0  0  0  0  0  0
    4.7355   -1.1615    0.0000 O   0  0  0  0  0  0  0  0  0  0  0  0
    5.4507   -0.7501    0.0000 C   0  0  0  0  0  0  0  0  0  0  0  0
    6.1658   -1.1615    0.0000 C   0  0  0  0  0  0  0  0  0  0  0  0
    7.4383    0.1546    0.0000 N   0  0  0  0  0  0  0  0  0  0  0  0
    7.4849   -1.1732    0.0000 C   0  0  0  0  0  0  0  0  0  0  0  0
    6.7436    0.5604    0.0000 C   0  0  0  0  0  0  0  0  0  0  0  0
    6.7436    1.3689    0.0000 N   0  0  0  0  0  0  0  0  0  0  0  0
    7.2311   -1.9263    0.0000 C   0  0  0  0  0  0  0  0  0  0  0  0
    6.8167   -0.6859    0.0000 O   0  0  0  0  0  0  0  0  0  0  0  0
    8.1359    0.5604    0.0000 C   0  0  0  0  0  0  0  0  0  0  0  0
    6.4226   -1.9263    0.0000 C   0  0  0  0  0  0  0  0  0  0  0  0
    8.1359    1.3805    0.0000 C   0  0  0  0  0  0  0  0  0  0  0  0
    7.4383    1.7803    0.0000 C   0  0  0  0  0  0  0  0  0  0  0  0
    6.1716    0.2305    0.0000 O   0  0  0  0  0  0  0  0  0  0  0  0
    7.7156   -2.5655    0.0000 O   0  0  0  0  0  0  0  0  0  0  0  0
    7.4383    2.5743    0.0000 N   0  0  0  0  0  0  0  0  0  0  0  0
    5.9615   -2.5743    0.0000 O   0  0  0  0  0  0  0  0  0  0  0  0
    4.0204    0.0758    0.0000 O   0  0  0  0  0  0  0  0  0  0  0  0
  1  2  1  0
  2  3  1  0
  3  4  1  0
  4  5  1  0
  5  6  1  0
  6  7  1  0
  7  8  1  0
  8  9  1  0
  9 10  2  0
 10 11  1  0
 11 12  1  0
 12 13  1  0
 13 14  1  0
 14 15  1  0
 15 16  1  0
 16 17  1  0
 17 18  1  0
 18 19  1  0
 18 36  2  0
 19 20  1  0
 21 20  1  1
 21 27  1  0
 21 29  1  0
 23 22  1  1
 24 22  1  0
 25 24  1  0
 26 23  1  0
 26 33  1  1
 27 23  1  0
 28 22  1  0
 29 26  1  0
 29 35  1  6
 30 28  2  0
 31 30  1  0
 31 25  2  0
 32 24  2  0
 34 31  1  0
M  END
>  <DRUGBANK_ID>  (1) 
DB05494

>  <COMMON_NAME>  (1) 
Elacytarabine

>  <CAS_NUMBER>  (1) 
188181-42-2

>  <UNII>  (1) 
TA7WJG93AR

>  <SYNONYMS>  (1) 
Elacytarabine

$$$$
