
     RDKit          2D

 23 25  0  0  1  0  0  0  0  0999 V2000
    4.0668    2.3479    0.0000 N   0  0  0  0  0  0  0  0  0  0  0  0
    3.3523    1.9354    0.0000 C   0  0  0  0  0  0  0  0  0  0  0  0
    3.3523    1.1104    0.0000 N   0  0  0  0  0  0  0  0  0  0  0  0
    2.6378    0.6979    0.0000 C   0  0  0  0  0  0  0  0  0  0  0  0
    2.6378   -0.1271    0.0000 O   0  0  0  0  0  0  0  0  0  0  0  0
    1.9233    1.1104    0.0000 C   0  0  0  0  0  0  0  0  0  0  0  0
    1.9233    1.9354    0.0000 C   0  0  0  0  0  0  0  0  0  0  0  0
    2.6378    2.3479    0.0000 N   0  0  0  0  0  0  0  0  0  0  0  0
    1.1387    2.1904    0.0000 N   0  0  0  0  0  0  0  0  0  0  0  0
    0.6538    1.5229    0.0000 C   0  0  0  0  0  0  0  0  0  0  0  0
    1.1387    0.8555    0.0000 N   0  0  0  0  0  0  0  0  0  0  0  0
    0.8838    2.9750    0.0000 C   0  0  0  0  0  0  0  0  0  0  0  0
    0.0992    3.2299    0.0000 C   0  0  0  0  0  0  0  0  0  0  0  0
    0.0992    4.0549    0.0000 C   0  0  0  0  0  0  0  0  0  0  0  0
   -0.5683    4.5399    0.0000 O   0  0  0  0  0  0  0  0  0  0  0  0
    0.8838    4.3099    0.0000 C   0  0  0  0  0  0  0  0  0  0  0  0
    1.1387    5.0945    0.0000 C   0  0  0  0  0  0  0  0  0  0  0  0
    1.9457    5.2660    0.0000 O   0  0  0  0  0  0  0  0  0  0  0  0
    2.2006    6.0507    0.0000 P   0  0  0  0  0  0  0  0  0  0  0  0
    2.4556    6.8353    0.0000 O   0  0  0  0  0  0  0  0  0  0  0  0
    2.9853    5.7957    0.0000 O   0  0  0  0  0  0  0  0  0  0  0  0
    1.4160    6.3056    0.0000 O   0  0  0  0  0  0  0  0  0  0  0  0
    1.3687    3.6424    0.0000 O   0  0  0  0  0  0  0  0  0  0  0  0
  1  2  1  0
  2  3  2  0
  2  8  1  0
  3  4  1  0
  4  5  2  0
  4  6  1  0
  6  7  2  0
  6 11  1  0
  7  8  1  0
  7  9  1  0
  9 10  1  0
 10 11  2  0
 12  9  1  1
 12 13  1  0
 12 23  1  0
 13 14  1  0
 14 15  1  6
 14 16  1  0
 16 17  1  1
 16 23  1  0
 17 18  1  0
 18 19  1  0
 19 20  1  0
 19 21  1  0
 19 22  2  0
M  END
>  <DRUGBANK_ID>  (1) 
DB04457

>  <SECONDARY_ACCESSION_NUMBERS>  (1) 
EXPT01182

>  <COMMON_NAME>  (1) 
2'-Deoxyguanosine-5'-Monophosphate

>  <CAS_NUMBER>  (1) 
902-04-5

>  <UNII>  (1) 
7EAM4TG712

$$$$
