
     RDKit          2D

 16 17  0  0  0  0  0  0  0  0999 V2000
   -0.7270   -0.0026    0.0000 C   0  0  0  0  0  0  0  0  0  0  0  0
   -0.1749   -0.6157    0.0000 C   0  0  0  0  0  0  0  0  0  0  0  0
    0.6320   -0.4441    0.0000 C   0  0  0  0  0  0  0  0  0  0  0  0
    1.1841   -1.0572    0.0000 C   0  0  0  0  0  0  0  0  0  0  0  0
    1.8515   -1.5422    0.0000 C   0  0  0  0  0  0  0  0  0  0  0  0
    1.5966   -2.3268    0.0000 C   0  0  0  0  0  0  0  0  0  0  0  0
    0.7716   -2.3268    0.0000 N   0  0  0  0  0  0  0  0  0  0  0  0
    0.2866   -2.9942    0.0000 C   0  0  0  0  0  0  0  0  0  0  0  0
    0.5166   -1.5422    0.0000 C   0  0  0  0  0  0  0  0  0  0  0  0
    1.7361   -0.4441    0.0000 C   0  0  0  0  0  0  0  0  0  0  0  0
    1.4812    0.3405    0.0000 C   0  0  0  0  0  0  0  0  0  0  0  0
    2.0332    0.9536    0.0000 C   0  0  0  0  0  0  0  0  0  0  0  0
    2.8402    0.7820    0.0000 C   0  0  0  0  0  0  0  0  0  0  0  0
    3.0951   -0.0026    0.0000 C   0  0  0  0  0  0  0  0  0  0  0  0
    3.9021   -0.1741    0.0000 O   0  0  0  0  0  0  0  0  0  0  0  0
    2.5431   -0.6157    0.0000 C   0  0  0  0  0  0  0  0  0  0  0  0
  1  2  1  0
  2  3  1  0
  3  4  1  0
  4  5  1  0
  4  9  1  0
  4 10  1  0
  5  6  1  0
  6  7  1  0
  7  8  1  0
  7  9  1  0
 10 11  2  0
 10 16  1  0
 11 12  1  0
 12 13  2  0
 13 14  1  0
 14 15  1  0
 14 16  2  0
M  END
>  <DRUGBANK_ID>  (1) 
DB17993

>  <COMMON_NAME>  (1) 
Profadol

>  <CAS_NUMBER>  (1) 
428-37-5

>  <UNII>  (1) 
41GDG43FTT

>  <SYNONYMS>  (1) 
A-2205 free base; Ci-572 free base; Dl-profadol; M-(1-methyl-3-propyl-3-pyrrolidinyl)phenol; Phenol, 3-(1-methyl-3-propyl-3-pyrrolidinyl)-; Phenol, m-(1-methyl-3-propyl-3-pyrrolidinyl)-

$$$$
