
     RDKit          2D

 25 24  0  0  0  0  0  0  0  0999 V2000
   -0.7334    1.1704    0.0000 C   0  0  0  0  0  0  0  0  0  0  0  0
   -1.4479    0.7579    0.0000 C   0  0  0  0  0  0  0  0  0  0  0  0
   -2.1154   -0.5519    0.0000 C   0  0  0  0  0  0  0  0  0  0  0  0
   -1.8604   -1.3366    0.0000 C   0  0  0  0  0  0  0  0  0  0  0  0
   -1.4479   -0.0670    0.0000 C   0  0  0  0  0  0  0  0  0  0  0  0
   -1.0354   -1.3366    0.0000 C   0  0  0  0  0  0  0  0  0  0  0  0
   -0.7334    1.9954    0.0000 O   0  0  0  0  0  0  0  0  0  0  0  0
   -2.1624    1.1704    0.0000 O   0  0  0  0  0  0  0  0  0  0  0  0
   -2.9000   -0.2970    0.0000 O   0  0  0  0  0  0  0  0  0  0  0  0
   -2.3453   -2.0040    0.0000 O   0  0  0  0  0  0  0  0  0  0  0  0
   -0.5505   -2.0040    0.0000 O   0  0  0  0  0  0  0  0  0  0  0  0
   -0.7805   -0.5519    0.0000 O   0  0  0  0  0  0  0  0  0  0  0  0
    3.5016    1.1790    0.0000 C   0  0  0  0  0  0  0  0  0  0  0  0
    2.7872    0.7665    0.0000 C   0  0  0  0  0  0  0  0  0  0  0  0
    2.1197   -0.5433    0.0000 C   0  0  0  0  0  0  0  0  0  0  0  0
    2.3747   -1.3279    0.0000 C   0  0  0  0  0  0  0  0  0  0  0  0
    2.7872   -0.0584    0.0000 C   0  0  0  0  0  0  0  0  0  0  0  0
    3.1997   -1.3279    0.0000 C   0  0  0  0  0  0  0  0  0  0  0  0
    3.5016    2.0040    0.0000 O   0  0  0  0  0  0  0  0  0  0  0  0
    2.0727    1.1790    0.0000 O   0  0  0  0  0  0  0  0  0  0  0  0
    1.3351   -0.2884    0.0000 O   0  0  0  0  0  0  0  0  0  0  0  0
    1.8898   -1.9954    0.0000 O   0  0  0  0  0  0  0  0  0  0  0  0
    3.6846   -1.9954    0.0000 O   0  0  0  0  0  0  0  0  0  0  0  0
    3.4546   -0.5433    0.0000 O   0  0  0  0  0  0  0  0  0  0  0  0
   -3.6846   -0.0421    0.0000 Fe  0  0  0  0  0 15  0  0  0  0  0  0
  2  1  1  0
  2  5  1  0
  2  8  1  1
  4  3  2  0
  5  3  1  0
  5 12  1  1
  6  4  1  0
  7  1  1  0
  9  3  1  0
 10  4  1  0
 11  6  2  0
 12  6  1  0
 14 13  1  0
 14 17  1  0
 14 20  1  1
 16 15  2  0
 17 15  1  0
 17 24  1  1
 18 16  1  0
 19 13  1  0
 21 15  1  0
 22 16  1  0
 23 18  2  0
 24 18  1  0
M  CHG  3   9  -1  10  -1  25   2
M  END
>  <DRUGBANK_ID>  (1) 
DB14490

>  <SECONDARY_ACCESSION_NUMBERS>  (1) 
DBSALT000075

>  <COMMON_NAME>  (1) 
Ferrous ascorbate

>  <CAS_NUMBER>  (1) 
24808-52-4

>  <UNII>  (1) 
DI3477D0PI

>  <SYNONYMS>  (1) 
Ferrous cevitamate; Iron(2+) L-ascorbate; L-Ascorbic acid, iron complex

$$$$
