
     RDKit          2D

 38 43  0  0  0  0  0  0  0  0999 V2000
   -5.0747   -5.2354    0.0000 C   0  0  0  0  0  0  0  0  0  0  0  0
    0.6411    2.1896    0.0000 C   0  0  0  0  0  0  0  0  0  0  0  0
   -0.0734    2.6021    0.0000 C   0  0  0  0  0  0  0  0  0  0  0  0
    1.3556   -2.3479    0.0000 C   0  0  0  0  0  0  0  0  0  0  0  0
    2.0701   -1.1104    0.0000 C   0  0  0  0  0  0  0  0  0  0  0  0
   -3.6457   -5.2354    0.0000 C   0  0  0  0  0  0  0  0  0  0  0  0
   -4.3602   -3.9979    0.0000 C   0  0  0  0  0  0  0  0  0  0  0  0
   -2.9312   -4.8229    0.0000 C   0  0  0  0  0  0  0  0  0  0  0  0
   -3.6457   -3.5854    0.0000 C   0  0  0  0  0  0  0  0  0  0  0  0
   -2.2168   -3.5854    0.0000 C   0  0  0  0  0  0  0  0  0  0  0  0
    2.0701   -2.7604    0.0000 C   0  0  0  0  0  0  0  0  0  0  0  0
    2.7845   -1.5229    0.0000 C   0  0  0  0  0  0  0  0  0  0  0  0
   -1.5023   -3.9979    0.0000 C   0  0  0  0  0  0  0  0  0  0  0  0
   -1.5023   -2.3479    0.0000 C   0  0  0  0  0  0  0  0  0  0  0  0
   -0.0734   -2.3479    0.0000 C   0  0  0  0  0  0  0  0  0  0  0  0
   -2.2168   -0.2854    0.0000 C   0  0  0  0  0  0  0  0  0  0  0  0
   -2.0574    1.7771    0.0000 C   0  0  0  0  0  0  0  0  0  0  0  0
    1.3556   -1.5229    0.0000 C   0  0  0  0  0  0  0  0  0  0  0  0
   -0.7878   -2.7604    0.0000 C   0  0  0  0  0  0  0  0  0  0  0  0
    0.6411    1.3646    0.0000 C   0  0  0  0  0  0  0  0  0  0  0  0
   -1.5023   -1.5229    0.0000 C   0  0  0  0  0  0  0  0  0  0  0  0
   -0.7878    2.1896    0.0000 C   0  0  0  0  0  0  0  0  0  0  0  0
   -0.0734   -1.5229    0.0000 C   0  0  0  0  0  0  0  0  0  0  0  0
   -0.7878   -1.1104    0.0000 C   0  0  0  0  0  0  0  0  0  0  0  0
   -0.0734    0.9521    0.0000 C   0  0  0  0  0  0  0  0  0  0  0  0
   -0.7878    1.3646    0.0000 C   0  0  0  0  0  0  0  0  0  0  0  0
   -0.7878   -0.2854    0.0000 C   0  0  0  0  0  0  0  0  0  0  0  0
    1.3556    0.9521    0.0000 Cl  0  0  0  0  0  0  0  0  0  0  0  0
   -2.2168   -1.1104    0.0000 N   0  0  0  0  0  0  0  0  0  0  0  0
   -1.5023    0.1271    0.0000 N   0  0  0  0  0  0  0  0  0  0  0  0
   -0.0734    0.1271    0.0000 N   0  0  0  0  0  0  0  0  0  0  0  0
   -4.3602   -4.8229    0.0000 N   0  0  0  0  0  0  0  0  0  0  0  0
   -2.9312   -3.9979    0.0000 N   0  0  0  0  0  0  0  0  0  0  0  0
    2.7845   -2.3479    0.0000 O   0  0  0  0  0  0  0  0  0  0  0  0
   -0.7878   -3.5854    0.0000 O   0  0  0  0  0  0  0  0  0  0  0  0
   -1.5724    2.4445    0.0000 O   0  0  0  0  0  0  0  0  0  0  0  0
   -1.5724    1.1096    0.0000 O   0  0  0  0  0  0  0  0  0  0  0  0
    0.6411   -1.1104    0.0000 O   0  0  0  0  0  0  0  0  0  0  0  0
  3  2  2  0
  8  6  1  0
  9  7  1  0
 11  4  1  0
 12  5  1  0
 13 10  1  0
 18  4  1  0
 18  5  1  0
 19 14  2  0
 19 15  1  0
 20  2  1  0
 21 14  1  0
 22  3  1  0
 23 15  2  0
 24 21  2  0
 24 23  1  0
 25 20  2  0
 26 22  2  0
 26 25  1  0
 27 24  1  0
 28 20  1  0
 29 16  2  0
 29 21  1  0
 30 16  1  0
 30 27  2  0
 31 25  1  0
 31 27  1  0
 32  1  1  0
 32  6  1  0
 32  7  1  0
 33  8  1  0
 33  9  1  0
 33 10  1  0
 34 11  1  0
 34 12  1  0
 35 13  1  0
 35 19  1  0
 36 17  1  0
 36 22  1  0
 37 17  1  0
 37 26  1  0
 38 18  1  0
 38 23  1  0
M  END
>  <DRUGBANK_ID>  (1) 
DB11805

>  <COMMON_NAME>  (1) 
Saracatinib

>  <CAS_NUMBER>  (1) 
379231-04-6

>  <UNII>  (1) 
9KD24QGH76

>  <SYNONYMS>  (1) 
Saracatinib

$$$$
