
     RDKit          2D

 21 25  0  0  0  0  0  0  0  0999 V2000
    6.5428   -1.4388    0.0000 N   0  0  0  0  0  0  0  0  0  0  0  0
    3.8235    0.9922    0.0000 N   0  0  0  0  0  0  0  0  0  0  0  0
    2.9558   -1.5086    0.0000 C   0  0  0  0  0  0  0  0  0  0  0  0
    4.4953   -1.0961    0.0000 C   0  0  0  0  0  0  0  0  0  0  0  0
    4.7088   -0.2992    0.0000 C   0  0  0  0  0  0  0  0  0  0  0  0
    2.2021   -1.1731    0.0000 C   0  0  0  0  0  0  0  0  0  0  0  0
    2.8695   -2.3292    0.0000 C   0  0  0  0  0  0  0  0  0  0  0  0
    5.9017   -1.9580    0.0000 C   0  0  0  0  0  0  0  0  0  0  0  0
    6.2472   -0.6686    0.0000 C   0  0  0  0  0  0  0  0  0  0  0  0
    3.4880    0.2384    0.0000 C   0  0  0  0  0  0  0  0  0  0  0  0
    4.6440    0.9059    0.0000 C   0  0  0  0  0  0  0  0  0  0  0  0
    1.6500   -1.7862    0.0000 C   0  0  0  0  0  0  0  0  0  0  0  0
    2.0625   -2.5007    0.0000 C   0  0  0  0  0  0  0  0  0  0  0  0
    7.3398   -1.6523    0.0000 C   0  0  0  0  0  0  0  0  0  0  0  0
    3.4110    1.7066    0.0000 C   0  0  0  0  0  0  0  0  0  0  0  0
    7.5533   -2.4492    0.0000 C   0  0  0  0  0  0  0  0  0  0  0  0
    3.8235    2.4211    0.0000 C   0  0  0  0  0  0  0  0  0  0  0  0
    8.1367   -3.0326    0.0000 C   0  0  0  0  0  0  0  0  0  0  0  0
    7.3398   -3.2461    0.0000 C   0  0  0  0  0  0  0  0  0  0  0  0
    3.8235    3.2461    0.0000 C   0  0  0  0  0  0  0  0  0  0  0  0
    4.5380    2.8336    0.0000 C   0  0  0  0  0  0  0  0  0  0  0  0
  1  8  1  0
  1  9  1  0
  1 14  1  0
  2 10  1  0
  2 11  1  0
  2 15  1  0
  3  4  1  0
  3  5  1  0
  3  6  1  0
  3  7  1  0
  4  8  1  0
  4 10  1  0
  5  9  1  0
  5 11  1  0
  6 12  1  0
  7 13  1  0
 12 13  1  0
 14 16  1  0
 15 17  1  0
 16 18  1  0
 16 19  1  0
 17 20  1  0
 17 21  1  0
 18 19  1  0
 20 21  1  0
M  END
>  <DRUGBANK_ID>  (1) 
DB06200

>  <COMMON_NAME>  (1) 
Tedisamil

>  <CAS_NUMBER>  (1) 
90961-53-8

>  <UNII>  (1) 
A5VAY2U3R8

>  <SYNONYMS>  (1) 
Tedisamil

$$$$
