1538
     RDKit          2D

 25 29  0  0  1  0  0  0  0  0999 V2000
    2.6869    0.2627    0.0000 O   0  0  0  0  0  0  0  0  0  0  0  0
    2.4861   -1.8669    0.0000 O   0  0  0  0  0  0  0  0  0  0  0  0
    2.4861    2.3007    0.0000 O   0  0  0  0  0  0  0  0  0  0  0  0
    3.2374   -3.1681    0.0000 O   0  0  0  0  0  0  0  0  0  0  0  0
    6.0953   -0.6082    0.0000 N   0  0  0  0  0  0  0  0  0  0  0  0
    3.9519   -0.1956    0.0000 C   0  0  0  0  0  0  0  0  0  0  0  0
    4.6664   -0.6082    0.0000 C   0  0  0  0  0  0  0  0  0  0  0  0
    3.2374   -0.6082    0.0000 C   0  0  0  0  0  0  0  0  0  0  0  0
    5.3808   -0.1956    0.0000 C   0  0  0  0  0  0  0  0  0  0  0  0
    4.4285    0.4094    0.0000 C   0  0  0  0  0  0  0  0  0  0  0  0
    3.9519    0.6293    0.0000 C   0  0  0  0  0  0  0  0  0  0  0  0
    4.6664   -1.4332    0.0000 C   0  0  0  0  0  0  0  0  0  0  0  0
    3.2374   -1.4332    0.0000 C   0  0  0  0  0  0  0  0  0  0  0  0
    5.3808    0.6293    0.0000 C   0  0  0  0  0  0  0  0  0  0  0  0
    3.9519   -1.8457    0.0000 C   0  0  0  0  0  0  0  0  0  0  0  0
    5.6019    0.4094    0.0000 C   0  0  0  0  0  0  0  0  0  0  0  0
    4.6664    1.0419    0.0000 C   0  0  0  0  0  0  0  0  0  0  0  0
    3.2374    1.0419    0.0000 C   0  0  0  0  0  0  0  0  0  0  0  0
    6.6862   -1.2432    0.0000 C   0  0  0  0  0  0  0  0  0  0  0  0
    4.6664    1.8668    0.0000 C   0  0  0  0  0  0  0  0  0  0  0  0
    3.2374    1.8668    0.0000 C   0  0  0  0  0  0  0  0  0  0  0  0
    3.9519    2.2794    0.0000 C   0  0  0  0  0  0  0  0  0  0  0  0
    2.4861   -2.7344    0.0000 C   0  0  0  0  0  0  0  0  0  0  0  0
    1.7349   -3.1680    0.0000 C   0  0  0  0  0  0  0  0  0  0  0  0
    2.4861    3.1681    0.0000 C   0  0  0  0  0  0  0  0  0  0  0  0
  8  1  1  6
  1 18  1  0
  2 23  1  0
  3 21  1  0
  3 25  1  0
  4 23  2  0
  5  9  1  0
  5 16  1  0
  5 19  1  0
  6  7  1  0
  6  8  1  0
  6 10  1  1
  6 11  1  0
  7  9  1  0
  7 12  1  6
  8 13  1  0
  9 14  1  1
 10 16  1  0
 11 17  2  0
 11 18  1  0
 12 15  1  0
 13  2  1  6
 13 15  1  0
 14 17  1  0
 17 20  1  0
 18 21  2  0
 20 22  2  0
 21 22  1  0
 23 24  1  0
M  END
>  <DRUGBANK_ID>  (1) 
DB01538

>  <COMMON_NAME>  (1) 
Acetyldihydrocodeine

>  <CAS_NUMBER>  (1) 
3861-72-1

>  <UNII>  (1) 
SGY1T84P34

$$$$
