
     RDKit          2D

 35 38  0  0  1  0  0  0  0  0999 V2000
    3.2789    2.0625    0.0000 C   0  0  0  0  0  0  0  0  0  0  0  0
    2.6115    2.5474    0.0000 C   0  0  0  0  0  0  0  0  0  0  0  0
    2.8664    3.3320    0.0000 C   0  0  0  0  0  0  0  0  0  0  0  0
    3.6914    3.3320    0.0000 C   0  0  0  0  0  0  0  0  0  0  0  0
    3.9464    2.5474    0.0000 O   0  0  0  0  0  0  0  0  0  0  0  0
    3.2789    1.2375    0.0000 C   0  0  0  0  0  0  0  0  0  0  0  0
    3.9934    0.8250    0.0000 C   0  0  0  0  0  0  0  0  0  0  0  0
    4.7079    1.2375    0.0000 F   0  0  0  0  0  0  0  0  0  0  0  0
    3.9934    0.0000    0.0000 C   0  0  0  0  0  0  0  0  0  0  0  0
    3.2789   -0.4125    0.0000 C   0  0  0  0  0  0  0  0  0  0  0  0
    2.5645    0.0000    0.0000 C   0  0  0  0  0  0  0  0  0  0  0  0
    1.7798   -0.2549    0.0000 N   0  0  0  0  0  0  0  0  0  0  0  0
    1.2949    0.4125    0.0000 C   0  0  0  0  0  0  0  0  0  0  0  0
    0.4699    0.4125    0.0000 N   0  0  0  0  0  0  0  0  0  0  0  0
    0.0574    1.1270    0.0000 C   0  0  0  0  0  0  0  0  0  0  0  0
    0.4699    1.8414    0.0000 O   0  0  0  0  0  0  0  0  0  0  0  0
   -0.7676    1.1270    0.0000 N   0  0  0  0  0  0  0  0  0  0  0  0
   -1.1801    1.8414    0.0000 C   0  0  0  0  0  0  0  0  0  0  0  0
   -2.0051    1.8414    0.0000 C   0  0  0  0  0  0  0  0  0  0  0  0
    1.7798    1.0799    0.0000 N   0  0  0  0  0  0  0  0  0  0  0  0
    2.5645    0.8250    0.0000 C   0  0  0  0  0  0  0  0  0  0  0  0
    4.7079   -0.4125    0.0000 C   0  0  0  0  0  0  0  0  0  0  0  0
    5.4223    0.0000    0.0000 C   0  0  0  0  0  0  0  0  0  0  0  0
    6.1368   -0.4125    0.0000 N   0  0  0  0  0  0  0  0  0  0  0  0
    6.1368   -1.2375    0.0000 C   0  0  0  0  0  0  0  0  0  0  0  0
    5.4223   -1.6500    0.0000 N   0  0  0  0  0  0  0  0  0  0  0  0
    4.7079   -1.2375    0.0000 C   0  0  0  0  0  0  0  0  0  0  0  0
    6.8513   -1.6500    0.0000 C   0  0  0  0  0  0  0  0  0  0  0  0
    6.4388   -2.3645    0.0000 C   0  0  0  0  0  0  0  0  0  0  0  0
    7.2638   -0.9355    0.0000 C   0  0  0  0  0  0  0  0  0  0  0  0
    7.5658   -2.0625    0.0000 O   0  0  0  0  0  0  0  0  0  0  0  0
    8.2802   -1.6500    0.0000 P   0  0  0  0  0  0  0  0  0  0  0  0
    8.9947   -1.2375    0.0000 O   0  0  0  0  0  0  0  0  0  0  0  0
    8.6927   -2.3645    0.0000 O   0  0  0  0  0  0  0  0  0  0  0  0
    7.8677   -0.9355    0.0000 O   0  0  0  0  0  0  0  0  0  0  0  0
  1  2  1  0
  1  5  1  0
  1  6  1  1
  2  3  1  0
  3  4  1  0
  4  5  1  0
  6  7  2  0
  6 21  1  0
  7  8  1  0
  7  9  1  0
  9 10  2  0
  9 22  1  0
 10 11  1  0
 11 12  1  0
 11 21  2  0
 12 13  2  0
 13 14  1  0
 13 20  1  0
 14 15  1  0
 15 16  2  0
 15 17  1  0
 17 18  1  0
 18 19  1  0
 20 21  1  0
 22 23  2  0
 22 27  1  0
 23 24  1  0
 24 25  2  0
 25 26  1  0
 25 28  1  0
 26 27  2  0
 28 29  1  0
 28 30  1  0
 28 31  1  0
 31 32  1  0
 32 33  1  0
 32 34  1  0
 32 35  2  0
M  END
>  <DRUGBANK_ID>  (1) 
DB18409

>  <COMMON_NAME>  (1) 
Fobrepodacin

>  <CAS_NUMBER>  (1) 
1384984-31-9

>  <UNII>  (1) 
1NL76YUU6E

>  <SYNONYMS>  (1) 
N-ethyl-n'-(6-fluoro-5-(2-(1-methyl-1-(phosphonooxy)ethyl)-5-pyrimidinyl)-7-((2r)-tetrahydro-2-furanyl)-1h-benzimidazol-2-yl)urea; SPR-720 FREE ACID; Urea, n-ethyl-n'-(6-fluoro-5-(2-(1-methyl-1-(phosphonooxy)ethyl)-5-pyrimidinyl)-7-((2r)-tetrahydro-2-furanyl)-1h-benzimidazol-2-yl)-; Vxc-486 phosphate

$$$$
