MDC
     RDKit          2D

 28 30  0  0  0  0  0  0  0  0999 V2000
   -4.2209    1.1299    0.0000 C   0  0  0  0  0  0  0  0  0  0  0  0
   -3.3959    1.1299    0.0000 C   0  0  0  0  0  0  0  0  0  0  0  0
   -3.1410    0.3453    0.0000 C   0  0  0  0  0  0  0  0  0  0  0  0
   -2.3564    0.0904    0.0000 O   0  0  0  0  0  0  0  0  0  0  0  0
   -3.8084   -0.1396    0.0000 N   0  0  0  0  0  0  0  0  0  0  0  0
   -4.4759    0.3453    0.0000 C   0  0  0  0  0  0  0  0  0  0  0  0
   -5.2605    0.0904    0.0000 O   0  0  0  0  0  0  0  0  0  0  0  0
   -3.8084   -0.9646    0.0000 C   0  0  0  0  0  0  0  0  0  0  0  0
   -3.0940   -1.3771    0.0000 C   0  0  0  0  0  0  0  0  0  0  0  0
   -2.3795   -0.9646    0.0000 N   0  0  0  0  0  0  0  0  0  0  0  0
   -1.6650   -1.3771    0.0000 C   0  0  0  0  0  0  0  0  0  0  0  0
   -1.6650   -2.2021    0.0000 O   0  0  0  0  0  0  0  0  0  0  0  0
   -0.2361    0.2729    0.0000 O   0  0  0  0  0  0  0  0  0  0  0  0
   -0.9505   -0.1396    0.0000 C   0  0  0  0  0  0  0  0  0  0  0  0
   -1.6650    0.2729    0.0000 O   0  0  0  0  0  0  0  0  0  0  0  0
   -0.9505   -0.9646    0.0000 C   0  0  0  0  0  0  0  0  0  0  0  0
   -0.2361   -1.3771    0.0000 C   0  0  0  0  0  0  0  0  0  0  0  0
    0.4784   -0.9646    0.0000 C   0  0  0  0  0  0  0  0  0  0  0  0
    0.4784   -0.1396    0.0000 C   0  0  0  0  0  0  0  0  0  0  0  0
    1.1929   -1.3771    0.0000 C   0  0  0  0  0  0  0  0  0  0  0  0
    1.9073   -0.9646    0.0000 C   0  0  0  0  0  0  0  0  0  0  0  0
    1.9073   -0.1396    0.0000 C   0  0  0  0  0  0  0  0  0  0  0  0
    2.6218    0.2729    0.0000 N   0  0  0  0  0  0  0  0  0  0  0  0
    1.1929    0.2729    0.0000 C   0  0  0  0  0  0  0  0  0  0  0  0
    3.3363   -0.1396    0.0000 C   0  0  0  0  0  0  0  0  0  0  0  0
    4.0508    0.2729    0.0000 C   0  0  0  0  0  0  0  0  0  0  0  0
    2.6218    1.0979    0.0000 C   0  0  0  0  0  0  0  0  0  0  0  0
    3.3363    1.5104    0.0000 C   0  0  0  0  0  0  0  0  0  0  0  0
  1  2  1  0
  1  6  1  0
  2  3  1  0
  3  4  2  0
  3  5  1  0
  5  6  1  0
  5  8  1  0
  6  7  2  0
  8  9  2  0
  9 10  1  0
 10 11  1  0
 11 12  2  0
 11 16  1  0
 13 14  1  0
 13 19  1  0
 14 15  2  0
 14 16  1  0
 16 17  2  0
 17 18  1  0
 18 19  2  0
 18 20  1  0
 19 24  1  0
 20 21  2  0
 21 22  1  0
 22 23  1  0
 22 24  2  0
 23 25  1  0
 23 27  1  0
 25 26  1  0
 27 28  1  0
M  END
>  <DRUGBANK_ID>  (1) 
DB02799

>  <SECONDARY_ACCESSION_NUMBERS>  (1) 
EXPT02140

>  <COMMON_NAME>  (1) 
N-[2-(1-maleimidyl)ethyl]-7-diethylaminocoumarin-3-carboxamide

$$$$
