
     RDKit          2D

 18 20  0  0  0  0  0  0  0  0999 V2000
    2.7845    0.6979    0.0000 C   0  0  0  0  0  0  0  0  0  0  0  0
    2.0701    1.1104    0.0000 C   0  0  0  0  0  0  0  0  0  0  0  0
    1.3556    0.6979    0.0000 C   0  0  0  0  0  0  0  0  0  0  0  0
    0.6411    1.1104    0.0000 C   0  0  0  0  0  0  0  0  0  0  0  0
    0.6411    1.9354    0.0000 C   0  0  0  0  0  0  0  0  0  0  0  0
    1.3556    2.3479    0.0000 C   0  0  0  0  0  0  0  0  0  0  0  0
    2.0701    1.9354    0.0000 N   0  0  0  0  0  0  0  0  0  0  0  0
   -0.1435    2.1904    0.0000 C   0  0  0  0  0  0  0  0  0  0  0  0
   -0.6284    1.5229    0.0000 O   0  0  0  0  0  0  0  0  0  0  0  0
   -0.1435    0.8555    0.0000 C   0  0  0  0  0  0  0  0  0  0  0  0
   -0.3984    2.9750    0.0000 C   0  0  0  0  0  0  0  0  0  0  0  0
   -1.2054    3.1465    0.0000 C   0  0  0  0  0  0  0  0  0  0  0  0
   -1.4604    3.9312    0.0000 C   0  0  0  0  0  0  0  0  0  0  0  0
   -0.9083    4.5442    0.0000 C   0  0  0  0  0  0  0  0  0  0  0  0
   -0.1014    4.3727    0.0000 C   0  0  0  0  0  0  0  0  0  0  0  0
    0.1536    3.5881    0.0000 C   0  0  0  0  0  0  0  0  0  0  0  0
   -1.1633    5.3289    0.0000 Cl  0  0  0  0  0  0  0  0  0  0  0  0
    1.3556   -0.1271    0.0000 O   0  0  0  0  0  0  0  0  0  0  0  0
  1  2  1  0
  2  3  2  0
  2  7  1  0
  3  4  1  0
  3 18  1  0
  4  5  2  0
  4 10  1  0
  5  6  1  0
  5  8  1  0
  6  7  2  0
  8  9  1  0
  8 11  1  0
  9 10  1  0
 11 12  2  0
 11 16  1  0
 12 13  1  0
 13 14  2  0
 14 15  1  0
 14 17  1  0
 15 16  2  0
M  END
>  <DRUGBANK_ID>  (1) 
DB12766

>  <COMMON_NAME>  (1) 
Cicletanine

>  <CAS_NUMBER>  (1) 
89943-82-8

>  <UNII>  (1) 
CHG7QC509W

>  <SYNONYMS>  (1) 
Cicletanine

$$$$
