
     RDKit          2D

 22 21  0  0  0  0  0  0  0  0999 V2000
    5.0013   -0.2062    0.0000 S   0  0  0  0  0  0  0  0  0  0  0  0
    4.2868    0.2062    0.0000 C   0  0  0  0  0  0  0  0  0  0  0  0
    3.5723   -0.2062    0.0000 C   0  0  0  0  0  0  0  0  0  0  0  0
    2.8579    0.2062    0.0000 N   0  0  0  0  0  0  0  0  0  0  0  0
    2.1433   -1.0312    0.0000 O   0  0  0  0  0  0  0  0  0  0  0  0
    2.1433   -0.2062    0.0000 C   0  0  0  0  0  0  0  0  0  0  0  0
    1.4289    0.2062    0.0000 C   0  0  0  0  0  0  0  0  0  0  0  0
    0.7144   -0.2062    0.0000 C   0  0  0  0  0  0  0  0  0  0  0  0
    0.0000    0.2062    0.0000 N   0  0  0  0  0  0  0  0  0  0  0  0
   -0.7144   -1.0312    0.0000 O   0  0  0  0  0  0  0  0  0  0  0  0
   -0.7144   -0.2062    0.0000 C   0  0  0  0  0  0  0  0  0  0  0  0
   -1.4289    1.0312    0.0000 O   0  0  0  0  0  0  0  0  0  0  0  0
   -1.4289    0.2062    0.0000 C   0  0  0  0  0  0  0  0  0  0  0  0
   -2.7267   -0.7895    0.0000 C   0  0  0  0  0  0  0  0  0  0  0  0
   -2.1434   -0.2062    0.0000 C   0  0  0  0  0  0  0  0  0  0  0  0
   -1.5600   -0.7895    0.0000 C   0  0  0  0  0  0  0  0  0  0  0  0
   -2.8579    0.2062    0.0000 C   0  0  0  0  0  0  0  0  0  0  0  0
   -3.5723   -0.2062    0.0000 O   0  0  0  0  0  0  0  0  0  0  0  0
   -4.2868    1.0312    0.0000 O   0  0  0  0  0  0  0  0  0  0  0  0
   -5.0013   -0.2062    0.0000 O   0  0  0  0  0  0  0  0  0  0  0  0
   -4.2868    0.2062    0.0000 P   0  0  0  0  0  0  0  0  0  0  0  0
   -4.5003   -0.5906    0.0000 O   0  0  0  0  0  0  0  0  0  0  0  0
  1  2  1  0
  2  3  1  0
  3  4  1  0
  4  6  1  0
  6  5  2  0
  6  7  1  0
  7  8  1  0
  8  9  1  0
  9 11  1  0
 11 10  2  0
 11 13  1  0
 13 12  1  1
 13 15  1  0
 15 17  1  0
 15 14  1  0
 15 16  1  0
 17 18  1  0
 18 21  1  0
 21 19  2  0
 21 20  1  0
 21 22  1  0
M  END
>  <DRUGBANK_ID>  (1) 
DB03912

>  <SECONDARY_ACCESSION_NUMBERS>  (1) 
EXPT02624

>  <COMMON_NAME>  (1) 
D-pantetheine 4'-phosphate

>  <CAS_NUMBER>  (1) 
2226-71-3

>  <UNII>  (1) 
NM39WU8OFM

>  <SYNONYMS>  (1) 
(2R)-2-Hydroxy-N-(3-((2-mercaptoethyl)amino)-3-oxopropyl)-3,3-dimethyl-4-(phosphonooxy)butanamide; 4'-Phosphopantetheine; Pantetheine-4'-phosphate; Phosphopantetheine

$$$$
