19529
     RDKit          2D

 21 22  0  0  0  0  0  0  0  0999 V2000
    4.5079    3.7285    0.0000 Cl  0  0  0  0  0  0  0  0  0  0  0  0
    3.0789    3.7285    0.0000 Cl  0  0  0  0  0  0  0  0  0  0  0  0
    3.0789   -1.2215    0.0000 O   0  0  0  0  0  0  0  0  0  0  0  0
    1.6970   -2.9439    0.0000 O   0  0  0  0  0  0  0  0  0  0  0  0
    4.5079    2.0785    0.0000 O   0  0  0  0  0  0  0  0  0  0  0  0
    1.6500   -1.2215    0.0000 O   0  0  0  0  0  0  0  0  0  0  0  0
    3.0789    2.0785    0.0000 N   0  0  0  0  0  0  0  0  0  0  0  0
    3.0789    1.2535    0.0000 C   0  0  0  0  0  0  0  0  0  0  0  0
    3.7935    0.8410    0.0000 C   0  0  0  0  0  0  0  0  0  0  0  0
    2.3645    0.8410    0.0000 C   0  0  0  0  0  0  0  0  0  0  0  0
    3.0789   -0.3965    0.0000 C   0  0  0  0  0  0  0  0  0  0  0  0
    3.7935    0.0160    0.0000 C   0  0  0  0  0  0  0  0  0  0  0  0
    2.3645    0.0160    0.0000 C   0  0  0  0  0  0  0  0  0  0  0  0
    2.3645    2.4910    0.0000 C   0  0  0  0  0  0  0  0  0  0  0  0
    3.7935    2.4910    0.0000 C   0  0  0  0  0  0  0  0  0  0  0  0
    3.7935    3.3160    0.0000 C   0  0  0  0  0  0  0  0  0  0  0  0
    2.3645   -2.4590    0.0000 C   0  0  0  0  0  0  0  0  0  0  0  0
    2.3645   -1.6340    0.0000 C   0  0  0  0  0  0  0  0  0  0  0  0
    3.0319   -2.9439    0.0000 C   0  0  0  0  0  0  0  0  0  0  0  0
    2.7770   -3.7285    0.0000 C   0  0  0  0  0  0  0  0  0  0  0  0
    1.9520   -3.7285    0.0000 C   0  0  0  0  0  0  0  0  0  0  0  0
  1 16  1  0
  2 16  1  0
  3 11  1  0
  3 18  1  0
  4 17  1  0
  4 21  1  0
  5 15  2  0
  6 18  2  0
  7  8  1  0
  7 14  1  0
  7 15  1  0
  8  9  2  0
  8 10  1  0
  9 12  1  0
 10 13  2  0
 11 12  2  0
 11 13  1  0
 15 16  1  0
 17 18  1  0
 17 19  2  0
 19 20  1  0
 20 21  2  0
M  END
>  <DRUGBANK_ID>  (1) 
DB14638

>  <SECONDARY_ACCESSION_NUMBERS>  (1) 
DBSALT001813

>  <COMMON_NAME>  (1) 
Diloxanide furoate

>  <CAS_NUMBER>  (1) 
3736-81-0

>  <UNII>  (1) 
YP4N72IW34

>  <SYNONYMS>  (1) 
2,2-dichloroacetamido-4-n-methylphenyl 2-furoate; 4-(n-methyl-2,2-dichloroacetamido)phenyl 2-furoate; Dichlofurazol; Diloxanide furoate; Diloxanidi furoas

$$$$
