
     RDKit          2D

 21 23  0  0  0  0  0  0  0  0999 V2000
   -1.0583    0.2204    0.0000 C   0  0  0  0  0  0  0  0  0  0  0  0
   -1.0583   -0.6046    0.0000 C   0  0  0  0  0  0  0  0  0  0  0  0
   -0.3466    0.6046    0.0000 O   0  0  0  0  0  0  0  0  0  0  0  0
   -1.7777    0.6046    0.0000 C   0  0  0  0  0  0  0  0  0  0  0  0
   -0.3466   -1.0250    0.0000 C   0  0  0  0  0  0  0  0  0  0  0  0
   -1.7777   -1.0250    0.0000 C   0  0  0  0  0  0  0  0  0  0  0  0
    0.3520    0.2204    0.0000 C   0  0  0  0  0  0  0  0  0  0  0  0
   -2.5257    0.2204    0.0000 C   0  0  0  0  0  0  0  0  0  0  0  0
    0.3520   -0.6046    0.0000 C   0  0  0  0  0  0  0  0  0  0  0  0
   -0.3466   -1.8629    0.0000 O   0  0  0  0  0  0  0  0  0  0  0  0
   -2.5257   -0.6046    0.0000 C   0  0  0  0  0  0  0  0  0  0  0  0
   -1.7777   -1.8629    0.0000 O   0  0  0  0  0  0  0  0  0  0  0  0
    1.0250    0.6046    0.0000 C   0  0  0  0  0  0  0  0  0  0  0  0
   -3.2838    0.6046    0.0000 O   0  0  0  0  0  0  0  0  0  0  0  0
    1.7367    0.2204    0.0000 C   0  0  0  0  0  0  0  0  0  0  0  0
    1.0250    1.4426    0.0000 C   0  0  0  0  0  0  0  0  0  0  0  0
    2.4458    0.6046    0.0000 C   0  0  0  0  0  0  0  0  0  0  0  0
    1.7367    1.8629    0.0000 C   0  0  0  0  0  0  0  0  0  0  0  0
    2.4458    1.4426    0.0000 C   0  0  0  0  0  0  0  0  0  0  0  0
    3.2039    0.1843    0.0000 O   0  0  0  0  0  0  0  0  0  0  0  0
    3.2838    1.8164    0.0000 O   0  0  0  0  0  0  0  0  0  0  0  0
  1  2  2  0
  1  3  1  0
  1  4  1  0
  2  5  1  0
  2  6  1  0
  3  7  1  0
  4  8  2  0
  5  9  1  0
  5 10  2  0
  6 11  2  0
  6 12  1  0
  7 13  1  0
  7  9  2  0
  8 14  1  0
  8 11  1  0
 13 15  2  0
 13 16  1  0
 15 17  1  0
 16 18  2  0
 17 19  2  0
 17 20  1  0
 18 19  1  0
 19 21  1  0
M  END
>  <DRUGBANK_ID>  (1) 
DB15584

>  <COMMON_NAME>  (1) 
Luteolin

>  <CAS_NUMBER>  (1) 
491-70-3

>  <UNII>  (1) 
KUX1ZNC9J2

>  <SYNONYMS>  (1) 
Digitoflavone; Flacitran; Luteoline; Luteolol; Salifazide

$$$$
