
     RDKit          2D

 28 29  0  0  0  0  0  0  0  0999 V2000
   -1.1451   -1.2378    0.0000 C   0  0  0  0  0  0  0  0  0  0  0  0
   -1.8606   -1.6492    0.0000 N   0  0  0  0  0  0  0  0  0  0  0  0
   -0.5742   -1.5688    0.0000 O   0  0  0  0  0  0  0  0  0  0  0  0
   -2.5738   -1.2337    0.0000 N   0  0  0  0  0  0  0  0  0  0  0  0
   -1.8626   -2.4746    0.0000 C   0  0  0  0  0  0  0  0  0  0  0  0
   -2.5781   -2.8862    0.0000 C   0  0  0  0  0  0  0  0  0  0  0  0
   -2.5801   -3.7115    0.0000 O   0  0  0  0  0  0  0  0  0  0  0  0
   -3.1489   -2.5550    0.0000 O   0  0  0  0  0  0  0  0  0  0  0  0
   -1.1431   -0.4123    0.0000 C   0  0  0  0  0  0  0  0  0  0  0  0
   -0.4276   -0.0009    0.0000 C   0  0  0  0  0  0  0  0  0  0  0  0
   -1.1562    0.4199    0.0000 O   0  0  0  0  0  0  0  0  0  0  0  0
   -0.4257    0.8244    0.0000 C   0  0  0  0  0  0  0  0  0  0  0  0
    0.2898    1.2360    0.0000 N   0  0  0  0  0  0  0  0  0  0  0  0
   -0.9965    1.1556    0.0000 O   0  0  0  0  0  0  0  0  0  0  0  0
    1.0046    0.8232    0.0000 C   0  0  0  0  0  0  0  0  0  0  0  0
    0.2893    2.0614    0.0000 C   0  0  0  0  0  0  0  0  0  0  0  0
   -0.4255    2.4740    0.0000 C   0  0  0  0  0  0  0  0  0  0  0  0
   -0.4255    3.2991    0.0000 C   0  0  0  0  0  0  0  0  0  0  0  0
   -1.1399    3.7115    0.0000 C   0  0  0  0  0  0  0  0  0  0  0  0
   -1.8543    3.2991    0.0000 C   0  0  0  0  0  0  0  0  0  0  0  0
   -1.8543    2.4740    0.0000 C   0  0  0  0  0  0  0  0  0  0  0  0
   -1.1399    2.0616    0.0000 C   0  0  0  0  0  0  0  0  0  0  0  0
    1.7196    1.2356    0.0000 C   0  0  0  0  0  0  0  0  0  0  0  0
    1.7200    2.0605    0.0000 C   0  0  0  0  0  0  0  0  0  0  0  0
    2.4347    2.4726    0.0000 C   0  0  0  0  0  0  0  0  0  0  0  0
    3.1489    2.0598    0.0000 C   0  0  0  0  0  0  0  0  0  0  0  0
    3.1485    1.2349    0.0000 C   0  0  0  0  0  0  0  0  0  0  0  0
    2.4339    0.8227    0.0000 C   0  0  0  0  0  0  0  0  0  0  0  0
  1  2  1  0
  1  3  2  0
  1  9  1  0
  2  4  1  0
  5  2  1  0
  5  6  1  0
  6  7  1  0
  6  8  2  0
 10  9  1  0
 10 11  1  1
 10 12  1  0
 12 13  1  0
 12 14  2  0
 15 13  1  0
 15 23  1  0
 16 13  1  0
 16 17  1  0
 17 18  2  0
 17 22  1  0
 18 19  1  0
 19 20  2  0
 20 21  1  0
 21 22  2  0
 23 24  2  0
 23 28  1  0
 24 25  1  0
 25 26  2  0
 26 27  1  0
 27 28  2  0
M  END
>  <DRUGBANK_ID>  (1) 
DB08229

>  <COMMON_NAME>  (1) 
[N-(3-dibenzylcarbamoyl-oxiranecarbonyl)-hydrazino]-acetic acid

$$$$
