
     RDKit          2D

 20 22  0  0  1  0  0  0  0  0999 V2000
    0.0773    0.5912    0.0000 C   0  0  0  0  0  0  0  0  0  0  0  0
    1.2983   -5.6451    0.0000 C   0  0  0  0  0  0  0  0  0  0  0  0
    2.1233   -5.6459    0.0000 C   0  0  0  0  0  0  0  0  0  0  0  0
    0.8865   -4.9302    0.0000 C   0  0  0  0  0  0  0  0  0  0  0  0
    2.5365   -4.9319    0.0000 C   0  0  0  0  0  0  0  0  0  0  0  0
    1.2997   -4.2162    0.0000 C   0  0  0  0  0  0  0  0  0  0  0  0
    0.7400   -1.2658    0.0000 C   0  0  0  0  0  0  0  0  0  0  0  0
    0.1197   -1.6427    0.0000 C   0  0  0  0  0  0  0  0  0  0  0  0
    1.9893   -0.5417    0.0000 C   0  0  0  0  0  0  0  0  0  0  0  0
    1.6113   -0.9304    0.0000 C   0  0  0  0  0  0  0  0  0  0  0  0
    2.1247   -4.2170    0.0000 C   0  0  0  0  0  0  0  0  0  0  0  0
    1.0605   -0.5572    0.0000 C   0  0  0  0  0  0  0  0  0  0  0  0
    0.6396   -0.9304    0.0000 C   0  0  0  0  0  0  0  0  0  0  0  0
    2.1275   -1.3591    0.0000 C   0  0  0  0  0  0  0  0  0  0  0  0
    2.5379   -3.5029    0.0000 C   0  0  0  0  0  0  0  0  0  0  0  0
    2.1261   -2.7880    0.0000 C   0  0  0  0  0  0  0  0  0  0  0  0
    0.4999   -0.1173    0.0000 N   0  0  0  0  0  0  0  0  0  0  0  0
    3.3629   -3.5037    0.0000 O   0  0  0  0  0  0  0  0  0  0  0  0
    1.3011   -2.7872    0.0000 O   0  0  0  0  0  0  0  0  0  0  0  0
    2.5393   -2.0740    0.0000 O   0  0  0  0  0  0  0  0  0  0  0  0
  3  2  2  0
  4  2  1  0
  5  3  1  0
  6  4  2  0
  8  7  1  0
 11  5  2  0
 11  6  1  0
 12  7  1  1
 12  9  1  0
 13  8  1  6
 13 10  1  0
 14  9  1  0
 14 10  1  0
 14 20  1  1
 15 11  1  0
 15 18  1  6
 16 15  1  0
 17  1  1  0
 17 12  1  0
 17 13  1  0
 19 16  2  0
 20 16  1  0
M  END
>  <DRUGBANK_ID>  (1) 
DB02161

>  <SECONDARY_ACCESSION_NUMBERS>  (1) 
EXPT01792

>  <COMMON_NAME>  (1) 
Hydroxy-Phenyl-Acetic Acid 8-Methyl-8-Aza-Bicyclo[3.2.1]Oct-3-Yl Ester

$$$$
