EMT
     RDKit          2D

 13 13  0  0  0  0  0  0  0  0999 V2000
    1.0504   -0.3957    0.0000 S   0  0  0  0  0  0  0  0  0  0  0  0
    1.0504    0.4293    0.0000 Hg  0  0  0  0  0  2  0  0  0  0  0  0
    1.7648    0.8418    0.0000 C   0  0  0  0  0  0  0  0  0  0  0  0
    1.7648    1.6668    0.0000 C   0  0  0  0  0  0  0  0  0  0  0  0
    0.3359   -0.8082    0.0000 C   0  0  0  0  0  0  0  0  0  0  0  0
    0.3359   -1.6332    0.0000 C   0  0  0  0  0  0  0  0  0  0  0  0
   -0.3786   -2.0457    0.0000 C   0  0  0  0  0  0  0  0  0  0  0  0
   -1.0930   -1.6332    0.0000 C   0  0  0  0  0  0  0  0  0  0  0  0
   -1.0930   -0.8082    0.0000 C   0  0  0  0  0  0  0  0  0  0  0  0
   -0.3786   -0.3957    0.0000 C   0  0  0  0  0  0  0  0  0  0  0  0
   -0.3786    0.4293    0.0000 C   0  0  0  0  0  0  0  0  0  0  0  0
   -1.0930    0.8418    0.0000 O   0  0  0  0  0  0  0  0  0  0  0  0
    0.3359    0.8418    0.0000 O   0  0  0  0  0  0  0  0  0  0  0  0
  1  2  1  0
  1  5  1  0
  2  3  1  0
  3  4  1  0
  5  6  2  0
  5 10  1  0
  6  7  1  0
  7  8  2  0
  8  9  1  0
  9 10  2  0
 10 11  1  0
 11 12  1  0
 11 13  2  0
M  END
>  <DRUGBANK_ID>  (1) 
DB02731

>  <SECONDARY_ACCESSION_NUMBERS>  (1) 
EXPT01342

>  <COMMON_NAME>  (1) 
Ethylmercurithiosalicylic acid

>  <CAS_NUMBER>  (1) 
148-61-8

>  <UNII>  (1) 
4071N4J64W

>  <SYNONYMS>  (1) 
[(o-carboxyphenyl)thio]ethylmercury; 2-(ethylmercuri-thio)-benzoic acid; 2-(ethylmercuriothio)benzoic acid

$$$$
