
     RDKit          2D

 41 46  0  0  0  0  0  0  0  0999 V2000
    4.7812    7.1396    0.0000 C   0  0  0  0  0  0  0  0  0  0  0  0
    0.8838   -2.1500    0.0000 C   0  0  0  0  0  0  0  0  0  0  0  0
    4.0668    5.9021    0.0000 C   0  0  0  0  0  0  0  0  0  0  0  0
    6.9246    7.5521    0.0000 C   0  0  0  0  0  0  0  0  0  0  0  0
    7.6391    6.3146    0.0000 C   0  0  0  0  0  0  0  0  0  0  0  0
    3.3523    2.1896    0.0000 C   0  0  0  0  0  0  0  0  0  0  0  0
    6.2102    7.1396    0.0000 C   0  0  0  0  0  0  0  0  0  0  0  0
    6.9246    5.9021    0.0000 C   0  0  0  0  0  0  0  0  0  0  0  0
    4.0668    5.0771    0.0000 C   0  0  0  0  0  0  0  0  0  0  0  0
    3.3523    1.3646    0.0000 C   0  0  0  0  0  0  0  0  0  0  0  0
    2.6378    0.1271    0.0000 C   0  0  0  0  0  0  0  0  0  0  0  0
    4.7812    2.1896    0.0000 C   0  0  0  0  0  0  0  0  0  0  0  0
    2.6378   -1.5229    0.0000 C   0  0  0  0  0  0  0  0  0  0  0  0
    4.1530   -2.3434    0.0000 C   0  0  0  0  0  0  0  0  0  0  0  0
    4.8204   -1.1874    0.0000 C   0  0  0  0  0  0  0  0  0  0  0  0
    1.1387   -0.0305    0.0000 C   0  0  0  0  0  0  0  0  0  0  0  0
    4.7812    6.3146    0.0000 C   0  0  0  0  0  0  0  0  0  0  0  0
    1.9233   -0.2854    0.0000 C   0  0  0  0  0  0  0  0  0  0  0  0
    4.0668   -1.5229    0.0000 C   0  0  0  0  0  0  0  0  0  0  0  0
    7.6391    7.1396    0.0000 C   0  0  0  0  0  0  0  0  0  0  0  0
    4.0668    2.6021    0.0000 C   0  0  0  0  0  0  0  0  0  0  0  0
    6.2102    6.3146    0.0000 C   0  0  0  0  0  0  0  0  0  0  0  0
    4.7812    4.6646    0.0000 C   0  0  0  0  0  0  0  0  0  0  0  0
    3.3523   -1.1104    0.0000 C   0  0  0  0  0  0  0  0  0  0  0  0
    4.7812    1.3646    0.0000 C   0  0  0  0  0  0  0  0  0  0  0  0
    1.9233   -1.1104    0.0000 C   0  0  0  0  0  0  0  0  0  0  0  0
    4.0668    0.9521    0.0000 C   0  0  0  0  0  0  0  0  0  0  0  0
    3.3523   -0.2854    0.0000 C   0  0  0  0  0  0  0  0  0  0  0  0
    4.7812    3.8396    0.0000 C   0  0  0  0  0  0  0  0  0  0  0  0
    5.4957    5.0771    0.0000 C   0  0  0  0  0  0  0  0  0  0  0  0
    8.3536    7.5521    0.0000 F   0  0  0  0  0  0  0  0  0  0  0  0
    5.4957    0.9521    0.0000 F   0  0  0  0  0  0  0  0  0  0  0  0
    4.9600   -2.5150    0.0000 N   0  0  0  0  0  0  0  0  0  0  0  0
    5.3725   -1.8005    0.0000 N   0  0  0  0  0  0  0  0  0  0  0  0
    0.6538   -0.6979    0.0000 N   0  0  0  0  0  0  0  0  0  0  0  0
    4.0668    3.4271    0.0000 N   0  0  0  0  0  0  0  0  0  0  0  0
    1.1387   -1.3654    0.0000 N   0  0  0  0  0  0  0  0  0  0  0  0
    5.4957    5.9021    0.0000 N   0  0  0  0  0  0  0  0  0  0  0  0
    5.4957    3.4271    0.0000 O   0  0  0  0  0  0  0  0  0  0  0  0
    6.2102    4.6646    0.0000 O   0  0  0  0  0  0  0  0  0  0  0  0
    4.0668    0.1271    0.0000 O   0  0  0  0  0  0  0  0  0  0  0  0
  7  4  2  0
  8  5  1  0
  9  3  1  0
 10  6  2  0
 17  1  1  0
 17  3  2  0
 18 11  2  0
 18 16  1  0
 19 14  2  0
 19 15  1  0
 20  4  1  0
 20  5  2  0
 21  6  1  0
 21 12  2  0
 22  7  1  0
 22  8  2  0
 23  9  2  0
 24 13  1  0
 24 19  1  0
 25 12  1  0
 26 13  2  0
 26 18  1  0
 27 10  1  0
 27 25  2  0
 28 11  1  0
 28 24  2  0
 29 23  1  0
 30 23  1  0
 31 20  1  0
 32 25  1  0
 33 14  1  0
 34 15  2  0
 34 33  1  0
 35 16  2  0
 36 21  1  0
 36 29  1  0
 37  2  1  0
 37 26  1  0
 37 35  1  0
 38 17  1  0
 38 22  1  0
 38 30  1  0
 39 29  2  0
 40 30  2  0
 41 27  1  0
 41 28  1  0
M  END
>  <DRUGBANK_ID>  (1) 
DB12381

>  <COMMON_NAME>  (1) 
Merestinib

>  <CAS_NUMBER>  (1) 
1206799-15-6

>  <UNII>  (1) 
5OGS5K699E

>  <SYNONYMS>  (1) 
Merestinib

$$$$
