
     RDKit          2D

 27 30  0  0  0  0  0  0  0  0999 V2000
    6.1237   -0.0260    0.0000 C   0  0  0  0  0  0  0  0  0  0  0  0
    1.4837   -0.0260    0.0000 C   0  0  0  0  0  0  0  0  0  0  0  0
    5.9401   -0.8303    0.0000 C   0  0  0  0  0  0  0  0  0  0  0  0
    1.6673   -0.8303    0.0000 C   0  0  0  0  0  0  0  0  0  0  0  0
    4.5181   -2.1078    0.0000 C   0  0  0  0  0  0  0  0  0  0  0  0
    5.5189    0.5352    0.0000 C   0  0  0  0  0  0  0  0  0  0  0  0
    2.0884    0.5352    0.0000 C   0  0  0  0  0  0  0  0  0  0  0  0
    5.1517   -1.0735    0.0000 C   0  0  0  0  0  0  0  0  0  0  0  0
    2.4556   -1.0735    0.0000 C   0  0  0  0  0  0  0  0  0  0  0  0
    4.2162    0.9370    0.0000 C   0  0  0  0  0  0  0  0  0  0  0  0
    3.3912    0.9370    0.0000 C   0  0  0  0  0  0  0  0  0  0  0  0
    4.5181   -2.9328    0.0000 C   0  0  0  0  0  0  0  0  0  0  0  0
    3.8037   -1.6953    0.0000 C   0  0  0  0  0  0  0  0  0  0  0  0
    5.2326   -4.1703    0.0000 C   0  0  0  0  0  0  0  0  0  0  0  0
    5.9471   -2.9328    0.0000 C   0  0  0  0  0  0  0  0  0  0  0  0
    5.9471   -4.5828    0.0000 C   0  0  0  0  0  0  0  0  0  0  0  0
    6.6616   -3.3453    0.0000 C   0  0  0  0  0  0  0  0  0  0  0  0
    7.3760   -4.5828    0.0000 C   0  0  0  0  0  0  0  0  0  0  0  0
    7.3760   -5.4078    0.0000 C   0  0  0  0  0  0  0  0  0  0  0  0
    4.7305    0.2920    0.0000 C   0  0  0  0  0  0  0  0  0  0  0  0
    2.8768    0.2920    0.0000 C   0  0  0  0  0  0  0  0  0  0  0  0
    4.5470   -0.5123    0.0000 C   0  0  0  0  0  0  0  0  0  0  0  0
    3.0604   -0.5123    0.0000 C   0  0  0  0  0  0  0  0  0  0  0  0
    5.2326   -3.3453    0.0000 N   0  0  0  0  0  0  0  0  0  0  0  0
    6.6616   -4.1703    0.0000 N   0  0  0  0  0  0  0  0  0  0  0  0
    3.8037   -0.8703    0.0000 N   0  0  0  0  0  0  0  0  0  0  0  0
    8.0905   -5.8203    0.0000 O   0  0  0  0  0  0  0  0  0  0  0  0
  3  1  2  0
  4  2  2  0
  6  1  1  0
  7  2  1  0
  8  3  1  0
  9  4  1  0
 11 10  2  0
 12  5  1  0
 13  5  1  0
 16 14  1  0
 17 15  1  0
 19 18  1  0
 20  6  2  0
 20 10  1  0
 21  7  2  0
 21 11  1  0
 22  8  2  0
 22 20  1  0
 23  9  2  0
 23 21  1  0
 24 12  1  0
 24 14  1  0
 24 15  1  0
 25 16  1  0
 25 17  1  0
 25 18  1  0
 26 13  1  0
 26 22  1  0
 26 23  1  0
 27 19  1  0
M  END
>  <DRUGBANK_ID>  (1) 
DB12930

>  <COMMON_NAME>  (1) 
Opipramol

>  <CAS_NUMBER>  (1) 
315-72-0

>  <UNII>  (1) 
D23ZXO613C

>  <SYNONYMS>  (1) 
Opipramol

$$$$
