
     RDKit          2D

 19 19  0  0  0  0  0  0  0  0999 V2000
   -2.5088    0.3392    0.0000 C   0  0  0  0  0  0  0  0  0  0  0  0
   -3.2233   -0.0732    0.0000 C   0  0  0  0  0  0  0  0  0  0  0  0
   -3.2233   -0.8982    0.0000 C   0  0  0  0  0  0  0  0  0  0  0  0
   -2.5088   -1.3107    0.0000 C   0  0  0  0  0  0  0  0  0  0  0  0
   -1.7944   -0.8982    0.0000 C   0  0  0  0  0  0  0  0  0  0  0  0
   -1.7944   -0.0732    0.0000 N   0  0  0  0  0  0  0  0  0  0  0  0
   -0.3654   -0.8982    0.0000 C   0  0  0  0  0  0  0  0  0  0  0  0
   -0.3654   -0.0732    0.0000 C   0  0  0  0  0  0  0  0  0  0  0  0
   -1.0799    0.3392    0.0000 C   0  0  0  0  0  0  0  0  0  0  0  0
    0.3489   -1.3107    0.0000 N   0  0  0  0  0  0  0  0  0  0  0  0
    1.0635   -0.8982    0.0000 C   0  0  0  0  0  0  0  0  0  0  0  0
    1.0635   -0.0732    0.0000 N   0  0  0  0  0  0  0  0  0  0  0  0
    0.3489    0.3392    0.0000 C   0  0  0  0  0  0  0  0  0  0  0  0
   -2.5088    1.1642    0.0000 C   0  0  0  0  0  0  0  0  0  0  0  0
    0.3489    1.1642    0.0000 N   0  0  0  0  0  0  0  0  0  0  0  0
    1.7943   -1.3107    0.0000 C   0  0  0  0  0  0  0  0  0  0  0  0
    2.5088   -0.8982    0.0000 C   0  0  0  0  0  0  0  0  0  0  0  0
    3.2233   -1.3107    0.0000 C   0  0  0  0  0  0  0  0  0  0  0  0
   -1.0207    1.3107    0.0000 Cl  0  0  0  0  0  0  0  0  0  0  0  0
  1  2  2  0
  1  6  1  0
  1 14  1  0
  2  3  1  0
  3  4  2  0
  4  5  1  0
  5  6  2  0
  6  9  1  0
  7  8  2  0
  7 10  1  0
  8  9  1  0
  8 13  1  0
 10 11  2  0
 11 12  1  0
 11 16  1  0
 12 13  2  0
 13 15  1  0
 16 17  1  0
 17 18  1  0
M  CHG  2   6   1  19  -1
M  END
>  <DRUGBANK_ID>  (1) 
DB11374

>  <COMMON_NAME>  (1) 
Amprolium

>  <CAS_NUMBER>  (1) 
121-25-5

>  <UNII>  (1) 
71M75T660B

>  <SYNONYMS>  (1) 
1-((4-amino-2-Propyl-5-pyrimidinyl)methyl)-2-picolinium chloride; Amprolio; Amprolium

$$$$
