
     RDKit          2D

 11 12  0  0  0  0  0  0  0  0999 V2000
   14.2313   -9.4875    0.0000 C   0  0  0  0  0  0  0  0  0  0  0  0
   14.2313  -10.3125    0.0000 C   0  0  0  0  0  0  0  0  0  0  0  0
   14.9738   -9.0750    0.0000 C   0  0  0  0  0  0  0  0  0  0  0  0
   13.4888   -9.2400    0.0000 N   0  0  0  0  0  0  0  0  0  0  0  0
   14.9738  -10.7250    0.0000 N   0  0  0  0  0  0  0  0  0  0  0  0
   13.4888  -10.5600    0.0000 N   0  0  0  0  0  0  0  0  0  0  0  0
   15.6750   -9.4875    0.0000 N   0  0  0  0  0  0  0  0  0  0  0  0
   14.9738   -8.2500    0.0000 O   0  0  0  0  0  0  0  0  0  0  0  0
   12.9938   -9.9000    0.0000 C   0  0  0  0  0  0  0  0  0  0  0  0
   15.6750  -10.2712    0.0000 C   0  0  0  0  0  0  0  0  0  0  0  0
   16.4175  -10.6837    0.0000 O   0  0  0  0  0  0  0  0  0  0  0  0
  1  2  2  0
  1  3  1  0
  1  4  1  0
  2  5  1  0
  2  6  1  0
  3  7  1  0
  3  8  2  0
  4  9  1  0
  5 10  1  0
  6  9  2  0
  7 10  1  0
 10 11  2  0
M  END
>  <DRUGBANK_ID>  (1) 
DB02134

>  <SECONDARY_ACCESSION_NUMBERS>  (1) 
EXPT03251

>  <COMMON_NAME>  (1) 
Xanthine

>  <CAS_NUMBER>  (1) 
69-89-6

>  <UNII>  (1) 
1AVZ07U9S7

$$$$
