YE6
     RDKit          2D

 16 17  0  0  0  0  0  0  0  0999 V2000
   -1.5539    1.1866    0.0000 Cl  0  0  0  0  0  0  0  0  0  0  0  0
   -0.8394    1.5991    0.0000 C   0  0  0  0  0  0  0  0  0  0  0  0
   -0.8394    2.4241    0.0000 C   0  0  0  0  0  0  0  0  0  0  0  0
   -0.1250    2.8366    0.0000 C   0  0  0  0  0  0  0  0  0  0  0  0
    0.5895    2.4241    0.0000 C   0  0  0  0  0  0  0  0  0  0  0  0
    0.5895    1.5991    0.0000 C   0  0  0  0  0  0  0  0  0  0  0  0
   -0.1250    1.1866    0.0000 C   0  0  0  0  0  0  0  0  0  0  0  0
   -0.1250    0.3616    0.0000 C   0  0  0  0  0  0  0  0  0  0  0  0
    0.5425   -0.1233    0.0000 O   0  0  0  0  0  0  0  0  0  0  0  0
   -0.7924   -0.1233    0.0000 C   0  0  0  0  0  0  0  0  0  0  0  0
   -0.5375   -0.9079    0.0000 C   0  0  0  0  0  0  0  0  0  0  0  0
    0.2875   -0.9079    0.0000 C   0  0  0  0  0  0  0  0  0  0  0  0
    0.7725   -1.5754    0.0000 C   0  0  0  0  0  0  0  0  0  0  0  0
    1.5929   -1.4891    0.0000 O   0  0  0  0  0  0  0  0  0  0  0  0
    0.4369   -2.3291    0.0000 N   0  0  0  0  0  0  0  0  0  0  0  0
    0.9218   -2.9965    0.0000 N   0  0  0  0  0  0  0  0  0  0  0  0
  1  2  1  0
  2  3  2  0
  2  7  1  0
  3  4  1  0
  4  5  2  0
  5  6  1  0
  6  7  2  0
  7  8  1  0
  8  9  1  0
  8 10  2  0
  9 12  1  0
 10 11  1  0
 11 12  2  0
 12 13  1  0
 13 14  2  0
 13 15  1  0
 15 16  1  0
M  END
>  <DRUGBANK_ID>  (1) 
DB08757

>  <COMMON_NAME>  (1) 
5-(2-chlorophenyl)furan-2-carbohydrazide

$$$$
