
     RDKit          2D

 24 26  0  0  0  0  0  0  0  0999 V2000
   -1.9794    0.1584    0.0000 S   0  0  0  0  0  0  0  0  0  0  0  0
   -0.5112    1.0603    0.0000 S   0  0  0  0  0  0  0  0  0  0  0  0
    2.0037    0.6619    0.0000 O   0  0  0  0  0  0  0  0  0  0  0  0
   -2.8044    0.1584    0.0000 O   0  0  0  0  0  0  0  0  0  0  0  0
   -1.1544    0.1584    0.0000 O   0  0  0  0  0  0  0  0  0  0  0  0
   -0.0362    3.1416    0.0000 O   0  0  0  0  0  0  0  0  0  0  0  0
   -1.9794    0.9834    0.0000 N   0  0  0  0  0  0  0  0  0  0  0  0
   -1.1787    2.2163    0.0000 N   0  0  0  0  0  0  0  0  0  0  0  0
   -1.9794   -0.6666    0.0000 C   0  0  0  0  0  0  0  0  0  0  0  0
   -2.6939   -1.0791    0.0000 C   0  0  0  0  0  0  0  0  0  0  0  0
   -1.2650   -1.0791    0.0000 C   0  0  0  0  0  0  0  0  0  0  0  0
   -1.9794   -2.3166    0.0000 C   0  0  0  0  0  0  0  0  0  0  0  0
   -2.6939   -1.9041    0.0000 C   0  0  0  0  0  0  0  0  0  0  0  0
   -1.2650   -1.9041    0.0000 C   0  0  0  0  0  0  0  0  0  0  0  0
   -1.2650    1.3959    0.0000 C   0  0  0  0  0  0  0  0  0  0  0  0
    0.0407    1.6734    0.0000 C   0  0  0  0  0  0  0  0  0  0  0  0
    1.1967    0.8334    0.0000 C   0  0  0  0  0  0  0  0  0  0  0  0
    0.8611    1.5872    0.0000 C   0  0  0  0  0  0  0  0  0  0  0  0
   -1.9794   -3.1416    0.0000 C   0  0  0  0  0  0  0  0  0  0  0  0
   -0.3717    2.3878    0.0000 C   0  0  0  0  0  0  0  0  0  0  0  0
    2.0899   -0.1584    0.0000 C   0  0  0  0  0  0  0  0  0  0  0  0
    0.7842    0.1190    0.0000 C   0  0  0  0  0  0  0  0  0  0  0  0
    1.3362   -0.4940    0.0000 C   0  0  0  0  0  0  0  0  0  0  0  0
    2.8044   -0.5709    0.0000 C   0  0  0  0  0  0  0  0  0  0  0  0
  1  4  2  0
  1  5  2  0
  1  7  1  0
  1  9  1  0
  2 15  1  0
  2 16  1  0
  3 17  1  0
  3 21  1  0
  6 20  2  0
  7 15  1  0
  8 15  2  0
  8 20  1  0
  9 10  2  0
  9 11  1  0
 10 13  1  0
 11 14  2  0
 12 13  2  0
 12 14  1  0
 12 19  1  0
 16 18  2  0
 16 20  1  0
 17 18  1  0
 17 22  2  0
 21 23  2  0
 21 24  1  0
 22 23  1  0
M  END
>  <DRUGBANK_ID>  (1) 
DB08481

>  <COMMON_NAME>  (1) 
4-Methyl-N-[5-(5-methyl-furan-2-ylmethylene)-4-oxo-thiazolidin-2-ylidene]-benzenesulfonamide

$$$$
