
     RDKit          2D

 25 26  0  0  0  0  0  0  0  0999 V2000
    7.8591   -2.8875    0.0000 C   0  0  0  0  0  0  0  0  0  0  0  0
    2.1434   -2.8875    0.0000 C   0  0  0  0  0  0  0  0  0  0  0  0
    2.1434   -3.7125    0.0000 C   0  0  0  0  0  0  0  0  0  0  0  0
    2.8578   -2.4750    0.0000 C   0  0  0  0  0  0  0  0  0  0  0  0
   10.0025   -2.4750    0.0000 C   0  0  0  0  0  0  0  0  0  0  0  0
    9.2881   -2.8875    0.0000 C   0  0  0  0  0  0  0  0  0  0  0  0
    2.8578   -4.1250    0.0000 C   0  0  0  0  0  0  0  0  0  0  0  0
    3.5723   -2.8875    0.0000 C   0  0  0  0  0  0  0  0  0  0  0  0
   10.7170   -2.8875    0.0000 C   0  0  0  0  0  0  0  0  0  0  0  0
    6.4302   -3.7125    0.0000 C   0  0  0  0  0  0  0  0  0  0  0  0
    5.7157   -4.1250    0.0000 C   0  0  0  0  0  0  0  0  0  0  0  0
    8.5736   -4.1250    0.0000 C   0  0  0  0  0  0  0  0  0  0  0  0
   10.0025   -4.1250    0.0000 C   0  0  0  0  0  0  0  0  0  0  0  0
    7.8591   -3.7125    0.0000 C   0  0  0  0  0  0  0  0  0  0  0  0
    9.2881   -3.7125    0.0000 C   0  0  0  0  0  0  0  0  0  0  0  0
    3.5723   -3.7125    0.0000 C   0  0  0  0  0  0  0  0  0  0  0  0
   10.7170   -3.7125    0.0000 C   0  0  0  0  0  0  0  0  0  0  0  0
    4.2868   -4.1250    0.0000 C   0  0  0  0  0  0  0  0  0  0  0  0
   11.4315   -4.1250    0.0000 C   0  0  0  0  0  0  0  0  0  0  0  0
   12.1460   -4.5375    0.0000 F   0  0  0  0  0  0  0  0  0  0  0  0
   11.0190   -4.8394    0.0000 F   0  0  0  0  0  0  0  0  0  0  0  0
   11.8440   -3.4105    0.0000 F   0  0  0  0  0  0  0  0  0  0  0  0
    7.1447   -4.1250    0.0000 N   0  0  0  0  0  0  0  0  0  0  0  0
    4.2868   -4.9500    0.0000 O   0  0  0  0  0  0  0  0  0  0  0  0
    5.0012   -3.7125    0.0000 O   0  0  0  0  0  0  0  0  0  0  0  0
  3  2  2  0
  4  2  1  0
  6  5  2  0
  7  3  1  0
  8  4  2  0
  9  5  1  0
 11 10  1  0
 14  1  1  0
 14 12  1  0
 15  6  1  0
 15 12  1  0
 15 13  2  0
 16  7  2  0
 16  8  1  0
 17  9  2  0
 17 13  1  0
 18 16  1  0
 19 17  1  0
 20 19  1  0
 21 19  1  0
 22 19  1  0
 23 10  1  0
 23 14  1  0
 24 18  2  0
 25 11  1  0
 25 18  1  0
M  END
>  <DRUGBANK_ID>  (1) 
DB09022

>  <COMMON_NAME>  (1) 
Benfluorex

>  <CAS_NUMBER>  (1) 
23602-78-0

>  <UNII>  (1) 
403FO0NQG3

>  <SYNONYMS>  (1) 
Benfluorex; Benfluorexum

$$$$
