
     RDKit          2D

  3  0  0  0  0  0  0  0  0  0999 V2000
    0.4125    0.0000    0.0000 O   0  0  0  0  0  0  0  0  0  0  0  0
    2.7696    0.0000    0.0000 O   0  0  0  0  0  0  0  0  0  0  0  0
   -0.4125    0.0000    0.0000 Ce  0  0  0  0  0 15  0  0  0  0  0  0
M  CHG  3   1  -2   2  -2   3   4
M  END
>  <DRUGBANK_ID>  (1) 
DB18493

>  <COMMON_NAME>  (1) 
Cerium dioxide

>  <CAS_NUMBER>  (1) 
1306-38-3

>  <UNII>  (1) 
619G5K328Y

>  <SYNONYMS>  (1) 
Ceric oxide; Cerium oxide; Cerium(iv) oxide

$$$$
