TH1
     RDKit          2D

 21 23  0  0  0  0  0  0  0  0999 V2000
   -1.3879   -0.8717    0.0000 C   0  0  0  0  0  0  0  0  0  0  0  0
   -1.8004   -1.5862    0.0000 C   0  0  0  0  0  0  0  0  0  0  0  0
   -1.3879   -2.3006    0.0000 O   0  0  0  0  0  0  0  0  0  0  0  0
   -2.6254   -1.5862    0.0000 C   0  0  0  0  0  0  0  0  0  0  0  0
   -3.0379   -2.3006    0.0000 O   0  0  0  0  0  0  0  0  0  0  0  0
   -3.0379   -0.8717    0.0000 C   0  0  0  0  0  0  0  0  0  0  0  0
   -3.8629   -0.8717    0.0000 O   0  0  0  0  0  0  0  0  0  0  0  0
   -2.6254   -0.1572    0.0000 C   0  0  0  0  0  0  0  0  0  0  0  0
   -1.8004   -0.1572    0.0000 O   0  0  0  0  0  0  0  0  0  0  0  0
   -3.0379    0.5572    0.0000 C   0  0  0  0  0  0  0  0  0  0  0  0
   -2.6254    1.2717    0.0000 O   0  0  0  0  0  0  0  0  0  0  0  0
   -0.5629   -0.8717    0.0000 C   0  0  0  0  0  0  0  0  0  0  0  0
   -0.0780   -0.2043    0.0000 N   0  0  0  0  0  0  0  0  0  0  0  0
    0.7066   -0.4592    0.0000 C   0  0  0  0  0  0  0  0  0  0  0  0
    1.4211   -0.0467    0.0000 C   0  0  0  0  0  0  0  0  0  0  0  0
    2.1356   -0.4592    0.0000 C   0  0  0  0  0  0  0  0  0  0  0  0
    2.1356   -1.2842    0.0000 C   0  0  0  0  0  0  0  0  0  0  0  0
    1.4211   -1.6967    0.0000 C   0  0  0  0  0  0  0  0  0  0  0  0
    0.7066   -1.2842    0.0000 C   0  0  0  0  0  0  0  0  0  0  0  0
   -0.0780   -1.5391    0.0000 S   0  0  0  0  0  0  0  0  0  0  0  0
    2.8501   -0.0467    0.0000 C   0  0  0  0  0  0  0  0  0  0  0  0
  1  2  1  0
  1  9  1  0
  1 12  1  1
  2  3  1  6
  2  4  1  0
  4  5  1  1
  4  6  1  0
  6  7  1  6
  6  8  1  0
  8  9  1  0
  8 10  1  1
 10 11  1  0
 12 13  2  0
 12 20  1  0
 13 14  1  0
 14 15  2  0
 14 19  1  0
 15 16  1  0
 16 17  2  0
 16 21  1  0
 17 18  1  0
 18 19  2  0
 19 20  1  0
M  END
>  <DRUGBANK_ID>  (1) 
DB03250

>  <SECONDARY_ACCESSION_NUMBERS>  (1) 
EXPT03046

>  <COMMON_NAME>  (1) 
2-(Beta-D-Glucopyranosyl)-5-Methyl-1,3,4-Benzothiazole

$$$$
