
     RDKit          2D

 17 18  0  0  0  0  0  0  0  0999 V2000
   -0.2690    0.3255    0.0000 C   0  0  0  0  0  0  0  0  0  0  0  0
    0.1434    1.0400    0.0000 C   0  0  0  0  0  0  0  0  0  0  0  0
   -0.2690    1.7544    0.0000 O   0  0  0  0  0  0  0  0  0  0  0  0
    0.9684    1.0400    0.0000 C   0  0  0  0  0  0  0  0  0  0  0  0
    1.3809    1.7544    0.0000 O   0  0  0  0  0  0  0  0  0  0  0  0
    1.3809    0.3255    0.0000 C   0  0  0  0  0  0  0  0  0  0  0  0
    2.2059    0.3255    0.0000 O   0  0  0  0  0  0  0  0  0  0  0  0
    0.9684   -0.3889    0.0000 C   0  0  0  0  0  0  0  0  0  0  0  0
    1.3809   -1.1034    0.0000 C   0  0  0  0  0  0  0  0  0  0  0  0
    0.9684   -1.8179    0.0000 O   0  0  0  0  0  0  0  0  0  0  0  0
    0.1434   -0.3889    0.0000 O   0  0  0  0  0  0  0  0  0  0  0  0
   -0.7539   -0.3419    0.0000 N   0  0  0  0  0  0  0  0  0  0  0  0
   -1.5385   -0.0869    0.0000 C   0  0  0  0  0  0  0  0  0  0  0  0
   -2.2059   -0.5718    0.0000 S   0  0  0  0  0  0  0  0  0  0  0  0
   -1.5385    0.7380    0.0000 N   0  0  0  0  0  0  0  0  0  0  0  0
   -0.7539    0.9929    0.0000 C   0  0  0  0  0  0  0  0  0  0  0  0
   -0.7539    1.8179    0.0000 O   0  0  0  0  0  0  0  0  0  0  0  0
  1  2  1  0
  1 11  1  0
  1 12  1  1
  1 16  1  0
  2  3  1  6
  2  4  1  0
  4  5  1  1
  4  6  1  0
  6  7  1  6
  6  8  1  0
  8  9  1  1
  8 11  1  0
  9 10  1  0
 13 12  1  0
 13 14  2  0
 13 15  1  0
 16 15  1  0
 16 17  2  0
M  END
>  <DRUGBANK_ID>  (1) 
DB02964

>  <SECONDARY_ACCESSION_NUMBERS>  (1) 
EXPT01597

>  <COMMON_NAME>  (1) 
8,9,10-Trihydroxy-7-hydroxymethyl-2-thioxo-6-oxa-1,3-diaza-spiro[4.5]decan-4-one

>  <CAS_NUMBER>  (1) 
227458-60-8

$$$$
