HII
     RDKit          2D

 11 11  0  0  0  0  0  0  0  0999 V2000
    0.8033   -1.5820    0.0000 C   0  0  0  0  0  0  0  0  0  0  0  0
    0.4678   -2.3357    0.0000 O   0  0  0  0  0  0  0  0  0  0  0  0
    0.3184   -0.9146    0.0000 C   0  0  0  0  0  0  0  0  0  0  0  0
   -0.5021   -1.0008    0.0000 C   0  0  0  0  0  0  0  0  0  0  0  0
    0.6540   -0.1609    0.0000 C   0  0  0  0  0  0  0  0  0  0  0  0
    0.1691    0.5065    0.0000 C   0  0  0  0  0  0  0  0  0  0  0  0
   -0.6559    0.5065    0.0000 C   0  0  0  0  0  0  0  0  0  0  0  0
   -0.9109    1.2912    0.0000 S   0  0  0  0  0  0  0  0  0  0  0  0
   -0.2434    1.7761    0.0000 C   0  0  0  0  0  0  0  0  0  0  0  0
    0.4240    1.2912    0.0000 N   0  0  0  0  0  0  0  0  0  0  0  0
   -0.2434    2.6011    0.0000 N   0  0  0  0  0  0  0  0  0  0  0  0
  1  2  2  0
  1  3  1  0
  3  4  1  1
  3  5  1  0
  5  6  1  0
  6  7  2  0
  6 10  1  0
  7  8  1  0
  8  9  1  0
  9 10  2  0
  9 11  1  0
M  END
>  <DRUGBANK_ID>  (1) 
DB03024

>  <SECONDARY_ACCESSION_NUMBERS>  (1) 
EXPT01750

>  <COMMON_NAME>  (1) 
2-Methyl-3-(2-Aminothiazolo)Propanal

$$$$
