
     RDKit          2D

 23 25  0  0  0  0  0  0  0  0999 V2000
   -0.8873    1.5571    0.0000 C   0  0  0  0  0  0  0  0  0  0  0  0
   -0.8873    0.7321    0.0000 C   0  0  0  0  0  0  0  0  0  0  0  0
   -0.2198    0.2472    0.0000 C   0  0  0  0  0  0  0  0  0  0  0  0
    0.5647    0.5021    0.0000 N   0  0  0  0  0  0  0  0  0  0  0  0
    0.7362    1.3091    0.0000 C   0  0  0  0  0  0  0  0  0  0  0  0
    0.1231    1.8611    0.0000 O   0  0  0  0  0  0  0  0  0  0  0  0
    1.5208    1.5640    0.0000 C   0  0  0  0  0  0  0  0  0  0  0  0
    1.6924    2.3710    0.0000 C   0  0  0  0  0  0  0  0  0  0  0  0
    2.4770    2.6259    0.0000 C   0  0  0  0  0  0  0  0  0  0  0  0
    3.0901    2.0739    0.0000 C   0  0  0  0  0  0  0  0  0  0  0  0
    2.9186    1.2669    0.0000 N   0  0  0  0  0  0  0  0  0  0  0  0
    2.1339    1.0120    0.0000 C   0  0  0  0  0  0  0  0  0  0  0  0
   -0.4748   -0.5374    0.0000 C   0  0  0  0  0  0  0  0  0  0  0  0
    0.0101   -1.2048    0.0000 O   0  0  0  0  0  0  0  0  0  0  0  0
   -1.2998   -0.5374    0.0000 N   0  0  0  0  0  0  0  0  0  0  0  0
   -1.7847   -1.2048    0.0000 C   0  0  0  0  0  0  0  0  0  0  0  0
   -1.4491   -1.9585    0.0000 C   0  0  0  0  0  0  0  0  0  0  0  0
   -1.9341   -2.6259    0.0000 C   0  0  0  0  0  0  0  0  0  0  0  0
   -2.7545   -2.5397    0.0000 C   0  0  0  0  0  0  0  0  0  0  0  0
   -3.0901   -1.7860    0.0000 C   0  0  0  0  0  0  0  0  0  0  0  0
   -2.6052   -1.1186    0.0000 C   0  0  0  0  0  0  0  0  0  0  0  0
   -1.5547    0.2472    0.0000 N   0  0  0  0  0  0  0  0  0  0  0  0
   -2.3393    0.5021    0.0000 C   0  0  0  0  0  0  0  0  0  0  0  0
  1  2  1  0
  2  3  2  0
  2 22  1  0
  3  4  1  0
  3 13  1  0
  4  5  1  0
  5  6  2  0
  5  7  1  0
  7  8  2  0
  7 12  1  0
  8  9  1  0
  9 10  2  0
 10 11  1  0
 11 12  2  0
 13 14  2  0
 13 15  1  0
 15 16  1  0
 15 22  1  0
 16 17  2  0
 16 21  1  0
 17 18  1  0
 18 19  2  0
 19 20  1  0
 20 21  2  0
 22 23  1  0
M  END
>  <DRUGBANK_ID>  (1) 
DB13407

>  <COMMON_NAME>  (1) 
Nifenazone

>  <CAS_NUMBER>  (1) 
2139-47-1

>  <UNII>  (1) 
8780F0K71U

>  <SYNONYMS>  (1) 
Nifenazone

$$$$
