
     RDKit          2D

 20 20  0  0  0  0  0  0  0  0999 V2000
   -0.6880   -0.8250    0.0000 C   0  0  0  0  0  0  0  0  0  0  0  0
    0.0274    0.4072    0.0000 O   0  0  0  0  0  0  0  0  0  0  0  0
   -1.4036    0.4072    0.0000 C   0  0  0  0  0  0  0  0  0  0  0  0
    0.0274   -1.2393    0.0000 C   0  0  0  0  0  0  0  0  0  0  0  0
   -1.4036   -1.2393    0.0000 N   0  0  0  0  0  0  0  0  0  0  0  0
    0.7361    0.0000    0.0000 C   0  0  0  0  0  0  0  0  0  0  0  0
   -1.4002    1.2323    0.0000 C   0  0  0  0  0  0  0  0  0  0  0  0
   -2.1157    0.0000    0.0000 O   0  0  0  0  0  0  0  0  0  0  0  0
    0.7361   -0.8250    0.0000 C   0  0  0  0  0  0  0  0  0  0  0  0
    0.0274   -2.0608    0.0000 O   0  0  0  0  0  0  0  0  0  0  0  0
   -1.4002   -2.0573    0.0000 C   0  0  0  0  0  0  0  0  0  0  0  0
    1.3180    0.5853    0.0000 C   0  0  0  0  0  0  0  0  0  0  0  0
   -2.1157    1.6466    0.0000 C   0  0  0  0  0  0  0  0  0  0  0  0
   -0.6880    1.6466    0.0000 O   0  0  0  0  0  0  0  0  0  0  0  0
   -2.1088   -2.4682    0.0000 C   0  0  0  0  0  0  0  0  0  0  0  0
   -0.6915   -2.4648    0.0000 O   0  0  0  0  0  0  0  0  0  0  0  0
    2.1156    0.3765    0.0000 O   0  0  0  0  0  0  0  0  0  0  0  0
    1.0954    1.3796    0.0000 O   0  0  0  0  0  0  0  0  0  0  0  0
   -2.1157    2.4682    0.0000 O   0  0  0  0  0  0  0  0  0  0  0  0
   -0.6880    0.0000    0.0000 C   0  0  0  0  0  0  0  0  0  0  0  0
  1  4  1  0
  1  5  1  1
  2  6  1  0
  3  7  1  0
  3  8  1  6
  4  9  1  0
  4 10  1  6
  5 11  1  0
  6 12  1  0
  6  9  2  0
  7 13  1  0
  7 14  1  1
 11 15  1  0
 11 16  2  0
 12 17  1  0
 12 18  2  0
 13 19  1  0
 20  1  1  0
 20  2  1  6
 20  3  1  0
M  END
>  <DRUGBANK_ID>  (1) 
DB03991

>  <SECONDARY_ACCESSION_NUMBERS>  (1) 
EXPT01111

>  <COMMON_NAME>  (1) 
2-deoxy-2,3-dehydro-N-acetylneuraminic acid

>  <CAS_NUMBER>  (1) 
24967-27-9

>  <UNII>  (1) 
QR7675ZK8X

>  <SYNONYMS>  (1) 
Neu2en5Ac

$$$$
