
     RDKit          2D

  6  5  0  0  0  0  0  0  0  0999 V2000
    0.8250    1.4289    0.0000 C   0  0  0  0  0  0  0  0  0  0  0  0
    1.2375    0.7145    0.0000 C   0  0  0  0  0  0  0  0  0  0  0  0
    0.8250    0.0000    0.0000 C   0  0  0  0  0  0  0  0  0  0  0  0
    2.0625    0.7145    0.0000 O   0  0  0  0  0  0  0  0  0  0  0  0
    1.2375   -0.7145    0.0000 O   0  0  0  0  0  0  0  0  0  0  0  0
    0.0000    0.0000    0.0000 O   0  0  0  0  0  0  0  0  0  0  0  0
  2  1  1  0
  3  2  1  0
  4  2  1  0
  5  3  2  0
  6  3  1  0
M  END
>  <DRUGBANK_ID>  (1) 
DB04398

>  <SECONDARY_ACCESSION_NUMBERS>  (1) 
EXPT01996; DB09294

>  <COMMON_NAME>  (1) 
Lactic acid

>  <CAS_NUMBER>  (1) 
50-21-5

>  <UNII>  (1) 
3B8D35Y7S4

>  <SYNONYMS>  (1) 
(±)-2-hydroxypropanoic acid; 2-Hydroxypropanoic acid; 2-Hydroxypropionic acid; ácido láctico; Acidum lacticum; DL- lactic acid; DL-Lactic Acid; DL-Milchsäure; Lactic acid; Lacticum acidum; Milchsäure; Milk acid; rac-lactic acid; α-hydroxypropanoic acid; α-hydroxypropionic acid

$$$$
