GVR
     RDKit          2D

 30 33  0  0  0  0  0  0  0  0999 V2000
    5.4857    8.1532    0.0000 O   0  0  0  0  0  0  0  0  0  0  0  0
    6.2002    7.7407    0.0000 C   0  0  0  0  0  0  0  0  0  0  0  0
    6.2002    6.9157    0.0000 N   0  0  0  0  0  0  0  0  0  0  0  0
    5.4857    6.5032    0.0000 O   0  0  0  0  0  0  0  0  0  0  0  0
    6.9147    8.1532    0.0000 C   0  0  0  0  0  0  0  0  0  0  0  0
    6.9147    8.9782    0.0000 C   0  0  0  0  0  0  0  0  0  0  0  0
    6.2002    9.3907    0.0000 C   0  0  0  0  0  0  0  0  0  0  0  0
    5.4857    8.9782    0.0000 C   0  0  0  0  0  0  0  0  0  0  0  0
    4.7712    9.3907    0.0000 C   0  0  0  0  0  0  0  0  0  0  0  0
    4.7712   10.2157    0.0000 C   0  0  0  0  0  0  0  0  0  0  0  0
    4.0568   10.6282    0.0000 C   0  0  0  0  0  0  0  0  0  0  0  0
    5.4857   10.6282    0.0000 C   0  0  0  0  0  0  0  0  0  0  0  0
    5.4857   11.4532    0.0000 C   0  0  0  0  0  0  0  0  0  0  0  0
    4.7712   11.8657    0.0000 C   0  0  0  0  0  0  0  0  0  0  0  0
    4.0568   11.4532    0.0000 C   0  0  0  0  0  0  0  0  0  0  0  0
    6.2002   10.2157    0.0000 C   0  0  0  0  0  0  0  0  0  0  0  0
    7.6291    7.7407    0.0000 N   0  0  0  0  0  0  0  0  0  0  0  0
    7.6291    6.9157    0.0000 S   0  0  0  0  0  0  0  0  0  0  0  0
    6.8041    6.9157    0.0000 O   0  0  0  0  0  0  0  0  0  0  0  0
    8.4541    6.9157    0.0000 O   0  0  0  0  0  0  0  0  0  0  0  0
    7.6291    6.0907    0.0000 C   0  0  0  0  0  0  0  0  0  0  0  0
    8.3436    5.6782    0.0000 C   0  0  0  0  0  0  0  0  0  0  0  0
    8.3436    4.8532    0.0000 C   0  0  0  0  0  0  0  0  0  0  0  0
    7.6291    4.4407    0.0000 C   0  0  0  0  0  0  0  0  0  0  0  0
    7.6291    3.6157    0.0000 C   0  0  0  0  0  0  0  0  0  0  0  0
    6.9147    4.8532    0.0000 C   0  0  0  0  0  0  0  0  0  0  0  0
    6.9147    5.6782    0.0000 C   0  0  0  0  0  0  0  0  0  0  0  0
    6.2002    4.4407    0.0000 C   0  0  0  0  0  0  0  0  0  0  0  0
    6.2002    3.6157    0.0000 C   0  0  0  0  0  0  0  0  0  0  0  0
    6.9147    3.2032    0.0000 C   0  0  0  0  0  0  0  0  0  0  0  0
  1  2  2  0
  2  3  1  0
  2  5  1  0
  3  4  1  0
  5  6  1  1
  5 17  1  0
  6  7  1  0
  7  8  2  0
  7 16  1  0
  8  9  1  0
  9 10  2  0
 10 11  1  0
 10 12  1  0
 11 15  2  0
 12 13  1  0
 12 16  2  0
 13 14  2  0
 14 15  1  0
 17 18  1  0
 18 19  2  0
 18 20  2  0
 18 21  1  0
 21 22  2  0
 21 27  1  0
 22 23  1  0
 23 24  2  0
 24 25  1  0
 24 26  1  0
 25 30  2  0
 26 27  2  0
 26 28  1  0
 28 29  2  0
 29 30  1  0
M  END
>  <DRUGBANK_ID>  (1) 
DB07861

>  <COMMON_NAME>  (1) 
(2R)-N-hydroxy-3-naphthalen-2-yl-2-[(naphthalen-2-ylsulfonyl)amino]propanamide

$$$$
