
     RDKit          2D

 29 32  0  0  0  0  0  0  0  0999 V2000
   -2.5358   -0.3336    0.0000 C   0  0  0  0  0  0  0  0  0  0  0  0
   -2.5358   -1.1587    0.0000 C   0  0  0  0  0  0  0  0  0  0  0  0
   -1.8214   -1.5712    0.0000 C   0  0  0  0  0  0  0  0  0  0  0  0
   -1.1068   -1.1587    0.0000 C   0  0  0  0  0  0  0  0  0  0  0  0
   -1.1068   -0.3336    0.0000 C   0  0  0  0  0  0  0  0  0  0  0  0
   -1.8214    0.0787    0.0000 C   0  0  0  0  0  0  0  0  0  0  0  0
   -0.3924   -1.5712    0.0000 C   0  0  0  0  0  0  0  0  0  0  0  0
    0.3220   -1.1587    0.0000 C   0  0  0  0  0  0  0  0  0  0  0  0
    0.3220   -0.3336    0.0000 C   0  0  0  0  0  0  0  0  0  0  0  0
   -0.3924    0.0787    0.0000 C   0  0  0  0  0  0  0  0  0  0  0  0
    1.0364    0.0787    0.0000 C   0  0  0  0  0  0  0  0  0  0  0  0
    1.0364    0.9037    0.0000 C   0  0  0  0  0  0  0  0  0  0  0  0
    0.3220    1.3163    0.0000 C   0  0  0  0  0  0  0  0  0  0  0  0
   -0.3924    0.9037    0.0000 C   0  0  0  0  0  0  0  0  0  0  0  0
    1.8211   -0.1760    0.0000 C   0  0  0  0  0  0  0  0  0  0  0  0
    2.3061    0.4912    0.0000 C   0  0  0  0  0  0  0  0  0  0  0  0
    1.8211    1.1587    0.0000 C   0  0  0  0  0  0  0  0  0  0  0  0
   -3.2502   -1.5712    0.0000 O   0  0  0  0  0  0  0  0  0  0  0  0
   -1.1068    0.4912    0.0000 C   0  0  0  0  0  0  0  0  0  0  0  0
   -1.1057    1.3155    0.0000 O   0  0  0  0  0  0  0  0  0  0  0  0
    1.0364    1.7288    0.0000 C   0  0  0  0  0  0  0  0  0  0  0  0
   -0.3924   -0.7462    0.0000 F   0  0  0  0  0  0  0  0  0  0  0  0
   -0.3924   -2.3961    0.0000 F   0  0  0  0  0  0  0  0  0  0  0  0
    2.6181    1.3723    0.0000 O   0  0  0  0  0  0  0  0  0  0  0  0
    3.1155    0.4912    0.0000 C   0  0  0  0  0  0  0  0  0  0  0  0
    1.8211    1.9836    0.0000 C   0  0  0  0  0  0  0  0  0  0  0  0
    2.5357    2.3961    0.0000 C   0  0  0  0  0  0  0  0  0  0  0  0
    1.1068    2.3961    0.0000 O   0  0  0  0  0  0  0  0  0  0  0  0
    3.2501    1.9836    0.0000 O   0  0  0  0  0  0  0  0  0  0  0  0
  1  2  1  0
  1  6  2  0
  2  3  1  0
  2 18  2  0
  3  4  2  0
  4  5  1  0
  4  7  1  0
  5  6  1  0
  5 10  1  0
  5 19  1  1
  7  8  1  0
  7 23  1  6
  9  8  1  6
  9 10  1  0
  9 11  1  0
 10 14  1  0
 10 22  1  6
 11 12  1  0
 11 15  1  1
 12 13  1  0
 12 17  1  0
 12 21  1  1
 13 14  1  0
 14 20  1  1
 15 16  1  0
 16 17  1  0
 16 25  1  6
 17 24  1  6
 17 26  1  0
 26 27  1  0
 26 28  2  0
 27 29  1  0
M  END
>  <DRUGBANK_ID>  (1) 
DB00663

>  <SECONDARY_ACCESSION_NUMBERS>  (1) 
APRD00975

>  <COMMON_NAME>  (1) 
Flumethasone

>  <CAS_NUMBER>  (1) 
2135-17-3

>  <UNII>  (1) 
LR3CD8SX89

>  <SYNONYMS>  (1) 
6alpha,9-Difluoro-11beta,17,21-trihydroxy-16alpha-methylpregna-1,4-diene-3,20-dione; Flumetasona; Flum√©tasone; Flumetasone; Flumetasonum; Flumethasone

$$$$
