
     RDKit          2D

 26 28  0  0  1  0  0  0  0  0999 V2000
    0.3801    5.0331    0.0000 C   0  0  0  0  0  0  0  0  0  0  0  0
   -0.3344    5.4456    0.0000 C   0  0  0  0  0  0  0  0  0  0  0  0
   -1.7634    4.6206    0.0000 C   0  0  0  0  0  0  0  0  0  0  0  0
   -5.7373    7.1429    0.0000 C   0  0  0  0  0  0  0  0  0  0  0  0
   -5.0165    4.5099    0.0000 C   0  0  0  0  0  0  0  0  0  0  0  0
    1.0945    5.4456    0.0000 C   0  0  0  0  0  0  0  0  0  0  0  0
   -2.4778    5.0331    0.0000 C   0  0  0  0  0  0  0  0  0  0  0  0
   -5.9097    5.5019    0.0000 C   0  0  0  0  0  0  0  0  0  0  0  0
   -2.5641    5.8536    0.0000 C   0  0  0  0  0  0  0  0  0  0  0  0
   -3.3710    6.0251    0.0000 C   0  0  0  0  0  0  0  0  0  0  0  0
   -6.5772    5.9868    0.0000 C   0  0  0  0  0  0  0  0  0  0  0  0
   -5.1561    5.8375    0.0000 C   0  0  0  0  0  0  0  0  0  0  0  0
   -3.7835    5.3106    0.0000 C   0  0  0  0  0  0  0  0  0  0  0  0
    1.8090    5.0331    0.0000 C   0  0  0  0  0  0  0  0  0  0  0  0
    1.0945    6.2706    0.0000 N   0  0  0  0  0  0  0  0  0  0  0  0
   -7.3308    5.6513    0.0000 N   0  0  0  0  0  0  0  0  0  0  0  0
   -6.4909    6.8073    0.0000 N   0  0  0  0  0  0  0  0  0  0  0  0
   -5.0698    6.6580    0.0000 N   0  0  0  0  0  0  0  0  0  0  0  0
   -5.8235    4.6814    0.0000 N   0  0  0  0  0  0  0  0  0  0  0  0
   -4.6040    5.2244    0.0000 N   0  0  0  0  0  0  0  0  0  0  0  0
   -1.9510    6.4056    0.0000 O   0  0  0  0  0  0  0  0  0  0  0  0
   -3.7066    6.7788    0.0000 O   0  0  0  0  0  0  0  0  0  0  0  0
    2.5235    5.4456    0.0000 O   0  0  0  0  0  0  0  0  0  0  0  0
    1.8090    4.2081    0.0000 O   0  0  0  0  0  0  0  0  0  0  0  0
   -3.2315    4.6975    0.0000 O   0  0  0  0  0  0  0  0  0  0  0  0
   -1.0489    5.0331    0.0000 Se  0  0  0  0  0  2  0  0  0  0  0  0
  2  1  1  0
  6  1  1  0
  6 15  1  6
  7  3  1  1
  9  7  1  0
  9 21  1  6
 10  9  1  0
 10 22  1  6
 11  8  2  0
 12  8  1  0
 13 10  1  0
 13 20  1  1
 14  6  1  0
 16 11  1  0
 17  4  2  0
 17 11  1  0
 18  4  1  0
 18 12  2  0
 19  5  2  0
 19  8  1  0
 20  5  1  0
 20 12  1  0
 23 14  2  0
 24 14  1  0
 25  7  1  0
 25 13  1  0
 26  2  1  0
 26  3  1  0
M  END
>  <DRUGBANK_ID>  (1) 
DB03423

>  <SECONDARY_ACCESSION_NUMBERS>  (1) 
EXPT02843

>  <COMMON_NAME>  (1) 
S-Adenosyl-L-Homoselenocysteine

$$$$
