
     RDKit          2D

 36 40  0  0  1  0  0  0  0  0999 V2000
   -8.2478   -2.6005    0.0000 C   0  0  0  0  0  0  0  0  0  0  0  0
   -7.6958   -3.2136    0.0000 C   0  0  0  0  0  0  0  0  0  0  0  0
   -7.9929   -1.8159    0.0000 C   0  0  0  0  0  0  0  0  0  0  0  0
    3.3523    1.1104    0.0000 C   0  0  0  0  0  0  0  0  0  0  0  0
    3.3523    1.9354    0.0000 C   0  0  0  0  0  0  0  0  0  0  0  0
   -6.8888   -3.0421    0.0000 C   0  0  0  0  0  0  0  0  0  0  0  0
   -7.1859   -1.6444    0.0000 C   0  0  0  0  0  0  0  0  0  0  0  0
    2.6378    0.6979    0.0000 C   0  0  0  0  0  0  0  0  0  0  0  0
    2.6378    2.3479    0.0000 C   0  0  0  0  0  0  0  0  0  0  0  0
   -2.8540   -2.1845    0.0000 C   0  0  0  0  0  0  0  0  0  0  0  0
   -3.1511   -0.7868    0.0000 C   0  0  0  0  0  0  0  0  0  0  0  0
   -2.0470   -2.0129    0.0000 C   0  0  0  0  0  0  0  0  0  0  0  0
   -2.3441   -0.6152    0.0000 C   0  0  0  0  0  0  0  0  0  0  0  0
   -5.2749   -2.6991    0.0000 C   0  0  0  0  0  0  0  0  0  0  0  0
   -5.5720   -1.3013    0.0000 C   0  0  0  0  0  0  0  0  0  0  0  0
   -4.4679   -2.5275    0.0000 C   0  0  0  0  0  0  0  0  0  0  0  0
   -4.7650   -1.1298    0.0000 C   0  0  0  0  0  0  0  0  0  0  0  0
    0.8838    0.0709    0.0000 C   0  0  0  0  0  0  0  0  0  0  0  0
    0.6538    1.5229    0.0000 C   0  0  0  0  0  0  0  0  0  0  0  0
   -6.6339   -2.2575    0.0000 C   0  0  0  0  0  0  0  0  0  0  0  0
   -5.8269   -2.0860    0.0000 C   0  0  0  0  0  0  0  0  0  0  0  0
    1.1387    0.8555    0.0000 C   0  0  0  0  0  0  0  0  0  0  0  0
   -3.4060   -1.5714    0.0000 C   0  0  0  0  0  0  0  0  0  0  0  0
   -1.7921   -1.2283    0.0000 C   0  0  0  0  0  0  0  0  0  0  0  0
    1.9233    1.1104    0.0000 C   0  0  0  0  0  0  0  0  0  0  0  0
    1.9233    1.9354    0.0000 C   0  0  0  0  0  0  0  0  0  0  0  0
    0.0768   -0.1006    0.0000 C   0  0  0  0  0  0  0  0  0  0  0  0
   -0.4752    0.5124    0.0000 C   0  0  0  0  0  0  0  0  0  0  0  0
    1.1387    2.1904    0.0000 N   0  0  0  0  0  0  0  0  0  0  0  0
   -0.1781   -0.8853    0.0000 N   0  0  0  0  0  0  0  0  0  0  0  0
   -4.2130   -1.7429    0.0000 N   0  0  0  0  0  0  0  0  0  0  0  0
   -1.2822    0.3409    0.0000 O   0  0  0  0  0  0  0  0  0  0  0  0
   -0.2203    1.2971    0.0000 O   0  0  0  0  0  0  0  0  0  0  0  0
   -0.8136   -1.8638    0.0000 O   0  0  0  0  0  0  0  0  0  0  0  0
   -1.1566   -0.2498    0.0000 O   0  0  0  0  0  0  0  0  0  0  0  0
   -0.9851   -1.0568    0.0000 S   0  0  0  0  0  0  0  0  0  0  0  0
  2  1  2  0
  3  1  1  0
  5  4  2  0
  6  2  1  0
  7  3  2  0
  8  4  1  0
  9  5  1  0
 12 10  2  0
 13 11  1  0
 16 14  1  0
 17 15  1  0
 20  6  2  0
 20  7  1  0
 21 14  1  0
 21 15  1  0
 21 20  1  0
 22 18  1  0
 22 19  2  0
 23 10  1  0
 23 11  2  0
 24 12  1  0
 24 13  2  0
 25  8  2  0
 25 22  1  0
 26  9  2  0
 26 25  1  0
 27 18  1  6
 27 30  1  0
 28 27  1  0
 29 19  1  0
 29 26  1  0
 31 16  1  0
 31 17  1  0
 31 23  1  0
 32 28  2  0
 33 28  1  0
 36 24  1  0
 36 30  1  0
 36 34  2  0
 36 35  2  0
M  END
>  <DRUGBANK_ID>  (1) 
DB02449

>  <SECONDARY_ACCESSION_NUMBERS>  (1) 
EXPT01260

>  <COMMON_NAME>  (1) 
3-(1h-Indol-3-Yl)-2-[4-(4-Phenyl-Piperidin-1-Yl)-Benzenesulfonylamino]-Propionic Acid

$$$$
