
     RDKit          2D

 10  9  0  0  0  0  0  0  0  0999 V2000
   -1.0724   -0.2052    0.0000 C   0  0  0  0  0  0  0  0  0  0  0  0
   -0.3602    0.2051    0.0000 C   0  0  0  0  0  0  0  0  0  0  0  0
    0.3560   -0.2052    0.0000 C   0  0  0  0  0  0  0  0  0  0  0  0
    1.0724    0.2051    0.0000 C   0  0  0  0  0  0  0  0  0  0  0  0
   -1.0724   -1.0301    0.0000 O   0  0  0  0  0  0  0  0  0  0  0  0
   -1.7846    0.2051    0.0000 O   0  0  0  0  0  0  0  0  0  0  0  0
    1.0724    1.0301    0.0000 O   0  0  0  0  0  0  0  0  0  0  0  0
    1.7846   -0.2052    0.0000 O   0  0  0  0  0  0  0  0  0  0  0  0
    0.3560   -1.0301    0.0000 S   0  0  0  0  0  0  0  0  0  0  0  0
   -0.3602    1.0301    0.0000 S   0  0  0  0  0  0  0  0  0  0  0  0
  1  2  1  0
  1  5  2  0
  1  6  1  0
  2  3  1  0
  2 10  1  0
  3  4  1  0
  3  9  1  0
  4  7  2  0
  4  8  1  0
M  END
>  <DRUGBANK_ID>  (1) 
DB14089

>  <COMMON_NAME>  (1) 
Dimercaptosuccinic acid

>  <CAS_NUMBER>  (1) 
2418-14-6

>  <UNII>  (1) 
4S9JU7XF01

>  <SYNONYMS>  (1) 
2,3-Dimercaptobutanedioic acid; 2,3-Dimercaptosuccinic acid

$$$$
