
     RDKit          2D

 30 33  0  0  0  0  0  0  0  0999 V2000
    0.8340    0.3306    0.0000 C   0  0  0  0  0  0  0  0  0  0  0  0
    0.8340   -0.4943    0.0000 C   0  0  0  0  0  0  0  0  0  0  0  0
    1.6590    0.3306    0.0000 C   0  0  0  0  0  0  0  0  0  0  0  0
    1.6590   -0.4943    0.0000 N   0  0  0  0  0  0  0  0  0  0  0  0
    2.4436   -0.7492    0.0000 C   0  0  0  0  0  0  0  0  0  0  0  0
    2.9285   -0.0818    0.0000 C   0  0  0  0  0  0  0  0  0  0  0  0
    2.4436    0.5855    0.0000 S   0  0  0  0  0  0  0  0  0  0  0  0
    3.6473   -0.4868    0.0000 C   0  0  0  0  0  0  0  0  0  0  0  0
    3.6473    0.3231    0.0000 C   0  0  0  0  0  0  0  0  0  0  0  0
    2.6986   -1.5339    0.0000 C   0  0  0  0  0  0  0  0  0  0  0  0
    3.5055   -1.7054    0.0000 O   0  0  0  0  0  0  0  0  0  0  0  0
    2.1465   -2.1470    0.0000 O   0  0  0  0  0  0  0  0  0  0  0  0
    0.1195    0.7431    0.0000 N   0  0  0  0  0  0  0  0  0  0  0  0
   -0.5948    0.3306    0.0000 C   0  0  0  0  0  0  0  0  0  0  0  0
   -0.5948   -0.3293    0.0000 O   0  0  0  0  0  0  0  0  0  0  0  0
    0.2506   -1.0777    0.0000 O   0  0  0  0  0  0  0  0  0  0  0  0
   -2.2009    1.7365    0.0000 O   0  0  0  0  0  0  0  0  0  0  0  0
   -2.6145    1.0227    0.0000 N   0  0  0  0  0  0  0  0  0  0  0  0
   -2.0635    0.4088    0.0000 C   0  0  0  0  0  0  0  0  0  0  0  0
   -1.3093    0.7431    0.0000 C   0  0  0  0  0  0  0  0  0  0  0  0
   -1.3942    1.5637    0.0000 C   0  0  0  0  0  0  0  0  0  0  0  0
   -2.2770   -0.3880    0.0000 C   0  0  0  0  0  0  0  0  0  0  0  0
   -3.0640   -0.6357    0.0000 C   0  0  0  0  0  0  0  0  0  0  0  0
   -3.2429   -1.4411    0.0000 C   0  0  0  0  0  0  0  0  0  0  0  0
   -2.6350   -1.9988    0.0000 C   0  0  0  0  0  0  0  0  0  0  0  0
   -1.8480   -1.7511    0.0000 C   0  0  0  0  0  0  0  0  0  0  0  0
   -1.6691   -0.9457    0.0000 C   0  0  0  0  0  0  0  0  0  0  0  0
   -0.8722   -0.7322    0.0000 Cl  0  0  0  0  0  0  0  0  0  0  0  0
   -3.6473   -0.0524    0.0000 Cl  0  0  0  0  0  0  0  0  0  0  0  0
   -0.8108    2.1470    0.0000 C   0  0  0  0  0  0  0  0  0  0  0  0
  1 13  1  1
  1  2  1  0
  2 16  2  0
  2  4  1  0
  3  1  1  0
  3  4  1  0
  3  7  1  1
  4  5  1  0
  5  6  1  0
  5 10  1  6
  6  7  1  0
  6  8  1  0
  6  9  1  0
 10 11  1  0
 10 12  2  0
 13 14  1  0
 14 15  2  0
 14 20  1  0
 17 18  1  0
 17 21  1  0
 18 19  2  0
 19 20  1  0
 19 22  1  0
 20 21  2  0
 21 30  1  0
 22 23  2  0
 22 27  1  0
 23 24  1  0
 23 29  1  0
 24 25  2  0
 25 26  1  0
 26 27  2  0
 27 28  1  0
M  END
>  <DRUGBANK_ID>  (1) 
DB00485

>  <SECONDARY_ACCESSION_NUMBERS>  (1) 
APRD00916

>  <COMMON_NAME>  (1) 
Dicloxacillin

>  <CAS_NUMBER>  (1) 
3116-76-5

>  <UNII>  (1) 
COF19H7WBK

>  <SYNONYMS>  (1) 
(2S,5R,6R)-6-({[3-(2,6-dichlorophenyl)-5-methyl-1,2-oxazol-4-yl]carbonyl}amino)-3,3-dimethyl-7-oxo-4-thia-1-azabicyclo[3.2.0]heptane-2-carboxylic acid; Dicloxacilina; Dicloxacillin; Dicloxacillina; Dicloxacilline; Dicloxacillinum

$$$$
