LAE
     RDKit          2D

 17 17  0  0  0  0  0  0  0  0999 V2000
   -2.3769   -0.1635    0.0000 C   0  0  0  0  0  0  0  0  0  0  0  0
   -2.4632   -0.9840    0.0000 C   0  0  0  0  0  0  0  0  0  0  0  0
   -3.2701   -1.1555    0.0000 O   0  0  0  0  0  0  0  0  0  0  0  0
   -3.6826   -0.4410    0.0000 C   0  0  0  0  0  0  0  0  0  0  0  0
   -3.1306    0.1721    0.0000 C   0  0  0  0  0  0  0  0  0  0  0  0
   -1.8501   -1.5360    0.0000 O   0  0  0  0  0  0  0  0  0  0  0  0
   -1.6625    0.2490    0.0000 N   0  0  0  0  0  0  0  0  0  0  0  0
   -0.9480   -0.1635    0.0000 C   0  0  0  0  0  0  0  0  0  0  0  0
   -0.2335    0.2490    0.0000 C   0  0  0  0  0  0  0  0  0  0  0  0
    0.4809   -0.1635    0.0000 C   0  0  0  0  0  0  0  0  0  0  0  0
    1.1954    0.2490    0.0000 C   0  0  0  0  0  0  0  0  0  0  0  0
    1.9099   -0.1635    0.0000 C   0  0  0  0  0  0  0  0  0  0  0  0
    2.6244    0.2490    0.0000 C   0  0  0  0  0  0  0  0  0  0  0  0
    3.3388   -0.1635    0.0000 C   0  0  0  0  0  0  0  0  0  0  0  0
    4.0533    0.2490    0.0000 C   0  0  0  0  0  0  0  0  0  0  0  0
   -0.9480   -0.9885    0.0000 O   0  0  0  0  0  0  0  0  0  0  0  0
    0.4809   -0.9885    0.0000 O   0  0  0  0  0  0  0  0  0  0  0  0
  1  2  1  0
  1  5  1  0
  1  7  1  6
  2  3  1  0
  2  6  2  0
  3  4  1  0
  4  5  1  0
  7  8  1  0
  8  9  1  0
  8 16  2  0
  9 10  1  0
 10 11  1  0
 10 17  2  0
 11 12  1  0
 12 13  1  0
 13 14  1  0
 14 15  1  0
M  END
>  <DRUGBANK_ID>  (1) 
DB08081

>  <COMMON_NAME>  (1) 
3-OXO-OCTANOIC ACID (2-OXO-TETRAHYDRO-FURAN-3-YL)-AMIDE

$$$$
