533
     RDKit          2D

 22 24  0  0  0  0  0  0  0  0999 V2000
    4.6713   -2.2060    0.0000 S   0  0  0  0  0  0  0  0  0  0  0  0
    5.0838    2.3636    0.0000 O   0  0  0  0  0  0  0  0  0  0  0  0
    3.7739    3.0310    0.0000 O   0  0  0  0  0  0  0  0  0  0  0  0
    3.8463   -2.2060    0.0000 O   0  0  0  0  0  0  0  0  0  0  0  0
    5.4963   -2.2060    0.0000 O   0  0  0  0  0  0  0  0  0  0  0  0
    4.6713    1.0940    0.0000 C   0  0  0  0  0  0  0  0  0  0  0  0
    4.6713    0.2690    0.0000 C   0  0  0  0  0  0  0  0  0  0  0  0
    4.0039    1.5790    0.0000 C   0  0  0  0  0  0  0  0  0  0  0  0
    5.3388    1.5790    0.0000 C   0  0  0  0  0  0  0  0  0  0  0  0
    4.6713   -1.3810    0.0000 C   0  0  0  0  0  0  0  0  0  0  0  0
    3.2192    1.3240    0.0000 C   0  0  0  0  0  0  0  0  0  0  0  0
    5.3858   -0.1435    0.0000 C   0  0  0  0  0  0  0  0  0  0  0  0
    3.9569   -0.1435    0.0000 C   0  0  0  0  0  0  0  0  0  0  0  0
    4.2588    2.3636    0.0000 C   0  0  0  0  0  0  0  0  0  0  0  0
    5.3858   -0.9685    0.0000 C   0  0  0  0  0  0  0  0  0  0  0  0
    3.9569   -0.9685    0.0000 C   0  0  0  0  0  0  0  0  0  0  0  0
    3.0477    0.5170    0.0000 C   0  0  0  0  0  0  0  0  0  0  0  0
    2.6062    1.8761    0.0000 C   0  0  0  0  0  0  0  0  0  0  0  0
    4.6713   -3.0310    0.0000 C   0  0  0  0  0  0  0  0  0  0  0  0
    2.2631    0.2621    0.0000 C   0  0  0  0  0  0  0  0  0  0  0  0
    1.8215    1.6211    0.0000 C   0  0  0  0  0  0  0  0  0  0  0  0
    1.6500    0.8141    0.0000 C   0  0  0  0  0  0  0  0  0  0  0  0
  1  4  2  0
  1  5  2  0
  1 10  1  0
  1 19  1  0
  2  9  1  0
  2 14  1  0
  3 14  2  0
  6  7  1  0
  6  8  2  0
  6  9  1  0
  7 12  2  0
  7 13  1  0
  8 11  1  0
  8 14  1  0
 10 15  2  0
 10 16  1  0
 11 17  2  0
 11 18  1  0
 12 15  1  0
 13 16  2  0
 17 20  1  0
 18 21  2  0
 20 22  2  0
 21 22  1  0
M  END
>  <DRUGBANK_ID>  (1) 
DB00533

>  <SECONDARY_ACCESSION_NUMBERS>  (1) 
APRD00151

>  <COMMON_NAME>  (1) 
Rofecoxib

>  <CAS_NUMBER>  (1) 
162011-90-7

>  <UNII>  (1) 
0QTW8Z7MCR

>  <SYNONYMS>  (1) 
3-phenyl-4-[4-(methylsulfonyl)phenyl]-2(5H)-furanone; 4-[4-(methylsulfonyl)phenyl]-3-phenyl-2(5H)-furanone; Rof√©coxib; Rofecoxib; Rofecoxibum

$$$$
