
     RDKit          2D

 11  7  0  0  0  0  0  0  0  0999 V2000
    4.0507    4.2545    0.0000 Pt  0  0  0  0  0 15  0  0  0  0  0  0
    3.3362    4.6670    0.0000 Cl  0  0  0  0  0  0  0  0  0  0  0  0
    4.7652    4.6670    0.0000 Cl  0  0  0  0  0  0  0  0  0  0  0  0
    4.4080    0.4430    0.0000 N   0  0  0  0  0  0  0  0  0  0  0  0
    0.4430    2.4614    0.0000 N   0  0  0  0  0  0  0  0  0  0  0  0
    3.6934    0.8555    0.0000 C   0  0  0  0  0  0  0  0  0  0  0  0
    3.6934    1.6805    0.0000 C   0  0  0  0  0  0  0  0  0  0  0  0
    2.9790    0.4430    0.0000 C   0  0  0  0  0  0  0  0  0  0  0  0
    4.4080    2.0930    0.0000 C   0  0  0  0  0  0  0  0  0  0  0  0
    5.1225    1.6805    0.0000 C   0  0  0  0  0  0  0  0  0  0  0  0
    5.1225    0.8555    0.0000 C   0  0  0  0  0  0  0  0  0  0  0  0
  4  6  2  0
  4 11  1  0
  6  7  1  0
  6  8  1  0
  7  9  2  0
  9 10  1  0
 10 11  2  0
M  CHG  3   1   2   2  -1   3  -1
M  END
>  <DRUGBANK_ID>  (1) 
DB04874

>  <COMMON_NAME>  (1) 
Picoplatin

>  <CAS_NUMBER>  (1) 
181630-15-9

>  <UNII>  (1) 
B5TAN0L720

>  <SYNONYMS>  (1) 
(SP-4-3)-Amminedichloro(2-methylpyridine)platinium; Picoplatin

$$$$
