
     RDKit          2D

 27 29  0  0  1  0  0  0  0  0999 V2000
    1.6243   -0.4957    0.0000 N   0  0  0  0  0  0  0  0  0  0  0  0
    1.6243    0.3290    0.0000 C   0  0  0  0  0  0  0  0  0  0  0  0
    0.7994    0.3290    0.0000 C   0  0  0  0  0  0  0  0  0  0  0  0
   -0.0254    0.3290    0.0000 N   0  0  0  0  0  0  0  0  0  0  0  0
   -0.7438    0.7416    0.0000 C   0  0  0  0  0  0  0  0  0  0  0  0
   -1.4621    0.3382    0.0000 C   0  0  0  0  0  0  0  0  0  0  0  0
   -1.4621   -0.4865    0.0000 S   0  0  0  0  0  0  0  0  0  0  0  0
   -1.4621   -1.3161    0.0000 O   0  0  0  0  0  0  0  0  0  0  0  0
   -0.6326   -0.4865    0.0000 O   0  0  0  0  0  0  0  0  0  0  0  0
   -2.2823   -0.4865    0.0000 O   0  0  0  0  0  0  0  0  0  0  0  0
   -2.1804    0.7508    0.0000 C   0  0  0  0  0  0  0  0  0  0  0  0
   -2.1804    1.5756    0.0000 C   0  0  0  0  0  0  0  0  0  0  0  0
   -2.8988    1.9881    0.0000 C   0  0  0  0  0  0  0  0  0  0  0  0
   -3.6125    1.5756    0.0000 C   0  0  0  0  0  0  0  0  0  0  0  0
   -3.6125    0.7416    0.0000 C   0  0  0  0  0  0  0  0  0  0  0  0
   -2.8941    0.3336    0.0000 C   0  0  0  0  0  0  0  0  0  0  0  0
   -0.7438    1.5664    0.0000 O   0  0  0  0  0  0  0  0  0  0  0  0
    0.7994   -0.4957    0.0000 C   0  0  0  0  0  0  0  0  0  0  0  0
    0.2155   -1.0844    0.0000 O   0  0  0  0  0  0  0  0  0  0  0  0
    2.4075    0.5884    0.0000 S   0  0  0  0  0  0  0  0  0  0  0  0
    2.8989   -0.0787    0.0000 C   0  0  0  0  0  0  0  0  0  0  0  0
    2.4168   -0.7508    0.0000 C   0  0  0  0  0  0  0  0  0  0  0  0
    2.4168   -1.5757    0.0000 C   0  0  0  0  0  0  0  0  0  0  0  0
    3.1259   -1.9881    0.0000 O   0  0  0  0  0  0  0  0  0  0  0  0
    1.6939   -1.9881    0.0000 O   0  0  0  0  0  0  0  0  0  0  0  0
    3.6125    0.3382    0.0000 C   0  0  0  0  0  0  0  0  0  0  0  0
    3.6125   -0.4865    0.0000 C   0  0  0  0  0  0  0  0  0  0  0  0
  2  1  1  0
  3  2  1  0
  3  4  1  1
  5  4  1  0
  6  5  1  6
  6  7  1  0
  8  7  1  0
  9  7  2  0
 10  7  2  0
 11  6  1  0
 12 11  2  0
 13 12  1  0
 14 13  2  0
 14 15  1  0
 15 16  2  0
 16 11  1  0
 17  5  2  0
 18  3  1  0
 18  1  1  0
 19 18  2  0
  2 20  1  1
 20 21  1  0
 21 22  1  0
 22  1  1  0
 22 23  1  6
 24 23  1  0
 25 23  2  0
 26 21  1  0
 27 21  1  0
M  END
>  <DRUGBANK_ID>  (1) 
DB13693

>  <COMMON_NAME>  (1) 
Sulbenicillin

>  <CAS_NUMBER>  (1) 
41744-40-5

>  <UNII>  (1) 
Q2VYF0562D

>  <SYNONYMS>  (1) 
Sulbenicillin

$$$$
