SCF
     RDKit          2D

 24 27  0  0  0  0  0  0  0  0999 V2000
   -1.8063    1.3496    0.0000 C   0  0  0  0  0  0  0  0  0  0  0  0
   -1.0217    1.0946    0.0000 C   0  0  0  0  0  0  0  0  0  0  0  0
   -1.0217    0.2696    0.0000 N   0  0  0  0  0  0  0  0  0  0  0  0
   -1.8063    0.0147    0.0000 N   0  0  0  0  0  0  0  0  0  0  0  0
   -2.2913    0.6821    0.0000 C   0  0  0  0  0  0  0  0  0  0  0  0
   -0.3072    1.5071    0.0000 N   0  0  0  0  0  0  0  0  0  0  0  0
    0.4072    1.0946    0.0000 C   0  0  0  0  0  0  0  0  0  0  0  0
    0.4072    0.2696    0.0000 C   0  0  0  0  0  0  0  0  0  0  0  0
   -0.3072   -0.1429    0.0000 C   0  0  0  0  0  0  0  0  0  0  0  0
   -0.3072   -0.9679    0.0000 N   0  0  0  0  0  0  0  0  0  0  0  0
    1.1217    1.5071    0.0000 C   0  0  0  0  0  0  0  0  0  0  0  0
   -1.0217   -1.3804    0.0000 C   0  0  0  0  0  0  0  0  0  0  0  0
   -1.0217   -2.2054    0.0000 C   0  0  0  0  0  0  0  0  0  0  0  0
   -0.3072   -2.6179    0.0000 C   0  0  0  0  0  0  0  0  0  0  0  0
   -0.3072   -3.4429    0.0000 C   0  0  0  0  0  0  0  0  0  0  0  0
   -1.0217   -3.8554    0.0000 N   0  0  0  0  0  0  0  0  0  0  0  0
   -1.7362   -3.4429    0.0000 C   0  0  0  0  0  0  0  0  0  0  0  0
   -1.7362   -2.6179    0.0000 C   0  0  0  0  0  0  0  0  0  0  0  0
    1.8362    1.0946    0.0000 C   0  0  0  0  0  0  0  0  0  0  0  0
    2.5506    1.5071    0.0000 C   0  0  0  0  0  0  0  0  0  0  0  0
    2.5506    2.3321    0.0000 C   0  0  0  0  0  0  0  0  0  0  0  0
    1.8362    2.7446    0.0000 C   0  0  0  0  0  0  0  0  0  0  0  0
    1.1217    2.3321    0.0000 C   0  0  0  0  0  0  0  0  0  0  0  0
    0.4072    2.7446    0.0000 F   0  0  0  0  0  0  0  0  0  0  0  0
  1  2  2  0
  2  6  1  0
  3  9  1  0
  3  2  1  0
  4  5  2  0
  4  3  1  0
  5  1  1  0
  7  6  2  0
  7 11  1  0
  8  7  1  0
  9  8  2  0
 10 12  1  0
 10  9  1  0
 11 23  1  0
 13 14  2  0
 13 12  1  0
 15 14  1  0
 16 15  2  0
 17 16  1  0
 17 18  2  0
 18 13  1  0
 19 11  2  0
 19 20  1  0
 20 21  2  0
 21 22  1  0
 23 24  1  0
 23 22  2  0
M  END
>  <DRUGBANK_ID>  (1) 
DB08534

>  <COMMON_NAME>  (1) 
5-(2-fluorophenyl)-N-(pyridin-4-ylmethyl)pyrazolo[1,5-a]pyrimidin-7-amine

$$$$
