900
     RDKit          2D

 17 19  0  0  1  0  0  0  0  0999 V2000
    3.6321    0.6079    0.0000 O   0  0  0  0  0  0  0  0  0  0  0  0
    4.4177    2.6717    0.0000 O   0  0  0  0  0  0  0  0  0  0  0  0
    2.3645   -3.1584    0.0000 O   0  0  0  0  0  0  0  0  0  0  0  0
    3.8596   -0.8446    0.0000 N   0  0  0  0  0  0  0  0  0  0  0  0
    2.3645   -0.6834    0.0000 N   0  0  0  0  0  0  0  0  0  0  0  0
    3.8596   -2.1724    0.0000 N   0  0  0  0  0  0  0  0  0  0  0  0
    1.6500   -1.9209    0.0000 N   0  0  0  0  0  0  0  0  0  0  0  0
    4.1158   -0.0604    0.0000 C   0  0  0  0  0  0  0  0  0  0  0  0
    4.9009    0.1932    0.0000 C   0  0  0  0  0  0  0  0  0  0  0  0
    4.9024    1.0182    0.0000 C   0  0  0  0  0  0  0  0  0  0  0  0
    4.1182    1.2745    0.0000 C   0  0  0  0  0  0  0  0  0  0  0  0
    3.8646    2.0596    0.0000 C   0  0  0  0  0  0  0  0  0  0  0  0
    3.0790   -1.0959    0.0000 C   0  0  0  0  0  0  0  0  0  0  0  0
    4.3411   -1.5084    0.0000 C   0  0  0  0  0  0  0  0  0  0  0  0
    3.0790   -1.9209    0.0000 C   0  0  0  0  0  0  0  0  0  0  0  0
    2.3645   -2.3334    0.0000 C   0  0  0  0  0  0  0  0  0  0  0  0
    1.6500   -1.0959    0.0000 C   0  0  0  0  0  0  0  0  0  0  0  0
  1  8  1  0
  1 11  1  0
  2 12  1  0
  3 16  2  0
  4 13  1  0
  4 14  1  0
  5 13  1  0
  5 17  1  0
  6 14  2  0
  6 15  1  0
  7 16  1  0
  7 17  2  0
  8  4  1  6
  8  9  1  0
  9 10  1  0
 10 11  1  0
 11 12  1  6
 13 15  2  0
 15 16  1  0
M  END
>  <DRUGBANK_ID>  (1) 
DB00900

>  <SECONDARY_ACCESSION_NUMBERS>  (1) 
APRD00240; DB02392

>  <COMMON_NAME>  (1) 
Didanosine

>  <CAS_NUMBER>  (1) 
69655-05-6

>  <UNII>  (1) 
K3GDH6OH08

>  <SYNONYMS>  (1) 
2,3-Dideoxyinosine; 9-((2R,5S)-5-(hydroxymethyl)-tetrahydrofuran-2-yl)-1H-purin-6(9H)-one; 9-((2R,5S)-5-Hydroxymethyl-tetrahydro-furan-2-yl)-1,9-dihydro-purin-6-one; 9-((2S,5R)-5-Hydroxymethyl-tetrahydro-furan-2-yl)-9H-purin-6-ol; 9-[(2R,5S)-5-(hydroxymethyl)tetrahydrofuran-2-yl]-1,9-dihydro-6H-purin-6-one; ddI; ddIno; Didanosina; Didanosine; Didanosinum; Dideoxyinosine

$$$$
