
     RDKit          2D

 16 18  0  0  0  0  0  0  0  0999 V2000
    0.2955    0.0552    0.0000 O   0  0  0  0  0  0  0  0  0  0  0  0
   -1.8870   -0.2802    0.0000 N   0  0  0  0  0  0  0  0  0  0  0  0
   -1.2196    0.8757    0.0000 N   0  0  0  0  0  0  0  0  0  0  0  0
    1.7245    0.8803    0.0000 C   0  0  0  0  0  0  0  0  0  0  0  0
    2.1371    1.5947    0.0000 C   0  0  0  0  0  0  0  0  0  0  0  0
    1.3120    1.5947    0.0000 C   0  0  0  0  0  0  0  0  0  0  0  0
    1.7245    0.0552    0.0000 C   0  0  0  0  0  0  0  0  0  0  0  0
    1.0101   -0.3572    0.0000 C   0  0  0  0  0  0  0  0  0  0  0  0
    2.4390   -0.3572    0.0000 C   0  0  0  0  0  0  0  0  0  0  0  0
    1.0101   -1.1822    0.0000 C   0  0  0  0  0  0  0  0  0  0  0  0
    2.4390   -1.1822    0.0000 C   0  0  0  0  0  0  0  0  0  0  0  0
   -0.4188   -0.3572    0.0000 C   0  0  0  0  0  0  0  0  0  0  0  0
    1.7245   -1.5947    0.0000 C   0  0  0  0  0  0  0  0  0  0  0  0
   -1.1333    0.0552    0.0000 C   0  0  0  0  0  0  0  0  0  0  0  0
   -2.4390    0.3327    0.0000 C   0  0  0  0  0  0  0  0  0  0  0  0
   -2.0265    1.0472    0.0000 C   0  0  0  0  0  0  0  0  0  0  0  0
  1  8  1  0
  1 12  1  0
  2 14  1  0
  2 15  1  0
  3 14  2  0
  3 16  1  0
  4  5  1  0
  4  6  1  0
  4  7  1  0
  5  6  1  0
  7  8  1  0
  7  9  2  0
  8 10  2  0
  9 11  1  0
 10 13  1  0
 11 13  2  0
 12 14  1  0
 15 16  1  0
M  END
>  <DRUGBANK_ID>  (1) 
DB09202

>  <COMMON_NAME>  (1) 
Cirazoline

>  <CAS_NUMBER>  (1) 
59939-16-1

>  <UNII>  (1) 
QK318GVY3Y

>  <SYNONYMS>  (1) 
Cirazoline

$$$$
