TYP
     RDKit          2D

 19 21  0  0  0  0  0  0  0  0999 V2000
   -0.0748    0.4300    0.0000 N   0  0  0  0  0  0  0  0  0  0  0  0
   -0.0748   -0.3950    0.0000 C   0  0  0  0  0  0  0  0  0  0  0  0
   -0.7893   -0.8075    0.0000 C   0  0  0  0  0  0  0  0  0  0  0  0
   -0.7893   -1.6325    0.0000 O   0  0  0  0  0  0  0  0  0  0  0  0
    0.6397   -0.8075    0.0000 C   0  0  0  0  0  0  0  0  0  0  0  0
    1.3541   -0.3950    0.0000 C   0  0  0  0  0  0  0  0  0  0  0  0
    1.3541    0.4300    0.0000 C   0  0  0  0  0  0  0  0  0  0  0  0
    2.0686    0.8425    0.0000 C   0  0  0  0  0  0  0  0  0  0  0  0
    2.7831   -0.3950    0.0000 C   0  0  0  0  0  0  0  0  0  0  0  0
    2.0686   -0.8075    0.0000 C   0  0  0  0  0  0  0  0  0  0  0  0
    2.7831    0.4300    0.0000 C   0  0  0  0  0  0  0  0  0  0  0  0
    3.4975    0.8425    0.0000 O   0  0  0  0  0  0  0  0  0  0  0  0
   -1.5038   -0.3950    0.0000 N   0  0  0  0  0  0  0  0  0  0  0  0
   -1.5038    0.4300    0.0000 C   0  0  0  0  0  0  0  0  0  0  0  0
   -0.7893    0.8425    0.0000 C   0  0  0  0  0  0  0  0  0  0  0  0
   -0.7893    1.6675    0.0000 O   0  0  0  0  0  0  0  0  0  0  0  0
   -2.2884    0.6849    0.0000 C   0  0  0  0  0  0  0  0  0  0  0  0
   -2.7733    0.0175    0.0000 C   0  0  0  0  0  0  0  0  0  0  0  0
   -2.2884   -0.6500    0.0000 C   0  0  0  0  0  0  0  0  0  0  0  0
  1  2  1  0
  1 15  1  0
  2  3  1  0
  2  5  1  1
  3  4  2  0
  3 13  1  0
  5  6  1  0
  6  7  2  0
  6 10  1  0
  7  8  1  0
  8 11  2  0
  9 10  2  0
  9 11  1  0
 11 12  1  0
 13 14  1  0
 13 19  1  0
 14 15  1  0
 14 17  1  1
 15 16  2  0
 17 18  1  0
 18 19  1  0
M  END
>  <DRUGBANK_ID>  (1) 
DB04520

>  <SECONDARY_ACCESSION_NUMBERS>  (1) 
EXPT03139

>  <COMMON_NAME>  (1) 
(3s,8ar)-3-(4-Hydroxybenzyl)Hexahydropyrrolo[1,2-a]Pyrazine-1,4-Dione

$$$$
