CDU
     RDKit          2D

 20 20  0  0  0  0  0  0  0  0999 V2000
   -4.1910   -1.2165    0.0000 C   0  0  0  0  0  0  0  0  0  0  0  0
   -4.9055   -0.8040    0.0000 C   0  0  0  0  0  0  0  0  0  0  0  0
   -4.9055    0.0210    0.0000 C   0  0  0  0  0  0  0  0  0  0  0  0
   -4.1910    0.4334    0.0000 C   0  0  0  0  0  0  0  0  0  0  0  0
   -3.4767    0.0210    0.0000 C   0  0  0  0  0  0  0  0  0  0  0  0
   -3.4767   -0.8040    0.0000 C   0  0  0  0  0  0  0  0  0  0  0  0
   -2.7622    0.4334    0.0000 N   0  0  0  0  0  0  0  0  0  0  0  0
   -2.0478    0.0210    0.0000 C   0  0  0  0  0  0  0  0  0  0  0  0
   -2.0478   -0.8040    0.0000 O   0  0  0  0  0  0  0  0  0  0  0  0
   -1.3332    0.4334    0.0000 N   0  0  0  0  0  0  0  0  0  0  0  0
   -0.6188    0.0210    0.0000 C   0  0  0  0  0  0  0  0  0  0  0  0
    0.0956    0.4334    0.0000 C   0  0  0  0  0  0  0  0  0  0  0  0
    0.8101    0.0210    0.0000 C   0  0  0  0  0  0  0  0  0  0  0  0
    1.5244    0.4334    0.0000 C   0  0  0  0  0  0  0  0  0  0  0  0
    2.2389    0.0210    0.0000 C   0  0  0  0  0  0  0  0  0  0  0  0
    2.9533    0.4334    0.0000 C   0  0  0  0  0  0  0  0  0  0  0  0
    3.6679    0.0210    0.0000 C   0  0  0  0  0  0  0  0  0  0  0  0
    4.3822    0.4334    0.0000 C   0  0  0  0  0  0  0  0  0  0  0  0
    5.0967    0.0210    0.0000 C   0  0  0  0  0  0  0  0  0  0  0  0
    5.8111    0.4334    0.0000 C   0  0  0  0  0  0  0  0  0  0  0  0
  1  2  1  0
  1  6  1  0
  2  3  1  0
  3  4  1  0
  4  5  1  0
  5  6  1  0
  5  7  1  0
  7  8  1  0
  8  9  2  0
  8 10  1  0
 10 11  1  0
 11 12  1  0
 12 13  1  0
 13 14  1  0
 14 15  1  0
 15 16  1  0
 16 17  1  0
 17 18  1  0
 18 19  1  0
 19 20  1  0
M  END
>  <DRUGBANK_ID>  (1) 
DB03677

>  <SECONDARY_ACCESSION_NUMBERS>  (1) 
EXPT00878

>  <COMMON_NAME>  (1) 
N-Cyclohexyl-N'-Decylurea

$$$$
