
     RDKit          2D

 10  9  0  0  0  0  0  0  0  0999 V2000
    0.4920    1.8560    0.0000 O   0  0  0  0  0  0  0  0  0  0  0  0
   -1.6491   -1.8560    0.0000 O   0  0  0  0  0  0  0  0  0  0  0  0
   -0.2217   -1.8560    0.0000 O   0  0  0  0  0  0  0  0  0  0  0  0
   -0.9354    1.0325    0.0000 N   0  0  0  0  0  0  0  0  0  0  0  0
    1.2099    0.6187    0.0000 N   0  0  0  0  0  0  0  0  0  0  0  0
   -0.2217   -0.2048    0.0000 C   0  0  0  0  0  0  0  0  0  0  0  0
   -0.2217    0.6187    0.0000 C   0  0  0  0  0  0  0  0  0  0  0  0
   -0.9354   -0.6187    0.0000 C   0  0  0  0  0  0  0  0  0  0  0  0
    0.4920    1.0325    0.0000 C   0  0  0  0  0  0  0  0  0  0  0  0
   -0.9354   -1.4422    0.0000 C   0  0  0  0  0  0  0  0  0  0  0  0
  1  9  2  0
  2 10  1  0
  3 10  2  0
  5  9  1  0
  6  7  1  0
  6  8  1  0
  7  4  1  6
  7  9  1  0
  8 10  1  0
M  END
>  <DRUGBANK_ID>  (1) 
DB03091

>  <SECONDARY_ACCESSION_NUMBERS>  (1) 
EXPT01619

>  <COMMON_NAME>  (1) 
Isoglutamine

>  <CAS_NUMBER>  (1) 
636-65-7

>  <UNII>  (1) 
WL74QNU57B

>  <SYNONYMS>  (1) 
Glutamic acid alpha-amide; L-alpha-Glutamine; L-Glutamic acid alpha-amide; L-Isoglutamine

$$$$
