
     RDKit          2D

 14 13  0  0  1  0  0  0  0  0999 V2000
   -1.1270   -0.3020    0.0000 C   0  0  0  0  0  0  0  0  0  0  0  0
    1.7309   -0.3020    0.0000 C   0  0  0  0  0  0  0  0  0  0  0  0
   -0.4125   -0.7145    0.0000 C   0  0  0  0  0  0  0  0  0  0  0  0
    1.0164   -0.7145    0.0000 C   0  0  0  0  0  0  0  0  0  0  0  0
    0.3020   -0.3020    0.0000 C   0  0  0  0  0  0  0  0  0  0  0  0
   -1.8414   -0.7145    0.0000 O   0  0  0  0  0  0  0  0  0  0  0  0
   -0.4125   -1.5395    0.0000 O   0  0  0  0  0  0  0  0  0  0  0  0
    1.0164   -1.5395    0.0000 O   0  0  0  0  0  0  0  0  0  0  0  0
    0.3020    0.5230    0.0000 O   0  0  0  0  0  0  0  0  0  0  0  0
    3.8743    0.1105    0.0000 O   0  0  0  0  0  0  0  0  0  0  0  0
    3.5724   -1.0164    0.0000 O   0  0  0  0  0  0  0  0  0  0  0  0
    2.7474    0.4125    0.0000 O   0  0  0  0  0  0  0  0  0  0  0  0
    2.4454   -0.7145    0.0000 O   0  0  0  0  0  0  0  0  0  0  0  0
    3.1599   -0.3020    0.0000 P   0  0  0  0  0  0  0  0  0  0  0  0
  3  1  1  0
  3  7  1  6
  4  2  1  0
  4  8  1  1
  5  3  1  0
  5  4  1  0
  5  9  1  6
  6  1  1  0
 13  2  1  0
 14 10  1  0
 14 11  1  0
 14 12  2  0
 14 13  1  0
M  END
>  <DRUGBANK_ID>  (1) 
DB03745

>  <SECONDARY_ACCESSION_NUMBERS>  (1) 
EXPT00375

>  <COMMON_NAME>  (1) 
Arabinose-5-phosphate

$$$$
