16U
     RDKit          2D

 23 24  0  0  0  0  0  0  0  0999 V2000
   -2.0375    0.6182    0.0000 C   0  0  0  0  0  0  0  0  0  0  0  0
   -2.7520    1.0307    0.0000 C   0  0  0  0  0  0  0  0  0  0  0  0
   -3.4665    0.6182    0.0000 C   0  0  0  0  0  0  0  0  0  0  0  0
   -2.7520    1.8557    0.0000 C   0  0  0  0  0  0  0  0  0  0  0  0
   -0.2936   -4.1888    0.0000 Cl  0  0  0  0  0  0  0  0  0  0  0  0
   -1.3230    1.0307    0.0000 C   0  0  0  0  0  0  0  0  0  0  0  0
   -0.6086    0.6182    0.0000 C   0  0  0  0  0  0  0  0  0  0  0  0
   -0.6086   -0.2068    0.0000 O   0  0  0  0  0  0  0  0  0  0  0  0
    0.1059    1.0307    0.0000 N   0  0  0  0  0  0  0  0  0  0  0  0
    0.1921    1.8512    0.0000 C   0  0  0  0  0  0  0  0  0  0  0  0
    0.9991    2.0227    0.0000 C   0  0  0  0  0  0  0  0  0  0  0  0
    1.4116    1.3083    0.0000 C   0  0  0  0  0  0  0  0  0  0  0  0
    0.8596    0.6952    0.0000 C   0  0  0  0  0  0  0  0  0  0  0  0
    1.0311   -0.1118    0.0000 C   0  0  0  0  0  0  0  0  0  0  0  0
    0.4180   -0.6638    0.0000 N   0  0  0  0  0  0  0  0  0  0  0  0
    0.5895   -1.4708    0.0000 C   0  0  0  0  0  0  0  0  0  0  0  0
   -0.0236   -2.0228    0.0000 C   0  0  0  0  0  0  0  0  0  0  0  0
    0.1480   -2.8298    0.0000 C   0  0  0  0  0  0  0  0  0  0  0  0
   -0.4651   -3.3818    0.0000 C   0  0  0  0  0  0  0  0  0  0  0  0
   -1.2497   -3.1269    0.0000 C   0  0  0  0  0  0  0  0  0  0  0  0
   -1.4213   -2.3199    0.0000 C   0  0  0  0  0  0  0  0  0  0  0  0
   -0.8082   -1.7679    0.0000 C   0  0  0  0  0  0  0  0  0  0  0  0
    1.8157   -0.3667    0.0000 O   0  0  0  0  0  0  0  0  0  0  0  0
  1  2  1  0
  1  6  1  0
  2  3  1  0
  2  4  1  0
  5 19  1  0
  6  7  1  0
  7  8  2  0
  7  9  1  0
  9 10  1  0
  9 13  1  0
 10 11  1  0
 11 12  1  0
 12 13  1  0
 13 14  1  1
 14 15  1  0
 14 23  2  0
 15 16  1  0
 16 17  1  0
 17 18  2  0
 17 22  1  0
 18 19  1  0
 19 20  2  0
 20 21  1  0
 21 22  2  0
M  END
>  <DRUGBANK_ID>  (1) 
DB06868

>  <COMMON_NAME>  (1) 
N-(3-chlorobenzyl)-1-(4-methylpentanoyl)-L-prolinamide

$$$$
