
     RDKit          2D

 33 34  0  0  0  0  0  0  0  0999 V2000
    1.8857    0.3392    0.0000 C   0  0  0  0  0  0  0  0  0  0  0  0
    2.2979   -0.3748    0.0000 C   0  0  0  0  0  0  0  0  0  0  0  0
    1.8857    1.1642    0.0000 C   0  0  0  0  0  0  0  0  0  0  0  0
    2.5982    1.5766    0.0000 O   0  0  0  0  0  0  0  0  0  0  0  0
    3.3108    1.1642    0.0000 C   0  0  0  0  0  0  0  0  0  0  0  0
    4.0232    1.5766    0.0000 C   0  0  0  0  0  0  0  0  0  0  0  0
    1.1737   -0.0690    0.0000 N   0  0  0  0  0  0  0  0  0  0  0  0
    1.1737    1.5809    0.0000 O   0  0  0  0  0  0  0  0  0  0  0  0
   -1.9462    0.5354    0.0000 C   0  0  0  0  0  0  0  0  0  0  0  0
   -1.8332    1.3568    0.0000 N   0  0  0  0  0  0  0  0  0  0  0  0
   -2.5792    1.7185    0.0000 C   0  0  0  0  0  0  0  0  0  0  0  0
   -2.7620    0.3884    0.0000 C   0  0  0  0  0  0  0  0  0  0  0  0
   -3.1561    1.1241    0.0000 S   0  0  0  0  0  0  0  0  0  0  0  0
   -4.4274    0.4431    0.0000 C   0  0  0  0  0  0  0  0  0  0  0  0
   -4.0333   -0.2925    0.0000 C   0  0  0  0  0  0  0  0  0  0  0  0
   -3.1975   -0.3208    0.0000 C   0  0  0  0  0  0  0  0  0  0  0  0
   -4.4691   -0.9930    0.0000 C   0  0  0  0  0  0  0  0  0  0  0  0
   -2.7225    2.5310    0.0000 N   0  0  0  0  0  0  0  0  0  0  0  0
   -1.3508   -0.0356    0.0000 C   0  0  0  0  0  0  0  0  0  0  0  0
   -1.4608   -0.8499    0.0000 C   0  0  0  0  0  0  0  0  0  0  0  0
   -0.7174   -1.2096    0.0000 C   0  0  0  0  0  0  0  0  0  0  0  0
   -0.1465   -0.6124    0.0000 C   0  0  0  0  0  0  0  0  0  0  0  0
   -0.5390    0.1142    0.0000 O   0  0  0  0  0  0  0  0  0  0  0  0
    0.6711   -0.7225    0.0000 P   0  0  0  0  0  0  0  0  0  0  0  0
    0.3531   -1.4838    0.0000 O   0  0  0  0  0  0  0  0  0  0  0  0
    1.4961   -0.7248    0.0000 N   0  0  0  0  0  0  0  0  0  0  0  0
    1.7075   -1.5190    0.0000 C   0  0  0  0  0  0  0  0  0  0  0  0
    1.6691   -2.2682    0.0000 C   0  0  0  0  0  0  0  0  0  0  0  0
    2.5040   -1.7338    0.0000 C   0  0  0  0  0  0  0  0  0  0  0  0
    2.7164   -2.5310    0.0000 O   0  0  0  0  0  0  0  0  0  0  0  0
    3.0883   -1.1512    0.0000 O   0  0  0  0  0  0  0  0  0  0  0  0
    3.8848   -1.3661    0.0000 C   0  0  0  0  0  0  0  0  0  0  0  0
    4.4691   -0.7836    0.0000 C   0  0  0  0  0  0  0  0  0  0  0  0
  1  3  1  0
  1  2  1  6
  3  4  1  0
  3  8  2  0
  4  5  1  0
  5  6  1  0
  7  1  1  0
  9 10  1  0
  9 19  1  0
 10 11  2  0
 11 13  1  0
 11 18  1  0
 12 13  1  0
 12  9  2  0
 12 16  1  0
 14 15  1  0
 15 16  1  0
 15 17  1  0
 19 20  2  0
 20 21  1  0
 21 22  2  0
 22 23  1  0
 22 24  1  0
 23 19  1  0
 24  7  1  0
 24 25  2  0
 24 26  1  0
 26 27  1  0
 27 28  1  6
 27 29  1  0
 29 30  2  0
 29 31  1  0
 31 32  1  0
 32 33  1  0
M  END
>  <DRUGBANK_ID>  (1) 
DB05518

>  <COMMON_NAME>  (1) 
Managlinat dialanetil

>  <CAS_NUMBER>  (1) 
280782-97-0

>  <UNII>  (1) 
3W93F83K7S

>  <SYNONYMS>  (1) 
Managlinat dialanetil; Managlinat dialanÃ©til; Managlinat dialanetilo; Managlinatum dialanetilum

$$$$
