
     RDKit          2D

  1  0  0  0  0  0  0  0  0  0999 V2000
    0.0000    0.0000    0.0000 Bk  0  0  0  0  0 15  0  0  0  0  0  0
M  END
>  <DRUGBANK_ID>  (1) 
DB12993

>  <COMMON_NAME>  (1) 
Berkelium

>  <CAS_NUMBER>  (1) 
7440-40-6

>  <UNII>  (1) 
2YQA718KUU

>  <SYNONYMS>  (1) 
berkelio; Bk

$$$$
