
     RDKit          2D

 19 20  0  0  0  0  0  0  0  0999 V2000
    0.3573    0.4124    0.0000 C   0  0  0  0  0  0  0  0  0  0  0  0
    0.3573   -0.4124    0.0000 C   0  0  0  0  0  0  0  0  0  0  0  0
   -0.3573    0.8250    0.0000 C   0  0  0  0  0  0  0  0  0  0  0  0
   -0.3573   -0.8250    0.0000 C   0  0  0  0  0  0  0  0  0  0  0  0
   -1.0718    0.4124    0.0000 C   0  0  0  0  0  0  0  0  0  0  0  0
   -1.0718   -0.4124    0.0000 C   0  0  0  0  0  0  0  0  0  0  0  0
    1.0718    0.8250    0.0000 C   0  0  0  0  0  0  0  0  0  0  0  0
    1.0718    1.6501    0.0000 N   0  0  0  0  0  0  0  0  0  0  0  0
    1.7862    0.4124    0.0000 C   0  0  0  0  0  0  0  0  0  0  0  0
    1.7862    2.0627    0.0000 N   0  0  0  0  0  0  0  0  0  0  0  0
    2.5009    0.8250    0.0000 C   0  0  0  0  0  0  0  0  0  0  0  0
    2.5009    1.6501    0.0000 C   0  0  0  0  0  0  0  0  0  0  0  0
    3.2154    2.0627    0.0000 O   0  0  0  0  0  0  0  0  0  0  0  0
   -0.3573   -1.6501    0.0000 O   0  0  0  0  0  0  0  0  0  0  0  0
   -1.7863   -0.8250    0.0000 O   0  0  0  0  0  0  0  0  0  0  0  0
   -1.0719   -2.0626    0.0000 C   0  0  0  0  0  0  0  0  0  0  0  0
   -2.5008   -0.4124    0.0000 C   0  0  0  0  0  0  0  0  0  0  0  0
   -3.2154   -0.8250    0.0000 F   0  0  0  0  0  0  0  0  0  0  0  0
   -2.5008    0.4124    0.0000 F   0  0  0  0  0  0  0  0  0  0  0  0
  1  7  1  0
  2  1  2  0
  3  1  1  0
  4  2  1  0
  4 14  1  0
  5  3  2  0
  6  4  2  0
  6  5  1  0
  6 15  1  0
  8  7  2  0
  9  7  1  0
 10  8  1  0
 11  9  2  0
 12 10  1  0
 12 11  1  0
 12 13  2  0
 14 16  1  0
 15 17  1  0
 17 18  1  0
 17 19  1  0
M  END
>  <DRUGBANK_ID>  (1) 
DB02918

>  <SECONDARY_ACCESSION_NUMBERS>  (1) 
EXPT03284

>  <COMMON_NAME>  (1) 
Zardaverine

>  <CAS_NUMBER>  (1) 
101975-10-4

>  <UNII>  (1) 
TQ358GWH6Y

>  <SYNONYMS>  (1) 
6-(4-(Difluoromethoxy)-3-methoxyphenyl)-3(2H)-pyridazinone; zardaverina; Zardaverine

$$$$
