
     RDKit          2D

 30 32  0  0  1  0  0  0  0  0999 V2000
    3.3810    0.3425    0.0000 O   0  0  0  0  0  0  0  0  0  0  0  0
    5.2224   -0.3721    0.0000 O   0  0  0  0  0  0  0  0  0  0  0  0
    5.2224    1.2780    0.0000 O   0  0  0  0  0  0  0  0  0  0  0  0
    3.7935    1.2780    0.0000 O   0  0  0  0  0  0  0  0  0  0  0  0
    6.6515    2.1030    0.0000 O   0  0  0  0  0  0  0  0  0  0  0  0
    8.0804   -0.3721    0.0000 O   0  0  0  0  0  0  0  0  0  0  0  0
    5.9370    0.8654    0.0000 N   0  0  0  0  0  0  0  0  0  0  0  0
    6.6515   -0.3721    0.0000 N   0  0  0  0  0  0  0  0  0  0  0  0
    3.7935   -0.3721    0.0000 C   0  0  0  0  0  0  0  0  0  0  0  0
    4.5080    0.0404    0.0000 C   0  0  0  0  0  0  0  0  0  0  0  0
    3.0791   -0.7846    0.0000 C   0  0  0  0  0  0  0  0  0  0  0  0
    4.2060   -1.0865    0.0000 C   0  0  0  0  0  0  0  0  0  0  0  0
    2.3645   -0.3721    0.0000 C   0  0  0  0  0  0  0  0  0  0  0  0
    3.7935   -1.8010    0.0000 C   0  0  0  0  0  0  0  0  0  0  0  0
    3.0791   -1.6096    0.0000 C   0  0  0  0  0  0  0  0  0  0  0  0
    5.0310   -1.0865    0.0000 C   0  0  0  0  0  0  0  0  0  0  0  0
    4.5080    0.8654    0.0000 C   0  0  0  0  0  0  0  0  0  0  0  0
    2.5560    0.3425    0.0000 C   0  0  0  0  0  0  0  0  0  0  0  0
    1.6500   -0.7846    0.0000 C   0  0  0  0  0  0  0  0  0  0  0  0
    4.2060   -2.5155    0.0000 C   0  0  0  0  0  0  0  0  0  0  0  0
    2.3645   -2.0221    0.0000 C   0  0  0  0  0  0  0  0  0  0  0  0
    5.4436   -1.8010    0.0000 C   0  0  0  0  0  0  0  0  0  0  0  0
    1.6500   -1.6096    0.0000 C   0  0  0  0  0  0  0  0  0  0  0  0
    5.0310   -2.5155    0.0000 C   0  0  0  0  0  0  0  0  0  0  0  0
    5.9370    0.0404    0.0000 C   0  0  0  0  0  0  0  0  0  0  0  0
    6.6515    1.2780    0.0000 C   0  0  0  0  0  0  0  0  0  0  0  0
    7.3659    0.0404    0.0000 C   0  0  0  0  0  0  0  0  0  0  0  0
    7.3659    0.8654    0.0000 C   0  0  0  0  0  0  0  0  0  0  0  0
    7.3659    2.5155    0.0000 C   0  0  0  0  0  0  0  0  0  0  0  0
    8.7949    0.0404    0.0000 C   0  0  0  0  0  0  0  0  0  0  0  0
  1  9  1  0
  1 18  1  0
  2 25  1  0
  3 17  1  0
  4 17  2  0
  5 26  1  0
  5 29  1  0
  6 27  1  0
  6 30  1  0
  7 25  2  0
  7 26  1  0
  8 25  1  0
  8 27  2  0
  9 10  1  0
  9 11  1  0
  9 12  1  0
 10  2  1  1
 10 17  1  0
 11 13  2  0
 11 15  1  0
 12 14  2  0
 12 16  1  0
 13 19  1  0
 14 20  1  0
 15 21  2  0
 16 22  2  0
 19 23  2  0
 20 24  2  0
 21 23  1  0
 22 24  1  0
 26 28  2  0
 27 28  1  0
M  END
>  <DRUGBANK_ID>  (1) 
DB04883

>  <COMMON_NAME>  (1) 
Darusentan

>  <CAS_NUMBER>  (1) 
171714-84-4

>  <UNII>  (1) 
33JD57L6RW

>  <SYNONYMS>  (1) 
Darusentan

$$$$
