NPE
     RDKit          2D

 20 20  0  0  0  0  0  0  0  0999 V2000
   -2.4216   -0.9550    0.0000 C   0  0  0  0  0  0  0  0  0  0  0  0
   -3.0453   -1.4951    0.0000 N   0  0  0  0  0  0  0  0  0  0  0  0
   -2.8894   -2.3052    0.0000 O   0  0  0  0  0  0  0  0  0  0  0  0
   -3.8248   -1.2251    0.0000 O   0  0  0  0  0  0  0  0  0  0  0  0
   -2.5775   -0.1449    0.0000 C   0  0  0  0  0  0  0  0  0  0  0  0
   -1.9539    0.3952    0.0000 C   0  0  0  0  0  0  0  0  0  0  0  0
   -1.1743    0.1252    0.0000 C   0  0  0  0  0  0  0  0  0  0  0  0
   -1.0184   -0.6850    0.0000 C   0  0  0  0  0  0  0  0  0  0  0  0
   -1.6421   -1.2251    0.0000 C   0  0  0  0  0  0  0  0  0  0  0  0
   -0.5507    0.6652    0.0000 O   0  0  0  0  0  0  0  0  0  0  0  0
    0.2289    0.3952    0.0000 P   0  0  0  0  0  0  0  0  0  0  0  0
   -0.0412   -0.3844    0.0000 O   0  0  0  0  0  0  0  0  0  0  0  0
    0.4989    1.1748    0.0000 O   0  0  0  0  0  0  0  0  0  0  0  0
    1.0084    0.1252    0.0000 C   0  0  0  0  0  0  0  0  0  0  0  0
    1.6320    0.6652    0.0000 C   0  0  0  0  0  0  0  0  0  0  0  0
    2.4116    0.3952    0.0000 C   0  0  0  0  0  0  0  0  0  0  0  0
    3.0352    0.9353    0.0000 C   0  0  0  0  0  0  0  0  0  0  0  0
    3.8148    0.6652    0.0000 C   0  0  0  0  0  0  0  0  0  0  0  0
    4.4384    1.2053    0.0000 O   0  0  0  0  0  0  0  0  0  0  0  0
    3.9707   -0.1449    0.0000 O   0  0  0  0  0  0  0  0  0  0  0  0
  1  2  1  0
  1  5  2  0
  1  9  1  0
  2  3  1  0
  2  4  2  0
  5  6  1  0
  6  7  2  0
  7  8  1  0
  7 10  1  0
  8  9  2  0
 11 10  1  0
 11 12  2  0
 11 13  1  0
 11 14  1  0
 14 15  1  0
 15 16  1  0
 16 17  1  0
 17 18  1  0
 18 19  2  0
 18 20  1  0
M  CHG  3   2   1   3  -1  13  -1
M  END
>  <DRUGBANK_ID>  (1) 
DB08296

>  <COMMON_NAME>  (1) 
5-(PARA-NITROPHENYL PHOSPHONATE)-PENTANOIC ACID

$$$$
