7PY
     RDKit          2D

 28 31  0  0  0  0  0  0  0  0999 V2000
    3.8260   -0.2096    0.0000 C   0  0  0  0  0  0  0  0  0  0  0  0
    3.1115   -0.6221    0.0000 O   0  0  0  0  0  0  0  0  0  0  0  0
    2.3970   -0.2096    0.0000 C   0  0  0  0  0  0  0  0  0  0  0  0
    1.6826   -0.6221    0.0000 C   0  0  0  0  0  0  0  0  0  0  0  0
    2.3970    0.6154    0.0000 C   0  0  0  0  0  0  0  0  0  0  0  0
    3.1115    1.0279    0.0000 O   0  0  0  0  0  0  0  0  0  0  0  0
    3.1115    1.8529    0.0000 C   0  0  0  0  0  0  0  0  0  0  0  0
    1.6826    1.0279    0.0000 C   0  0  0  0  0  0  0  0  0  0  0  0
    1.6826    1.8529    0.0000 O   0  0  0  0  0  0  0  0  0  0  0  0
    0.9681    2.2654    0.0000 C   0  0  0  0  0  0  0  0  0  0  0  0
    0.9681    0.6154    0.0000 C   0  0  0  0  0  0  0  0  0  0  0  0
    0.9681   -0.2096    0.0000 C   0  0  0  0  0  0  0  0  0  0  0  0
    0.2536   -0.6221    0.0000 N   0  0  0  0  0  0  0  0  0  0  0  0
   -0.4608   -0.2096    0.0000 C   0  0  0  0  0  0  0  0  0  0  0  0
   -1.1753   -0.6221    0.0000 N   0  0  0  0  0  0  0  0  0  0  0  0
   -1.8898   -0.2096    0.0000 C   0  0  0  0  0  0  0  0  0  0  0  0
   -0.4608    0.6154    0.0000 N   0  0  0  0  0  0  0  0  0  0  0  0
   -1.1753    1.0279    0.0000 C   0  0  0  0  0  0  0  0  0  0  0  0
   -1.8898    0.6154    0.0000 C   0  0  0  0  0  0  0  0  0  0  0  0
   -2.6744    0.8703    0.0000 C   0  0  0  0  0  0  0  0  0  0  0  0
   -3.1593    0.2029    0.0000 C   0  0  0  0  0  0  0  0  0  0  0  0
   -2.6744   -0.4645    0.0000 N   0  0  0  0  0  0  0  0  0  0  0  0
   -2.9294   -1.2492    0.0000 C   0  0  0  0  0  0  0  0  0  0  0  0
   -2.3773   -1.8622    0.0000 C   0  0  0  0  0  0  0  0  0  0  0  0
   -2.6323   -2.6469    0.0000 C   0  0  0  0  0  0  0  0  0  0  0  0
   -3.4392   -2.8184    0.0000 C   0  0  0  0  0  0  0  0  0  0  0  0
   -3.9913   -2.2053    0.0000 C   0  0  0  0  0  0  0  0  0  0  0  0
   -3.7363   -1.4207    0.0000 N   0  0  0  0  0  0  0  0  0  0  0  0
  1  2  1  0
  2  3  1  0
  3  4  2  0
  3  5  1  0
  4 12  1  0
  5  6  1  0
  5  8  2  0
  6  7  1  0
  8  9  1  0
  8 11  1  0
  9 10  1  0
 11 12  2  0
 12 13  1  0
 13 14  1  0
 14 15  2  0
 14 17  1  0
 15 16  1  0
 16 19  2  0
 16 22  1  0
 17 18  2  0
 18 19  1  0
 19 20  1  0
 20 21  2  0
 21 22  1  0
 22 23  1  0
 23 24  2  0
 23 28  1  0
 24 25  1  0
 25 26  2  0
 26 27  1  0
 27 28  2  0
M  END
>  <DRUGBANK_ID>  (1) 
DB07248

>  <COMMON_NAME>  (1) 
7-PYRIDIN-2-YL-N-(3,4,5-TRIMETHOXYPHENYL)-7H-PYRROLO[2,3-D]PYRIMIDIN-2-AMINE

$$$$
