
     RDKit          2D

 11 12  0  0  0  0  0  0  0  0999 V2000
   27.4385  -11.4381    0.0000 O   0  0  0  0  0  0  0  0  0  0  0  0
   27.4385  -13.0881    0.0000 O   0  0  0  0  0  0  0  0  0  0  0  0
   30.3626  -11.5992    0.0000 N   0  0  0  0  0  0  0  0  0  0  0  0
   28.1530  -11.8506    0.0000 C   0  0  0  0  0  0  0  0  0  0  0  0
   28.1530  -12.6756    0.0000 C   0  0  0  0  0  0  0  0  0  0  0  0
   29.5820  -11.8506    0.0000 C   0  0  0  0  0  0  0  0  0  0  0  0
   29.5820  -12.6756    0.0000 C   0  0  0  0  0  0  0  0  0  0  0  0
   30.8441  -12.2631    0.0000 C   0  0  0  0  0  0  0  0  0  0  0  0
   28.8676  -11.4381    0.0000 C   0  0  0  0  0  0  0  0  0  0  0  0
   28.8676  -13.0881    0.0000 C   0  0  0  0  0  0  0  0  0  0  0  0
   30.3626  -12.9270    0.0000 C   0  0  0  0  0  0  0  0  0  0  0  0
  1  4  1  0
  2  5  1  0
  3  6  1  0
  3  8  1  0
  4  5  1  0
  4  9  2  0
  5 10  2  0
  6  7  2  0
  6  9  1  0
  7 10  1  0
  7 11  1  0
  8 11  2  0
M  END
>  <DRUGBANK_ID>  (1) 
DB01811

>  <SECONDARY_ACCESSION_NUMBERS>  (1) 
EXPT00174

>  <COMMON_NAME>  (1) 
3h-Indole-5,6-Diol

>  <CAS_NUMBER>  (1) 
3131-52-0

>  <UNII>  (1) 
Z3OC8499KG

$$$$
