3HT
     RDKit          2D

 23 26  0  0  0  0  0  0  0  0999 V2000
   -2.7457   -0.8486    0.0000 C   0  0  0  0  0  0  0  0  0  0  0  0
   -2.4908   -0.0640    0.0000 C   0  0  0  0  0  0  0  0  0  0  0  0
   -1.6838    0.1075    0.0000 C   0  0  0  0  0  0  0  0  0  0  0  0
   -1.1317   -0.5056    0.0000 C   0  0  0  0  0  0  0  0  0  0  0  0
   -1.3867   -1.2902    0.0000 C   0  0  0  0  0  0  0  0  0  0  0  0
   -1.9138    1.5596    0.0000 C   0  0  0  0  0  0  0  0  0  0  0  0
    0.0703    2.3846    0.0000 C   0  0  0  0  0  0  0  0  0  0  0  0
    0.7847    1.1471    0.0000 C   0  0  0  0  0  0  0  0  0  0  0  0
   -0.6442    1.1471    0.0000 C   0  0  0  0  0  0  0  0  0  0  0  0
    2.8049    0.4571    0.0000 C   0  0  0  0  0  0  0  0  0  0  0  0
    3.6254    0.5433    0.0000 S   0  0  0  0  0  0  0  0  0  0  0  0
    2.3924   -0.2574    0.0000 N   0  0  0  0  0  0  0  0  0  0  0  0
    1.5854   -0.0859    0.0000 N   0  0  0  0  0  0  0  0  0  0  0  0
    2.2529    1.0702    0.0000 O   0  0  0  0  0  0  0  0  0  0  0  0
    1.4992    0.7346    0.0000 C   0  0  0  0  0  0  0  0  0  0  0  0
    0.7847    1.9721    0.0000 C   0  0  0  0  0  0  0  0  0  0  0  0
    0.0703    0.7346    0.0000 C   0  0  0  0  0  0  0  0  0  0  0  0
   -0.6442    1.9721    0.0000 C   0  0  0  0  0  0  0  0  0  0  0  0
   -1.4288    2.2270    0.0000 N   0  0  0  0  0  0  0  0  0  0  0  0
   -1.4288    0.8922    0.0000 N   0  0  0  0  0  0  0  0  0  0  0  0
   -2.1937   -1.4617    0.0000 C   0  0  0  0  0  0  0  0  0  0  0  0
   -2.4486   -2.2463    0.0000 O   0  0  0  0  0  0  0  0  0  0  0  0
   -1.8966   -2.8594    0.0000 C   0  0  0  0  0  0  0  0  0  0  0  0
  1  2  2  0
  2  3  1  0
  3 20  1  0
  4  3  2  0
  5  4  1  0
  6 19  2  0
  8 16  1  0
  9 18  2  0
 10 12  1  0
 11 10  2  0
 12 13  1  0
 14 10  1  0
 14 15  1  0
 15  8  1  0
 15 13  2  0
 16  7  2  0
 17  8  2  0
 17  9  1  0
 18  7  1  0
 19 18  1  0
 20  6  1  0
 20  9  1  0
 21  1  1  0
 21  5  2  0
 22 21  1  0
 23 22  1  0
M  END
>  <DRUGBANK_ID>  (1) 
DB07058

>  <COMMON_NAME>  (1) 
5-[1-(4-methoxyphenyl)-1H-benzimidazol-6-yl]-1,3,4-oxadiazole-2(3H)-thione

$$$$
