
     RDKit          2D

 33 36  0  0  0  0  0  0  0  0999 V2000
   -0.9625    5.1475    0.0000 C   0  0  0  0  0  0  0  0  0  0  0  0
   -1.5145    4.5344    0.0000 S   0  0  0  0  0  0  0  0  0  0  0  0
   -2.1276    5.0865    0.0000 O   0  0  0  0  0  0  0  0  0  0  0  0
   -0.9015    3.9824    0.0000 O   0  0  0  0  0  0  0  0  0  0  0  0
   -2.0666    3.9213    0.0000 C   0  0  0  0  0  0  0  0  0  0  0  0
   -1.8116    3.1367    0.0000 C   0  0  0  0  0  0  0  0  0  0  0  0
   -2.3637    2.5236    0.0000 C   0  0  0  0  0  0  0  0  0  0  0  0
   -2.1087    1.7390    0.0000 N   0  0  0  0  0  0  0  0  0  0  0  0
   -2.5937    1.0716    0.0000 C   0  0  0  0  0  0  0  0  0  0  0  0
   -3.4187    1.0716    0.0000 C   0  0  0  0  0  0  0  0  0  0  0  0
   -3.8312    0.3571    0.0000 N   0  0  0  0  0  0  0  0  0  0  0  0
   -4.6516    0.2708    0.0000 C   0  0  0  0  0  0  0  0  0  0  0  0
   -5.2037    0.8839    0.0000 O   0  0  0  0  0  0  0  0  0  0  0  0
   -4.8232   -0.5361    0.0000 N   0  0  0  0  0  0  0  0  0  0  0  0
   -5.5768   -0.8717    0.0000 C   0  0  0  0  0  0  0  0  0  0  0  0
   -5.6631   -1.6922    0.0000 C   0  0  0  0  0  0  0  0  0  0  0  0
   -5.7493   -2.5126    0.0000 F   0  0  0  0  0  0  0  0  0  0  0  0
   -6.4836   -1.6059    0.0000 F   0  0  0  0  0  0  0  0  0  0  0  0
   -4.8426   -1.7784    0.0000 F   0  0  0  0  0  0  0  0  0  0  0  0
   -4.1087   -0.9486    0.0000 C   0  0  0  0  0  0  0  0  0  0  0  0
   -3.4956   -0.3966    0.0000 C   0  0  0  0  0  0  0  0  0  0  0  0
   -2.7110   -0.6515    0.0000 C   0  0  0  0  0  0  0  0  0  0  0  0
   -2.5394   -1.4585    0.0000 N   0  0  0  0  0  0  0  0  0  0  0  0
   -3.1525   -2.0105    0.0000 C   0  0  0  0  0  0  0  0  0  0  0  0
   -3.9372   -1.7556    0.0000 C   0  0  0  0  0  0  0  0  0  0  0  0
   -2.1087    0.4041    0.0000 C   0  0  0  0  0  0  0  0  0  0  0  0
   -1.3241    0.6591    0.0000 C   0  0  0  0  0  0  0  0  0  0  0  0
   -1.3241    1.4841    0.0000 C   0  0  0  0  0  0  0  0  0  0  0  0
   -0.6096    1.8966    0.0000 C   0  0  0  0  0  0  0  0  0  0  0  0
    0.1048    1.4841    0.0000 C   0  0  0  0  0  0  0  0  0  0  0  0
    0.1048    0.6591    0.0000 C   0  0  0  0  0  0  0  0  0  0  0  0
    0.8193    0.2466    0.0000 Cl  0  0  0  0  0  0  0  0  0  0  0  0
   -0.6096    0.2466    0.0000 C   0  0  0  0  0  0  0  0  0  0  0  0
  1  2  1  0
  2  3  2  0
  2  4  2  0
  2  5  1  0
  5  6  1  0
  6  7  1  0
  7  8  1  0
  8  9  1  0
  8 28  1  0
  9 10  1  0
  9 26  2  0
 10 11  1  0
 11 12  1  0
 11 21  1  0
 12 13  2  0
 12 14  1  0
 14 15  1  0
 14 20  1  0
 15 16  1  0
 16 17  1  0
 16 18  1  0
 16 19  1  0
 20 21  2  0
 20 25  1  0
 21 22  1  0
 22 23  2  0
 23 24  1  0
 24 25  2  0
 26 27  1  0
 27 28  2  0
 27 33  1  0
 28 29  1  0
 29 30  2  0
 30 31  1  0
 31 32  1  0
 31 33  2  0
M  END
>  <DRUGBANK_ID>  (1) 
DB15672

>  <COMMON_NAME>  (1) 
Rilematovir

>  <CAS_NUMBER>  (1) 
1383450-81-4

>  <UNII>  (1) 
NQ99E8OH3P

>  <SYNONYMS>  (1) 
Rilematovir

$$$$
