
     RDKit          2D

 32 36  0  0  0  0  0  0  0  0999 V2000
    3.2973   -0.5315    0.0000 C   0  0  0  0  0  0  0  0  0  0  0  0
   -2.5061    0.4817    0.0000 C   0  0  0  0  0  0  0  0  0  0  0  0
    2.0763   -0.9301    0.0000 C   0  0  0  0  0  0  0  0  0  0  0  0
   -1.0712    0.4817    0.0000 C   0  0  0  0  0  0  0  0  0  0  0  0
   -1.7876    0.0725    0.0000 C   0  0  0  0  0  0  0  0  0  0  0  0
    2.5020    0.2553    0.0000 C   0  0  0  0  0  0  0  0  0  0  0  0
    2.5020   -0.7453    0.0000 C   0  0  0  0  0  0  0  0  0  0  0  0
    1.2894   -1.1690    0.0000 O   0  0  0  0  0  0  0  0  0  0  0  0
    1.7025   -0.4651    0.0000 C   0  0  0  0  0  0  0  0  0  0  0  0
    2.0680   -0.1495    0.0000 C   0  0  0  0  0  0  0  0  0  0  0  0
    3.9347   -0.7453    0.0000 C   0  0  0  0  0  0  0  0  0  0  0  0
    2.8343   -1.3103    0.0000 C   0  0  0  0  0  0  0  0  0  0  0  0
   -3.2205    0.0725    0.0000 C   0  0  0  0  0  0  0  0  0  0  0  0
   -0.3590    0.0747    0.0000 N   0  0  0  0  0  0  0  0  0  0  0  0
    3.2226    0.4899    0.0000 C   0  0  0  0  0  0  0  0  0  0  0  0
    3.0565    0.0829    0.0000 C   0  0  0  0  0  0  0  0  0  0  0  0
    3.9347    0.0808    0.0000 C   0  0  0  0  0  0  0  0  0  0  0  0
    1.5738    0.1660    0.0000 C   0  0  0  0  0  0  0  0  0  0  0  0
   -2.5061    1.3103    0.0000 C   0  0  0  0  0  0  0  0  0  0  0  0
    1.7876    0.4880    0.0000 C   0  0  0  0  0  0  0  0  0  0  0  0
    0.3551    0.4817    0.0000 C   0  0  0  0  0  0  0  0  0  0  0  0
   -1.0734    1.3103    0.0000 C   0  0  0  0  0  0  0  0  0  0  0  0
   -3.2205   -0.7558    0.0000 O   0  0  0  0  0  0  0  0  0  0  0  0
   -1.7938    1.7234    0.0000 C   0  0  0  0  0  0  0  0  0  0  0  0
    3.2226    1.3163    0.0000 O   0  0  0  0  0  0  0  0  0  0  0  0
    0.3551    1.3103    0.0000 O   0  0  0  0  0  0  0  0  0  0  0  0
    1.0755    0.0747    0.0000 C   0  0  0  0  0  0  0  0  0  0  0  0
   -1.7876   -0.7558    0.0000 O   0  0  0  0  0  0  0  0  0  0  0  0
   -3.9347    0.4880    0.0000 O   0  0  0  0  0  0  0  0  0  0  0  0
    2.2860   -1.7316    0.0000 C   0  0  0  0  0  0  0  0  0  0  0  0
   -0.3590    1.7316    0.0000 O   0  0  0  0  0  0  0  0  0  0  0  0
    2.4999    1.0111    0.0000 C   0  0  0  0  0  0  0  0  0  0  0  0
  1 11  1  6
  1 16  1  0
  2  5  2  0
  2 19  1  0
  3 12  1  0
  3  8  1  0
  3 30  1  1
  4 14  1  0
  5  4  1  0
  7  6  1  6
  6 20  1  0
  6 32  1  1
  7  1  1  0
  8  9  1  0
  9  7  1  0
  9 18  1  1
 10 16  1  6
 10  3  1  0
 12  1  1  0
 13  2  1  0
 14 21  1  0
 15 17  1  0
 15  6  1  0
 17 11  2  0
 18 10  1  0
 19 24  2  0
 21 27  1  0
 22  4  2  0
 23 13  2  0
 24 22  1  0
 25 15  2  0
 26 21  2  0
 27 20  1  0
 28  5  1  0
 29 13  1  0
 31 22  1  0
M  END
>  <DRUGBANK_ID>  (1) 
DB08407

>  <COMMON_NAME>  (1) 
Platensimycin

>  <CAS_NUMBER>  (1) 
835876-32-9

>  <UNII>  (1) 
Q3DQ78KOFY

>  <SYNONYMS>  (1) 
(âˆ’)-platensimycin

$$$$
