GEQ
     RDKit          2D

 30 35  0  0  0  0  0  0  0  0999 V2000
    0.2373   -3.0914    0.0000 C   0  0  0  0  0  0  0  0  0  0  0  0
    0.2373   -2.2664    0.0000 C   0  0  0  0  0  0  0  0  0  0  0  0
    0.9518   -1.8539    0.0000 C   0  0  0  0  0  0  0  0  0  0  0  0
    1.6662   -2.2664    0.0000 C   0  0  0  0  0  0  0  0  0  0  0  0
    1.6662   -3.0914    0.0000 C   0  0  0  0  0  0  0  0  0  0  0  0
    0.9518   -3.5039    0.0000 C   0  0  0  0  0  0  0  0  0  0  0  0
    1.1233   -4.3109    0.0000 C   0  0  0  0  0  0  0  0  0  0  0  0
    1.9438   -4.3971    0.0000 C   0  0  0  0  0  0  0  0  0  0  0  0
    2.2793   -3.6435    0.0000 N   0  0  0  0  0  0  0  0  0  0  0  0
   -0.4772   -1.8539    0.0000 C   0  0  0  0  0  0  0  0  0  0  0  0
   -1.1916   -2.2664    0.0000 O   0  0  0  0  0  0  0  0  0  0  0  0
   -0.4772   -1.0289    0.0000 N   0  0  0  0  0  0  0  0  0  0  0  0
   -1.1916   -0.6164    0.0000 C   0  0  0  0  0  0  0  0  0  0  0  0
   -1.1916    0.2086    0.0000 C   0  0  0  0  0  0  0  0  0  0  0  0
   -0.4772    0.6211    0.0000 N   0  0  0  0  0  0  0  0  0  0  0  0
    0.2373    0.2086    0.0000 C   0  0  0  0  0  0  0  0  0  0  0  0
    0.2373   -0.6164    0.0000 C   0  0  0  0  0  0  0  0  0  0  0  0
   -0.4772    1.4461    0.0000 C   0  0  0  0  0  0  0  0  0  0  0  0
    0.1903    1.9310    0.0000 C   0  0  0  0  0  0  0  0  0  0  0  0
    0.9972    1.7595    0.0000 C   0  0  0  0  0  0  0  0  0  0  0  0
    1.5493    2.3726    0.0000 C   0  0  0  0  0  0  0  0  0  0  0  0
    1.2943    3.1572    0.0000 C   0  0  0  0  0  0  0  0  0  0  0  0
    0.4874    3.3287    0.0000 C   0  0  0  0  0  0  0  0  0  0  0  0
   -0.0647    2.7156    0.0000 C   0  0  0  0  0  0  0  0  0  0  0  0
   -1.1446    1.9310    0.0000 C   0  0  0  0  0  0  0  0  0  0  0  0
   -1.9516    1.7595    0.0000 C   0  0  0  0  0  0  0  0  0  0  0  0
   -2.5036    2.3726    0.0000 C   0  0  0  0  0  0  0  0  0  0  0  0
   -2.2487    3.1572    0.0000 C   0  0  0  0  0  0  0  0  0  0  0  0
   -1.4417    3.3287    0.0000 C   0  0  0  0  0  0  0  0  0  0  0  0
   -0.8897    2.7156    0.0000 C   0  0  0  0  0  0  0  0  0  0  0  0
  1  2  2  0
  1  6  1  0
  2  3  1  0
  2 10  1  0
  3  4  2  0
  4  5  1  0
  5  6  2  0
  5  9  1  0
  6  7  1  0
  7  8  2  0
  8  9  1  0
 10 11  2  0
 10 12  1  0
 12 13  1  0
 12 17  1  0
 13 14  1  0
 14 15  1  0
 15 16  1  0
 15 18  1  0
 16 17  1  0
 18 19  1  0
 18 25  1  0
 19 20  2  0
 19 24  1  0
 20 21  1  0
 21 22  2  0
 22 23  1  0
 23 24  2  0
 24 30  1  0
 25 26  1  0
 25 30  2  0
 26 27  2  0
 27 28  1  0
 28 29  2  0
 29 30  1  0
M  END
>  <DRUGBANK_ID>  (1) 
DB04289

>  <SECONDARY_ACCESSION_NUMBERS>  (1) 
EXPT01584

>  <COMMON_NAME>  (1) 
Genz-10850

$$$$
