C0R
     RDKit          2D

 25 28  0  0  0  0  0  0  0  0999 V2000
    1.9763   -0.4677    0.0000 C   0  0  0  0  0  0  0  0  0  0  0  0
    2.7884   -0.3225    0.0000 C   0  0  0  0  0  0  0  0  0  0  0  0
    3.0687    0.4535    0.0000 C   0  0  0  0  0  0  0  0  0  0  0  0
    2.5369    1.0842    0.0000 C   0  0  0  0  0  0  0  0  0  0  0  0
    1.7248    0.9390    0.0000 C   0  0  0  0  0  0  0  0  0  0  0  0
    1.1930    1.5697    0.0000 C   0  0  0  0  0  0  0  0  0  0  0  0
    0.3808    1.4244    0.0000 C   0  0  0  0  0  0  0  0  0  0  0  0
    0.1005    0.6485    0.0000 C   0  0  0  0  0  0  0  0  0  0  0  0
    0.6324    0.0178    0.0000 C   0  0  0  0  0  0  0  0  0  0  0  0
    1.4445    0.1630    0.0000 C   0  0  0  0  0  0  0  0  0  0  0  0
    0.3521   -0.7581    0.0000 C   0  0  0  0  0  0  0  0  0  0  0  0
   -0.4601   -0.9033    0.0000 C   0  0  0  0  0  0  0  0  0  0  0  0
   -0.9919   -0.2726    0.0000 C   0  0  0  0  0  0  0  0  0  0  0  0
   -0.7116    0.5033    0.0000 C   0  0  0  0  0  0  0  0  0  0  0  0
   -1.3629    1.0097    0.0000 C   0  0  0  0  0  0  0  0  0  0  0  0
   -2.0457    0.5467    0.0000 C   0  0  0  0  0  0  0  0  0  0  0  0
   -1.8164   -0.2458    0.0000 C   0  0  0  0  0  0  0  0  0  0  0  0
   -1.3517   -1.0150    0.0000 C   0  0  0  0  0  0  0  0  0  0  0  0
    1.1642   -0.6129    0.0000 C   0  0  0  0  0  0  0  0  0  0  0  0
   -2.3228   -0.8971    0.0000 C   0  0  0  0  0  0  0  0  0  0  0  0
   -3.1400   -0.7843    0.0000 C   0  0  0  0  0  0  0  0  0  0  0  0
    3.8808    0.5987    0.0000 O   0  0  0  0  0  0  0  0  0  0  0  0
    0.8839   -1.3888    0.0000 O   0  0  0  0  0  0  0  0  0  0  0  0
   -2.0119   -1.6613    0.0000 O   0  0  0  0  0  0  0  0  0  0  0  0
   -3.6464   -1.4356    0.0000 O   0  0  0  0  0  0  0  0  0  0  0  0
  1  2  1  0
  1 10  1  0
  2  3  1  0
  3  4  1  0
  3 22  2  0
  4  5  2  0
  5  6  1  0
  5 10  1  0
  6  7  1  0
  8  7  1  6
  8  9  1  0
  8 14  1  0
  9 10  1  0
  9 11  1  1
 10 19  1  1
 11 12  1  0
 11 23  1  1
 12 13  1  0
 13 14  1  0
 13 17  1  0
 13 18  1  1
 14 15  1  1
 15 16  1  0
 16 17  1  0
 17 20  1  1
 20 21  1  0
 20 24  2  0
 21 25  1  0
M  END
>  <DRUGBANK_ID>  (1) 
DB04652

>  <COMMON_NAME>  (1) 
Corticosterone

>  <CAS_NUMBER>  (1) 
50-22-6

>  <UNII>  (1) 
W980KJ009P

>  <SYNONYMS>  (1) 
(11β)-11,21-dihydroxypregn-4-ene-3,20-dione; 11beta,21-Dihydroxy-4-pregnene-3,20-dione; 11β,21-dihydroxyprogesterone; 17-deoxycortisol; Kendall's compound B; Reichstein's substance H

$$$$
