
     RDKit          2D

 22 23  0  0  0  0  0  0  0  0999 V2000
   -7.5441    7.1680    0.0000 C   0  0  0  0  0  0  0  0  0  0  0  0
   -7.0591    6.5005    0.0000 C   0  0  0  0  0  0  0  0  0  0  0  0
   -6.2387    6.5868    0.0000 N   0  0  0  0  0  0  0  0  0  0  0  0
   -5.7537    5.9193    0.0000 C   0  0  0  0  0  0  0  0  0  0  0  0
   -6.0893    5.1657    0.0000 C   0  0  0  0  0  0  0  0  0  0  0  0
   -5.6044    4.4982    0.0000 C   0  0  0  0  0  0  0  0  0  0  0  0
   -4.7839    4.5845    0.0000 N   0  0  0  0  0  0  0  0  0  0  0  0
   -4.3714    5.2989    0.0000 C   0  0  0  0  0  0  0  0  0  0  0  0
   -3.5644    5.1274    0.0000 S   0  0  0  0  0  0  0  0  0  0  0  0
   -3.4782    4.3069    0.0000 C   0  0  0  0  0  0  0  0  0  0  0  0
   -2.7637    3.8944    0.0000 C   0  0  0  0  0  0  0  0  0  0  0  0
   -2.0492    4.3069    0.0000 C   0  0  0  0  0  0  0  0  0  0  0  0
   -1.3348    3.8944    0.0000 O   0  0  0  0  0  0  0  0  0  0  0  0
   -0.6203    4.3069    0.0000 P   0  0  0  0  0  0  0  0  0  0  0  0
    0.0942    4.7194    0.0000 O   0  0  0  0  0  0  0  0  0  0  0  0
   -0.2078    3.5924    0.0000 O   0  0  0  0  0  0  0  0  0  0  0  0
   -1.0328    5.0214    0.0000 O   0  0  0  0  0  0  0  0  0  0  0  0
   -4.2319    3.9714    0.0000 C   0  0  0  0  0  0  0  0  0  0  0  0
   -4.4034    3.1644    0.0000 C   0  0  0  0  0  0  0  0  0  0  0  0
   -6.9098    5.0794    0.0000 C   0  0  0  0  0  0  0  0  0  0  0  0
   -7.2453    4.3257    0.0000 N   0  0  0  0  0  0  0  0  0  0  0  0
   -7.3947    5.7469    0.0000 N   0  0  0  0  0  0  0  0  0  0  0  0
  1  2  1  0
  2  3  2  0
  2 22  1  0
  3  4  1  0
  4  5  2  0
  5  6  1  0
  5 20  1  0
  6  7  1  0
  7  8  2  0
  7 18  1  0
  8  9  1  0
  9 10  1  0
 10 11  1  0
 10 18  2  0
 11 12  1  0
 12 13  1  0
 13 14  1  0
 14 15  1  6
 14 16  1  0
 14 17  2  0
 18 19  1  0
 20 21  1  0
 20 22  2  0
M  CHG  2   7   1  16  -1
M  END
>  <DRUGBANK_ID>  (1) 
DB03416

>  <SECONDARY_ACCESSION_NUMBERS>  (1) 
EXPT03096

>  <COMMON_NAME>  (1) 
Thiamine(1+) monophosphate

>  <CAS_NUMBER>  (1) 
10023-48-0

>  <UNII>  (1) 
71F2V60NN0

$$$$
