RRS
     RDKit          2D

 33 35  0  0  0  0  0  0  0  0999 V2000
   -1.4926   -1.9318    0.0000 C   0  0  0  0  0  0  0  0  0  0  0  0
   -1.4926   -1.1068    0.0000 O   0  0  0  0  0  0  0  0  0  0  0  0
   -2.2071   -2.3443    0.0000 N   0  0  0  0  0  0  0  0  0  0  0  0
   -2.2071   -3.1693    0.0000 O   0  0  0  0  0  0  0  0  0  0  0  0
   -0.7781   -2.3443    0.0000 C   0  0  0  0  0  0  0  0  0  0  0  0
   -0.0637   -1.9318    0.0000 C   0  0  0  0  0  0  0  0  0  0  0  0
   -0.0637   -1.1068    0.0000 C   0  0  0  0  0  0  0  0  0  0  0  0
    0.6508   -0.6943    0.0000 O   0  0  0  0  0  0  0  0  0  0  0  0
   -0.7781   -0.6943    0.0000 N   0  0  0  0  0  0  0  0  0  0  0  0
   -0.7781    0.1307    0.0000 C   0  0  0  0  0  0  0  0  0  0  0  0
   -1.5546   -0.1482    0.0000 C   0  0  0  0  0  0  0  0  0  0  0  0
   -1.7854   -0.9403    0.0000 O   0  0  0  0  0  0  0  0  0  0  0  0
   -2.0597    0.5041    0.0000 N   0  0  0  0  0  0  0  0  0  0  0  0
   -1.5955    1.1861    0.0000 C   0  0  0  0  0  0  0  0  0  0  0  0
   -1.6783    2.0850    0.0000 C   0  0  0  0  0  0  0  0  0  0  0  0
   -1.0261    2.5902    0.0000 C   0  0  0  0  0  0  0  0  0  0  0  0
   -0.2625    2.2779    0.0000 C   0  0  0  0  0  0  0  0  0  0  0  0
    0.3898    2.7830    0.0000 C   0  0  0  0  0  0  0  0  0  0  0  0
    1.1534    2.4707    0.0000 C   0  0  0  0  0  0  0  0  0  0  0  0
    1.2647    1.6533    0.0000 N   0  0  0  0  0  0  0  0  0  0  0  0
    0.6508   -2.3443    0.0000 C   0  0  0  0  0  0  0  0  0  0  0  0
    1.3653   -1.9318    0.0000 C   0  0  0  0  0  0  0  0  0  0  0  0
    1.3653   -1.1068    0.0000 C   0  0  0  0  0  0  0  0  0  0  0  0
    2.0797   -2.3443    0.0000 C   0  0  0  0  0  0  0  0  0  0  0  0
    0.0715   -0.1745    0.0000 C   0  0  0  0  0  0  0  0  0  0  0  0
    0.7238    0.3307    0.0000 C   0  0  0  0  0  0  0  0  0  0  0  0
    0.6125    1.1481    0.0000 C   0  0  0  0  0  0  0  0  0  0  0  0
    1.5821    0.3567    0.0000 C   0  0  0  0  0  0  0  0  0  0  0  0
    1.8945    1.1203    0.0000 C   0  0  0  0  0  0  0  0  0  0  0  0
    2.0873   -0.2956    0.0000 C   0  0  0  0  0  0  0  0  0  0  0  0
    2.7119    1.2316    0.0000 C   0  0  0  0  0  0  0  0  0  0  0  0
    2.9047   -0.1843    0.0000 C   0  0  0  0  0  0  0  0  0  0  0  0
    3.2171    0.5793    0.0000 C   0  0  0  0  0  0  0  0  0  0  0  0
  1  2  2  0
  1  3  1  0
  1  5  1  0
  3  4  1  0
  6  5  1  6
  6  7  1  0
  6 21  1  0
  7  8  2  0
  7  9  1  0
 10  9  1  1
 10 11  1  0
 10 25  1  0
 11 12  2  0
 11 13  1  0
 13 14  1  0
 14 15  1  0
 15 16  1  0
 16 17  1  0
 17 18  1  0
 18 19  1  0
 19 20  1  0
 20 27  1  0
 20 29  1  0
 21 22  1  0
 22 23  1  0
 22 24  1  0
 25 26  1  0
 26 27  2  0
 26 28  1  0
 28 29  2  0
 28 30  1  0
 29 31  1  0
 30 32  2  0
 31 33  2  0
 32 33  1  0
M  END
>  <DRUGBANK_ID>  (1) 
DB08489

>  <COMMON_NAME>  (1) 
N4-HYDROXY-2-ISOBUTYL-N1-(9-OXO-1,8-DIAZA-TRICYCLO[10.6.1.013,18]NONADECA-12(19),13,15,17-TETRAEN-10-YL)-SUCCINAMIDE

$$$$
