
     RDKit          2D

 23 26  0  0  1  0  0  0  0  0999 V2000
   -2.3799   -2.7244    0.0000 C   0  0  0  0  0  0  0  0  0  0  0  0
   -3.1645   -2.4694    0.0000 N   0  0  0  0  0  0  0  0  0  0  0  0
   -3.3361   -1.6625    0.0000 C   0  0  0  0  0  0  0  0  0  0  0  0
   -2.7230   -1.1104    0.0000 C   0  0  0  0  0  0  0  0  0  0  0  0
   -1.9384   -1.3654    0.0000 C   0  0  0  0  0  0  0  0  0  0  0  0
   -1.7668   -2.1724    0.0000 N   0  0  0  0  0  0  0  0  0  0  0  0
   -1.4534   -0.6979    0.0000 N   0  0  0  0  0  0  0  0  0  0  0  0
   -1.9384   -0.0305    0.0000 C   0  0  0  0  0  0  0  0  0  0  0  0
   -2.7230   -0.2854    0.0000 N   0  0  0  0  0  0  0  0  0  0  0  0
   -1.6834    0.7541    0.0000 Cl  0  0  0  0  0  0  0  0  0  0  0  0
   -0.6284   -0.6979    0.0000 C   0  0  0  0  0  0  0  0  0  0  0  0
   -0.1435   -1.3654    0.0000 C   0  0  0  0  0  0  0  0  0  0  0  0
    0.6411   -1.1104    0.0000 C   0  0  0  0  0  0  0  0  0  0  0  0
    0.6411   -0.2854    0.0000 C   0  0  0  0  0  0  0  0  0  0  0  0
   -0.1435   -0.0305    0.0000 O   0  0  0  0  0  0  0  0  0  0  0  0
    1.3556    0.1271    0.0000 C   0  0  0  0  0  0  0  0  0  0  0  0
    2.0701   -0.2854    0.0000 O   0  0  0  0  0  0  0  0  0  0  0  0
    2.0701   -1.1104    0.0000 P   0  0  0  0  0  0  0  0  0  0  0  0
    2.8825   -0.9672    0.0000 O   0  0  0  0  0  0  0  0  0  0  0  0
    1.3556   -1.5229    0.0000 O   0  0  0  0  0  0  0  0  0  0  0  0
    2.3522   -1.8857    0.0000 O   0  0  0  0  0  0  0  0  0  0  0  0
   -0.3984   -2.1500    0.0000 O   0  0  0  0  0  0  0  0  0  0  0  0
   -4.1207   -1.4075    0.0000 N   0  0  0  0  0  0  0  0  0  0  0  0
  1  2  2  0
  1  6  1  0
  2  3  1  0
  3  4  2  0
  3 23  1  0
  4  5  1  0
  4  9  1  0
  5  6  2  0
  5  7  1  0
  7  8  1  0
  8  9  2  0
  8 10  1  0
 11  7  1  6
 11 12  1  0
 11 15  1  0
 12 13  1  0
 12 22  1  1
 13 14  1  0
 13 20  1  1
 14 15  1  0
 14 16  1  6
 16 17  1  0
 17 18  1  0
 18 19  2  0
 18 20  1  0
 18 21  1  0
M  END
>  <DRUGBANK_ID>  (1) 
DB13046

>  <COMMON_NAME>  (1) 
Tocladesine

>  <CAS_NUMBER>  (1) 
41941-56-4

>  <UNII>  (1) 
BQ94Z7E5OR

>  <SYNONYMS>  (1) 
Tocladesine

$$$$
