
     RDKit          2D

 31 32  0  0  1  0  0  0  0  0999 V2000
    0.2905   -3.1169    0.0000 C   0  0  0  0  0  0  0  0  0  0  0  0
    0.1884   -2.2982    0.0000 O   0  0  0  0  0  0  0  0  0  0  0  0
    0.8464   -1.8005    0.0000 C   0  0  0  0  0  0  0  0  0  0  0  0
    0.7443   -0.9818    0.0000 C   0  0  0  0  0  0  0  0  0  0  0  0
   -0.0157   -0.6609    0.0000 C   0  0  0  0  0  0  0  0  0  0  0  0
   -0.1178    0.1578    0.0000 C   0  0  0  0  0  0  0  0  0  0  0  0
    0.5402    0.6555    0.0000 C   0  0  0  0  0  0  0  0  0  0  0  0
    1.3002    0.3346    0.0000 C   0  0  0  0  0  0  0  0  0  0  0  0
    1.9581    0.8323    0.0000 C   0  0  0  0  0  0  0  0  0  0  0  0
    2.7181    0.5114    0.0000 C   0  0  0  0  0  0  0  0  0  0  0  0
    2.8202   -0.3073    0.0000 O   0  0  0  0  0  0  0  0  0  0  0  0
    3.3761    1.0091    0.0000 C   0  0  0  0  0  0  0  0  0  0  0  0
    4.1361    0.6881    0.0000 C   0  0  0  0  0  0  0  0  0  0  0  0
    4.7941    1.1859    0.0000 C   0  0  0  0  0  0  0  0  0  0  0  0
    4.7781    2.0107    0.0000 C   0  0  0  0  0  0  0  0  0  0  0  0
    4.1014    2.4827    0.0000 O   0  0  0  0  0  0  0  0  0  0  0  0
    5.5577    2.2808    0.0000 C   0  0  0  0  0  0  0  0  0  0  0  0
    6.0554    1.6228    0.0000 C   0  0  0  0  0  0  0  0  0  0  0  0
    6.8802    1.6387    0.0000 O   0  0  0  0  0  0  0  0  0  0  0  0
    5.5834    0.9461    0.0000 C   0  0  0  0  0  0  0  0  0  0  0  0
    5.8535    0.1666    0.0000 C   0  0  0  0  0  0  0  0  0  0  0  0
    5.3134   -0.4571    0.0000 C   0  0  0  0  0  0  0  0  0  0  0  0
    5.5834   -1.2366    0.0000 S   0  0  0  0  0  0  0  0  0  0  0  0
    6.3936   -1.3925    0.0000 C   0  0  0  0  0  0  0  0  0  0  0  0
    6.9337   -0.7689    0.0000 C   0  0  0  0  0  0  0  0  0  0  0  0
    7.7438   -0.9248    0.0000 C   0  0  0  0  0  0  0  0  0  0  0  0
    8.2839   -0.3012    0.0000 C   0  0  0  0  0  0  0  0  0  0  0  0
    8.0139    0.4784    0.0000 O   0  0  0  0  0  0  0  0  0  0  0  0
    9.0940   -0.4571    0.0000 O   0  0  0  0  0  0  0  0  0  0  0  0
    9.6341    0.1666    0.0000 C   0  0  0  0  0  0  0  0  0  0  0  0
    1.4022   -0.4841    0.0000 C   0  0  0  0  0  0  0  0  0  0  0  0
  1  2  1  0
  2  3  1  0
  3  4  1  0
  4  5  2  0
  4 31  1  0
  5  6  1  0
  6  7  2  0
  7  8  1  0
  8  9  1  0
  8 31  2  0
 10  9  1  0
 10 11  1  1
 10 12  1  0
 12 13  2  0
 14 13  1  1
 14 15  1  0
 14 20  1  0
 15 16  1  6
 15 17  1  0
 17 18  1  0
 18 19  2  0
 20 18  1  0
 20 21  1  6
 21 22  1  0
 22 23  1  0
 23 24  1  0
 24 25  1  0
 25 26  1  0
 26 27  1  0
 27 28  2  0
 27 29  1  0
 29 30  1  0
M  END
>  <DRUGBANK_ID>  (1) 
DB16315

>  <COMMON_NAME>  (1) 
Rivenprost

>  <CAS_NUMBER>  (1) 
256382-08-8

>  <UNII>  (1) 
1WBO45T413

>  <SYNONYMS>  (1) 
Rivenprost

$$$$
