DFA
     RDKit          2D

 16 17  0  0  0  0  0  0  0  0999 V2000
    1.0339    0.7030    0.0000 C   0  0  0  0  0  0  0  0  0  0  0  0
    1.0339    1.5280    0.0000 O   0  0  0  0  0  0  0  0  0  0  0  0
   -1.1095    1.9405    0.0000 C   0  0  0  0  0  0  0  0  0  0  0  0
   -0.3950    1.5280    0.0000 C   0  0  0  0  0  0  0  0  0  0  0  0
   -0.3950    0.7030    0.0000 C   0  0  0  0  0  0  0  0  0  0  0  0
   -1.1095    0.2905    0.0000 C   0  0  0  0  0  0  0  0  0  0  0  0
   -1.8239    0.7030    0.0000 C   0  0  0  0  0  0  0  0  0  0  0  0
   -1.8239    1.5280    0.0000 C   0  0  0  0  0  0  0  0  0  0  0  0
    0.3195   -0.5345    0.0000 C   0  0  0  0  0  0  0  0  0  0  0  0
    1.0339   -0.9470    0.0000 C   0  0  0  0  0  0  0  0  0  0  0  0
    1.0339   -1.7720    0.0000 C   0  0  0  0  0  0  0  0  0  0  0  0
    0.3195   -2.1845    0.0000 C   0  0  0  0  0  0  0  0  0  0  0  0
   -0.3950   -1.7720    0.0000 C   0  0  0  0  0  0  0  0  0  0  0  0
   -0.3950   -0.9470    0.0000 C   0  0  0  0  0  0  0  0  0  0  0  0
    0.3195    0.2905    0.0000 C   0  0  0  0  0  0  0  0  0  0  0  0
    1.7484    0.2905    0.0000 O   0  0  0  0  0  0  0  0  0  0  0  0
  1  2  2  0
  1 15  1  0
  1 16  1  0
  3  4  2  0
  3  8  1  0
  4  5  1  0
  5  6  2  0
  5 15  1  0
  6  7  1  0
  7  8  2  0
  9 10  2  0
  9 14  1  0
  9 15  1  0
 10 11  1  0
 11 12  2  0
 12 13  1  0
 13 14  2  0
M  END
>  <DRUGBANK_ID>  (1) 
DB03588

>  <SECONDARY_ACCESSION_NUMBERS>  (1) 
EXPT01167

>  <COMMON_NAME>  (1) 
Diphenylacetic acid

>  <CAS_NUMBER>  (1) 
117-34-0

>  <UNII>  (1) 
658NCZ0NKO

>  <SYNONYMS>  (1) 
2,2-diphenylacetic acid; Î±-phenylbenzeneacetic acid

$$$$
