1525
     RDKit          2D

 13 14  0  0  1  0  0  0  0  0999 V2000
    2.0928   -0.8211    0.0000 O   0  0  0  0  0  0  0  0  0  0  0  0
    3.1194   -2.1030    0.0000 O   0  0  0  0  0  0  0  0  0  0  0  0
    4.5170   -1.8060    0.0000 O   0  0  0  0  0  0  0  0  0  0  0  0
    4.4332    1.8889    0.0000 N   0  0  0  0  0  0  0  0  0  0  0  0
    4.8273    0.2815    0.0000 C   0  0  0  0  0  0  0  0  0  0  0  0
    5.0408    1.0783    0.0000 C   0  0  0  0  0  0  0  0  0  0  0  0
    3.5609   -0.7441    0.0000 C   0  0  0  0  0  0  0  0  0  0  0  0
    6.3385   -0.3446    0.0000 C   0  0  0  0  0  0  0  0  0  0  0  0
    6.5520    0.4523    0.0000 C   0  0  0  0  0  0  0  0  0  0  0  0
    2.8935    0.4119    0.0000 C   0  0  0  0  0  0  0  0  0  0  0  0
    2.8073   -0.4086    0.0000 C   0  0  0  0  0  0  0  0  0  0  0  0
    4.0207    2.6033    0.0000 C   0  0  0  0  0  0  0  0  0  0  0  0
    3.7324   -1.5510    0.0000 C   0  0  0  0  0  0  0  0  0  0  0  0
  2 13  1  0
  3 13  2  0
  4  5  1  0
  4  6  1  0
  4 12  1  0
  5  7  1  0
  5  8  1  6
  6  9  1  1
  6 10  1  0
  7 11  1  0
  7 13  1  1
  8  9  1  0
 10 11  1  0
 11  1  1  1
M  END
>  <DRUGBANK_ID>  (1) 
DB01525

>  <COMMON_NAME>  (1) 
Ecgonine

>  <CAS_NUMBER>  (1) 
481-37-8

>  <UNII>  (1) 
DX2E9E17AV

$$$$
