DD2
     RDKit          2D

 29 32  0  0  0  0  0  0  0  0999 V2000
   -1.2835    3.8010    0.0000 C   0  0  0  0  0  0  0  0  0  0  0  0
   -1.2835    2.9760    0.0000 C   0  0  0  0  0  0  0  0  0  0  0  0
   -1.9979    2.5635    0.0000 C   0  0  0  0  0  0  0  0  0  0  0  0
   -2.7124    2.9760    0.0000 C   0  0  0  0  0  0  0  0  0  0  0  0
   -2.7124    3.8010    0.0000 C   0  0  0  0  0  0  0  0  0  0  0  0
   -1.9979    4.2135    0.0000 C   0  0  0  0  0  0  0  0  0  0  0  0
   -0.5690    2.5635    0.0000 C   0  0  0  0  0  0  0  0  0  0  0  0
   -1.2835    1.3260    0.0000 C   0  0  0  0  0  0  0  0  0  0  0  0
    0.1455    0.5010    0.0000 C   0  0  0  0  0  0  0  0  0  0  0  0
    0.1455    1.3260    0.0000 C   0  0  0  0  0  0  0  0  0  0  0  0
    0.1455   -1.1490    0.0000 O   0  0  0  0  0  0  0  0  0  0  0  0
    0.1455   -1.9740    0.0000 C   0  0  0  0  0  0  0  0  0  0  0  0
   -0.5690   -2.3865    0.0000 C   0  0  0  0  0  0  0  0  0  0  0  0
   -0.5690   -3.2115    0.0000 C   0  0  0  0  0  0  0  0  0  0  0  0
    0.1455   -3.6240    0.0000 C   0  0  0  0  0  0  0  0  0  0  0  0
    0.8599   -3.2115    0.0000 C   0  0  0  0  0  0  0  0  0  0  0  0
    1.5744   -1.9740    0.0000 C   0  0  0  0  0  0  0  0  0  0  0  0
    2.2889   -3.2115    0.0000 C   0  0  0  0  0  0  0  0  0  0  0  0
   -0.5690    4.2135    0.0000 Cl  0  0  0  0  0  0  0  0  0  0  0  0
   -1.9979    5.0385    0.0000 Cl  0  0  0  0  0  0  0  0  0  0  0  0
   -0.5690    1.7385    0.0000 N   0  0  0  0  0  0  0  0  0  0  0  0
   -0.5690    0.0885    0.0000 C   0  0  0  0  0  0  0  0  0  0  0  0
   -1.2835    0.5010    0.0000 C   0  0  0  0  0  0  0  0  0  0  0  0
   -0.5690   -0.7365    0.0000 C   0  0  0  0  0  0  0  0  0  0  0  0
    0.8599   -2.3865    0.0000 C   0  0  0  0  0  0  0  0  0  0  0  0
    1.5744   -1.1490    0.0000 N   0  0  0  0  0  0  0  0  0  0  0  0
    2.2889   -2.3865    0.0000 N   0  0  0  0  0  0  0  0  0  0  0  0
    3.0034   -3.6240    0.0000 N   0  0  0  0  0  0  0  0  0  0  0  0
    1.5744   -3.6240    0.0000 N   0  0  0  0  0  0  0  0  0  0  0  0
  1  2  2  0
  1  6  1  0
  1 19  1  0
  2  3  1  0
  2  7  1  0
  3  4  2  0
  4  5  1  0
  5  6  2  0
  6 20  1  0
  7 21  1  0
  8 21  1  0
  8 23  1  0
  9 10  1  0
  9 22  1  0
 10 21  1  0
 11 12  1  0
 11 24  1  0
 12 13  2  0
 12 25  1  0
 13 14  1  0
 14 15  2  0
 15 16  1  0
 16 25  2  0
 16 29  1  0
 17 25  1  0
 17 26  1  0
 17 27  2  0
 18 27  1  0
 18 28  1  0
 18 29  2  0
 22 23  1  0
 22 24  1  0
M  END
>  <DRUGBANK_ID>  (1) 
DB07643

>  <COMMON_NAME>  (1) 
5-{[1-(2,3-dichlorobenzyl)piperidin-4-yl]methoxy}quinazoline-2,4-diamine

$$$$
