
     RDKit          2D

 25 29  0  0  0  0  0  0  0  0999 V2000
   -1.4761   -0.4616    0.0000 C   0  0  0  0  0  0  0  0  0  0  0  0
   -2.1907   -0.0493    0.0000 C   0  0  0  0  0  0  0  0  0  0  0  0
   -2.1907    0.7660    0.0000 C   0  0  0  0  0  0  0  0  0  0  0  0
   -1.4761    1.1783    0.0000 C   0  0  0  0  0  0  0  0  0  0  0  0
    1.3640    1.1783    0.0000 C   0  0  0  0  0  0  0  0  0  0  0  0
    2.0786    0.7660    0.0000 C   0  0  0  0  0  0  0  0  0  0  0  0
    2.0786   -0.0493    0.0000 C   0  0  0  0  0  0  0  0  0  0  0  0
    1.9136   -0.8738    0.0000 C   0  0  0  0  0  0  0  0  0  0  0  0
    0.8142   -0.8738    0.0000 C   0  0  0  0  0  0  0  0  0  0  0  0
   -0.7707    0.7660    0.0000 C   0  0  0  0  0  0  0  0  0  0  0  0
    1.3640   -0.4616    0.0000 C   0  0  0  0  0  0  0  0  0  0  0  0
   -0.7707   -0.0493    0.0000 C   0  0  0  0  0  0  0  0  0  0  0  0
    0.6493    0.7660    0.0000 C   0  0  0  0  0  0  0  0  0  0  0  0
   -0.0560   -0.4616    0.0000 C   0  0  0  0  0  0  0  0  0  0  0  0
    0.6493   -0.0493    0.0000 C   0  0  0  0  0  0  0  0  0  0  0  0
   -2.8910   -0.4533    0.0000 O   0  0  0  0  0  0  0  0  0  0  0  0
   -1.4656   -1.2059    0.0000 C   0  0  0  0  0  0  0  0  0  0  0  0
   -0.0537   -1.3025    0.0000 C   0  0  0  0  0  0  0  0  0  0  0  0
    0.6757   -1.7208    0.0000 O   0  0  0  0  0  0  0  0  0  0  0  0
   -0.7808   -1.7250    0.0000 O   0  0  0  0  0  0  0  0  0  0  0  0
    2.5146   -1.4783    0.0000 C   0  0  0  0  0  0  0  0  0  0  0  0
    2.8910   -0.0528    0.0000 O   0  0  0  0  0  0  0  0  0  0  0  0
   -0.7688    1.7250    0.0000 O   0  0  0  0  0  0  0  0  0  0  0  0
   -1.7218    0.3715    0.0000 C   0  0  0  0  0  0  0  0  0  0  0  0
   -1.0651    0.2513    0.0000 O   0  0  0  0  0  0  0  0  0  0  0  0
  1 12  1  0
  1 17  1  6
  1 24  1  0
  2  1  1  0
  2  3  1  0
  2 16  1  1
  3  4  2  0
 10  4  1  1
 13  5  1  6
  6  5  1  0
  7  6  1  0
  7 11  1  0
  7 22  1  6
  8  7  1  0
  8  9  1  0
 15  9  1  1
 10 23  1  0
 12 10  1  0
 13 10  1  0
 12 14  1  6
 14 18  1  1
 15 13  1  0
 15 14  1  0
 15 11  1  0
 19 18  2  0
 20 18  1  0
 21  8  2  0
 23 24  1  0
 25 24  2  0
M  END
>  <DRUGBANK_ID>  (1) 
DB07814

>  <COMMON_NAME>  (1) 
Gibberellic acid

>  <CAS_NUMBER>  (1) 
77-06-5

>  <UNII>  (1) 
BU0A7MWB6L

>  <SYNONYMS>  (1) 
(+)-gibberellic acid; GA3; Gibberellic acid GA3; Gibberellin; Gibberellin 3; Gibberellin A3

$$$$
