
     RDKit          2D

 27 29  0  0  1  0  0  0  0  0999 V2000
    1.4289    9.6536    0.0000 C   0  0  0  0  0  0  0  0  0  0  0  0
    1.4289   10.4786    0.0000 C   0  0  0  0  0  0  0  0  0  0  0  0
    2.1434   10.8911    0.0000 C   0  0  0  0  0  0  0  0  0  0  0  0
    2.8579   10.4786    0.0000 C   0  0  0  0  0  0  0  0  0  0  0  0
    2.8579    9.6536    0.0000 C   0  0  0  0  0  0  0  0  0  0  0  0
    2.1434    9.2411    0.0000 C   0  0  0  0  0  0  0  0  0  0  0  0
    2.1434    8.4161    0.0000 C   0  0  0  0  0  0  0  0  0  0  0  0
    2.8579    8.0036    0.0000 C   0  0  0  0  0  0  0  0  0  0  0  0
    2.8579    7.1786    0.0000 C   0  0  0  0  0  0  0  0  0  0  0  0
    2.1434    6.7661    0.0000 C   0  0  0  0  0  0  0  0  0  0  0  0
    1.4289    7.1786    0.0000 C   0  0  0  0  0  0  0  0  0  0  0  0
    1.4289    8.0036    0.0000 C   0  0  0  0  0  0  0  0  0  0  0  0
    2.1434    5.9411    0.0000 O   0  0  0  0  0  0  0  0  0  0  0  0
    1.4289    5.5286    0.0000 C   0  0  0  0  0  0  0  0  0  0  0  0
    1.4289    4.7036    0.0000 C   0  0  0  0  0  0  0  0  0  0  0  0
    2.0964    4.2187    0.0000 C   0  0  0  0  0  0  0  0  0  0  0  0
    1.8414    3.4340    0.0000 C   0  0  0  0  0  0  0  0  0  0  0  0
    1.0164    3.4340    0.0000 C   0  0  0  0  0  0  0  0  0  0  0  0
    0.5315    2.7666    0.0000 O   0  0  0  0  0  0  0  0  0  0  0  0
    0.7615    4.2187    0.0000 N   0  0  0  0  0  0  0  0  0  0  0  0
    2.3264    2.7666    0.0000 C   0  0  0  0  0  0  0  0  0  0  0  0
    1.9908    2.0129    0.0000 C   0  0  0  0  0  0  0  0  0  0  0  0
    2.4757    1.3455    0.0000 O   0  0  0  0  0  0  0  0  0  0  0  0
    1.1703    1.9267    0.0000 O   0  0  0  0  0  0  0  0  0  0  0  0
    2.1434   11.7161    0.0000 C   0  0  0  0  0  0  0  0  0  0  0  0
    1.4289   12.1286    0.0000 N   0  0  0  0  0  0  0  0  0  0  0  0
    2.8579   12.1286    0.0000 N   0  0  0  0  0  0  0  0  0  0  0  0
  1  2  2  0
  1  6  1  0
  2  3  1  0
  3  4  2  0
  3 25  1  0
  4  5  1  0
  5  6  2  0
  6  7  1  0
  7  8  2  0
  7 12  1  0
  8  9  1  0
  9 10  2  0
 10 11  1  0
 10 13  1  0
 11 12  2  0
 13 14  1  0
 15 14  1  6
 15 16  1  0
 15 20  1  0
 16 17  1  0
 17 18  1  0
 17 21  1  1
 18 19  2  0
 18 20  1  0
 21 22  1  0
 22 23  2  0
 22 24  1  0
 25 26  2  0
 25 27  1  0
M  END
>  <DRUGBANK_ID>  (1) 
DB06472

>  <COMMON_NAME>  (1) 
Fradafiban

>  <CAS_NUMBER>  (1) 
148396-36-5

>  <UNII>  (1) 
DQ0H2B8YKN

>  <SYNONYMS>  (1) 
Fradafiban

$$$$
