
     RDKit          2D

 26 26  0  0  0  0  0  0  0  0999 V2000
    5.0013    9.4875    0.0000 C   0  0  0  0  0  0  0  0  0  0  0  0
    5.7158    9.0750    0.0000 C   0  0  0  0  0  0  0  0  0  0  0  0
    6.4302    9.4875    0.0000 C   0  0  0  0  0  0  0  0  0  0  0  0
    7.1447    9.0750    0.0000 C   0  0  0  0  0  0  0  0  0  0  0  0
    7.8592    9.4875    0.0000 C   0  0  0  0  0  0  0  0  0  0  0  0
    8.5737    9.0750    0.0000 C   0  0  0  0  0  0  0  0  0  0  0  0
    9.2881    9.4875    0.0000 C   0  0  0  0  0  0  0  0  0  0  0  0
   10.0026    9.0750    0.0000 C   0  0  0  0  0  0  0  0  0  0  0  0
   10.7171    9.4875    0.0000 C   0  0  0  0  0  0  0  0  0  0  0  0
   11.4315    9.0750    0.0000 C   0  0  0  0  0  0  0  0  0  0  0  0
   16.4328    8.6625    0.0000 C   0  0  0  0  0  0  0  0  0  0  0  0
   16.4328    9.4875    0.0000 C   0  0  0  0  0  0  0  0  0  0  0  0
   15.7184    8.2500    0.0000 C   0  0  0  0  0  0  0  0  0  0  0  0
   12.1460    9.4875    0.0000 C   0  0  0  0  0  0  0  0  0  0  0  0
   15.7184    9.9000    0.0000 C   0  0  0  0  0  0  0  0  0  0  0  0
   15.0039    8.6625    0.0000 C   0  0  0  0  0  0  0  0  0  0  0  0
   12.8605    9.0750    0.0000 C   0  0  0  0  0  0  0  0  0  0  0  0
   13.9874    8.7730    0.0000 C   0  0  0  0  0  0  0  0  0  0  0  0
   13.1624   10.2020    0.0000 C   0  0  0  0  0  0  0  0  0  0  0  0
   13.5749    8.0586    0.0000 C   0  0  0  0  0  0  0  0  0  0  0  0
   13.5749   10.9164    0.0000 C   0  0  0  0  0  0  0  0  0  0  0  0
   14.2894    9.9000    0.0000 C   0  0  0  0  0  0  0  0  0  0  0  0
   15.0039    9.4875    0.0000 C   0  0  0  0  0  0  0  0  0  0  0  0
   13.5749    9.4875    0.0000 N   0  0  0  0  0  0  0  0  0  0  0  0
   13.9874    7.3441    0.0000 O   0  0  0  0  0  0  0  0  0  0  0  0
   13.1624   11.6309    0.0000 O   0  0  0  0  0  0  0  0  0  0  0  0
  2  1  1  0
  3  2  1  0
  4  3  1  0
  5  4  1  0
  6  5  1  0
  7  6  1  0
  8  7  1  0
  9  8  1  0
 10  9  1  0
 12 11  2  0
 13 11  1  0
 14 10  1  0
 15 12  1  0
 16 13  2  0
 17 14  1  0
 20 18  1  0
 21 19  1  0
 23 15  2  0
 23 16  1  0
 23 22  1  0
 24 17  1  0
 24 18  1  0
 24 19  1  0
 24 22  1  0
 25 20  1  0
 26 21  1  0
M  CHG  1  24   1
M  END
>  <DRUGBANK_ID>  (1) 
DB13565

>  <COMMON_NAME>  (1) 
Benzoxonium

>  <CAS_NUMBER>  (1) 
23884-64-2

>  <UNII>  (1) 
D95EHT6Y2L

$$$$
