
     RDKit          2D

 17 18  0  0  0  0  0  0  0  0999 V2000
   -0.9189   -0.3345    0.0000 O   0  0  0  0  0  0  0  0  0  0  0  0
   -1.3940    1.7467    0.0000 O   0  0  0  0  0  0  0  0  0  0  0  0
   -2.6271   -0.5613    0.0000 O   0  0  0  0  0  0  0  0  0  0  0  0
   -0.1652   -1.6491    0.0000 O   0  0  0  0  0  0  0  0  0  0  0  0
    2.6927   -1.6491    0.0000 O   0  0  0  0  0  0  0  0  0  0  0  0
    1.9782   -0.4115    0.0000 N   0  0  0  0  0  0  0  0  0  0  0  0
    1.2638   -1.6491    0.0000 N   0  0  0  0  0  0  0  0  0  0  0  0
   -1.0584    0.9931    0.0000 C   0  0  0  0  0  0  0  0  0  0  0  0
   -0.1652    0.0009    0.0000 C   0  0  0  0  0  0  0  0  0  0  0  0
   -0.2514    0.8214    0.0000 C   0  0  0  0  0  0  0  0  0  0  0  0
   -1.4709    0.2785    0.0000 C   0  0  0  0  0  0  0  0  0  0  0  0
    0.5493   -0.4115    0.0000 C   0  0  0  0  0  0  0  0  0  0  0  0
   -2.2915    0.1923    0.0000 C   0  0  0  0  0  0  0  0  0  0  0  0
    1.2638    0.0009    0.0000 C   0  0  0  0  0  0  0  0  0  0  0  0
    0.5493   -1.2365    0.0000 C   0  0  0  0  0  0  0  0  0  0  0  0
    1.9782   -1.2365    0.0000 C   0  0  0  0  0  0  0  0  0  0  0  0
    2.6927    0.0009    0.0000 C   0  0  0  0  0  0  0  0  0  0  0  0
  1  9  1  0
  1 11  1  0
  3 13  1  0
  4 15  2  0
  5 16  2  0
  6 14  1  0
  6 16  1  0
  6 17  1  0
  7 15  1  0
  7 16  1  0
  8  2  1  1
  8 10  1  0
  8 11  1  0
  9 10  1  0
  9 12  1  6
 11 13  1  6
 12 14  2  0
 12 15  1  0
M  END
>  <DRUGBANK_ID>  (1) 
DB03763

>  <SECONDARY_ACCESSION_NUMBERS>  (1) 
EXPT00252

>  <COMMON_NAME>  (1) 
5-methyl-2'-deoxypseudouridine

>  <CAS_NUMBER>  (1) 
65358-15-8

$$$$
