
     RDKit          2D

 32 34  0  0  0  0  0  0  0  0999 V2000
   -2.5172    1.0070    0.0000 N   0  0  0  0  0  0  0  0  0  0  0  0
   -1.8184    1.4729    0.0000 C   0  0  0  0  0  0  0  0  0  0  0  0
   -3.1774    1.4729    0.0000 C   0  0  0  0  0  0  0  0  0  0  0  0
   -2.0901    2.2886    0.0000 C   0  0  0  0  0  0  0  0  0  0  0  0
   -2.9444    2.2886    0.0000 C   0  0  0  0  0  0  0  0  0  0  0  0
   -0.7699    2.8708    0.0000 C   0  0  0  0  0  0  0  0  0  0  0  0
   -0.3989    2.1272    0.0000 O   0  0  0  0  0  0  0  0  0  0  0  0
   -0.2800    3.5674    0.0000 O   0  0  0  0  0  0  0  0  0  0  0  0
   -1.5853    2.9486    0.0000 C   0  0  0  0  0  0  0  0  0  0  0  0
   -3.8804    0.9970    0.0000 C   0  0  0  0  0  0  0  0  0  0  0  0
   -3.8631    0.1718    0.0000 O   0  0  0  0  0  0  0  0  0  0  0  0
   -3.1539   -1.0686    0.0000 C   0  0  0  0  0  0  0  0  0  0  0  0
   -3.1506   -0.2435    0.0000 C   0  0  0  0  0  0  0  0  0  0  0  0
   -2.4343    0.1659    0.0000 C   0  0  0  0  0  0  0  0  0  0  0  0
   -1.7215   -0.2496    0.0000 C   0  0  0  0  0  0  0  0  0  0  0  0
   -1.7250   -1.0745    0.0000 C   0  0  0  0  0  0  0  0  0  0  0  0
   -2.4412   -1.4840    0.0000 C   0  0  0  0  0  0  0  0  0  0  0  0
    0.4165   -1.4959    0.0000 C   0  0  0  0  0  0  0  0  0  0  0  0
    0.4131   -2.3209    0.0000 C   0  0  0  0  0  0  0  0  0  0  0  0
   -0.3030   -2.7305    0.0000 C   0  0  0  0  0  0  0  0  0  0  0  0
   -1.0157   -2.3150    0.0000 C   0  0  0  0  0  0  0  0  0  0  0  0
   -1.0124   -1.4900    0.0000 C   0  0  0  0  0  0  0  0  0  0  0  0
   -0.2962   -1.0805    0.0000 C   0  0  0  0  0  0  0  0  0  0  0  0
    1.1258   -2.7365    0.0000 C   0  0  0  0  0  0  0  0  0  0  0  0
    1.1223   -3.5614    0.0000 N   0  0  0  0  0  0  0  0  0  0  0  0
    1.8419   -2.3269    0.0000 N   0  0  0  0  0  0  0  0  0  0  0  0
    2.5547   -2.7424    0.0000 C   0  0  0  0  0  0  0  0  0  0  0  0
    2.5513   -3.5674    0.0000 O   0  0  0  0  0  0  0  0  0  0  0  0
    3.2709   -2.3330    0.0000 O   0  0  0  0  0  0  0  0  0  0  0  0
    3.9836   -2.7484    0.0000 C   0  0  0  0  0  0  0  0  0  0  0  0
   -1.0417    1.2400    0.0000 O   0  0  0  0  0  0  0  0  0  0  0  0
    0.5353    3.4896    0.0000 C   0  0  0  0  0  0  0  0  0  0  0  0
  2  1  1  0
  3  1  1  0
  3 10  1  6
  4  2  1  0
  4  9  1  1
  5  3  1  0
  5  4  1  0
  7  6  2  0
  8  6  1  0
  9  6  1  0
 11 10  1  0
 13 11  1  0
 13 12  2  0
 14 13  1  0
 15 14  2  0
 16 15  1  0
 17 12  1  0
 17 16  2  0
 19 18  2  0
 20 19  1  0
 21 20  2  0
 22 16  1  0
 22 21  1  0
 23 18  1  0
 23 22  2  0
 24 19  1  0
 25 24  2  0
 26 24  1  0
 27 26  1  0
 28 27  2  0
 29 27  1  0
 30 29  1  0
 31  2  2  0
 32  8  1  0
M  END
>  <DRUGBANK_ID>  (1) 
DB04863

>  <COMMON_NAME>  (1) 
Lefradafiban

>  <CAS_NUMBER>  (1) 
149503-79-7

>  <UNII>  (1) 
0R4888YXR5

>  <SYNONYMS>  (1) 
Léfradafiban; Lefradafiban; Lefradafibán; Lefradafibanum

$$$$
