
     RDKit          2D

 22 25  0  0  1  0  0  0  0  0999 V2000
    1.3939    0.8338    0.0000 C   0  0  0  0  0  0  0  0  0  0  0  0
    2.1785    1.0887    0.0000 C   0  0  0  0  0  0  0  0  0  0  0  0
    2.6635    0.4211    0.0000 C   0  0  0  0  0  0  0  0  0  0  0  0
    2.1785   -0.2461    0.0000 C   0  0  0  0  0  0  0  0  0  0  0  0
    1.3939    0.0087    0.0000 C   0  0  0  0  0  0  0  0  0  0  0  0
    0.6794   -0.4036    0.0000 C   0  0  0  0  0  0  0  0  0  0  0  0
   -0.0350    0.0087    0.0000 C   0  0  0  0  0  0  0  0  0  0  0  0
   -0.7494   -0.4036    0.0000 C   0  0  0  0  0  0  0  0  0  0  0  0
   -0.7494   -1.2286    0.0000 C   0  0  0  0  0  0  0  0  0  0  0  0
   -0.0350   -1.6411    0.0000 C   0  0  0  0  0  0  0  0  0  0  0  0
    0.6794   -1.2286    0.0000 C   0  0  0  0  0  0  0  0  0  0  0  0
   -1.4639   -1.6411    0.0000 C   0  0  0  0  0  0  0  0  0  0  0  0
   -2.1784   -1.2286    0.0000 C   0  0  0  0  0  0  0  0  0  0  0  0
   -2.1784   -0.4037    0.0000 C   0  0  0  0  0  0  0  0  0  0  0  0
   -1.4639    0.0087    0.0000 C   0  0  0  0  0  0  0  0  0  0  0  0
   -2.8930   -1.6411    0.0000 O   0  0  0  0  0  0  0  0  0  0  0  0
   -0.7494    0.4211    0.0000 C   0  0  0  0  0  0  0  0  0  0  0  0
   -0.0350    0.8338    0.0000 C   0  0  0  0  0  0  0  0  0  0  0  0
    0.6794    1.2463    0.0000 C   0  0  0  0  0  0  0  0  0  0  0  0
    2.8930    1.5011    0.0000 O   0  0  0  0  0  0  0  0  0  0  0  0
    2.1950    2.0536    0.0000 C   0  0  0  0  0  0  0  0  0  0  0  0
    1.3363    1.6568    0.0000 C   0  0  0  0  0  0  0  0  0  0  0  0
  1 22  1  1
  2  1  1  0
  2 20  1  0
  2 21  1  6
  3  2  1  0
  3  4  1  0
  5  4  1  1
  5  1  1  0
  6  5  1  0
  6  7  1  0
  7 18  1  1
  8  7  1  0
  8 17  1  1
  9  8  1  0
  9 10  1  1
 10 11  1  0
  6 11  1  6
 12  9  1  0
 13 12  1  0
 13 14  1  0
 13 16  1  1
 14 15  1  0
 15  8  1  0
 18 19  1  0
 19  1  1  0
M  END
>  <DRUGBANK_ID>  (1) 
DB01513

>  <COMMON_NAME>  (1) 
17Alpha-methyl-3beta,17beta-dihydroxy-5alpha-androstane

>  <CAS_NUMBER>  (1) 
641-83-8

>  <UNII>  (1) 
ZA9UE4Q47V

$$$$
