
     RDKit          2D

 16 16  0  0  1  0  0  0  0  0999 V2000
   -0.7145    0.4125    0.0000 C   0  0  0  0  0  0  0  0  0  0  0  0
    0.0000    0.8250    0.0000 O   0  0  0  0  0  0  0  0  0  0  0  0
    0.7145    0.4125    0.0000 C   0  0  0  0  0  0  0  0  0  0  0  0
    0.7145   -0.4125    0.0000 C   0  0  0  0  0  0  0  0  0  0  0  0
    0.0000   -0.8250    0.0000 C   0  0  0  0  0  0  0  0  0  0  0  0
   -0.7145   -0.4125    0.0000 C   0  0  0  0  0  0  0  0  0  0  0  0
    1.4289   -0.8250    0.0000 O   0  0  0  0  0  0  0  0  0  0  0  0
    0.0000   -1.6500    0.0000 O   0  0  0  0  0  0  0  0  0  0  0  0
   -1.4289   -0.8250    0.0000 O   0  0  0  0  0  0  0  0  0  0  0  0
   -1.4289    0.8250    0.0000 C   0  0  0  0  0  0  0  0  0  0  0  0
   -2.1434    0.4125    0.0000 O   0  0  0  0  0  0  0  0  0  0  0  0
    1.4289    0.8250    0.0000 O   0  0  0  0  0  0  0  0  0  0  0  0
    2.1434   -0.4125    0.0000 O   0  0  0  0  0  0  0  0  0  0  0  0
    2.1434    1.2375    0.0000 O   0  0  0  0  0  0  0  0  0  0  0  0
    2.1434    0.4125    0.0000 P   0  0  0  0  0  0  0  0  0  0  0  0
    2.8579    0.8250    0.0000 O   0  0  0  0  0  0  0  0  0  0  0  0
  1 10  1  1
  1  6  1  0
  2  1  1  0
  3  2  1  0
  3 12  1  6
  3  4  1  0
  4  7  1  6
  4  5  1  0
  5  8  1  1
  5  6  1  0
  6  9  1  6
 10 11  1  0
 13 15  2  0
 15 12  1  0
 15 14  1  0
 15 16  1  0
M  END
>  <DRUGBANK_ID>  (1) 
DB02843

>  <SECONDARY_ACCESSION_NUMBERS>  (1) 
EXPT01520

>  <COMMON_NAME>  (1) 
alpha-D-glucose-1-phosphate

>  <CAS_NUMBER>  (1) 
59-56-3

>  <UNII>  (1) 
CIX3U01VAU

>  <SYNONYMS>  (1) 
glucose-1-phosphate

$$$$
