
     RDKit          2D

  2  1  0  0  0  0  0  0  0  0999 V2000
    0.4125    0.0000    0.0000 Cl  0  0  0  0  0  0  0  0  0  0  0  0
   -0.4125    0.0000    0.0000 Cu  0  0  0  0  0  1  0  0  0  0  0  0
  1  2  1  0
M  END
>  <DRUGBANK_ID>  (1) 
DB15535

>  <COMMON_NAME>  (1) 
Cuprous chloride

>  <CAS_NUMBER>  (1) 
7758-89-6

>  <UNII>  (1) 
C955P95064

>  <SYNONYMS>  (1) 
Copper monochloride; Copper(1+) chloride; Dicopper dichloride

$$$$
