
     RDKit          2D

 15 13  0  0  0  0  0  0  0  0999 V2000
   -2.9025    0.9305    0.0000 C   0  0  0  0  0  0  0  0  0  0  0  0
   -2.0774    0.9305    0.0000 C   0  0  0  0  0  0  0  0  0  0  0  0
   -2.0774    0.1055    0.0000 C   0  0  0  0  0  0  0  0  0  0  0  0
   -1.6738   -0.6029    0.0000 C   0  0  0  0  0  0  0  0  0  0  0  0
   -1.0775   -0.6029    0.0000 N   0  0  0  0  0  0  0  0  0  0  0  0
   -2.9025    0.1055    0.0000 C   0  0  0  0  0  0  0  0  0  0  0  0
   -1.3689    1.3521    0.0000 C   0  0  0  0  0  0  0  0  0  0  0  0
   -0.6559    0.9395    0.0000 N   0  0  0  0  0  0  0  0  0  0  0  0
   -0.1336    0.0135    0.0000 Pt  0  0  0  0  0 15  0  0  0  0  0  0
    1.9139   -0.7085    0.0000 C   0  0  0  0  0  0  0  0  0  0  0  0
    1.0853   -0.7085    0.0000 O   0  0  0  0  0  0  0  0  0  0  0  0
    2.1304    0.0851    0.0000 C   0  0  0  0  0  0  0  0  0  0  0  0
    1.4420    0.5411    0.0000 O   0  0  0  0  0  0  0  0  0  0  0  0
    2.9025    0.3810    0.0000 C   0  0  0  0  0  0  0  0  0  0  0  0
    2.4287   -1.3521    0.0000 O   0  0  0  0  0  0  0  0  0  0  0  0
  1  6  1  0
  2  1  1  0
  2  7  1  1
  3  2  1  0
  3  4  1  6
  4  5  1  0
  6  3  1  0
  7  8  1  0
 10 12  1  0
 10 15  2  0
 11 10  1  0
 12 13  1  0
 12 14  1  1
M  CHG  3   9   2  11  -1  13  -1
M  END
>  <DRUGBANK_ID>  (1) 
DB13049

>  <COMMON_NAME>  (1) 
Lobaplatin

>  <CAS_NUMBER>  (1) 
135558-11-1

>  <UNII>  (1) 
OX5XK1JD8C

>  <SYNONYMS>  (1) 
Lobaplatin

$$$$
