BTS
     RDKit          2D

 17 18  0  0  0  0  0  0  0  0999 V2000
   -2.9352   -0.7287    0.0000 C   0  0  0  0  0  0  0  0  0  0  0  0
   -2.5227   -0.0143    0.0000 C   0  0  0  0  0  0  0  0  0  0  0  0
   -2.5227   -1.4432    0.0000 C   0  0  0  0  0  0  0  0  0  0  0  0
   -1.1457    0.5988    0.0000 N   0  0  0  0  0  0  0  0  0  0  0  0
   -0.3920    0.2633    0.0000 C   0  0  0  0  0  0  0  0  0  0  0  0
   -0.4783   -0.5572    0.0000 S   0  0  0  0  0  0  0  0  0  0  0  0
   -1.2852   -0.7287    0.0000 C   0  0  0  0  0  0  0  0  0  0  0  0
   -1.6977   -0.0143    0.0000 C   0  0  0  0  0  0  0  0  0  0  0  0
   -1.6977   -1.4432    0.0000 C   0  0  0  0  0  0  0  0  0  0  0  0
    0.3224    0.6758    0.0000 S   0  0  0  0  0  0  0  0  0  0  0  0
    1.0369    0.2633    0.0000 C   0  0  0  0  0  0  0  0  0  0  0  0
    1.7514    0.6758    0.0000 C   0  0  0  0  0  0  0  0  0  0  0  0
    2.4658    0.2633    0.0000 C   0  0  0  0  0  0  0  0  0  0  0  0
    3.1803    0.6758    0.0000 S   0  0  0  0  0  0  0  0  0  0  0  0
    3.8948    1.0883    0.0000 O   0  0  0  0  0  0  0  0  0  0  0  0
    3.5928   -0.0387    0.0000 O   0  0  0  0  0  0  0  0  0  0  0  0
    2.7678    1.3903    0.0000 O   0  0  0  0  0  0  0  0  0  0  0  0
  1  2  2  0
  1  3  1  0
  2  8  1  0
  3  9  2  0
  4  5  2  0
  4  8  1  0
  5  6  1  0
  5 10  1  0
  6  7  1  0
  7  8  2  0
  7  9  1  0
 10 11  1  0
 11 12  1  0
 12 13  1  0
 13 14  1  0
 14 15  2  0
 14 16  2  0
 14 17  1  0
M  END
>  <DRUGBANK_ID>  (1) 
DB03132

>  <SECONDARY_ACCESSION_NUMBERS>  (1) 
EXPT00770

>  <COMMON_NAME>  (1) 
3-(2-Benzothiazolylthio)-1-Propanesulfonic Acid

>  <UNII>  (1) 
Q071BHM3ZE

$$$$
