
     RDKit          2D

 33 38  0  0  0  0  0  0  0  0999 V2000
    9.5541    6.5568    0.0000 C   0  0  0  0  0  0  0  0  0  0  0  0
    9.2186    5.8031    0.0000 C   0  0  0  0  0  0  0  0  0  0  0  0
    9.7035    5.1357    0.0000 C   0  0  0  0  0  0  0  0  0  0  0  0
    8.3981    5.7169    0.0000 N   0  0  0  0  0  0  0  0  0  0  0  0
    8.0625    4.9632    0.0000 C   0  0  0  0  0  0  0  0  0  0  0  0
    7.2420    4.8770    0.0000 C   0  0  0  0  0  0  0  0  0  0  0  0
    6.7571    5.5444    0.0000 N   0  0  0  0  0  0  0  0  0  0  0  0
    5.9366    5.4582    0.0000 C   0  0  0  0  0  0  0  0  0  0  0  0
    5.6011    4.7045    0.0000 C   0  0  0  0  0  0  0  0  0  0  0  0
    6.0136    3.9900    0.0000 C   0  0  0  0  0  0  0  0  0  0  0  0
    5.4615    3.3769    0.0000 N   0  0  0  0  0  0  0  0  0  0  0  0
    4.7079    3.7125    0.0000 C   0  0  0  0  0  0  0  0  0  0  0  0
    4.7941    4.5330    0.0000 O   0  0  0  0  0  0  0  0  0  0  0  0
    3.9934    3.3000    0.0000 C   0  0  0  0  0  0  0  0  0  0  0  0
    3.9934    2.4750    0.0000 C   0  0  0  0  0  0  0  0  0  0  0  0
    3.2789    2.0625    0.0000 C   0  0  0  0  0  0  0  0  0  0  0  0
    2.5645    2.4750    0.0000 C   0  0  0  0  0  0  0  0  0  0  0  0
    2.5645    3.3000    0.0000 C   0  0  0  0  0  0  0  0  0  0  0  0
    3.2789    3.7125    0.0000 C   0  0  0  0  0  0  0  0  0  0  0  0
    3.1074    4.5195    0.0000 C   0  0  0  0  0  0  0  0  0  0  0  0
    2.2869    4.6057    0.0000 N   0  0  0  0  0  0  0  0  0  0  0  0
    1.9514    3.8520    0.0000 N   0  0  0  0  0  0  0  0  0  0  0  0
    3.2789    1.2375    0.0000 C   0  0  0  0  0  0  0  0  0  0  0  0
    3.9934    0.8250    0.0000 C   0  0  0  0  0  0  0  0  0  0  0  0
    3.9934    0.0000    0.0000 C   0  0  0  0  0  0  0  0  0  0  0  0
    3.2789   -0.4125    0.0000 C   0  0  0  0  0  0  0  0  0  0  0  0
    2.5645    0.0000    0.0000 C   0  0  0  0  0  0  0  0  0  0  0  0
    2.5645    0.8250    0.0000 C   0  0  0  0  0  0  0  0  0  0  0  0
    1.7798    1.0799    0.0000 C   0  0  0  0  0  0  0  0  0  0  0  0
    1.2949    0.4125    0.0000 C   0  0  0  0  0  0  0  0  0  0  0  0
    1.7798   -0.2549    0.0000 N   0  0  0  0  0  0  0  0  0  0  0  0
    7.0927    6.2981    0.0000 C   0  0  0  0  0  0  0  0  0  0  0  0
    7.9132    6.3843    0.0000 C   0  0  0  0  0  0  0  0  0  0  0  0
  1  2  1  0
  2  3  1  0
  2  4  1  0
  4  5  1  0
  4 33  1  0
  5  6  1  0
  6  7  1  0
  7  8  1  0
  7 32  1  0
  8  9  1  0
  9 10  2  0
  9 13  1  0
 10 11  1  0
 11 12  2  0
 12 13  1  0
 12 14  1  0
 14 15  2  0
 14 19  1  0
 15 16  1  0
 16 17  2  0
 16 23  1  0
 17 18  1  0
 18 19  2  0
 18 22  1  0
 19 20  1  0
 20 21  2  0
 21 22  1  0
 23 24  2  0
 23 28  1  0
 24 25  1  0
 25 26  2  0
 26 27  1  0
 27 28  2  0
 27 31  1  0
 28 29  1  0
 29 30  2  0
 30 31  1  0
 32 33  1  0
M  END
>  <DRUGBANK_ID>  (1) 
DB16253

>  <COMMON_NAME>  (1) 
Nemiralisib

>  <CAS_NUMBER>  (1) 
1254036-71-9

>  <UNII>  (1) 
OEP8JJ3OZR

>  <SYNONYMS>  (1) 
Nemiralisib

$$$$
