
     RDKit          2D

 32 34  0  0  1  0  0  0  0  0999 V2000
   -0.9355   -1.8414    0.0000 C   0  0  0  0  0  0  0  0  0  0  0  0
   -0.1105   -1.8414    0.0000 O   0  0  0  0  0  0  0  0  0  0  0  0
    0.3020   -1.1270    0.0000 C   0  0  0  0  0  0  0  0  0  0  0  0
    0.7145   -0.4125    0.0000 C   0  0  0  0  0  0  0  0  0  0  0  0
    0.0000    0.0000    0.0000 N   0  0  0  0  0  0  0  0  0  0  0  0
   -0.4125   -0.7145    0.0000 C   0  0  0  0  0  0  0  0  0  0  0  0
   -1.2094   -0.9280    0.0000 O   0  0  0  0  0  0  0  0  0  0  0  0
    0.0000    0.8250    0.0000 C   0  0  0  0  0  0  0  0  0  0  0  0
    0.7145    1.2375    0.0000 C   0  0  0  0  0  0  0  0  0  0  0  0
    1.4289    0.8250    0.0000 C   0  0  0  0  0  0  0  0  0  0  0  0
    1.4289    0.0000    0.0000 O   0  0  0  0  0  0  0  0  0  0  0  0
    0.7145    2.0625    0.0000 C   0  0  0  0  0  0  0  0  0  0  0  0
    1.4289    2.4750    0.0000 S   0  0  0  0  0  0  0  0  0  0  0  0
    1.4289    3.3000    0.0000 C   0  0  0  0  0  0  0  0  0  0  0  0
    0.7615    3.7849    0.0000 N   0  0  0  0  0  0  0  0  0  0  0  0
    1.0164    4.5695    0.0000 N   0  0  0  0  0  0  0  0  0  0  0  0
    1.8414    4.5695    0.0000 N   0  0  0  0  0  0  0  0  0  0  0  0
    2.0964    3.7849    0.0000 N   0  0  0  0  0  0  0  0  0  0  0  0
    2.8810    3.5300    0.0000 C   0  0  0  0  0  0  0  0  0  0  0  0
    3.4941    4.0820    0.0000 C   0  0  0  0  0  0  0  0  0  0  0  0
    4.2787    3.8271    0.0000 O   0  0  0  0  0  0  0  0  0  0  0  0
   -0.7145    1.2375    0.0000 C   0  0  0  0  0  0  0  0  0  0  0  0
   -0.7145    2.0625    0.0000 O   0  0  0  0  0  0  0  0  0  0  0  0
   -1.4289    0.8250    0.0000 O   0  0  0  0  0  0  0  0  0  0  0  0
    1.0164   -1.5395    0.0000 N   0  0  0  0  0  0  0  0  0  0  0  0
    1.7309   -1.1270    0.0000 C   0  0  0  0  0  0  0  0  0  0  0  0
    1.7309   -0.3020    0.0000 O   0  0  0  0  0  0  0  0  0  0  0  0
    2.4454   -1.5395    0.0000 C   0  0  0  0  0  0  0  0  0  0  0  0
    3.1599   -1.1270    0.0000 S   0  0  0  0  0  0  0  0  0  0  0  0
    3.8743   -1.5395    0.0000 C   0  0  0  0  0  0  0  0  0  0  0  0
    4.5888   -1.1270    0.0000 F   0  0  0  0  0  0  0  0  0  0  0  0
    3.8743   -2.3645    0.0000 F   0  0  0  0  0  0  0  0  0  0  0  0
  1  2  1  0
  3  2  1  0
  3  4  1  0
  3  6  1  0
  3 25  1  6
  4  5  1  0
  4 11  1  6
  5  6  1  0
  5  8  1  0
  6  7  2  0
  8  9  2  0
  8 22  1  0
  9 10  1  0
  9 12  1  0
 10 11  1  0
 12 13  1  0
 13 14  1  0
 14 15  2  0
 14 18  1  0
 15 16  1  0
 16 17  2  0
 17 18  1  0
 18 19  1  0
 19 20  1  0
 20 21  1  0
 22 23  2  0
 22 24  1  0
 25 26  1  0
 26 27  2  0
 26 28  1  0
 28 29  1  0
 29 30  1  0
 30 31  1  0
 30 32  1  0
M  END
>  <DRUGBANK_ID>  (1) 
DB11935

>  <COMMON_NAME>  (1) 
Flomoxef

>  <CAS_NUMBER>  (1) 
99665-00-6

>  <UNII>  (1) 
V9E5U5XF42

>  <SYNONYMS>  (1) 
Flomoxef

$$$$
