
     RDKit          2D

 31 34  0  0  0  0  0  0  0  0999 V2000
   -4.7784   -3.7032    0.0000 C   0  0  0  0  0  0  0  0  0  0  0  0
   -4.2241   -4.3149    0.0000 C   0  0  0  0  0  0  0  0  0  0  0  0
   -3.4213   -4.1429    0.0000 C   0  0  0  0  0  0  0  0  0  0  0  0
   -3.1633   -3.3592    0.0000 N   0  0  0  0  0  0  0  0  0  0  0  0
   -3.7175   -2.7475    0.0000 C   0  0  0  0  0  0  0  0  0  0  0  0
   -4.5204   -2.9196    0.0000 C   0  0  0  0  0  0  0  0  0  0  0  0
   -3.4595   -1.9639    0.0000 C   0  0  0  0  0  0  0  0  0  0  0  0
   -2.6568   -1.7918    0.0000 C   0  0  0  0  0  0  0  0  0  0  0  0
   -2.3988   -1.0082    0.0000 N   0  0  0  0  0  0  0  0  0  0  0  0
   -1.5959   -0.8361    0.0000 C   0  0  0  0  0  0  0  0  0  0  0  0
   -1.3379   -0.0525    0.0000 C   0  0  0  0  0  0  0  0  0  0  0  0
   -0.5256    0.1194    0.0000 N   0  0  0  0  0  0  0  0  0  0  0  0
   -0.2771    0.9126    0.0000 C   0  0  0  0  0  0  0  0  0  0  0  0
    0.5352    1.0847    0.0000 C   0  0  0  0  0  0  0  0  0  0  0  0
    0.7836    1.8683    0.0000 N   0  0  0  0  0  0  0  0  0  0  0  0
    1.5959    2.0404    0.0000 C   0  0  0  0  0  0  0  0  0  0  0  0
    1.8540    2.8240    0.0000 C   0  0  0  0  0  0  0  0  0  0  0  0
    1.3666    3.4930    0.0000 C   0  0  0  0  0  0  0  0  0  0  0  0
    1.8540    4.1524    0.0000 S   0  0  0  0  0  0  0  0  0  0  0  0
    2.6377    3.9039    0.0000 C   0  0  0  0  0  0  0  0  0  0  0  0
    3.3448    4.3149    0.0000 C   0  0  0  0  0  0  0  0  0  0  0  0
    4.0616    3.9039    0.0000 C   0  0  0  0  0  0  0  0  0  0  0  0
    4.0616    3.0725    0.0000 C   0  0  0  0  0  0  0  0  0  0  0  0
    3.3448    2.6615    0.0000 C   0  0  0  0  0  0  0  0  0  0  0  0
    2.6377    3.0725    0.0000 C   0  0  0  0  0  0  0  0  0  0  0  0
    4.7784    2.6615    0.0000 Cl  0  0  0  0  0  0  0  0  0  0  0  0
    0.0190   -0.4922    0.0000 C   0  0  0  0  0  0  0  0  0  0  0  0
   -0.2293   -1.2758    0.0000 C   0  0  0  0  0  0  0  0  0  0  0  0
   -1.0416   -1.4478    0.0000 N   0  0  0  0  0  0  0  0  0  0  0  0
    0.8313   -0.3201    0.0000 Cl  0  0  0  0  0  0  0  0  0  0  0  0
   -1.8922    0.5686    0.0000 O   0  0  0  0  0  0  0  0  0  0  0  0
  1  2  1  0
  1  6  1  0
  2  3  1  0
  3  4  1  0
  4  5  1  0
  5  6  1  0
  5  7  1  6
  7  8  1  0
  8  9  1  0
  9 10  2  0
 10 11  1  0
 10 29  1  0
 11 12  1  0
 11 31  1  0
 12 13  1  0
 12 27  1  0
 13 14  1  0
 14 15  1  0
 15 16  1  0
 16 17  1  0
 17 18  2  0
 17 25  1  0
 18 19  1  0
 19 20  1  0
 20 21  1  0
 20 25  2  0
 21 22  2  0
 22 23  1  0
 23 24  2  0
 23 26  1  0
 24 25  1  0
 27 28  1  0
 27 30  1  1
 28 29  1  0
M  END
>  <DRUGBANK_ID>  (1) 
DB07521

>  <COMMON_NAME>  (1) 
(3Z,6S)-6-Chloro-1-(2-{[(5-chloro-1-benzothiophen-3-yl)methyl]amino}ethyl)-3-({2-[(2R)-2-piperidinyl]ethyl}imino)-2-piperazinol

>  <SYNONYMS>  (1) 
(3S)-3-Chloro-4-[2-[(5-chloro-1-benzothiophen-3-yl)methylamino]ethyl]-6-[2-[(2R)-piperidin-2-yl]ethylamino]-3,5-dihydro-2H-pyrazin-5-ol

$$$$
