
     RDKit          2D

 21 23  0  0  0  0  0  0  0  0999 V2000
   -4.3145    1.7044    0.0000 C   0  0  0  0  0  0  0  0  0  0  0  0
   -0.6867    0.4349    0.0000 C   0  0  0  0  0  0  0  0  0  0  0  0
   -3.5609    2.0400    0.0000 C   0  0  0  0  0  0  0  0  0  0  0  0
   -4.2283    0.8840    0.0000 C   0  0  0  0  0  0  0  0  0  0  0  0
    2.8856    0.0224    0.0000 C   0  0  0  0  0  0  0  0  0  0  0  0
    2.1711   -1.2150    0.0000 C   0  0  0  0  0  0  0  0  0  0  0  0
    2.1711    0.4349    0.0000 C   0  0  0  0  0  0  0  0  0  0  0  0
    1.4566   -0.8025    0.0000 C   0  0  0  0  0  0  0  0  0  0  0  0
   -1.4011    0.0224    0.0000 C   0  0  0  0  0  0  0  0  0  0  0  0
    0.0277    0.0224    0.0000 C   0  0  0  0  0  0  0  0  0  0  0  0
   -2.2018    1.2554    0.0000 C   0  0  0  0  0  0  0  0  0  0  0  0
   -2.8693    0.0993    0.0000 C   0  0  0  0  0  0  0  0  0  0  0  0
    2.8856   -0.8025    0.0000 C   0  0  0  0  0  0  0  0  0  0  0  0
   -3.0088    1.4269    0.0000 C   0  0  0  0  0  0  0  0  0  0  0  0
   -3.4213    0.7124    0.0000 C   0  0  0  0  0  0  0  0  0  0  0  0
    1.4566    0.0224    0.0000 C   0  0  0  0  0  0  0  0  0  0  0  0
    3.6001   -1.2150    0.0000 C   0  0  0  0  0  0  0  0  0  0  0  0
    4.3145   -0.8025    0.0000 N   0  0  0  0  0  0  0  0  0  0  0  0
   -2.1156    0.4349    0.0000 N   0  0  0  0  0  0  0  0  0  0  0  0
    3.6001   -2.0400    0.0000 O   0  0  0  0  0  0  0  0  0  0  0  0
    0.7422    0.4349    0.0000 O   0  0  0  0  0  0  0  0  0  0  0  0
  3  1  1  0
  4  1  1  0
  7  5  2  0
  8  6  1  0
  9  2  1  0
 10  2  1  0
 13  5  1  0
 13  6  2  0
 14  3  1  0
 14 11  1  0
 15  4  1  0
 15 12  1  0
 15 14  1  0
 16  7  1  0
 16  8  2  0
 17 13  1  0
 18 17  1  0
 19  9  1  0
 19 11  1  0
 19 12  1  0
 20 17  2  0
 21 10  1  0
 21 16  1  0
M  END
>  <DRUGBANK_ID>  (1) 
DB16893

>  <COMMON_NAME>  (1) 
S-38093

>  <CAS_NUMBER>  (1) 
862896-30-8

>  <SYNONYMS>  (1) 
S 38093; S-38093 free base

$$$$
