
     RDKit          2D

 16 16  0  0  0  0  0  0  0  0999 V2000
    1.7862   -0.4125    0.0000 C   0  0  0  0  0  0  0  0  0  0  0  0
    1.7862    0.4125    0.0000 C   0  0  0  0  0  0  0  0  0  0  0  0
    1.0717    0.8250    0.0000 O   0  0  0  0  0  0  0  0  0  0  0  0
    1.0717   -0.8250    0.0000 C   0  0  0  0  0  0  0  0  0  0  0  0
    0.3572    0.4125    0.0000 C   0  0  0  0  0  0  0  0  0  0  0  0
    0.3572   -0.4125    0.0000 C   0  0  0  0  0  0  0  0  0  0  0  0
    2.5006    0.8250    0.0000 O   0  0  0  0  0  0  0  0  0  0  0  0
    2.5006   -0.8250    0.0000 O   0  0  0  0  0  0  0  0  0  0  0  0
    1.0717   -1.6500    0.0000 O   0  0  0  0  0  0  0  0  0  0  0  0
   -0.3571   -0.8250    0.0000 O   0  0  0  0  0  0  0  0  0  0  0  0
   -0.3571    0.8250    0.0000 C   0  0  0  0  0  0  0  0  0  0  0  0
   -1.0716    0.4125    0.0000 O   0  0  0  0  0  0  0  0  0  0  0  0
   -1.7861    1.6500    0.0000 O   0  0  0  0  0  0  0  0  0  0  0  0
   -2.5006    0.4125    0.0000 O   0  0  0  0  0  0  0  0  0  0  0  0
   -1.7861    0.8250    0.0000 P   0  0  0  0  0  0  0  0  0  0  0  0
   -1.7861    0.0000    0.0000 O   0  0  0  0  0  0  0  0  0  0  0  0
  1  8  1  6
  1  4  1  0
  2  1  1  0
  2  7  1  6
  2  3  1  0
  3  5  1  0
  4  9  1  1
  4  6  1  0
  5 11  1  1
  5  6  1  0
  6 10  1  6
 12 11  1  0
 12 15  1  0
 13 15  2  0
 14 15  1  0
 15 16  1  0
M  END
>  <DRUGBANK_ID>  (1) 
DB02007

>  <SECONDARY_ACCESSION_NUMBERS>  (1) 
EXPT01537

>  <COMMON_NAME>  (1) 
alpha-D-glucose 6-phosphate

>  <CAS_NUMBER>  (1) 
15209-11-7

>  <UNII>  (1) 
03JQ7I74CO

>  <SYNONYMS>  (1) 
6-O-phosphono-Î±-D-glucopyranose; alpha-D-Glucopyranose 6-phosphate

$$$$
