
     RDKit          2D

 39 44  0  0  1  0  0  0  0  0999 V2000
   -2.6972   14.8446    0.0000 C   0  0  0  0  0  0  0  0  0  0  0  0
   -2.8080   14.0271    0.0000 C   0  0  0  0  0  0  0  0  0  0  0  0
   -3.5714   13.7142    0.0000 C   0  0  0  0  0  0  0  0  0  0  0  0
   -4.2240   14.2189    0.0000 C   0  0  0  0  0  0  0  0  0  0  0  0
   -4.1132   15.0364    0.0000 C   0  0  0  0  0  0  0  0  0  0  0  0
   -3.3499   15.3493    0.0000 C   0  0  0  0  0  0  0  0  0  0  0  0
   -4.7659   15.5411    0.0000 F   0  0  0  0  0  0  0  0  0  0  0  0
   -4.9874   13.9060    0.0000 F   0  0  0  0  0  0  0  0  0  0  0  0
   -3.6821   12.8967    0.0000 C   0  0  0  0  0  0  0  0  0  0  0  0
   -2.9936   12.4422    0.0000 C   0  0  0  0  0  0  0  0  0  0  0  0
   -2.9196   11.6205    0.0000 C   0  0  0  0  0  0  0  0  0  0  0  0
   -3.5159   11.0504    0.0000 C   0  0  0  0  0  0  0  0  0  0  0  0
   -4.3335   11.1611    0.0000 C   0  0  0  0  0  0  0  0  0  0  0  0
   -4.7566   11.8694    0.0000 C   0  0  0  0  0  0  0  0  0  0  0  0
   -5.5815   11.8570    0.0000 C   0  0  0  0  0  0  0  0  0  0  0  0
   -5.9833   11.1365    0.0000 C   0  0  0  0  0  0  0  0  0  0  0  0
   -5.5601   10.4282    0.0000 C   0  0  0  0  0  0  0  0  0  0  0  0
   -4.7352   10.4406    0.0000 N   0  0  0  0  0  0  0  0  0  0  0  0
   -4.4667   12.6418    0.0000 C   0  0  0  0  0  0  0  0  0  0  0  0
   -5.0368   13.2381    0.0000 N   0  0  0  0  0  0  0  0  0  0  0  0
   -3.2610   10.2658    0.0000 O   0  0  0  0  0  0  0  0  0  0  0  0
   -2.4540   10.0942    0.0000 C   0  0  0  0  0  0  0  0  0  0  0  0
   -1.9020   10.7073    0.0000 O   0  0  0  0  0  0  0  0  0  0  0  0
   -2.1991    9.3096    0.0000 N   0  0  0  0  0  0  0  0  0  0  0  0
   -1.3921    9.1381    0.0000 C   0  0  0  0  0  0  0  0  0  0  0  0
   -1.1372    8.3535    0.0000 C   0  0  0  0  0  0  0  0  0  0  0  0
   -1.6892    7.7404    0.0000 C   0  0  0  0  0  0  0  0  0  0  0  0
   -2.4962    7.9119    0.0000 C   0  0  0  0  0  0  0  0  0  0  0  0
   -2.7511    8.6965    0.0000 C   0  0  0  0  0  0  0  0  0  0  0  0
   -1.4343    6.9558    0.0000 N   0  0  0  0  0  0  0  0  0  0  0  0
   -0.6496    6.7008    0.0000 C   0  0  0  0  0  0  0  0  0  0  0  0
    0.0648    7.1133    0.0000 C   0  0  0  0  0  0  0  0  0  0  0  0
    0.7793    6.7008    0.0000 C   0  0  0  0  0  0  0  0  0  0  0  0
    0.7793    5.8758    0.0000 C   0  0  0  0  0  0  0  0  0  0  0  0
    0.0648    5.4633    0.0000 N   0  0  0  0  0  0  0  0  0  0  0  0
   -0.6496    5.8758    0.0000 C   0  0  0  0  0  0  0  0  0  0  0  0
   -1.4343    5.6209    0.0000 N   0  0  0  0  0  0  0  0  0  0  0  0
   -1.9192    6.2883    0.0000 C   0  0  0  0  0  0  0  0  0  0  0  0
   -2.7442    6.2883    0.0000 O   0  0  0  0  0  0  0  0  0  0  0  0
  1  2  2  0
  1  6  1  0
  2  3  1  0
  3  4  2  0
  4  5  1  0
  4  8  1  0
  5  6  2  0
  5  7  1  0
  9  3  1  6
  9 10  1  0
  9 19  1  0
 10 11  1  0
 11 12  1  0
 12 13  1  0
 12 21  1  1
 13 14  2  0
 13 18  1  0
 14 15  1  0
 14 19  1  0
 15 16  2  0
 16 17  1  0
 17 18  2  0
 19 20  1  1
 21 22  1  0
 22 23  2  0
 22 24  1  0
 24 25  1  0
 24 29  1  0
 25 26  1  0
 26 27  1  0
 27 28  1  0
 27 30  1  0
 28 29  1  0
 30 31  1  0
 30 38  1  0
 31 32  2  0
 31 36  1  0
 32 33  1  0
 33 34  2  0
 34 35  1  0
 35 36  2  0
 36 37  1  0
 37 38  1  0
 38 39  2  0
M  END
>  <DRUGBANK_ID>  (1) 
DB12457

>  <COMMON_NAME>  (1) 
Rimegepant

>  <CAS_NUMBER>  (1) 
1289023-67-1

>  <UNII>  (1) 
997WVV895X

>  <SYNONYMS>  (1) 
Rimegepant

$$$$
