
     RDKit          2D

 19 18  0  0  0  0  0  0  0  0999 V2000
    1.5395   -5.1414    0.0000 O   0  0  0  0  0  0  0  0  0  0  0  0
    2.2539   -5.5539    0.0000 C   0  0  0  0  0  0  0  0  0  0  0  0
    2.9684   -5.1414    0.0000 C   0  0  0  0  0  0  0  0  0  0  0  0
    3.3809   -5.8559    0.0000 C   0  0  0  0  0  0  0  0  0  0  0  0
    4.2059   -5.8559    0.0000 O   0  0  0  0  0  0  0  0  0  0  0  0
    2.5559   -4.4270    0.0000 C   0  0  0  0  0  0  0  0  0  0  0  0
    1.7309   -4.4270    0.0000 O   0  0  0  0  0  0  0  0  0  0  0  0
    3.6829   -4.7289    0.0000 N   0  0  0  0  0  0  0  0  0  0  0  0
    4.3974   -5.1414    0.0000 C   0  0  0  0  0  0  0  0  0  0  0  0
    5.1118   -4.7289    0.0000 C   0  0  0  0  0  0  0  0  0  0  0  0
    5.8263   -5.1414    0.0000 C   0  0  0  0  0  0  0  0  0  0  0  0
    6.5408   -4.7289    0.0000 N   0  0  0  0  0  0  0  0  0  0  0  0
    7.2552   -5.1414    0.0000 C   0  0  0  0  0  0  0  0  0  0  0  0
    7.9697   -5.5539    0.0000 C   0  0  0  0  0  0  0  0  0  0  0  0
    8.6842   -5.1414    0.0000 O   0  0  0  0  0  0  0  0  0  0  0  0
    6.8427   -5.8559    0.0000 C   0  0  0  0  0  0  0  0  0  0  0  0
    7.2552   -6.5704    0.0000 O   0  0  0  0  0  0  0  0  0  0  0  0
    7.6677   -4.4270    0.0000 C   0  0  0  0  0  0  0  0  0  0  0  0
    8.4927   -4.4270    0.0000 O   0  0  0  0  0  0  0  0  0  0  0  0
  1  2  1  0
  2  3  1  0
  3  4  1  0
  3  6  1  0
  3  8  1  0
  4  5  1  0
  6  7  1  0
  8  9  1  0
  9 10  1  0
 10 11  1  0
 11 12  1  0
 12 13  1  0
 13 14  1  0
 13 16  1  0
 13 18  1  0
 14 15  1  0
 16 17  1  0
 18 19  1  0
M  END
>  <DRUGBANK_ID>  (1) 
DB02676

>  <SECONDARY_ACCESSION_NUMBERS>  (1) 
EXPT00612

>  <COMMON_NAME>  (1) 
2-[3-(2-Hydroxy-1,1-Dihydroxymethyl-Ethylamino)-Propylamino]-2-Hydroxymethyl-Propane-1,3-Diol

>  <UNII>  (1) 
N5YD0CS4DO

$$$$
