
     RDKit          2D

 10  9  0  0  0  0  0  0  0  0999 V2000
    2.8512   -0.6206    0.0000 C   0  0  0  0  0  0  0  0  0  0  0  0
    2.1406   -0.2085    0.0000 S   0  0  0  0  0  0  0  0  0  0  0  0
    1.4293   -0.6206    0.0000 C   0  0  0  0  0  0  0  0  0  0  0  0
    0.7184   -0.2085    0.0000 C   0  0  0  0  0  0  0  0  0  0  0  0
    0.0025   -0.6206    0.0000 C   0  0  0  0  0  0  0  0  0  0  0  0
   -0.7132   -0.2085    0.0000 C   0  0  0  0  0  0  0  0  0  0  0  0
   -1.4241   -0.6206    0.0000 N   0  0  0  0  0  0  0  0  0  0  0  0
   -2.1384   -0.2096    0.0000 C   0  0  0  0  0  0  0  0  0  0  0  0
   -2.8512    0.2035    0.0000 S   0  0  0  0  0  0  0  0  0  0  0  0
    2.1406    0.6206    0.0000 O   0  0  0  0  0  0  0  0  0  0  0  0
  2  1  1  0
  2  3  1  0
  2 10  2  0
  3  4  1  0
  4  5  1  0
  5  6  1  0
  6  7  1  0
  7  8  2  0
  8  9  2  0
M  END
>  <DRUGBANK_ID>  (1) 
DB12422

>  <COMMON_NAME>  (1) 
Sulforaphane

>  <CAS_NUMBER>  (1) 
142825-10-3

>  <UNII>  (1) 
GA49J4310U

>  <SYNONYMS>  (1) 
(-)-sulforaphane; (R)-sulforaphane; 4-methylsulfinylbutyl isothiocyanate

$$$$
