
     RDKit          2D

 31 34  0  0  0  0  0  0  0  0999 V2000
    0.4834    1.2986    0.0000 C   0  0  0  0  0  0  0  0  0  0  0  0
    0.4834    0.4683    0.0000 C   0  0  0  0  0  0  0  0  0  0  0  0
    1.2023    0.0532    0.0000 C   0  0  0  0  0  0  0  0  0  0  0  0
    1.9215    0.4683    0.0000 C   0  0  0  0  0  0  0  0  0  0  0  0
    1.9215    1.2986    0.0000 N   0  0  0  0  0  0  0  0  0  0  0  0
    1.2023    1.7137    0.0000 C   0  0  0  0  0  0  0  0  0  0  0  0
   -0.7881    0.8878    0.0000 N   0  0  0  0  0  0  0  0  0  0  0  0
   -0.3083    0.2189    0.0000 C   0  0  0  0  0  0  0  0  0  0  0  0
   -0.2986    1.5550    0.0000 N   0  0  0  0  0  0  0  0  0  0  0  0
    2.6405    2.5440    0.0000 C   0  0  0  0  0  0  0  0  0  0  0  0
    2.6405    1.7137    0.0000 N   0  0  0  0  0  0  0  0  0  0  0  0
    3.3594    1.2986    0.0000 C   0  0  0  0  0  0  0  0  0  0  0  0
    4.0786    1.7137    0.0000 C   0  0  0  0  0  0  0  0  0  0  0  0
    4.0786    2.5440    0.0000 C   0  0  0  0  0  0  0  0  0  0  0  0
    3.3594    2.9592    0.0000 C   0  0  0  0  0  0  0  0  0  0  0  0
    1.2023    2.5440    0.0000 O   0  0  0  0  0  0  0  0  0  0  0  0
   -1.6111    0.8878    0.0000 C   0  0  0  0  0  0  0  0  0  0  0  0
   -2.8434    0.1758    0.0000 C   0  0  0  0  0  0  0  0  0  0  0  0
   -2.0228    0.1750    0.0000 C   0  0  0  0  0  0  0  0  0  0  0  0
   -3.2552    0.8888    0.0000 C   0  0  0  0  0  0  0  0  0  0  0  0
   -2.0244    1.6036    0.0000 C   0  0  0  0  0  0  0  0  0  0  0  0
   -2.8470    1.5989    0.0000 C   0  0  0  0  0  0  0  0  0  0  0  0
   -0.5213   -0.5761    0.0000 C   0  0  0  0  0  0  0  0  0  0  0  0
   -0.1526   -1.9509    0.0000 C   0  0  0  0  0  0  0  0  0  0  0  0
    0.0604   -1.1583    0.0000 C   0  0  0  0  0  0  0  0  0  0  0  0
   -0.9479   -2.1638    0.0000 C   0  0  0  0  0  0  0  0  0  0  0  0
   -1.3199   -0.7901    0.0000 C   0  0  0  0  0  0  0  0  0  0  0  0
   -1.5281   -1.5858    0.0000 C   0  0  0  0  0  0  0  0  0  0  0  0
   -1.6132    2.3160    0.0000 Cl  0  0  0  0  0  0  0  0  0  0  0  0
   -4.0786    0.8888    0.0000 Cl  0  0  0  0  0  0  0  0  0  0  0  0
   -1.1610   -2.9592    0.0000 Br  0  0  0  0  0  0  0  0  0  0  0  0
  1  2  1  0
  1  6  1  0
  1  9  2  0
  2  3  1  0
  2  8  2  0
  3  4  1  0
  5  6  1  0
  5 11  1  0
  6 16  2  0
  7  8  1  0
  7 17  1  0
  9  7  1  0
 10 11  1  0
 10 15  1  0
 11 12  1  0
 12 13  1  0
 13 14  1  0
 14 15  1  0
 17 21  2  0
 18 19  2  0
 19 17  1  0
 20 18  1  0
 20 30  1  0
 21 22  1  0
 21 29  1  0
 22 20  2  0
 23 27  2  0
 23  8  1  0
 24 25  2  0
 25 23  1  0
 26 24  1  0
 26 31  1  0
 27 28  1  0
 28 26  2  0
M  END
>  <DRUGBANK_ID>  (1) 
DB13070

>  <COMMON_NAME>  (1) 
Surinabant

>  <CAS_NUMBER>  (1) 
288104-79-0

>  <UNII>  (1) 
SF8R9VCB0X

>  <SYNONYMS>  (1) 
Surinabant

$$$$
