
     RDKit          2D

 28 31  0  0  0  0  0  0  0  0999 V2000
   -1.0544    2.6663    0.0000 C   0  0  0  0  0  0  0  0  0  0  0  0
   -0.3870    2.1814    0.0000 C   0  0  0  0  0  0  0  0  0  0  0  0
   -0.6419    1.3968    0.0000 C   0  0  0  0  0  0  0  0  0  0  0  0
   -1.4669    1.3968    0.0000 C   0  0  0  0  0  0  0  0  0  0  0  0
   -1.7218    2.1814    0.0000 O   0  0  0  0  0  0  0  0  0  0  0  0
   -1.0544    3.4913    0.0000 C   0  0  0  0  0  0  0  0  0  0  0  0
   -0.3399    3.9038    0.0000 C   0  0  0  0  0  0  0  0  0  0  0  0
   -1.9518    0.7294    0.0000 C   0  0  0  0  0  0  0  0  0  0  0  0
   -1.6163   -0.0242    0.0000 C   0  0  0  0  0  0  0  0  0  0  0  0
   -0.8093   -0.1957    0.0000 S   0  0  0  0  0  0  0  0  0  0  0  0
   -0.7231   -1.0163    0.0000 C   0  0  0  0  0  0  0  0  0  0  0  0
   -1.4767   -1.3518    0.0000 N   0  0  0  0  0  0  0  0  0  0  0  0
   -2.0288   -0.7387    0.0000 C   0  0  0  0  0  0  0  0  0  0  0  0
   -0.0086   -1.4288    0.0000 N   0  0  0  0  0  0  0  0  0  0  0  0
   -0.0086   -2.2537    0.0000 C   0  0  0  0  0  0  0  0  0  0  0  0
    0.7058   -2.6663    0.0000 C   0  0  0  0  0  0  0  0  0  0  0  0
   -0.7231   -2.6663    0.0000 C   0  0  0  0  0  0  0  0  0  0  0  0
   -1.4767   -2.3307    0.0000 N   0  0  0  0  0  0  0  0  0  0  0  0
   -2.0288   -2.9439    0.0000 N   0  0  0  0  0  0  0  0  0  0  0  0
   -1.6163   -3.6583    0.0000 N   0  0  0  0  0  0  0  0  0  0  0  0
   -0.8093   -3.4868    0.0000 N   0  0  0  0  0  0  0  0  0  0  0  0
    0.7058   -3.4913    0.0000 C   0  0  0  0  0  0  0  0  0  0  0  0
    1.4203   -3.9037    0.0000 C   0  0  0  0  0  0  0  0  0  0  0  0
    2.1347   -3.4913    0.0000 C   0  0  0  0  0  0  0  0  0  0  0  0
    2.1347   -2.6663    0.0000 C   0  0  0  0  0  0  0  0  0  0  0  0
    1.4203   -2.2537    0.0000 C   0  0  0  0  0  0  0  0  0  0  0  0
    2.8492   -3.9037    0.0000 F   0  0  0  0  0  0  0  0  0  0  0  0
   -2.8492   -0.8250    0.0000 O   0  0  0  0  0  0  0  0  0  0  0  0
  1  2  2  0
  1  5  1  0
  1  6  1  0
  2  3  1  0
  3  4  2  0
  4  8  1  0
  4  5  1  0
  6  7  1  0
  8  9  2  0
  9 10  1  0
 11 10  1  0
 11 14  1  0
 11 12  2  0
 13  9  1  0
 13 12  1  0
 13 28  2  0
 15 14  1  1
 15 17  1  0
 15 16  1  0
 16 26  1  0
 16 22  2  0
 17 21  2  0
 17 18  1  0
 18 19  1  0
 19 20  2  0
 20 21  1  0
 22 23  1  0
 23 24  2  0
 24 25  1  0
 24 27  1  0
 25 26  2  0
M  END
>  <DRUGBANK_ID>  (1) 
DB08710

>  <COMMON_NAME>  (1) 
(5Z)-5-[(5-ethylfuran-2-yl)methylidene]-2-[[(S)-(4-fluorophenyl)-(2H-tetrazol-5-yl)methyl]amino]-1,3-thiazol-4-one

$$$$
