
     RDKit          2D

 26 29  0  0  0  0  0  0  0  0999 V2000
   -1.0946    2.1027    0.0000 C   0  0  0  0  0  0  0  0  0  0  0  0
   -1.0975    2.9287    0.0000 N   0  0  0  0  0  0  0  0  0  0  0  0
   -1.8839    3.1810    0.0000 C   0  0  0  0  0  0  0  0  0  0  0  0
   -2.3671    2.5111    0.0000 N   0  0  0  0  0  0  0  0  0  0  0  0
   -1.8792    1.8448    0.0000 C   0  0  0  0  0  0  0  0  0  0  0  0
   -1.0858   -0.3678    0.0000 C   0  0  0  0  0  0  0  0  0  0  0  0
   -1.0887    0.4552    0.0000 C   0  0  0  0  0  0  0  0  0  0  0  0
   -0.3767    0.8695    0.0000 N   0  0  0  0  0  0  0  0  0  0  0  0
    0.3382    0.4610    0.0000 C   0  0  0  0  0  0  0  0  0  0  0  0
    1.0503    0.8754    0.0000 C   0  0  0  0  0  0  0  0  0  0  0  0
   -0.3796    1.6925    0.0000 C   0  0  0  0  0  0  0  0  0  0  0  0
   -1.7484   -1.8711    0.0000 C   0  0  0  0  0  0  0  0  0  0  0  0
   -1.0802   -2.3566    0.0000 N   0  0  0  0  0  0  0  0  0  0  0  0
   -0.4121   -1.8711    0.0000 C   0  0  0  0  0  0  0  0  0  0  0  0
   -1.4931   -1.0857    0.0000 C   0  0  0  0  0  0  0  0  0  0  0  0
   -0.6693   -1.0811    0.0000 C   0  0  0  0  0  0  0  0  0  0  0  0
    0.3338    2.1082    0.0000 O   0  0  0  0  0  0  0  0  0  0  0  0
    1.7648    0.4630    0.0000 C   0  0  0  0  0  0  0  0  0  0  0  0
    2.4764    0.8767    0.0000 C   0  0  0  0  0  0  0  0  0  0  0  0
    2.4740    1.7014    0.0000 C   0  0  0  0  0  0  0  0  0  0  0  0
    1.7540    2.1108    0.0000 C   0  0  0  0  0  0  0  0  0  0  0  0
    1.0454    1.6947    0.0000 C   0  0  0  0  0  0  0  0  0  0  0  0
    3.1929    0.4659    0.0000 Cl  0  0  0  0  0  0  0  0  0  0  0  0
    3.1872    2.1178    0.0000 F   0  0  0  0  0  0  0  0  0  0  0  0
   -3.1929    2.5082    0.0000 C   0  0  0  0  0  0  0  0  0  0  0  0
   -1.0859   -3.1810    0.0000 C   0  0  0  0  0  0  0  0  0  0  0  0
  1  2  1  0
  2  3  2  0
  3  4  1  0
  4  5  1  0
  4 25  1  0
  5  1  2  0
  6 16  1  0
  6  7  1  6
  7  8  1  0
  8 11  1  0
  8  9  1  0
  9 10  1  0
 10 18  2  0
 11 17  2  0
 11  1  1  0
 12 13  1  0
 13 14  1  0
 13 26  1  0
 15  6  1  0
 15 12  1  1
 16 14  1  1
 16 15  1  0
 18 19  1  0
 19 20  2  0
 19 23  1  0
 20 21  1  0
 20 24  1  0
 21 22  2  0
 22 10  1  0
M  END
>  <DRUGBANK_ID>  (1) 
DB11993

>  <COMMON_NAME>  (1) 
PF-03463275

>  <CAS_NUMBER>  (1) 
1173239-39-8

>  <UNII>  (1) 
3U6T9EE6UX

$$$$
