
     RDKit          2D

 24 27  0  0  0  0  0  0  0  0999 V2000
    0.8965    0.3704    0.0000 S   0  0  0  0  0  0  0  0  0  0  0  0
   -1.8995   -1.2328    0.0000 O   0  0  0  0  0  0  0  0  0  0  0  0
   -1.8995    1.1434    0.0000 O   0  0  0  0  0  0  0  0  0  0  0  0
    1.2952   -0.3140    0.0000 O   0  0  0  0  0  0  0  0  0  0  0  0
    0.4978    1.0549    0.0000 O   0  0  0  0  0  0  0  0  0  0  0  0
    1.5810    0.7691    0.0000 N   0  0  0  0  0  0  0  0  0  0  0  0
    2.9908    0.7007    0.0000 N   0  0  0  0  0  0  0  0  0  0  0  0
    2.3543   -0.4116    0.0000 N   0  0  0  0  0  0  0  0  0  0  0  0
    3.5231    0.1141    0.0000 N   0  0  0  0  0  0  0  0  0  0  0  0
    3.1297   -0.5733    0.0000 N   0  0  0  0  0  0  0  0  0  0  0  0
   -1.2136   -0.0446    0.0000 C   0  0  0  0  0  0  0  0  0  0  0  0
    0.2121   -0.0281    0.0000 C   0  0  0  0  0  0  0  0  0  0  0  0
   -1.2136   -0.8367    0.0000 C   0  0  0  0  0  0  0  0  0  0  0  0
   -0.5055    0.3789    0.0000 C   0  0  0  0  0  0  0  0  0  0  0  0
   -2.5855   -0.0446    0.0000 C   0  0  0  0  0  0  0  0  0  0  0  0
   -1.8995    0.3513    0.0000 C   0  0  0  0  0  0  0  0  0  0  0  0
   -2.5855   -0.8367    0.0000 C   0  0  0  0  0  0  0  0  0  0  0  0
    0.2121   -0.8531    0.0000 C   0  0  0  0  0  0  0  0  0  0  0  0
   -0.5055   -1.2602    0.0000 C   0  0  0  0  0  0  0  0  0  0  0  0
   -3.2936    0.3789    0.0000 C   0  0  0  0  0  0  0  0  0  0  0  0
   -3.2936   -1.2602    0.0000 C   0  0  0  0  0  0  0  0  0  0  0  0
   -4.0113   -0.0281    0.0000 C   0  0  0  0  0  0  0  0  0  0  0  0
   -4.0113   -0.8531    0.0000 C   0  0  0  0  0  0  0  0  0  0  0  0
    2.2684    0.3757    0.0000 C   0  0  0  0  0  0  0  0  0  0  0  0
  1  4  2  0
  1  5  2  0
  1  6  1  0
  1 12  1  0
  2 13  1  0
  2 17  1  0
  3 16  2  0
  6 24  1  0
  7  9  1  0
  7 24  2  0
  8 10  2  0
  8 24  1  0
  9 10  1  0
 11 13  2  0
 11 14  1  0
 11 16  1  0
 12 14  2  0
 12 18  1  0
 13 19  1  0
 15 16  1  0
 15 17  2  0
 15 20  1  0
 17 21  1  0
 18 19  2  0
 20 22  2  0
 21 23  2  0
 22 23  1  0
M  END
>  <DRUGBANK_ID>  (1) 
DB04698

>  <COMMON_NAME>  (1) 
N-(1,4-dihydro-5H-tetrazol-5-ylidene)-9-oxo-9H-xanthene-2-sulfonamide

>  <CAS_NUMBER>  (1) 
353522-10-8

>  <SYNONYMS>  (1) 
9-Oxo-N-(2H-tetrazol-5-yl)-9H-xanthene-2-sulfonamide

$$$$
