
     RDKit          2D

 34 36  0  0  0  0  0  0  0  0999 V2000
   -1.2373   -0.9405    0.0000 C   0  0  0  0  0  0  0  0  0  0  0  0
   -0.4138   -0.9364    0.0000 O   0  0  0  0  0  0  0  0  0  0  0  0
   -1.6469   -1.6553    0.0000 C   0  0  0  0  0  0  0  0  0  0  0  0
   -1.6511    0.5977    0.0000 C   0  0  0  0  0  0  0  0  0  0  0  0
   -0.9364    1.8350    0.0000 C   0  0  0  0  0  0  0  0  0  0  0  0
   -0.0041   -1.6512    0.0000 C   0  0  0  0  0  0  0  0  0  0  0  0
   -1.2415   -2.3660    0.0000 C   0  0  0  0  0  0  0  0  0  0  0  0
   -0.9364    1.0073    0.0000 C   0  0  0  0  0  0  0  0  0  0  0  0
   -0.4179   -2.3660    0.0000 C   0  0  0  0  0  0  0  0  0  0  0  0
    1.0199    1.5341    0.0000 C   0  0  0  0  0  0  0  0  0  0  0  0
    0.6103    2.2488    0.0000 C   0  0  0  0  0  0  0  0  0  0  0  0
   -1.6511   -0.2299    0.0000 O   0  0  0  0  0  0  0  0  0  0  0  0
    1.8434    1.5341    0.0000 C   0  0  0  0  0  0  0  0  0  0  0  0
   -0.2173    2.2488    0.0000 O   0  0  0  0  0  0  0  0  0  0  0  0
    2.2572    2.2488    0.0000 C   0  0  0  0  0  0  0  0  0  0  0  0
   -2.3617    1.0073    0.0000 C   0  0  0  0  0  0  0  0  0  0  0  0
   -1.6511    2.2530    0.0000 C   0  0  0  0  0  0  0  0  0  0  0  0
    1.0157    2.9679    0.0000 O   0  0  0  0  0  0  0  0  0  0  0  0
   -2.3617    1.8350    0.0000 C   0  0  0  0  0  0  0  0  0  0  0  0
    1.8434    2.9636    0.0000 C   0  0  0  0  0  0  0  0  0  0  0  0
   -2.4746   -1.6553    0.0000 N   0  0  0  0  0  0  0  0  0  0  0  0
    0.8235   -1.6553    0.0000 C   0  0  0  0  0  0  0  0  0  0  0  0
    2.2572    0.8192    0.0000 N   0  0  0  0  0  0  0  0  0  0  0  0
    0.6061    0.8192    0.0000 O   0  0  0  0  0  0  0  0  0  0  0  0
   -1.6553   -3.0808    0.0000 O   0  0  0  0  0  0  0  0  0  0  0  0
   -0.0041   -3.0849    0.0000 O   0  0  0  0  0  0  0  0  0  0  0  0
   -0.2173    0.5935    0.0000 O   0  0  0  0  0  0  0  0  0  0  0  0
   -3.0808    0.5935    0.0000 N   0  0  0  0  0  0  0  0  0  0  0  0
   -1.6511    3.0849    0.0000 N   0  0  0  0  0  0  0  0  0  0  0  0
    2.9679    2.6668    0.0000 O   0  0  0  0  0  0  0  0  0  0  0  0
    1.2373   -0.9364    0.0000 O   0  0  0  0  0  0  0  0  0  0  0  0
    2.9679    1.8350    0.0000 C   0  0  0  0  0  0  0  0  0  0  0  0
    3.0808    0.8192    0.0000 C   0  0  0  0  0  0  0  0  0  0  0  0
    1.2373   -2.3660    0.0000 C   0  0  0  0  0  0  0  0  0  0  0  0
  2  1  1  0
  3  1  1  0
  3 21  1  1
  4 12  1  6
  5  8  1  0
  5 14  1  6
  6  2  1  6
  7  3  1  0
  7 25  1  6
  8  4  1  0
  8 27  1  1
  9  6  1  0
  9 26  1  1
  9  7  1  0
 10 11  1  0
 10 24  1  1
 11 14  1  1
  1 12  1  1
 13 10  1  0
 13 23  1  6
 15 20  1  0
 15 30  1  0
 15 32  1  1
 15 13  1  0
 16  4  1  0
 16 28  1  1
 17  5  1  0
 17 29  1  1
 17 19  1  0
 18 11  1  0
 19 16  1  0
 20 18  1  0
 22  6  1  0
 22 31  1  0
 33 23  1  0
 22 34  1  6
M  END
>  <DRUGBANK_ID>  (1) 
DB04263

>  <SECONDARY_ACCESSION_NUMBERS>  (1) 
EXPT01586

>  <COMMON_NAME>  (1) 
Geneticin

>  <CAS_NUMBER>  (1) 
49863-47-0

>  <UNII>  (1) 
A08F5XTI6G

$$$$
