
     RDKit          2D

 23 26  0  0  0  0  0  0  0  0999 V2000
   -0.0338    1.4417    0.0000 C   0  0  0  0  0  0  0  0  0  0  0  0
   -0.0338    0.6167    0.0000 C   0  0  0  0  0  0  0  0  0  0  0  0
    0.6782    0.2083    0.0000 C   0  0  0  0  0  0  0  0  0  0  0  0
    1.3903    0.6167    0.0000 C   0  0  0  0  0  0  0  0  0  0  0  0
    1.3903    1.4417    0.0000 C   0  0  0  0  0  0  0  0  0  0  0  0
    0.6782    1.8585    0.0000 C   0  0  0  0  0  0  0  0  0  0  0  0
   -0.7459    0.2000    0.0000 C   0  0  0  0  0  0  0  0  0  0  0  0
   -0.7459   -0.6250    0.0000 C   0  0  0  0  0  0  0  0  0  0  0  0
   -0.0338   -1.0334    0.0000 C   0  0  0  0  0  0  0  0  0  0  0  0
    0.6782   -0.6250    0.0000 C   0  0  0  0  0  0  0  0  0  0  0  0
   -2.1710    0.2000    0.0000 C   0  0  0  0  0  0  0  0  0  0  0  0
   -2.1710   -0.6250    0.0000 C   0  0  0  0  0  0  0  0  0  0  0  0
   -1.4589   -1.0334    0.0000 C   0  0  0  0  0  0  0  0  0  0  0  0
   -1.4589    0.6167    0.0000 C   0  0  0  0  0  0  0  0  0  0  0  0
    1.3875   -0.2041    0.0000 C   0  0  0  0  0  0  0  0  0  0  0  0
    2.1001    1.0292    0.0000 C   0  0  0  0  0  0  0  0  0  0  0  0
    2.8961    1.2459    0.0000 O   0  0  0  0  0  0  0  0  0  0  0  0
    1.3834    2.2668    0.0000 C   0  0  0  0  0  0  0  0  0  0  0  0
   -0.7501    1.0251    0.0000 C   0  0  0  0  0  0  0  0  0  0  0  0
   -1.4667   -1.8585    0.0000 C   0  0  0  0  0  0  0  0  0  0  0  0
   -2.1793   -1.4417    0.0000 C   0  0  0  0  0  0  0  0  0  0  0  0
   -2.1835   -2.2668    0.0000 O   0  0  0  0  0  0  0  0  0  0  0  0
   -2.8961   -1.0292    0.0000 O   0  0  0  0  0  0  0  0  0  0  0  0
  2  1  1  6
  1  6  1  0
  2  3  1  0
  3 15  1  6
  3  4  1  0
  5  6  1  0
  5 16  1  0
  5 18  1  1
  5  4  1  0
  7  8  1  0
  7 14  1  0
  7  2  1  0
  7 19  1  6
  8  9  1  6
  9 10  1  0
 10  3  1  0
 11 14  1  0
 11 12  1  0
 12 13  1  0
 13  8  1  0
 13 20  1  1
 13 21  1  0
 15 16  1  0
 16 17  2  0
 21 22  2  0
 21 23  1  0
M  END
>  <DRUGBANK_ID>  (1) 
DB16870

>  <COMMON_NAME>  (1) 
Isosteviol

>  <CAS_NUMBER>  (1) 
27975-19-5

>  <UNII>  (1) 
091QB7QO95

>  <SYNONYMS>  (1) 
Iso-steviol; Ketoisostevic acid

$$$$
