452
     RDKit          2D

 25 26  0  0  0  0  0  0  0  0999 V2000
   -1.5507   -2.2956    0.0000 C   0  0  0  0  0  0  0  0  0  0  0  0
   -2.2651   -1.8831    0.0000 C   0  0  0  0  0  0  0  0  0  0  0  0
   -2.9796   -2.2956    0.0000 O   0  0  0  0  0  0  0  0  0  0  0  0
   -2.2651   -1.0581    0.0000 C   0  0  0  0  0  0  0  0  0  0  0  0
   -2.9796   -0.6456    0.0000 C   0  0  0  0  0  0  0  0  0  0  0  0
   -2.9796    0.1794    0.0000 C   0  0  0  0  0  0  0  0  0  0  0  0
   -2.2651    0.5919    0.0000 C   0  0  0  0  0  0  0  0  0  0  0  0
   -1.5507    0.1794    0.0000 C   0  0  0  0  0  0  0  0  0  0  0  0
   -1.5507   -0.6456    0.0000 C   0  0  0  0  0  0  0  0  0  0  0  0
   -0.8362   -1.0581    0.0000 N   0  0  0  0  0  0  0  0  0  0  0  0
   -0.1217   -0.6456    0.0000 C   0  0  0  0  0  0  0  0  0  0  0  0
    0.5927   -1.0581    0.0000 C   0  0  0  0  0  0  0  0  0  0  0  0
    0.5927   -1.8831    0.0000 O   0  0  0  0  0  0  0  0  0  0  0  0
    1.3072   -0.6456    0.0000 N   0  0  0  0  0  0  0  0  0  0  0  0
    1.3072    0.1794    0.0000 C   0  0  0  0  0  0  0  0  0  0  0  0
    0.5927    0.5919    0.0000 C   0  0  0  0  0  0  0  0  0  0  0  0
    0.5927    1.4169    0.0000 C   0  0  0  0  0  0  0  0  0  0  0  0
    1.3072    1.8294    0.0000 C   0  0  0  0  0  0  0  0  0  0  0  0
    2.0217    1.4169    0.0000 C   0  0  0  0  0  0  0  0  0  0  0  0
    2.0217    0.5919    0.0000 C   0  0  0  0  0  0  0  0  0  0  0  0
    2.7362    0.1794    0.0000 C   0  0  0  0  0  0  0  0  0  0  0  0
    2.7362   -0.6456    0.0000 O   0  0  0  0  0  0  0  0  0  0  0  0
    3.4506    0.5919    0.0000 O   0  0  0  0  0  0  0  0  0  0  0  0
   -2.2651    1.4169    0.0000 Cl  0  0  0  0  0  0  0  0  0  0  0  0
   -3.6941    0.5919    0.0000 F   0  0  0  0  0  0  0  0  0  0  0  0
  1  2  1  0
  2  4  1  0
  2  3  2  0
  4  5  2  0
  4  9  1  0
  5  6  1  0
  6 25  1  0
  6  7  2  0
  7 24  1  0
  7  8  1  0
  8  9  2  0
  9 10  1  0
 10 11  1  0
 11 12  1  0
 12 13  2  0
 12 14  1  0
 14 15  1  0
 15 16  2  0
 15 20  1  0
 16 17  1  0
 17 18  2  0
 18 19  1  0
 19 20  2  0
 20 21  1  0
 21 23  2  0
 21 22  1  0
M  END
>  <DRUGBANK_ID>  (1) 
DB07085

>  <COMMON_NAME>  (1) 
2-{[N-(2-ACETYL-5-CHLORO-4-FLUOROPHENYL)GLYCYL]AMINO}BENZOIC ACID

$$$$
