
     RDKit          2D

 27 30  0  0  0  0  0  0  0  0999 V2000
    1.3460   -1.4569    0.0000 C   0  0  0  0  0  0  0  0  0  0  0  0
    0.5335   -1.6002    0.0000 C   0  0  0  0  0  0  0  0  0  0  0  0
    0.0032   -0.9682    0.0000 C   0  0  0  0  0  0  0  0  0  0  0  0
    0.2853   -0.1929    0.0000 C   0  0  0  0  0  0  0  0  0  0  0  0
    1.0978   -0.0497    0.0000 C   0  0  0  0  0  0  0  0  0  0  0  0
    1.6281   -0.6816    0.0000 N   0  0  0  0  0  0  0  0  0  0  0  0
    0.2514   -2.3755    0.0000 C   0  0  0  0  0  0  0  0  0  0  0  0
   -0.5610   -2.5187    0.0000 O   0  0  0  0  0  0  0  0  0  0  0  0
    0.7817   -3.0074    0.0000 O   0  0  0  0  0  0  0  0  0  0  0  0
    1.3799    0.7255    0.0000 C   0  0  0  0  0  0  0  0  0  0  0  0
    1.9102    1.3575    0.0000 C   0  0  0  0  0  0  0  0  0  0  0  0
    2.1924    0.5823    0.0000 C   0  0  0  0  0  0  0  0  0  0  0  0
   -0.0489    0.7255    0.0000 C   0  0  0  0  0  0  0  0  0  0  0  0
    0.6654    1.1380    0.0000 C   0  0  0  0  0  0  0  0  0  0  0  0
    0.6654    1.9630    0.0000 C   0  0  0  0  0  0  0  0  0  0  0  0
   -0.0490    2.3755    0.0000 C   0  0  0  0  0  0  0  0  0  0  0  0
   -0.7635    1.9629    0.0000 C   0  0  0  0  0  0  0  0  0  0  0  0
   -1.4779    2.3754    0.0000 C   0  0  0  0  0  0  0  0  0  0  0  0
   -2.1924    1.9629    0.0000 C   0  0  0  0  0  0  0  0  0  0  0  0
   -2.1924    1.1379    0.0000 C   0  0  0  0  0  0  0  0  0  0  0  0
   -1.4779    0.7254    0.0000 C   0  0  0  0  0  0  0  0  0  0  0  0
   -0.7634    1.1379    0.0000 C   0  0  0  0  0  0  0  0  0  0  0  0
   -0.9476    0.0934    0.0000 C   0  0  0  0  0  0  0  0  0  0  0  0
   -2.0081    0.0933    0.0000 C   0  0  0  0  0  0  0  0  0  0  0  0
   -2.0083    3.0074    0.0000 C   0  0  0  0  0  0  0  0  0  0  0  0
   -0.9477    3.0074    0.0000 C   0  0  0  0  0  0  0  0  0  0  0  0
    1.3798    2.3755    0.0000 C   0  0  0  0  0  0  0  0  0  0  0  0
  1  2  2  0
  1  6  1  0
  2  3  1  0
  2  7  1  0
  3  4  2  0
  4  5  1  0
  5  6  2  0
  5 10  1  0
  7  8  2  0
  7  9  1  0
 10 11  1  0
 10 12  1  0
 10 14  1  0
 11 12  1  0
 13 14  2  0
 13 22  1  0
 14 15  1  0
 15 16  2  0
 15 27  1  0
 16 17  1  0
 17 18  1  0
 17 22  2  0
 18 19  1  0
 18 25  1  0
 18 26  1  0
 19 20  1  0
 20 21  1  0
 21 22  1  0
 21 23  1  0
 21 24  1  0
M  END
>  <DRUGBANK_ID>  (1) 
DB01941

>  <SECONDARY_ACCESSION_NUMBERS>  (1) 
EXPT02021

>  <COMMON_NAME>  (1) 
LG-100268

>  <CAS_NUMBER>  (1) 
153559-76-3

>  <UNII>  (1) 
UVU4X1103P

$$$$
