HS7
     RDKit          2D

 15 15  0  0  0  0  0  0  0  0999 V2000
   -2.4557   -1.3393    0.0000 O   0  0  0  0  0  0  0  0  0  0  0  0
   -2.4557   -0.5143    0.0000 C   0  0  0  0  0  0  0  0  0  0  0  0
   -3.1702   -0.1018    0.0000 N   0  0  0  0  0  0  0  0  0  0  0  0
   -3.8847   -0.5143    0.0000 O   0  0  0  0  0  0  0  0  0  0  0  0
   -1.7412   -0.1018    0.0000 C   0  0  0  0  0  0  0  0  0  0  0  0
   -1.0268   -0.5143    0.0000 N   0  0  0  0  0  0  0  0  0  0  0  0
   -0.3123   -0.1018    0.0000 S   0  0  0  0  0  0  0  0  0  0  0  0
    0.1002   -0.8163    0.0000 O   0  0  0  0  0  0  0  0  0  0  0  0
   -0.7248    0.6127    0.0000 O   0  0  0  0  0  0  0  0  0  0  0  0
    0.4022    0.3107    0.0000 C   0  0  0  0  0  0  0  0  0  0  0  0
    0.4022    1.1357    0.0000 C   0  0  0  0  0  0  0  0  0  0  0  0
    1.1166   -0.1018    0.0000 C   0  0  0  0  0  0  0  0  0  0  0  0
    1.8311    0.3107    0.0000 C   0  0  0  0  0  0  0  0  0  0  0  0
    1.8311    1.1357    0.0000 C   0  0  0  0  0  0  0  0  0  0  0  0
    1.1166    1.5482    0.0000 C   0  0  0  0  0  0  0  0  0  0  0  0
  1  2  2  0
  2  3  1  0
  2  5  1  0
  3  4  2  0
  5  6  1  0
  6  7  1  0
  7  8  2  0
  7  9  2  0
  7 10  1  0
 10 11  2  0
 10 12  1  0
 11 15  1  0
 12 13  2  0
 13 14  1  0
 14 15  2  0
M  END
>  <DRUGBANK_ID>  (1) 
DB07922

>  <COMMON_NAME>  (1) 
N-oxo-2-(phenylsulfonylamino)ethanamide

$$$$
