
     RDKit          2D

 26 28  0  0  0  0  0  0  0  0999 V2000
   -3.2151    0.0000    0.0000 O   0  0  0  0  0  0  0  0  0  0  0  0
   -2.5006    0.4124    0.0000 C   0  0  0  0  0  0  0  0  0  0  0  0
   -2.5006    1.2374    0.0000 C   0  0  0  0  0  0  0  0  0  0  0  0
   -1.7862    1.6500    0.0000 C   0  0  0  0  0  0  0  0  0  0  0  0
   -1.0717    1.2374    0.0000 C   0  0  0  0  0  0  0  0  0  0  0  0
   -1.0717    0.4124    0.0000 C   0  0  0  0  0  0  0  0  0  0  0  0
   -1.7862    0.0000    0.0000 C   0  0  0  0  0  0  0  0  0  0  0  0
   -0.3571    1.6500    0.0000 C   0  0  0  0  0  0  0  0  0  0  0  0
    0.3572    1.2374    0.0000 C   0  0  0  0  0  0  0  0  0  0  0  0
    0.3572    0.4124    0.0000 N   0  0  0  0  0  0  0  0  0  0  0  0
   -0.3571    0.0000    0.0000 C   0  0  0  0  0  0  0  0  0  0  0  0
   -0.3571   -0.8250    0.0000 C   0  0  0  0  0  0  0  0  0  0  0  0
   -0.3571    2.4749    0.0000 O   0  0  0  0  0  0  0  0  0  0  0  0
    1.0717    1.6500    0.0000 C   0  0  0  0  0  0  0  0  0  0  0  0
    1.7862    1.2374    0.0000 N   0  0  0  0  0  0  0  0  0  0  0  0
    2.5007    1.6500    0.0000 C   0  0  0  0  0  0  0  0  0  0  0  0
    3.2152    1.2374    0.0000 C   0  0  0  0  0  0  0  0  0  0  0  0
    3.9296    1.6500    0.0000 O   0  0  0  0  0  0  0  0  0  0  0  0
    1.0717    2.4749    0.0000 O   0  0  0  0  0  0  0  0  0  0  0  0
    3.2152    0.4124    0.0000 O   0  0  0  0  0  0  0  0  0  0  0  0
   -3.2151   -0.8250    0.0000 C   0  0  0  0  0  0  0  0  0  0  0  0
   -2.5007   -1.2375    0.0000 C   0  0  0  0  0  0  0  0  0  0  0  0
   -3.9296   -1.2375    0.0000 C   0  0  0  0  0  0  0  0  0  0  0  0
   -2.5008   -2.0625    0.0000 C   0  0  0  0  0  0  0  0  0  0  0  0
   -3.9296   -2.0624    0.0000 C   0  0  0  0  0  0  0  0  0  0  0  0
   -3.2152   -2.4749    0.0000 C   0  0  0  0  0  0  0  0  0  0  0  0
  1  2  1  0
  1 21  1  0
  2  3  2  0
  3  4  1  0
  4  5  2  0
  5  6  1  0
  5  8  1  0
  6  7  2  0
  7  2  1  0
  8  9  2  0
  8 13  1  0
  9 10  1  0
  9 14  1  0
 10 11  2  0
 11  6  1  0
 11 12  1  0
 14 15  1  0
 14 19  2  0
 15 16  1  0
 16 17  1  0
 17 18  1  0
 17 20  2  0
 22 21  2  0
 23 21  1  0
 24 22  1  0
 25 23  2  0
 26 24  2  0
 26 25  1  0
M  END
>  <DRUGBANK_ID>  (1) 
DB04847

>  <COMMON_NAME>  (1) 
Roxadustat

>  <CAS_NUMBER>  (1) 
808118-40-3

>  <UNII>  (1) 
X3O30D9YMX

>  <SYNONYMS>  (1) 
Roxadustat; Roxadustatum

$$$$
