
     RDKit          2D

 33 37  0  0  0  0  0  0  0  0999 V2000
    5.7745    2.9576    0.0000 O   0  0  0  0  0  0  0  0  0  0  0  0
    5.6350    1.6301    0.0000 O   0  0  0  0  0  0  0  0  0  0  0  0
    3.7935   -0.1305    0.0000 N   0  0  0  0  0  0  0  0  0  0  0  0
    3.7935   -1.7806    0.0000 N   0  0  0  0  0  0  0  0  0  0  0  0
    4.5080   -0.5430    0.0000 C   0  0  0  0  0  0  0  0  0  0  0  0
    3.0791   -0.5430    0.0000 C   0  0  0  0  0  0  0  0  0  0  0  0
    4.5080   -1.3680    0.0000 C   0  0  0  0  0  0  0  0  0  0  0  0
    3.0791   -1.3680    0.0000 C   0  0  0  0  0  0  0  0  0  0  0  0
    3.7935    0.6945    0.0000 C   0  0  0  0  0  0  0  0  0  0  0  0
    3.7935   -2.6056    0.0000 C   0  0  0  0  0  0  0  0  0  0  0  0
    4.5080    1.1070    0.0000 C   0  0  0  0  0  0  0  0  0  0  0  0
    4.5080    1.9320    0.0000 C   0  0  0  0  0  0  0  0  0  0  0  0
    5.2224    2.3445    0.0000 C   0  0  0  0  0  0  0  0  0  0  0  0
    4.5080   -3.0181    0.0000 C   0  0  0  0  0  0  0  0  0  0  0  0
    3.0791   -3.0181    0.0000 C   0  0  0  0  0  0  0  0  0  0  0  0
    4.6094    2.8966    0.0000 C   0  0  0  0  0  0  0  0  0  0  0  0
    6.5282    2.6221    0.0000 C   0  0  0  0  0  0  0  0  0  0  0  0
    6.4420    1.8016    0.0000 C   0  0  0  0  0  0  0  0  0  0  0  0
    5.2224   -2.6056    0.0000 C   0  0  0  0  0  0  0  0  0  0  0  0
    3.0791   -3.8431    0.0000 C   0  0  0  0  0  0  0  0  0  0  0  0
    4.5080   -3.8431    0.0000 C   0  0  0  0  0  0  0  0  0  0  0  0
    2.3645   -2.6056    0.0000 C   0  0  0  0  0  0  0  0  0  0  0  0
    3.8247    2.6416    0.0000 C   0  0  0  0  0  0  0  0  0  0  0  0
    4.7809    3.7036    0.0000 C   0  0  0  0  0  0  0  0  0  0  0  0
    5.9370   -3.0181    0.0000 C   0  0  0  0  0  0  0  0  0  0  0  0
    2.3645   -4.2556    0.0000 C   0  0  0  0  0  0  0  0  0  0  0  0
    5.2224   -4.2556    0.0000 C   0  0  0  0  0  0  0  0  0  0  0  0
    1.6500   -3.0181    0.0000 C   0  0  0  0  0  0  0  0  0  0  0  0
    3.2116    3.1936    0.0000 C   0  0  0  0  0  0  0  0  0  0  0  0
    4.1677    4.2556    0.0000 C   0  0  0  0  0  0  0  0  0  0  0  0
    5.9370   -3.8431    0.0000 C   0  0  0  0  0  0  0  0  0  0  0  0
    1.6500   -3.8431    0.0000 C   0  0  0  0  0  0  0  0  0  0  0  0
    3.3832    4.0007    0.0000 C   0  0  0  0  0  0  0  0  0  0  0  0
  1 13  1  0
  1 17  1  0
  2 13  1  0
  2 18  1  0
  3  5  1  0
  3  6  1  0
  3  9  1  0
  4  7  1  0
  4  8  1  0
  4 10  1  0
  5  7  1  0
  6  8  1  0
  9 11  1  0
 10 14  1  0
 10 15  1  0
 11 12  1  0
 12 13  1  0
 13 16  1  0
 14 19  2  0
 14 21  1  0
 15 20  2  0
 15 22  1  0
 16 23  2  0
 16 24  1  0
 17 18  1  0
 19 25  1  0
 20 26  1  0
 21 27  2  0
 22 28  2  0
 23 29  1  0
 24 30  2  0
 25 31  2  0
 26 32  2  0
 27 31  1  0
 28 32  1  0
 29 33  2  0
 30 33  1  0
M  END
>  <DRUGBANK_ID>  (1) 
DB06446

>  <COMMON_NAME>  (1) 
Dotarizine

>  <CAS_NUMBER>  (1) 
84625-59-2

>  <UNII>  (1) 
IO7663S6D3

>  <SYNONYMS>  (1) 
dotarizina; Dotarizine

$$$$
