
     RDKit          2D

 20 23  0  0  1  0  0  0  0  0999 V2000
    0.1572    0.5905    0.0000 C   0  0  0  0  0  0  0  0  0  0  0  0
    0.9110    0.2550    0.0000 N   0  0  0  0  0  0  0  0  0  0  0  0
    1.4630    0.8680    0.0000 C   0  0  0  0  0  0  0  0  0  0  0  0
    1.0505    1.5825    0.0000 C   0  0  0  0  0  0  0  0  0  0  0  0
    0.2436    1.4110    0.0000 N   0  0  0  0  0  0  0  0  0  0  0  0
    2.2880    0.8680    0.0000 C   0  0  0  0  0  0  0  0  0  0  0  0
    2.7005    1.5825    0.0000 C   0  0  0  0  0  0  0  0  0  0  0  0
    2.2880    2.2970    0.0000 C   0  0  0  0  0  0  0  0  0  0  0  0
    1.4630    2.2970    0.0000 C   0  0  0  0  0  0  0  0  0  0  0  0
   -0.5571    0.1780    0.0000 N   0  0  0  0  0  0  0  0  0  0  0  0
   -0.5571   -0.6469    0.0000 C   0  0  0  0  0  0  0  0  0  0  0  0
    0.1572   -1.0594    0.0000 C   0  0  0  0  0  0  0  0  0  0  0  0
    0.1572   -1.8845    0.0000 C   0  0  0  0  0  0  0  0  0  0  0  0
   -0.5571   -2.2969    0.0000 C   0  0  0  0  0  0  0  0  0  0  0  0
   -1.2715   -1.8845    0.0000 C   0  0  0  0  0  0  0  0  0  0  0  0
   -1.9861   -2.2969    0.0000 C   0  0  0  0  0  0  0  0  0  0  0  0
   -2.7005   -1.8845    0.0000 C   0  0  0  0  0  0  0  0  0  0  0  0
   -2.7005   -1.0594    0.0000 C   0  0  0  0  0  0  0  0  0  0  0  0
   -1.9861   -0.6469    0.0000 C   0  0  0  0  0  0  0  0  0  0  0  0
   -1.2715   -1.0594    0.0000 C   0  0  0  0  0  0  0  0  0  0  0  0
  1  2  2  0
  1  5  1  0
  1 10  1  0
  2  3  1  0
  3  4  2  0
  4  5  1  0
  6  7  2  0
  6  3  1  0
  7  8  1  0
  8  9  2  0
  9  4  1  0
 11 12  1  0
 11 20  1  0
 11 10  1  6
 12 13  1  0
 13 14  1  0
 14 15  1  0
 15 16  2  0
 15 20  1  0
 16 17  1  0
 17 18  2  0
 18 19  1  0
 19 20  2  0
M  END
>  <DRUGBANK_ID>  (1) 
DB16897

>  <COMMON_NAME>  (1) 
NS-8593

>  <CAS_NUMBER>  (1) 
875755-39-8

>  <UNII>  (1) 
STF2BZ33XF

$$$$
