
     RDKit          2D

 20 21  0  0  0  0  0  0  0  0999 V2000
    2.0367    3.5277    0.0000 C   0  0  0  0  0  0  0  0  0  0  0  0
    6.9987    1.4660    0.0000 C   0  0  0  0  0  0  0  0  0  0  0  0
    2.7512    3.1152    0.0000 C   0  0  0  0  0  0  0  0  0  0  0  0
    6.2140    1.2111    0.0000 C   0  0  0  0  0  0  0  0  0  0  0  0
    0.8839   -0.9817    0.0000 C   0  0  0  0  0  0  0  0  0  0  0  0
    1.7044   -1.0679    0.0000 C   0  0  0  0  0  0  0  0  0  0  0  0
    0.5484   -0.2280    0.0000 C   0  0  0  0  0  0  0  0  0  0  0  0
    2.1893   -0.4005    0.0000 C   0  0  0  0  0  0  0  0  0  0  0  0
    1.0333    0.4394    0.0000 C   0  0  0  0  0  0  0  0  0  0  0  0
    4.2032    2.0602    0.0000 C   0  0  0  0  0  0  0  0  0  0  0  0
    3.4186    1.8053    0.0000 C   0  0  0  0  0  0  0  0  0  0  0  0
    4.8163    1.5082    0.0000 C   0  0  0  0  0  0  0  0  0  0  0  0
    2.0837    1.8053    0.0000 C   0  0  0  0  0  0  0  0  0  0  0  0
    2.3387    1.0206    0.0000 C   0  0  0  0  0  0  0  0  0  0  0  0
    1.8538    0.3532    0.0000 N   0  0  0  0  0  0  0  0  0  0  0  0
    2.7512    2.2902    0.0000 N   0  0  0  0  0  0  0  0  0  0  0  0
    4.6448    0.7012    0.0000 O   0  0  0  0  0  0  0  0  0  0  0  0
    1.2991    2.0602    0.0000 O   0  0  0  0  0  0  0  0  0  0  0  0
    5.6010    1.7631    0.0000 O   0  0  0  0  0  0  0  0  0  0  0  0
    3.1637    1.0206    0.0000 S   0  0  0  0  0  0  0  0  0  0  0  0
  3  1  1  0
  4  2  1  0
  6  5  1  0
  7  5  1  0
  8  6  1  0
  9  7  1  0
 11 10  2  0
 12 10  1  0
 14 13  1  0
 15  8  1  0
 15  9  1  0
 15 14  1  0
 16  3  1  0
 16 11  1  0
 16 13  1  0
 17 12  2  0
 18 13  2  0
 19  4  1  0
 19 12  1  0
 20 11  1  0
 20 14  1  0
M  END
>  <DRUGBANK_ID>  (1) 
DB13202

>  <COMMON_NAME>  (1) 
Piprozolin

>  <CAS_NUMBER>  (1) 
17243-64-0

>  <UNII>  (1) 
7786W0VV8M

>  <SYNONYMS>  (1) 
(+-)-Piprozolin; Piprozolin; Piprozolina; Piprozoline; Piprozolinum

$$$$
