2IG
     RDKit          2D

 28 31  0  0  0  0  0  0  0  0999 V2000
    1.6167    0.1569    0.0000 C   0  0  0  0  0  0  0  0  0  0  0  0
    2.4237    0.3284    0.0000 N   0  0  0  0  0  0  0  0  0  0  0  0
    2.9757   -0.2846    0.0000 C   0  0  0  0  0  0  0  0  0  0  0  0
    2.7208   -1.0693    0.0000 N   0  0  0  0  0  0  0  0  0  0  0  0
    1.9138   -1.2408    0.0000 C   0  0  0  0  0  0  0  0  0  0  0  0
    1.3618   -0.6277    0.0000 C   0  0  0  0  0  0  0  0  0  0  0  0
    1.0647    0.7700    0.0000 N   0  0  0  0  0  0  0  0  0  0  0  0
    3.7827   -0.1131    0.0000 N   0  0  0  0  0  0  0  0  0  0  0  0
    1.6589   -2.0254    0.0000 C   0  0  0  0  0  0  0  0  0  0  0  0
    0.8519   -2.1969    0.0000 C   0  0  0  0  0  0  0  0  0  0  0  0
    0.2999   -1.5838    0.0000 C   0  0  0  0  0  0  0  0  0  0  0  0
   -0.5071   -1.7554    0.0000 C   0  0  0  0  0  0  0  0  0  0  0  0
   -1.0591   -1.1423    0.0000 C   0  0  0  0  0  0  0  0  0  0  0  0
   -0.8042   -0.3577    0.0000 C   0  0  0  0  0  0  0  0  0  0  0  0
    0.0028   -0.1861    0.0000 C   0  0  0  0  0  0  0  0  0  0  0  0
    0.5548   -0.7992    0.0000 C   0  0  0  0  0  0  0  0  0  0  0  0
   -1.4716    0.1273    0.0000 N   0  0  0  0  0  0  0  0  0  0  0  0
   -1.4716    0.9523    0.0000 C   0  0  0  0  0  0  0  0  0  0  0  0
   -0.7572    1.3648    0.0000 C   0  0  0  0  0  0  0  0  0  0  0  0
   -0.7572    2.1898    0.0000 C   0  0  0  0  0  0  0  0  0  0  0  0
   -0.0427    2.6023    0.0000 O   0  0  0  0  0  0  0  0  0  0  0  0
   -0.0427    3.4273    0.0000 C   0  0  0  0  0  0  0  0  0  0  0  0
   -2.9460   -0.1861    0.0000 C   0  0  0  0  0  0  0  0  0  0  0  0
   -2.1391   -0.3577    0.0000 C   0  0  0  0  0  0  0  0  0  0  0  0
   -1.8841   -1.1423    0.0000 C   0  0  0  0  0  0  0  0  0  0  0  0
   -2.4362   -1.7554    0.0000 C   0  0  0  0  0  0  0  0  0  0  0  0
   -3.2431   -1.5838    0.0000 C   0  0  0  0  0  0  0  0  0  0  0  0
   -3.4981   -0.7992    0.0000 C   0  0  0  0  0  0  0  0  0  0  0  0
  1  2  2  0
  1  6  1  0
  1  7  1  0
  2  3  1  0
  3  4  2  0
  3  8  1  0
  4  5  1  0
  5  6  2  0
  5  9  1  0
  6 16  1  0
  9 10  1  0
 11 12  2  0
 11 16  1  0
 12 13  1  0
 13 14  2  0
 13 25  1  0
 14 15  1  0
 14 17  1  0
 15 16  2  0
 17 18  1  0
 17 24  1  0
 18 19  1  0
 19 20  1  0
 20 21  1  0
 21 22  1  0
 23 24  1  0
 23 28  2  0
 24 25  2  0
 25 26  1  0
 26 27  2  0
 27 28  1  0
M  END
>  <DRUGBANK_ID>  (1) 
DB06967

>  <COMMON_NAME>  (1) 
6-ETHYL-5-[9-(3-METHOXYPROPYL)-9H-CARBAZOL-2-YL]PYRIMIDINE-2,4-DIAMINE

$$$$
