KY1
     RDKit          2D

 14 14  0  0  0  0  0  0  0  0999 V2000
    1.6098    0.6586    0.0000 C   0  0  0  0  0  0  0  0  0  0  0  0
    0.8953    0.2461    0.0000 C   0  0  0  0  0  0  0  0  0  0  0  0
   -0.5336   -0.5789    0.0000 C   0  0  0  0  0  0  0  0  0  0  0  0
   -1.2481   -0.9914    0.0000 C   0  0  0  0  0  0  0  0  0  0  0  0
   -1.9625   -0.5789    0.0000 C   0  0  0  0  0  0  0  0  0  0  0  0
   -1.9625    0.2461    0.0000 C   0  0  0  0  0  0  0  0  0  0  0  0
   -1.2481    0.6586    0.0000 C   0  0  0  0  0  0  0  0  0  0  0  0
   -0.5336    0.2461    0.0000 C   0  0  0  0  0  0  0  0  0  0  0  0
    2.3243    0.2461    0.0000 C   0  0  0  0  0  0  0  0  0  0  0  0
    3.0388    0.6586    0.0000 O   0  0  0  0  0  0  0  0  0  0  0  0
    2.3243   -0.5789    0.0000 O   0  0  0  0  0  0  0  0  0  0  0  0
    0.1809    0.6586    0.0000 C   0  0  0  0  0  0  0  0  0  0  0  0
    0.1809    1.4836    0.0000 O   0  0  0  0  0  0  0  0  0  0  0  0
    0.1809   -0.9914    0.0000 N   0  0  0  0  0  0  0  0  0  0  0  0
  1  2  1  0
  1  9  1  0
  2 12  1  0
  3  4  2  0
  3  8  1  0
  3 14  1  0
  4  5  1  0
  5  6  2  0
  6  7  1  0
  7  8  2  0
  8 12  1  0
  9 10  2  0
  9 11  1  0
 12 13  2  0
M  END
>  <DRUGBANK_ID>  (1) 
DB08060

>  <COMMON_NAME>  (1) 
4-(2-AMINOPHENYL)-4-OXOBUTANOIC ACID

>  <UNII>  (1) 
YU3DZ8UH2S

$$$$
