3BT
     RDKit          2D

 18 18  0  0  0  0  0  0  0  0999 V2000
   -1.2639   -1.2893    0.0000 C   0  0  0  0  0  0  0  0  0  0  0  0
   -0.5494   -0.8768    0.0000 C   0  0  0  0  0  0  0  0  0  0  0  0
   -1.9784   -3.3519    0.0000 N   0  0  0  0  0  0  0  0  0  0  0  0
   -2.6930   -2.1144    0.0000 N   0  0  0  0  0  0  0  0  0  0  0  0
   -1.9784   -2.5269    0.0000 C   0  0  0  0  0  0  0  0  0  0  0  0
   -1.2639   -2.1144    0.0000 S   0  0  0  0  0  0  0  0  0  0  0  0
    0.1651    1.1859    0.0000 C   0  0  0  0  0  0  0  0  0  0  0  0
    0.1651    0.3608    0.0000 C   0  0  0  0  0  0  0  0  0  0  0  0
   -0.5494   -0.0517    0.0000 C   0  0  0  0  0  0  0  0  0  0  0  0
   -1.2639    0.3608    0.0000 C   0  0  0  0  0  0  0  0  0  0  0  0
   -1.2639    1.1859    0.0000 C   0  0  0  0  0  0  0  0  0  0  0  0
   -0.5494    1.5984    0.0000 C   0  0  0  0  0  0  0  0  0  0  0  0
    1.5941    1.1859    0.0000 C   0  0  0  0  0  0  0  0  0  0  0  0
    0.8797    1.5984    0.0000 C   0  0  0  0  0  0  0  0  0  0  0  0
    3.7378    1.5984    0.0000 N   0  0  0  0  0  0  0  0  0  0  0  0
    3.0232    0.3608    0.0000 N   0  0  0  0  0  0  0  0  0  0  0  0
    3.0232    1.1859    0.0000 C   0  0  0  0  0  0  0  0  0  0  0  0
    2.3087    1.5984    0.0000 S   0  0  0  0  0  0  0  0  0  0  0  0
  1  2  1  0
  1  6  1  0
  2  9  1  0
  3  5  1  0
  4  5  2  0
  5  6  1  0
  7  8  2  0
  7 12  1  0
  7 14  1  0
  8  9  1  0
  9 10  2  0
 10 11  1  0
 11 12  2  0
 13 14  1  0
 13 18  1  0
 15 17  1  0
 16 17  2  0
 17 18  1  0
M  END
>  <DRUGBANK_ID>  (1) 
DB03910

>  <SECONDARY_ACCESSION_NUMBERS>  (1) 
EXPT00164

>  <COMMON_NAME>  (1) 
S,S'-(1,3-Phenylene-Bis(1,2-Ethanediyl))Bis-Isothiourea

$$$$
