N24
     RDKit          2D

 21 23  0  0  0  0  0  0  0  0999 V2000
    0.3017    0.8456    0.0000 C   0  0  0  0  0  0  0  0  0  0  0  0
    0.3017    1.6706    0.0000 C   0  0  0  0  0  0  0  0  0  0  0  0
    1.0161    2.0831    0.0000 Br  0  0  0  0  0  0  0  0  0  0  0  0
   -0.4128    2.0831    0.0000 C   0  0  0  0  0  0  0  0  0  0  0  0
   -1.1273    1.6706    0.0000 C   0  0  0  0  0  0  0  0  0  0  0  0
   -1.1273    0.8456    0.0000 C   0  0  0  0  0  0  0  0  0  0  0  0
   -0.4128    0.4331    0.0000 C   0  0  0  0  0  0  0  0  0  0  0  0
   -0.4128   -0.3919    0.0000 C   0  0  0  0  0  0  0  0  0  0  0  0
   -1.0802   -0.8768    0.0000 S   0  0  0  0  0  0  0  0  0  0  0  0
   -0.8253   -1.6614    0.0000 C   0  0  0  0  0  0  0  0  0  0  0  0
   -0.0003   -1.6614    0.0000 C   0  0  0  0  0  0  0  0  0  0  0  0
    0.4846   -2.3288    0.0000 O   0  0  0  0  0  0  0  0  0  0  0  0
    0.2546   -0.8768    0.0000 N   0  0  0  0  0  0  0  0  0  0  0  0
    1.0393   -0.6218    0.0000 C   0  0  0  0  0  0  0  0  0  0  0  0
    1.2108    0.1851    0.0000 C   0  0  0  0  0  0  0  0  0  0  0  0
    1.9954    0.4401    0.0000 C   0  0  0  0  0  0  0  0  0  0  0  0
    2.6085   -0.1120    0.0000 C   0  0  0  0  0  0  0  0  0  0  0  0
    2.4370   -0.9189    0.0000 C   0  0  0  0  0  0  0  0  0  0  0  0
    1.6524   -1.1739    0.0000 C   0  0  0  0  0  0  0  0  0  0  0  0
    1.4808   -1.9809    0.0000 O   0  0  0  0  0  0  0  0  0  0  0  0
    2.1669    1.2470    0.0000 Cl  0  0  0  0  0  0  0  0  0  0  0  0
  1  2  2  0
  1  7  1  0
  2  3  1  0
  2  4  1  0
  4  5  2  0
  5  6  1  0
  6  7  2  0
  8  7  1  1
  8  9  1  0
  8 13  1  0
  9 10  1  0
 10 11  1  0
 11 12  2  0
 11 13  1  0
 13 14  1  0
 14 15  2  0
 14 19  1  0
 15 16  1  0
 16 17  2  0
 16 21  1  0
 17 18  1  0
 18 19  2  0
 19 20  1  0
M  END
>  <DRUGBANK_ID>  (1) 
DB08236

>  <COMMON_NAME>  (1) 
(2S)-2-(3-bromophenyl)-3-(5-chloro-2-hydroxyphenyl)-1,3-thiazolidin-4-one

$$$$
