PG5
     RDKit          2D

 12 11  0  0  0  0  0  0  0  0999 V2000
   -3.8810   -0.2062    0.0000 C   0  0  0  0  0  0  0  0  0  0  0  0
   -3.1666    0.2063    0.0000 O   0  0  0  0  0  0  0  0  0  0  0  0
   -2.4522   -0.2062    0.0000 C   0  0  0  0  0  0  0  0  0  0  0  0
   -1.7377    0.2063    0.0000 C   0  0  0  0  0  0  0  0  0  0  0  0
   -1.0232   -0.2062    0.0000 O   0  0  0  0  0  0  0  0  0  0  0  0
   -0.3088    0.2062    0.0000 C   0  0  0  0  0  0  0  0  0  0  0  0
    0.4056   -0.2063    0.0000 C   0  0  0  0  0  0  0  0  0  0  0  0
    1.1201    0.2062    0.0000 O   0  0  0  0  0  0  0  0  0  0  0  0
    1.8346   -0.2063    0.0000 C   0  0  0  0  0  0  0  0  0  0  0  0
    2.5491    0.2062    0.0000 C   0  0  0  0  0  0  0  0  0  0  0  0
    3.2635   -0.2063    0.0000 O   0  0  0  0  0  0  0  0  0  0  0  0
    3.9780    0.2062    0.0000 C   0  0  0  0  0  0  0  0  0  0  0  0
  1  2  1  0
  2  3  1  0
  3  4  1  0
  4  5  1  0
  5  6  1  0
  6  7  1  0
  7  8  1  0
  8  9  1  0
  9 10  1  0
 10 11  1  0
 11 12  1  0
M  END
>  <DRUGBANK_ID>  (1) 
DB02078

>  <SECONDARY_ACCESSION_NUMBERS>  (1) 
EXPT02565

>  <COMMON_NAME>  (1) 
Triglyme

>  <CAS_NUMBER>  (1) 
112-49-2

>  <UNII>  (1) 
32YXG88KK0

>  <SYNONYMS>  (1) 
1-methoxy-2-[2-(2-methoxyethoxy)ethoxy]ethane; 1,2-bis(2-methoxyethoxy)ethane; dimethyl ether of triethylene glycol; Glyme 4

$$$$
