AEH
     RDKit          2D

 12 12  0  0  0  0  0  0  0  0999 V2000
   -1.6789    0.3609    0.0000 C   0  0  0  0  0  0  0  0  0  0  0  0
    0.4646   -0.0516    0.0000 C   0  0  0  0  0  0  0  0  0  0  0  0
   -0.2499   -1.2891    0.0000 C   0  0  0  0  0  0  0  0  0  0  0  0
   -2.3933   -0.0516    0.0000 C   0  0  0  0  0  0  0  0  0  0  0  0
    1.1790    0.3609    0.0000 C   0  0  0  0  0  0  0  0  0  0  0  0
    2.6080    0.3609    0.0000 N   0  0  0  0  0  0  0  0  0  0  0  0
   -1.6789   -1.2891    0.0000 O   0  0  0  0  0  0  0  0  0  0  0  0
   -0.9644   -0.8766    0.0000 C   0  0  0  0  0  0  0  0  0  0  0  0
    0.4646   -0.8766    0.0000 C   0  0  0  0  0  0  0  0  0  0  0  0
    1.8935   -0.0516    0.0000 C   0  0  0  0  0  0  0  0  0  0  0  0
   -0.2499    0.3609    0.0000 C   0  0  0  0  0  0  0  0  0  0  0  0
   -0.9644   -0.0516    0.0000 C   0  0  0  0  0  0  0  0  0  0  0  0
  1  4  1  0
  1 12  1  0
  2  5  1  0
  2  9  2  0
  2 11  1  0
  3  8  2  0
  3  9  1  0
  5 10  1  0
  6 10  1  0
  7  8  1  0
  8 12  1  0
 11 12  2  0
M  END
>  <DRUGBANK_ID>  (1) 
DB07346

>  <COMMON_NAME>  (1) 
4-(2-aminoethyl)-2-ethylphenol

$$$$
