P5C
     RDKit          2D

 25 27  0  0  0  0  0  0  0  0999 V2000
   -1.2917   -0.1365    0.0000 C   0  0  0  0  0  0  0  0  0  0  0  0
   -2.0062   -1.3740    0.0000 C   0  0  0  0  0  0  0  0  0  0  0  0
   -0.5772   -0.5490    0.0000 N   0  0  0  0  0  0  0  0  0  0  0  0
   -1.2917   -1.7865    0.0000 C   0  0  0  0  0  0  0  0  0  0  0  0
   -0.5772   -1.3740    0.0000 C   0  0  0  0  0  0  0  0  0  0  0  0
   -1.2917   -2.6115    0.0000 C   0  0  0  0  0  0  0  0  0  0  0  0
    0.8517   -1.3740    0.0000 C   0  0  0  0  0  0  0  0  0  0  0  0
    0.8517   -0.5490    0.0000 C   0  0  0  0  0  0  0  0  0  0  0  0
    2.2807   -0.5490    0.0000 C   0  0  0  0  0  0  0  0  0  0  0  0
    2.2807   -1.3740    0.0000 C   0  0  0  0  0  0  0  0  0  0  0  0
    1.5662   -0.1365    0.0000 C   0  0  0  0  0  0  0  0  0  0  0  0
    1.5662   -1.7865    0.0000 C   0  0  0  0  0  0  0  0  0  0  0  0
    2.9951   -1.7865    0.0000 C   0  0  0  0  0  0  0  0  0  0  0  0
   -2.0062   -3.0240    0.0000 O   0  0  0  0  0  0  0  0  0  0  0  0
   -0.5772   -3.0240    0.0000 N   0  0  0  0  0  0  0  0  0  0  0  0
    0.1373   -1.7865    0.0000 N   0  0  0  0  0  0  0  0  0  0  0  0
   -2.0062   -0.5490    0.0000 N   0  0  0  0  0  0  0  0  0  0  0  0
   -1.2917    0.6885    0.0000 N   0  0  0  0  0  0  0  0  0  0  0  0
   -0.5772    1.1010    0.0000 C   0  0  0  0  0  0  0  0  0  0  0  0
   -0.5772    1.9260    0.0000 C   0  0  0  0  0  0  0  0  0  0  0  0
   -1.2917    2.3385    0.0000 N   0  0  0  0  0  0  0  0  0  0  0  0
    0.1373    2.3385    0.0000 C   0  0  0  0  0  0  0  0  0  0  0  0
    0.8517    1.9260    0.0000 C   0  0  0  0  0  0  0  0  0  0  0  0
    0.8517    1.1010    0.0000 C   0  0  0  0  0  0  0  0  0  0  0  0
    0.1373    0.6885    0.0000 C   0  0  0  0  0  0  0  0  0  0  0  0
  1  3  1  0
  1 17  2  0
  1 18  1  0
  2  4  2  0
  2 17  1  0
  3  5  2  0
  4  5  1  0
  4  6  1  0
  5 16  1  0
  6 14  2  0
  6 15  1  0
  7  8  2  0
  7 12  1  0
  7 16  1  0
  8 11  1  0
  9 10  1  0
  9 11  2  0
 10 12  2  0
 10 13  1  0
 19 18  1  1
 19 20  1  0
 19 25  1  0
 20 21  1  1
 20 22  1  0
 22 23  1  0
 23 24  1  0
 24 25  1  0
M  END
>  <DRUGBANK_ID>  (1) 
DB08361

>  <COMMON_NAME>  (1) 
2-{[(1R,2S)-2-aminocyclohexyl]amino}-4-[(3-methylphenyl)amino]pyrimidine-5-carboxamide

$$$$
