
     RDKit          2D

 22 24  0  0  0  0  0  0  0  0999 V2000
   -3.1895   -0.9817    0.0000 C   0  0  0  0  0  0  0  0  0  0  0  0
   -2.3690   -1.0679    0.0000 C   0  0  0  0  0  0  0  0  0  0  0  0
   -3.5251   -0.2280    0.0000 C   0  0  0  0  0  0  0  0  0  0  0  0
   -1.8841   -0.4005    0.0000 C   0  0  0  0  0  0  0  0  0  0  0  0
   -3.0401    0.4394    0.0000 C   0  0  0  0  0  0  0  0  0  0  0  0
   -0.6078    3.5277    0.0000 C   0  0  0  0  0  0  0  0  0  0  0  0
   -2.0367    3.5277    0.0000 C   0  0  0  0  0  0  0  0  0  0  0  0
   -0.6078    4.3527    0.0000 C   0  0  0  0  0  0  0  0  0  0  0  0
   -2.0367    4.3527    0.0000 C   0  0  0  0  0  0  0  0  0  0  0  0
    0.1298    2.0602    0.0000 C   0  0  0  0  0  0  0  0  0  0  0  0
   -1.3222    3.1152    0.0000 C   0  0  0  0  0  0  0  0  0  0  0  0
   -2.2197    0.3532    0.0000 C   0  0  0  0  0  0  0  0  0  0  0  0
   -1.3222    4.7652    0.0000 C   0  0  0  0  0  0  0  0  0  0  0  0
   -0.6548    1.8053    0.0000 C   0  0  0  0  0  0  0  0  0  0  0  0
    0.7429    1.5082    0.0000 C   0  0  0  0  0  0  0  0  0  0  0  0
   -1.3222    2.2902    0.0000 C   0  0  0  0  0  0  0  0  0  0  0  0
   -1.7347    1.0206    0.0000 C   0  0  0  0  0  0  0  0  0  0  0  0
   -1.3222    5.5902    0.0000 Cl  0  0  0  0  0  0  0  0  0  0  0  0
   -1.9897    1.8053    0.0000 N   0  0  0  0  0  0  0  0  0  0  0  0
    0.5714    0.7012    0.0000 O   0  0  0  0  0  0  0  0  0  0  0  0
    1.5275    1.7631    0.0000 O   0  0  0  0  0  0  0  0  0  0  0  0
   -0.9097    1.0206    0.0000 S   0  0  0  0  0  0  0  0  0  0  0  0
  2  1  2  0
  3  1  1  0
  4  2  1  0
  5  3  2  0
  8  6  2  0
  9  7  1  0
 11  6  1  0
 11  7  2  0
 12  4  2  0
 12  5  1  0
 13  8  1  0
 13  9  2  0
 14 10  1  0
 15 10  1  0
 16 11  1  0
 16 14  2  0
 17 12  1  0
 18 13  1  0
 19 16  1  0
 19 17  2  0
 20 15  2  0
 21 15  1  0
 22 14  1  0
 22 17  1  0
M  END
>  <DRUGBANK_ID>  (1) 
DB13217

>  <COMMON_NAME>  (1) 
Fentiazac

>  <CAS_NUMBER>  (1) 
18046-21-4

>  <UNII>  (1) 
0YHF6E6NLS

>  <SYNONYMS>  (1) 
4-(4-Chlorophenyl)-2-phenyl-5-thiazoleacetic acid; 4-(p-Chlorophenyl)-2-phenyl-5-thiazoleacetic acid; Fentiazac; Fentiazaco; Fentiazacum

$$$$
