
     RDKit          2D

 16 16  0  0  0  0  0  0  0  0999 V2000
    1.7862   -0.4125    0.0000 C   0  0  0  0  0  0  0  0  0  0  0  0
    1.7862    0.4125    0.0000 C   0  0  0  0  0  0  0  0  0  0  0  0
    1.0717    0.8250    0.0000 O   0  0  0  0  0  0  0  0  0  0  0  0
    1.0717   -0.8250    0.0000 C   0  0  0  0  0  0  0  0  0  0  0  0
    0.3572    0.4125    0.0000 C   0  0  0  0  0  0  0  0  0  0  0  0
    0.3572   -0.4125    0.0000 C   0  0  0  0  0  0  0  0  0  0  0  0
    2.5006    0.8250    0.0000 O   0  0  0  0  0  0  0  0  0  0  0  0
    2.5006   -0.8250    0.0000 O   0  0  0  0  0  0  0  0  0  0  0  0
    1.0717   -1.6500    0.0000 O   0  0  0  0  0  0  0  0  0  0  0  0
   -0.3571   -0.8250    0.0000 O   0  0  0  0  0  0  0  0  0  0  0  0
   -0.3571    0.8250    0.0000 C   0  0  0  0  0  0  0  0  0  0  0  0
   -1.0716    0.4125    0.0000 O   0  0  0  0  0  0  0  0  0  0  0  0
   -1.7861    1.6500    0.0000 O   0  0  0  0  0  0  0  0  0  0  0  0
   -2.5006    0.4125    0.0000 O   0  0  0  0  0  0  0  0  0  0  0  0
   -1.7861    0.8250    0.0000 P   0  0  0  0  0  0  0  0  0  0  0  0
   -1.7861    0.0000    0.0000 O   0  0  0  0  0  0  0  0  0  0  0  0
  1  8  1  6
  1  4  1  0
  2  1  1  0
  2  7  1  1
  2  3  1  0
  4  9  1  1
  4  6  1  0
  5  3  1  0
  5 11  1  1
  6  5  1  0
  6 10  1  6
 12 11  1  0
 12 15  1  0
 13 15  2  0
 14 15  1  0
 15 16  1  0
M  END
>  <DRUGBANK_ID>  (1) 
DB04122

>  <SECONDARY_ACCESSION_NUMBERS>  (1) 
EXPT00684

>  <COMMON_NAME>  (1) 
beta-D-glucose 6-phosphate

>  <CAS_NUMBER>  (1) 
15209-12-8

>  <UNII>  (1) 
G6FRT62N3J

>  <SYNONYMS>  (1) 
6-H2PO3Glcβ; 6-O-phosphono-β-D-glucopyranose; beta-D-glucose 6-(dihydrogen phosphate); beta-D-Glucose 6-phosphic acid; beta-D-glucose-6-phosphate; β-D-glucose 6-phosphate

$$$$
