
     RDKit          2D

 21 22  0  0  1  0  0  0  0  0999 V2000
   -0.6548    1.8053    0.0000 C   0  0  0  0  0  0  0  0  0  0  0  0
   -0.7604   -0.4005    0.0000 C   0  0  0  0  0  0  0  0  0  0  0  0
   -2.7743    2.0602    0.0000 C   0  0  0  0  0  0  0  0  0  0  0  0
   -0.2754   -1.0679    0.0000 C   0  0  0  0  0  0  0  0  0  0  0  0
   -1.3222    2.2902    0.0000 C   0  0  0  0  0  0  0  0  0  0  0  0
   -1.9897    1.8053    0.0000 C   0  0  0  0  0  0  0  0  0  0  0  0
   -0.9097    1.0206    0.0000 C   0  0  0  0  0  0  0  0  0  0  0  0
    0.5450   -0.9817    0.0000 C   0  0  0  0  0  0  0  0  0  0  0  0
    0.3957    0.4394    0.0000 C   0  0  0  0  0  0  0  0  0  0  0  0
   -0.6110   -1.8216    0.0000 I   0  0  0  0  0  0  0  0  0  0  0  0
    0.8806   -0.2280    0.0000 N   0  0  0  0  0  0  0  0  0  0  0  0
   -0.4248    0.3532    0.0000 N   0  0  0  0  0  0  0  0  0  0  0  0
   -1.3222    3.1152    0.0000 O   0  0  0  0  0  0  0  0  0  0  0  0
    1.0300   -1.6491    0.0000 O   0  0  0  0  0  0  0  0  0  0  0  0
    0.7312    1.1931    0.0000 O   0  0  0  0  0  0  0  0  0  0  0  0
   -4.5151    3.3770    0.0000 O   0  0  0  0  0  0  0  0  0  0  0  0
   -3.4755    3.9067    0.0000 O   0  0  0  0  0  0  0  0  0  0  0  0
   -3.9854    2.3375    0.0000 O   0  0  0  0  0  0  0  0  0  0  0  0
   -2.9458    2.8672    0.0000 O   0  0  0  0  0  0  0  0  0  0  0  0
   -1.7347    1.0206    0.0000 O   0  0  0  0  0  0  0  0  0  0  0  0
   -3.7304    3.1221    0.0000 P   0  0  0  0  0  0  0  0  0  0  0  0
  4  2  2  0
  5  1  1  0
  5 13  1  1
  6  3  1  6
  6  5  1  0
  7  1  1  0
  7 12  1  6
  8  4  1  0
 10  4  1  0
 11  8  1  0
 11  9  1  0
 12  2  1  0
 12  9  1  0
 14  8  2  0
 15  9  2  0
 19  3  1  0
 20  6  1  0
 20  7  1  0
 21 16  1  0
 21 17  1  0
 21 18  2  0
 21 19  1  0
M  END
>  <DRUGBANK_ID>  (1) 
DB02324

>  <SECONDARY_ACCESSION_NUMBERS>  (1) 
EXPT00249

>  <COMMON_NAME>  (1) 
5-Iodo-2'-Deoxyuridine-5'-Monophosphate

$$$$
