
     RDKit          2D

 30 30  0  0  0  0  0  0  0  0999 V2000
    3.5710   -5.5291    0.0000 O   0  0  0  0  0  0  0  0  0  0  0  0
    3.5721   -4.7041    0.0000 C   0  0  0  0  0  0  0  0  0  0  0  0
    4.1440   -4.3751    0.0000 O   0  0  0  0  0  0  0  0  0  0  0  0
    2.8584   -4.2900    0.0000 C   0  0  0  0  0  0  0  0  0  0  0  0
    2.2865   -4.6188    0.0000 O   0  0  0  0  0  0  0  0  0  0  0  0
    2.8596   -3.4650    0.0000 N   0  0  0  0  0  0  0  0  0  0  0  0
    2.1459   -3.0509    0.0000 C   0  0  0  0  0  0  0  0  0  0  0  0
    2.1459   -2.2264    0.0000 C   0  0  0  0  0  0  0  0  0  0  0  0
    1.4318   -1.8140    0.0000 C   0  0  0  0  0  0  0  0  0  0  0  0
    0.7177   -2.2264    0.0000 C   0  0  0  0  0  0  0  0  0  0  0  0
    0.7177   -3.0509    0.0000 C   0  0  0  0  0  0  0  0  0  0  0  0
    1.4318   -3.4633    0.0000 C   0  0  0  0  0  0  0  0  0  0  0  0
    0.0031   -1.8138    0.0000 C   0  0  0  0  0  0  0  0  0  0  0  0
    0.0025   -0.9888    0.0000 C   0  0  0  0  0  0  0  0  0  0  0  0
   -0.7119   -0.5762    0.0000 N   0  0  0  0  0  0  0  0  0  0  0  0
   -0.7125    0.2488    0.0000 C   0  0  0  0  0  0  0  0  0  0  0  0
   -0.1412    0.5788    0.0000 O   0  0  0  0  0  0  0  0  0  0  0  0
   -1.4269    0.6613    0.0000 C   0  0  0  0  0  0  0  0  0  0  0  0
   -1.4275    1.4864    0.0000 N   0  0  0  0  0  0  0  0  0  0  0  0
   -2.1420    1.8989    0.0000 C   0  0  0  0  0  0  0  0  0  0  0  0
   -2.7132    1.5689    0.0000 O   0  0  0  0  0  0  0  0  0  0  0  0
   -2.1426    2.7240    0.0000 C   0  0  0  0  0  0  0  0  0  0  0  0
   -2.8571    3.1365    0.0000 C   0  0  0  0  0  0  0  0  0  0  0  0
   -2.8576    3.9616    0.0000 N   0  0  0  0  0  0  0  0  0  0  0  0
   -3.5722    4.3742    0.0000 C   0  0  0  0  0  0  0  0  0  0  0  0
   -4.1433    4.0441    0.0000 O   0  0  0  0  0  0  0  0  0  0  0  0
   -3.5727    5.1993    0.0000 C   0  0  0  0  0  0  0  0  0  0  0  0
   -4.1440    5.5291    0.0000 Br  0  0  0  0  0  0  0  0  0  0  0  0
   -2.1414    0.2486    0.0000 C   0  0  0  0  0  0  0  0  0  0  0  0
   -2.8562    0.6604    0.0000 O   0  0  0  0  0  0  0  0  0  0  0  0
  2  1  1  0
  2  3  2  0
  4  2  1  0
  4  5  2  0
  4  6  1  0
  7  6  1  0
  7  8  2  0
  8  9  1  0
 10  9  2  0
 10 11  1  0
 11 12  2  0
 12  7  1  0
 13 10  1  0
 14 13  1  0
 14 15  1  0
 16 15  1  0
 16 17  2  0
 18 16  1  0
 18 19  1  0
 18 29  1  6
 20 19  1  0
 20 21  2  0
 22 20  1  0
 23 22  1  0
 23 24  1  0
 25 24  1  0
 25 26  2  0
 27 25  1  0
 28 27  1  0
 29 30  1  0
M  END
>  <DRUGBANK_ID>  (1) 
DB02784

>  <SECONDARY_ACCESSION_NUMBERS>  (1) 
EXPT01429

>  <COMMON_NAME>  (1) 
N-(Bromoacetyl)-beta-alanyl-N-(2-{4-[(carboxycarbonyl)amino]phenyl}ethyl)-L-serinamide

>  <SYNONYMS>  (1) 
2-[4-[2-[[(2S)-2-[3-[(2-bromoacetyl)amino]propanoylamino]-3-hydroxypropanoyl]amino]ethyl]anilino]-2-oxoacetic acid; N-(Bromoacetyl)-Î²-alanyl-N-(2-{4-[(carboxycarbonyl)amino]phenyl}ethyl)-L-serinamide

$$$$
