
     RDKit          2D

 34 36  0  0  0  0  0  0  0  0999 V2000
    2.0617    0.6774    0.0000 C   0  0  0  0  0  0  0  0  0  0  0  0
    1.4811    0.0933    0.0000 C   0  0  0  0  0  0  0  0  0  0  0  0
    2.0617    1.5054    0.0000 C   0  0  0  0  0  0  0  0  0  0  0  0
    2.8004    0.2994    0.0000 C   0  0  0  0  0  0  0  0  0  0  0  0
    2.0582   -0.1436    0.0000 C   0  0  0  0  0  0  0  0  0  0  0  0
    0.6531    0.0933    0.0000 C   0  0  0  0  0  0  0  0  0  0  0  0
    1.8521   -0.6454    0.0000 C   0  0  0  0  0  0  0  0  0  0  0  0
    1.4811    2.0894    0.0000 C   0  0  0  0  0  0  0  0  0  0  0  0
    2.8244    1.8215    0.0000 C   0  0  0  0  0  0  0  0  0  0  0  0
    2.6697   -0.5182    0.0000 C   0  0  0  0  0  0  0  0  0  0  0  0
    1.2744   -0.1638    0.0000 C   0  0  0  0  0  0  0  0  0  0  0  0
    0.0690    0.6808    0.0000 C   0  0  0  0  0  0  0  0  0  0  0  0
    0.6496   -0.7312    0.0000 C   0  0  0  0  0  0  0  0  0  0  0  0
    0.1526   -0.4494    0.0000 C   0  0  0  0  0  0  0  0  0  0  0  0
    1.4776   -1.3806    0.0000 O   0  0  0  0  0  0  0  0  0  0  0  0
    0.6531    2.0894    0.0000 C   0  0  0  0  0  0  0  0  0  0  0  0
    1.7937    2.8522    0.0000 O   0  0  0  0  0  0  0  0  0  0  0  0
    0.0690    1.5054    0.0000 C   0  0  0  0  0  0  0  0  0  0  0  0
   -0.6970    0.3612    0.0000 O   0  0  0  0  0  0  0  0  0  0  0  0
   -0.0524   -0.9744    0.0000 C   0  0  0  0  0  0  0  0  0  0  0  0
   -1.4116    0.7770    0.0000 C   0  0  0  0  0  0  0  0  0  0  0  0
   -2.1264    0.3612    0.0000 C   0  0  0  0  0  0  0  0  0  0  0  0
   -1.4151    1.6016    0.0000 O   0  0  0  0  0  0  0  0  0  0  0  0
   -2.1184   -0.4653    0.0000 S   0  0  0  0  0  0  0  0  0  0  0  0
   -2.8244   -0.8804    0.0000 C   0  0  0  0  0  0  0  0  0  0  0  0
   -2.8182   -1.7006    0.0000 C   0  0  0  0  0  0  0  0  0  0  0  0
   -2.1037   -2.1037    0.0000 N   0  0  0  0  0  0  0  0  0  0  0  0
   -2.0975   -2.9240    0.0000 C   0  0  0  0  0  0  0  0  0  0  0  0
   -1.3830   -3.3270    0.0000 C   0  0  0  0  0  0  0  0  0  0  0  0
   -1.3955   -1.6864    0.0000 C   0  0  0  0  0  0  0  0  0  0  0  0
   -0.6800   -2.0912    0.0000 C   0  0  0  0  0  0  0  0  0  0  0  0
   -0.0613    2.5020    0.0000 C   0  0  0  0  0  0  0  0  0  0  0  0
   -0.0613    3.3270    0.0000 C   0  0  0  0  0  0  0  0  0  0  0  0
    0.8723    2.8879    0.0000 C   0  0  0  0  0  0  0  0  0  0  0  0
  1  2  1  0
  1  3  1  0
  1  4  1  6
  1  5  1  0
  2  6  1  0
  2  7  1  1
  3  8  1  0
  3  9  1  6
  4 10  1  0
  6 12  1  0
  6 13  1  0
  6 14  1  6
  7 15  2  0
  7 10  1  0
  8 16  1  0
  8 17  1  1
 11 13  1  0
 11  5  1  0
 12 18  1  0
 12 19  1  6
 13 20  1  1
 16 18  1  0
 16 32  1  0
 16 34  1  6
 19 21  1  0
 21 22  1  0
 21 23  2  0
 22 24  1  0
 24 25  1  0
 25 26  1  0
 26 27  1  0
 27 28  1  0
 27 30  1  0
 28 29  1  0
 30 31  1  0
 32 33  2  0
M  END
>  <DRUGBANK_ID>  (1) 
DB11468

>  <COMMON_NAME>  (1) 
Tiamulin

>  <CAS_NUMBER>  (1) 
55297-95-5

>  <UNII>  (1) 
E38WZ4U54R

>  <SYNONYMS>  (1) 
Tiamulin; Tiamulina; Tiamuline; Tiamulinum

$$$$
