
     RDKit          2D

 16 16  0  0  0  0  0  0  0  0999 V2000
   -0.3297   -0.8227    0.0000 C   0  0  0  0  0  0  0  0  0  0  0  0
   -1.4974    0.3323    0.0000 C   0  0  0  0  0  0  0  0  0  0  0  0
   -0.8843    0.8843    0.0000 C   0  0  0  0  0  0  0  0  0  0  0  0
    1.2352    0.6294    0.0000 C   0  0  0  0  0  0  0  0  0  0  0  0
    0.1553   -0.1553    0.0000 C   0  0  0  0  0  0  0  0  0  0  0  0
    0.5678    1.1143    0.0000 C   0  0  0  0  0  0  0  0  0  0  0  0
   -3.5082   -0.5169    0.0000 N   0  0  0  0  0  0  0  0  0  0  0  0
    0.9803   -0.1553    0.0000 N   0  0  0  0  0  0  0  0  0  0  0  0
   -2.2820    0.5872    0.0000 N   0  0  0  0  0  0  0  0  0  0  0  0
   -0.0997    0.6294    0.0000 N   0  0  0  0  0  0  0  0  0  0  0  0
    0.5678    1.9393    0.0000 N   0  0  0  0  0  0  0  0  0  0  0  0
   -0.1467    2.3518    0.0000 O   0  0  0  0  0  0  0  0  0  0  0  0
    1.2822    2.3518    0.0000 O   0  0  0  0  0  0  0  0  0  0  0  0
   -2.3431   -0.5779    0.0000 O   0  0  0  0  0  0  0  0  0  0  0  0
   -3.4471    0.6483    0.0000 O   0  0  0  0  0  0  0  0  0  0  0  0
   -2.8951    0.0352    0.0000 S   0  0  0  0  0  0  0  0  0  0  0  0
  3  2  1  0
  5  1  1  0
  6  4  2  0
  8  4  1  0
  8  5  2  0
  9  2  1  0
 10  3  1  0
 10  5  1  0
 10  6  1  0
 11  6  1  0
 12 11  1  0
 13 11  2  0
 16  7  1  0
 16  9  1  0
 16 14  2  0
 16 15  2  0
M  CHG  2  11   1  12  -1
M  END
>  <DRUGBANK_ID>  (1) 
DB12741

>  <COMMON_NAME>  (1) 
DTP-348

>  <CAS_NUMBER>  (1) 
1383370-92-0

>  <UNII>  (1) 
2HB46A9CNM

$$$$
