77A
     RDKit          2D

 26 27  0  0  0  0  0  0  0  0999 V2000
   -3.4446    0.8049    0.0000 N   0  0  0  0  0  0  0  0  0  0  0  0
   -4.1591    0.3924    0.0000 C   0  0  0  0  0  0  0  0  0  0  0  0
   -4.1591   -0.4326    0.0000 C   0  0  0  0  0  0  0  0  0  0  0  0
   -4.8736   -0.8451    0.0000 C   0  0  0  0  0  0  0  0  0  0  0  0
   -5.5880   -0.4326    0.0000 C   0  0  0  0  0  0  0  0  0  0  0  0
   -5.5880    0.3924    0.0000 C   0  0  0  0  0  0  0  0  0  0  0  0
   -4.8736    0.8049    0.0000 C   0  0  0  0  0  0  0  0  0  0  0  0
   -4.8736    1.6299    0.0000 O   0  0  0  0  0  0  0  0  0  0  0  0
   -5.5880    2.0424    0.0000 C   0  0  0  0  0  0  0  0  0  0  0  0
   -4.8736   -1.6701    0.0000 Cl  0  0  0  0  0  0  0  0  0  0  0  0
   -2.7301    0.3924    0.0000 C   0  0  0  0  0  0  0  0  0  0  0  0
   -2.7301   -0.4326    0.0000 O   0  0  0  0  0  0  0  0  0  0  0  0
   -2.0157    0.8049    0.0000 N   0  0  0  0  0  0  0  0  0  0  0  0
   -1.3012    0.3924    0.0000 C   0  0  0  0  0  0  0  0  0  0  0  0
   -0.5867    0.8049    0.0000 N   0  0  0  0  0  0  0  0  0  0  0  0
    0.1277    0.3924    0.0000 C   0  0  0  0  0  0  0  0  0  0  0  0
    0.1277   -0.4326    0.0000 C   0  0  0  0  0  0  0  0  0  0  0  0
   -0.5867   -0.8451    0.0000 N   0  0  0  0  0  0  0  0  0  0  0  0
   -1.3012   -0.4326    0.0000 C   0  0  0  0  0  0  0  0  0  0  0  0
    0.8422    0.8049    0.0000 O   0  0  0  0  0  0  0  0  0  0  0  0
    1.5567    0.3924    0.0000 C   0  0  0  0  0  0  0  0  0  0  0  0
    2.2712    0.8049    0.0000 C   0  0  0  0  0  0  0  0  0  0  0  0
    2.9856    0.3924    0.0000 N   0  0  0  0  0  0  0  0  0  0  0  0
    3.7001    0.8049    0.0000 C   0  0  0  0  0  0  0  0  0  0  0  0
    1.5567   -0.4326    0.0000 C   0  0  0  0  0  0  0  0  0  0  0  0
    2.9856   -0.4326    0.0000 C   0  0  0  0  0  0  0  0  0  0  0  0
  1 11  1  0
  1  2  1  0
  2  3  2  0
  2  7  1  0
  3  4  1  0
  4 10  1  0
  4  5  2  0
  5  6  1  0
  6  7  2  0
  7  8  1  0
  8  9  1  0
 11 12  2  0
 11 13  1  0
 13 14  1  0
 14 15  2  0
 14 19  1  0
 15 16  1  0
 16 20  1  0
 16 17  2  0
 17 18  1  0
 18 19  2  0
 20 21  1  0
 21 25  1  6
 21 22  1  0
 22 23  1  0
 23 26  1  0
 23 24  1  0
M  END
>  <DRUGBANK_ID>  (1) 
DB07228

>  <COMMON_NAME>  (1) 
1-(5-CHLORO-2-METHOXYPHENYL)-3-{6-[2-(DIMETHYLAMINO)-1-METHYLETHOXY]PYRAZIN-2-YL}UREA

$$$$
