
     RDKit          2D

 10 10  0  0  0  0  0  0  0  0999 V2000
   -1.0717    0.2062    0.0000 C   0  0  0  0  0  0  0  0  0  0  0  0
   -0.3571    0.6187    0.0000 C   0  0  0  0  0  0  0  0  0  0  0  0
   -1.0717   -0.6187    0.0000 C   0  0  0  0  0  0  0  0  0  0  0  0
   -0.3571   -1.0313    0.0000 C   0  0  0  0  0  0  0  0  0  0  0  0
    0.3573   -0.6187    0.0000 C   0  0  0  0  0  0  0  0  0  0  0  0
    0.3573    0.2062    0.0000 C   0  0  0  0  0  0  0  0  0  0  0  0
   -0.3571   -1.8562    0.0000 Cl  0  0  0  0  0  0  0  0  0  0  0  0
   -0.3571    1.4437    0.0000 C   0  0  0  0  0  0  0  0  0  0  0  0
    0.3572    1.8562    0.0000 O   0  0  0  0  0  0  0  0  0  0  0  0
    1.0718    0.6186    0.0000 Cl  0  0  0  0  0  0  0  0  0  0  0  0
  1  3  2  0
  2  1  1  0
  2  8  1  0
  4  3  1  0
  4  5  2  0
  5  6  1  0
  6  2  2  0
  6 10  1  0
  7  4  1  0
  8  9  1  0
M  END
>  <DRUGBANK_ID>  (1) 
DB13269

>  <COMMON_NAME>  (1) 
Dichlorobenzyl alcohol

>  <CAS_NUMBER>  (1) 
1777-82-8

>  <UNII>  (1) 
1NKX3648J9

>  <SYNONYMS>  (1) 
2,4-dichlorobenzenemethanol; 2,4-dichlorobenzyl alcohol; Alcohol diclorobenc√≠lico

$$$$
