
     RDKit          2D

 27 28  0  0  0  0  0  0  0  0999 V2000
    2.2206   -0.8802    0.0000 N   0  0  0  0  0  0  0  0  0  0  0  0
    1.5061   -0.4677    0.0000 C   0  0  0  0  0  0  0  0  0  0  0  0
    0.7917   -0.8802    0.0000 N   0  0  0  0  0  0  0  0  0  0  0  0
    0.0772   -0.4677    0.0000 C   0  0  0  0  0  0  0  0  0  0  0  0
    0.0772    0.3572    0.0000 C   0  0  0  0  0  0  0  0  0  0  0  0
   -0.6372    0.7697    0.0000 N   0  0  0  0  0  0  0  0  0  0  0  0
   -1.3516    0.3572    0.0000 C   0  0  0  0  0  0  0  0  0  0  0  0
   -1.3516   -0.4677    0.0000 C   0  0  0  0  0  0  0  0  0  0  0  0
   -0.6372   -0.8802    0.0000 N   0  0  0  0  0  0  0  0  0  0  0  0
   -2.0661   -0.8802    0.0000 O   0  0  0  0  0  0  0  0  0  0  0  0
   -2.7806   -0.4677    0.0000 C   0  0  0  0  0  0  0  0  0  0  0  0
   -3.4951   -0.8802    0.0000 C   0  0  0  0  0  0  0  0  0  0  0  0
   -4.2095   -0.4677    0.0000 O   0  0  0  0  0  0  0  0  0  0  0  0
   -4.9240   -0.8802    0.0000 P   0  0  0  0  0  0  0  0  0  0  0  0
   -5.6385   -1.2927    0.0000 O   0  0  0  0  0  0  0  0  0  0  0  0
   -5.3365   -0.1657    0.0000 O   0  0  0  0  0  0  0  0  0  0  0  0
   -4.5115   -1.5947    0.0000 O   0  0  0  0  0  0  0  0  0  0  0  0
   -2.7806    0.3572    0.0000 C   0  0  0  0  0  0  0  0  0  0  0  0
   -2.0661    0.7697    0.0000 C   0  0  0  0  0  0  0  0  0  0  0  0
   -2.0661    1.5947    0.0000 S   0  0  0  0  0  0  0  0  0  0  0  0
   -3.4951    0.7697    0.0000 S   0  0  0  0  0  0  0  0  0  0  0  0
    0.7917    0.7697    0.0000 C   0  0  0  0  0  0  0  0  0  0  0  0
    0.7917    1.5947    0.0000 O   0  0  0  0  0  0  0  0  0  0  0  0
    1.5061    0.3572    0.0000 N   0  0  0  0  0  0  0  0  0  0  0  0
    3.9885   -0.1240    0.0000 O   0  0  0  0  0  0  0  0  0  0  0  0
    4.8135   -0.1240    0.0000 Mo  0  0  0  0  0  4  0  0  0  0  0  0
    5.6385   -0.1240    0.0000 O   0  0  0  0  0  0  0  0  0  0  0  0
  1  2  1  0
  2  3  2  0
  2 24  1  0
  3  4  1  0
  4  5  2  0
  4  9  1  0
  5  6  1  0
  5 22  1  0
  7  6  1  6
  7  8  1  0
  7 19  1  0
  8  9  1  6
  8 10  1  0
 11 10  1  0
 11 12  1  6
 11 18  1  0
 12 13  1  0
 13 14  1  0
 14 15  2  0
 14 16  1  0
 14 17  1  0
 18 19  2  0
 18 21  1  0
 19 20  1  0
 22 23  2  0
 22 24  1  0
 25 26  2  0
 26 27  2  0
M  CHG  5  16  -1  17  -1  20  -1  21  -1  26   2
M  END
>  <DRUGBANK_ID>  (1) 
DB02137

>  <SECONDARY_ACCESSION_NUMBERS>  (1) 
EXPT02517

>  <COMMON_NAME>  (1) 
Molybdenum cofactor

>  <CAS_NUMBER>  (1) 
872689-63-9

>  <UNII>  (1) 
EPP8L4V5E3

>  <SYNONYMS>  (1) 
MoCO

$$$$
