
     RDKit          2D

 26 30  0  0  0  0  0  0  0  0999 V2000
    6.8754    2.7688    0.0000 C   0  0  0  0  0  0  0  0  0  0  0  0
    6.6716    1.9694    0.0000 O   0  0  0  0  0  0  0  0  0  0  0  0
    5.8774    1.7462    0.0000 C   0  0  0  0  0  0  0  0  0  0  0  0
    5.6736    0.9467    0.0000 C   0  0  0  0  0  0  0  0  0  0  0  0
    4.8794    0.7235    0.0000 C   0  0  0  0  0  0  0  0  0  0  0  0
    4.2890    1.2997    0.0000 C   0  0  0  0  0  0  0  0  0  0  0  0
    4.4927    2.0991    0.0000 C   0  0  0  0  0  0  0  0  0  0  0  0
    3.9023    2.6753    0.0000 C   0  0  0  0  0  0  0  0  0  0  0  0
    3.1081    2.4521    0.0000 N   0  0  0  0  0  0  0  0  0  0  0  0
    2.5176    3.0283    0.0000 C   0  0  0  0  0  0  0  0  0  0  0  0
    2.9043    1.6527    0.0000 C   0  0  0  0  0  0  0  0  0  0  0  0
    3.4947    1.0765    0.0000 C   0  0  0  0  0  0  0  0  0  0  0  0
    3.2910    0.2770    0.0000 C   0  0  0  0  0  0  0  0  0  0  0  0
    2.4967    0.0538    0.0000 C   0  0  0  0  0  0  0  0  0  0  0  0
    1.9063    0.6300    0.0000 C   0  0  0  0  0  0  0  0  0  0  0  0
    1.1121    0.4068    0.0000 C   0  0  0  0  0  0  0  0  0  0  0  0
    0.5216    0.9830    0.0000 C   0  0  0  0  0  0  0  0  0  0  0  0
    0.7254    1.7824    0.0000 C   0  0  0  0  0  0  0  0  0  0  0  0
    0.0281    2.2233    0.0000 O   0  0  0  0  0  0  0  0  0  0  0  0
   -0.6067    1.6963    0.0000 C   0  0  0  0  0  0  0  0  0  0  0  0
   -0.3017    0.9298    0.0000 O   0  0  0  0  0  0  0  0  0  0  0  0
    1.5196    2.0056    0.0000 C   0  0  0  0  0  0  0  0  0  0  0  0
    2.1101    1.4294    0.0000 C   0  0  0  0  0  0  0  0  0  0  0  0
    5.2870    2.3224    0.0000 C   0  0  0  0  0  0  0  0  0  0  0  0
    5.4908    3.1218    0.0000 O   0  0  0  0  0  0  0  0  0  0  0  0
    6.2850    3.3450    0.0000 C   0  0  0  0  0  0  0  0  0  0  0  0
  1  2  1  0
  2  3  1  0
  3  4  2  0
  3 24  1  0
  4  5  1  0
  5  6  2  0
  6  7  1  0
  6 12  1  0
  7  8  1  0
  7 24  2  0
  8  9  2  0
  9 10  1  0
  9 11  1  0
 11 12  2  0
 11 23  1  0
 12 13  1  0
 13 14  2  0
 14 15  1  0
 15 16  1  0
 15 23  2  0
 16 17  2  0
 17 18  1  0
 17 21  1  0
 18 19  1  0
 18 22  2  0
 19 20  1  0
 20 21  1  0
 22 23  1  0
 24 25  1  0
 25 26  1  0
M  CHG  1   9   1
M  END
>  <DRUGBANK_ID>  (1) 
DB17024

>  <COMMON_NAME>  (1) 
Chelerythrine

>  <CAS_NUMBER>  (1) 
34316-15-9

>  <UNII>  (1) 
E3B045W6X0

>  <SYNONYMS>  (1) 
(1,3)benzodioxolo(5,6-c)phenanthridinium, 1,2-dimethoxy-12-methyl-; 1,2-dimethoxy-12-methyl(1,3)dioxolo)4',5':4,5)benzo(1,2-c)phenanthridinium; Broussonpapyrine; Cheleritrine; Toddalin; Toddaline

$$$$
