
     RDKit          2D

 27 30  0  0  0  0  0  0  0  0999 V2000
   -1.6504    2.4165    0.0000 F   0  0  0  0  0  0  0  0  0  0  0  0
   -4.1254    0.9875    0.0000 F   0  0  0  0  0  0  0  0  0  0  0  0
   -0.1360    0.9889    0.0000 O   0  0  0  0  0  0  0  0  0  0  0  0
    2.8176   -0.7061    0.0000 O   0  0  0  0  0  0  0  0  0  0  0  0
   -0.1552   -1.9304    0.0000 N   0  0  0  0  0  0  0  0  0  0  0  0
   -1.6504   -2.0914    0.0000 N   0  0  0  0  0  0  0  0  0  0  0  0
   -0.9359   -0.8539    0.0000 C   0  0  0  0  0  0  0  0  0  0  0  0
   -0.1552   -0.6025    0.0000 C   0  0  0  0  0  0  0  0  0  0  0  0
   -1.6504   -0.4413    0.0000 C   0  0  0  0  0  0  0  0  0  0  0  0
   -0.9359   -1.6789    0.0000 C   0  0  0  0  0  0  0  0  0  0  0  0
    0.3261   -1.2663    0.0000 C   0  0  0  0  0  0  0  0  0  0  0  0
   -2.0628    0.2730    0.0000 C   0  0  0  0  0  0  0  0  0  0  0  0
    0.1010    0.1816    0.0000 C   0  0  0  0  0  0  0  0  0  0  0  0
   -2.3648   -0.8539    0.0000 C   0  0  0  0  0  0  0  0  0  0  0  0
    0.9083    0.3517    0.0000 C   0  0  0  0  0  0  0  0  0  0  0  0
   -2.3648   -1.6789    0.0000 C   0  0  0  0  0  0  0  0  0  0  0  0
   -2.8879    0.2730    0.0000 C   0  0  0  0  0  0  0  0  0  0  0  0
   -1.6504    0.9875    0.0000 C   0  0  0  0  0  0  0  0  0  0  0  0
    1.4593   -0.2622    0.0000 C   0  0  0  0  0  0  0  0  0  0  0  0
    1.1646    1.1360    0.0000 C   0  0  0  0  0  0  0  0  0  0  0  0
   -2.0628    1.7020    0.0000 C   0  0  0  0  0  0  0  0  0  0  0  0
   -3.3004    0.9875    0.0000 C   0  0  0  0  0  0  0  0  0  0  0  0
    2.2666   -0.0920    0.0000 C   0  0  0  0  0  0  0  0  0  0  0  0
   -2.8879    1.7020    0.0000 C   0  0  0  0  0  0  0  0  0  0  0  0
    1.9719    1.3061    0.0000 C   0  0  0  0  0  0  0  0  0  0  0  0
    2.5229    0.6921    0.0000 C   0  0  0  0  0  0  0  0  0  0  0  0
    3.6249   -0.5360    0.0000 C   0  0  0  0  0  0  0  0  0  0  0  0
  1 21  1  0
  2 22  1  0
  3 13  2  0
  4 23  1  0
  4 27  1  0
  5 10  1  0
  5 11  1  0
  6 10  2  0
  6 16  1  0
  7  8  1  0
  7  9  2  0
  7 10  1  0
  8 11  2  0
  8 13  1  0
  9 12  1  0
  9 14  1  0
 12 17  2  0
 12 18  1  0
 13 15  1  0
 14 16  2  0
 15 19  2  0
 15 20  1  0
 17 22  1  0
 18 21  2  0
 19 23  1  0
 20 25  2  0
 21 24  1  0
 22 24  2  0
 23 26  2  0
 25 26  1  0
M  END
>  <DRUGBANK_ID>  (1) 
DB07840

>  <COMMON_NAME>  (1) 
(E)-[4-(3,5-Difluorophenyl)-3H-pyrrolo[2,3-b]pyridin-3-ylidene](3-methoxyphenyl)methanol

$$$$
