10U
     RDKit          2D

 27 29  0  0  0  0  0  0  0  0999 V2000
    0.0243    0.9907    0.0000 N   0  0  0  0  0  0  0  0  0  0  0  0
    0.8090    1.2457    0.0000 C   0  0  0  0  0  0  0  0  0  0  0  0
    1.4220    0.6936    0.0000 O   0  0  0  0  0  0  0  0  0  0  0  0
    0.9805    2.0526    0.0000 C   0  0  0  0  0  0  0  0  0  0  0  0
   -0.6431    1.4757    0.0000 C   0  0  0  0  0  0  0  0  0  0  0  0
   -1.3105    0.9907    0.0000 C   0  0  0  0  0  0  0  0  0  0  0  0
   -1.0556    0.2061    0.0000 C   0  0  0  0  0  0  0  0  0  0  0  0
   -0.2306    0.2061    0.0000 C   0  0  0  0  0  0  0  0  0  0  0  0
    0.2543   -0.4613    0.0000 C   0  0  0  0  0  0  0  0  0  0  0  0
   -0.0812   -1.2150    0.0000 N   0  0  0  0  0  0  0  0  0  0  0  0
    0.4037   -1.8824    0.0000 C   0  0  0  0  0  0  0  0  0  0  0  0
    0.0681   -2.6361    0.0000 C   0  0  0  0  0  0  0  0  0  0  0  0
   -0.7524   -2.7224    0.0000 C   0  0  0  0  0  0  0  0  0  0  0  0
   -1.0879   -3.4760    0.0000 C   0  0  0  0  0  0  0  0  0  0  0  0
   -0.6030   -4.1435    0.0000 C   0  0  0  0  0  0  0  0  0  0  0  0
   -0.9385   -4.8971    0.0000 C   0  0  0  0  0  0  0  0  0  0  0  0
   -0.4536   -5.5646    0.0000 N   0  0  0  0  0  0  0  0  0  0  0  0
   -1.7590   -4.9834    0.0000 N   0  0  0  0  0  0  0  0  0  0  0  0
    0.2175   -4.0572    0.0000 C   0  0  0  0  0  0  0  0  0  0  0  0
    0.5530   -3.3036    0.0000 C   0  0  0  0  0  0  0  0  0  0  0  0
    1.0748   -0.3751    0.0000 O   0  0  0  0  0  0  0  0  0  0  0  0
    1.7651    2.3076    0.0000 N   0  0  0  0  0  0  0  0  0  0  0  0
    1.9366    3.1146    0.0000 C   0  0  0  0  0  0  0  0  0  0  0  0
    2.6903    3.4501    0.0000 C   0  0  0  0  0  0  0  0  0  0  0  0
    2.6041    4.2706    0.0000 C   0  0  0  0  0  0  0  0  0  0  0  0
    1.7971    4.4421    0.0000 C   0  0  0  0  0  0  0  0  0  0  0  0
    1.3846    3.7277    0.0000 C   0  0  0  0  0  0  0  0  0  0  0  0
  1  2  1  0
  2  4  1  0
  2  3  2  0
  4 22  1  0
  5  1  1  0
  6  7  1  0
  6  5  1  0
  7  8  1  0
  8  1  1  0
  8  9  1  6
  9 10  1  0
 11 10  1  0
 11 12  1  0
 12 20  1  0
 12 13  2  0
 13 14  1  0
 14 15  2  0
 15 16  1  0
 16 18  1  0
 16 17  2  0
 19 15  1  0
 20 19  2  0
 21  9  2  0
 22 23  1  0
 23 27  1  0
 24 23  1  0
 24 25  1  0
 25 26  1  0
 27 26  1  0
M  END
>  <DRUGBANK_ID>  (1) 
DB06845

>  <COMMON_NAME>  (1) 
(S)-N-(4-carbamimidoylbenzyl)-1-(2-(cyclopentylamino)ethanoyl)pyrrolidine-2-carboxamide

$$$$
