
     RDKit          2D

 25 25  0  0  0  0  0  0  0  0999 V2000
   -1.5469   -3.3937    0.0000 N   0  0  0  0  0  0  0  0  0  0  0  0
   -1.9594   -2.6793    0.0000 C   0  0  0  0  0  0  0  0  0  0  0  0
   -1.5469   -1.9648    0.0000 C   0  0  0  0  0  0  0  0  0  0  0  0
   -0.7219   -1.9648    0.0000 C   0  0  0  0  0  0  0  0  0  0  0  0
   -0.3094   -2.6792    0.0000 C   0  0  0  0  0  0  0  0  0  0  0  0
   -0.7219   -3.3937    0.0000 C   0  0  0  0  0  0  0  0  0  0  0  0
   -0.3093   -4.1082    0.0000 C   0  0  0  0  0  0  0  0  0  0  0  0
    0.5156   -2.6793    0.0000 O   0  0  0  0  0  0  0  0  0  0  0  0
   -0.3093   -1.2502    0.0000 C   0  0  0  0  0  0  0  0  0  0  0  0
    0.5156   -1.2502    0.0000 N   0  0  0  0  0  0  0  0  0  0  0  0
    0.9280   -0.5358    0.0000 C   0  0  0  0  0  0  0  0  0  0  0  0
    1.7531   -0.5358    0.0000 C   0  0  0  0  0  0  0  0  0  0  0  0
    2.1656    0.1786    0.0000 C   0  0  0  0  0  0  0  0  0  0  0  0
    2.9907    0.1786    0.0000 C   0  0  0  0  0  0  0  0  0  0  0  0
    3.4032    0.8931    0.0000 C   0  0  0  0  0  0  0  0  0  0  0  0
    4.2282    0.8931    0.0000 N   0  0  0  0  0  0  0  0  0  0  0  0
    2.9907    1.6076    0.0000 C   0  0  0  0  0  0  0  0  0  0  0  0
    3.4031    2.3220    0.0000 O   0  0  0  0  0  0  0  0  0  0  0  0
    2.1656    1.6077    0.0000 O   0  0  0  0  0  0  0  0  0  0  0  0
   -1.9594   -1.2503    0.0000 C   0  0  0  0  0  0  0  0  0  0  0  0
   -2.7844   -1.2503    0.0000 O   0  0  0  0  0  0  0  0  0  0  0  0
   -3.1969   -0.5358    0.0000 P   0  0  0  0  0  0  0  0  0  0  0  0
   -4.0219   -0.5357    0.0000 O   0  0  0  0  0  0  0  0  0  0  0  0
   -2.7843    0.1786    0.0000 O   0  0  0  0  0  0  0  0  0  0  0  0
   -3.6094   -1.2503    0.0000 O   0  0  0  0  0  0  0  0  0  0  0  0
  1  2  2  0
  2  3  1  0
  3  4  2  0
  3 20  1  0
  4  5  1  0
  4  9  1  0
  5  6  2  0
  5  8  1  0
  6  1  1  0
  6  7  1  0
  9 10  2  0
 10 11  1  0
 11 12  1  0
 12 13  1  0
 13 14  1  0
 14 15  1  0
 15 16  1  1
 15 17  1  0
 17 18  2  0
 17 19  1  0
 20 21  1  0
 21 22  1  0
 22 23  1  0
 22 24  2  0
 22 25  1  0
M  END
>  <DRUGBANK_ID>  (1) 
DB04083

>  <SECONDARY_ACCESSION_NUMBERS>  (1) 
EXPT02040

>  <COMMON_NAME>  (1) 
N(6)-(pyridoxal phosphate)-L-lysine

>  <CAS_NUMBER>  (1) 
2440-59-7

>  <UNII>  (1) 
QM00M3504A

>  <SYNONYMS>  (1) 
(S)-2-amino-6-[(3-hydroxy-2-methyl-5-phosphonooxymethyl-4-pyridine)methyleneamino]hexanoic acid; N6-((3-Hydroxy-2-methyl-5-((phosphonooxy)methyl)-4-pyridinyl)methylene)-L-lysine

$$$$
