
     RDKit          2D

 23 26  0  0  0  0  0  0  0  0999 V2000
   -0.1712   -0.6979    0.0000 C   0  0  0  0  0  0  0  0  0  0  0  0
    0.6538   -0.6979    0.0000 C   0  0  0  0  0  0  0  0  0  0  0  0
    1.1387   -0.0305    0.0000 C   0  0  0  0  0  0  0  0  0  0  0  0
    1.9233   -0.2854    0.0000 C   0  0  0  0  0  0  0  0  0  0  0  0
    2.6378    0.1271    0.0000 C   0  0  0  0  0  0  0  0  0  0  0  0
    3.3523   -0.2854    0.0000 N   0  0  0  0  0  0  0  0  0  0  0  0
    3.3523   -1.1104    0.0000 C   0  0  0  0  0  0  0  0  0  0  0  0
    2.6378   -1.5229    0.0000 N   0  0  0  0  0  0  0  0  0  0  0  0
    1.9233   -1.1104    0.0000 C   0  0  0  0  0  0  0  0  0  0  0  0
    1.1387   -1.3654    0.0000 S   0  0  0  0  0  0  0  0  0  0  0  0
    4.0668   -1.5229    0.0000 N   0  0  0  0  0  0  0  0  0  0  0  0
    4.7812   -1.1104    0.0000 C   0  0  0  0  0  0  0  0  0  0  0  0
    5.4957   -1.5229    0.0000 C   0  0  0  0  0  0  0  0  0  0  0  0
    5.4957   -2.3479    0.0000 N   0  0  0  0  0  0  0  0  0  0  0  0
    4.7812   -2.7604    0.0000 C   0  0  0  0  0  0  0  0  0  0  0  0
    4.0668   -2.3479    0.0000 C   0  0  0  0  0  0  0  0  0  0  0  0
    2.6378    0.9521    0.0000 C   0  0  0  0  0  0  0  0  0  0  0  0
    1.9233    1.3646    0.0000 C   0  0  0  0  0  0  0  0  0  0  0  0
    1.9233    2.1896    0.0000 C   0  0  0  0  0  0  0  0  0  0  0  0
    2.6378    2.6021    0.0000 C   0  0  0  0  0  0  0  0  0  0  0  0
    3.3523    2.1896    0.0000 C   0  0  0  0  0  0  0  0  0  0  0  0
    3.3523    1.3646    0.0000 C   0  0  0  0  0  0  0  0  0  0  0  0
    4.0668    0.9521    0.0000 F   0  0  0  0  0  0  0  0  0  0  0  0
  1  2  1  0
  2  3  2  0
  2 10  1  0
  3  4  1  0
  4  5  2  0
  4  9  1  0
  5  6  1  0
  5 17  1  0
  6  7  2  0
  7  8  1  0
  7 11  1  0
  8  9  2  0
  9 10  1  0
 11 12  1  0
 11 16  1  0
 12 13  1  0
 13 14  1  0
 14 15  1  0
 15 16  1  0
 17 18  2  0
 17 22  1  0
 18 19  1  0
 19 20  2  0
 20 21  1  0
 21 22  2  0
 22 23  1  0
M  END
>  <DRUGBANK_ID>  (1) 
DB18047

>  <COMMON_NAME>  (1) 
DDP-225 free base anhydrous

>  <CAS_NUMBER>  (1) 
99487-25-9

>  <UNII>  (1) 
CU79LWT2HF

>  <SYNONYMS>  (1) 
Thieno(2,3-d)pyrimidine, 4-(2-fluorophenyl)-6-methyl-2-(1-piperazinyl)-

$$$$
