
     RDKit          2D

 16 17  0  0  0  0  0  0  0  0999 V2000
    0.0000   -0.4125    0.0000 C   0  0  0  0  0  0  0  0  0  0  0  0
    0.7145   -0.8250    0.0000 N   0  0  0  0  0  0  0  0  0  0  0  0
    2.1434    0.8250    0.0000 C   0  0  0  0  0  0  0  0  0  0  0  0
   -0.7145   -0.8250    0.0000 N   0  0  0  0  0  0  0  0  0  0  0  0
    1.4289   -0.4125    0.0000 C   0  0  0  0  0  0  0  0  0  0  0  0
    2.8579    0.4125    0.0000 C   0  0  0  0  0  0  0  0  0  0  0  0
   -1.4289   -0.4125    0.0000 C   0  0  0  0  0  0  0  0  0  0  0  0
    2.1434   -0.8250    0.0000 C   0  0  0  0  0  0  0  0  0  0  0  0
   -2.8579    0.4125    0.0000 C   0  0  0  0  0  0  0  0  0  0  0  0
   -2.1434   -0.8250    0.0000 C   0  0  0  0  0  0  0  0  0  0  0  0
   -2.1434    0.8250    0.0000 C   0  0  0  0  0  0  0  0  0  0  0  0
    1.4289    0.4125    0.0000 C   0  0  0  0  0  0  0  0  0  0  0  0
    0.0000    0.4125    0.0000 O   0  0  0  0  0  0  0  0  0  0  0  0
   -1.4289    0.4125    0.0000 C   0  0  0  0  0  0  0  0  0  0  0  0
   -2.8579   -0.4125    0.0000 C   0  0  0  0  0  0  0  0  0  0  0  0
    2.8579   -0.4125    0.0000 C   0  0  0  0  0  0  0  0  0  0  0  0
  2  1  1  0
  4  1  1  0
  5  2  1  0
  5 12  2  0
  6  3  2  0
  7  4  1  0
  8  5  1  0
  8 16  2  0
 10  7  1  0
 11  9  2  0
 11 14  1  0
 12  3  1  0
 13  1  2  0
 14  7  2  0
 15  9  1  0
 15 10  2  0
 16  6  1  0
M  END
>  <DRUGBANK_ID>  (1) 
DB07496

>  <COMMON_NAME>  (1) 
1,3-diphenylurea

>  <CAS_NUMBER>  (1) 
102-07-8

>  <UNII>  (1) 
94YD8RMX5B

>  <SYNONYMS>  (1) 
Carbanilide; Diphenylcarbamide; Diphenylurea; N-phenyl-N'-phenylurea; N,N'-diphenylurea; s-diphenylurea; sym-diphenylurea

$$$$
