
     RDKit          2D

 23 24  0  0  0  0  0  0  0  0999 V2000
    2.8520   -1.2456    0.0000 N   0  0  0  0  0  0  0  0  0  0  0  0
    3.5653   -1.6558    0.0000 O   0  0  0  0  0  0  0  0  0  0  0  0
    2.1400   -1.6478    0.0000 C   0  0  0  0  0  0  0  0  0  0  0  0
    2.1323   -2.4759    0.0000 O   0  0  0  0  0  0  0  0  0  0  0  0
    1.4267   -1.2376    0.0000 C   0  0  0  0  0  0  0  0  0  0  0  0
    1.4331   -0.4116    0.0000 C   0  0  0  0  0  0  0  0  0  0  0  0
    0.7161    0.0007    0.0000 C   0  0  0  0  0  0  0  0  0  0  0  0
   -0.0013   -0.4110    0.0000 C   0  0  0  0  0  0  0  0  0  0  0  0
   -0.7147   -0.0008    0.0000 N   0  0  0  0  0  0  0  0  0  0  0  0
   -1.4266   -0.4092    0.0000 C   0  0  0  0  0  0  0  0  0  0  0  0
   -1.4275   -1.2322    0.0000 O   0  0  0  0  0  0  0  0  0  0  0  0
   -2.1400    0.0009    0.0000 C   0  0  0  0  0  0  0  0  0  0  0  0
   -2.1378    0.8259    0.0000 C   0  0  0  0  0  0  0  0  0  0  0  0
   -1.4197    1.2365    0.0000 C   0  0  0  0  0  0  0  0  0  0  0  0
   -1.4261    2.0636    0.0000 C   0  0  0  0  0  0  0  0  0  0  0  0
   -2.1432    2.4759    0.0000 C   0  0  0  0  0  0  0  0  0  0  0  0
   -2.8539    2.0611    0.0000 C   0  0  0  0  0  0  0  0  0  0  0  0
   -2.8548    1.2382    0.0000 C   0  0  0  0  0  0  0  0  0  0  0  0
   -2.8519   -0.4076    0.0000 C   0  0  0  0  0  0  0  0  0  0  0  0
   -3.5653    0.0025    0.0000 C   0  0  0  0  0  0  0  0  0  0  0  0
   -2.8529   -1.2304    0.0000 C   0  0  0  0  0  0  0  0  0  0  0  0
   -0.0041   -1.2391    0.0000 C   0  0  0  0  0  0  0  0  0  0  0  0
    0.7092   -1.6493    0.0000 C   0  0  0  0  0  0  0  0  0  0  0  0
  2  1  1  0
  3  1  1  0
  3  4  2  0
  5  3  1  0
  5  6  2  0
  5 23  1  0
  7  6  1  0
  8  7  2  0
  9  8  1  0
 10  9  1  0
 10 11  2  0
 12 10  1  1
 12 19  1  0
 13 12  1  0
 13 14  2  0
 13 18  1  0
 15 14  1  0
 16 15  2  0
 17 16  1  0
 18 17  2  0
 19 21  1  0
 20 19  1  0
 22  8  1  0
 23 22  2  0
M  END
>  <DRUGBANK_ID>  (1) 
DB12707

>  <COMMON_NAME>  (1) 
AR-42

>  <CAS_NUMBER>  (1) 
935881-37-1

>  <UNII>  (1) 
E0GG29V0AQ

>  <SYNONYMS>  (1) 
(S)-(+)-N-HYDROXY-4-(3-METHYL-2-PHENYL-BUTYRYLAMINO)-BENZAMIDE; (αS)-N-[4-[(Hydroxyamino)carbonyl]phenyl]-α-(1-methylethyl)benzeneacetamide; BENZENEACETAMIDE, N-(4-((HYDROXYAMINO)CARBONYL)PHENYL)-.ALPHA.-(1-METHYLETHYL)-, (.ALPHA.S)-; N-Hydroxy-4-(3-methyl-2-(S)phenyl-butyrylamino)benzamide; N-hydroxy-4-[[(2S)-3-methyl-2-phenylbutanoyl]amino]benzamide

$$$$
