P9A
     RDKit          2D

 32 36  0  0  0  0  0  0  0  0999 V2000
    2.9711   -0.1812    0.0000 O   0  0  0  0  0  0  0  0  0  0  0  0
   -0.7681    0.2635    0.0000 O   0  0  0  0  0  0  0  0  0  0  0  0
    0.1561    2.4826    0.0000 O   0  0  0  0  0  0  0  0  0  0  0  0
   -0.6280    2.7390    0.0000 O   0  0  0  0  0  0  0  0  0  0  0  0
   -1.5161    0.0229    0.0000 O   0  0  0  0  0  0  0  0  0  0  0  0
   -3.8685    0.7921    0.0000 O   0  0  0  0  0  0  0  0  0  0  0  0
   -2.9143   -0.2716    0.0000 O   0  0  0  0  0  0  0  0  0  0  0  0
   -0.2880    1.1245    0.0000 N   0  0  0  0  0  0  0  0  0  0  0  0
    0.3261    1.6754    0.0000 C   0  0  0  0  0  0  0  0  0  0  0  0
    1.1102    1.4190    0.0000 C   0  0  0  0  0  0  0  0  0  0  0  0
    1.2802    0.6118    0.0000 C   0  0  0  0  0  0  0  0  0  0  0  0
    0.6662    0.0609    0.0000 C   0  0  0  0  0  0  0  0  0  0  0  0
   -0.1153   -0.2410    0.0000 C   0  0  0  0  0  0  0  0  0  0  0  0
   -0.2105   -1.0750    0.0000 C   0  0  0  0  0  0  0  0  0  0  0  0
    0.4664   -1.5743    0.0000 C   0  0  0  0  0  0  0  0  0  0  0  0
    1.2892   -1.3465    0.0000 C   0  0  0  0  0  0  0  0  0  0  0  0
    1.3411   -0.4612    0.0000 C   0  0  0  0  0  0  0  0  0  0  0  0
    2.1210   -0.0639    0.0000 C   0  0  0  0  0  0  0  0  0  0  0  0
    2.4479   -0.8253    0.0000 C   0  0  0  0  0  0  0  0  0  0  0  0
    2.5900   -1.7396    0.0000 C   0  0  0  0  0  0  0  0  0  0  0  0
    1.7833   -2.0618    0.0000 C   0  0  0  0  0  0  0  0  0  0  0  0
    2.1268   -1.3146    0.0000 C   0  0  0  0  0  0  0  0  0  0  0  0
    3.0160   -1.0541    0.0000 C   0  0  0  0  0  0  0  0  0  0  0  0
    3.8149   -1.2601    0.0000 C   0  0  0  0  0  0  0  0  0  0  0  0
    0.2350    0.7643    0.0000 C   0  0  0  0  0  0  0  0  0  0  0  0
   -3.0843    0.5357    0.0000 C   0  0  0  0  0  0  0  0  0  0  0  0
   -2.4702    1.0864    0.0000 C   0  0  0  0  0  0  0  0  0  0  0  0
   -1.6861    0.8300    0.0000 C   0  0  0  0  0  0  0  0  0  0  0  0
   -1.0720    1.3809    0.0000 C   0  0  0  0  0  0  0  0  0  0  0  0
   -1.2420    2.1882    0.0000 C   0  0  0  0  0  0  0  0  0  0  0  0
   -2.0262    2.4445    0.0000 C   0  0  0  0  0  0  0  0  0  0  0  0
   -2.6402    1.8937    0.0000 C   0  0  0  0  0  0  0  0  0  0  0  0
  2 13  2  0
  3  9  2  0
  4 30  1  0
  5 28  1  0
  6 26  2  0
  8 29  1  0
  9  8  1  0
 10  9  1  0
 10 11  1  0
 12 11  1  0
 12 25  1  6
 17 12  1  6
 13 12  1  0
 14 13  1  0
 14 15  1  0
 16 15  1  1
 16 21  1  0
 16 22  1  0
 16 17  1  0
 17 18  1  0
 18  1  1  0
 18 19  1  6
 20 19  1  6
 20 23  1  0
 21 20  1  0
 22 23  1  0
 23  1  1  0
 23 24  1  1
 26  7  1  0
 27 26  1  0
 27 32  2  0
 28 27  1  0
 29 28  2  0
 29 30  1  0
 30 31  2  0
 31 32  1  0
M  END
>  <DRUGBANK_ID>  (1) 
DB08366

>  <COMMON_NAME>  (1) 
3-({3-[(1S,4aS,6S,7S,9S,9aR)-1,6-dimethyl-2-oxodecahydro-6,9-epoxy-4a,7-methanobenzo[7]annulen-1-yl]propanoyl}amino)-2,4-dihydroxybenzoic acid

$$$$
