
     RDKit          2D

 30 31  0  0  1  0  0  0  0  0999 V2000
   -1.6219   -4.6329    0.0000 C   0  0  0  0  0  0  0  0  0  0  0  0
   -0.9075   -4.2204    0.0000 C   0  0  0  0  0  0  0  0  0  0  0  0
   -0.9075   -3.3954    0.0000 C   0  0  0  0  0  0  0  0  0  0  0  0
   -0.1930   -4.6329    0.0000 C   0  0  0  0  0  0  0  0  0  0  0  0
   -0.1930   -5.4579    0.0000 O   0  0  0  0  0  0  0  0  0  0  0  0
    0.5215   -4.2204    0.0000 O   0  0  0  0  0  0  0  0  0  0  0  0
    1.2359   -4.6329    0.0000 C   0  0  0  0  0  0  0  0  0  0  0  0
    1.9504   -4.2204    0.0000 C   0  0  0  0  0  0  0  0  0  0  0  0
    2.5635   -3.6684    0.0000 O   0  0  0  0  0  0  0  0  0  0  0  0
    3.2780   -4.0809    0.0000 C   0  0  0  0  0  0  0  0  0  0  0  0
    3.1065   -4.8879    0.0000 C   0  0  0  0  0  0  0  0  0  0  0  0
    3.6585   -5.5010    0.0000 C   0  0  0  0  0  0  0  0  0  0  0  0
    2.2860   -4.9741    0.0000 C   0  0  0  0  0  0  0  0  0  0  0  0
    1.8735   -5.6886    0.0000 O   0  0  0  0  0  0  0  0  0  0  0  0
    1.0485   -5.6886    0.0000 C   0  0  0  0  0  0  0  0  0  0  0  0
    0.6360   -4.9741    0.0000 O   0  0  0  0  0  0  0  0  0  0  0  0
    0.6360   -6.4030    0.0000 C   0  0  0  0  0  0  0  0  0  0  0  0
    1.0485   -7.1175    0.0000 C   0  0  0  0  0  0  0  0  0  0  0  0
   -0.1890   -6.4030    0.0000 C   0  0  0  0  0  0  0  0  0  0  0  0
    4.0317   -3.7453    0.0000 N   0  0  0  0  0  0  0  0  0  0  0  0
    4.1179   -2.9249    0.0000 C   0  0  0  0  0  0  0  0  0  0  0  0
    4.8716   -2.5893    0.0000 C   0  0  0  0  0  0  0  0  0  0  0  0
    5.5390   -3.0742    0.0000 C   0  0  0  0  0  0  0  0  0  0  0  0
    6.2927   -2.7387    0.0000 N   0  0  0  0  0  0  0  0  0  0  0  0
    5.4528   -3.8947    0.0000 N   0  0  0  0  0  0  0  0  0  0  0  0
    4.6991   -4.2303    0.0000 C   0  0  0  0  0  0  0  0  0  0  0  0
    4.6129   -5.0507    0.0000 O   0  0  0  0  0  0  0  0  0  0  0  0
    1.4655   -3.5530    0.0000 N   0  0  0  0  0  0  0  0  0  0  0  0
    1.8011   -2.7993    0.0000 N   0  0  0  0  0  0  0  0  0  0  0  0
    2.1366   -2.0456    0.0000 N   0  0  0  0  0  0  0  0  0  0  0  0
  1  2  1  0
  2  3  1  0
  2  4  1  0
  4  5  2  0
  4  6  1  0
  6  7  1  0
  8  7  1  1
  8  9  1  0
  8 28  1  0
 10  9  1  0
 10 20  1  1
 11 10  1  0
 11 12  1  1
 11 13  1  0
 13  8  1  0
 13 14  1  6
 14 15  1  0
 15 16  2  0
 15 17  1  0
 17 18  1  0
 17 19  1  0
 20 21  1  0
 20 26  1  0
 21 22  2  0
 22 23  1  0
 23 24  1  0
 23 25  2  0
 25 26  1  0
 26 27  2  0
 28 29  2  0
 29 30  2  0
M  CHG  2  29   1  30  -1
M  END
>  <DRUGBANK_ID>  (1) 
DB15152

>  <COMMON_NAME>  (1) 
TMC-649128

>  <CAS_NUMBER>  (1) 
1019639-33-8

>  <UNII>  (1) 
9GE48QZN6X

$$$$
