
     RDKit          2D

 11 10  0  0  0  0  0  0  0  0999 V2000
    2.2539   -2.4750    0.0000 C   0  0  0  0  0  0  0  0  0  0  0  0
    1.5395   -2.0625    0.0000 C   0  0  0  0  0  0  0  0  0  0  0  0
    1.5395   -1.2375    0.0000 C   0  0  0  0  0  0  0  0  0  0  0  0
    0.8250   -0.8250    0.0000 C   0  0  0  0  0  0  0  0  0  0  0  0
    0.8250    0.0000    0.0000 P   0  0  0  0  0  0  0  0  0  0  0  0
    1.6500   -0.0000    0.0000 O   0  0  0  0  0  0  0  0  0  0  0  0
    0.8250    0.8250    0.0000 C   0  0  0  0  0  0  0  0  0  0  0  0
    0.1105    1.2375    0.0000 C   0  0  0  0  0  0  0  0  0  0  0  0
    0.1105    2.0625    0.0000 C   0  0  0  0  0  0  0  0  0  0  0  0
   -0.6039    2.4750    0.0000 N   0  0  0  0  0  0  0  0  0  0  0  0
    0.0000    0.0000    0.0000 O   0  0  0  0  0  0  0  0  0  0  0  0
  1  2  1  0
  2  3  1  0
  3  4  1  0
  4  5  1  0
  5  6  2  0
  5  7  1  0
  5 11  1  0
  7  8  1  0
  8  9  1  0
  9 10  1  0
M  END
>  <DRUGBANK_ID>  (1) 
DB05010

>  <SECONDARY_ACCESSION_NUMBERS>  (1) 
DB12646

>  <COMMON_NAME>  (1) 
SGS-742

>  <CAS_NUMBER>  (1) 
123690-78-8

>  <UNII>  (1) 
GBZ5UC0RME

>  <SYNONYMS>  (1) 
(3-Aminopropyl)(n-butyl)phosphinic acid; 3-Aminopropyl-Butyl Phosphinic Acid; SGS 742; SGS-742; SGS742

$$$$
