34Q
     RDKit          2D

 25 28  0  0  0  0  0  0  0  0999 V2000
    0.4459    0.6856    0.0000 N   0  0  0  0  0  0  0  0  0  0  0  0
   -1.6803    0.4943    0.0000 N   0  0  0  0  0  0  0  0  0  0  0  0
   -0.7828   -1.0600    0.0000 C   0  0  0  0  0  0  0  0  0  0  0  0
   -2.0158   -1.8608    0.0000 C   0  0  0  0  0  0  0  0  0  0  0  0
   -2.8228   -1.6892    0.0000 C   0  0  0  0  0  0  0  0  0  0  0  0
   -2.1554   -0.5332    0.0000 C   0  0  0  0  0  0  0  0  0  0  0  0
   -2.9090   -0.8687    0.0000 C   0  0  0  0  0  0  0  0  0  0  0  0
    1.1604    1.0981    0.0000 C   0  0  0  0  0  0  0  0  0  0  0  0
    3.3038   -0.1394    0.0000 C   0  0  0  0  0  0  0  0  0  0  0  0
    4.0183    1.0981    0.0000 C   0  0  0  0  0  0  0  0  0  0  0  0
    1.8749    0.6856    0.0000 C   0  0  0  0  0  0  0  0  0  0  0  0
    1.1604    1.9231    0.0000 O   0  0  0  0  0  0  0  0  0  0  0  0
    1.8749   -0.1394    0.0000 C   0  0  0  0  0  0  0  0  0  0  0  0
    2.5893   -0.5519    0.0000 N   0  0  0  0  0  0  0  0  0  0  0  0
    3.3038    0.6856    0.0000 C   0  0  0  0  0  0  0  0  0  0  0  0
    2.5893    1.0981    0.0000 N   0  0  0  0  0  0  0  0  0  0  0  0
    4.7327    0.6856    0.0000 C   0  0  0  0  0  0  0  0  0  0  0  0
    4.0183   -0.5519    0.0000 C   0  0  0  0  0  0  0  0  0  0  0  0
    4.7327   -0.1394    0.0000 C   0  0  0  0  0  0  0  0  0  0  0  0
    0.3597   -0.1348    0.0000 C   0  0  0  0  0  0  0  0  0  0  0  0
   -0.4473   -0.3064    0.0000 C   0  0  0  0  0  0  0  0  0  0  0  0
   -0.8598    0.4081    0.0000 C   0  0  0  0  0  0  0  0  0  0  0  0
   -0.3078    1.0212    0.0000 C   0  0  0  0  0  0  0  0  0  0  0  0
   -0.2979   -1.7275    0.0000 O   0  0  0  0  0  0  0  0  0  0  0  0
   -1.6033   -1.1463    0.0000 N   0  0  0  0  0  0  0  0  0  0  0  0
  1  8  1  0
  1 20  1  0
  1 23  1  0
  3 24  2  0
  3 25  1  0
  4  5  1  0
  4 25  1  0
  5  7  1  0
  6  7  1  0
  6 25  1  0
  8 11  1  0
  8 12  2  0
  9 14  1  0
  9 15  1  0
  9 18  2  0
 10 15  2  0
 10 17  1  0
 11 13  1  0
 11 16  2  0
 13 14  2  0
 15 16  1  0
 17 19  2  0
 18 19  1  0
 20 21  1  0
 21  3  1  1
 21 22  1  0
 22  2  1  1
 22 23  1  0
M  END
>  <DRUGBANK_ID>  (1) 
DB07015

>  <COMMON_NAME>  (1) 
(3R,4R)-4-(pyrrolidin-1-ylcarbonyl)-1-(quinoxalin-2-ylcarbonyl)pyrrolidin-3-amine

$$$$
