
     RDKit          2D

 42 46  0  0  0  0  0  0  0  0999 V2000
    1.8626   -0.7145    0.0000 C   0  0  0  0  0  0  0  0  0  0  0  0
    2.2714   -1.4269    0.0000 C   0  0  0  0  0  0  0  0  0  0  0  0
    3.0879   -1.4291    0.0000 N   0  0  0  0  0  0  0  0  0  0  0  0
    3.5022   -0.7207    0.0000 C   0  0  0  0  0  0  0  0  0  0  0  0
    3.0935   -0.0083    0.0000 C   0  0  0  0  0  0  0  0  0  0  0  0
    2.2706   -0.0044    0.0000 N   0  0  0  0  0  0  0  0  0  0  0  0
   -4.3067    2.8615    0.0000 C   0  0  0  0  0  0  0  0  0  0  0  0
   -4.7232    2.1513    0.0000 C   0  0  0  0  0  0  0  0  0  0  0  0
   -4.3166    1.4376    0.0000 C   0  0  0  0  0  0  0  0  0  0  0  0
   -3.4934    1.4327    0.0000 C   0  0  0  0  0  0  0  0  0  0  0  0
   -3.0787    2.1477    0.0000 C   0  0  0  0  0  0  0  0  0  0  0  0
   -3.4877    2.8585    0.0000 C   0  0  0  0  0  0  0  0  0  0  0  0
   -2.2535    2.1463    0.0000 O   0  0  0  0  0  0  0  0  0  0  0  0
   -1.8422    1.4309    0.0000 C   0  0  0  0  0  0  0  0  0  0  0  0
   -2.2581    0.7207    0.0000 C   0  0  0  0  0  0  0  0  0  0  0  0
   -1.8474    0.0059    0.0000 C   0  0  0  0  0  0  0  0  0  0  0  0
   -1.0213    0.0040    0.0000 C   0  0  0  0  0  0  0  0  0  0  0  0
   -0.6076    0.7229    0.0000 C   0  0  0  0  0  0  0  0  0  0  0  0
   -1.0207    1.4349    0.0000 C   0  0  0  0  0  0  0  0  0  0  0  0
   -0.6089   -0.7107    0.0000 C   0  0  0  0  0  0  0  0  0  0  0  0
    0.2161   -0.7110    0.0000 N   0  0  0  0  0  0  0  0  0  0  0  0
    0.6269   -1.4274    0.0000 C   0  0  0  0  0  0  0  0  0  0  0  0
    1.4485   -1.4296    0.0000 C   0  0  0  0  0  0  0  0  0  0  0  0
    1.4541   -0.0004    0.0000 C   0  0  0  0  0  0  0  0  0  0  0  0
    0.6264    0.0035    0.0000 C   0  0  0  0  0  0  0  0  0  0  0  0
    1.8568   -2.1403    0.0000 O   0  0  0  0  0  0  0  0  0  0  0  0
    3.5087    0.7047    0.0000 O   0  0  0  0  0  0  0  0  0  0  0  0
    4.3274   -0.7239    0.0000 C   0  0  0  0  0  0  0  0  0  0  0  0
    4.7371   -1.4403    0.0000 C   0  0  0  0  0  0  0  0  0  0  0  0
    1.8590    0.7106    0.0000 C   0  0  0  0  0  0  0  0  0  0  0  0
    2.2724    1.4248    0.0000 C   0  0  0  0  0  0  0  0  0  0  0  0
    1.8607    2.1399    0.0000 C   0  0  0  0  0  0  0  0  0  0  0  0
    2.2744    2.8540    0.0000 C   0  0  0  0  0  0  0  0  0  0  0  0
    4.7429   -0.0111    0.0000 O   0  0  0  0  0  0  0  0  0  0  0  0
    4.3187   -2.1503    0.0000 C   0  0  0  0  0  0  0  0  0  0  0  0
    4.7248   -2.8644    0.0000 C   0  0  0  0  0  0  0  0  0  0  0  0
    5.5502   -2.8720    0.0000 C   0  0  0  0  0  0  0  0  0  0  0  0
    5.9680   -2.1592    0.0000 C   0  0  0  0  0  0  0  0  0  0  0  0
    5.5602   -1.4388    0.0000 C   0  0  0  0  0  0  0  0  0  0  0  0
   -5.5510    2.1549    0.0000 C   0  0  0  0  0  0  0  0  0  0  0  0
   -5.9590    2.8719    0.0000 O   0  0  0  0  0  0  0  0  0  0  0  0
   -5.9679    1.4428    0.0000 O   0  0  0  0  0  0  0  0  0  0  0  0
  1 24  1  0
  1  2  1  0
  1  6  1  0
  2 26  2  0
  2  3  1  0
  4  5  1  0
  4 28  1  0
  4  3  1  1
  5  6  1  0
  5 27  2  0
  6 30  1  0
  7  8  2  0
  8  9  1  0
  8 40  1  0
  9 10  2  0
 10 11  1  0
 11 12  2  0
 11 13  1  0
 12  7  1  0
 13 14  1  0
 14 15  2  0
 15 16  1  0
 16 17  2  0
 17 18  1  0
 17 20  1  0
 18 19  2  0
 19 14  1  0
 20 21  1  0
 21 22  1  0
 21 25  1  0
 22 23  1  0
 23  1  1  0
 24 25  1  0
 28 29  1  0
 28 34  1  6
 29 35  1  0
 29 39  1  0
 30 31  1  0
 31 32  1  0
 32 33  1  0
 35 36  1  0
 36 37  1  0
 37 38  1  0
 38 39  1  0
 40 41  1  0
 40 42  2  0
M  END
>  <DRUGBANK_ID>  (1) 
DB06497

>  <COMMON_NAME>  (1) 
Aplaviroc

>  <CAS_NUMBER>  (1) 
461443-59-4

>  <UNII>  (1) 
98B425P30V

>  <SYNONYMS>  (1) 
Aplaviroc

$$$$
