
     RDKit          2D

 25 26  0  0  0  0  0  0  0  0999 V2000
   -3.0915   -0.3946    0.0000 C   0  0  0  0  0  0  0  0  0  0  0  0
   -2.2665   -0.3946    0.0000 C   0  0  0  0  0  0  0  0  0  0  0  0
   -1.7816    0.2729    0.0000 C   0  0  0  0  0  0  0  0  0  0  0  0
   -0.9970    0.0179    0.0000 C   0  0  0  0  0  0  0  0  0  0  0  0
   -0.2825    0.4304    0.0000 C   0  0  0  0  0  0  0  0  0  0  0  0
    0.4319    0.0179    0.0000 N   0  0  0  0  0  0  0  0  0  0  0  0
    0.4319   -0.8071    0.0000 C   0  0  0  0  0  0  0  0  0  0  0  0
   -0.2825   -1.2196    0.0000 N   0  0  0  0  0  0  0  0  0  0  0  0
   -0.9970   -0.8071    0.0000 C   0  0  0  0  0  0  0  0  0  0  0  0
   -1.7816   -1.0620    0.0000 S   0  0  0  0  0  0  0  0  0  0  0  0
    1.1464   -1.2196    0.0000 N   0  0  0  0  0  0  0  0  0  0  0  0
    1.8609   -0.8071    0.0000 C   0  0  0  0  0  0  0  0  0  0  0  0
    2.5754   -1.2196    0.0000 C   0  0  0  0  0  0  0  0  0  0  0  0
    2.5754   -2.0446    0.0000 N   0  0  0  0  0  0  0  0  0  0  0  0
    1.8609   -2.4571    0.0000 C   0  0  0  0  0  0  0  0  0  0  0  0
    1.1464   -2.0446    0.0000 C   0  0  0  0  0  0  0  0  0  0  0  0
   -0.2825    1.2554    0.0000 C   0  0  0  0  0  0  0  0  0  0  0  0
   -0.9970    1.6679    0.0000 C   0  0  0  0  0  0  0  0  0  0  0  0
   -0.9970    2.4929    0.0000 C   0  0  0  0  0  0  0  0  0  0  0  0
   -0.2825    2.9054    0.0000 C   0  0  0  0  0  0  0  0  0  0  0  0
    0.4319    2.4929    0.0000 C   0  0  0  0  0  0  0  0  0  0  0  0
    0.4319    1.6679    0.0000 C   0  0  0  0  0  0  0  0  0  0  0  0
    1.1464    1.2554    0.0000 F   0  0  0  0  0  0  0  0  0  0  0  0
    4.9325    0.0000    0.0000 O   0  0  0  0  0  0  0  0  0  0  0  0
    0.0000   -4.1071    0.0000 Cl  0  0  0  0  0  0  0  0  0  0  0  0
  1  2  1  0
  2  3  2  0
  2 10  1  0
  3  4  1  0
  4  5  2  0
  4  9  1  0
  5  6  1  0
  5 17  1  0
  6  7  2  0
  7  8  1  0
  7 11  1  0
  8  9  2  0
  9 10  1  0
 11 12  1  0
 11 16  1  0
 12 13  1  0
 13 14  1  0
 14 15  1  0
 15 16  1  0
 17 18  2  0
 17 22  1  0
 18 19  1  0
 19 20  2  0
 20 21  1  0
 21 22  2  0
 22 23  1  0
M  END
>  <DRUGBANK_ID>  (1) 
DB05642

>  <COMMON_NAME>  (1) 
DDP-225

>  <CAS_NUMBER>  (1) 
476148-82-0

>  <UNII>  (1) 
SZU399KT7Q

$$$$
