
     RDKit          2D

 24 26  0  0  0  0  0  0  0  0999 V2000
    0.0000    0.8250    0.0000 C   0  0  0  0  0  0  0  0  0  0  0  0
    0.0000   -0.0000    0.0000 N   0  0  0  0  0  0  0  0  0  0  0  0
    0.7145   -0.4125    0.0000 C   0  0  0  0  0  0  0  0  0  0  0  0
    0.7145   -1.2375    0.0000 C   0  0  0  0  0  0  0  0  0  0  0  0
    0.0470   -1.7224    0.0000 C   0  0  0  0  0  0  0  0  0  0  0  0
    0.3020   -2.5070    0.0000 C   0  0  0  0  0  0  0  0  0  0  0  0
    1.1270   -2.5070    0.0000 N   0  0  0  0  0  0  0  0  0  0  0  0
    1.3819   -1.7224    0.0000 C   0  0  0  0  0  0  0  0  0  0  0  0
    1.6119   -3.1745    0.0000 S   0  0  0  0  0  0  0  0  0  0  0  0
    0.9445   -3.6594    0.0000 O   0  0  0  0  0  0  0  0  0  0  0  0
    2.0968   -3.8419    0.0000 O   0  0  0  0  0  0  0  0  0  0  0  0
    2.2793   -2.6896    0.0000 C   0  0  0  0  0  0  0  0  0  0  0  0
    2.1931   -1.8691    0.0000 C   0  0  0  0  0  0  0  0  0  0  0  0
    2.8605   -1.3842    0.0000 C   0  0  0  0  0  0  0  0  0  0  0  0
    3.6142   -1.7197    0.0000 C   0  0  0  0  0  0  0  0  0  0  0  0
    3.7004   -2.5402    0.0000 N   0  0  0  0  0  0  0  0  0  0  0  0
    3.0330   -3.0251    0.0000 C   0  0  0  0  0  0  0  0  0  0  0  0
   -0.1830   -3.1745    0.0000 C   0  0  0  0  0  0  0  0  0  0  0  0
    0.1526   -3.9282    0.0000 C   0  0  0  0  0  0  0  0  0  0  0  0
   -0.3323   -4.5956    0.0000 C   0  0  0  0  0  0  0  0  0  0  0  0
   -1.1528   -4.5094    0.0000 C   0  0  0  0  0  0  0  0  0  0  0  0
   -1.4884   -3.7557    0.0000 C   0  0  0  0  0  0  0  0  0  0  0  0
   -1.0034   -3.0882    0.0000 C   0  0  0  0  0  0  0  0  0  0  0  0
   -1.3390   -2.3346    0.0000 F   0  0  0  0  0  0  0  0  0  0  0  0
  1  2  1  0
  2  3  1  0
  3  4  1  0
  4  5  1  0
  4  8  2  0
  5  6  2  0
  6  7  1  0
  6 18  1  0
  7  8  1  0
  7  9  1  0
  9 10  2  0
  9 11  2  0
  9 12  1  0
 12 13  2  0
 12 17  1  0
 13 14  1  0
 14 15  2  0
 15 16  1  0
 16 17  2  0
 18 19  2  0
 18 23  1  0
 19 20  1  0
 20 21  2  0
 21 22  1  0
 22 23  2  0
 23 24  1  0
M  END
>  <DRUGBANK_ID>  (1) 
DB11739

>  <COMMON_NAME>  (1) 
Vonoprazan

>  <CAS_NUMBER>  (1) 
881681-00-1

>  <UNII>  (1) 
1R5L3J156G

>  <SYNONYMS>  (1) 
1-[5-(2-fluorophenyl)-1-pyridin-3-ylsulfonylpyrrol-3-yl]-N-methylmethanamine; Vonoprazan

$$$$
