1570
     RDKit          2D

 27 29  0  0  1  0  0  0  0  0999 V2000
    2.0930   -1.0313    0.0000 O   0  0  0  0  0  0  0  0  0  0  0  0
    2.0930    2.2688    0.0000 O   0  0  0  0  0  0  0  0  0  0  0  0
    3.5220   -0.2063    0.0000 N   0  0  0  0  0  0  0  0  0  0  0  0
    3.5220    2.2688    0.0000 N   0  0  0  0  0  0  0  0  0  0  0  0
    3.5220    1.4438    0.0000 C   0  0  0  0  0  0  0  0  0  0  0  0
    2.8075    1.0313    0.0000 C   0  0  0  0  0  0  0  0  0  0  0  0
    4.2365    1.0313    0.0000 C   0  0  0  0  0  0  0  0  0  0  0  0
    2.8075    0.2063    0.0000 C   0  0  0  0  0  0  0  0  0  0  0  0
    4.2365    0.2063    0.0000 C   0  0  0  0  0  0  0  0  0  0  0  0
    2.0930    1.4438    0.0000 C   0  0  0  0  0  0  0  0  0  0  0  0
    3.5220   -1.0313    0.0000 C   0  0  0  0  0  0  0  0  0  0  0  0
    2.8075   -1.4438    0.0000 C   0  0  0  0  0  0  0  0  0  0  0  0
    4.2365    2.6813    0.0000 C   0  0  0  0  0  0  0  0  0  0  0  0
    2.8075    2.6813    0.0000 C   0  0  0  0  0  0  0  0  0  0  0  0
    2.8075   -2.2688    0.0000 C   0  0  0  0  0  0  0  0  0  0  0  0
    2.8075    3.5063    0.0000 C   0  0  0  0  0  0  0  0  0  0  0  0
    4.2365    3.5063    0.0000 C   0  0  0  0  0  0  0  0  0  0  0  0
    4.9509    2.2688    0.0000 C   0  0  0  0  0  0  0  0  0  0  0  0
    2.0930    3.9188    0.0000 C   0  0  0  0  0  0  0  0  0  0  0  0
    3.5220   -2.6813    0.0000 C   0  0  0  0  0  0  0  0  0  0  0  0
    2.0930   -2.6813    0.0000 C   0  0  0  0  0  0  0  0  0  0  0  0
    4.9509    3.9188    0.0000 C   0  0  0  0  0  0  0  0  0  0  0  0
    5.6655    2.6813    0.0000 C   0  0  0  0  0  0  0  0  0  0  0  0
    5.6655    3.5063    0.0000 C   0  0  0  0  0  0  0  0  0  0  0  0
    3.5220   -3.5063    0.0000 C   0  0  0  0  0  0  0  0  0  0  0  0
    2.0930   -3.5063    0.0000 C   0  0  0  0  0  0  0  0  0  0  0  0
    2.8075   -3.9188    0.0000 C   0  0  0  0  0  0  0  0  0  0  0  0
  1 12  1  0
  2 14  2  0
  3  8  1  0
  3  9  1  0
  3 11  1  0
  4  5  1  0
  4 13  1  0
  4 14  1  0
  5  6  1  0
  5  7  1  0
  6  8  1  0
  6 10  1  0
  7  9  1  0
 11 12  1  0
 12 15  1  0
 13 17  2  0
 13 18  1  0
 14 16  1  0
 15 20  2  0
 15 21  1  0
 16 19  1  0
 17 22  1  0
 18 23  2  0
 20 25  1  0
 21 26  2  0
 22 24  2  0
 23 24  1  0
 25 27  2  0
 26 27  1  0
M  END
>  <DRUGBANK_ID>  (1) 
DB01570

>  <COMMON_NAME>  (1) 
Ohmefentanyl

>  <CAS_NUMBER>  (1) 
78995-14-9

>  <UNII>  (1) 
Y8263089ZX

>  <SYNONYMS>  (1) 
Beta-hydroxy-3-methylfentanyl; OMF; Î²-hydroxy-3-methylfentanyl

$$$$
