
     RDKit          2D

 31 33  0  0  0  0  0  0  0  0999 V2000
    0.7326    1.8563    0.0000 C   0  0  0  0  0  0  0  0  0  0  0  0
    0.7326    1.0313    0.0000 C   0  0  0  0  0  0  0  0  0  0  0  0
    0.0180    2.2689    0.0000 C   0  0  0  0  0  0  0  0  0  0  0  0
    0.0180    0.6187    0.0000 C   0  0  0  0  0  0  0  0  0  0  0  0
   -0.6965    1.8563    0.0000 C   0  0  0  0  0  0  0  0  0  0  0  0
   -0.6965    1.0313    0.0000 C   0  0  0  0  0  0  0  0  0  0  0  0
    1.4471    2.2689    0.0000 N   0  0  0  0  0  0  0  0  0  0  0  0
   -1.4109    2.2689    0.0000 N   0  0  0  0  0  0  0  0  0  0  0  0
   -1.4109    0.6187    0.0000 O   0  0  0  0  0  0  0  0  0  0  0  0
    0.0179   -0.2062    0.0000 O   0  0  0  0  0  0  0  0  0  0  0  0
    1.4471    0.6187    0.0000 O   0  0  0  0  0  0  0  0  0  0  0  0
   -2.1255    0.2062    0.0000 C   0  0  0  0  0  0  0  0  0  0  0  0
   -2.1255   -0.6187    0.0000 C   0  0  0  0  0  0  0  0  0  0  0  0
   -2.8400    0.6187    0.0000 O   0  0  0  0  0  0  0  0  0  0  0  0
   -2.8400   -1.0313    0.0000 C   0  0  0  0  0  0  0  0  0  0  0  0
   -3.5546    0.2062    0.0000 C   0  0  0  0  0  0  0  0  0  0  0  0
   -3.5546   -0.6187    0.0000 C   0  0  0  0  0  0  0  0  0  0  0  0
   -1.4109   -1.0313    0.0000 N   0  0  0  0  0  0  0  0  0  0  0  0
    2.1617    0.2062    0.0000 C   0  0  0  0  0  0  0  0  0  0  0  0
    2.1617   -0.6187    0.0000 C   0  0  0  0  0  0  0  0  0  0  0  0
    2.8762    0.6187    0.0000 O   0  0  0  0  0  0  0  0  0  0  0  0
    2.8762   -1.0313    0.0000 C   0  0  0  0  0  0  0  0  0  0  0  0
    3.5907    0.2062    0.0000 C   0  0  0  0  0  0  0  0  0  0  0  0
    3.5907   -0.6187    0.0000 C   0  0  0  0  0  0  0  0  0  0  0  0
    1.4471   -1.0313    0.0000 O   0  0  0  0  0  0  0  0  0  0  0  0
    2.8762   -1.8563    0.0000 N   0  0  0  0  0  0  0  0  0  0  0  0
    2.1617   -2.2689    0.0000 C   0  0  0  0  0  0  0  0  0  0  0  0
    4.2690   -0.3319    0.0000 C   0  0  0  0  0  0  0  0  0  0  0  0
    3.7583   -1.3691    0.0000 O   0  0  0  0  0  0  0  0  0  0  0  0
   -4.2690    0.6187    0.0000 C   0  0  0  0  0  0  0  0  0  0  0  0
   -4.2690    1.4438    0.0000 N   0  0  0  0  0  0  0  0  0  0  0  0
  1  7  1  1
  2  1  1  0
  2 11  1  6
  3  1  1  0
  4  2  1  0
  4 10  1  1
  5  3  1  0
  5  8  1  1
  6  4  1  0
  6  5  1  0
  6  9  1  6
 12 13  1  0
 12 14  1  0
 12  9  1  6
 13 15  1  0
 13 18  1  6
 14 16  1  0
 15 17  1  0
 16 17  1  0
 16 30  1  1
 19 20  1  0
 19 21  1  0
 19 11  1  1
 20 22  1  0
 20 25  1  1
 21 23  1  0
 22 24  1  0
 22 26  1  6
 23 24  1  0
 24 28  1  1
 24 29  1  0
 27 26  1  0
 31 30  1  0
M  END
>  <DRUGBANK_ID>  (1) 
DB04729

>  <COMMON_NAME>  (1) 
Gentamicin C1a

>  <CAS_NUMBER>  (1) 
26098-04-4

>  <UNII>  (1) 
AV4A72IATD

>  <SYNONYMS>  (1) 
Gentamycin C12

$$$$
