
     RDKit          2D

 23 22  0  0  0  0  0  0  0  0999 V2000
   -2.2858   -0.4517    0.0000 C   0  0  0  0  0  0  0  0  0  0  0  0
   -3.7080    0.3848    0.0000 N   0  0  0  0  0  0  0  0  0  0  0  0
   -3.7080   -0.4517    0.0000 C   0  0  0  0  0  0  0  0  0  0  0  0
   -2.2858    0.3848    0.0000 C   0  0  0  0  0  0  0  0  0  0  0  0
   -2.9970   -0.8700    0.0000 N   0  0  0  0  0  0  0  0  0  0  0  0
   -2.9970    0.8030    0.0000 C   0  0  0  0  0  0  0  0  0  0  0  0
   -1.5748   -0.8700    0.0000 C   0  0  0  0  0  0  0  0  0  0  0  0
   -4.4149   -0.8700    0.0000 O   0  0  0  0  0  0  0  0  0  0  0  0
   -2.9970    1.6396    0.0000 O   0  0  0  0  0  0  0  0  0  0  0  0
   -0.8678   -0.4517    0.0000 O   0  0  0  0  0  0  0  0  0  0  0  0
   -1.5748   -1.7024    0.0000 O   0  0  0  0  0  0  0  0  0  0  0  0
    2.2858   -0.3890    0.0000 C   0  0  0  0  0  0  0  0  0  0  0  0
    3.7080    0.4475    0.0000 N   0  0  0  0  0  0  0  0  0  0  0  0
    3.7080   -0.3890    0.0000 C   0  0  0  0  0  0  0  0  0  0  0  0
    2.2858    0.4475    0.0000 C   0  0  0  0  0  0  0  0  0  0  0  0
    2.9970   -0.8072    0.0000 N   0  0  0  0  0  0  0  0  0  0  0  0
    2.9970    0.8657    0.0000 C   0  0  0  0  0  0  0  0  0  0  0  0
    1.5748   -0.8072    0.0000 C   0  0  0  0  0  0  0  0  0  0  0  0
    4.4149   -0.8072    0.0000 O   0  0  0  0  0  0  0  0  0  0  0  0
    2.9970    1.7024    0.0000 O   0  0  0  0  0  0  0  0  0  0  0  0
    0.8678   -0.3890    0.0000 O   0  0  0  0  0  0  0  0  0  0  0  0
    1.5748   -1.6396    0.0000 O   0  0  0  0  0  0  0  0  0  0  0  0
   -0.0732    0.6985    0.0000 Zn  0  0  0  0  0 15  0  0  0  0  0  0
  2  3  1  0
  3  5  1  0
  4  1  2  0
  5  1  1  0
  6  4  1  0
  6  2  1  0
  7  1  1  0
  8  3  2  0
  9  6  2  0
 10  7  1  0
 11  7  2  0
 13 14  1  0
 14 16  1  0
 15 12  2  0
 16 12  1  0
 17 15  1  0
 17 13  1  0
 18 12  1  0
 19 14  2  0
 20 17  2  0
 21 18  1  0
 22 18  2  0
M  CHG  3  10  -1  21  -1  23   2
M  END
>  <DRUGBANK_ID>  (1) 
DB15720

>  <COMMON_NAME>  (1) 
Zinc orotate

>  <CAS_NUMBER>  (1) 
60388-02-5

>  <UNII>  (1) 
Z722242H10

>  <SYNONYMS>  (1) 
Orotate zinc; Zinc diorotate; Zinc orotate

$$$$
