
     RDKit          2D

 13 13  0  0  0  0  0  0  0  0999 V2000
   -4.6181   -1.8757    0.0000 N   0  0  0  0  0  0  0  0  0  0  0  0
   -3.9054   -1.4589    0.0000 C   0  0  0  0  0  0  0  0  0  0  0  0
   -3.1883   -1.8707    0.0000 C   0  0  0  0  0  0  0  0  0  0  0  0
   -2.4759   -1.4547    0.0000 C   0  0  0  0  0  0  0  0  0  0  0  0
   -2.4802   -0.6280    0.0000 C   0  0  0  0  0  0  0  0  0  0  0  0
   -3.2027   -0.2193    0.0000 C   0  0  0  0  0  0  0  0  0  0  0  0
   -3.9119   -0.6378    0.0000 C   0  0  0  0  0  0  0  0  0  0  0  0
   -5.3350   -1.4630    0.0000 C   0  0  0  0  0  0  0  0  0  0  0  0
   -5.3392   -0.6377    0.0000 N   0  0  0  0  0  0  0  0  0  0  0  0
   -6.0520   -1.8716    0.0000 N   0  0  0  0  0  0  0  0  0  0  0  0
   -1.7709   -0.2085    0.0000 C   0  0  0  0  0  0  0  0  0  0  0  0
   -1.7752    0.6166    0.0000 O   0  0  0  0  0  0  0  0  0  0  0  0
   -1.0581   -0.6212    0.0000 O   0  0  0  0  0  0  0  0  0  0  0  0
  1  8  1  0
  1  2  1  0
  2  3  2  0
  3  4  1  0
  4  5  2  0
  5 11  1  0
  5  6  1  0
  6  7  2  0
  7  2  1  0
  8  9  2  0
  8 10  1  0
 11 12  2  0
 11 13  1  0
M  END
>  <DRUGBANK_ID>  (1) 
DB02459

>  <SECONDARY_ACCESSION_NUMBERS>  (1) 
EXPT01553

>  <COMMON_NAME>  (1) 
4-guanidinobenzoic acid

>  <CAS_NUMBER>  (1) 
16060-65-4

>  <SYNONYMS>  (1) 
4-Guanidino-benzoic acid; p-guanidinobenzoic acid

$$$$
