
     RDKit          2D

 25 28  0  0  1  0  0  0  0  0999 V2000
    4.9258   -0.4558    0.0000 O   0  0  0  0  0  0  0  0  0  0  0  0
    4.6233    0.9408    0.0000 O   0  0  0  0  0  0  0  0  0  0  0  0
    9.1469   -1.2076    0.0000 N   0  0  0  0  0  0  0  0  0  0  0  0
    8.2297    0.0609    0.0000 N   0  0  0  0  0  0  0  0  0  0  0  0
    3.5651   -0.0196    0.0000 N   0  0  0  0  0  0  0  0  0  0  0  0
    7.8172   -1.2087    0.0000 C   0  0  0  0  0  0  0  0  0  0  0  0
    8.4847   -0.7238    0.0000 C   0  0  0  0  0  0  0  0  0  0  0  0
    8.0727   -1.9880    0.0000 C   0  0  0  0  0  0  0  0  0  0  0  0
    7.1497   -0.7238    0.0000 C   0  0  0  0  0  0  0  0  0  0  0  0
    8.8928   -1.9873    0.0000 C   0  0  0  0  0  0  0  0  0  0  0  0
    7.4047    0.0609    0.0000 C   0  0  0  0  0  0  0  0  0  0  0  0
    7.1497   -1.6937    0.0000 C   0  0  0  0  0  0  0  0  0  0  0  0
    9.9320   -0.9540    0.0000 C   0  0  0  0  0  0  0  0  0  0  0  0
    6.3120   -0.9153    0.0000 C   0  0  0  0  0  0  0  0  0  0  0  0
    8.7146    0.7283    0.0000 C   0  0  0  0  0  0  0  0  0  0  0  0
    6.8396    0.7083    0.0000 C   0  0  0  0  0  0  0  0  0  0  0  0
    5.7321   -0.2812    0.0000 C   0  0  0  0  0  0  0  0  0  0  0  0
    5.9977    0.5361    0.0000 C   0  0  0  0  0  0  0  0  0  0  0  0
    4.3714    0.1551    0.0000 C   0  0  0  0  0  0  0  0  0  0  0  0
    3.0107    0.5914    0.0000 C   0  0  0  0  0  0  0  0  0  0  0  0
    2.2044    0.4168    0.0000 C   0  0  0  0  0  0  0  0  0  0  0  0
    3.2626    1.3770    0.0000 C   0  0  0  0  0  0  0  0  0  0  0  0
    1.6500    1.0278    0.0000 C   0  0  0  0  0  0  0  0  0  0  0  0
    2.7082    1.9880    0.0000 C   0  0  0  0  0  0  0  0  0  0  0  0
    1.9019    1.8134    0.0000 C   0  0  0  0  0  0  0  0  0  0  0  0
  1 17  1  0
  1 19  1  0
  2 19  2  0
  7  3  1  1
  3 10  1  0
  3 13  1  0
  4  7  1  0
  4 11  1  0
  4 15  1  0
  5 19  1  0
  5 20  1  0
  6  7  1  0
  6  8  1  0
  6  9  1  0
  6 12  1  6
  8 10  1  0
  9 11  2  0
  9 14  1  0
 11 16  1  0
 14 17  2  0
 16 18  2  0
 17 18  1  0
 20 21  2  0
 20 22  1  0
 21 23  1  0
 22 24  2  0
 23 25  2  0
 24 25  1  0
M  END
>  <DRUGBANK_ID>  (1) 
DB04892

>  <COMMON_NAME>  (1) 
Phenserine

>  <CAS_NUMBER>  (1) 
101246-66-6

>  <UNII>  (1) 
SUE285UG3S

>  <SYNONYMS>  (1) 
(-)-eseroline phenylcarbamate; (-)-phenserine

$$$$
