856
     RDKit          2D

 13 13  0  0  1  0  0  0  0  0999 V2000
    2.3645   -3.0154    0.0000 Cl  0  0  0  0  0  0  0  0  0  0  0  0
    2.3645    0.2846    0.0000 O   0  0  0  0  0  0  0  0  0  0  0  0
    2.3645    1.9346    0.0000 O   0  0  0  0  0  0  0  0  0  0  0  0
    3.7934    2.7596    0.0000 O   0  0  0  0  0  0  0  0  0  0  0  0
    3.0790    1.5221    0.0000 C   0  0  0  0  0  0  0  0  0  0  0  0
    3.0790    0.6971    0.0000 C   0  0  0  0  0  0  0  0  0  0  0  0
    3.7934    1.9346    0.0000 C   0  0  0  0  0  0  0  0  0  0  0  0
    2.3645   -0.5404    0.0000 C   0  0  0  0  0  0  0  0  0  0  0  0
    3.0790   -0.9529    0.0000 C   0  0  0  0  0  0  0  0  0  0  0  0
    1.6500   -0.9529    0.0000 C   0  0  0  0  0  0  0  0  0  0  0  0
    3.0790   -1.7779    0.0000 C   0  0  0  0  0  0  0  0  0  0  0  0
    1.6500   -1.7779    0.0000 C   0  0  0  0  0  0  0  0  0  0  0  0
    2.3645   -2.1904    0.0000 C   0  0  0  0  0  0  0  0  0  0  0  0
  1 13  1  0
  2  6  1  0
  2  8  1  0
  3  5  1  0
  4  7  1  0
  5  6  1  0
  5  7  1  0
  8  9  2  0
  8 10  1  0
  9 11  1  0
 10 12  2  0
 11 13  2  0
 12 13  1  0
M  END
>  <DRUGBANK_ID>  (1) 
DB00856

>  <SECONDARY_ACCESSION_NUMBERS>  (1) 
APRD00867

>  <COMMON_NAME>  (1) 
Chlorphenesin

>  <CAS_NUMBER>  (1) 
104-29-0

>  <UNII>  (1) 
I670DAL4SZ

>  <SYNONYMS>  (1) 
3-(4-chlorophenoxy)-1,2-propanediol; 3-(p-chlorophenoxy)-1,2-propanediol; 3-(p-chlorophenoxy)propane-1,2-diol; Chlorphenesin; Chlorphénésine; Chlorphenesinum; Clorfenesina; glycerol α-p-chlorophenyl ether; p-chlorophenyl-α-glyceryl ether

$$$$
