Structure #1
     RDKit          2D

  8  7  0  0  0  0  0  0  0  0999 V2000
    2.2539    0.8250    0.0000 C   0  0  0  0  0  0  0  0  0  0  0  0
    1.9520   -0.3020    0.0000 C   0  0  0  0  0  0  0  0  0  0  0  0
    0.8250    0.0000    0.0000 C   0  0  0  0  0  0  0  0  0  0  0  0
    1.5395    0.4125    0.0000 C   0  0  0  0  0  0  0  0  0  0  0  0
    1.1270    1.1270    0.0000 N   0  0  0  0  0  0  0  0  0  0  0  0
    2.2539    1.6500    0.0000 O   0  0  0  0  0  0  0  0  0  0  0  0
    2.7770   -0.3020    0.0000 O   0  0  0  0  0  0  0  0  0  0  0  0
    0.1105    0.4125    0.0000 O   0  0  0  0  0  0  0  0  0  0  0  0
  1  4  1  0
  1  6  1  0
  2  4  1  0
  2  7  1  0
  3  4  1  0
  3  8  1  0
  4  5  1  0
M  END
>  <DRUGBANK_ID>  (1) 
DB03754

>  <SECONDARY_ACCESSION_NUMBERS>  (1) 
EXPT03072

>  <COMMON_NAME>  (1) 
Tromethamine

>  <CAS_NUMBER>  (1) 
77-86-1

>  <UNII>  (1) 
023C2WHX2V

>  <SYNONYMS>  (1) 
1,1,1-tris(hydroxymethyl)methanamine; 2-Amino-2-(hydroxymethyl)-1,3-propanediol; aminotris(hydroxymethyl)methane; THAM; Tris; Tris(hydroxymethyl)aminomethane; Trometamol; Tromethamine

$$$$
