Daidzein
     RDKit          2D

 19 21  0  0  0  0  0  0  0  0999 V2000
    2.8955   -1.8020    0.0000 O   0  0  0  0  0  0  0  0  0  0  0  0
    2.1810   -1.3895    0.0000 C   0  0  0  0  0  0  0  0  0  0  0  0
    1.4665   -1.8020    0.0000 C   0  0  0  0  0  0  0  0  0  0  0  0
    0.7520   -1.3895    0.0000 C   0  0  0  0  0  0  0  0  0  0  0  0
    0.7520   -0.5645    0.0000 C   0  0  0  0  0  0  0  0  0  0  0  0
    1.4665   -0.1520    0.0000 C   0  0  0  0  0  0  0  0  0  0  0  0
    2.1810   -0.5645    0.0000 C   0  0  0  0  0  0  0  0  0  0  0  0
    0.0376   -0.1520    0.0000 C   0  0  0  0  0  0  0  0  0  0  0  0
    0.0376    0.6730    0.0000 C   0  0  0  0  0  0  0  0  0  0  0  0
   -0.6769    1.0855    0.0000 O   0  0  0  0  0  0  0  0  0  0  0  0
   -1.3914    0.6730    0.0000 C   0  0  0  0  0  0  0  0  0  0  0  0
   -1.3914   -0.1520    0.0000 C   0  0  0  0  0  0  0  0  0  0  0  0
   -2.1058   -0.5645    0.0000 C   0  0  0  0  0  0  0  0  0  0  0  0
   -2.8203   -0.1520    0.0000 C   0  0  0  0  0  0  0  0  0  0  0  0
   -2.8203    0.6730    0.0000 C   0  0  0  0  0  0  0  0  0  0  0  0
   -3.5348    1.0855    0.0000 O   0  0  0  0  0  0  0  0  0  0  0  0
   -2.1058    1.0855    0.0000 C   0  0  0  0  0  0  0  0  0  0  0  0
   -0.6769   -0.5645    0.0000 C   0  0  0  0  0  0  0  0  0  0  0  0
   -0.6769   -1.3895    0.0000 O   0  0  0  0  0  0  0  0  0  0  0  0
  1  2  1  0
  2  3  2  0
  2  7  1  0
  3  4  1  0
  4  5  2  0
  5  6  1  0
  5  8  1  0
  6  7  2  0
  8  9  2  0
  8 18  1  0
  9 10  1  0
 10 11  1  0
 11 12  2  0
 11 17  1  0
 12 13  1  0
 12 18  1  0
 13 14  2  0
 14 15  1  0
 15 16  1  0
 15 17  2  0
 18 19  2  0
M  END
>  <DRUGBANK_ID>  (1) 
DB13182

>  <COMMON_NAME>  (1) 
Daidzein

>  <CAS_NUMBER>  (1) 
486-66-8

>  <UNII>  (1) 
6287WC5J2L

>  <SYNONYMS>  (1) 
4',7-dihydroxyisoflavone; 7-Hydroxy-3-(4-hydroxyphenyl)-4-benzopyrone; 7-hydroxy-3-(4-hydroxyphenyl)-4H-1-benzopyran-4-one; 7,4'-dihydroxyisoflavone; Daidzeol; Isoaurostatin

$$$$
