
     RDKit          2D

 36 39  0  0  1  0  0  0  0  0999 V2000
   -0.3720   -0.8655    0.0000 C   0  0  0  0  0  0  0  0  0  0  0  0
    0.0405   -0.1510    0.0000 O   0  0  0  0  0  0  0  0  0  0  0  0
    0.8655   -0.1510    0.0000 C   0  0  0  0  0  0  0  0  0  0  0  0
    0.8655    0.6740    0.0000 N   0  0  0  0  0  0  0  0  0  0  0  0
    0.1510    1.0865    0.0000 C   0  0  0  0  0  0  0  0  0  0  0  0
   -0.5635    0.6740    0.0000 O   0  0  0  0  0  0  0  0  0  0  0  0
    0.1510    1.9115    0.0000 C   0  0  0  0  0  0  0  0  0  0  0  0
   -0.5635    2.3240    0.0000 C   0  0  0  0  0  0  0  0  0  0  0  0
   -1.2780    1.9115    0.0000 O   0  0  0  0  0  0  0  0  0  0  0  0
   -0.5635    3.1490    0.0000 O   0  0  0  0  0  0  0  0  0  0  0  0
    0.8655    2.3240    0.0000 C   0  0  0  0  0  0  0  0  0  0  0  0
    0.8655    3.1490    0.0000 C   0  0  0  0  0  0  0  0  0  0  0  0
    1.5799    3.5615    0.0000 C   0  0  0  0  0  0  0  0  0  0  0  0
    2.2944    3.1490    0.0000 C   0  0  0  0  0  0  0  0  0  0  0  0
    3.0089    3.5615    0.0000 O   0  0  0  0  0  0  0  0  0  0  0  0
    2.2944    2.3240    0.0000 C   0  0  0  0  0  0  0  0  0  0  0  0
    1.5799    1.9115    0.0000 C   0  0  0  0  0  0  0  0  0  0  0  0
    1.6905   -0.1510    0.0000 C   0  0  0  0  0  0  0  0  0  0  0  0
    2.4049    0.2615    0.0000 O   0  0  0  0  0  0  0  0  0  0  0  0
    3.1194   -0.1510    0.0000 C   0  0  0  0  0  0  0  0  0  0  0  0
    3.1194   -0.9760    0.0000 C   0  0  0  0  0  0  0  0  0  0  0  0
    3.8339   -1.3885    0.0000 C   0  0  0  0  0  0  0  0  0  0  0  0
    4.5483   -0.9760    0.0000 S   0  0  0  0  0  0  0  0  0  0  0  0
    4.5483   -0.1510    0.0000 C   0  0  0  0  0  0  0  0  0  0  0  0
    3.8809    0.3339    0.0000 N   0  0  0  0  0  0  0  0  0  0  0  0
    4.1358    1.1186    0.0000 N   0  0  0  0  0  0  0  0  0  0  0  0
    4.9608    1.1186    0.0000 N   0  0  0  0  0  0  0  0  0  0  0  0
    5.2158    0.3339    0.0000 N   0  0  0  0  0  0  0  0  0  0  0  0
    6.0004    0.0790    0.0000 C   0  0  0  0  0  0  0  0  0  0  0  0
    2.4049   -1.3885    0.0000 C   0  0  0  0  0  0  0  0  0  0  0  0
    1.6905   -0.9760    0.0000 N   0  0  0  0  0  0  0  0  0  0  0  0
    0.8655   -0.9760    0.0000 C   0  0  0  0  0  0  0  0  0  0  0  0
    0.2821   -1.5593    0.0000 O   0  0  0  0  0  0  0  0  0  0  0  0
    2.4049   -2.2135    0.0000 C   0  0  0  0  0  0  0  0  0  0  0  0
    1.6905   -2.6260    0.0000 O   0  0  0  0  0  0  0  0  0  0  0  0
    3.1194   -2.6260    0.0000 O   0  0  0  0  0  0  0  0  0  0  0  0
  1  2  1  0
  3  2  1  0
  3  4  1  1
  3 18  1  0
  3 32  1  0
  4  5  1  0
  5  6  2  0
  7  5  1  6
  7  8  1  0
  7 11  1  0
  8  9  1  0
  8 10  2  0
 11 12  2  0
 11 17  1  0
 12 13  1  0
 13 14  2  0
 14 15  1  0
 14 16  1  0
 16 17  2  0
 18 19  1  1
 18 31  1  0
 19 20  1  0
 20 21  1  0
 21 22  1  0
 21 30  2  0
 22 23  1  0
 23 24  1  0
 24 25  2  0
 24 28  1  0
 25 26  1  0
 26 27  2  0
 27 28  1  0
 28 29  1  0
 30 31  1  0
 30 34  1  0
 31 32  1  0
 32 33  2  0
 34 35  1  0
 34 36  2  0
M  END
>  <DRUGBANK_ID>  (1) 
DB04342

>  <SECONDARY_ACCESSION_NUMBERS>  (1) 
EXPT02261

>  <COMMON_NAME>  (1) 
7-((Carboxy(4-Hydroxyphenyl)Acetyl)Amino)-7-Methoxy-(3-((1-Methyl-1h-Tetrazol-5-Yl)Thio)Methyl)-8-Oxo-5-Oxa-1-Azabicyclo[4.2.0]Oct-2-Ene-2-Carboxylic Acid

$$$$
