
     RDKit          2D

 18 19  0  0  1  0  0  0  0  0999 V2000
   -0.1256    3.8547    0.0000 C   0  0  0  0  0  0  0  0  0  0  0  0
   -2.6556    4.7339    0.0000 C   0  0  0  0  0  0  0  0  0  0  0  0
   -0.9263    2.6217    0.0000 C   0  0  0  0  0  0  0  0  0  0  0  0
    0.5889    3.4422    0.0000 C   0  0  0  0  0  0  0  0  0  0  0  0
   -2.1457    3.1647    0.0000 C   0  0  0  0  0  0  0  0  0  0  0  0
    1.3034    3.8547    0.0000 C   0  0  0  0  0  0  0  0  0  0  0  0
   -2.9527    3.3362    0.0000 C   0  0  0  0  0  0  0  0  0  0  0  0
   -1.5937    3.7777    0.0000 C   0  0  0  0  0  0  0  0  0  0  0  0
    2.0178    3.4422    0.0000 C   0  0  0  0  0  0  0  0  0  0  0  0
   -3.5047    2.7231    0.0000 N   0  0  0  0  0  0  0  0  0  0  0  0
   -3.2077    4.1208    0.0000 N   0  0  0  0  0  0  0  0  0  0  0  0
   -1.8487    4.5624    0.0000 N   0  0  0  0  0  0  0  0  0  0  0  0
   -1.7332    2.4502    0.0000 N   0  0  0  0  0  0  0  0  0  0  0  0
   -0.8400    3.4422    0.0000 N   0  0  0  0  0  0  0  0  0  0  0  0
    0.5889    2.6172    0.0000 O   0  0  0  0  0  0  0  0  0  0  0  0
    1.3034    4.6797    0.0000 O   0  0  0  0  0  0  0  0  0  0  0  0
    2.7323    3.8547    0.0000 O   0  0  0  0  0  0  0  0  0  0  0  0
    2.0178    2.6172    0.0000 O   0  0  0  0  0  0  0  0  0  0  0  0
  4  1  1  0
  4 15  1  6
  6  4  1  0
  6 16  1  1
  7  5  2  0
  8  5  1  0
  9  6  1  0
 10  7  1  0
 11  2  2  0
 11  7  1  0
 12  2  1  0
 12  8  2  0
 13  3  2  0
 13  5  1  0
 14  1  1  0
 14  3  1  0
 14  8  1  0
 17  9  2  0
 18  9  1  0
M  END
>  <DRUGBANK_ID>  (1) 
DB03769

>  <SECONDARY_ACCESSION_NUMBERS>  (1) 
EXPT01152

>  <COMMON_NAME>  (1) 
D-Eritadenine

>  <CAS_NUMBER>  (1) 
23918-98-1

>  <UNII>  (1) 
41T27K4B9F

>  <SYNONYMS>  (1) 
Eritadenine; Lentinacin; Lentysine

$$$$
