
     RDKit          2D

 14 15  0  0  0  0  0  0  0  0999 V2000
   -1.4543   -0.2731    0.0000 C   0  0  0  0  0  0  0  0  0  0  0  0
   -2.1687   -0.6856    0.0000 C   0  0  0  0  0  0  0  0  0  0  0  0
   -2.1687   -1.5105    0.0000 C   0  0  0  0  0  0  0  0  0  0  0  0
   -1.4543   -1.9231    0.0000 C   0  0  0  0  0  0  0  0  0  0  0  0
   -0.7397   -1.5105    0.0000 C   0  0  0  0  0  0  0  0  0  0  0  0
    0.0448   -1.7656    0.0000 N   0  0  0  0  0  0  0  0  0  0  0  0
    0.5297   -1.0981    0.0000 C   0  0  0  0  0  0  0  0  0  0  0  0
    0.0448   -0.4307    0.0000 C   0  0  0  0  0  0  0  0  0  0  0  0
   -0.7397   -0.6856    0.0000 C   0  0  0  0  0  0  0  0  0  0  0  0
    0.2998    0.3539    0.0000 C   0  0  0  0  0  0  0  0  0  0  0  0
    1.1067    0.5254    0.0000 C   0  0  0  0  0  0  0  0  0  0  0  0
    1.3617    1.3101    0.0000 C   0  0  0  0  0  0  0  0  0  0  0  0
    2.1687    1.4816    0.0000 O   0  0  0  0  0  0  0  0  0  0  0  0
    0.8097    1.9231    0.0000 O   0  0  0  0  0  0  0  0  0  0  0  0
  1  2  2  0
  1  9  1  0
  2  3  1  0
  3  4  2  0
  4  5  1  0
  5  6  1  0
  5  9  2  0
  6  7  1  0
  7  8  2  0
  8  9  1  0
  8 10  1  0
 10 11  1  0
 11 12  1  0
 12 13  1  0
 12 14  2  0
M  END
>  <DRUGBANK_ID>  (1) 
DB02758

>  <SECONDARY_ACCESSION_NUMBERS>  (1) 
EXPT01908

>  <COMMON_NAME>  (1) 
Indolepropionic acid

>  <CAS_NUMBER>  (1) 
830-96-6

>  <UNII>  (1) 
JF49U1Q7KN

>  <SYNONYMS>  (1) 
1H-Indole-3-propionic acid; 3-(3-Indole)propionic acid; 3-(3-Indolyl)propanoic acid; 3-(3-Indolyl)propionic acid; 3-(Indol-3-yl)propionic acid; 3-indolepropionic acid; beta-Indolylpropionate; Indole-3-propionic acid; Indolylpropionic acid

$$$$
