
     RDKit          2D

 29 32  0  0  0  0  0  0  0  0999 V2000
    0.1416    2.9976    0.0000 C   0  0  0  0  0  0  0  0  0  0  0  0
    0.9223    2.8441    0.0000 C   0  0  0  0  0  0  0  0  0  0  0  0
    1.8452    2.0710    0.0000 C   0  0  0  0  0  0  0  0  0  0  0  0
    1.8452    1.3649    0.0000 C   0  0  0  0  0  0  0  0  0  0  0  0
    1.3124    0.9039    0.0000 C   0  0  0  0  0  0  0  0  0  0  0  0
    0.0393    1.3809    0.0000 C   0  0  0  0  0  0  0  0  0  0  0  0
   -0.4773    1.9166    0.0000 C   0  0  0  0  0  0  0  0  0  0  0  0
   -0.4773    2.6389    0.0000 C   0  0  0  0  0  0  0  0  0  0  0  0
   -1.1001    2.9976    0.0000 N   0  0  0  0  0  0  0  0  0  0  0  0
   -1.7153    2.6389    0.0000 C   0  0  0  0  0  0  0  0  0  0  0  0
   -1.7153    1.9166    0.0000 C   0  0  0  0  0  0  0  0  0  0  0  0
   -1.1001    1.5579    0.0000 C   0  0  0  0  0  0  0  0  0  0  0  0
   -2.4307    3.0498    0.0000 O   0  0  0  0  0  0  0  0  0  0  0  0
    0.7682    1.9290    0.0000 C   0  0  0  0  0  0  0  0  0  0  0  0
    1.4730    1.5002    0.0000 C   0  0  0  0  0  0  0  0  0  0  0  0
    2.1969    1.8962    0.0000 C   0  0  0  0  0  0  0  0  0  0  0  0
   -0.4135    0.6912    0.0000 N   0  0  0  0  0  0  0  0  0  0  0  0
   -0.0425   -0.0457    0.0000 C   0  0  0  0  0  0  0  0  0  0  0  0
   -0.4953   -0.7354    0.0000 C   0  0  0  0  0  0  0  0  0  0  0  0
   -1.3190   -0.6881    0.0000 C   0  0  0  0  0  0  0  0  0  0  0  0
   -1.7718   -1.3778    0.0000 C   0  0  0  0  0  0  0  0  0  0  0  0
   -1.4008   -2.1148    0.0000 C   0  0  0  0  0  0  0  0  0  0  0  0
   -0.5773   -2.1621    0.0000 C   0  0  0  0  0  0  0  0  0  0  0  0
   -0.1244   -1.4724    0.0000 C   0  0  0  0  0  0  0  0  0  0  0  0
    0.6992   -1.5196    0.0000 O   0  0  0  0  0  0  0  0  0  0  0  0
   -0.2064   -2.8990    0.0000 O   0  0  0  0  0  0  0  0  0  0  0  0
   -0.6592   -3.5887    0.0000 C   0  0  0  0  0  0  0  0  0  0  0  0
   -2.5955   -1.3305    0.0000 Cl  0  0  0  0  0  0  0  0  0  0  0  0
    2.5955    1.0218    0.0000 C   0  0  0  0  0  0  0  0  0  0  0  0
  2  1  1  6
  1  8  1  0
  2  3  1  0
  2 14  1  0
  3  4  2  0
  4 29  1  0
  5  4  1  0
  6  5  1  0
  6 14  1  0
  6 17  1  1
  7  6  1  0
  7 12  1  0
  8  7  2  0
  8  9  1  0
  9 10  1  0
 10 11  1  0
 10 13  2  0
 11 12  2  0
 14 15  2  0
 15 16  1  0
 17 18  2  0
 18 19  1  0
 19 24  1  0
 20 19  2  0
 21 20  1  0
 21 28  1  0
 22 21  2  0
 23 22  1  0
 23 26  1  0
 24 23  2  0
 24 25  1  0
 26 27  1  0
M  END
>  <DRUGBANK_ID>  (1) 
DB05520

>  <COMMON_NAME>  (1) 
Mimopezil

>  <CAS_NUMBER>  (1) 
180694-97-7

>  <UNII>  (1) 
4MU6P880QL

>  <SYNONYMS>  (1) 
Mimopezil; Mimop√©zil; Mimopezilo; Mimopezilum; N-(2-Hydroxy-3-methoxy-5-chlorobenzylidene)huperzine A

$$$$
