
     RDKit          2D

 31 37  0  0  0  0  0  0  0  0999 V2000
    0.4104    0.9572    0.0000 C   0  0  0  0  0  0  0  0  0  0  0  0
    0.0256    0.2433    0.0000 C   0  0  0  0  0  0  0  0  0  0  0  0
    0.0000    1.6627    0.0000 C   0  0  0  0  0  0  0  0  0  0  0  0
    1.2441    0.9572    0.0000 C   0  0  0  0  0  0  0  0  0  0  0  0
   -0.8208    1.6627    0.0000 C   0  0  0  0  0  0  0  0  0  0  0  0
    1.6674    1.6798    0.0000 C   0  0  0  0  0  0  0  0  0  0  0  0
    0.8080    2.1929    0.0000 O   0  0  0  0  0  0  0  0  0  0  0  0
    0.4104   -0.4536    0.0000 C   0  0  0  0  0  0  0  0  0  0  0  0
   -1.2099    0.9443    0.0000 C   0  0  0  0  0  0  0  0  0  0  0  0
    0.0898   -1.1417    0.0000 N   0  0  0  0  0  0  0  0  0  0  0  0
    1.6674    0.2433    0.0000 C   0  0  0  0  0  0  0  0  0  0  0  0
   -0.7994    0.2433    0.0000 C   0  0  0  0  0  0  0  0  0  0  0  0
    1.2441   -0.4536    0.0000 C   0  0  0  0  0  0  0  0  0  0  0  0
   -0.1154    0.9572    0.0000 C   0  0  0  0  0  0  0  0  0  0  0  0
   -0.6413    0.9572    0.0000 C   0  0  0  0  0  0  0  0  0  0  0  0
    0.8721    0.3459    0.0000 C   0  0  0  0  0  0  0  0  0  0  0  0
   -2.0522    0.9572    0.0000 C   0  0  0  0  0  0  0  0  0  0  0  0
    0.0898   -2.1337    0.0000 C   0  0  0  0  0  0  0  0  0  0  0  0
    2.5138    1.6798    0.0000 C   0  0  0  0  0  0  0  0  0  0  0  0
    0.8935   -2.1337    0.0000 C   0  0  0  0  0  0  0  0  0  0  0  0
    0.8721   -1.1417    0.0000 C   0  0  0  0  0  0  0  0  0  0  0  0
    1.6245   -2.6211    0.0000 C   0  0  0  0  0  0  0  0  0  0  0  0
    1.6245   -1.6207    0.0000 C   0  0  0  0  0  0  0  0  0  0  0  0
    2.5138    0.2433    0.0000 C   0  0  0  0  0  0  0  0  0  0  0  0
   -1.1714    2.2826    0.0000 O   0  0  0  0  0  0  0  0  0  0  0  0
    2.9114    0.9443    0.0000 C   0  0  0  0  0  0  0  0  0  0  0  0
   -2.9371    0.9572    0.0000 O   0  0  0  0  0  0  0  0  0  0  0  0
    2.9371    2.3938    0.0000 O   0  0  0  0  0  0  0  0  0  0  0  0
   -2.4497    0.1920    0.0000 C   0  0  0  0  0  0  0  0  0  0  0  0
   -2.4925    1.6498    0.0000 C   0  0  0  0  0  0  0  0  0  0  0  0
   -2.0522    2.2826    0.0000 C   0  0  0  0  0  0  0  0  0  0  0  0
  1  4  1  0
  1 16  1  1
  2  1  1  0
  2 12  1  1
  2 14  1  0
  3  1  1  0
  3  7  1  6
  5  3  1  0
  5 15  1  0
  5 25  1  6
  6  4  2  0
  6  7  1  0
  8  2  1  0
  8 10  1  0
  8 13  1  1
  9  5  1  0
  9 17  1  6
 10 21  1  0
 11  4  1  0
 12  9  1  0
 13 11  1  0
 14 15  1  0
 18 10  1  0
 19  6  1  0
 19 26  2  0
 20 18  1  0
 21 16  1  0
 22 20  1  0
 22 23  1  0
 23 20  1  0
 24 11  2  0
 26 24  1  0
 27 17  1  0
 28 19  1  0
 29 17  1  0
 30 17  1  0
 31 25  1  0
M  END
>  <DRUGBANK_ID>  (1) 
DB01548

>  <COMMON_NAME>  (1) 
Diprenorphine

>  <CAS_NUMBER>  (1) 
14357-78-9

>  <UNII>  (1) 
1F0L5N25ZZ

>  <SYNONYMS>  (1) 
Diprenorfin; Diprenorphine

$$$$
