MUF
     RDKit          2D

 31 35  0  0  0  0  0  0  0  0999 V2000
    1.9086    0.0647    0.0000 C   0  0  0  0  0  0  0  0  0  0  0  0
    2.7207   -0.0805    0.0000 C   0  0  0  0  0  0  0  0  0  0  0  0
    3.0010   -0.8564    0.0000 C   0  0  0  0  0  0  0  0  0  0  0  0
    2.4692   -1.4872    0.0000 C   0  0  0  0  0  0  0  0  0  0  0  0
    1.6571   -1.3419    0.0000 C   0  0  0  0  0  0  0  0  0  0  0  0
    1.1252   -1.9727    0.0000 C   0  0  0  0  0  0  0  0  0  0  0  0
    0.3131   -1.8274    0.0000 C   0  0  0  0  0  0  0  0  0  0  0  0
    0.0328   -1.0515    0.0000 C   0  0  0  0  0  0  0  0  0  0  0  0
    0.5646   -0.4208    0.0000 C   0  0  0  0  0  0  0  0  0  0  0  0
    1.3768   -0.5660    0.0000 C   0  0  0  0  0  0  0  0  0  0  0  0
    0.2843    0.3551    0.0000 C   0  0  0  0  0  0  0  0  0  0  0  0
   -0.5278    0.5003    0.0000 C   0  0  0  0  0  0  0  0  0  0  0  0
   -1.0596   -0.1304    0.0000 C   0  0  0  0  0  0  0  0  0  0  0  0
   -0.7793   -0.9063    0.0000 C   0  0  0  0  0  0  0  0  0  0  0  0
   -1.4306   -1.4127    0.0000 C   0  0  0  0  0  0  0  0  0  0  0  0
   -2.1135   -0.9497    0.0000 C   0  0  0  0  0  0  0  0  0  0  0  0
   -1.8842   -0.1572    0.0000 C   0  0  0  0  0  0  0  0  0  0  0  0
   -1.4195    0.6120    0.0000 C   0  0  0  0  0  0  0  0  0  0  0  0
    1.0965    0.2099    0.0000 C   0  0  0  0  0  0  0  0  0  0  0  0
   -2.3905    0.4941    0.0000 C   0  0  0  0  0  0  0  0  0  0  0  0
   -3.2078    0.3813    0.0000 O   0  0  0  0  0  0  0  0  0  0  0  0
    3.8131   -1.0017    0.0000 C   0  0  0  0  0  0  0  0  0  0  0  0
    4.0934   -1.7776    0.0000 O   0  0  0  0  0  0  0  0  0  0  0  0
    4.3449   -0.3710    0.0000 O   0  0  0  0  0  0  0  0  0  0  0  0
   -2.0796    1.2583    0.0000 C   0  0  0  0  0  0  0  0  0  0  0  0
   -2.5860    1.9097    0.0000 C   0  0  0  0  0  0  0  0  0  0  0  0
   -2.2751    2.6738    0.0000 C   0  0  0  0  0  0  0  0  0  0  0  0
   -1.4578    2.7867    0.0000 C   0  0  0  0  0  0  0  0  0  0  0  0
   -0.9515    2.1354    0.0000 C   0  0  0  0  0  0  0  0  0  0  0  0
   -1.2624    1.3712    0.0000 C   0  0  0  0  0  0  0  0  0  0  0  0
   -1.1469    3.5509    0.0000 O   0  0  0  0  0  0  0  0  0  0  0  0
  1  2  1  0
  2  3  1  0
  3  4  2  0
  3 22  1  0
  5  4  1  0
  5  6  2  0
  7  6  1  0
  8  7  1  1
  9  8  1  0
  9 10  1  0
 10  1  1  0
 10  5  1  0
 10 19  1  6
  9 11  1  6
 12 11  1  0
 12 13  1  0
 13 14  1  0
 13 18  1  6
 14  8  1  0
 14 15  1  6
 16 15  1  0
 17 13  1  0
 17 16  1  0
 17 20  1  6
 21 20  2  0
 22 24  1  0
 23 22  2  0
 25 20  1  0
 25 26  2  0
 27 26  1  0
 28 27  2  0
 29 28  1  0
 29 30  2  0
 30 25  1  0
 31 28  1  0
M  END
>  <DRUGBANK_ID>  (1) 
DB08220

>  <COMMON_NAME>  (1) 
(8alpha,10alpha,13alpha,17beta)-17-[(4-hydroxyphenyl)carbonyl]androsta-3,5-diene-3-carboxylic acid

$$$$
