
     RDKit          2D

 36 40  0  0  1  0  0  0  0  0999 V2000
   14.0744  -13.0487    0.0000 C   0  0  0  0  0  0  0  0  0  0  0  0
   14.4869  -12.3348    0.0000 C   0  0  0  0  0  0  0  0  0  0  0  0
   14.0744  -11.6202    0.0000 N   0  0  0  0  0  0  0  0  0  0  0  0
   14.4869  -10.9057    0.0000 C   0  0  0  0  0  0  0  0  0  0  0  0
   14.0744  -10.1912    0.0000 C   0  0  0  0  0  0  0  0  0  0  0  0
   13.2494  -10.1912    0.0000 N   0  0  0  0  0  0  0  0  0  0  0  0
   12.8370  -10.9057    0.0000 C   0  0  0  0  0  0  0  0  0  0  0  0
   13.2494  -11.6202    0.0000 C   0  0  0  0  0  0  0  0  0  0  0  0
   12.8370   -9.4766    0.0000 C   0  0  0  0  0  0  0  0  0  0  0  0
   13.2494   -8.7627    0.0000 C   0  0  0  0  0  0  0  0  0  0  0  0
   12.8370   -8.0481    0.0000 C   0  0  0  0  0  0  0  0  0  0  0  0
   12.0120   -8.0481    0.0000 C   0  0  0  0  0  0  0  0  0  0  0  0
   11.5995   -8.7627    0.0000 C   0  0  0  0  0  0  0  0  0  0  0  0
   12.0120   -9.4766    0.0000 C   0  0  0  0  0  0  0  0  0  0  0  0
   11.5995   -7.3336    0.0000 O   0  0  0  0  0  0  0  0  0  0  0  0
   10.7746   -7.3336    0.0000 C   0  0  0  0  0  0  0  0  0  0  0  0
   10.3621   -6.6191    0.0000 C   0  0  0  0  0  0  0  0  0  0  0  0
   10.6977   -5.8654    0.0000 C   0  0  0  0  0  0  0  0  0  0  0  0
   10.0848   -5.3134    0.0000 O   0  0  0  0  0  0  0  0  0  0  0  0
    9.3703   -5.7259    0.0000 C   0  0  0  0  0  0  0  0  0  0  0  0
    8.8853   -5.0585    0.0000 C   0  0  0  0  0  0  0  0  0  0  0  0
    9.2208   -4.3048    0.0000 N   0  0  0  0  0  0  0  0  0  0  0  0
   10.0278   -4.1337    0.0000 C   0  0  0  0  0  0  0  0  0  0  0  0
   10.1140   -3.3130    0.0000 C   0  0  0  0  0  0  0  0  0  0  0  0
    9.3604   -2.9775    0.0000 N   0  0  0  0  0  0  0  0  0  0  0  0
    8.8084   -3.5903    0.0000 C   0  0  0  0  0  0  0  0  0  0  0  0
    8.5497   -5.8121    0.0000 C   0  0  0  0  0  0  0  0  0  0  0  0
    8.0646   -5.1447    0.0000 C   0  0  0  0  0  0  0  0  0  0  0  0
    7.2447   -5.2309    0.0000 C   0  0  0  0  0  0  0  0  0  0  0  0
    6.9091   -5.9845    0.0000 C   0  0  0  0  0  0  0  0  0  0  0  0
    7.3935   -6.6520    0.0000 C   0  0  0  0  0  0  0  0  0  0  0  0
    8.2142   -6.5657    0.0000 C   0  0  0  0  0  0  0  0  0  0  0  0
    8.6992   -7.2331    0.0000 Cl  0  0  0  0  0  0  0  0  0  0  0  0
    6.0885   -6.0708    0.0000 Cl  0  0  0  0  0  0  0  0  0  0  0  0
    9.5415   -6.5328    0.0000 O   0  0  0  0  0  0  0  0  0  0  0  0
   15.3118  -12.3348    0.0000 O   0  0  0  0  0  0  0  0  0  0  0  0
  1  2  1  0
  2  3  1  0
  2 36  2  0
  3  4  1  0
  3  8  1  0
  4  5  1  0
  5  6  1  0
  6  7  1  0
  6  9  1  0
  7  8  1  0
  9 10  2  0
  9 14  1  0
 10 11  1  0
 11 12  2  0
 12 13  1  0
 12 15  1  0
 13 14  2  0
 15 16  1  0
 17 16  1  1
 17 18  1  0
 17 35  1  0
 18 19  1  0
 19 20  1  0
 20 21  1  1
 20 27  1  0
 20 35  1  0
 21 22  1  0
 22 23  1  0
 22 26  1  0
 23 24  2  0
 24 25  1  0
 25 26  2  0
 27 28  2  0
 27 32  1  0
 28 29  1  0
 29 30  2  0
 30 31  1  0
 30 34  1  0
 31 32  2  0
 32 33  1  0
M  END
>  <DRUGBANK_ID>  (1) 
DB05667

>  <COMMON_NAME>  (1) 
Levoketoconazole

>  <CAS_NUMBER>  (1) 
142128-57-2

>  <UNII>  (1) 
2DJ8R0NT7K

>  <SYNONYMS>  (1) 
Levoketoconazole

$$$$
