BPS
     RDKit          2D

 15 16  0  0  0  0  0  0  0  0999 V2000
   -1.0835    0.2347    0.0000 C   0  0  0  0  0  0  0  0  0  0  0  0
   -0.3691   -0.1778    0.0000 C   0  0  0  0  0  0  0  0  0  0  0  0
   -0.3691   -1.0028    0.0000 C   0  0  0  0  0  0  0  0  0  0  0  0
   -1.0835   -1.4153    0.0000 C   0  0  0  0  0  0  0  0  0  0  0  0
   -1.7980   -1.0028    0.0000 C   0  0  0  0  0  0  0  0  0  0  0  0
   -1.7980   -0.1778    0.0000 C   0  0  0  0  0  0  0  0  0  0  0  0
    0.3454    0.2347    0.0000 C   0  0  0  0  0  0  0  0  0  0  0  0
    0.3454    1.0597    0.0000 C   0  0  0  0  0  0  0  0  0  0  0  0
    1.0599    1.4722    0.0000 C   0  0  0  0  0  0  0  0  0  0  0  0
    1.7743    1.0597    0.0000 C   0  0  0  0  0  0  0  0  0  0  0  0
    1.7743    0.2347    0.0000 C   0  0  0  0  0  0  0  0  0  0  0  0
    1.0599   -0.1778    0.0000 C   0  0  0  0  0  0  0  0  0  0  0  0
    0.3454   -1.4153    0.0000 S   0  0  0  0  0  0  0  0  0  0  0  0
    0.3454   -2.2403    0.0000 O   0  0  0  0  0  0  0  0  0  0  0  0
    1.0599   -1.0028    0.0000 O   0  0  0  0  0  0  0  0  0  0  0  0
  1  2  2  0
  1  6  1  0
  2  3  1  0
  2  7  1  0
  3  4  2  0
  3 13  1  0
  4  5  1  0
  5  6  2  0
  7  8  2  0
  7 12  1  0
  8  9  1  0
  9 10  2  0
 10 11  1  0
 11 12  2  0
 13 14  1  0
 13 15  2  0
M  END
>  <DRUGBANK_ID>  (1) 
DB07483

>  <COMMON_NAME>  (1) 
1,1'-BIPHENYL-2-SULFINIC ACID

$$$$
