
     RDKit          2D

 17 17  0  0  1  0  0  0  0  0999 V2000
   19.0837  -11.5890    0.0000 O   0  0  0  0  0  0  0  0  0  0  0  0
   18.3137  -11.8325    0.0000 C   0  0  0  0  0  0  0  0  0  0  0  0
   17.6396  -11.3309    0.0000 O   0  0  0  0  0  0  0  0  0  0  0  0
   18.0591  -12.5752    0.0000 C   0  0  0  0  0  0  0  0  0  0  0  0
   16.9871  -11.7982    0.0000 C   0  0  0  0  0  0  0  0  0  0  0  0
   17.2410  -12.5752    0.0000 C   0  0  0  0  0  0  0  0  0  0  0  0
   18.3035  -13.3657    0.0000 O   0  0  0  0  0  0  0  0  0  0  0  0
   16.2170  -11.5580    0.0000 C   0  0  0  0  0  0  0  0  0  0  0  0
   16.9768  -13.3624    0.0000 O   0  0  0  0  0  0  0  0  0  0  0  0
   15.5567  -12.0529    0.0000 S   0  0  0  0  0  0  0  0  0  0  0  0
   14.8389  -11.6369    0.0000 C   0  0  0  0  0  0  0  0  0  0  0  0
   14.1203  -12.0495    0.0000 C   0  0  0  0  0  0  0  0  0  0  0  0
   13.4051  -11.6369    0.0000 C   0  0  0  0  0  0  0  0  0  0  0  0
   12.6866  -12.0495    0.0000 C   0  0  0  0  0  0  0  0  0  0  0  0
   13.4051  -10.8052    0.0000 N   0  0  0  0  0  0  0  0  0  0  0  0
   11.9723  -11.6369    0.0000 O   0  0  0  0  0  0  0  0  0  0  0  0
   12.6866  -12.8778    0.0000 O   0  0  0  0  0  0  0  0  0  0  0  0
  2  1  1  1
  2  3  1  0
  2  4  1  0
  3  5  1  0
  4  6  1  0
  4  7  1  6
  5  8  1  1
  5  6  1  0
  6  9  1  6
  8 10  1  0
 10 11  1  0
 11 12  1  0
 12 13  1  0
 13 14  1  0
 13 15  1  1
 14 16  1  0
 14 17  2  0
M  END
>  <DRUGBANK_ID>  (1) 
DB02321

>  <SECONDARY_ACCESSION_NUMBERS>  (1) 
EXPT02779

>  <COMMON_NAME>  (1) 
5-(3-Amino-4,4-Dihyroxy-Butylsulfanylmethyl)-Tetrahydro-Furan-2,3,4-Triol

$$$$
