EMD
     RDKit          2D

 30 33  0  0  0  0  0  0  0  0999 V2000
   -3.4104   -2.8288    0.0000 S   0  0  0  0  0  0  0  0  0  0  0  0
   -4.1249   -2.4163    0.0000 C   0  0  0  0  0  0  0  0  0  0  0  0
   -4.8394   -2.8288    0.0000 O   0  0  0  0  0  0  0  0  0  0  0  0
   -4.1249   -1.5913    0.0000 N   0  0  0  0  0  0  0  0  0  0  0  0
   -3.4104   -1.1788    0.0000 N   0  0  0  0  0  0  0  0  0  0  0  0
   -2.6960   -1.5913    0.0000 C   0  0  0  0  0  0  0  0  0  0  0  0
   -2.6960   -2.4163    0.0000 C   0  0  0  0  0  0  0  0  0  0  0  0
   -1.9815   -2.8288    0.0000 C   0  0  0  0  0  0  0  0  0  0  0  0
   -1.9815   -1.1788    0.0000 C   0  0  0  0  0  0  0  0  0  0  0  0
   -1.2670   -1.5913    0.0000 C   0  0  0  0  0  0  0  0  0  0  0  0
   -0.5526   -1.1788    0.0000 C   0  0  0  0  0  0  0  0  0  0  0  0
   -0.5526   -0.3538    0.0000 C   0  0  0  0  0  0  0  0  0  0  0  0
   -1.2670    0.0587    0.0000 C   0  0  0  0  0  0  0  0  0  0  0  0
   -1.9815   -0.3538    0.0000 C   0  0  0  0  0  0  0  0  0  0  0  0
    0.1619    0.0587    0.0000 N   0  0  0  0  0  0  0  0  0  0  0  0
    0.8764   -0.3538    0.0000 C   0  0  0  0  0  0  0  0  0  0  0  0
    0.8764   -1.1788    0.0000 C   0  0  0  0  0  0  0  0  0  0  0  0
    0.1619   -1.5913    0.0000 C   0  0  0  0  0  0  0  0  0  0  0  0
    0.1619    0.8837    0.0000 C   0  0  0  0  0  0  0  0  0  0  0  0
   -0.5526    1.2962    0.0000 O   0  0  0  0  0  0  0  0  0  0  0  0
    0.8764    1.2962    0.0000 C   0  0  0  0  0  0  0  0  0  0  0  0
    0.8764    2.1212    0.0000 C   0  0  0  0  0  0  0  0  0  0  0  0
    1.5909    2.5337    0.0000 C   0  0  0  0  0  0  0  0  0  0  0  0
    1.5909    3.3587    0.0000 O   0  0  0  0  0  0  0  0  0  0  0  0
    2.3053    2.1212    0.0000 C   0  0  0  0  0  0  0  0  0  0  0  0
    3.0198    2.5337    0.0000 O   0  0  0  0  0  0  0  0  0  0  0  0
    2.3053    1.2962    0.0000 C   0  0  0  0  0  0  0  0  0  0  0  0
    1.5909    0.8837    0.0000 C   0  0  0  0  0  0  0  0  0  0  0  0
    2.3053    3.7712    0.0000 C   0  0  0  0  0  0  0  0  0  0  0  0
    3.0198    3.3587    0.0000 C   0  0  0  0  0  0  0  0  0  0  0  0
  1  2  1  0
  1  7  1  0
  2  3  2  0
  2  4  1  0
  4  5  1  0
  5  6  2  0
  6  7  1  0
  6  9  1  0
  7  8  1  1
  9 10  2  0
  9 14  1  0
 10 11  1  0
 11 12  2  0
 11 18  1  0
 12 13  1  0
 12 15  1  0
 13 14  2  0
 15 16  1  0
 15 19  1  0
 16 17  1  0
 17 18  1  0
 19 20  2  0
 19 21  1  0
 21 22  2  0
 21 28  1  0
 22 23  1  0
 23 24  1  0
 23 25  2  0
 24 29  1  0
 25 26  1  0
 25 27  1  0
 26 30  1  0
 27 28  2  0
M  END
>  <DRUGBANK_ID>  (1) 
DB03944

>  <SECONDARY_ACCESSION_NUMBERS>  (1) 
EXPT01339

>  <COMMON_NAME>  (1) 
5-[1-(3,4-Dimethoxy-Benzoyl)-1,2,3,4-Tetrahydro-Quinolin-6-Yl]-6-Methyl-3,6-Dihydro-[1,3,4]Thiadiazin-2-One

$$$$
