
     RDKit          2D

 22 24  0  0  1  0  0  0  0  0999 V2000
    3.5724    2.0625    0.0000 C   0  0  0  0  0  0  0  0  0  0  0  0
    1.4289    0.8250    0.0000 C   0  0  0  0  0  0  0  0  0  0  0  0
    2.1434    1.2375    0.0000 C   0  0  0  0  0  0  0  0  0  0  0  0
    4.2868    0.8250    0.0000 C   0  0  0  0  0  0  0  0  0  0  0  0
    2.1434   -0.4125    0.0000 C   0  0  0  0  0  0  0  0  0  0  0  0
   -0.7145    1.2375    0.0000 C   0  0  0  0  0  0  0  0  0  0  0  0
    3.5724    1.2375    0.0000 C   0  0  0  0  0  0  0  0  0  0  0  0
    1.4289    0.0000    0.0000 C   0  0  0  0  0  0  0  0  0  0  0  0
    2.8579    0.8250    0.0000 C   0  0  0  0  0  0  0  0  0  0  0  0
   -1.4289    0.8250    0.0000 C   0  0  0  0  0  0  0  0  0  0  0  0
    2.8579    0.0000    0.0000 C   0  0  0  0  0  0  0  0  0  0  0  0
    4.2868    0.0000    0.0000 C   0  0  0  0  0  0  0  0  0  0  0  0
   -1.4289   -0.0000    0.0000 C   0  0  0  0  0  0  0  0  0  0  0  0
   -0.7145   -0.4125    0.0000 C   0  0  0  0  0  0  0  0  0  0  0  0
    0.0000   -0.0000    0.0000 C   0  0  0  0  0  0  0  0  0  0  0  0
   -2.1434    1.2375    0.0000 O   0  0  0  0  0  0  0  0  0  0  0  0
    5.0013   -0.4125    0.0000 O   0  0  0  0  0  0  0  0  0  0  0  0
   -2.1434   -0.4125    0.0000 O   0  0  0  0  0  0  0  0  0  0  0  0
   -0.7145   -1.2375    0.0000 O   0  0  0  0  0  0  0  0  0  0  0  0
    0.7145   -0.4125    0.0000 O   0  0  0  0  0  0  0  0  0  0  0  0
    3.5724   -0.4125    0.0000 O   0  0  0  0  0  0  0  0  0  0  0  0
   -0.0000    0.8250    0.0000 S   0  0  0  0  0  0  0  0  0  0  0  0
  3  2  2  0
  7  1  1  0
  7  4  2  0
  8  2  1  0
  8  5  2  0
  9  3  1  0
  9  7  1  0
 10  6  1  0
 10 16  1  6
 11  5  1  0
 11  9  2  0
 12  4  1  0
 13 10  1  0
 13 18  1  1
 14 13  1  0
 14 19  1  6
 15 14  1  0
 15 20  1  1
 17 12  2  0
 20  8  1  0
 21 11  1  0
 21 12  1  0
 22  6  1  0
 22 15  1  0
M  END
>  <DRUGBANK_ID>  (1) 
DB06609

>  <COMMON_NAME>  (1) 
Odiparcil

>  <CAS_NUMBER>  (1) 
137215-12-4

>  <UNII>  (1) 
FIK1414ZI8

>  <SYNONYMS>  (1) 
Odiparcil

$$$$
