BVL
     RDKit          2D

 25 26  0  0  0  0  0  0  0  0999 V2000
   -3.2984   -0.8559    0.0000 C   0  0  0  0  0  0  0  0  0  0  0  0
   -4.0129   -2.0934    0.0000 C   0  0  0  0  0  0  0  0  0  0  0  0
   -3.2984   -2.5059    0.0000 C   0  0  0  0  0  0  0  0  0  0  0  0
   -2.5840   -2.0934    0.0000 C   0  0  0  0  0  0  0  0  0  0  0  0
   -1.1550    1.2066    0.0000 O   0  0  0  0  0  0  0  0  0  0  0  0
   -1.1550    0.3816    0.0000 C   0  0  0  0  0  0  0  0  0  0  0  0
   -1.8695   -0.0309    0.0000 C   0  0  0  0  0  0  0  0  0  0  0  0
   -1.8695   -0.8559    0.0000 C   0  0  0  0  0  0  0  0  0  0  0  0
   -2.5840   -1.2684    0.0000 C   0  0  0  0  0  0  0  0  0  0  0  0
   -4.0129   -1.2684    0.0000 C   0  0  0  0  0  0  0  0  0  0  0  0
   -4.7274   -2.5059    0.0000 O   0  0  0  0  0  0  0  0  0  0  0  0
   -0.4406   -0.0309    0.0000 C   0  0  0  0  0  0  0  0  0  0  0  0
   -0.4406   -0.8559    0.0000 C   0  0  0  0  0  0  0  0  0  0  0  0
   -1.1550   -1.2684    0.0000 O   0  0  0  0  0  0  0  0  0  0  0  0
    0.2739   -1.2684    0.0000 C   0  0  0  0  0  0  0  0  0  0  0  0
    0.9884   -0.8559    0.0000 C   0  0  0  0  0  0  0  0  0  0  0  0
    1.7029   -1.2684    0.0000 O   0  0  0  0  0  0  0  0  0  0  0  0
    2.4173   -0.8559    0.0000 C   0  0  0  0  0  0  0  0  0  0  0  0
    0.9884   -0.0309    0.0000 C   0  0  0  0  0  0  0  0  0  0  0  0
    0.2739    0.3816    0.0000 C   0  0  0  0  0  0  0  0  0  0  0  0
    1.7029    0.3816    0.0000 C   0  0  0  0  0  0  0  0  0  0  0  0
    1.7029    1.2066    0.0000 C   0  0  0  0  0  0  0  0  0  0  0  0
    2.4173    1.6191    0.0000 C   0  0  0  0  0  0  0  0  0  0  0  0
    2.4173    2.4441    0.0000 C   0  0  0  0  0  0  0  0  0  0  0  0
    3.1318    1.2066    0.0000 C   0  0  0  0  0  0  0  0  0  0  0  0
  1  9  2  0
  2  3  1  0
  3  4  2  0
  6  7  1  0
  6  5  2  0
  8  7  2  0
  9  8  1  0
  9  4  1  0
 10  1  1  0
 10  2  2  0
 11  2  1  0
 12 20  1  0
 12  6  1  0
 13 12  2  0
 14 13  1  0
 15 16  2  0
 15 13  1  0
 16 19  1  0
 17 16  1  0
 18 17  1  0
 19 21  1  0
 19 20  2  0
 21 22  1  0
 22 23  2  3
 23 25  1  0
 24 23  1  0
M  END
>  <DRUGBANK_ID>  (1) 
DB07500

>  <COMMON_NAME>  (1) 
(2E)-1-[2-hydroxy-4-methoxy-5-(3-methylbut-2-en-1-yl)phenyl]-3-(4-hydroxyphenyl)prop-2-en-1-one

$$$$
