
     RDKit          2D

 24 26  0  0  1  0  0  0  0  0999 V2000
   -0.1435    2.4445    0.0000 C   0  0  0  0  0  0  0  0  0  0  0  0
   -0.1435    1.6195    0.0000 O   0  0  0  0  0  0  0  0  0  0  0  0
   -0.8580    1.2070    0.0000 C   0  0  0  0  0  0  0  0  0  0  0  0
   -1.5724    1.6195    0.0000 C   0  0  0  0  0  0  0  0  0  0  0  0
   -2.2869    1.2070    0.0000 C   0  0  0  0  0  0  0  0  0  0  0  0
   -2.2869    0.3820    0.0000 C   0  0  0  0  0  0  0  0  0  0  0  0
   -3.0014   -0.0305    0.0000 Cl  0  0  0  0  0  0  0  0  0  0  0  0
   -1.5724   -0.0305    0.0000 C   0  0  0  0  0  0  0  0  0  0  0  0
   -0.8580    0.3820    0.0000 C   0  0  0  0  0  0  0  0  0  0  0  0
   -0.1435   -0.0305    0.0000 C   0  0  0  0  0  0  0  0  0  0  0  0
    0.1921    0.7232    0.0000 F   0  0  0  0  0  0  0  0  0  0  0  0
   -0.6284   -0.6979    0.0000 C   0  0  0  0  0  0  0  0  0  0  0  0
   -1.4534   -0.6979    0.0000 O   0  0  0  0  0  0  0  0  0  0  0  0
   -0.1435   -1.3654    0.0000 N   0  0  0  0  0  0  0  0  0  0  0  0
    0.6411   -1.1104    0.0000 C   0  0  0  0  0  0  0  0  0  0  0  0
    0.6411   -0.2854    0.0000 C   0  0  0  0  0  0  0  0  0  0  0  0
    1.3556    0.1271    0.0000 C   0  0  0  0  0  0  0  0  0  0  0  0
    2.0701   -0.2854    0.0000 C   0  0  0  0  0  0  0  0  0  0  0  0
    2.0701   -1.1104    0.0000 C   0  0  0  0  0  0  0  0  0  0  0  0
    1.3556   -1.5229    0.0000 C   0  0  0  0  0  0  0  0  0  0  0  0
    2.7845   -1.5229    0.0000 C   0  0  0  0  0  0  0  0  0  0  0  0
    3.4990   -1.9354    0.0000 F   0  0  0  0  0  0  0  0  0  0  0  0
    2.3720   -2.2374    0.0000 F   0  0  0  0  0  0  0  0  0  0  0  0
    3.1970   -0.8085    0.0000 F   0  0  0  0  0  0  0  0  0  0  0  0
  1  2  1  0
  2  3  1  0
  3  4  2  0
  3  9  1  0
  4  5  1  0
  5  6  2  0
  6  7  1  0
  6  8  1  0
  8  9  2  0
 10  9  1  0
 10 11  1  6
 10 12  1  0
 10 16  1  0
 12 13  2  0
 12 14  1  0
 14 15  1  0
 15 16  2  0
 15 20  1  0
 16 17  1  0
 17 18  2  0
 18 19  1  0
 19 20  2  0
 19 21  1  0
 21 22  1  0
 21 23  1  0
 21 24  1  0
M  END
>  <DRUGBANK_ID>  (1) 
DB16908

>  <COMMON_NAME>  (1) 
Flindokalner

>  <CAS_NUMBER>  (1) 
187523-35-9

>  <UNII>  (1) 
J57O328W4W

>  <SYNONYMS>  (1) 
(3s)-(+)-(5-chloro-2-methoxyphenyl)-1,3-dihydro-3-fluoro-6-(trifluoromethyl)-2h-indol-2-one; (3s)-3-(5-chloro-2-methoxyphenyl)-3-fluoro-6-(trifluoromethyl)-1,3-dihydro-2h-indol-2-one; 2h-indol-2-one, 3-(5-chloro-2-methoxyphenyl)-3-fluoro-1,3-dihydro-6-(trifluoromethyl)-, (3s)-; Maxipost

$$$$
