
     RDKit          2D

 12 12  0  0  0  0  0  0  0  0999 V2000
   -1.7846    0.4079    0.0000 C   0  0  0  0  0  0  0  0  0  0  0  0
   -1.7857   -0.4193    0.0000 C   0  0  0  0  0  0  0  0  0  0  0  0
   -1.0709   -0.8322    0.0000 C   0  0  0  0  0  0  0  0  0  0  0  0
   -0.3545   -0.4188    0.0000 C   0  0  0  0  0  0  0  0  0  0  0  0
   -0.3573    0.4115    0.0000 C   0  0  0  0  0  0  0  0  0  0  0  0
   -1.0727    0.8207    0.0000 C   0  0  0  0  0  0  0  0  0  0  0  0
   -2.4991    0.8202    0.0000 O   0  0  0  0  0  0  0  0  0  0  0  0
   -2.5005   -0.8313    0.0000 O   0  0  0  0  0  0  0  0  0  0  0  0
    0.3556    0.8268    0.0000 C   0  0  0  0  0  0  0  0  0  0  0  0
    1.0716    0.4169    0.0000 C   0  0  0  0  0  0  0  0  0  0  0  0
    1.7845    0.8322    0.0000 N   0  0  0  0  0  0  0  0  0  0  0  0
    2.5005    0.4223    0.0000 C   0  0  0  0  0  0  0  0  0  0  0  0
  1  7  1  0
  1  2  2  0
  2  3  1  0
  2  8  1  0
  3  4  2  0
  4  5  1  0
  5  9  1  0
  5  6  2  0
  6  1  1  0
  9 10  1  0
 10 11  1  0
 11 12  1  0
M  END
>  <DRUGBANK_ID>  (1) 
DB13917

>  <COMMON_NAME>  (1) 
Deoxyepinephrine

>  <CAS_NUMBER>  (1) 
501-15-5

>  <UNII>  (1) 
R7339QLN1C

>  <SYNONYMS>  (1) 
1-(3,4-dihydroxyphenyl)-2-methylaminoethane; 3,4-dihydroxy-N-methylphenethylamine; 4-(2-methylamino-ethyl)-benzene-1,2-diol; 4-(2-methylaminoethyl)pyrocatechol; Deoxyephinephrine; Desoxyepinephrine; Epinin; Epinine; Epyamine; N-methyl-3,4-dihydroxyphenethylamine; N-methyldopamine

$$$$
