GMG
     RDKit          2D

 29 33  0  0  0  0  0  0  0  0999 V2000
    3.6582    1.2257    0.0000 C   0  0  0  0  0  0  0  0  0  0  0  0
   -2.7301   -0.7700    0.0000 C   0  0  0  0  0  0  0  0  0  0  0  0
   -1.3711   -1.2116    0.0000 C   0  0  0  0  0  0  0  0  0  0  0  0
    2.2293   -0.4243    0.0000 C   0  0  0  0  0  0  0  0  0  0  0  0
   -2.4751    0.0146    0.0000 C   0  0  0  0  0  0  0  0  0  0  0  0
    1.5148   -0.0118    0.0000 C   0  0  0  0  0  0  0  0  0  0  0  0
   -1.8981    1.6382    0.0000 C   0  0  0  0  0  0  0  0  0  0  0  0
   -2.4330   -2.1678    0.0000 C   0  0  0  0  0  0  0  0  0  0  0  0
    2.9438   -0.0118    0.0000 C   0  0  0  0  0  0  0  0  0  0  0  0
    1.5148    0.8132    0.0000 C   0  0  0  0  0  0  0  0  0  0  0  0
    0.8003    1.2257    0.0000 C   0  0  0  0  0  0  0  0  0  0  0  0
   -0.6286    1.2257    0.0000 C   0  0  0  0  0  0  0  0  0  0  0  0
   -0.6286    2.0507    0.0000 C   0  0  0  0  0  0  0  0  0  0  0  0
    4.3727   -0.0118    0.0000 C   0  0  0  0  0  0  0  0  0  0  0  0
    4.3727    0.8132    0.0000 C   0  0  0  0  0  0  0  0  0  0  0  0
    3.6582   -0.4243    0.0000 C   0  0  0  0  0  0  0  0  0  0  0  0
   -1.1161   -0.4270    0.0000 C   0  0  0  0  0  0  0  0  0  0  0  0
    2.2293    1.2257    0.0000 C   0  0  0  0  0  0  0  0  0  0  0  0
    0.0859    0.8132    0.0000 C   0  0  0  0  0  0  0  0  0  0  0  0
    0.8003    2.0507    0.0000 C   0  0  0  0  0  0  0  0  0  0  0  0
   -2.1780   -1.3831    0.0000 C   0  0  0  0  0  0  0  0  0  0  0  0
   -1.6682    0.1861    0.0000 C   0  0  0  0  0  0  0  0  0  0  0  0
    2.9438    0.8132    0.0000 C   0  0  0  0  0  0  0  0  0  0  0  0
   -1.4132    0.9707    0.0000 C   0  0  0  0  0  0  0  0  0  0  0  0
   -3.2399   -2.3393    0.0000 C   0  0  0  0  0  0  0  0  0  0  0  0
   -1.4132    2.3056    0.0000 N   0  0  0  0  0  0  0  0  0  0  0  0
    0.0859    2.4632    0.0000 N   0  0  0  0  0  0  0  0  0  0  0  0
   -3.4949   -3.1239    0.0000 O   0  0  0  0  0  0  0  0  0  0  0  0
   -3.7920   -1.7262    0.0000 O   0  0  0  0  0  0  0  0  0  0  0  0
  2  5  2  0
  2 21  1  0
  3 17  1  0
  4  9  1  0
  4  6  2  0
  5 22  1  0
  6 10  1  0
  7 26  1  0
  8 21  1  0
  9 23  2  0
 10 18  2  0
 10 11  1  0
 11 19  2  0
 11 20  1  0
 12 24  1  0
 12 13  2  0
 13 27  1  0
 13 26  1  0
 14 15  1  0
 15  1  2  0
 16  9  1  0
 16 14  2  0
 19 12  1  0
 20 27  2  0
 21  3  2  0
 22 17  2  0
 22 24  1  0
 23  1  1  0
 23 18  1  0
 24  7  2  0
 25  8  1  0
 25 28  1  0
 29 25  2  0
M  END
>  <DRUGBANK_ID>  (1) 
DB07837

>  <COMMON_NAME>  (1) 
[4-(5-naphthalen-2-yl-1H-pyrrolo[2,3-b]pyridin-3-yl)phenyl]acetic acid

$$$$
