MOJ
     RDKit          2D

 27 30  0  0  0  0  0  0  0  0999 V2000
   -2.9007   -2.1944    0.0000 F   0  0  0  0  0  0  0  0  0  0  0  0
   -2.1862   -1.7819    0.0000 C   0  0  0  0  0  0  0  0  0  0  0  0
   -2.1862   -0.9569    0.0000 C   0  0  0  0  0  0  0  0  0  0  0  0
   -1.4717   -0.5444    0.0000 C   0  0  0  0  0  0  0  0  0  0  0  0
   -1.4717    0.2806    0.0000 C   0  0  0  0  0  0  0  0  0  0  0  0
   -2.1862    0.6931    0.0000 C   0  0  0  0  0  0  0  0  0  0  0  0
   -2.1862    1.5181    0.0000 N   0  0  0  0  0  0  0  0  0  0  0  0
   -1.4717    1.9306    0.0000 C   0  0  0  0  0  0  0  0  0  0  0  0
   -0.7573    1.5181    0.0000 C   0  0  0  0  0  0  0  0  0  0  0  0
   -0.7573    0.6931    0.0000 C   0  0  0  0  0  0  0  0  0  0  0  0
   -1.4717   -2.1944    0.0000 C   0  0  0  0  0  0  0  0  0  0  0  0
   -0.7573   -1.7819    0.0000 C   0  0  0  0  0  0  0  0  0  0  0  0
   -0.7573   -0.9569    0.0000 C   0  0  0  0  0  0  0  0  0  0  0  0
   -0.0428   -0.5444    0.0000 C   0  0  0  0  0  0  0  0  0  0  0  0
   -0.0428    0.2806    0.0000 C   0  0  0  0  0  0  0  0  0  0  0  0
    0.6717    0.6931    0.0000 C   0  0  0  0  0  0  0  0  0  0  0  0
    0.6717    1.5181    0.0000 N   0  0  0  0  0  0  0  0  0  0  0  0
   -0.0428    1.9306    0.0000 O   0  0  0  0  0  0  0  0  0  0  0  0
    1.3862    0.2806    0.0000 C   0  0  0  0  0  0  0  0  0  0  0  0
    0.6717   -0.9569    0.0000 C   0  0  0  0  0  0  0  0  0  0  0  0
    1.3862   -0.5444    0.0000 C   0  0  0  0  0  0  0  0  0  0  0  0
    2.1006   -0.9569    0.0000 N   0  0  0  0  0  0  0  0  0  0  0  0
    2.8151   -0.5444    0.0000 C   0  0  0  0  0  0  0  0  0  0  0  0
    3.5296   -0.9569    0.0000 N   0  0  0  0  0  0  0  0  0  0  0  0
    2.8151    0.2806    0.0000 N   0  0  0  0  0  0  0  0  0  0  0  0
    2.1006    0.6931    0.0000 C   0  0  0  0  0  0  0  0  0  0  0  0
    2.1006    1.5181    0.0000 C   0  0  0  0  0  0  0  0  0  0  0  0
  1  2  1  0
  2  3  2  0
  3  4  1  0
  4 13  2  0
  4  5  1  0
  5  6  2  0
  6  7  1  0
  8  7  2  0
  9  8  1  0
 10  5  1  0
 10  9  2  0
 11  2  1  0
 11 12  2  0
 12 13  1  0
 14 13  1  6
 14 15  1  0
 15 16  1  0
 16 17  2  0
 17 18  1  0
 19 16  1  0
 19 26  2  0
 20 14  1  0
 20 21  1  0
 21 19  1  0
 22 21  2  0
 22 23  1  0
 23 25  2  0
 24 23  1  0
 25 26  1  0
 26 27  1  0
M  END
>  <DRUGBANK_ID>  (1) 
DB08197

>  <COMMON_NAME>  (1) 
(5E,7S)-2-amino-7-(4-fluoro-2-pyridin-3-ylphenyl)-4-methyl-7,8-dihydroquinazolin-5(6H)-one oxime

$$$$
