
     RDKit          2D

 21 24  0  0  0  0  0  0  0  0999 V2000
   -1.3492    0.0928    0.0000 C   0  0  0  0  0  0  0  0  0  0  0  0
   -2.0637   -0.3196    0.0000 C   0  0  0  0  0  0  0  0  0  0  0  0
   -1.3492   -1.5571    0.0000 C   0  0  0  0  0  0  0  0  0  0  0  0
   -0.6347   -1.1446    0.0000 C   0  0  0  0  0  0  0  0  0  0  0  0
    0.0797   -1.5571    0.0000 C   0  0  0  0  0  0  0  0  0  0  0  0
    0.7941   -1.1446    0.0000 C   0  0  0  0  0  0  0  0  0  0  0  0
   -0.6347   -0.3196    0.0000 C   0  0  0  0  0  0  0  0  0  0  0  0
    0.0797    0.9178    0.0000 C   0  0  0  0  0  0  0  0  0  0  0  0
    0.7941    1.3303    0.0000 C   0  0  0  0  0  0  0  0  0  0  0  0
    2.2932   -0.1620    0.0000 C   0  0  0  0  0  0  0  0  0  0  0  0
    2.7782    0.5053    0.0000 C   0  0  0  0  0  0  0  0  0  0  0  0
   -0.6347    0.5053    0.0000 C   0  0  0  0  0  0  0  0  0  0  0  0
    0.0797    0.0928    0.0000 C   0  0  0  0  0  0  0  0  0  0  0  0
    0.7941   -0.3196    0.0000 C   0  0  0  0  0  0  0  0  0  0  0  0
    1.5086    0.0928    0.0000 C   0  0  0  0  0  0  0  0  0  0  0  0
    1.5086    0.9178    0.0000 C   0  0  0  0  0  0  0  0  0  0  0  0
    1.5086    1.7428    0.0000 C   0  0  0  0  0  0  0  0  0  0  0  0
    2.2932    1.1727    0.0000 C   0  0  0  0  0  0  0  0  0  0  0  0
    2.5067    1.9696    0.0000 O   0  0  0  0  0  0  0  0  0  0  0  0
   -2.0637   -1.1446    0.0000 C   0  0  0  0  0  0  0  0  0  0  0  0
   -2.7782   -1.5571    0.0000 O   0  0  0  0  0  0  0  0  0  0  0  0
  2  1  1  0
  4  3  1  1
  4  5  1  0
  5  6  1  0
  7  4  1  0
  7 12  1  1
  7  1  1  0
  8  9  1  0
 11 18  1  0
 11 10  1  0
 13  8  1  1
 13  7  1  0
 14 13  1  0
 14  6  1  6
 15 16  1  0
 15 14  1  0
 15 10  1  1
 16 18  1  0
 16  9  1  0
 16 17  1  1
 18 19  1  6
 20  3  1  0
 20  2  1  0
 20 21  1  1
M  END
>  <DRUGBANK_ID>  (1) 
DB03926

>  <SECONDARY_ACCESSION_NUMBERS>  (1) 
EXPT00531

>  <COMMON_NAME>  (1) 
5alpha-androstane-3beta,17alpha-diol

>  <CAS_NUMBER>  (1) 
5856-11-1

>  <UNII>  (1) 
0IF82ZEY2K

>  <SYNONYMS>  (1) 
3beta,17alpha-Dihydroxy-5alpha-androstane; 5alpha-Androstan-3beta,17alpha-diol; 5α-androstane-3β,17α-diol

$$$$
