
     RDKit          2D

 25 28  0  0  0  0  0  0  0  0999 V2000
   -2.8621   -0.4713    0.0000 C   0  0  0  0  0  0  0  0  0  0  0  0
   -2.8621   -1.2963    0.0000 C   0  0  0  0  0  0  0  0  0  0  0  0
   -2.1476   -1.7088    0.0000 C   0  0  0  0  0  0  0  0  0  0  0  0
   -1.4331   -1.2963    0.0000 C   0  0  0  0  0  0  0  0  0  0  0  0
   -1.4331   -0.4713    0.0000 C   0  0  0  0  0  0  0  0  0  0  0  0
   -2.1476   -0.0588    0.0000 C   0  0  0  0  0  0  0  0  0  0  0  0
   -0.7187   -1.7088    0.0000 S   0  0  0  0  0  0  0  0  0  0  0  0
   -0.0042   -1.2963    0.0000 N   0  0  0  0  0  0  0  0  0  0  0  0
   -0.0042   -0.4713    0.0000 C   0  0  0  0  0  0  0  0  0  0  0  0
   -0.7187   -0.0588    0.0000 C   0  0  0  0  0  0  0  0  0  0  0  0
    0.7102   -0.0588    0.0000 C   0  0  0  0  0  0  0  0  0  0  0  0
    0.7102    0.7661    0.0000 N   0  0  0  0  0  0  0  0  0  0  0  0
   -0.0042    1.1786    0.0000 C   0  0  0  0  0  0  0  0  0  0  0  0
   -0.7187    0.7661    0.0000 O   0  0  0  0  0  0  0  0  0  0  0  0
    1.4368    1.1857    0.0000 C   0  0  0  0  0  0  0  0  0  0  0  0
    2.1476    0.7755    0.0000 C   0  0  0  0  0  0  0  0  0  0  0  0
    2.8621    1.1880    0.0000 C   0  0  0  0  0  0  0  0  0  0  0  0
    2.8620    2.0130    0.0000 C   0  0  0  0  0  0  0  0  0  0  0  0
    2.1512    2.4233    0.0000 C   0  0  0  0  0  0  0  0  0  0  0  0
    1.4368    2.0107    0.0000 N   0  0  0  0  0  0  0  0  0  0  0  0
   -0.0042    2.0035    0.0000 O   0  0  0  0  0  0  0  0  0  0  0  0
    0.7014   -1.7038    0.0000 C   0  0  0  0  0  0  0  0  0  0  0  0
    1.4368   -0.4785    0.0000 O   0  0  0  0  0  0  0  0  0  0  0  0
   -1.1311   -2.4233    0.0000 O   0  0  0  0  0  0  0  0  0  0  0  0
   -0.3062   -2.4233    0.0000 O   0  0  0  0  0  0  0  0  0  0  0  0
  1  2  2  0
  1  6  1  0
  2  3  1  0
  3  4  2  0
  4  5  1  0
  4  7  1  0
  5  6  2  0
  5 10  1  0
  7  8  1  0
  7 24  2  0
  8  9  1  0
  8 22  1  0
  9 10  2  0
  9 11  1  0
 10 14  1  0
 11 12  1  0
 11 23  2  0
 12 13  1  0
 12 15  1  0
 13 14  1  0
 13 21  2  0
 15 16  2  0
 15 20  1  0
 16 17  1  0
 17 18  2  0
 18 19  1  0
 19 20  2  0
 25  7  2  0
M  END
>  <DRUGBANK_ID>  (1) 
DB09215

>  <COMMON_NAME>  (1) 
Droxicam

>  <CAS_NUMBER>  (1) 
90101-16-9

>  <UNII>  (1) 
F24ADO1E2D

>  <SYNONYMS>  (1) 
Droxicam

$$$$
