896
     RDKit          2D

 26 27  0  0  0  0  0  0  0  0999 V2000
    2.3038    1.5147    0.0000 O   0  0  0  0  0  0  0  0  0  0  0  0
    1.5893    1.1022    0.0000 C   0  0  0  0  0  0  0  0  0  0  0  0
    0.8748    1.5147    0.0000 N   0  0  0  0  0  0  0  0  0  0  0  0
    0.8748    2.3397    0.0000 C   0  0  0  0  0  0  0  0  0  0  0  0
    0.1603    2.7522    0.0000 C   0  0  0  0  0  0  0  0  0  0  0  0
    0.1603    1.1022    0.0000 C   0  0  0  0  0  0  0  0  0  0  0  0
   -0.5541    1.5147    0.0000 C   0  0  0  0  0  0  0  0  0  0  0  0
    0.1603    0.2772    0.0000 C   0  0  0  0  0  0  0  0  0  0  0  0
    1.5893    0.2772    0.0000 C   0  0  0  0  0  0  0  0  0  0  0  0
    2.3038   -0.1353    0.0000 C   0  0  0  0  0  0  0  0  0  0  0  0
    2.3038   -0.9603    0.0000 C   0  0  0  0  0  0  0  0  0  0  0  0
    1.5893   -1.3728    0.0000 C   0  0  0  0  0  0  0  0  0  0  0  0
    0.8748   -0.9603    0.0000 C   0  0  0  0  0  0  0  0  0  0  0  0
    0.1603   -1.3728    0.0000 C   0  0  0  0  0  0  0  0  0  0  0  0
    0.8748   -0.1353    0.0000 C   0  0  0  0  0  0  0  0  0  0  0  0
    3.0182   -1.3728    0.0000 O   0  0  0  0  0  0  0  0  0  0  0  0
    3.7327   -0.9603    0.0000 C   0  0  0  0  0  0  0  0  0  0  0  0
    4.4472   -1.3728    0.0000 C   0  0  0  0  0  0  0  0  0  0  0  0
    4.4472   -2.1978    0.0000 C   0  0  0  0  0  0  0  0  0  0  0  0
    5.1616   -0.9603    0.0000 N   0  0  0  0  0  0  0  0  0  0  0  0
    5.8761   -1.3728    0.0000 C   0  0  0  0  0  0  0  0  0  0  0  0
    6.5906   -0.9603    0.0000 C   0  0  0  0  0  0  0  0  0  0  0  0
    7.3051   -1.3728    0.0000 C   0  0  0  0  0  0  0  0  0  0  0  0
    7.3051   -2.1978    0.0000 N   0  0  0  0  0  0  0  0  0  0  0  0
    6.5906   -2.6103    0.0000 C   0  0  0  0  0  0  0  0  0  0  0  0
    5.8761   -2.1978    0.0000 C   0  0  0  0  0  0  0  0  0  0  0  0
  1  2  2  0
  2  3  1  0
  2  9  1  0
  3  4  1  0
  3  6  1  0
  4  5  1  0
  6  7  1  0
  6  8  1  0
  9 10  2  0
  9 15  1  0
 10 11  1  0
 11 12  2  0
 11 16  1  0
 12 13  1  0
 13 14  1  0
 13 15  2  0
 16 17  1  0
 17 18  1  0
 18 19  1  1
 18 20  1  0
 20 21  1  0
 21 22  2  0
 21 26  1  0
 22 23  1  0
 23 24  2  0
 24 25  1  0
 25 26  2  0
M  END
>  <DRUGBANK_ID>  (1) 
DB07279

>  <COMMON_NAME>  (1) 
N-ETHYL-N-ISOPROPYL-3-METHYL-5-{[(2S)-2-(PYRIDIN-4-YLAMINO)PROPYL]OXY}BENZAMIDE

$$$$
