
     RDKit          2D

 15 15  0  0  0  0  0  0  0  0999 V2000
    0.0000   -0.4125    0.0000 C   0  0  0  0  0  0  0  0  0  0  0  0
   -0.7145    0.0000    0.0000 C   0  0  0  0  0  0  0  0  0  0  0  0
    0.7145    0.8250    0.0000 C   0  0  0  0  0  0  0  0  0  0  0  0
    0.7145    0.0000    0.0000 C   0  0  0  0  0  0  0  0  0  0  0  0
    0.0000    1.2374    0.0000 C   0  0  0  0  0  0  0  0  0  0  0  0
   -0.7145    0.8250    0.0000 C   0  0  0  0  0  0  0  0  0  0  0  0
    1.4289   -0.4125    0.0000 C   0  0  0  0  0  0  0  0  0  0  0  0
    2.1434    0.0000    0.0000 C   0  0  0  0  0  0  0  0  0  0  0  0
    2.1434    0.8250    0.0000 O   0  0  0  0  0  0  0  0  0  0  0  0
    2.8579   -0.4125    0.0000 O   0  0  0  0  0  0  0  0  0  0  0  0
    1.4289   -1.2374    0.0000 C   0  0  0  0  0  0  0  0  0  0  0  0
   -1.4289    1.2374    0.0000 C   0  0  0  0  0  0  0  0  0  0  0  0
   -2.8579    1.2374    0.0000 C   0  0  0  0  0  0  0  0  0  0  0  0
   -2.1434    0.8250    0.0000 C   0  0  0  0  0  0  0  0  0  0  0  0
   -2.1434    0.0000    0.0000 C   0  0  0  0  0  0  0  0  0  0  0  0
  1  4  2  0
  2  1  1  0
  2  6  2  0
  4  3  1  0
  5  3  2  0
  6  5  1  0
  7  4  1  0
  7  8  1  0
  7 11  1  1
  9  8  2  0
 10  8  1  0
 12  6  1  0
 12 14  1  0
 14 13  1  0
 14 15  1  0
M  END
>  <DRUGBANK_ID>  (1) 
DB09213

>  <COMMON_NAME>  (1) 
Dexibuprofen

>  <CAS_NUMBER>  (1) 
51146-56-6

>  <UNII>  (1) 
671DKG7P5S

>  <SYNONYMS>  (1) 
(+)-(S)-p-isobutylhydratropic acid; (2S)-2-(4-isobutylphenyl)propanoic acid; (S)-Î±-methyl-4-(2-methylpropyl)benzeneacetic acid; d-ibuproten; Dexibuprofen; Dexibuprofeno

$$$$
