50U
     RDKit          2D

 28 30  0  0  0  0  0  0  0  0999 V2000
   -0.4151   -0.7886    0.0000 N   0  0  0  0  0  0  0  0  0  0  0  0
   -1.0825   -0.3037    0.0000 C   0  0  0  0  0  0  0  0  0  0  0  0
   -1.0825    0.5213    0.0000 C   0  0  0  0  0  0  0  0  0  0  0  0
   -0.3681    0.9338    0.0000 O   0  0  0  0  0  0  0  0  0  0  0  0
   -1.7970    0.9338    0.0000 N   0  0  0  0  0  0  0  0  0  0  0  0
   -1.7970    1.7588    0.0000 C   0  0  0  0  0  0  0  0  0  0  0  0
   -2.5115    2.1713    0.0000 C   0  0  0  0  0  0  0  0  0  0  0  0
   -3.2260    1.7588    0.0000 C   0  0  0  0  0  0  0  0  0  0  0  0
   -3.9404    2.1713    0.0000 C   0  0  0  0  0  0  0  0  0  0  0  0
   -3.9404    2.9963    0.0000 C   0  0  0  0  0  0  0  0  0  0  0  0
   -4.6549    3.4088    0.0000 C   0  0  0  0  0  0  0  0  0  0  0  0
   -4.6549    4.2338    0.0000 N   0  0  0  0  0  0  0  0  0  0  0  0
   -5.3694    2.9963    0.0000 N   0  0  0  0  0  0  0  0  0  0  0  0
   -3.2260    3.4088    0.0000 C   0  0  0  0  0  0  0  0  0  0  0  0
   -2.5115    2.9963    0.0000 C   0  0  0  0  0  0  0  0  0  0  0  0
   -1.7500   -0.7886    0.0000 C   0  0  0  0  0  0  0  0  0  0  0  0
   -1.4950   -1.5732    0.0000 C   0  0  0  0  0  0  0  0  0  0  0  0
   -0.6700   -1.5732    0.0000 C   0  0  0  0  0  0  0  0  0  0  0  0
    0.3695   -0.5337    0.0000 C   0  0  0  0  0  0  0  0  0  0  0  0
    0.9826   -1.0857    0.0000 C   0  0  0  0  0  0  0  0  0  0  0  0
    1.7672   -0.8308    0.0000 C   0  0  0  0  0  0  0  0  0  0  0  0
    2.3803   -1.3828    0.0000 C   0  0  0  0  0  0  0  0  0  0  0  0
    3.1650   -1.1279    0.0000 C   0  0  0  0  0  0  0  0  0  0  0  0
    3.7780   -1.6799    0.0000 C   0  0  0  0  0  0  0  0  0  0  0  0
    3.6065   -2.4869    0.0000 C   0  0  0  0  0  0  0  0  0  0  0  0
    2.8219   -2.7418    0.0000 C   0  0  0  0  0  0  0  0  0  0  0  0
    2.2088   -2.1898    0.0000 C   0  0  0  0  0  0  0  0  0  0  0  0
    0.5411    0.2733    0.0000 O   0  0  0  0  0  0  0  0  0  0  0  0
  1 19  1  0
  2  1  1  0
  2  3  1  1
  3  4  2  0
  5  3  1  0
  6  5  1  0
  6  7  1  0
  7  8  2  0
  8  9  1  0
 10  9  2  0
 10 11  1  0
 11 12  2  0
 13 11  1  0
 14 10  1  0
 15  7  1  0
 15 14  2  0
 16 17  1  0
 16  2  1  0
 17 18  1  0
 18  1  1  0
 19 28  2  0
 19 20  1  0
 20 21  1  0
 22 21  1  0
 22 23  1  0
 24 23  1  0
 25 24  1  0
 26 27  1  0
 26 25  1  0
 27 22  1  0
M  END
>  <DRUGBANK_ID>  (1) 
DB07131

>  <COMMON_NAME>  (1) 
(S)-N-(4-carbamimidoylbenzyl)-1-(3-cyclohexylpropanoyl)pyrrolidine-2-carboxamide

$$$$
