
     RDKit          2D

 21 20  0  0  0  0  0  0  0  0999 V2000
   -4.8395   -2.4454    0.0000 C   0  0  0  0  0  0  0  0  0  0  0  0
    3.7342   -2.4454    0.0000 C   0  0  0  0  0  0  0  0  0  0  0  0
   -1.9816    0.8546    0.0000 C   0  0  0  0  0  0  0  0  0  0  0  0
   -4.1250   -2.8579    0.0000 C   0  0  0  0  0  0  0  0  0  0  0  0
    3.0197   -2.8579    0.0000 C   0  0  0  0  0  0  0  0  0  0  0  0
   -1.9816    0.0296    0.0000 C   0  0  0  0  0  0  0  0  0  0  0  0
   -3.4105   -2.4454    0.0000 C   0  0  0  0  0  0  0  0  0  0  0  0
    2.3052   -2.4454    0.0000 C   0  0  0  0  0  0  0  0  0  0  0  0
   -1.2671   -0.3829    0.0000 C   0  0  0  0  0  0  0  0  0  0  0  0
   -1.2671   -2.8579    0.0000 C   0  0  0  0  0  0  0  0  0  0  0  0
    0.1618   -2.8579    0.0000 C   0  0  0  0  0  0  0  0  0  0  0  0
   -0.5526   -2.4454    0.0000 C   0  0  0  0  0  0  0  0  0  0  0  0
   -2.6961   -2.8579    0.0000 C   0  0  0  0  0  0  0  0  0  0  0  0
    1.5908   -2.8579    0.0000 C   0  0  0  0  0  0  0  0  0  0  0  0
   -1.2671   -1.2079    0.0000 C   0  0  0  0  0  0  0  0  0  0  0  0
   -2.6961   -3.6829    0.0000 O   0  0  0  0  0  0  0  0  0  0  0  0
    1.5908   -3.6829    0.0000 O   0  0  0  0  0  0  0  0  0  0  0  0
   -1.9816   -1.6204    0.0000 O   0  0  0  0  0  0  0  0  0  0  0  0
   -1.9816   -2.4454    0.0000 O   0  0  0  0  0  0  0  0  0  0  0  0
    0.8763   -2.4454    0.0000 O   0  0  0  0  0  0  0  0  0  0  0  0
   -0.5526   -1.6204    0.0000 O   0  0  0  0  0  0  0  0  0  0  0  0
  4  1  1  0
  5  2  1  0
  6  3  1  0
  7  4  1  0
  8  5  1  0
  9  6  1  0
 12 10  1  0
 12 11  1  0
 13  7  1  0
 14  8  1  0
 15  9  1  0
 16 13  2  0
 17 14  2  0
 18 15  2  0
 19 10  1  0
 19 13  1  0
 20 11  1  0
 20 14  1  0
 21 12  1  0
 21 15  1  0
M  END
>  <DRUGBANK_ID>  (1) 
DB12709

>  <COMMON_NAME>  (1) 
Tributyrin

>  <CAS_NUMBER>  (1) 
60-01-5

>  <UNII>  (1) 
S05LZ624MF

$$$$
