
     RDKit          2D

 33 36  0  0  1  0  0  0  0  0999 V2000
    0.2954   -5.3894    0.0000 N   0  0  0  0  0  0  0  0  0  0  0  0
    0.7079   -4.6749    0.0000 C   0  0  0  0  0  0  0  0  0  0  0  0
    1.5329   -4.6749    0.0000 N   0  0  0  0  0  0  0  0  0  0  0  0
    1.9454   -3.9604    0.0000 C   0  0  0  0  0  0  0  0  0  0  0  0
    2.7704   -3.9604    0.0000 O   0  0  0  0  0  0  0  0  0  0  0  0
    1.5329   -3.2459    0.0000 C   0  0  0  0  0  0  0  0  0  0  0  0
    0.7079   -3.2459    0.0000 C   0  0  0  0  0  0  0  0  0  0  0  0
    0.2954   -3.9604    0.0000 N   0  0  0  0  0  0  0  0  0  0  0  0
    0.2954   -2.5315    0.0000 N   0  0  0  0  0  0  0  0  0  0  0  0
    0.7079   -1.8170    0.0000 C   0  0  0  0  0  0  0  0  0  0  0  0
    1.5329   -1.8170    0.0000 C   0  0  0  0  0  0  0  0  0  0  0  0
    2.0850   -1.2039    0.0000 C   0  0  0  0  0  0  0  0  0  0  0  0
    2.8386   -1.5395    0.0000 N   0  0  0  0  0  0  0  0  0  0  0  0
    2.7524   -2.3600    0.0000 C   0  0  0  0  0  0  0  0  0  0  0  0
    1.9454   -2.5315    0.0000 N   0  0  0  0  0  0  0  0  0  0  0  0
    3.5531   -1.1270    0.0000 C   0  0  0  0  0  0  0  0  0  0  0  0
    3.5531   -0.3020    0.0000 C   0  0  0  0  0  0  0  0  0  0  0  0
    4.2676    0.1105    0.0000 C   0  0  0  0  0  0  0  0  0  0  0  0
    4.9820   -0.3020    0.0000 C   0  0  0  0  0  0  0  0  0  0  0  0
    4.9820   -1.1270    0.0000 C   0  0  0  0  0  0  0  0  0  0  0  0
    4.2676   -1.5395    0.0000 C   0  0  0  0  0  0  0  0  0  0  0  0
    5.6965    0.1105    0.0000 C   0  0  0  0  0  0  0  0  0  0  0  0
    5.6965    0.9355    0.0000 O   0  0  0  0  0  0  0  0  0  0  0  0
    6.4110   -0.3020    0.0000 N   0  0  0  0  0  0  0  0  0  0  0  0
    7.1255    0.1105    0.0000 C   0  0  0  0  0  0  0  0  0  0  0  0
    7.8399   -0.3020    0.0000 C   0  0  0  0  0  0  0  0  0  0  0  0
    8.5544    0.1105    0.0000 C   0  0  0  0  0  0  0  0  0  0  0  0
    9.2689   -0.3020    0.0000 C   0  0  0  0  0  0  0  0  0  0  0  0
    9.9833    0.1105    0.0000 O   0  0  0  0  0  0  0  0  0  0  0  0
    9.2689   -1.1270    0.0000 O   0  0  0  0  0  0  0  0  0  0  0  0
    7.1255    0.9355    0.0000 C   0  0  0  0  0  0  0  0  0  0  0  0
    7.8399    1.3480    0.0000 O   0  0  0  0  0  0  0  0  0  0  0  0
    6.4110    1.3480    0.0000 O   0  0  0  0  0  0  0  0  0  0  0  0
  1  2  1  0
  2  3  2  0
  2  8  1  0
  3  4  1  0
  4  5  2  0
  4  6  1  0
  6  7  2  0
  6 15  1  0
  7  8  1  0
  7  9  1  0
  9 10  2  0
 11 10  1  6
 11 12  1  0
 11 15  1  0
 12 13  1  0
 13 14  1  0
 13 16  1  0
 15 14  1  0
 16 17  2  0
 16 21  1  0
 17 18  1  0
 18 19  2  0
 19 20  1  0
 19 22  1  0
 20 21  2  0
 22 23  2  0
 22 24  1  0
 25 24  1  0
 25 26  1  1
 25 31  1  0
 26 27  1  0
 27 28  1  0
 28 29  1  0
 28 30  2  0
 31 32  1  0
 31 33  2  0
M  END
>  <DRUGBANK_ID>  (1) 
DB02301

>  <SECONDARY_ACCESSION_NUMBERS>  (1) 
EXPT03070

>  <COMMON_NAME>  (1) 
5,10-Methylene-6-Hydrofolic Acid

$$$$
