
     RDKit          2D

 18 19  0  0  1  0  0  0  0  0999 V2000
   -1.1456    1.1178    0.0000 S   0  0  0  0  0  0  0  0  0  0  0  0
    1.7587    1.1178    0.0000 O   0  0  0  0  0  0  0  0  0  0  0  0
   -0.5909    2.8249    0.0000 O   0  0  0  0  0  0  0  0  0  0  0  0
    1.2040    2.8249    0.0000 O   0  0  0  0  0  0  0  0  0  0  0  0
    0.3065    0.0627    0.0000 N   0  0  0  0  0  0  0  0  0  0  0  0
    0.3065    0.8878    0.0000 C   0  0  0  0  0  0  0  0  0  0  0  0
   -0.3609    1.3728    0.0000 C   0  0  0  0  0  0  0  0  0  0  0  0
    0.9739    1.3728    0.0000 C   0  0  0  0  0  0  0  0  0  0  0  0
   -0.1059    2.1574    0.0000 C   0  0  0  0  0  0  0  0  0  0  0  0
    0.7190    2.1574    0.0000 C   0  0  0  0  0  0  0  0  0  0  0  0
   -0.4079   -0.3497    0.0000 C   0  0  0  0  0  0  0  0  0  0  0  0
   -1.7587    1.6699    0.0000 C   0  0  0  0  0  0  0  0  0  0  0  0
   -0.4079   -1.1748    0.0000 C   0  0  0  0  0  0  0  0  0  0  0  0
    0.3065   -1.5873    0.0000 C   0  0  0  0  0  0  0  0  0  0  0  0
   -1.1224   -1.5873    0.0000 C   0  0  0  0  0  0  0  0  0  0  0  0
    0.3065   -2.4124    0.0000 C   0  0  0  0  0  0  0  0  0  0  0  0
   -1.1224   -2.4124    0.0000 C   0  0  0  0  0  0  0  0  0  0  0  0
   -0.4079   -2.8249    0.0000 C   0  0  0  0  0  0  0  0  0  0  0  0
  7  1  1  1
  1 12  1  0
  5 11  1  0
  6  5  1  6
  6  7  1  0
  6  8  1  0
  7  9  1  0
  8  2  1  6
  8 10  1  0
  9  3  1  6
  9 10  1  0
 10  4  1  6
 11 13  1  0
 13 14  2  0
 13 15  1  0
 14 16  1  0
 15 17  2  0
 16 18  2  0
 17 18  1  0
M  END
>  <DRUGBANK_ID>  (1) 
DB06984

>  <COMMON_NAME>  (1) 
(1R,2R,3R,4S,5R)-4-(Benzylamino)-5-(methylthio)cyclopentane-1,2,3-triol

>  <SYNONYMS>  (1) 
Benzylation of mannostatin A, 1b

$$$$
