IPR
     RDKit          2D

 14 13  0  0  0  0  0  0  0  0999 V2000
   -2.5432    0.0255    0.0000 P   0  0  0  0  0  0  0  0  0  0  0  0
   -3.2576    0.4379    0.0000 O   0  0  0  0  0  0  0  0  0  0  0  0
   -2.9556   -0.6889    0.0000 O   0  0  0  0  0  0  0  0  0  0  0  0
   -2.1307    0.7400    0.0000 O   0  0  0  0  0  0  0  0  0  0  0  0
   -1.8287   -0.3870    0.0000 O   0  0  0  0  0  0  0  0  0  0  0  0
   -1.1144    0.0255    0.0000 P   0  0  0  0  0  0  0  0  0  0  0  0
   -0.7019   -0.6889    0.0000 O   0  0  0  0  0  0  0  0  0  0  0  0
   -1.5268    0.7400    0.0000 O   0  0  0  0  0  0  0  0  0  0  0  0
   -0.3999    0.4379    0.0000 O   0  0  0  0  0  0  0  0  0  0  0  0
    0.3146    0.0255    0.0000 C   0  0  0  0  0  0  0  0  0  0  0  0
    1.0291    0.4379    0.0000 C   0  0  0  0  0  0  0  0  0  0  0  0
    1.7434    0.0255    0.0000 C   0  0  0  0  0  0  0  0  0  0  0  0
    2.4579    0.4379    0.0000 C   0  0  0  0  0  0  0  0  0  0  0  0
    1.7434   -0.7995    0.0000 C   0  0  0  0  0  0  0  0  0  0  0  0
  1  2  1  0
  1  3  1  0
  1  4  2  0
  1  5  1  0
  6  5  1  0
  6  7  1  0
  6  8  2  0
  6  9  1  0
  9 10  1  0
 10 11  1  0
 11 12  1  0
 12 13  1  0
 12 14  1  0
M  END
>  <DRUGBANK_ID>  (1) 
DB02508

>  <SECONDARY_ACCESSION_NUMBERS>  (1) 
EXPT01922

>  <COMMON_NAME>  (1) 
Isopentyl Pyrophosphate

$$$$
