1487
     RDKit          2D

 21 21  0  0  0  0  0  0  0  0999 V2000
    1.6500   -3.2217    0.0000 O   0  0  0  0  0  0  0  0  0  0  0  0
    3.0791    1.7284    0.0000 O   0  0  0  0  0  0  0  0  0  0  0  0
    5.2224    3.7910    0.0000 O   0  0  0  0  0  0  0  0  0  0  0  0
    3.7935    0.4909    0.0000 N   0  0  0  0  0  0  0  0  0  0  0  0
    3.0791   -0.7466    0.0000 C   0  0  0  0  0  0  0  0  0  0  0  0
    3.9041   -0.7466    0.0000 C   0  0  0  0  0  0  0  0  0  0  0  0
    2.2540   -0.7466    0.0000 C   0  0  0  0  0  0  0  0  0  0  0  0
    3.0791    0.0784    0.0000 C   0  0  0  0  0  0  0  0  0  0  0  0
    3.0791   -1.5717    0.0000 C   0  0  0  0  0  0  0  0  0  0  0  0
    4.3166   -1.4611    0.0000 C   0  0  0  0  0  0  0  0  0  0  0  0
    1.8415   -0.0322    0.0000 C   0  0  0  0  0  0  0  0  0  0  0  0
    2.3645   -1.9842    0.0000 C   0  0  0  0  0  0  0  0  0  0  0  0
    3.7935   -1.9842    0.0000 C   0  0  0  0  0  0  0  0  0  0  0  0
    3.7935    1.3159    0.0000 C   0  0  0  0  0  0  0  0  0  0  0  0
    2.3645   -2.8092    0.0000 C   0  0  0  0  0  0  0  0  0  0  0  0
    3.7935   -2.8092    0.0000 C   0  0  0  0  0  0  0  0  0  0  0  0
    4.5080    1.7284    0.0000 C   0  0  0  0  0  0  0  0  0  0  0  0
    3.0791   -3.2217    0.0000 C   0  0  0  0  0  0  0  0  0  0  0  0
    4.5080    2.5534    0.0000 C   0  0  0  0  0  0  0  0  0  0  0  0
    5.2224    2.9659    0.0000 C   0  0  0  0  0  0  0  0  0  0  0  0
    1.6500   -4.0467    0.0000 C   0  0  0  0  0  0  0  0  0  0  0  0
  1 15  1  0
  1 21  1  0
  2 14  2  0
  3 20  1  0
  4  8  1  0
  4 14  1  0
  5  6  1  0
  5  7  1  0
  5  8  1  0
  5  9  1  0
  6 10  1  0
  7 11  1  0
  9 12  2  0
  9 13  1  0
 12 15  1  0
 13 16  2  0
 14 17  1  0
 15 18  2  0
 16 18  1  0
 17 19  1  0
 19 20  1  0
M  END
>  <DRUGBANK_ID>  (1) 
DB01487

>  <SECONDARY_ACCESSION_NUMBERS>  (1) 
DB11402

>  <COMMON_NAME>  (1) 
Embutramide

>  <CAS_NUMBER>  (1) 
15687-14-6

>  <UNII>  (1) 
3P4TQG94T1

>  <SYNONYMS>  (1) 
Embutramid; Embutramide

$$$$
