
     RDKit          2D

 32 34  0  0  0  0  0  0  0  0999 V2000
    5.7297    1.0728    0.0000 Na  0  0  0  0  0 15  0  0  0  0  0  0
   -5.7297   -0.7067    0.0000 Na  0  0  0  0  0 15  0  0  0  0  0  0
   -4.9137   -1.2052    0.0000 O   0  0  0  0  0  0  0  0  0  0  0  0
    0.0261   -0.8256    0.0000 C   0  0  0  0  0  0  0  0  0  0  0  0
    0.0261    0.8302    0.0000 C   0  0  0  0  0  0  0  0  0  0  0  0
    3.6011   -0.4083    0.0000 C   0  0  0  0  0  0  0  0  0  0  0  0
    3.6011    0.4185    0.0000 C   0  0  0  0  0  0  0  0  0  0  0  0
    2.8861    0.8301    0.0000 C   0  0  0  0  0  0  0  0  0  0  0  0
    2.8901   -0.8218    0.0000 C   0  0  0  0  0  0  0  0  0  0  0  0
    2.1747   -0.4140    0.0000 C   0  0  0  0  0  0  0  0  0  0  0  0
    2.1747    0.4141    0.0000 C   0  0  0  0  0  0  0  0  0  0  0  0
    1.4615    0.8258    0.0000 N   0  0  0  0  0  0  0  0  0  0  0  0
    0.7438    0.4141    0.0000 C   0  0  0  0  0  0  0  0  0  0  0  0
    0.7438   -0.4140    0.0000 C   0  0  0  0  0  0  0  0  0  0  0  0
    1.4615   -0.8302    0.0000 N   0  0  0  0  0  0  0  0  0  0  0  0
    4.2850    0.8086    0.0000 S   0  0  0  0  0  0  0  0  0  0  0  0
    4.9675    1.2010    0.0000 O   0  0  0  0  0  0  0  0  0  0  0  0
    3.8925    1.4868    0.0000 O   0  0  0  0  0  0  0  0  0  0  0  0
    4.6815    0.1262    0.0000 O   0  0  0  0  0  0  0  0  0  0  0  0
   -3.5441    0.4083    0.0000 C   0  0  0  0  0  0  0  0  0  0  0  0
   -3.5441   -0.4184    0.0000 C   0  0  0  0  0  0  0  0  0  0  0  0
   -2.8291   -0.8300    0.0000 C   0  0  0  0  0  0  0  0  0  0  0  0
   -2.8333    0.8219    0.0000 C   0  0  0  0  0  0  0  0  0  0  0  0
   -2.1176    0.4141    0.0000 C   0  0  0  0  0  0  0  0  0  0  0  0
   -2.1176   -0.4140    0.0000 C   0  0  0  0  0  0  0  0  0  0  0  0
   -1.4046   -0.8256    0.0000 N   0  0  0  0  0  0  0  0  0  0  0  0
   -0.6869   -0.4140    0.0000 C   0  0  0  0  0  0  0  0  0  0  0  0
   -0.6869    0.4141    0.0000 C   0  0  0  0  0  0  0  0  0  0  0  0
   -1.4046    0.8302    0.0000 N   0  0  0  0  0  0  0  0  0  0  0  0
   -4.2280   -0.8085    0.0000 S   0  0  0  0  0  0  0  0  0  0  0  0
   -3.8357   -1.4868    0.0000 O   0  0  0  0  0  0  0  0  0  0  0  0
   -4.6246   -0.1261    0.0000 O   0  0  0  0  0  0  0  0  0  0  0  0
  4 14  2  0
  6  7  2  0
  7 16  1  0
  7  8  1  0
  8 11  2  0
  9  6  1  0
 10  9  2  0
 10 11  1  0
 10 15  1  0
 11 12  1  0
 12 13  2  0
 13  5  1  0
 13 14  1  0
 14 15  1  0
 16 17  1  0
 16 18  2  0
 16 19  2  0
 20 21  2  0
 21 22  1  0
 21 30  1  0
 22 25  2  0
 23 20  1  0
 24 23  2  0
 24 25  1  0
 24 29  1  0
 25 26  1  0
 26 27  2  0
 27  4  1  0
 27 28  1  0
 28  5  2  0
 28 29  1  0
 30  3  1  0
 30 31  2  0
 30 32  2  0
M  CHG  4   1   1   2   1   3  -1  17  -1
M  END
>  <DRUGBANK_ID>  (1) 
DB15951

>  <COMMON_NAME>  (1) 
Azapentacene

>  <CAS_NUMBER>  (1) 
3863-80-7

>  <UNII>  (1) 
58B6F1X64H

>  <SYNONYMS>  (1) 
Sodium 5,12-dihydroazapentacene disulfonate; Sodium dihydroazapentacene polysulfonate

$$$$
