7X8
     RDKit          2D

 27 30  0  0  0  0  0  0  0  0999 V2000
    5.9496    1.8115    0.0000 N   0  0  0  0  0  0  0  0  0  0  0  0
    5.9496    2.6365    0.0000 C   0  0  0  0  0  0  0  0  0  0  0  0
    5.2351    3.0490    0.0000 N   0  0  0  0  0  0  0  0  0  0  0  0
    5.2351    3.8740    0.0000 C   0  0  0  0  0  0  0  0  0  0  0  0
    5.9496    4.2865    0.0000 C   0  0  0  0  0  0  0  0  0  0  0  0
    6.6641    3.8740    0.0000 C   0  0  0  0  0  0  0  0  0  0  0  0
    7.3785    4.2865    0.0000 N   0  0  0  0  0  0  0  0  0  0  0  0
    7.3785    5.1115    0.0000 C   0  0  0  0  0  0  0  0  0  0  0  0
    6.6641    5.5240    0.0000 C   0  0  0  0  0  0  0  0  0  0  0  0
    5.8795    5.2690    0.0000 O   0  0  0  0  0  0  0  0  0  0  0  0
    5.3945    5.9365    0.0000 C   0  0  0  0  0  0  0  0  0  0  0  0
    5.8795    6.6039    0.0000 O   0  0  0  0  0  0  0  0  0  0  0  0
    6.6641    6.3490    0.0000 C   0  0  0  0  0  0  0  0  0  0  0  0
    7.3785    6.7615    0.0000 C   0  0  0  0  0  0  0  0  0  0  0  0
    8.0930    6.3490    0.0000 C   0  0  0  0  0  0  0  0  0  0  0  0
    8.0930    5.5240    0.0000 C   0  0  0  0  0  0  0  0  0  0  0  0
    8.8075    5.1115    0.0000 Cl  0  0  0  0  0  0  0  0  0  0  0  0
    6.6641    3.0490    0.0000 N   0  0  0  0  0  0  0  0  0  0  0  0
    5.2351   -1.0760    0.0000 N   0  0  0  0  0  0  0  0  0  0  0  0
    4.5207   -0.6635    0.0000 C   0  0  0  0  0  0  0  0  0  0  0  0
    3.8062   -1.0760    0.0000 O   0  0  0  0  0  0  0  0  0  0  0  0
    4.5207    0.1615    0.0000 C   0  0  0  0  0  0  0  0  0  0  0  0
    3.8062    0.5740    0.0000 C   0  0  0  0  0  0  0  0  0  0  0  0
    3.8062    1.3990    0.0000 C   0  0  0  0  0  0  0  0  0  0  0  0
    4.5207    1.8115    0.0000 C   0  0  0  0  0  0  0  0  0  0  0  0
    5.2351    1.3990    0.0000 C   0  0  0  0  0  0  0  0  0  0  0  0
    5.2351    0.5740    0.0000 C   0  0  0  0  0  0  0  0  0  0  0  0
  1  2  1  0
  1 26  1  0
  2  3  2  0
  2 18  1  0
  3  4  1  0
  4  5  2  0
  5  6  1  0
  6  7  1  0
  6 18  2  0
  7  8  1  0
  8  9  2  0
  8 16  1  0
  9 10  1  0
  9 13  1  0
 10 11  1  0
 11 12  1  0
 12 13  1  0
 13 14  2  0
 14 15  1  0
 15 16  2  0
 16 17  1  0
 19 20  1  0
 20 21  2  0
 20 22  1  0
 22 23  2  0
 22 27  1  0
 23 24  1  0
 24 25  2  0
 25 26  1  0
 26 27  2  0
M  END
>  <DRUGBANK_ID>  (1) 
DB07256

>  <COMMON_NAME>  (1) 
3-({4-[(5-CHLORO-1,3-BENZODIOXOL-4-YL)AMINO]PYRIMIDIN-2-YL}AMINO)BENZAMIDE

$$$$
