
     RDKit          2D

 29 32  0  0  1  0  0  0  0  0999 V2000
   -2.6577   -4.2207    0.0000 C   0  0  0  0  0  0  0  0  0  0  0  0
   -2.3221   -3.4670    0.0000 C   0  0  0  0  0  0  0  0  0  0  0  0
   -2.7346   -2.7525    0.0000 C   0  0  0  0  0  0  0  0  0  0  0  0
   -2.1826   -2.1394    0.0000 O   0  0  0  0  0  0  0  0  0  0  0  0
   -1.4289   -2.4750    0.0000 C   0  0  0  0  0  0  0  0  0  0  0  0
   -1.4289   -1.6500    0.0000 C   0  0  0  0  0  0  0  0  0  0  0  0
   -0.7145   -1.2375    0.0000 C   0  0  0  0  0  0  0  0  0  0  0  0
    0.0000   -1.6500    0.0000 N   0  0  0  0  0  0  0  0  0  0  0  0
   -0.0000   -2.4750    0.0000 C   0  0  0  0  0  0  0  0  0  0  0  0
   -0.7145   -2.8875    0.0000 C   0  0  0  0  0  0  0  0  0  0  0  0
    0.7145   -1.2375    0.0000 C   0  0  0  0  0  0  0  0  0  0  0  0
    0.7145   -0.4125    0.0000 N   0  0  0  0  0  0  0  0  0  0  0  0
    1.4289    0.0000    0.0000 C   0  0  0  0  0  0  0  0  0  0  0  0
    1.4289    0.8250    0.0000 O   0  0  0  0  0  0  0  0  0  0  0  0
    2.1434   -0.4125    0.0000 C   0  0  0  0  0  0  0  0  0  0  0  0
    2.8579    0.0000    0.0000 C   0  0  0  0  0  0  0  0  0  0  0  0
    3.5724   -0.4125    0.0000 C   0  0  0  0  0  0  0  0  0  0  0  0
    3.5724   -1.2375    0.0000 C   0  0  0  0  0  0  0  0  0  0  0  0
    2.8579   -1.6500    0.0000 C   0  0  0  0  0  0  0  0  0  0  0  0
    2.8579   -2.4750    0.0000 N   0  0  0  0  0  0  0  0  0  0  0  0
    2.1434   -2.8875    0.0000 O   0  0  0  0  0  0  0  0  0  0  0  0
    3.5724   -2.8875    0.0000 O   0  0  0  0  0  0  0  0  0  0  0  0
    2.1434   -1.2375    0.0000 C   0  0  0  0  0  0  0  0  0  0  0  0
    1.4289   -1.6500    0.0000 S   0  0  0  0  0  0  0  0  0  0  0  0
    4.2868   -0.0000    0.0000 C   0  0  0  0  0  0  0  0  0  0  0  0
    5.0013    0.4125    0.0000 F   0  0  0  0  0  0  0  0  0  0  0  0
    4.6993   -0.7145    0.0000 F   0  0  0  0  0  0  0  0  0  0  0  0
    3.8743    0.7145    0.0000 F   0  0  0  0  0  0  0  0  0  0  0  0
   -1.5152   -3.2955    0.0000 O   0  0  0  0  0  0  0  0  0  0  0  0
  2  1  1  1
  2  3  1  0
  2 29  1  0
  3  4  1  0
  4  5  1  0
  5  6  1  0
  5 10  1  0
  5 29  1  0
  6  7  1  0
  7  8  1  0
  8  9  1  0
  8 11  1  0
  9 10  1  0
 11 12  2  0
 11 24  1  0
 12 13  1  0
 13 14  2  0
 13 15  1  0
 15 16  2  0
 15 23  1  0
 16 17  1  0
 17 18  2  0
 17 25  1  0
 18 19  1  0
 19 20  1  0
 19 23  2  0
 20 21  1  0
 20 22  2  0
 23 24  1  0
 25 26  1  0
 25 27  1  0
 25 28  1  0
M  CHG  2  20   1  21  -1
M  END
>  <DRUGBANK_ID>  (1) 
DB17737

>  <COMMON_NAME>  (1) 
BTZ-043

>  <CAS_NUMBER>  (1) 
1161233-85-7

>  <UNII>  (1) 
G55ZH52P57

>  <SYNONYMS>  (1) 
2-((2s)-2-methyl-1,4-dioxa-8-azaspiro(4.5)decan-8-yl)-8-nitro-6-trifluoromethyl-4h-1,3-benzothiazin-4-one; 4h-1,3-benzothiazin-4-one, 2-((2s)-2-methyl-1,4-dioxa-8-azaspiro(4.5)dec-8-yl)-8-nitro-6-(trifluoromethyl)-

$$$$
