
     RDKit          2D

 27 29  0  0  0  0  0  0  0  0999 V2000
    2.1887    0.4132    0.0000 C   0  0  0  0  0  0  0  0  0  0  0  0
    2.1876   -0.4135    0.0000 C   0  0  0  0  0  0  0  0  0  0  0  0
    2.9019   -0.8260    0.0000 C   0  0  0  0  0  0  0  0  0  0  0  0
    3.6178   -0.4130    0.0000 C   0  0  0  0  0  0  0  0  0  0  0  0
    3.6151    0.4168    0.0000 C   0  0  0  0  0  0  0  0  0  0  0  0
    2.9001    0.8257    0.0000 C   0  0  0  0  0  0  0  0  0  0  0  0
   -3.6110    0.4442    0.0000 C   0  0  0  0  0  0  0  0  0  0  0  0
   -3.6122   -0.3825    0.0000 C   0  0  0  0  0  0  0  0  0  0  0  0
   -2.8978   -0.7951    0.0000 C   0  0  0  0  0  0  0  0  0  0  0  0
   -2.1818   -0.3821    0.0000 C   0  0  0  0  0  0  0  0  0  0  0  0
   -2.1847    0.4479    0.0000 C   0  0  0  0  0  0  0  0  0  0  0  0
   -2.8996    0.8567    0.0000 C   0  0  0  0  0  0  0  0  0  0  0  0
   -0.7495    0.4382    0.0000 C   0  0  0  0  0  0  0  0  0  0  0  0
   -0.7495   -0.3862    0.0000 C   0  0  0  0  0  0  0  0  0  0  0  0
    0.6735   -0.3862    0.0000 C   0  0  0  0  0  0  0  0  0  0  0  0
    0.6735    0.4382    0.0000 C   0  0  0  0  0  0  0  0  0  0  0  0
   -0.0420    0.8545    0.0000 O   0  0  0  0  0  0  0  0  0  0  0  0
   -1.4657   -0.7943    0.0000 C   0  0  0  0  0  0  0  0  0  0  0  0
    1.4240   -0.8567    0.0000 C   0  0  0  0  0  0  0  0  0  0  0  0
    4.3263   -0.8192    0.0000 O   0  0  0  0  0  0  0  0  0  0  0  0
    5.0383   -0.4070    0.0000 C   0  0  0  0  0  0  0  0  0  0  0  0
   -4.3304   -0.7901    0.0000 O   0  0  0  0  0  0  0  0  0  0  0  0
   -5.0383   -0.3778    0.0000 C   0  0  0  0  0  0  0  0  0  0  0  0
   -4.3263    0.8545    0.0000 O   0  0  0  0  0  0  0  0  0  0  0  0
   -5.0383    0.4423    0.0000 C   0  0  0  0  0  0  0  0  0  0  0  0
    4.3275    0.8318    0.0000 O   0  0  0  0  0  0  0  0  0  0  0  0
    1.3882    0.8492    0.0000 O   0  0  0  0  0  0  0  0  0  0  0  0
  1  2  2  0
  2  3  1  0
  3  4  2  0
  4  5  1  0
  4 20  1  0
  5  6  2  0
  5 26  1  0
  6  1  1  0
  7  8  2  0
  7 24  1  0
  8  9  1  0
  8 22  1  0
  9 10  2  0
 10 11  1  0
 11 12  2  0
 12  7  1  0
 13 14  1  0
 14 15  1  0
 14 18  1  1
 15 16  1  0
 15 19  1  6
 16 17  1  0
 16 27  2  0
 17 13  1  0
 18 10  1  0
 19  2  1  0
 20 21  1  0
 22 23  1  0
 24 25  1  0
M  END
>  <DRUGBANK_ID>  (1) 
DB16880

>  <COMMON_NAME>  (1) 
Arctigenin

>  <CAS_NUMBER>  (1) 
7770-78-7

>  <UNII>  (1) 
U76MR9VS6M

>  <SYNONYMS>  (1) 
(-)-Arctigenin

$$$$
