
     RDKit          2D

 19 20  0  0  0  0  0  0  0  0999 V2000
   -4.2868    7.4250    0.0000 C   0  0  0  0  0  0  0  0  0  0  0  0
    0.0000    3.3000    0.0000 C   0  0  0  0  0  0  0  0  0  0  0  0
   -1.4289    3.3000    0.0000 C   0  0  0  0  0  0  0  0  0  0  0  0
    0.0000    4.1250    0.0000 C   0  0  0  0  0  0  0  0  0  0  0  0
   -1.4289    4.1250    0.0000 C   0  0  0  0  0  0  0  0  0  0  0  0
   -1.4289    7.4250    0.0000 C   0  0  0  0  0  0  0  0  0  0  0  0
   -2.1434    7.8375    0.0000 C   0  0  0  0  0  0  0  0  0  0  0  0
   -0.7145    2.8875    0.0000 C   0  0  0  0  0  0  0  0  0  0  0  0
   -0.7145    4.5375    0.0000 C   0  0  0  0  0  0  0  0  0  0  0  0
   -1.4289    6.6000    0.0000 C   0  0  0  0  0  0  0  0  0  0  0  0
   -2.8579    7.4250    0.0000 C   0  0  0  0  0  0  0  0  0  0  0  0
   -0.7145    2.0625    0.0000 N   0  0  0  0  0  0  0  0  0  0  0  0
   -2.1434    6.1875    0.0000 N   0  0  0  0  0  0  0  0  0  0  0  0
   -2.8579    6.6000    0.0000 N   0  0  0  0  0  0  0  0  0  0  0  0
   -0.7145    6.1875    0.0000 N   0  0  0  0  0  0  0  0  0  0  0  0
   -1.5395    5.3625    0.0000 O   0  0  0  0  0  0  0  0  0  0  0  0
    0.1105    5.3625    0.0000 O   0  0  0  0  0  0  0  0  0  0  0  0
   -3.5724    7.8375    0.0000 O   0  0  0  0  0  0  0  0  0  0  0  0
   -0.7145    5.3625    0.0000 S   0  0  0  0  0  0  0  0  0  0  0  0
  4  2  2  0
  5  3  1  0
  7  6  2  0
  8  2  1  0
  8  3  2  0
  9  4  1  0
  9  5  2  0
 10  6  1  0
 11  7  1  0
 12  8  1  0
 13 10  2  0
 14 11  2  0
 14 13  1  0
 15 10  1  0
 18  1  1  0
 18 11  1  0
 19  9  1  0
 19 15  1  0
 19 16  2  0
 19 17  2  0
M  END
>  <DRUGBANK_ID>  (1) 
DB13773

>  <COMMON_NAME>  (1) 
Sulfamethoxypyridazine

>  <CAS_NUMBER>  (1) 
80-35-3

>  <UNII>  (1) 
T034E4NS2Z

>  <SYNONYMS>  (1) 
Sulfamethoxypyridazine; sulfametoxipiridazina

$$$$
