
     RDKit          2D

 21 21  0  0  0  0  0  0  0  0999 V2000
    2.0077    1.7395    0.0000 P   0  0  0  0  0  0  0  0  0  0  0  0
    1.2931    0.5020    0.0000 O   0  0  0  0  0  0  0  0  0  0  0  0
   -0.8503    1.7395    0.0000 O   0  0  0  0  0  0  0  0  0  0  0  0
   -0.1357   -1.1480    0.0000 O   0  0  0  0  0  0  0  0  0  0  0  0
    2.0077   -0.7355    0.0000 O   0  0  0  0  0  0  0  0  0  0  0  0
    2.7221    2.1520    0.0000 O   0  0  0  0  0  0  0  0  0  0  0  0
    1.5952    2.4540    0.0000 O   0  0  0  0  0  0  0  0  0  0  0  0
    2.4202    1.0250    0.0000 O   0  0  0  0  0  0  0  0  0  0  0  0
    2.0077   -2.3855    0.0000 O   0  0  0  0  0  0  0  0  0  0  0  0
   -1.5647    1.3270    0.0000 O   0  0  0  0  0  0  0  0  0  0  0  0
   -0.8503    0.0895    0.0000 N   0  0  0  0  0  0  0  0  0  0  0  0
   -0.1357    0.5020    0.0000 C   0  0  0  0  0  0  0  0  0  0  0  0
    0.5787    0.0895    0.0000 C   0  0  0  0  0  0  0  0  0  0  0  0
   -0.1357    1.3270    0.0000 C   0  0  0  0  0  0  0  0  0  0  0  0
    0.5787    1.7395    0.0000 C   0  0  0  0  0  0  0  0  0  0  0  0
    1.2931    1.3270    0.0000 C   0  0  0  0  0  0  0  0  0  0  0  0
    0.5787   -0.7355    0.0000 C   0  0  0  0  0  0  0  0  0  0  0  0
    1.2931   -1.1480    0.0000 C   0  0  0  0  0  0  0  0  0  0  0  0
    1.2931   -1.9730    0.0000 C   0  0  0  0  0  0  0  0  0  0  0  0
   -1.5647    0.5020    0.0000 C   0  0  0  0  0  0  0  0  0  0  0  0
   -2.2792    0.0895    0.0000 C   0  0  0  0  0  0  0  0  0  0  0  0
  1  6  1  0
  1  7  1  0
  1  8  2  0
 13  2  1  1
  2 16  1  0
  9 19  1  0
 10 20  2  0
 11 20  1  0
 12 11  1  6
 12 13  1  0
 12 14  1  0
 13 17  1  0
 14  3  1  1
 14 15  1  0
 15 16  1  0
 16  1  1  6
 17  4  1  1
 17 18  1  0
 18  5  1  6
 18 19  1  0
 20 21  1  0
M  END
>  <DRUGBANK_ID>  (1) 
DB04561

>  <SECONDARY_ACCESSION_NUMBERS>  (1) 
EXPT00595

>  <COMMON_NAME>  (1) 
4-acetamido-2,4-didexoy-D-glycero-beta-D-galacto-octopyranosylphosphonic acid

$$$$
