
     RDKit          2D

 12 13  0  0  0  0  0  0  0  0999 V2000
    0.2754    0.6853    0.0000 N   0  0  0  0  0  0  0  0  0  0  0  0
    0.7558    0.0227    0.0000 C   0  0  0  0  0  0  0  0  0  0  0  0
    0.2629   -0.6564    0.0000 C   0  0  0  0  0  0  0  0  0  0  0  0
   -0.5322   -0.4245    0.0000 C   0  0  0  0  0  0  0  0  0  0  0  0
   -0.5322    0.4202    0.0000 C   0  0  0  0  0  0  0  0  0  0  0  0
   -1.2279    0.8220    0.0000 C   0  0  0  0  0  0  0  0  0  0  0  0
   -1.9484    0.4202    0.0000 C   0  0  0  0  0  0  0  0  0  0  0  0
   -1.9484   -0.3996    0.0000 C   0  0  0  0  0  0  0  0  0  0  0  0
   -1.2279   -0.8055    0.0000 C   0  0  0  0  0  0  0  0  0  0  0  0
    1.5551    0.0351    0.0000 C   0  0  0  0  0  0  0  0  0  0  0  0
    1.9484   -0.7102    0.0000 O   0  0  0  0  0  0  0  0  0  0  0  0
    1.9484    0.7185    0.0000 O   0  0  0  0  0  0  0  0  0  0  0  0
  2  1  1  0
  2 10  1  6
  3  2  1  0
  4  3  1  6
  4  5  1  0
  5  1  1  0
  5  6  1  6
  7  6  1  0
  7  8  1  0
  8  9  1  0
  9  4  1  0
 11 10  2  0
 12 10  1  0
M  END
>  <DRUGBANK_ID>  (1) 
DB03409

>  <SECONDARY_ACCESSION_NUMBERS>  (1) 
EXPT02426

>  <COMMON_NAME>  (1) 
L-Octahydroindole-2-carboxylic acid

>  <CAS_NUMBER>  (1) 
80875-98-5

>  <UNII>  (1) 
9ID44U804I

>  <SYNONYMS>  (1) 
(2S,3aS,7aS)-2-Carboxyoctahydroindole; (2S,3aS,7aS)-Octahydroindole-2-carboxylic acid; Perindopril impurity A

$$$$
