
     RDKit          2D

 37 42  0  0  0  0  0  0  0  0999 V2000
    0.6490   -2.2790    0.0000 F   0  0  0  0  0  0  0  0  0  0  0  0
    1.0390   -1.5520    0.0000 C   0  0  0  0  0  0  0  0  0  0  0  0
    0.6043   -0.8508    0.0000 C   0  0  0  0  0  0  0  0  0  0  0  0
    0.9943   -0.1238    0.0000 C   0  0  0  0  0  0  0  0  0  0  0  0
    1.8189   -0.0980    0.0000 C   0  0  0  0  0  0  0  0  0  0  0  0
    2.2535   -0.7992    0.0000 C   0  0  0  0  0  0  0  0  0  0  0  0
    3.0781   -0.7735    0.0000 C   0  0  0  0  0  0  0  0  0  0  0  0
    3.5127   -1.4747    0.0000 C   0  0  0  0  0  0  0  0  0  0  0  0
    3.1228   -2.2017    0.0000 C   0  0  0  0  0  0  0  0  0  0  0  0
    2.2982   -2.2275    0.0000 S   0  0  0  0  0  0  0  0  0  0  0  0
    2.4667   -3.0351    0.0000 O   0  0  0  0  0  0  0  0  0  0  0  0
    1.5321   -2.5337    0.0000 O   0  0  0  0  0  0  0  0  0  0  0  0
    1.8636   -1.5262    0.0000 C   0  0  0  0  0  0  0  0  0  0  0  0
    4.3140   -1.2781    0.0000 C   0  0  0  0  0  0  0  0  0  0  0  0
    4.3745   -0.4553    0.0000 N   0  0  0  0  0  0  0  0  0  0  0  0
    3.6108   -0.1434    0.0000 N   0  0  0  0  0  0  0  0  0  0  0  0
    3.4141    0.6578    0.0000 C   0  0  0  0  0  0  0  0  0  0  0  0
    2.6219    0.8881    0.0000 C   0  0  0  0  0  0  0  0  0  0  0  0
    2.4253    1.6893    0.0000 C   0  0  0  0  0  0  0  0  0  0  0  0
    3.0208    2.2602    0.0000 C   0  0  0  0  0  0  0  0  0  0  0  0
    2.8242    3.0614    0.0000 C   0  0  0  0  0  0  0  0  0  0  0  0
    3.4197    3.6324    0.0000 N   0  0  0  0  0  0  0  0  0  0  0  0
    3.2231    4.4336    0.0000 C   0  0  0  0  0  0  0  0  0  0  0  0
    3.8187    5.0045    0.0000 C   0  0  0  0  0  0  0  0  0  0  0  0
    4.6109    4.7742    0.0000 O   0  0  0  0  0  0  0  0  0  0  0  0
    4.8075    3.9730    0.0000 C   0  0  0  0  0  0  0  0  0  0  0  0
    4.2119    3.4020    0.0000 C   0  0  0  0  0  0  0  0  0  0  0  0
    3.8130    2.0299    0.0000 C   0  0  0  0  0  0  0  0  0  0  0  0
    4.0097    1.2287    0.0000 C   0  0  0  0  0  0  0  0  0  0  0  0
    4.9440   -1.8107    0.0000 C   0  0  0  0  0  0  0  0  0  0  0  0
    5.7203   -1.5314    0.0000 O   0  0  0  0  0  0  0  0  0  0  0  0
    4.7978   -2.6226    0.0000 N   0  0  0  0  0  0  0  0  0  0  0  0
    5.4278   -3.1552    0.0000 C   0  0  0  0  0  0  0  0  0  0  0  0
    5.2816   -3.9672    0.0000 C   0  0  0  0  0  0  0  0  0  0  0  0
    4.5053   -4.2465    0.0000 O   0  0  0  0  0  0  0  0  0  0  0  0
    3.8752   -3.7139    0.0000 C   0  0  0  0  0  0  0  0  0  0  0  0
    4.0215   -2.9019    0.0000 C   0  0  0  0  0  0  0  0  0  0  0  0
  1  2  1  0
  2  3  2  0
  2 13  1  0
  3  4  1  0
  4  5  2  0
  5  6  1  0
  6  7  1  0
  6 13  2  0
  7  8  2  0
  7 16  1  0
  8  9  1  0
  8 14  1  0
  9 10  1  0
 10 11  2  0
 10 12  2  0
 10 13  1  0
 14 15  2  0
 14 30  1  0
 15 16  1  0
 16 17  1  0
 17 18  2  0
 17 29  1  0
 18 19  1  0
 19 20  2  0
 20 21  1  0
 20 28  1  0
 21 22  1  0
 22 23  1  0
 22 27  1  0
 23 24  1  0
 24 25  1  0
 25 26  1  0
 26 27  1  0
 28 29  2  0
 30 31  2  0
 30 32  1  0
 32 33  1  0
 32 37  1  0
 33 34  1  0
 34 35  1  0
 35 36  1  0
 36 37  1  0
M  END
>  <DRUGBANK_ID>  (1) 
DB18088

>  <COMMON_NAME>  (1) 
Roginolisib

>  <CAS_NUMBER>  (1) 
1305267-37-1

>  <UNII>  (1) 
6K8FC2TF54

>  <SYNONYMS>  (1) 
MSC-2360844

$$$$
