Untitled Document-1
     RDKit          2D

 15 15  0  0  0  0  0  0  0  0999 V2000
   -1.4289    0.4125    0.0000 C   0  0  0  0  0  0  0  0  0  0  0  0
   -1.4289   -0.4125    0.0000 C   0  0  0  0  0  0  0  0  0  0  0  0
   -0.7145   -0.8250    0.0000 C   0  0  0  0  0  0  0  0  0  0  0  0
    0.0000   -0.4125    0.0000 C   0  0  0  0  0  0  0  0  0  0  0  0
    0.0000    0.4125    0.0000 C   0  0  0  0  0  0  0  0  0  0  0  0
   -0.7145    0.8250    0.0000 O   0  0  0  0  0  0  0  0  0  0  0  0
   -2.1434    0.8250    0.0000 C   0  0  0  0  0  0  0  0  0  0  0  0
   -2.1434   -0.8250    0.0000 O   0  0  0  0  0  0  0  0  0  0  0  0
   -0.7145   -1.6500    0.0000 O   0  0  0  0  0  0  0  0  0  0  0  0
    0.7145   -0.8250    0.0000 N   0  0  0  0  0  0  0  0  0  0  0  0
    0.7145    0.8250    0.0000 O   0  0  0  0  0  0  0  0  0  0  0  0
    1.4289   -0.4125    0.0000 C   0  0  0  0  0  0  0  0  0  0  0  0
    2.1434   -0.8250    0.0000 C   0  0  0  0  0  0  0  0  0  0  0  0
    1.4289    0.4125    0.0000 O   0  0  0  0  0  0  0  0  0  0  0  0
   -2.1434    1.6500    0.0000 O   0  0  0  0  0  0  0  0  0  0  0  0
  1  2  1  0
  1  7  1  1
  2  3  1  0
  2  8  1  1
  3  4  1  0
  3  9  1  1
  4  5  1  0
  4 10  1  6
  5  6  1  0
  5 11  1  6
  6  1  1  0
  7 15  1  0
 10 12  1  0
 12 13  1  0
 12 14  2  0
M  END
>  <DRUGBANK_ID>  (1) 
DB03567

>  <SECONDARY_ACCESSION_NUMBERS>  (1) 
EXPT00365

>  <COMMON_NAME>  (1) 
alpha-N-Acetyl-D-galactosamine

>  <CAS_NUMBER>  (1) 
14215-68-0

>  <UNII>  (1) 
00C01APN10

>  <SYNONYMS>  (1) 
GalNAc-α; N-acetyl-2-deoxy-2-amino-galactose; N-acetyl-alpha-D-galactosamine; N-acetyl-α-D-galactosamine; Tn antigen saccharide; Tn antigen saccharide component; Tn saccharide; Tn saccharide component; α-GalNAc; α-GalpNAc

$$$$
