4BQ
     RDKit          2D

 24 25  0  0  0  0  0  0  0  0999 V2000
   -3.4072   -1.5158    0.0000 C   0  0  0  0  0  0  0  0  0  0  0  0
   -4.1217   -1.9283    0.0000 C   0  0  0  0  0  0  0  0  0  0  0  0
   -4.8361   -1.5158    0.0000 C   0  0  0  0  0  0  0  0  0  0  0  0
   -4.8361   -0.6908    0.0000 C   0  0  0  0  0  0  0  0  0  0  0  0
   -4.1217   -0.2783    0.0000 C   0  0  0  0  0  0  0  0  0  0  0  0
   -3.4072   -0.6908    0.0000 C   0  0  0  0  0  0  0  0  0  0  0  0
   -2.6927   -0.2783    0.0000 C   0  0  0  0  0  0  0  0  0  0  0  0
   -1.9782   -0.6908    0.0000 O   0  0  0  0  0  0  0  0  0  0  0  0
   -1.2638   -0.2783    0.0000 C   0  0  0  0  0  0  0  0  0  0  0  0
   -0.5493   -0.6908    0.0000 C   0  0  0  0  0  0  0  0  0  0  0  0
    0.1652   -0.2783    0.0000 C   0  0  0  0  0  0  0  0  0  0  0  0
   -1.2638    0.5467    0.0000 C   0  0  0  0  0  0  0  0  0  0  0  0
   -0.5493    0.9592    0.0000 C   0  0  0  0  0  0  0  0  0  0  0  0
    0.1652    0.5467    0.0000 C   0  0  0  0  0  0  0  0  0  0  0  0
    0.8796    0.9592    0.0000 N   0  0  0  0  0  0  0  0  0  0  0  0
    1.5941    0.5467    0.0000 C   0  0  0  0  0  0  0  0  0  0  0  0
    1.5941   -0.2783    0.0000 O   0  0  0  0  0  0  0  0  0  0  0  0
    2.3086    0.9592    0.0000 C   0  0  0  0  0  0  0  0  0  0  0  0
    3.0230    0.5467    0.0000 C   0  0  0  0  0  0  0  0  0  0  0  0
    3.7375    0.9592    0.0000 C   0  0  0  0  0  0  0  0  0  0  0  0
    4.4520    0.5467    0.0000 C   0  0  0  0  0  0  0  0  0  0  0  0
    5.1665    0.9592    0.0000 O   0  0  0  0  0  0  0  0  0  0  0  0
    4.4520   -0.2783    0.0000 O   0  0  0  0  0  0  0  0  0  0  0  0
    3.7375    1.7842    0.0000 N   0  0  0  0  0  0  0  0  0  0  0  0
  1  2  2  0
  2  3  1  0
  4  3  2  0
  5  4  1  0
  6  1  1  0
  6  5  2  0
  7  6  1  0
  8  7  1  0
  9  8  1  0
 10  9  2  0
 11 10  1  0
 12  9  1  0
 13 12  2  0
 14 11  2  0
 14 13  1  0
 15 14  1  0
 16 15  1  0
 16 17  2  0
 18 16  1  0
 18 19  1  0
 20 19  1  0
 20 21  1  0
 20 24  1  6
 21 23  1  0
 22 21  2  0
M  END
>  <DRUGBANK_ID>  (1) 
DB07102

>  <COMMON_NAME>  (1) 
(2S)-2-amino-5-oxo-5-[(4-phenylmethoxyphenyl)amino]pentanoic acid

$$$$
