
     RDKit          2D

  5  4  0  0  0  0  0  0  0  0999 V2000
    2.0625   -0.7145    0.0000 O   0  0  0  0  0  0  0  0  0  0  0  0
    1.2375   -0.7145    0.0000 C   0  0  0  0  0  0  0  0  0  0  0  0
    0.8250   -1.4289    0.0000 O   0  0  0  0  0  0  0  0  0  0  0  0
    0.8250    0.0000    0.0000 C   0  0  0  0  0  0  0  0  0  0  0  0
    0.0000    0.0000    0.0000 O   0  0  0  0  0  0  0  0  0  0  0  0
  1  2  1  0
  2  3  2  0
  2  4  1  0
  4  5  2  0
M  END
>  <DRUGBANK_ID>  (1) 
DB04343

>  <SECONDARY_ACCESSION_NUMBERS>  (1) 
EXPT01614

>  <COMMON_NAME>  (1) 
Glyoxylic acid

>  <CAS_NUMBER>  (1) 
298-12-4

>  <UNII>  (1) 
JQ39C92HH6

$$$$
