
     RDKit          2D

 11 12  0  0  0  0  0  0  0  0999 V2000
   -1.7053   -1.2364    0.0000 Br  0  0  0  0  0  0  0  0  0  0  0  0
   -0.9925   -0.8236    0.0000 C   0  0  0  0  0  0  0  0  0  0  0  0
   -0.2763   -1.2364    0.0000 N   0  0  0  0  0  0  0  0  0  0  0  0
    0.4366   -0.8236    0.0000 C   0  0  0  0  0  0  0  0  0  0  0  0
    1.2210   -1.0795    0.0000 N   0  0  0  0  0  0  0  0  0  0  0  0
    1.7053   -0.4110    0.0000 C   0  0  0  0  0  0  0  0  0  0  0  0
    1.2210    0.2541    0.0000 N   0  0  0  0  0  0  0  0  0  0  0  0
    0.4366    0.0017    0.0000 C   0  0  0  0  0  0  0  0  0  0  0  0
   -0.2763    0.4110    0.0000 C   0  0  0  0  0  0  0  0  0  0  0  0
   -0.2763    1.2364    0.0000 O   0  0  0  0  0  0  0  0  0  0  0  0
   -0.9925    0.0017    0.0000 N   0  0  0  0  0  0  0  0  0  0  0  0
  1  2  1  0
  2  3  2  0
  2 11  1  0
  3  4  1  0
  4  5  1  0
  4  8  2  0
  5  6  2  0
  6  7  1  0
  7  8  1  0
  8  9  1  0
  9 10  2  0
  9 11  1  0
M  END
>  <DRUGBANK_ID>  (1) 
DB04283

>  <SECONDARY_ACCESSION_NUMBERS>  (1) 
EXPT00735

>  <COMMON_NAME>  (1) 
2-Bromohypoxanthine

>  <CAS_NUMBER>  (1) 
87781-93-9

>  <UNII>  (1) 
6XXT2WA2NQ

$$$$
