B82
     RDKit          2D

 27 28  0  0  0  0  0  0  0  0999 V2000
    1.2080    0.9200    0.0000 S   0  0  0  0  0  0  0  0  0  0  0  0
    0.3830    0.9200    0.0000 O   0  0  0  0  0  0  0  0  0  0  0  0
    2.0330    0.9200    0.0000 O   0  0  0  0  0  0  0  0  0  0  0  0
    1.2080    1.7450    0.0000 N   0  0  0  0  0  0  0  0  0  0  0  0
    1.9225    2.1575    0.0000 C   0  0  0  0  0  0  0  0  0  0  0  0
    1.9225    2.9825    0.0000 C   0  0  0  0  0  0  0  0  0  0  0  0
    0.4936    2.1575    0.0000 C   0  0  0  0  0  0  0  0  0  0  0  0
    0.4936    2.9825    0.0000 C   0  0  0  0  0  0  0  0  0  0  0  0
    1.2080    0.0950    0.0000 C   0  0  0  0  0  0  0  0  0  0  0  0
    1.9225   -0.3175    0.0000 C   0  0  0  0  0  0  0  0  0  0  0  0
    2.6370    0.0950    0.0000 Br  0  0  0  0  0  0  0  0  0  0  0  0
    1.9225   -1.1425    0.0000 C   0  0  0  0  0  0  0  0  0  0  0  0
    1.2080   -1.5550    0.0000 C   0  0  0  0  0  0  0  0  0  0  0  0
    0.4936   -1.1425    0.0000 C   0  0  0  0  0  0  0  0  0  0  0  0
   -0.2209   -1.5550    0.0000 C   0  0  0  0  0  0  0  0  0  0  0  0
   -0.9354   -1.1425    0.0000 O   0  0  0  0  0  0  0  0  0  0  0  0
   -0.2209   -2.3800    0.0000 N   0  0  0  0  0  0  0  0  0  0  0  0
   -0.9354   -2.7925    0.0000 C   0  0  0  0  0  0  0  0  0  0  0  0
   -1.6499   -2.3800    0.0000 C   0  0  0  0  0  0  0  0  0  0  0  0
   -2.3643   -2.7925    0.0000 C   0  0  0  0  0  0  0  0  0  0  0  0
   -2.3643   -3.6175    0.0000 C   0  0  0  0  0  0  0  0  0  0  0  0
   -1.6499   -4.0300    0.0000 C   0  0  0  0  0  0  0  0  0  0  0  0
   -0.9354   -3.6175    0.0000 C   0  0  0  0  0  0  0  0  0  0  0  0
   -0.2209   -4.0300    0.0000 C   0  0  0  0  0  0  0  0  0  0  0  0
   -0.2209   -4.8550    0.0000 O   0  0  0  0  0  0  0  0  0  0  0  0
    0.4936   -3.6175    0.0000 O   0  0  0  0  0  0  0  0  0  0  0  0
    0.4936   -0.3175    0.0000 C   0  0  0  0  0  0  0  0  0  0  0  0
  1  2  2  0
  1  9  1  0
  3  1  2  0
  4  1  1  0
  4  7  1  0
  5  4  1  0
  6  5  1  0
  8  7  1  0
  9 10  2  0
 10 12  1  0
 10 11  1  0
 13 12  2  0
 14 13  1  0
 15 14  1  0
 15 17  1  0
 16 15  2  0
 18 17  1  0
 18 23  1  0
 19 18  2  0
 20 19  1  0
 20 21  2  0
 21 22  1  0
 22 23  2  0
 23 24  1  0
 24 25  2  0
 24 26  1  0
 27  9  1  0
 27 14  2  0
M  END
>  <DRUGBANK_ID>  (1) 
DB07429

>  <COMMON_NAME>  (1) 
2-({[4-bromo-3-(diethylsulfamoyl)phenyl]carbonyl}amino)benzoic acid

$$$$
