
     RDKit          2D

 32 35  0  0  0  0  0  0  0  0999 V2000
   -1.4401   -1.6142    0.0000 C   0  0  0  0  0  0  0  0  0  0  0  0
   -0.6377   -0.4319    0.0000 C   0  0  0  0  0  0  0  0  0  0  0  0
    1.2055    2.0524    0.0000 C   0  0  0  0  0  0  0  0  0  0  0  0
    2.0975    1.5399    0.0000 C   0  0  0  0  0  0  0  0  0  0  0  0
    3.9725    1.0349    0.0000 C   0  0  0  0  0  0  0  0  0  0  0  0
    4.2408    0.2548    0.0000 C   0  0  0  0  0  0  0  0  0  0  0  0
    3.1627    1.1927    0.0000 C   0  0  0  0  0  0  0  0  0  0  0  0
    3.6993   -0.3677    0.0000 C   0  0  0  0  0  0  0  0  0  0  0  0
   -1.2597   -0.4340    0.0000 C   0  0  0  0  0  0  0  0  0  0  0  0
   -1.8633   -0.9964    0.0000 C   0  0  0  0  0  0  0  0  0  0  0  0
   -2.2338    0.6115    0.0000 C   0  0  0  0  0  0  0  0  0  0  0  0
    0.0722   -0.1247    0.0000 C   0  0  0  0  0  0  0  0  0  0  0  0
    0.5074    1.2968    0.0000 C   0  0  0  0  0  0  0  0  0  0  0  0
   -0.6976   -1.2547    0.0000 C   0  0  0  0  0  0  0  0  0  0  0  0
   -1.4449    0.3699    0.0000 C   0  0  0  0  0  0  0  0  0  0  0  0
    2.6212    0.5702    0.0000 C   0  0  0  0  0  0  0  0  0  0  0  0
    0.7875   -0.5357    0.0000 C   0  0  0  0  0  0  0  0  0  0  0  0
   -2.6521   -0.7549    0.0000 C   0  0  0  0  0  0  0  0  0  0  0  0
   -2.8374    0.0490    0.0000 C   0  0  0  0  0  0  0  0  0  0  0  0
    2.8895   -0.2099    0.0000 C   0  0  0  0  0  0  0  0  0  0  0  0
    1.7964    0.5562    0.0000 C   0  0  0  0  0  0  0  0  0  0  0  0
    1.5548   -0.2327    0.0000 C   0  0  0  0  0  0  0  0  0  0  0  0
   -0.8414    0.9323    0.0000 C   0  0  0  0  0  0  0  0  0  0  0  0
    0.7276   -1.3585    0.0000 C   0  0  0  0  0  0  0  0  0  0  0  0
    1.3302    1.2368    0.0000 C   0  0  0  0  0  0  0  0  0  0  0  0
   -3.2557   -1.3173    0.0000 F   0  0  0  0  0  0  0  0  0  0  0  0
   -3.6262    0.2906    0.0000 F   0  0  0  0  0  0  0  0  0  0  0  0
    2.2305   -0.7062    0.0000 N   0  0  0  0  0  0  0  0  0  0  0  0
   -0.0525    0.6908    0.0000 N   0  0  0  0  0  0  0  0  0  0  0  0
   -1.0266    1.7363    0.0000 O   0  0  0  0  0  0  0  0  0  0  0  0
    1.4102   -1.8218    0.0000 O   0  0  0  0  0  0  0  0  0  0  0  0
   -0.0150   -1.7180    0.0000 O   0  0  0  0  0  0  0  0  0  0  0  0
  6  5  2  0
  7  5  1  0
  8  6  1  0
 10  9  2  0
 14  1  1  0
 14  2  1  0
 15  9  1  0
 15 11  2  0
 16  7  2  0
 17 12  2  0
 18 10  1  0
 19 11  1  0
 19 18  2  0
 20  8  2  0
 20 16  1  0
 21 16  1  0
 22 17  1  0
 22 21  2  0
 23 15  1  0
 24 17  1  0
 25  3  1  0
 25  4  1  0
 25 13  1  0
 25 21  1  0
 26 18  1  0
 27 19  1  0
 28 20  1  0
 28 22  1  0
 29 12  1  0
 29 13  1  0
 29 23  1  0
 30 23  2  0
 31 24  2  0
 32 14  1  0
 32 24  1  0
M  END
>  <DRUGBANK_ID>  (1) 
DB12719

>  <COMMON_NAME>  (1) 
Turofexorate isopropyl

>  <CAS_NUMBER>  (1) 
629664-81-9

>  <UNII>  (1) 
S6KDM312I5

>  <SYNONYMS>  (1) 
Turofexorate isopropyl

$$$$
