
     RDKit          2D

 18 19  0  0  0  0  0  0  0  0999 V2000
   -0.2523   -0.3215    0.0000 C   0  0  0  0  0  0  0  0  0  0  0  0
   -1.0663   -0.3215    0.0000 N   0  0  0  0  0  0  0  0  0  0  0  0
    0.1682    0.3947    0.0000 C   0  0  0  0  0  0  0  0  0  0  0  0
    0.1682   -1.0378    0.0000 C   0  0  0  0  0  0  0  0  0  0  0  0
   -1.4733    0.3947    0.0000 S   0  0  0  0  0  0  0  0  0  0  0  0
   -1.4733   -1.0378    0.0000 C   0  0  0  0  0  0  0  0  0  0  0  0
    0.9877    0.3947    0.0000 C   0  0  0  0  0  0  0  0  0  0  0  0
    0.9877   -1.0378    0.0000 C   0  0  0  0  0  0  0  0  0  0  0  0
   -2.3010    0.3947    0.0000 C   0  0  0  0  0  0  0  0  0  0  0  0
   -1.8369    1.0623    0.0000 O   0  0  0  0  0  0  0  0  0  0  0  0
   -0.9713    1.0432    0.0000 O   0  0  0  0  0  0  0  0  0  0  0  0
   -2.3010   -1.0378    0.0000 C   0  0  0  0  0  0  0  0  0  0  0  0
    1.3973   -0.3215    0.0000 C   0  0  0  0  0  0  0  0  0  0  0  0
   -2.7106   -0.3215    0.0000 C   0  0  0  0  0  0  0  0  0  0  0  0
    1.9889   -0.3134    0.0000 S   0  0  0  0  0  0  0  0  0  0  0  0
    2.7106   -0.3134    0.0000 N   0  0  0  0  0  0  0  0  0  0  0  0
    1.9889    0.3947    0.0000 O   0  0  0  0  0  0  0  0  0  0  0  0
    1.9889   -1.0623    0.0000 O   0  0  0  0  0  0  0  0  0  0  0  0
  1  2  1  0
  1  3  2  0
  1  4  1  0
  2  5  1  0
  2  6  1  0
  3  7  1  0
  4  8  2  0
  5  9  1  0
  5 10  2  0
  5 11  2  0
  6 12  1  0
  7 13  2  0
  8 13  1  0
  9 14  1  0
 12 14  1  0
 13 15  1  0
 15 16  1  0
 15 17  2  0
 15 18  2  0
M  END
>  <DRUGBANK_ID>  (1) 
DB08329

>  <COMMON_NAME>  (1) 
Sulthiame

>  <CAS_NUMBER>  (1) 
61-56-3

>  <UNII>  (1) 
I00Q766CZ2

>  <SYNONYMS>  (1) 
Sulthiame; Sultiame; Sultiamo; Sultiamum

$$$$
