
     RDKit          2D

 35 38  0  0  1  0  0  0  0  0999 V2000
   10.6529   -2.6101    0.0000 C   0  0  0  0  0  0  0  0  0  0  0  0
   10.6529   -3.4351    0.0000 C   0  0  0  0  0  0  0  0  0  0  0  0
   11.3541   -3.8476    0.0000 C   0  0  0  0  0  0  0  0  0  0  0  0
   12.0554   -3.4351    0.0000 C   0  0  0  0  0  0  0  0  0  0  0  0
   12.0554   -2.6101    0.0000 C   0  0  0  0  0  0  0  0  0  0  0  0
   11.3541   -2.1976    0.0000 C   0  0  0  0  0  0  0  0  0  0  0  0
   10.0341   -3.8476    0.0000 C   0  0  0  0  0  0  0  0  0  0  0  0
   10.1579   -4.4664    0.0000 N   0  0  0  0  0  0  0  0  0  0  0  0
   10.8591   -4.6314    0.0000 C   0  0  0  0  0  0  0  0  0  0  0  0
   10.8591   -5.4564    0.0000 O   0  0  0  0  0  0  0  0  0  0  0  0
   11.3541   -1.3726    0.0000 C   0  0  0  0  0  0  0  0  0  0  0  0
    9.9103   -2.1976    0.0000 C   0  0  0  0  0  0  0  0  0  0  0  0
   12.7979   -2.1976    0.0000 O   0  0  0  0  0  0  0  0  0  0  0  0
   12.0554   -5.0851    0.0000 C   0  0  0  0  0  0  0  0  0  0  0  0
   12.7979   -4.6726    0.0000 C   0  0  0  0  0  0  0  0  0  0  0  0
   12.7979   -3.8476    0.0000 C   0  0  0  0  0  0  0  0  0  0  0  0
   11.3541   -4.7551    0.0000 O   0  0  0  0  0  0  0  0  0  0  0  0
   12.0554   -5.9101    0.0000 O   0  0  0  0  0  0  0  0  0  0  0  0
   13.4991   -5.0851    0.0000 C   0  0  0  0  0  0  0  0  0  0  0  0
   14.2416   -4.6726    0.0000 C   0  0  0  0  0  0  0  0  0  0  0  0
   14.2416   -3.8476    0.0000 C   0  0  0  0  0  0  0  0  0  0  0  0
   13.4991   -3.4351    0.0000 C   0  0  0  0  0  0  0  0  0  0  0  0
   14.9428   -5.0851    0.0000 C   0  0  0  0  0  0  0  0  0  0  0  0
   15.6854   -4.6726    0.0000 C   0  0  0  0  0  0  0  0  0  0  0  0
   15.6854   -3.8476    0.0000 C   0  0  0  0  0  0  0  0  0  0  0  0
   14.9428   -3.4351    0.0000 C   0  0  0  0  0  0  0  0  0  0  0  0
   14.9428   -4.2601    0.0000 O   0  0  0  0  0  0  0  0  0  0  0  0
   14.9428   -2.6101    0.0000 C   0  0  0  0  0  0  0  0  0  0  0  0
    9.2916   -3.4351    0.0000 C   0  0  0  0  0  0  0  0  0  0  0  0
    8.5904   -3.8476    0.0000 C   0  0  0  0  0  0  0  0  0  0  0  0
    7.8479   -3.4351    0.0000 C   0  0  0  0  0  0  0  0  0  0  0  0
    7.1054   -3.8476    0.0000 C   0  0  0  0  0  0  0  0  0  0  0  0
    7.1054   -4.6726    0.0000 C   0  0  0  0  0  0  0  0  0  0  0  0
    7.8479   -5.0851    0.0000 C   0  0  0  0  0  0  0  0  0  0  0  0
    8.5904   -4.6726    0.0000 C   0  0  0  0  0  0  0  0  0  0  0  0
  2  1  1  6
  1  6  1  0
  1 12  1  6
  2  3  1  0
  2  7  1  0
  3  4  1  0
  3  9  1  0
  3 17  1  1
  4  5  1  0
  4 16  1  6
  5  6  1  0
  5 13  1  1
  6 11  2  0
  7  8  1  0
  7 29  1  1
  8  9  1  0
  9 10  2  0
 14 15  1  0
 14 18  2  0
 15 19  2  0
 16 22  2  0
 17 14  1  0
 19 20  1  0
 20 23  1  0
 20 27  1  6
 21 22  1  0
 21 26  1  0
 23 24  1  0
 24 25  1  0
 25 26  1  0
 26 28  1  6
 29 30  1  0
 30 31  2  0
 30 35  1  0
 31 32  1  0
 32 33  2  0
 33 34  1  0
 34 35  2  0
M  END
>  <DRUGBANK_ID>  (1) 
DB16766

>  <COMMON_NAME>  (1) 
Cytochalasin B

>  <CAS_NUMBER>  (1) 
14930-96-2

>  <UNII>  (1) 
3CHI920QS7

>  <SYNONYMS>  (1) 
Cytochalasin-B; Phomin

$$$$
