
     RDKit          2D

 30 32  0  0  1  0  0  0  0  0999 V2000
    3.8072    8.0086    0.0000 C   0  0  0  0  0  0  0  0  0  0  0  0
    4.2167    7.2924    0.0000 C   0  0  0  0  0  0  0  0  0  0  0  0
    3.8011    6.5796    0.0000 C   0  0  0  0  0  0  0  0  0  0  0  0
    4.2106    5.8634    0.0000 C   0  0  0  0  0  0  0  0  0  0  0  0
    3.7950    5.1507    0.0000 C   0  0  0  0  0  0  0  0  0  0  0  0
    4.2045    4.4345    0.0000 C   0  0  0  0  0  0  0  0  0  0  0  0
    3.7889    3.7218    0.0000 C   0  0  0  0  0  0  0  0  0  0  0  0
    3.0762    4.1373    0.0000 C   0  0  0  0  0  0  0  0  0  0  0  0
    4.5016    3.3062    0.0000 C   0  0  0  0  0  0  0  0  0  0  0  0
    3.3734    3.0091    0.0000 C   0  0  0  0  0  0  0  0  0  0  0  0
    3.7828    2.2929    0.0000 C   0  0  0  0  0  0  0  0  0  0  0  0
    3.3673    1.5802    0.0000 C   0  0  0  0  0  0  0  0  0  0  0  0
    3.7767    0.8639    0.0000 O   0  0  0  0  0  0  0  0  0  0  0  0
    3.3612    0.1512    0.0000 C   0  0  0  0  0  0  0  0  0  0  0  0
    2.5423    1.5837    0.0000 C   0  0  0  0  0  0  0  0  0  0  0  0
    2.1267    0.8710    0.0000 C   0  0  0  0  0  0  0  0  0  0  0  0
    2.5362    0.1547    0.0000 C   0  0  0  0  0  0  0  0  0  0  0  0
    2.1206   -0.5580    0.0000 C   0  0  0  0  0  0  0  0  0  0  0  0
    2.5301   -1.2742    0.0000 C   0  0  0  0  0  0  0  0  0  0  0  0
    3.3551   -1.2777    0.0000 O   0  0  0  0  0  0  0  0  0  0  0  0
    1.2957   -0.5544    0.0000 C   0  0  0  0  0  0  0  0  0  0  0  0
    1.2326    0.1301    0.0000 C   0  0  0  0  0  0  0  0  0  0  0  0
    1.3017    0.8745    0.0000 C   0  0  0  0  0  0  0  0  0  0  0  0
    0.8862    0.1618    0.0000 C   0  0  0  0  0  0  0  0  0  0  0  0
    0.1594    0.5522    0.0000 C   0  0  0  0  0  0  0  0  0  0  0  0
    0.1561   -0.2224    0.0000 C   0  0  0  0  0  0  0  0  0  0  0  0
    2.1328    2.2999    0.0000 C   0  0  0  0  0  0  0  0  0  0  0  0
    1.3078    2.3034    0.0000 O   0  0  0  0  0  0  0  0  0  0  0  0
    0.8984    3.0196    0.0000 C   0  0  0  0  0  0  0  0  0  0  0  0
    2.5484    3.0126    0.0000 C   0  0  0  0  0  0  0  0  0  0  0  0
  1  2  1  0
  2  3  1  0
  3  4  1  0
  4  5  1  0
  5  6  1  0
  6  7  1  0
  7  8  1  0
  7  9  1  0
  7 10  1  0
 10 11  2  0
 10 30  1  0
 11 12  1  0
 12 13  1  0
 12 15  2  0
 13 14  1  0
 15 27  1  0
 16 15  1  1
 16 17  1  0
 16 23  1  0
 17 18  2  0
 18 19  1  0
 19 20  1  0
 21 18  1  0
 21 22  1  1
 21 24  1  0
 23 22  1  1
 23 24  1  0
 24 25  1  0
 24 26  1  0
 27 28  1  0
 27 30  2  0
 28 29  1  0
M  END
>  <DRUGBANK_ID>  (1) 
DB18076

>  <COMMON_NAME>  (1) 
Onternabez

>  <CAS_NUMBER>  (1) 
256934-39-1

>  <UNII>  (1) 
8I5L034D55

>  <SYNONYMS>  (1) 
[(1S,2S,5S)-2-[2,6-dimethoxy-4-(2-methyloctan-2-yl)phenyl]-6,6-dimethyl-4-bicyclo[3.1.1]hept-3-enyl]methanol

$$$$
