
     RDKit          2D

 22 23  0  0  0  0  0  0  0  0999 V2000
    0.4994    1.7597    0.0000 O   0  0  0  0  0  0  0  0  0  0  0  0
    0.6836    0.7152    0.0000 C   0  0  0  0  0  0  0  0  0  0  0  0
    1.4682    0.9702    0.0000 S   0  0  0  0  0  0  0  0  0  0  0  0
    2.7782   -0.5221    0.0000 N   0  0  0  0  0  0  0  0  0  0  0  0
    3.6032    0.3028    0.0000 O   0  0  0  0  0  0  0  0  0  0  0  0
    2.7781    1.1278    0.0000 O   0  0  0  0  0  0  0  0  0  0  0  0
    2.7781    0.3028    0.0000 S   0  0  0  0  0  0  0  0  0  0  0  0
    1.9531    0.3028    0.0000 C   0  0  0  0  0  0  0  0  0  0  0  0
    1.4682   -0.3647    0.0000 C   0  0  0  0  0  0  0  0  0  0  0  0
    0.6836   -0.1097    0.0000 C   0  0  0  0  0  0  0  0  0  0  0  0
   -1.4597   -1.3471    0.0000 C   0  0  0  0  0  0  0  0  0  0  0  0
   -0.7452   -1.7597    0.0000 C   0  0  0  0  0  0  0  0  0  0  0  0
   -0.0307   -1.3471    0.0000 N   0  0  0  0  0  0  0  0  0  0  0  0
   -0.0307   -0.5221    0.0000 C   0  0  0  0  0  0  0  0  0  0  0  0
   -0.7452   -0.1097    0.0000 C   0  0  0  0  0  0  0  0  0  0  0  0
   -3.6032    0.7152    0.0000 C   0  0  0  0  0  0  0  0  0  0  0  0
   -2.8887    1.1278    0.0000 O   0  0  0  0  0  0  0  0  0  0  0  0
   -2.1743    0.7152    0.0000 C   0  0  0  0  0  0  0  0  0  0  0  0
   -1.4597    1.1278    0.0000 C   0  0  0  0  0  0  0  0  0  0  0  0
   -0.7452    0.7152    0.0000 N   0  0  0  0  0  0  0  0  0  0  0  0
   -0.0307    1.1278    0.0000 S   0  0  0  0  0  0  0  0  0  0  0  0
   -0.5610    1.7597    0.0000 O   0  0  0  0  0  0  0  0  0  0  0  0
  2 10  2  0
  2  3  1  0
  3  8  1  0
  7  4  1  0
  7  5  2  0
  7  6  2  0
  8  7  1  0
  9  8  2  0
 10  9  1  0
 10 14  1  0
 12 11  1  0
 13 12  1  0
 14 13  1  1
 15 14  1  0
 17 16  1  0
 18 17  1  0
 19 18  1  0
 20 15  1  0
 20 19  1  0
 21  1  2  0
 21  2  1  0
 21 20  1  0
 22 21  2  0
M  END
>  <DRUGBANK_ID>  (1) 
DB03877

>  <SECONDARY_ACCESSION_NUMBERS>  (1) 
EXPT00489

>  <COMMON_NAME>  (1) 
AL-4623

>  <CAS_NUMBER>  (1) 
138890-59-2

>  <UNII>  (1) 
1M7AKN51DU

$$$$
