
     RDKit          2D

 37 40  0  0  1  0  0  0  0  0999 V2000
    6.4106   -3.6017    0.0000 O   0  0  0  0  0  0  0  0  0  0  0  0
    5.0128   -3.3046    0.0000 O   0  0  0  0  0  0  0  0  0  0  0  0
    9.6468   -2.0682    0.0000 O   0  0  0  0  0  0  0  0  0  0  0  0
    6.7993    0.4199    0.0000 O   0  0  0  0  0  0  0  0  0  0  0  0
    9.6468   -3.3960    0.0000 O   0  0  0  0  0  0  0  0  0  0  0  0
    2.1350   -1.9745    0.0000 O   0  0  0  0  0  0  0  0  0  0  0  0
    5.8295   -0.9151    0.0000 N   0  0  0  0  0  0  0  0  0  0  0  0
    5.6433    1.2597    0.0000 N   0  0  0  0  0  0  0  0  0  0  0  0
    5.9690   -2.2426    0.0000 C   0  0  0  0  0  0  0  0  0  0  0  0
    6.7227   -1.9071    0.0000 C   0  0  0  0  0  0  0  0  0  0  0  0
    5.4170   -1.6296    0.0000 C   0  0  0  0  0  0  0  0  0  0  0  0
    6.6364   -1.0866    0.0000 C   0  0  0  0  0  0  0  0  0  0  0  0
    7.4372   -2.3196    0.0000 C   0  0  0  0  0  0  0  0  0  0  0  0
    4.5965   -1.7158    0.0000 C   0  0  0  0  0  0  0  0  0  0  0  0
    5.4939   -0.1614    0.0000 C   0  0  0  0  0  0  0  0  0  0  0  0
    5.7975   -3.0497    0.0000 C   0  0  0  0  0  0  0  0  0  0  0  0
    8.1517   -1.9071    0.0000 C   0  0  0  0  0  0  0  0  0  0  0  0
    5.9788    0.5061    0.0000 C   0  0  0  0  0  0  0  0  0  0  0  0
    7.4372   -3.1446    0.0000 C   0  0  0  0  0  0  0  0  0  0  0  0
    4.2609   -2.4695    0.0000 C   0  0  0  0  0  0  0  0  0  0  0  0
    4.1116   -1.0484    0.0000 C   0  0  0  0  0  0  0  0  0  0  0  0
    8.8661   -2.3196    0.0000 C   0  0  0  0  0  0  0  0  0  0  0  0
    8.1517   -3.5571    0.0000 C   0  0  0  0  0  0  0  0  0  0  0  0
    8.8661   -3.1446    0.0000 C   0  0  0  0  0  0  0  0  0  0  0  0
    3.4404   -2.5557    0.0000 C   0  0  0  0  0  0  0  0  0  0  0  0
    3.2910   -1.1346    0.0000 C   0  0  0  0  0  0  0  0  0  0  0  0
    4.8228    1.3460    0.0000 C   0  0  0  0  0  0  0  0  0  0  0  0
    6.1282    1.9272    0.0000 C   0  0  0  0  0  0  0  0  0  0  0  0
    2.9555   -1.8883    0.0000 C   0  0  0  0  0  0  0  0  0  0  0  0
    4.4872    2.0997    0.0000 C   0  0  0  0  0  0  0  0  0  0  0  0
    5.7926    2.6809    0.0000 C   0  0  0  0  0  0  0  0  0  0  0  0
   10.1283   -2.7321    0.0000 C   0  0  0  0  0  0  0  0  0  0  0  0
    3.6667    2.1859    0.0000 C   0  0  0  0  0  0  0  0  0  0  0  0
    6.2776    3.3483    0.0000 C   0  0  0  0  0  0  0  0  0  0  0  0
    3.3312    2.9396    0.0000 C   0  0  0  0  0  0  0  0  0  0  0  0
    5.9420    4.1021    0.0000 C   0  0  0  0  0  0  0  0  0  0  0  0
    1.6500   -1.3071    0.0000 C   0  0  0  0  0  0  0  0  0  0  0  0
  1 16  1  0
  2 16  2  0
  3 22  1  0
  3 32  1  0
  4 18  2  0
  5 24  1  0
  5 32  1  0
  6 29  1  0
  6 37  1  0
  7 11  1  0
  7 12  1  0
  7 15  1  0
  8 18  1  0
  8 27  1  0
  8 28  1  0
  9 10  1  0
  9 11  1  0
  9 16  1  1
 10 12  1  0
 10 13  1  6
 11 14  1  6
 13 17  1  0
 13 19  2  0
 14 20  2  0
 14 21  1  0
 15 18  1  0
 17 22  2  0
 19 23  1  0
 20 25  1  0
 21 26  2  0
 22 24  1  0
 23 24  2  0
 25 29  2  0
 26 29  1  0
 27 30  1  0
 28 31  1  0
 30 33  1  0
 31 34  1  0
 33 35  1  0
 34 36  1  0
M  END
>  <DRUGBANK_ID>  (1) 
DB06199

>  <COMMON_NAME>  (1) 
Atrasentan

>  <CAS_NUMBER>  (1) 
173937-91-2

>  <UNII>  (1) 
V6D7VK2215

>  <SYNONYMS>  (1) 
Atrasentan

$$$$
