
     RDKit          2D

  8  7  0  0  0  0  0  0  0  0999 V2000
    0.0000    0.0000    0.0000 P   0  0  0  0  0  0  0  0  0  0  0  0
    0.0000   -0.8249    0.0000 O   0  0  0  0  0  0  0  0  0  0  0  0
    0.8249    0.0000    0.0000 O   0  0  0  0  0  0  0  0  0  0  0  0
    1.2374   -0.7145    0.0000 C   0  0  0  0  0  0  0  0  0  0  0  0
   -0.8250    0.0000    0.0000 O   0  0  0  0  0  0  0  0  0  0  0  0
   -1.2375    0.7145    0.0000 C   0  0  0  0  0  0  0  0  0  0  0  0
    2.0624   -0.7145    0.0000 C   0  0  0  0  0  0  0  0  0  0  0  0
   -2.0625    0.7145    0.0000 C   0  0  0  0  0  0  0  0  0  0  0  0
  1  5  1  0
  1  2  2  0
  3  1  1  0
  3  4  1  0
  4  7  1  0
  5  6  1  0
  6  8  1  0
M  END
>  <DRUGBANK_ID>  (1) 
DB02811

>  <SECONDARY_ACCESSION_NUMBERS>  (1) 
EXPT01161

>  <COMMON_NAME>  (1) 
Diethyl phosphonate

>  <CAS_NUMBER>  (1) 
762-04-9

>  <UNII>  (1) 
U9X9YBA22W

>  <SYNONYMS>  (1) 
Diethyl acid phosphite; Diethyl hydrogen phosphite; Diethyl phosphite; Hydrogen diethyl phosphite; O,O-Diethyl phosphonate; Phosphonic acid diethyl ester; Phosphorous acid, diethyl ester

$$$$
