
     RDKit          2D

 32 34  0  0  0  0  0  0  0  0999 V2000
    1.2607    1.7465    0.0000 P   0  0  0  0  0  0  0  0  0  0  0  0
    2.6821    1.8934    0.0000 P   0  0  0  0  0  0  0  0  0  0  0  0
    4.1035    2.0403    0.0000 P   0  0  0  0  0  0  0  0  0  0  0  0
   -0.8303    0.2908    0.0000 O   0  0  0  0  0  0  0  0  0  0  0  0
   -1.8667    2.1572    0.0000 O   0  0  0  0  0  0  0  0  0  0  0  0
   -2.9242    0.7069    0.0000 O   0  0  0  0  0  0  0  0  0  0  0  0
    0.5924    1.2627    0.0000 O   0  0  0  0  0  0  0  0  0  0  0  0
    1.7445    1.0782    0.0000 O   0  0  0  0  0  0  0  0  0  0  0  0
    0.7769    2.4148    0.0000 O   0  0  0  0  0  0  0  0  0  0  0  0
    3.4352    1.5565    0.0000 O   0  0  0  0  0  0  0  0  0  0  0  0
    3.0190    2.6465    0.0000 O   0  0  0  0  0  0  0  0  0  0  0  0
   -3.3668   -3.0608    0.0000 O   0  0  0  0  0  0  0  0  0  0  0  0
    2.3453    1.1403    0.0000 O   0  0  0  0  0  0  0  0  0  0  0  0
    4.7718    2.5241    0.0000 O   0  0  0  0  0  0  0  0  0  0  0  0
    4.5873    1.3720    0.0000 O   0  0  0  0  0  0  0  0  0  0  0  0
    3.6197    2.7086    0.0000 O   0  0  0  0  0  0  0  0  0  0  0  0
   -1.8717   -0.7469    0.0000 N   0  0  0  0  0  0  0  0  0  0  0  0
   -3.3668   -0.5858    0.0000 N   0  0  0  0  0  0  0  0  0  0  0  0
   -1.8717   -2.0747    0.0000 N   0  0  0  0  0  0  0  0  0  0  0  0
   -4.0813   -1.8233    0.0000 N   0  0  0  0  0  0  0  0  0  0  0  0
   -4.7958   -0.5858    0.0000 N   0  0  0  0  0  0  0  0  0  0  0  0
   -1.6131    1.3721    0.0000 C   0  0  0  0  0  0  0  0  0  0  0  0
   -2.0992    0.7055    0.0000 C   0  0  0  0  0  0  0  0  0  0  0  0
   -0.8289    1.1158    0.0000 C   0  0  0  0  0  0  0  0  0  0  0  0
   -1.6154    0.0372    0.0000 C   0  0  0  0  0  0  0  0  0  0  0  0
   -0.1606    1.5996    0.0000 C   0  0  0  0  0  0  0  0  0  0  0  0
   -2.6523   -0.9983    0.0000 C   0  0  0  0  0  0  0  0  0  0  0  0
   -1.3902   -1.4108    0.0000 C   0  0  0  0  0  0  0  0  0  0  0  0
   -2.6523   -1.8233    0.0000 C   0  0  0  0  0  0  0  0  0  0  0  0
    1.9290    2.2303    0.0000 C   0  0  0  0  0  0  0  0  0  0  0  0
   -3.3668   -2.2358    0.0000 C   0  0  0  0  0  0  0  0  0  0  0  0
   -4.0813   -0.9983    0.0000 C   0  0  0  0  0  0  0  0  0  0  0  0
  1  7  1  0
  1  8  1  0
  1  9  2  0
  1 30  1  0
  2 10  1  0
  2 11  1  0
  2 13  2  0
  2 30  1  0
  3 10  1  0
  3 14  1  0
  3 15  1  0
  3 16  2  0
  4 24  1  0
  4 25  1  0
  7 26  1  0
 12 31  2  0
 17 27  1  0
 17 28  1  0
 18 27  1  0
 18 32  1  0
 19 28  2  0
 19 29  1  0
 20 31  1  0
 20 32  2  0
 21 32  1  0
 22  5  1  6
 22 23  1  0
 22 24  1  0
 23  6  1  6
 23 25  1  0
 24 26  1  1
 25 17  1  1
 27 29  2  0
 29 31  1  0
M  END
>  <DRUGBANK_ID>  (1) 
DB03532

>  <SECONDARY_ACCESSION_NUMBERS>  (1) 
EXPT01527

>  <COMMON_NAME>  (1) 
Phosphomethylphosphonic acid guanylate ester

$$$$
