DLI
     RDKit          2D

 31 34  0  0  0  0  0  0  0  0999 V2000
   -1.7893    1.1845    0.0000 C   0  0  0  0  0  0  0  0  0  0  0  0
   -1.7893    2.0095    0.0000 C   0  0  0  0  0  0  0  0  0  0  0  0
   -1.0748    2.4220    0.0000 C   0  0  0  0  0  0  0  0  0  0  0  0
   -1.0748   -0.0530    0.0000 C   0  0  0  0  0  0  0  0  0  0  0  0
   -0.4074   -0.5379    0.0000 C   0  0  0  0  0  0  0  0  0  0  0  0
    3.7756   -0.1377    0.0000 C   0  0  0  0  0  0  0  0  0  0  0  0
   -0.0280   -3.4111    0.0000 C   0  0  0  0  0  0  0  0  0  0  0  0
    0.6431   -1.9037    0.0000 C   0  0  0  0  0  0  0  0  0  0  0  0
    1.9485   -2.4849    0.0000 C   0  0  0  0  0  0  0  0  0  0  0  0
    3.2539   -3.0661    0.0000 C   0  0  0  0  0  0  0  0  0  0  0  0
    3.1045   -1.6450    0.0000 C   0  0  0  0  0  0  0  0  0  0  0  0
   -0.3603    2.0095    0.0000 C   0  0  0  0  0  0  0  0  0  0  0  0
   -0.3603    1.1845    0.0000 C   0  0  0  0  0  0  0  0  0  0  0  0
   -1.0748    0.7720    0.0000 C   0  0  0  0  0  0  0  0  0  0  0  0
   -1.7423   -0.5379    0.0000 C   0  0  0  0  0  0  0  0  0  0  0  0
   -2.5038    0.7720    0.0000 F   0  0  0  0  0  0  0  0  0  0  0  0
   -0.6623   -1.3225    0.0000 N   0  0  0  0  0  0  0  0  0  0  0  0
   -1.4873   -1.3225    0.0000 C   0  0  0  0  0  0  0  0  0  0  0  0
   -1.0748    3.2470    0.0000 F   0  0  0  0  0  0  0  0  0  0  0  0
   -0.1774   -1.9900    0.0000 C   0  0  0  0  0  0  0  0  0  0  0  0
    0.3541    2.4220    0.0000 F   0  0  0  0  0  0  0  0  0  0  0  0
   -0.5130   -2.7436    0.0000 N   0  0  0  0  0  0  0  0  0  0  0  0
    0.7924   -3.3248    0.0000 N   0  0  0  0  0  0  0  0  0  0  0  0
    1.1280   -2.5712    0.0000 C   0  0  0  0  0  0  0  0  0  0  0  0
   -2.5269   -0.2830    0.0000 N   0  0  0  0  0  0  0  0  0  0  0  0
    2.4334   -3.1524    0.0000 C   0  0  0  0  0  0  0  0  0  0  0  0
    3.5894   -2.3125    0.0000 C   0  0  0  0  0  0  0  0  0  0  0  0
    2.2840   -1.7313    0.0000 C   0  0  0  0  0  0  0  0  0  0  0  0
    3.4401   -0.8913    0.0000 S   0  0  0  0  0  0  0  0  0  0  0  0
    2.6864   -0.5558    0.0000 O   0  0  0  0  0  0  0  0  0  0  0  0
    4.1938   -1.2269    0.0000 O   0  0  0  0  0  0  0  0  0  0  0  0
  1 16  1  0
  1  2  2  0
  1 14  1  0
  2  3  1  0
  3 19  1  0
  3 12  2  0
  4  5  1  0
  4 14  1  1
  4 15  1  0
  5 17  1  0
  6 29  1  0
  7 22  2  0
  7 23  1  0
  8 20  2  0
  8 24  1  0
  9 24  1  0
  9 28  2  0
  9 26  1  0
 10 26  2  0
 10 27  1  0
 11 28  1  0
 11 29  1  0
 11 27  2  0
 12 13  1  0
 12 21  1  0
 13 14  2  0
 15 18  1  0
 15 25  1  6
 17 20  1  0
 17 18  1  0
 20 22  1  0
 23 24  2  0
 29 30  2  0
 29 31  2  0
M  END
>  <DRUGBANK_ID>  (1) 
DB07666

>  <COMMON_NAME>  (1) 
(3R,4S)-1-{6-[3-(METHYLSULFONYL)PHENYL]PYRIMIDIN-4-YL}-4-(2,4,5-TRIFLUOROPHENYL)PYRROLIDIN-3-AMINE

$$$$
