
     RDKit          2D

 27 27  0  0  1  0  0  0  0  0999 V2000
    3.5724   -7.8375    0.0000 O   0  0  0  0  0  0  0  0  0  0  0  0
    4.2868   -7.4250    0.0000 C   0  0  0  0  0  0  0  0  0  0  0  0
    4.2868   -6.6000    0.0000 O   0  0  0  0  0  0  0  0  0  0  0  0
    5.0013   -7.8375    0.0000 C   0  0  0  0  0  0  0  0  0  0  0  0
    5.7158   -7.4250    0.0000 C   0  0  0  0  0  0  0  0  0  0  0  0
    6.4302   -7.8375    0.0000 C   0  0  0  0  0  0  0  0  0  0  0  0
    7.1447   -7.4250    0.0000 N   0  0  0  0  0  0  0  0  0  0  0  0
    7.8592   -7.8375    0.0000 C   0  0  0  0  0  0  0  0  0  0  0  0
    7.8592   -8.6625    0.0000 O   0  0  0  0  0  0  0  0  0  0  0  0
    8.5737   -7.4250    0.0000 N   0  0  0  0  0  0  0  0  0  0  0  0
    9.2881   -7.8375    0.0000 C   0  0  0  0  0  0  0  0  0  0  0  0
   10.0026   -7.4250    0.0000 C   0  0  0  0  0  0  0  0  0  0  0  0
   10.7171   -7.8375    0.0000 S   0  0  0  0  0  0  0  0  0  0  0  0
   11.4315   -7.4250    0.0000 C   0  0  0  0  0  0  0  0  0  0  0  0
   12.1460   -7.8375    0.0000 C   0  0  0  0  0  0  0  0  0  0  0  0
   12.8605   -7.4250    0.0000 C   0  0  0  0  0  0  0  0  0  0  0  0
   13.5749   -7.8375    0.0000 C   0  0  0  0  0  0  0  0  0  0  0  0
   13.5749   -8.6625    0.0000 C   0  0  0  0  0  0  0  0  0  0  0  0
   14.2894   -9.0750    0.0000 F   0  0  0  0  0  0  0  0  0  0  0  0
   12.8605   -9.0750    0.0000 C   0  0  0  0  0  0  0  0  0  0  0  0
   12.1460   -8.6625    0.0000 C   0  0  0  0  0  0  0  0  0  0  0  0
    9.2881   -8.6625    0.0000 C   0  0  0  0  0  0  0  0  0  0  0  0
   10.0026   -9.0750    0.0000 O   0  0  0  0  0  0  0  0  0  0  0  0
    8.5737   -9.0750    0.0000 O   0  0  0  0  0  0  0  0  0  0  0  0
    6.4302   -8.6625    0.0000 C   0  0  0  0  0  0  0  0  0  0  0  0
    7.1447   -9.0750    0.0000 O   0  0  0  0  0  0  0  0  0  0  0  0
    5.7158   -9.0750    0.0000 O   0  0  0  0  0  0  0  0  0  0  0  0
  1  2  1  0
  2  3  2  0
  2  4  1  0
  4  5  1  0
  6  5  1  6
  6  7  1  0
  6 25  1  0
  7  8  1  0
  8  9  2  0
  8 10  1  0
 11 10  1  0
 11 12  1  1
 11 22  1  0
 12 13  1  0
 13 14  1  0
 14 15  1  0
 15 16  2  0
 15 21  1  0
 16 17  1  0
 17 18  2  0
 18 19  1  0
 18 20  1  0
 20 21  2  0
 22 23  1  0
 22 24  2  0
 25 26  1  0
 25 27  2  0
M  ISO  1  19  18
M  END
>  <DRUGBANK_ID>  (1) 
DB14772

>  <COMMON_NAME>  (1) 
DCFBC F-18

>  <CAS_NUMBER>  (1) 
1169942-33-9

>  <UNII>  (1) 
TUP7882K8T

>  <SYNONYMS>  (1) 
18F DCFBC

$$$$
