
     RDKit          2D

 21 24  0  0  0  0  0  0  0  0999 V2000
   -0.7221    0.1899    0.0000 C   0  0  0  0  0  0  0  0  0  0  0  0
    0.0000    0.6079    0.0000 O   0  0  0  0  0  0  0  0  0  0  0  0
    0.7031    0.1899    0.0000 C   0  0  0  0  0  0  0  0  0  0  0  0
   -0.7221   -0.6270    0.0000 C   0  0  0  0  0  0  0  0  0  0  0  0
    0.7031   -0.6270    0.0000 C   0  0  0  0  0  0  0  0  0  0  0  0
    0.0000   -1.0260    0.0000 C   0  0  0  0  0  0  0  0  0  0  0  0
   -1.4251    0.6079    0.0000 C   0  0  0  0  0  0  0  0  0  0  0  0
   -1.4251   -1.0260    0.0000 C   0  0  0  0  0  0  0  0  0  0  0  0
    1.4062    0.6079    0.0000 C   0  0  0  0  0  0  0  0  0  0  0  0
    0.0000   -1.8432    0.0000 O   0  0  0  0  0  0  0  0  0  0  0  0
   -2.1472    0.1899    0.0000 C   0  0  0  0  0  0  0  0  0  0  0  0
   -2.1472   -0.6270    0.0000 C   0  0  0  0  0  0  0  0  0  0  0  0
   -1.4251    1.4441    0.0000 C   0  0  0  0  0  0  0  0  0  0  0  0
    1.4062    1.4441    0.0000 C   0  0  0  0  0  0  0  0  0  0  0  0
    2.1283    0.1899    0.0000 C   0  0  0  0  0  0  0  0  0  0  0  0
   -2.8503    0.6079    0.0000 C   0  0  0  0  0  0  0  0  0  0  0  0
   -2.1472    1.8432    0.0000 C   0  0  0  0  0  0  0  0  0  0  0  0
    2.1283    1.8432    0.0000 C   0  0  0  0  0  0  0  0  0  0  0  0
    2.8503    0.6079    0.0000 C   0  0  0  0  0  0  0  0  0  0  0  0
   -2.8503    1.4441    0.0000 C   0  0  0  0  0  0  0  0  0  0  0  0
    2.8503    1.4441    0.0000 C   0  0  0  0  0  0  0  0  0  0  0  0
  2  1  1  0
  3  2  1  0
  4  1  2  0
  5  3  2  0
  6  4  1  0
  6  5  1  0
  7  1  1  0
  8  4  1  0
  9  3  1  0
 10  6  2  0
 11  7  2  0
 12  8  2  0
 12 11  1  0
 13  7  1  0
 14  9  2  0
 15  9  1  0
 16 11  1  0
 17 13  2  0
 18 14  1  0
 19 15  2  0
 20 16  2  0
 20 17  1  0
 21 18  2  0
 21 19  1  0
M  END
>  <DRUGBANK_ID>  (1) 
DB07453

>  <COMMON_NAME>  (1) 
alpha-Naphthoflavone

>  <CAS_NUMBER>  (1) 
604-59-1

>  <UNII>  (1) 
FML65D8PY5

>  <SYNONYMS>  (1) 
2-phenyl-4H-naphtho(1,2-b)pyran-4-one; 7,8-benzoflavone; Î±-naphthylflavone

$$$$
