
     RDKit          2D

  7  0  0  0  0  0  0  0  0  0999 V2000
   -1.1785    0.8250    0.0000 Fe  0  0  0  0  0 15  0  0  0  0  0  0
    2.0035    0.8250    0.0000 Fe  0  0  0  0  0 15  0  0  0  0  0  0
   -1.1785   -0.8250    0.0000 Fe  0  0  0  0  0 15  0  0  0  0  0  0
   -2.0035    0.8250    0.0000 O   0  0  0  0  0  0  0  0  0  0  0  0
    1.1785    0.8250    0.0000 O   0  0  0  0  0  0  0  0  0  0  0  0
   -2.0035   -0.8250    0.0000 O   0  0  0  0  0  0  0  0  0  0  0  0
    1.1785   -0.8250    0.0000 O   0  0  0  0  0  0  0  0  0  0  0  0
M  CHG  7   1   2   2   3   3   3   4  -2   5  -2   6  -2   7  -2
M  END
>  <DRUGBANK_ID>  (1) 
DB06215

>  <COMMON_NAME>  (1) 
Ferumoxytol

>  <CAS_NUMBER>  (1) 
722492-56-0

>  <UNII>  (1) 
G6N3J05W84

>  <SYNONYMS>  (1) 
Ferumoxytol; Ferumoxytol non-stoichiometric magnetite

$$$$
