
     RDKit          2D

 22 24  0  0  0  0  0  0  0  0999 V2000
    6.0117   -1.8209    0.0000 C   0  0  0  0  0  0  0  0  0  0  0  0
    5.2972   -2.2334    0.0000 C   0  0  0  0  0  0  0  0  0  0  0  0
    4.5828   -1.8209    0.0000 C   0  0  0  0  0  0  0  0  0  0  0  0
    3.8683   -2.2334    0.0000 S   0  0  0  0  0  0  0  0  0  0  0  0
    3.4558   -1.5189    0.0000 O   0  0  0  0  0  0  0  0  0  0  0  0
    4.2808   -2.9478    0.0000 O   0  0  0  0  0  0  0  0  0  0  0  0
    3.1538   -2.6459    0.0000 N   0  0  0  0  0  0  0  0  0  0  0  0
    2.4394   -2.2334    0.0000 C   0  0  0  0  0  0  0  0  0  0  0  0
    1.6425   -2.4469    0.0000 C   0  0  0  0  0  0  0  0  0  0  0  0
    1.4289   -1.6500    0.0000 C   0  0  0  0  0  0  0  0  0  0  0  0
    2.2258   -1.4365    0.0000 C   0  0  0  0  0  0  0  0  0  0  0  0
    0.7145   -1.2375    0.0000 N   0  0  0  0  0  0  0  0  0  0  0  0
    0.0000   -1.6500    0.0000 C   0  0  0  0  0  0  0  0  0  0  0  0
    0.7145   -0.4125    0.0000 C   0  0  0  0  0  0  0  0  0  0  0  0
    0.0000    0.0000    0.0000 C   0  0  0  0  0  0  0  0  0  0  0  0
   -0.7846   -0.2549    0.0000 C   0  0  0  0  0  0  0  0  0  0  0  0
   -1.2695    0.4125    0.0000 C   0  0  0  0  0  0  0  0  0  0  0  0
   -0.7846    1.0799    0.0000 N   0  0  0  0  0  0  0  0  0  0  0  0
    0.0000    0.8250    0.0000 C   0  0  0  0  0  0  0  0  0  0  0  0
    0.7145    1.2375    0.0000 N   0  0  0  0  0  0  0  0  0  0  0  0
    1.4289    0.8250    0.0000 C   0  0  0  0  0  0  0  0  0  0  0  0
    1.4289    0.0000    0.0000 N   0  0  0  0  0  0  0  0  0  0  0  0
  1  2  1  0
  2  3  1  0
  3  4  1  0
  4  5  2  0
  4  6  2  0
  4  7  1  0
  8  7  1  1
  8  9  1  0
  8 11  1  0
 10  9  1  0
 10 11  1  0
 10 12  1  1
 12 13  1  0
 12 14  1  0
 14 15  2  0
 14 22  1  0
 15 16  1  0
 15 19  1  0
 16 17  2  0
 17 18  1  0
 18 19  1  0
 19 20  2  0
 20 21  1  0
 21 22  2  0
M  END
>  <DRUGBANK_ID>  (1) 
DB14973

>  <COMMON_NAME>  (1) 
Abrocitinib

>  <CAS_NUMBER>  (1) 
1622902-68-4

>  <UNII>  (1) 
73SM5SF3OR

>  <SYNONYMS>  (1) 
Abrocitinib; PF-04965842

$$$$
