
     RDKit          2D

  6  4  0  0  0  0  0  0  0  0999 V2000
    0.0000    0.0000    0.0000 Ba  0  0  0  0  0 15  0  0  0  0  0  0
    2.8286   -0.8250    0.0000 O   0  0  0  0  0  0  0  0  0  0  0  0
    2.8286    0.0000    0.0000 S   0  0  0  0  0  0  0  0  0  0  0  0
    2.8286    0.8250    0.0000 O   0  0  0  0  0  0  0  0  0  0  0  0
    3.6536    0.0000    0.0000 O   0  0  0  0  0  0  0  0  0  0  0  0
    2.0036    0.0000    0.0000 O   0  0  0  0  0  0  0  0  0  0  0  0
  2  3  1  0
  3  4  1  0
  3  5  2  0
  3  6  2  0
M  CHG  3   1   2   2  -1   4  -1
M  END
>  <DRUGBANK_ID>  (1) 
DB11150

>  <COMMON_NAME>  (1) 
Barium sulfate

>  <CAS_NUMBER>  (1) 
7727-43-7

>  <UNII>  (1) 
25BB7EKE2E

>  <SYNONYMS>  (1) 
Bario sulfato; Barium sulfate

$$$$
