
     RDKit          2D

 13 12  0  0  0  0  0  0  0  0999 V2000
   -1.0312   -0.3572    0.0000 N   0  0  0  0  0  0  0  0  0  0  0  0
   -1.4437   -1.0717    0.0000 N   0  0  0  0  0  0  0  0  0  0  0  0
    1.0312    0.3572    0.0000 N   0  0  0  0  0  0  0  0  0  0  0  0
    1.4437    1.0716    0.0000 N   0  0  0  0  0  0  0  0  0  0  0  0
   -2.6812   -1.7861    0.0000 N   0  0  0  0  0  0  0  0  0  0  0  0
   -2.6812   -0.3572    0.0000 N   0  0  0  0  0  0  0  0  0  0  0  0
    2.6812    1.7861    0.0000 N   0  0  0  0  0  0  0  0  0  0  0  0
    2.6812    0.3572    0.0000 N   0  0  0  0  0  0  0  0  0  0  0  0
   -0.2062   -0.3572    0.0000 C   0  0  0  0  0  0  0  0  0  0  0  0
    0.2062    0.3572    0.0000 C   0  0  0  0  0  0  0  0  0  0  0  0
   -2.2687   -1.0717    0.0000 C   0  0  0  0  0  0  0  0  0  0  0  0
    2.2687    1.0716    0.0000 C   0  0  0  0  0  0  0  0  0  0  0  0
    0.2062   -1.0717    0.0000 C   0  0  0  0  0  0  0  0  0  0  0  0
  1  2  1  0
  1  9  2  0
  2 11  2  0
  3  4  1  0
  3 10  2  0
  4 12  2  0
  5 11  1  0
  7 12  1  0
  9 10  1  0
  9 13  1  0
 11  6  1  0
 12  8  1  0
M  END
>  <DRUGBANK_ID>  (1) 
DB12967

>  <COMMON_NAME>  (1) 
Mitoguazone

>  <CAS_NUMBER>  (1) 
459-86-9

>  <UNII>  (1) 
OD5Q0L447W

>  <SYNONYMS>  (1) 
Me-GAG; Methyl-G; Mitoguazona; Mitoguazone; Mitoguazonum

$$$$
