
     RDKit          2D

 25 22  0  0  0  0  0  0  0  0999 V2000
   -1.6340    1.0208    0.0000 C   0  0  0  0  0  0  0  0  0  0  0  0
   -2.3407    0.6281    0.0000 N   0  0  0  0  0  0  0  0  0  0  0  0
   -0.9272    0.6281    0.0000 S   0  0  0  0  0  0  0  0  0  0  0  0
   -1.6340    1.8454    0.0000 S   0  0  0  0  0  0  0  0  0  0  0  0
   -2.3407   -0.1963    0.0000 C   0  0  0  0  0  0  0  0  0  0  0  0
   -1.6340   -0.6281    0.0000 C   0  0  0  0  0  0  0  0  0  0  0  0
   -1.6732   -1.4527    0.0000 C   0  0  0  0  0  0  0  0  0  0  0  0
   -0.9272   -1.8454    0.0000 C   0  0  0  0  0  0  0  0  0  0  0  0
   -3.0474    1.0208    0.0000 C   0  0  0  0  0  0  0  0  0  0  0  0
   -3.7934    0.6281    0.0000 C   0  0  0  0  0  0  0  0  0  0  0  0
   -4.5003    1.0208    0.0000 C   0  0  0  0  0  0  0  0  0  0  0  0
   -5.2070    0.6281    0.0000 C   0  0  0  0  0  0  0  0  0  0  0  0
    1.6340    1.0208    0.0000 C   0  0  0  0  0  0  0  0  0  0  0  0
    2.3800    0.6281    0.0000 N   0  0  0  0  0  0  0  0  0  0  0  0
    0.9273    0.6281    0.0000 S   0  0  0  0  0  0  0  0  0  0  0  0
    1.6340    1.8454    0.0000 S   0  0  0  0  0  0  0  0  0  0  0  0
    2.3800   -0.1963    0.0000 C   0  0  0  0  0  0  0  0  0  0  0  0
    1.6340   -0.6281    0.0000 C   0  0  0  0  0  0  0  0  0  0  0  0
    1.6733   -1.4527    0.0000 C   0  0  0  0  0  0  0  0  0  0  0  0
    0.9273   -1.8454    0.0000 C   0  0  0  0  0  0  0  0  0  0  0  0
    3.0868    1.0208    0.0000 C   0  0  0  0  0  0  0  0  0  0  0  0
    3.7935    0.6281    0.0000 C   0  0  0  0  0  0  0  0  0  0  0  0
    4.5003    1.0208    0.0000 C   0  0  0  0  0  0  0  0  0  0  0  0
    5.2070    0.6281    0.0000 C   0  0  0  0  0  0  0  0  0  0  0  0
   -0.0246    1.2428    0.0000 Zn  0  0  0  0  0 15  0  0  0  0  0  0
  2  1  1  0
  3  1  1  0
  4  1  2  0
  5  2  1  0
  6  5  1  0
  7  6  1  0
  8  7  1  0
  9  2  1  0
 10  9  1  0
 11 10  1  0
 12 11  1  0
 14 13  1  0
 15 13  1  0
 16 13  2  0
 17 14  1  0
 18 17  1  0
 19 18  1  0
 20 19  1  0
 21 14  1  0
 22 21  1  0
 23 22  1  0
 24 23  1  0
M  CHG  3   3  -1  15  -1  25   2
M  END
>  <DRUGBANK_ID>  (1) 
DB14194

>  <COMMON_NAME>  (1) 
Zinc dibutyldithiocarbamate

>  <CAS_NUMBER>  (1) 
136-23-2

>  <UNII>  (1) 
HNM5J934VP

>  <SYNONYMS>  (1) 
(T-4)-bis(dibutylcarbamodithioato-κS,κS')zinc; bis(dibutyldithiocarbamato)zinc; dibutyldithiocarbamate zinc salt; zinc bis(dibutyldithiocarbamate); zinc bis(dibutyldithiocarbamoyl)disulfide; zinc bis(dibutyldithiocarbamoyl)disulphide; zinc bis(dibutylthiocarbamoyl)disulfide

$$$$
