
     RDKit          2D

 26 27  0  0  0  0  0  0  0  0999 V2000
   13.2730    0.1105    0.0000 C   0  0  0  0  0  0  0  0  0  0  0  0
   12.4480    1.5395    0.0000 C   0  0  0  0  0  0  0  0  0  0  0  0
    5.7158    0.8250    0.0000 C   0  0  0  0  0  0  0  0  0  0  0  0
   10.0026    0.8250    0.0000 C   0  0  0  0  0  0  0  0  0  0  0  0
    6.4302    0.4125    0.0000 C   0  0  0  0  0  0  0  0  0  0  0  0
   15.7184    0.8250    0.0000 C   0  0  0  0  0  0  0  0  0  0  0  0
   15.0039   -0.4125    0.0000 C   0  0  0  0  0  0  0  0  0  0  0  0
   15.0039    1.2375    0.0000 C   0  0  0  0  0  0  0  0  0  0  0  0
   14.2894    0.0000    0.0000 C   0  0  0  0  0  0  0  0  0  0  0  0
    5.7158    1.6500    0.0000 C   0  0  0  0  0  0  0  0  0  0  0  0
    9.2881    0.4125    0.0000 C   0  0  0  0  0  0  0  0  0  0  0  0
   10.7171    0.4125    0.0000 C   0  0  0  0  0  0  0  0  0  0  0  0
    7.1447    1.6500    0.0000 C   0  0  0  0  0  0  0  0  0  0  0  0
    7.1447    0.8250    0.0000 C   0  0  0  0  0  0  0  0  0  0  0  0
   15.7184    0.0000    0.0000 C   0  0  0  0  0  0  0  0  0  0  0  0
   14.2894    0.8250    0.0000 C   0  0  0  0  0  0  0  0  0  0  0  0
    7.8592    0.4125    0.0000 C   0  0  0  0  0  0  0  0  0  0  0  0
   12.1460    0.4125    0.0000 C   0  0  0  0  0  0  0  0  0  0  0  0
   12.8605    0.8250    0.0000 C   0  0  0  0  0  0  0  0  0  0  0  0
   16.4328   -0.4125    0.0000 Cl  0  0  0  0  0  0  0  0  0  0  0  0
    6.4302    2.0625    0.0000 N   0  0  0  0  0  0  0  0  0  0  0  0
    7.8592   -0.4125    0.0000 O   0  0  0  0  0  0  0  0  0  0  0  0
   12.1460   -0.4125    0.0000 O   0  0  0  0  0  0  0  0  0  0  0  0
    8.5737    0.8250    0.0000 O   0  0  0  0  0  0  0  0  0  0  0  0
   11.4315    0.8250    0.0000 O   0  0  0  0  0  0  0  0  0  0  0  0
   13.5749    1.2375    0.0000 O   0  0  0  0  0  0  0  0  0  0  0  0
  5  3  2  0
  8  6  2  0
  9  7  1  0
 10  3  1  0
 11  4  1  0
 12  4  1  0
 14  5  1  0
 14 13  2  0
 15  6  1  0
 15  7  2  0
 16  8  1  0
 16  9  2  0
 17 14  1  0
 19  1  1  0
 19  2  1  0
 19 18  1  0
 20 15  1  0
 21 10  2  0
 21 13  1  0
 22 17  2  0
 23 18  2  0
 24 11  1  0
 24 17  1  0
 25 12  1  0
 25 18  1  0
 26 16  1  0
 26 19  1  0
M  END
>  <DRUGBANK_ID>  (1) 
DB13460

>  <COMMON_NAME>  (1) 
Ronifibrate

>  <CAS_NUMBER>  (1) 
42597-57-9

>  <UNII>  (1) 
W86I18X716

>  <SYNONYMS>  (1) 
Ronifibrate

$$$$
