
     RDKit          2D

 21 22  0  0  0  0  0  0  0  0999 V2000
    2.1572    1.6810    0.0000 C   0  0  0  0  0  0  0  0  0  0  0  0
    1.4527    1.2632    0.0000 C   0  0  0  0  0  0  0  0  0  0  0  0
   -0.6899   -0.0097    0.0000 O   0  0  0  0  0  0  0  0  0  0  0  0
   -0.6899   -0.8210    0.0000 C   0  0  0  0  0  0  0  0  0  0  0  0
    2.1523    2.5022    0.0000 F   0  0  0  0  0  0  0  0  0  0  0  0
    2.8715    1.2778    0.0000 F   0  0  0  0  0  0  0  0  0  0  0  0
    2.7790    2.1766    0.0000 F   0  0  0  0  0  0  0  0  0  0  0  0
   -1.4284   -1.2632    0.0000 C   0  0  0  0  0  0  0  0  0  0  0  0
    0.7384    1.6714    0.0000 C   0  0  0  0  0  0  0  0  0  0  0  0
    1.4527    0.4129    0.0000 C   0  0  0  0  0  0  0  0  0  0  0  0
    0.0242    0.4129    0.0000 C   0  0  0  0  0  0  0  0  0  0  0  0
    0.0242   -1.2340    0.0000 C   0  0  0  0  0  0  0  0  0  0  0  0
    0.0242    1.2632    0.0000 C   0  0  0  0  0  0  0  0  0  0  0  0
    0.7384    0.0194    0.0000 C   0  0  0  0  0  0  0  0  0  0  0  0
    1.4381   -1.2340    0.0000 N   0  0  0  0  0  0  0  0  0  0  0  0
    0.7142   -0.8210    0.0000 C   0  0  0  0  0  0  0  0  0  0  0  0
   -1.4284   -2.0940    0.0000 C   0  0  0  0  0  0  0  0  0  0  0  0
   -2.1572   -0.8406    0.0000 C   0  0  0  0  0  0  0  0  0  0  0  0
   -2.1572   -2.5022    0.0000 C   0  0  0  0  0  0  0  0  0  0  0  0
   -2.8715   -1.2632    0.0000 C   0  0  0  0  0  0  0  0  0  0  0  0
   -2.8715   -2.0940    0.0000 C   0  0  0  0  0  0  0  0  0  0  0  0
  2  1  1  0
  3 11  1  0
  4  3  1  0
  5  1  1  0
  6  1  1  0
  7  1  1  0
  8  4  1  0
  9  2  2  0
 10  2  1  0
 11 14  1  0
  4 12  1  1
 13  9  1  0
 13 11  2  0
 14 10  2  0
 15 16  1  0
 16 12  1  0
 17  8  2  0
 18  8  1  0
 19 17  1  0
 20 18  2  0
 20 21  1  0
 21 19  2  0
M  END
>  <DRUGBANK_ID>  (1) 
DB06731

>  <COMMON_NAME>  (1) 
Seproxetine

>  <CAS_NUMBER>  (1) 
126924-38-7

>  <UNII>  (1) 
25CO3X0R31

>  <SYNONYMS>  (1) 
(S)-norfluoxetine; Seproxetine

$$$$
