TCO
     RDKit          2D

 17 17  0  0  0  0  0  0  0  0999 V2000
    0.2985   -0.1147    0.0000 N   0  0  0  0  0  0  0  0  0  0  0  0
   -0.4160    0.2978    0.0000 C   0  0  0  0  0  0  0  0  0  0  0  0
   -0.4160    1.1228    0.0000 C   0  0  0  0  0  0  0  0  0  0  0  0
    0.2985    1.5353    0.0000 O   0  0  0  0  0  0  0  0  0  0  0  0
   -1.1304   -0.9397    0.0000 C   0  0  0  0  0  0  0  0  0  0  0  0
   -1.8449   -1.3522    0.0000 C   0  0  0  0  0  0  0  0  0  0  0  0
   -2.5594   -0.9397    0.0000 C   0  0  0  0  0  0  0  0  0  0  0  0
   -2.5594   -0.1147    0.0000 C   0  0  0  0  0  0  0  0  0  0  0  0
   -1.8449    0.2978    0.0000 C   0  0  0  0  0  0  0  0  0  0  0  0
   -1.1304   -0.1147    0.0000 C   0  0  0  0  0  0  0  0  0  0  0  0
    1.0130    0.2978    0.0000 C   0  0  0  0  0  0  0  0  0  0  0  0
    1.0130    1.1228    0.0000 O   0  0  0  0  0  0  0  0  0  0  0  0
    1.7275   -0.1147    0.0000 O   0  0  0  0  0  0  0  0  0  0  0  0
    3.1564    0.7103    0.0000 C   0  0  0  0  0  0  0  0  0  0  0  0
    2.4419    0.2978    0.0000 C   0  0  0  0  0  0  0  0  0  0  0  0
    2.8544   -0.4167    0.0000 C   0  0  0  0  0  0  0  0  0  0  0  0
    2.0294    1.0123    0.0000 C   0  0  0  0  0  0  0  0  0  0  0  0
  1 11  1  0
  2  1  1  0
  2  3  1  1
  2 10  1  0
  3  4  2  0
  5  6  1  0
  5 10  1  0
  6  7  1  0
  7  8  1  0
  8  9  1  0
  9 10  1  0
 11 12  2  0
 11 13  1  0
 13 15  1  0
 14 15  1  0
 15 16  1  0
 15 17  1  0
M  END
>  <DRUGBANK_ID>  (1) 
DB04523

>  <SECONDARY_ACCESSION_NUMBERS>  (1) 
EXPT03026

>  <COMMON_NAME>  (1) 
Tert-Butyl(1s)-1-Cyclohexyl-2-Oxoethylcarbamate

$$$$
