
     RDKit          2D

 14 13  0  0  0  0  0  0  0  0999 V2000
    0.7145    2.0777    0.0000 O   0  0  0  0  0  0  0  0  0  0  0  0
    0.0000    3.3153    0.0000 O   0  0  0  0  0  0  0  0  0  0  0  0
   -1.4290    2.4903    0.0000 N   0  0  0  0  0  0  0  0  0  0  0  0
    0.7145   -0.3973    0.0000 N   0  0  0  0  0  0  0  0  0  0  0  0
    1.4289   -1.6348    0.0000 N   0  0  0  0  0  0  0  0  0  0  0  0
   -0.7145    1.2527    0.0000 C   0  0  0  0  0  0  0  0  0  0  0  0
   -0.7145    2.0777    0.0000 C   0  0  0  0  0  0  0  0  0  0  0  0
    0.0000    0.8402    0.0000 C   0  0  0  0  0  0  0  0  0  0  0  0
    0.0000    0.0152    0.0000 C   0  0  0  0  0  0  0  0  0  0  0  0
    0.0000    2.4903    0.0000 C   0  0  0  0  0  0  0  0  0  0  0  0
    0.0000   -1.6348    0.0000 C   0  0  0  0  0  0  0  0  0  0  0  0
    0.7145   -1.2223    0.0000 C   0  0  0  0  0  0  0  0  0  0  0  0
    0.0000   -2.4598    0.0000 C   0  0  0  0  0  0  0  0  0  0  0  0
   -0.7145   -2.8723    0.0000 C   0  0  0  0  0  0  0  0  0  0  0  0
  1 10  1  0
  2 10  2  0
  4  9  1  0
  4 12  2  0
  5 12  1  0
  6  7  1  0
  6  8  1  0
  7  3  1  6
  7 10  1  0
  8  9  1  0
 11 12  1  0
 11 13  1  0
 13 14  1  0
M  CHG  1   3   1
M  END
>  <DRUGBANK_ID>  (1) 
DB03710

>  <SECONDARY_ACCESSION_NUMBERS>  (1) 
EXPT03224

>  <COMMON_NAME>  (1) 
[(1S)-4-(1-Aminobutylideneamino)-1-carboxybutyl]azanium

$$$$
