
     RDKit          2D

 28 30  0  0  0  0  0  0  0  0999 V2000
    0.0000   -0.0000    0.0000 C   0  0  0  0  0  0  0  0  0  0  0  0
    0.0000   -0.8250    0.0000 N   0  0  0  0  0  0  0  0  0  0  0  0
    0.7145   -1.2375    0.0000 C   0  0  0  0  0  0  0  0  0  0  0  0
    0.7145   -2.0625    0.0000 C   0  0  0  0  0  0  0  0  0  0  0  0
    1.3819   -2.5474    0.0000 C   0  0  0  0  0  0  0  0  0  0  0  0
    1.1270   -3.3320    0.0000 N   0  0  0  0  0  0  0  0  0  0  0  0
    0.3020   -3.3320    0.0000 C   0  0  0  0  0  0  0  0  0  0  0  0
    0.0470   -2.5474    0.0000 C   0  0  0  0  0  0  0  0  0  0  0  0
   -0.7376   -2.2925    0.0000 O   0  0  0  0  0  0  0  0  0  0  0  0
   -0.9091   -1.4855    0.0000 C   0  0  0  0  0  0  0  0  0  0  0  0
   -0.1830   -3.9995    0.0000 C   0  0  0  0  0  0  0  0  0  0  0  0
   -1.0034   -3.9132    0.0000 C   0  0  0  0  0  0  0  0  0  0  0  0
   -1.3390   -3.1596    0.0000 F   0  0  0  0  0  0  0  0  0  0  0  0
   -1.4884   -4.5807    0.0000 C   0  0  0  0  0  0  0  0  0  0  0  0
   -1.1528   -5.3344    0.0000 C   0  0  0  0  0  0  0  0  0  0  0  0
   -1.6377   -6.0018    0.0000 F   0  0  0  0  0  0  0  0  0  0  0  0
   -0.3323   -5.4206    0.0000 C   0  0  0  0  0  0  0  0  0  0  0  0
    0.1526   -4.7532    0.0000 C   0  0  0  0  0  0  0  0  0  0  0  0
    1.6119   -3.9995    0.0000 S   0  0  0  0  0  0  0  0  0  0  0  0
    0.9445   -4.4844    0.0000 O   0  0  0  0  0  0  0  0  0  0  0  0
    2.2793   -3.5146    0.0000 O   0  0  0  0  0  0  0  0  0  0  0  0
    2.0968   -4.6669    0.0000 C   0  0  0  0  0  0  0  0  0  0  0  0
    2.9173   -4.5807    0.0000 C   0  0  0  0  0  0  0  0  0  0  0  0
    3.4022   -5.2481    0.0000 C   0  0  0  0  0  0  0  0  0  0  0  0
    4.2227   -5.1619    0.0000 F   0  0  0  0  0  0  0  0  0  0  0  0
    3.0667   -6.0018    0.0000 C   0  0  0  0  0  0  0  0  0  0  0  0
    2.2462   -6.0880    0.0000 C   0  0  0  0  0  0  0  0  0  0  0  0
    1.7613   -5.4206    0.0000 C   0  0  0  0  0  0  0  0  0  0  0  0
  1  2  1  0
  2  3  1  0
  3  4  1  0
  4  5  2  0
  4  8  1  0
  5  6  1  0
  6  7  1  0
  6 19  1  0
  7  8  2  0
  7 11  1  0
  8  9  1  0
  9 10  1  0
 11 12  2  0
 11 18  1  0
 12 13  1  0
 12 14  1  0
 14 15  2  0
 15 16  1  0
 15 17  1  0
 17 18  2  0
 19 20  2  0
 19 21  2  0
 19 22  1  0
 22 23  2  0
 22 28  1  0
 23 24  1  0
 24 25  1  0
 24 26  2  0
 26 27  1  0
 27 28  2  0
M  END
>  <DRUGBANK_ID>  (1) 
DB16078

>  <COMMON_NAME>  (1) 
Abeprazan

>  <CAS_NUMBER>  (1) 
1902954-60-2

>  <UNII>  (1) 
BE52S2C1QT

$$$$
