
     RDKit          2D

 19 20  0  0  0  0  0  0  0  0999 V2000
   -1.0717   -3.7125    0.0000 C   0  0  0  0  0  0  0  0  0  0  0  0
    1.0717    1.6500    0.0000 C   0  0  0  0  0  0  0  0  0  0  0  0
   -0.3572    1.6500    0.0000 C   0  0  0  0  0  0  0  0  0  0  0  0
    1.0717    2.4750    0.0000 C   0  0  0  0  0  0  0  0  0  0  0  0
   -0.3572    2.4750    0.0000 C   0  0  0  0  0  0  0  0  0  0  0  0
    0.3572   -2.0625    0.0000 C   0  0  0  0  0  0  0  0  0  0  0  0
   -1.0717   -2.0625    0.0000 C   0  0  0  0  0  0  0  0  0  0  0  0
    0.3572   -1.2375    0.0000 C   0  0  0  0  0  0  0  0  0  0  0  0
   -1.0717   -1.2375    0.0000 C   0  0  0  0  0  0  0  0  0  0  0  0
   -0.3572   -3.3000    0.0000 C   0  0  0  0  0  0  0  0  0  0  0  0
    0.3572    1.2375    0.0000 C   0  0  0  0  0  0  0  0  0  0  0  0
    0.3572    2.8875    0.0000 C   0  0  0  0  0  0  0  0  0  0  0  0
    0.3572    0.4125    0.0000 C   0  0  0  0  0  0  0  0  0  0  0  0
    0.3572    3.7125    0.0000 F   0  0  0  0  0  0  0  0  0  0  0  0
   -0.3572    0.0000    0.0000 N   0  0  0  0  0  0  0  0  0  0  0  0
   -0.3572   -2.4750    0.0000 N   0  0  0  0  0  0  0  0  0  0  0  0
   -0.3572   -0.8250    0.0000 N   0  0  0  0  0  0  0  0  0  0  0  0
    0.3572   -3.7125    0.0000 O   0  0  0  0  0  0  0  0  0  0  0  0
    1.0717    0.0000    0.0000 O   0  0  0  0  0  0  0  0  0  0  0  0
  4  2  2  0
  5  3  1  0
  8  6  1  0
  9  7  1  0
 10  1  1  0
 11  2  1  0
 11  3  2  0
 12  4  1  0
 12  5  2  0
 13 11  1  0
 14 12  1  0
 15 13  1  0
 16  6  1  0
 16  7  1  0
 16 10  1  0
 17  8  1  0
 17  9  1  0
 17 15  1  0
 18 10  2  0
 19 13  2  0
M  END
>  <DRUGBANK_ID>  (1) 
DB06465

>  <COMMON_NAME>  (1) 
FK-960

>  <CAS_NUMBER>  (1) 
133920-70-4

>  <UNII>  (1) 
60MMJ100ZX

>  <SYNONYMS>  (1) 
N-(4-Acetyl-1-piperazinyl)-4-fluorobenzamide

$$$$
