
     RDKit          2D

 10  9  0  0  1  0  0  0  0  0999 V2000
   15.4139  -13.3984    0.0000 C   0  0  0  0  0  0  0  0  0  0  0  0
   16.1270  -13.8134    0.0000 C   0  0  0  0  0  0  0  0  0  0  0  0
   14.6973  -13.8134    0.0000 C   0  0  0  0  0  0  0  0  0  0  0  0
   15.8176  -12.6856    0.0000 C   0  0  0  0  0  0  0  0  0  0  0  0
   14.9991  -12.6856    0.0000 O   0  0  0  0  0  0  0  0  0  0  0  0
   16.8435  -13.3984    0.0000 C   0  0  0  0  0  0  0  0  0  0  0  0
   16.1232  -14.7142    0.0000 O   0  0  0  0  0  0  0  0  0  0  0  0
   13.9882  -13.4060    0.0000 C   0  0  0  0  0  0  0  0  0  0  0  0
   17.5490  -13.8134    0.0000 O   0  0  0  0  0  0  0  0  0  0  0  0
   16.8398  -12.5723    0.0000 O   0  0  0  0  0  0  0  0  0  0  0  0
  1  2  1  0
  1  3  1  0
  1  4  1  6
  1  5  1  0
  2  6  1  0
  2  7  1  6
  3  8  1  0
  6  9  1  0
  6 10  2  0
M  END
>  <DRUGBANK_ID>  (1) 
DB03675

>  <SECONDARY_ACCESSION_NUMBERS>  (1) 
EXPT01232

>  <COMMON_NAME>  (1) 
2,3-Dihydroxy-Valerianic Acid

$$$$
