OFF
     RDKit          2D

 33 34  0  0  0  0  0  0  0  0999 V2000
   -3.0567   -0.8255    0.0000 C   0  0  0  0  0  0  0  0  0  0  0  0
   -3.4692   -1.5400    0.0000 C   0  0  0  0  0  0  0  0  0  0  0  0
   -3.0567   -2.2544    0.0000 C   0  0  0  0  0  0  0  0  0  0  0  0
   -3.4692   -2.9689    0.0000 O   0  0  0  0  0  0  0  0  0  0  0  0
   -2.2317   -2.2544    0.0000 C   0  0  0  0  0  0  0  0  0  0  0  0
   -1.8192   -1.5400    0.0000 C   0  0  0  0  0  0  0  0  0  0  0  0
   -2.2317   -0.8255    0.0000 C   0  0  0  0  0  0  0  0  0  0  0  0
   -1.8192   -0.1110    0.0000 C   0  0  0  0  0  0  0  0  0  0  0  0
   -0.9942   -0.1110    0.0000 C   0  0  0  0  0  0  0  0  0  0  0  0
   -0.5817    0.6034    0.0000 C   0  0  0  0  0  0  0  0  0  0  0  0
   -0.9942    1.3179    0.0000 O   0  0  0  0  0  0  0  0  0  0  0  0
    0.2433    0.6034    0.0000 O   0  0  0  0  0  0  0  0  0  0  0  0
    0.6558    1.3179    0.0000 C   0  0  0  0  0  0  0  0  0  0  0  0
    0.2433    2.0324    0.0000 C   0  0  0  0  0  0  0  0  0  0  0  0
   -0.5817    2.0324    0.0000 C   0  0  0  0  0  0  0  0  0  0  0  0
   -0.9942    2.7468    0.0000 O   0  0  0  0  0  0  0  0  0  0  0  0
   -1.3353    1.6968    0.0000 O   0  0  0  0  0  0  0  0  0  0  0  0
    1.4808    1.3179    0.0000 C   0  0  0  0  0  0  0  0  0  0  0  0
    1.8933    0.6034    0.0000 C   0  0  0  0  0  0  0  0  0  0  0  0
    1.4808   -0.1110    0.0000 O   0  0  0  0  0  0  0  0  0  0  0  0
    2.7183    0.6034    0.0000 O   0  0  0  0  0  0  0  0  0  0  0  0
    1.8933    2.0324    0.0000 O   0  0  0  0  0  0  0  0  0  0  0  0
    2.7183    2.0324    0.0000 C   0  0  0  0  0  0  0  0  0  0  0  0
    3.1308    1.3179    0.0000 O   0  0  0  0  0  0  0  0  0  0  0  0
    3.1308    2.7468    0.0000 C   0  0  0  0  0  0  0  0  0  0  0  0
    3.9558    2.7468    0.0000 C   0  0  0  0  0  0  0  0  0  0  0  0
    4.3683    3.4613    0.0000 C   0  0  0  0  0  0  0  0  0  0  0  0
    5.1933    3.4613    0.0000 C   0  0  0  0  0  0  0  0  0  0  0  0
    5.6058    4.1758    0.0000 C   0  0  0  0  0  0  0  0  0  0  0  0
    5.1933    4.8903    0.0000 C   0  0  0  0  0  0  0  0  0  0  0  0
    5.6058    5.6047    0.0000 O   0  0  0  0  0  0  0  0  0  0  0  0
    4.3683    4.8903    0.0000 C   0  0  0  0  0  0  0  0  0  0  0  0
    3.9558    4.1758    0.0000 C   0  0  0  0  0  0  0  0  0  0  0  0
  1  7  2  0
  1  2  1  0
  2  3  2  0
  3  5  1  0
  3  4  1  0
  5  6  2  0
  6  7  1  0
  7  8  1  0
  8  9  2  0
  9 10  1  0
 10 11  2  0
 10 12  1  0
 13 12  1  0
 13 14  1  1
 13 18  1  0
 14 15  1  0
 15 17  2  0
 15 16  1  0
 18 19  1  0
 18 22  1  1
 19 21  2  0
 19 20  1  0
 22 23  1  0
 23 25  1  0
 23 24  2  0
 25 26  2  0
 26 27  1  0
 27 33  1  0
 27 28  2  0
 28 29  1  0
 29 30  2  0
 30 32  1  0
 30 31  1  0
 32 33  2  0
M  END
>  <DRUGBANK_ID>  (1) 
DB08322

>  <COMMON_NAME>  (1) 
2-DEOXY-3,4-BIS-O-[3-(4-HYDROXYPHENYL)PROPANOYL]-L-THREO-PENTARIC ACID

>  <UNII>  (1) 
66G69TD43K

$$$$
