
     RDKit          2D

 38 44  0  0  1  0  0  0  0  0999 V2000
    2.4142    4.1517    0.0000 C   0  0  0  0  0  0  0  0  0  0  0  0
    2.2871    3.3365    0.0000 N   0  0  0  0  0  0  0  0  0  0  0  0
    2.9296    2.8189    0.0000 C   0  0  0  0  0  0  0  0  0  0  0  0
    3.7441    2.9500    0.0000 N   0  0  0  0  0  0  0  0  0  0  0  0
    4.1204    2.2158    0.0000 C   0  0  0  0  0  0  0  0  0  0  0  0
    4.8564    1.8431    0.0000 C   0  0  0  0  0  0  0  0  0  0  0  0
    4.7293    1.0279    0.0000 C   0  0  0  0  0  0  0  0  0  0  0  0
    3.9148    0.8969    0.0000 C   0  0  0  0  0  0  0  0  0  0  0  0
    3.5385    1.6310    0.0000 C   0  0  0  0  0  0  0  0  0  0  0  0
    2.8025    2.0038    0.0000 N   0  0  0  0  0  0  0  0  0  0  0  0
    2.0330    1.7062    0.0000 C   0  0  0  0  0  0  0  0  0  0  0  0
    1.7392    0.9353    0.0000 N   0  0  0  0  0  0  0  0  0  0  0  0
    0.9153    0.9765    0.0000 N   0  0  0  0  0  0  0  0  0  0  0  0
    0.3977    0.3341    0.0000 C   0  0  0  0  0  0  0  0  0  0  0  0
   -0.4175    0.4611    0.0000 C   0  0  0  0  0  0  0  0  0  0  0  0
   -0.9351   -0.1813    0.0000 C   0  0  0  0  0  0  0  0  0  0  0  0
   -1.7503   -0.0542    0.0000 C   0  0  0  0  0  0  0  0  0  0  0  0
   -2.0478    0.7153    0.0000 C   0  0  0  0  0  0  0  0  0  0  0  0
   -1.5302    1.3577    0.0000 C   0  0  0  0  0  0  0  0  0  0  0  0
   -0.7150    1.2306    0.0000 C   0  0  0  0  0  0  0  0  0  0  0  0
   -2.8630    0.8423    0.0000 C   0  0  0  0  0  0  0  0  0  0  0  0
   -3.3806    0.1999    0.0000 N   0  0  0  0  0  0  0  0  0  0  0  0
   -4.1957    0.3270    0.0000 C   0  0  0  0  0  0  0  0  0  0  0  0
   -4.7134   -0.3154    0.0000 F   0  0  0  0  0  0  0  0  0  0  0  0
   -4.4933    1.0964    0.0000 C   0  0  0  0  0  0  0  0  0  0  0  0
   -3.9757    1.7389    0.0000 C   0  0  0  0  0  0  0  0  0  0  0  0
   -3.1605    1.6118    0.0000 C   0  0  0  0  0  0  0  0  0  0  0  0
    0.6998    1.7728    0.0000 C   0  0  0  0  0  0  0  0  0  0  0  0
   -0.0711    2.0666    0.0000 N   0  0  0  0  0  0  0  0  0  0  0  0
   -0.2022    2.8811    0.0000 C   0  0  0  0  0  0  0  0  0  0  0  0
   -0.9731    3.1749    0.0000 C   0  0  0  0  0  0  0  0  0  0  0  0
   -1.1042    3.9894    0.0000 C   0  0  0  0  0  0  0  0  0  0  0  0
   -0.4643    4.5102    0.0000 C   0  0  0  0  0  0  0  0  0  0  0  0
    0.3066    4.2164    0.0000 C   0  0  0  0  0  0  0  0  0  0  0  0
    0.4377    3.4019    0.0000 C   0  0  0  0  0  0  0  0  0  0  0  0
    1.3906    2.2239    0.0000 C   0  0  0  0  0  0  0  0  0  0  0  0
    1.5177    3.0390    0.0000 C   0  0  0  0  0  0  0  0  0  0  0  0
    0.8753    3.5566    0.0000 O   0  0  0  0  0  0  0  0  0  0  0  0
  1  2  1  0
  2  3  1  0
  2 37  1  0
  3  4  2  0
  3 10  1  0
  5  4  1  0
  5  6  1  6
  5  9  1  0
  6  7  1  0
  7  8  1  0
  9  8  1  6
  9 10  1  0
 10 11  1  0
 11 12  2  0
 11 36  1  0
 12 13  1  0
 13 14  1  0
 13 28  1  0
 14 15  1  0
 15 16  2  0
 15 20  1  0
 16 17  1  0
 17 18  2  0
 18 19  1  0
 18 21  1  0
 19 20  2  0
 21 22  2  0
 21 27  1  0
 22 23  1  0
 23 24  1  0
 23 25  2  0
 25 26  1  0
 26 27  2  0
 28 29  1  0
 28 36  2  0
 29 30  1  0
 30 31  2  0
 30 35  1  0
 31 32  1  0
 32 33  2  0
 33 34  1  0
 34 35  2  0
 36 37  1  0
 37 38  2  0
M  END
>  <DRUGBANK_ID>  (1) 
DB15039

>  <COMMON_NAME>  (1) 
ITI-214

>  <CAS_NUMBER>  (1) 
1160521-50-5

>  <UNII>  (1) 
3GBO34D1BE

$$$$
