
     RDKit          2D

 19 20  0  0  0  0  0  0  0  0999 V2000
   -1.0970   -1.9231    0.0000 C   0  0  0  0  0  0  0  0  0  0  0  0
   -1.8115   -1.5106    0.0000 C   0  0  0  0  0  0  0  0  0  0  0  0
   -0.3825   -0.6856    0.0000 C   0  0  0  0  0  0  0  0  0  0  0  0
   -0.3825   -1.5106    0.0000 C   0  0  0  0  0  0  0  0  0  0  0  0
   -1.8115   -0.6856    0.0000 C   0  0  0  0  0  0  0  0  0  0  0  0
    0.4021   -0.4307    0.0000 C   0  0  0  0  0  0  0  0  0  0  0  0
    0.8869   -1.0981    0.0000 C   0  0  0  0  0  0  0  0  0  0  0  0
    0.4021   -1.7655    0.0000 N   0  0  0  0  0  0  0  0  0  0  0  0
    1.4639    0.5254    0.0000 C   0  0  0  0  0  0  0  0  0  0  0  0
    1.7189    1.3100    0.0000 N   0  0  0  0  0  0  0  0  0  0  0  0
    2.5258    1.4815    0.0000 C   0  0  0  0  0  0  0  0  0  0  0  0
    0.6569    0.3539    0.0000 C   0  0  0  0  0  0  0  0  0  0  0  0
    1.1669    1.9231    0.0000 C   0  0  0  0  0  0  0  0  0  0  0  0
   -1.0970   -0.2731    0.0000 C   0  0  0  0  0  0  0  0  0  0  0  0
   -1.0970    0.5518    0.0000 O   0  0  0  0  0  0  0  0  0  0  0  0
   -2.5259    0.5518    0.0000 O   0  0  0  0  0  0  0  0  0  0  0  0
   -1.8115    1.7893    0.0000 O   0  0  0  0  0  0  0  0  0  0  0  0
   -1.8115    0.9643    0.0000 P   0  0  0  0  0  0  0  0  0  0  0  0
   -2.0250    0.1674    0.0000 O   0  0  0  0  0  0  0  0  0  0  0  0
  1  2  2  0
  3  6  1  0
  3  4  2  0
  3 14  1  0
  4  1  1  0
  4  8  1  0
  5  2  1  0
  6  7  2  0
  6 12  1  0
  7  8  1  0
  9 10  1  0
 10 13  1  0
 10 11  1  0
 12  9  1  0
 14  5  2  0
 14 15  1  0
 15 18  1  0
 18 16  1  0
 18 17  2  0
 18 19  1  0
M  END
>  <DRUGBANK_ID>  (1) 
DB11664

>  <COMMON_NAME>  (1) 
Psilocybin

>  <CAS_NUMBER>  (1) 
520-52-5

>  <UNII>  (1) 
2RV7212BP0

>  <SYNONYMS>  (1) 
Psilocibina; Psilocybin; Psilocybine; Psilocybinum

$$$$
