
     RDKit          2D

 13 13  0  0  0  0  0  0  0  0999 V2000
    2.1454    0.8216    0.0000 Au  0  0  0  0  0  1  0  0  0  0  0  0
    1.4331    1.2379    0.0000 S   0  0  0  0  0  0  0  0  0  0  0  0
    0.0042    1.2379    0.0000 O   0  0  0  0  0  0  0  0  0  0  0  0
    1.4331   -0.4140    0.0000 O   0  0  0  0  0  0  0  0  0  0  0  0
    0.0042   -1.2379    0.0000 O   0  0  0  0  0  0  0  0  0  0  0  0
   -1.4288   -0.4140    0.0000 O   0  0  0  0  0  0  0  0  0  0  0  0
   -2.1454    0.8259    0.0000 O   0  0  0  0  0  0  0  0  0  0  0  0
    0.7165   -0.0021    0.0000 C   0  0  0  0  0  0  0  0  0  0  0  0
    0.0042   -0.4140    0.0000 C   0  0  0  0  0  0  0  0  0  0  0  0
    0.7165    0.8216    0.0000 C   0  0  0  0  0  0  0  0  0  0  0  0
   -0.7123   -0.0021    0.0000 C   0  0  0  0  0  0  0  0  0  0  0  0
   -0.7123    0.8216    0.0000 C   0  0  0  0  0  0  0  0  0  0  0  0
   -1.4288    1.2379    0.0000 C   0  0  0  0  0  0  0  0  0  0  0  0
  1  2  1  0
  3 10  1  0
  3 12  1  0
  7 13  1  0
  8  4  1  6
  8  9  1  0
  8 10  1  0
  9  5  1  1
  9 11  1  0
 10  2  1  6
 11  6  1  6
 11 12  1  0
 12 13  1  1
M  END
>  <DRUGBANK_ID>  (1) 
DB09121

>  <COMMON_NAME>  (1) 
Aurothioglucose

>  <CAS_NUMBER>  (1) 
12192-57-3

>  <UNII>  (1) 
2P2V9Q0E78

>  <SYNONYMS>  (1) 
Auromyose; Aurothioglucose; Gold thioglucose

$$$$
