
     RDKit          2D

 22 22  0  0  0  0  0  0  0  0999 V2000
   -0.3571    0.6710    0.0000 O   0  0  0  0  0  0  0  0  0  0  0  0
    0.3102    0.1860    0.0000 C   0  0  0  0  0  0  0  0  0  0  0  0
    0.0484   -0.6196    0.0000 C   0  0  0  0  0  0  0  0  0  0  0  0
   -1.0245    0.1860    0.0000 C   0  0  0  0  0  0  0  0  0  0  0  0
   -0.7765   -0.6196    0.0000 C   0  0  0  0  0  0  0  0  0  0  0  0
    0.5402   -1.2660    0.0000 O   0  0  0  0  0  0  0  0  0  0  0  0
   -1.2545   -1.2660    0.0000 O   0  0  0  0  0  0  0  0  0  0  0  0
   -1.8092    0.4410    0.0000 C   0  0  0  0  0  0  0  0  0  0  0  0
   -3.2381    1.2660    0.0000 O   0  0  0  0  0  0  0  0  0  0  0  0
   -2.5237    0.0285    0.0000 O   0  0  0  0  0  0  0  0  0  0  0  0
   -3.9527    0.0285    0.0000 O   0  0  0  0  0  0  0  0  0  0  0  0
   -3.2381    0.4410    0.0000 P   0  0  0  0  0  0  0  0  0  0  0  0
   -3.2381   -0.3839    0.0000 O   0  0  0  0  0  0  0  0  0  0  0  0
    1.0949    0.4410    0.0000 O   0  0  0  0  0  0  0  0  0  0  0  0
    1.8093    0.0285    0.0000 P   0  0  0  0  0  0  0  0  0  0  0  0
    1.8093   -0.7965    0.0000 O   0  0  0  0  0  0  0  0  0  0  0  0
    1.8093    0.8535    0.0000 O   0  0  0  0  0  0  0  0  0  0  0  0
    2.5238    0.4410    0.0000 O   0  0  0  0  0  0  0  0  0  0  0  0
    3.2383   -0.7965    0.0000 O   0  0  0  0  0  0  0  0  0  0  0  0
    3.9527    0.4410    0.0000 O   0  0  0  0  0  0  0  0  0  0  0  0
    3.2383    0.0285    0.0000 P   0  0  0  0  0  0  0  0  0  0  0  0
    3.2383    0.8535    0.0000 O   0  0  0  0  0  0  0  0  0  0  0  0
  1  4  1  0
  2  1  1  0
  2  3  1  0
  2 14  1  6
  3  5  1  0
  3  6  1  6
  4  8  1  1
  4  5  1  0
  5  7  1  6
  8 10  1  0
 10 12  1  0
 12  9  2  0
 12 11  1  0
 12 13  1  0
 14 15  1  0
 15 16  2  0
 15 18  1  0
 15 17  1  0
 18 21  1  0
 21 19  2  0
 21 20  1  0
 21 22  1  0
M  END
>  <DRUGBANK_ID>  (1) 
DB01632

>  <SECONDARY_ACCESSION_NUMBERS>  (1) 
EXPT02663

>  <COMMON_NAME>  (1) 
5-O-phosphono-alpha-D-ribofuranosyl diphosphate

>  <CAS_NUMBER>  (1) 
13270-65-0

>  <UNII>  (1) 
W5555R4ERG

>  <SYNONYMS>  (1) 
5-O-phosphono-α-D-ribofuranosyl diphosphate; 5-Phospho-alpha-D-ribose 1-diphosphate; 5-Phosphoribosyl 1-pyrophosphate; 5-Phosphoribosyl diphosphate; Phosphoribosyl pyrophosphate; Phosphoribosylpyrophosphate; PRib-PP; PRPP; α-D-ribofuranose 5-(dihydrogen phosphate) 1-(trihydrogen diphosphate)

$$$$
