582
     RDKit          2D

 17 19  0  0  0  0  0  0  0  0999 V2000
    1.8795   -0.6782    0.0000 C   0  0  0  0  0  0  0  0  0  0  0  0
    1.4449    0.0231    0.0000 C   0  0  0  0  0  0  0  0  0  0  0  0
    0.6203   -0.0027    0.0000 C   0  0  0  0  0  0  0  0  0  0  0  0
    0.2303   -0.7297    0.0000 C   0  0  0  0  0  0  0  0  0  0  0  0
    0.6649   -1.4309    0.0000 C   0  0  0  0  0  0  0  0  0  0  0  0
    1.4895   -1.4052    0.0000 C   0  0  0  0  0  0  0  0  0  0  0  0
    0.1856    0.6985    0.0000 N   0  0  0  0  0  0  0  0  0  0  0  0
   -0.6390    0.6728    0.0000 C   0  0  0  0  0  0  0  0  0  0  0  0
   -1.0289   -0.0542    0.0000 C   0  0  0  0  0  0  0  0  0  0  0  0
   -0.5943   -0.7555    0.0000 C   0  0  0  0  0  0  0  0  0  0  0  0
   -1.0736    1.3740    0.0000 O   0  0  0  0  0  0  0  0  0  0  0  0
    0.5756    1.4255    0.0000 C   0  0  0  0  0  0  0  0  0  0  0  0
   -1.1269   -1.3855    0.0000 N   0  0  0  0  0  0  0  0  0  0  0  0
   -1.8302   -0.2509    0.0000 C   0  0  0  0  0  0  0  0  0  0  0  0
   -2.4602    0.2818    0.0000 C   0  0  0  0  0  0  0  0  0  0  0  0
   -1.8907   -1.0736    0.0000 N   0  0  0  0  0  0  0  0  0  0  0  0
    0.1410    2.1268    0.0000 C   0  0  0  0  0  0  0  0  0  0  0  0
  1  6  2  0
  1  2  1  0
  2  3  2  0
  3  4  1  0
  3  7  1  0
  4  5  2  0
  4 10  1  0
  5  6  1  0
  7  8  1  0
  7 12  1  0
  8  9  1  0
  8 11  2  0
  9 10  2  0
  9 14  1  0
 10 13  1  0
 12 17  1  0
 13 16  1  0
 14 16  2  0
 14 15  1  0
M  END
>  <DRUGBANK_ID>  (1) 
DB07158

>  <COMMON_NAME>  (1) 
5-ETHYL-3-METHYL-1,5-DIHYDRO-4H-PYRAZOLO[4,3-C]QUINOLIN-4-ONE

$$$$
