
     RDKit          2D

 20 22  0  0  0  0  0  0  0  0999 V2000
    0.5488    2.1981    0.0000 O   0  0  0  0  0  0  0  0  0  0  0  0
    0.0599    1.5394    0.0000 C   0  0  0  0  0  0  0  0  0  0  0  0
   -0.7635    1.5394    0.0000 N   0  0  0  0  0  0  0  0  0  0  0  0
   -1.0229    0.7610    0.0000 C   0  0  0  0  0  0  0  0  0  0  0  0
   -1.8014    0.5114    0.0000 O   0  0  0  0  0  0  0  0  0  0  0  0
   -0.3543    0.2720    0.0000 C   0  0  0  0  0  0  0  0  0  0  0  0
    0.3143    0.7510    0.0000 N   0  0  0  0  0  0  0  0  0  0  0  0
    0.3492   -0.1521    0.0000 C   0  0  0  0  0  0  0  0  0  0  0  0
    0.3492   -0.9755    0.0000 C   0  0  0  0  0  0  0  0  0  0  0  0
   -0.3642   -1.3847    0.0000 O   0  0  0  0  0  0  0  0  0  0  0  0
   -1.0728   -0.9705    0.0000 C   0  0  0  0  0  0  0  0  0  0  0  0
   -1.0728   -0.1422    0.0000 C   0  0  0  0  0  0  0  0  0  0  0  0
   -1.7864   -1.3797    0.0000 C   0  0  0  0  0  0  0  0  0  0  0  0
   -2.4950   -0.9705    0.0000 N   0  0  0  0  0  0  0  0  0  0  0  0
   -1.7864   -2.1981    0.0000 O   0  0  0  0  0  0  0  0  0  0  0  0
    1.0628    0.2619    0.0000 C   0  0  0  0  0  0  0  0  0  0  0  0
    1.7814   -0.1521    0.0000 C   0  0  0  0  0  0  0  0  0  0  0  0
    1.0679   -1.3896    0.0000 C   0  0  0  0  0  0  0  0  0  0  0  0
    1.7814   -0.9755    0.0000 C   0  0  0  0  0  0  0  0  0  0  0  0
    2.4950    0.2619    0.0000 F   0  0  0  0  0  0  0  0  0  0  0  0
  1  2  2  0
  2  3  1  0
  2  7  1  0
  3  4  1  0
  4  5  2  0
  6  4  1  0
  6  7  1  0
  6  8  1  0
  6 12  1  6
  8  9  2  0
  8 16  1  0
  9 10  1  0
  9 18  1  0
 10 11  1  0
 11 12  1  0
 11 13  1  6
 13 14  1  0
 13 15  2  0
 16 17  2  0
 17 19  1  0
 17 20  1  0
 18 19  2  0
M  END
>  <DRUGBANK_ID>  (1) 
DB02021

>  <SECONDARY_ACCESSION_NUMBERS>  (1) 
EXPT01433

>  <COMMON_NAME>  (1) 
Fidarestat

>  <CAS_NUMBER>  (1) 
136087-85-9

>  <UNII>  (1) 
8SH8T1164U

>  <SYNONYMS>  (1) 
(S,S)-fidarestat; Aldos; Fidarestat

$$$$
