DI5
     RDKit          2D

 30 31  0  0  0  0  0  0  0  0999 V2000
   -2.2309    0.4459    0.0000 B   0  0  0  0  0  0  0  0  0  0  0  0
   -2.2309   -0.3791    0.0000 C   0  0  0  0  0  0  0  0  0  0  0  0
   -2.9454   -0.7916    0.0000 C   0  0  0  0  0  0  0  0  0  0  0  0
   -3.6598   -0.3791    0.0000 C   0  0  0  0  0  0  0  0  0  0  0  0
   -4.3743   -0.7916    0.0000 C   0  0  0  0  0  0  0  0  0  0  0  0
   -0.8020   -0.3791    0.0000 C   0  0  0  0  0  0  0  0  0  0  0  0
   -0.0875   -0.7916    0.0000 C   0  0  0  0  0  0  0  0  0  0  0  0
   -0.0012   -1.6121    0.0000 C   0  0  0  0  0  0  0  0  0  0  0  0
    0.8057   -1.7836    0.0000 C   0  0  0  0  0  0  0  0  0  0  0  0
    1.2182   -1.0692    0.0000 C   0  0  0  0  0  0  0  0  0  0  0  0
    0.8377    0.3509    0.0000 C   0  0  0  0  0  0  0  0  0  0  0  0
    2.2354    0.0538    0.0000 C   0  0  0  0  0  0  0  0  0  0  0  0
    1.6223    0.6058    0.0000 C   0  0  0  0  0  0  0  0  0  0  0  0
    1.1808    1.9648    0.0000 C   0  0  0  0  0  0  0  0  0  0  0  0
    0.3961    1.7099    0.0000 C   0  0  0  0  0  0  0  0  0  0  0  0
    3.9762    1.3707    0.0000 C   0  0  0  0  0  0  0  0  0  0  0  0
    4.5893    0.8186    0.0000 C   0  0  0  0  0  0  0  0  0  0  0  0
    4.4178    0.0117    0.0000 C   0  0  0  0  0  0  0  0  0  0  0  0
    3.6331   -0.2433    0.0000 C   0  0  0  0  0  0  0  0  0  0  0  0
    3.0201    0.3087    0.0000 C   0  0  0  0  0  0  0  0  0  0  0  0
    3.1916    1.1157    0.0000 C   0  0  0  0  0  0  0  0  0  0  0  0
   -1.5164   -0.7916    0.0000 N   0  0  0  0  0  0  0  0  0  0  0  0
   -5.0888   -0.3791    0.0000 N   0  0  0  0  0  0  0  0  0  0  0  0
    0.6662   -0.4561    0.0000 N   0  0  0  0  0  0  0  0  0  0  0  0
    1.7939    1.4128    0.0000 N   0  0  0  0  0  0  0  0  0  0  0  0
   -1.5164    0.8584    0.0000 O   0  0  0  0  0  0  0  0  0  0  0  0
   -2.9454    0.8584    0.0000 O   0  0  0  0  0  0  0  0  0  0  0  0
   -0.8020    0.4459    0.0000 O   0  0  0  0  0  0  0  0  0  0  0  0
    0.2246    0.9029    0.0000 O   0  0  0  0  0  0  0  0  0  0  0  0
    1.3523    2.7718    0.0000 O   0  0  0  0  0  0  0  0  0  0  0  0
  1 26  1  0
  1 27  1  0
  2  1  1  0
  2  3  1  1
  2 22  1  0
  3  4  1  0
  4  5  1  0
  5 23  1  0
  6 22  1  0
  6 28  2  0
  7  6  1  1
  7  8  1  0
  7 24  1  0
  8  9  1  0
  9 10  1  0
 10 24  1  0
 11 13  1  0
 11 24  1  0
 11 29  2  0
 13 12  1  6
 12 20  1  0
 13 25  1  0
 14 15  1  0
 14 25  1  0
 14 30  2  0
 16 17  2  0
 16 21  1  0
 17 18  1  0
 18 19  2  0
 19 20  1  0
 20 21  2  0
M  END
>  <DRUGBANK_ID>  (1) 
DB07660

>  <COMMON_NAME>  (1) 
AC-(D)PHE-PRO-BOROHOMOORNITHINE-OH

$$$$
