
     RDKit          2D

 27 29  0  0  0  0  0  0  0  0999 V2000
    2.4115    4.0059    0.0000 F   0  0  0  0  0  0  0  0  0  0  0  0
    3.7464    4.9757    0.0000 F   0  0  0  0  0  0  0  0  0  0  0  0
    2.5941    5.1583    0.0000 F   0  0  0  0  0  0  0  0  0  0  0  0
    3.9764   -0.7462    0.0000 O   0  0  0  0  0  0  0  0  0  0  0  0
    3.2149   -3.7062    0.0000 O   0  0  0  0  0  0  0  0  0  0  0  0
    4.3889    3.8233    0.0000 O   0  0  0  0  0  0  0  0  0  0  0  0
    2.9600   -4.4908    0.0000 N   0  0  0  0  0  0  0  0  0  0  0  0
    3.3089    3.0387    0.0000 N   0  0  0  0  0  0  0  0  0  0  0  0
    4.6439    3.0387    0.0000 N   0  0  0  0  0  0  0  0  0  0  0  0
    3.2619   -1.9837    0.0000 C   0  0  0  0  0  0  0  0  0  0  0  0
    2.5474   -2.3962    0.0000 C   0  0  0  0  0  0  0  0  0  0  0  0
    3.2619   -1.1587    0.0000 C   0  0  0  0  0  0  0  0  0  0  0  0
    3.9764    0.0788    0.0000 C   0  0  0  0  0  0  0  0  0  0  0  0
    4.6909    0.4913    0.0000 C   0  0  0  0  0  0  0  0  0  0  0  0
    3.2619    0.4913    0.0000 C   0  0  0  0  0  0  0  0  0  0  0  0
    3.9764    1.7288    0.0000 C   0  0  0  0  0  0  0  0  0  0  0  0
    4.6909    1.3163    0.0000 C   0  0  0  0  0  0  0  0  0  0  0  0
    3.2619    1.3163    0.0000 C   0  0  0  0  0  0  0  0  0  0  0  0
    2.5474   -3.2212    0.0000 C   0  0  0  0  0  0  0  0  0  0  0  0
    5.4053    0.0788    0.0000 C   0  0  0  0  0  0  0  0  0  0  0  0
    2.5474    0.0788    0.0000 C   0  0  0  0  0  0  0  0  0  0  0  0
    1.8800   -3.7062    0.0000 C   0  0  0  0  0  0  0  0  0  0  0  0
    3.9764    2.5538    0.0000 C   0  0  0  0  0  0  0  0  0  0  0  0
    2.1349   -4.4908    0.0000 C   0  0  0  0  0  0  0  0  0  0  0  0
    1.6500   -5.1583    0.0000 C   0  0  0  0  0  0  0  0  0  0  0  0
    3.5639    3.8233    0.0000 C   0  0  0  0  0  0  0  0  0  0  0  0
    3.0790    4.4908    0.0000 C   0  0  0  0  0  0  0  0  0  0  0  0
  1 27  1  0
  2 27  1  0
  3 27  1  0
  4 12  1  0
  4 13  1  0
  5  7  1  0
  5 19  1  0
  6  9  1  0
  6 26  1  0
  7 24  2  0
  8 23  1  0
  8 26  2  0
  9 23  2  0
 10 11  1  0
 10 12  1  0
 11 19  1  0
 13 14  2  0
 13 15  1  0
 14 17  1  0
 14 20  1  0
 15 18  2  0
 15 21  1  0
 16 17  2  0
 16 18  1  0
 16 23  1  0
 19 22  2  0
 22 24  1  0
 24 25  1  0
 26 27  1  0
M  END
>  <DRUGBANK_ID>  (1) 
DB05105

>  <SECONDARY_ACCESSION_NUMBERS>  (1) 
DB08716

>  <COMMON_NAME>  (1) 
Pleconaril

>  <CAS_NUMBER>  (1) 
153168-05-9

>  <UNII>  (1) 
9H4570Q89D

>  <SYNONYMS>  (1) 
Pleconaril

$$$$
