L05
     RDKit          2D

 29 32  0  0  0  0  0  0  0  0999 V2000
   -2.7748    2.1191    0.0000 C   0  0  0  0  0  0  0  0  0  0  0  0
   -2.0603    2.5316    0.0000 O   0  0  0  0  0  0  0  0  0  0  0  0
   -1.3459    2.1191    0.0000 C   0  0  0  0  0  0  0  0  0  0  0  0
   -0.6314    2.5316    0.0000 C   0  0  0  0  0  0  0  0  0  0  0  0
    0.0831    2.1191    0.0000 C   0  0  0  0  0  0  0  0  0  0  0  0
    0.0831    1.2941    0.0000 C   0  0  0  0  0  0  0  0  0  0  0  0
    0.7976    0.8816    0.0000 N   0  0  0  0  0  0  0  0  0  0  0  0
    0.7976    0.0566    0.0000 C   0  0  0  0  0  0  0  0  0  0  0  0
    1.4650   -0.4283    0.0000 C   0  0  0  0  0  0  0  0  0  0  0  0
    1.2101   -1.2129    0.0000 C   0  0  0  0  0  0  0  0  0  0  0  0
    1.6950   -1.8804    0.0000 O   0  0  0  0  0  0  0  0  0  0  0  0
    0.3851   -1.2129    0.0000 N   0  0  0  0  0  0  0  0  0  0  0  0
   -0.0999   -1.8804    0.0000 C   0  0  0  0  0  0  0  0  0  0  0  0
   -0.9204   -1.7941    0.0000 C   0  0  0  0  0  0  0  0  0  0  0  0
   -1.4053   -2.4616    0.0000 C   0  0  0  0  0  0  0  0  0  0  0  0
   -2.2258   -2.3753    0.0000 C   0  0  0  0  0  0  0  0  0  0  0  0
   -2.5613   -1.6217    0.0000 C   0  0  0  0  0  0  0  0  0  0  0  0
   -2.0764   -0.9542    0.0000 C   0  0  0  0  0  0  0  0  0  0  0  0
   -1.2559   -1.0405    0.0000 C   0  0  0  0  0  0  0  0  0  0  0  0
    0.1301   -0.4283    0.0000 C   0  0  0  0  0  0  0  0  0  0  0  0
   -0.6545   -0.1734    0.0000 O   0  0  0  0  0  0  0  0  0  0  0  0
    2.2496   -0.1734    0.0000 C   0  0  0  0  0  0  0  0  0  0  0  0
    2.4211    0.6336    0.0000 C   0  0  0  0  0  0  0  0  0  0  0  0
    3.2058    0.8885    0.0000 C   0  0  0  0  0  0  0  0  0  0  0  0
    3.8189    0.3365    0.0000 C   0  0  0  0  0  0  0  0  0  0  0  0
    3.6473   -0.4705    0.0000 C   0  0  0  0  0  0  0  0  0  0  0  0
    2.8627   -0.7254    0.0000 C   0  0  0  0  0  0  0  0  0  0  0  0
   -0.6314    0.8816    0.0000 C   0  0  0  0  0  0  0  0  0  0  0  0
   -1.3459    1.2941    0.0000 C   0  0  0  0  0  0  0  0  0  0  0  0
  1  2  1  0
  2  3  1  0
  3  4  2  0
  3 29  1  0
  4  5  1  0
  5  6  2  0
  6  7  1  0
  6 28  1  0
  7  8  1  0
  8  9  2  0
  8 20  1  0
  9 10  1  0
  9 22  1  0
 10 11  2  0
 10 12  1  0
 12 13  1  0
 12 20  1  0
 13 14  1  0
 14 15  2  0
 14 19  1  0
 15 16  1  0
 16 17  2  0
 17 18  1  0
 18 19  2  0
 20 21  2  0
 22 23  2  0
 22 27  1  0
 23 24  1  0
 24 25  2  0
 25 26  1  0
 26 27  2  0
 28 29  2  0
M  END
>  <DRUGBANK_ID>  (1) 
DB08063

>  <COMMON_NAME>  (1) 
1-BENZYL-3-(4-METHOXYPHENYLAMINO)-4-PHENYLPYRROLE-2,5-DIONE

$$$$
