
     RDKit          2D

 34 36  0  0  0  0  0  0  0  0999 V2000
   -5.1260   -0.8294    0.0000 C   0  0  0  0  0  0  0  0  0  0  0  0
   -4.4116   -0.4169    0.0000 N   0  0  0  0  0  0  0  0  0  0  0  0
   -3.6971   -0.8294    0.0000 C   0  0  0  0  0  0  0  0  0  0  0  0
   -3.6971   -1.6544    0.0000 O   0  0  0  0  0  0  0  0  0  0  0  0
   -2.9826   -0.4169    0.0000 C   0  0  0  0  0  0  0  0  0  0  0  0
   -2.2682   -0.8294    0.0000 C   0  0  0  0  0  0  0  0  0  0  0  0
   -2.2682   -1.6544    0.0000 N   0  0  0  0  0  0  0  0  0  0  0  0
   -1.5537   -0.4169    0.0000 C   0  0  0  0  0  0  0  0  0  0  0  0
   -1.5537    0.4080    0.0000 O   0  0  0  0  0  0  0  0  0  0  0  0
   -0.8392   -0.8294    0.0000 N   0  0  0  0  0  0  0  0  0  0  0  0
   -0.1247   -0.4169    0.0000 C   0  0  0  0  0  0  0  0  0  0  0  0
    0.5896   -0.8294    0.0000 C   0  0  0  0  0  0  0  0  0  0  0  0
    0.5896   -1.6544    0.0000 O   0  0  0  0  0  0  0  0  0  0  0  0
    1.3041   -0.4169    0.0000 N   0  0  0  0  0  0  0  0  0  0  0  0
    2.0186   -0.8294    0.0000 C   0  0  0  0  0  0  0  0  0  0  0  0
    2.8155   -0.6159    0.0000 C   0  0  0  0  0  0  0  0  0  0  0  0
    3.5074   -0.1666    0.0000 S   0  0  0  0  0  0  0  0  0  0  0  0
    4.1485   -0.6858    0.0000 C   0  0  0  0  0  0  0  0  0  0  0  0
    4.5978    0.0060    0.0000 C   0  0  0  0  0  0  0  0  0  0  0  0
    4.8836   -1.0603    0.0000 C   0  0  0  0  0  0  0  0  0  0  0  0
    3.8528   -1.4560    0.0000 C   0  0  0  0  0  0  0  0  0  0  0  0
    3.0290   -1.4128    0.0000 N   0  0  0  0  0  0  0  0  0  0  0  0
    2.2321   -1.6263    0.0000 C   0  0  0  0  0  0  0  0  0  0  0  0
    1.8196   -2.3408    0.0000 O   0  0  0  0  0  0  0  0  0  0  0  0
    4.3022   -2.1479    0.0000 C   0  0  0  0  0  0  0  0  0  0  0  0
    5.1260   -2.1047    0.0000 O   0  0  0  0  0  0  0  0  0  0  0  0
    3.9276   -2.8830    0.0000 O   0  0  0  0  0  0  0  0  0  0  0  0
   -0.1247    0.4080    0.0000 C   0  0  0  0  0  0  0  0  0  0  0  0
   -0.8392    0.8205    0.0000 C   0  0  0  0  0  0  0  0  0  0  0  0
   -0.8392    1.6455    0.0000 C   0  0  0  0  0  0  0  0  0  0  0  0
   -0.1247    2.0580    0.0000 C   0  0  0  0  0  0  0  0  0  0  0  0
   -0.1247    2.8830    0.0000 O   0  0  0  0  0  0  0  0  0  0  0  0
    0.5896    1.6455    0.0000 C   0  0  0  0  0  0  0  0  0  0  0  0
    0.5896    0.8205    0.0000 C   0  0  0  0  0  0  0  0  0  0  0  0
  1  2  1  0
  2  3  1  0
  3  4  2  0
  3  5  1  0
  6  5  1  0
  6  7  1  6
  6  8  1  0
  8  9  2  0
  8 10  1  0
 11 10  1  6
 11 12  1  0
 11 28  1  0
 12 13  2  0
 12 14  1  0
 15 14  1  1
 15 16  1  0
 15 23  1  0
 16 17  1  1
 16 22  1  0
 17 18  1  0
 18 19  1  0
 18 20  1  0
 21 18  1  0
 21 22  1  0
 21 25  1  6
 22 23  1  0
 23 24  2  0
 25 26  1  0
 25 27  2  0
 28 29  2  0
 28 34  1  0
 29 30  1  0
 30 31  2  0
 31 32  1  0
 31 33  1  0
 33 34  2  0
M  END
>  <DRUGBANK_ID>  (1) 
DB13816

>  <COMMON_NAME>  (1) 
Aspoxicillin

>  <CAS_NUMBER>  (1) 
63358-49-6

>  <UNII>  (1) 
0745KNO26J

>  <SYNONYMS>  (1) 
Aspoxicillin

$$$$
