FTS
     RDKit          2D

 22 23  0  0  0  0  0  0  0  0999 V2000
   -0.8048   -0.5308    0.0000 C   0  0  0  0  0  0  0  0  0  0  0  0
   -1.5193   -0.1183    0.0000 C   0  0  0  0  0  0  0  0  0  0  0  0
   -2.2338   -0.5308    0.0000 C   0  0  0  0  0  0  0  0  0  0  0  0
   -2.9482   -0.1183    0.0000 N   0  0  0  0  0  0  0  0  0  0  0  0
   -2.9482    0.7067    0.0000 C   0  0  0  0  0  0  0  0  0  0  0  0
   -3.6627    1.1192    0.0000 C   0  0  0  0  0  0  0  0  0  0  0  0
   -3.6627    1.9442    0.0000 F   0  0  0  0  0  0  0  0  0  0  0  0
   -2.2338    1.1192    0.0000 C   0  0  0  0  0  0  0  0  0  0  0  0
   -1.5193    0.7067    0.0000 C   0  0  0  0  0  0  0  0  0  0  0  0
   -0.8048    1.1192    0.0000 C   0  0  0  0  0  0  0  0  0  0  0  0
   -0.0904    0.7067    0.0000 C   0  0  0  0  0  0  0  0  0  0  0  0
   -0.0904   -0.1183    0.0000 C   0  0  0  0  0  0  0  0  0  0  0  0
    0.6241   -0.5308    0.0000 S   0  0  0  0  0  0  0  0  0  0  0  0
    0.2116   -1.2453    0.0000 O   0  0  0  0  0  0  0  0  0  0  0  0
    1.0366    0.1837    0.0000 O   0  0  0  0  0  0  0  0  0  0  0  0
    1.3386   -0.9433    0.0000 N   0  0  0  0  0  0  0  0  0  0  0  0
    2.0531   -0.5308    0.0000 C   0  0  0  0  0  0  0  0  0  0  0  0
    2.7675   -0.9433    0.0000 C   0  0  0  0  0  0  0  0  0  0  0  0
    3.4820   -0.5308    0.0000 C   0  0  0  0  0  0  0  0  0  0  0  0
    4.1965   -0.1183    0.0000 F   0  0  0  0  0  0  0  0  0  0  0  0
    3.8945   -1.2453    0.0000 F   0  0  0  0  0  0  0  0  0  0  0  0
    3.0695    0.1837    0.0000 F   0  0  0  0  0  0  0  0  0  0  0  0
  1  2  2  0
  1 12  1  0
  2  3  1  0
  2  9  1  0
  3  4  1  0
  4  5  1  0
  5  6  1  1
  5  8  1  0
  6  7  1  0
  8  9  1  0
  9 10  2  0
 10 11  1  0
 11 12  2  0
 12 13  1  0
 13 14  2  0
 13 15  2  0
 13 16  1  0
 16 17  1  0
 17 18  1  0
 18 19  1  0
 19 20  1  0
 19 21  1  0
 19 22  1  0
M  END
>  <DRUGBANK_ID>  (1) 
DB07798

>  <COMMON_NAME>  (1) 
(3R)-3-(FLUOROMETHYL)-N-(3,3,3-TRIFLUOROPROPYL)-1,2,3,4-TETRAHYDROISOQUINOLINE-7-SULFONAMIDE

$$$$
