
     RDKit          2D

 25 26  0  0  0  0  0  0  0  0999 V2000
   -2.1431    0.2044    0.0000 C   0  0  0  0  0  0  0  0  0  0  0  0
   -2.8512   -0.2079    0.0000 C   0  0  0  0  0  0  0  0  0  0  0  0
   -1.4282   -0.2044    0.0000 C   0  0  0  0  0  0  0  0  0  0  0  0
   -2.1466    1.0294    0.0000 C   0  0  0  0  0  0  0  0  0  0  0  0
   -1.9231   -0.5928    0.0000 C   0  0  0  0  0  0  0  0  0  0  0  0
   -3.5661    0.2044    0.0000 C   0  0  0  0  0  0  0  0  0  0  0  0
   -2.8512   -1.0329    0.0000 C   0  0  0  0  0  0  0  0  0  0  0  0
   -0.7131    0.2079    0.0000 C   0  0  0  0  0  0  0  0  0  0  0  0
   -1.4316    1.4487    0.0000 C   0  0  0  0  0  0  0  0  0  0  0  0
   -2.8580    1.4419    0.0000 C   0  0  0  0  0  0  0  0  0  0  0  0
   -1.9334   -1.4212    0.0000 N   0  0  0  0  0  0  0  0  0  0  0  0
   -4.2811   -0.2079    0.0000 C   0  0  0  0  0  0  0  0  0  0  0  0
   -3.5661   -1.4487    0.0000 C   0  0  0  0  0  0  0  0  0  0  0  0
   -0.0017   -0.1976    0.0000 C   0  0  0  0  0  0  0  0  0  0  0  0
   -4.2811   -1.0329    0.0000 C   0  0  0  0  0  0  0  0  0  0  0  0
    0.7131    0.2113    0.0000 N   0  0  0  0  0  0  0  0  0  0  0  0
    1.4281   -0.1942    0.0000 C   0  0  0  0  0  0  0  0  0  0  0  0
    0.7131    1.0397    0.0000 C   0  0  0  0  0  0  0  0  0  0  0  0
    2.1431    0.2149    0.0000 C   0  0  0  0  0  0  0  0  0  0  0  0
    2.8511   -0.1907    0.0000 C   0  0  0  0  0  0  0  0  0  0  0  0
    3.5660    0.2216    0.0000 C   0  0  0  0  0  0  0  0  0  0  0  0
    2.8547   -1.0123    0.0000 C   0  0  0  0  0  0  0  0  0  0  0  0
    4.2776   -0.1873    0.0000 C   0  0  0  0  0  0  0  0  0  0  0  0
    3.5695   -1.4247    0.0000 C   0  0  0  0  0  0  0  0  0  0  0  0
    4.2811   -1.0088    0.0000 C   0  0  0  0  0  0  0  0  0  0  0  0
  1  2  1  0
  1  3  1  0
  1  4  1  0
  1  5  1  0
  2  6  2  0
  2  7  1  0
  3  8  1  0
  4  9  1  0
  4 10  1  0
  5 11  3  0
  6 12  1  0
  7 13  2  0
  8 14  1  0
 12 15  2  0
 13 15  1  0
 14 16  1  0
 16 17  1  0
 16 18  1  0
 17 19  1  0
 19 20  1  0
 20 21  2  0
 20 22  1  0
 21 23  1  0
 22 24  2  0
 23 25  2  0
 24 25  1  0
M  END
>  <DRUGBANK_ID>  (1) 
DB14064

>  <COMMON_NAME>  (1) 
Emopamil

>  <CAS_NUMBER>  (1) 
78370-13-5

>  <UNII>  (1) 
M514041RF7

>  <SYNONYMS>  (1) 
Emopamil; Emopamilo; Emopamilum

$$$$
