
     RDKit          2D

 17 17  0  0  0  0  0  0  0  0999 V2000
   -2.1254    0.0000    0.0000 C   0  0  0  0  0  0  0  0  0  0  0  0
   -2.1254   -0.8250    0.0000 C   0  0  0  0  0  0  0  0  0  0  0  0
   -1.4109   -1.2375    0.0000 C   0  0  0  0  0  0  0  0  0  0  0  0
   -0.6964   -0.8250    0.0000 C   0  0  0  0  0  0  0  0  0  0  0  0
   -0.6964    0.0000    0.0000 C   0  0  0  0  0  0  0  0  0  0  0  0
   -1.4109    0.4125    0.0000 C   0  0  0  0  0  0  0  0  0  0  0  0
    0.0291    0.4190    0.0000 C   0  0  0  0  0  0  0  0  0  0  0  0
    0.7394    0.0090    0.0000 C   0  0  0  0  0  0  0  0  0  0  0  0
    0.0289    1.2375    0.0000 O   0  0  0  0  0  0  0  0  0  0  0  0
    1.4361    0.4114    0.0000 N   0  0  0  0  0  0  0  0  0  0  0  0
   -2.8399   -1.2375    0.0000 O   0  0  0  0  0  0  0  0  0  0  0  0
   -2.8399    0.4125    0.0000 O   0  0  0  0  0  0  0  0  0  0  0  0
    2.1398    0.0052    0.0000 C   0  0  0  0  0  0  0  0  0  0  0  0
    2.8399    0.4094    0.0000 C   0  0  0  0  0  0  0  0  0  0  0  0
    2.1400   -0.8248    0.0000 C   0  0  0  0  0  0  0  0  0  0  0  0
    0.7397   -0.8248    0.0000 C   0  0  0  0  0  0  0  0  0  0  0  0
    1.4403   -1.2292    0.0000 C   0  0  0  0  0  0  0  0  0  0  0  0
  1  2  2  0
  1  6  1  0
  1 12  1  0
  2  3  1  0
  2 11  1  0
  3  4  2  0
  4  5  1  0
  5  6  2  0
  5  7  1  0
  7  8  1  0
  7  9  1  0
  8 10  1  0
  8 16  1  0
 10 13  1  0
 13 14  1  0
 13 15  1  0
 16 17  1  0
M  END
>  <DRUGBANK_ID>  (1) 
DB00221

>  <SECONDARY_ACCESSION_NUMBERS>  (1) 
APRD00750

>  <COMMON_NAME>  (1) 
Isoetharine

>  <CAS_NUMBER>  (1) 
79490-84-9

>  <UNII>  (1) 
YV0SN3276Q

>  <SYNONYMS>  (1) 
Isoetarina; Isoetarine; Isoetarinum; Isoetharine

$$$$
