
     RDKit          2D

 32 37  0  0  0  0  0  0  0  0999 V2000
   -0.6005   -0.4051    0.0000 C   0  0  0  0  0  0  0  0  0  0  0  0
    0.7840    0.4489    0.0000 C   0  0  0  0  0  0  0  0  0  0  0  0
   -1.3001   -0.8337    0.0000 C   0  0  0  0  0  0  0  0  0  0  0  0
    0.0961   -0.8249    0.0000 C   0  0  0  0  0  0  0  0  0  0  0  0
   -0.6122    0.4459    0.0000 C   0  0  0  0  0  0  0  0  0  0  0  0
    0.7928   -0.3935    0.0000 C   0  0  0  0  0  0  0  0  0  0  0  0
   -1.2973   -1.6732    0.0000 C   0  0  0  0  0  0  0  0  0  0  0  0
    0.0844    0.8744    0.0000 C   0  0  0  0  0  0  0  0  0  0  0  0
    1.5536    0.7200    0.0000 C   0  0  0  0  0  0  0  0  0  0  0  0
   -1.3293    0.8599    0.0000 C   0  0  0  0  0  0  0  0  0  0  0  0
   -1.9939   -2.1047    0.0000 C   0  0  0  0  0  0  0  0  0  0  0  0
    2.3786    0.7200    0.0000 C   0  0  0  0  0  0  0  0  0  0  0  0
    0.1078   -1.6732    0.0000 C   0  0  0  0  0  0  0  0  0  0  0  0
   -2.7665    0.8687    0.0000 C   0  0  0  0  0  0  0  0  0  0  0  0
   -2.0085   -0.4080    0.0000 C   0  0  0  0  0  0  0  0  0  0  0  0
   -2.0493    0.4430    0.0000 C   0  0  0  0  0  0  0  0  0  0  0  0
    1.5682   -0.6501    0.0000 C   0  0  0  0  0  0  0  0  0  0  0  0
    3.2036    0.7200    0.0000 C   0  0  0  0  0  0  0  0  0  0  0  0
   -2.7665    1.6878    0.0000 C   0  0  0  0  0  0  0  0  0  0  0  0
   -0.5888   -2.0959    0.0000 C   0  0  0  0  0  0  0  0  0  0  0  0
   -3.5506    0.6063    0.0000 O   0  0  0  0  0  0  0  0  0  0  0  0
   -2.7022   -1.6849    0.0000 C   0  0  0  0  0  0  0  0  0  0  0  0
   -3.5447    1.9443    0.0000 O   0  0  0  0  0  0  0  0  0  0  0  0
    2.0347    0.0349    0.0000 C   0  0  0  0  0  0  0  0  0  0  0  0
   -4.0286    1.2767    0.0000 C   0  0  0  0  0  0  0  0  0  0  0  0
   -1.3322    1.6848    0.0000 C   0  0  0  0  0  0  0  0  0  0  0  0
   -2.0464    2.1047    0.0000 C   0  0  0  0  0  0  0  0  0  0  0  0
   -3.4194   -2.0929    0.0000 O   0  0  0  0  0  0  0  0  0  0  0  0
   -2.7022   -0.8308    0.0000 C   0  0  0  0  0  0  0  0  0  0  0  0
    1.5479    1.5449    0.0000 O   0  0  0  0  0  0  0  0  0  0  0  0
    0.7783    1.2738    0.0000 C   0  0  0  0  0  0  0  0  0  0  0  0
    4.0286    0.7200    0.0000 C   0  0  0  0  0  0  0  0  0  0  0  0
  2 31  1  1
  2  6  1  0
  2  8  1  0
  3  1  2  0
  4  1  1  0
  5  1  1  0
  5 10  1  1
  6  4  1  0
  7  3  1  0
  8  5  1  0
  9  2  1  0
  9 12  1  0
  9 30  1  1
  9 24  1  0
 11  7  2  0
  4 13  1  6
 14 16  2  0
 15  3  1  0
 16 10  1  0
  6 17  1  1
 18 12  3  0
 19 27  2  0
 19 14  1  0
 20 13  1  0
 20  7  1  0
 21 14  1  0
 22 29  1  0
 22 11  1  0
 23 19  1  0
 24 17  1  0
 25 21  1  0
 25 23  1  0
 26 10  2  0
 27 26  1  0
 28 22  2  0
 29 15  1  0
 32 18  1  0
M  END
>  <DRUGBANK_ID>  (1) 
DB05423

>  <COMMON_NAME>  (1) 
ORG-34517

>  <CAS_NUMBER>  (1) 
189035-07-2

>  <UNII>  (1) 
17VAN37K4Y

$$$$
