VGA
     RDKit          2D

 27 31  0  0  0  0  0  0  0  0999 V2000
   -0.5351    1.1605    0.0000 N   0  0  0  0  0  0  0  0  0  0  0  0
    0.2692    0.9769    0.0000 C   0  0  0  0  0  0  0  0  0  0  0  0
    0.6271    0.2336    0.0000 C   0  0  0  0  0  0  0  0  0  0  0  0
   -0.5351   -0.6933    0.0000 C   0  0  0  0  0  0  0  0  0  0  0  0
    0.2692   -0.5097    0.0000 N   0  0  0  0  0  0  0  0  0  0  0  0
   -1.1802   -0.1789    0.0000 C   0  0  0  0  0  0  0  0  0  0  0  0
   -1.1802    0.6461    0.0000 C   0  0  0  0  0  0  0  0  0  0  0  0
   -1.8946    1.0586    0.0000 C   0  0  0  0  0  0  0  0  0  0  0  0
   -2.6091    0.6461    0.0000 C   0  0  0  0  0  0  0  0  0  0  0  0
   -2.6091   -0.1789    0.0000 C   0  0  0  0  0  0  0  0  0  0  0  0
   -1.8946   -0.5914    0.0000 C   0  0  0  0  0  0  0  0  0  0  0  0
   -0.7187   -1.4976    0.0000 C   0  0  0  0  0  0  0  0  0  0  0  0
    0.7836    1.6219    0.0000 N   0  0  0  0  0  0  0  0  0  0  0  0
    0.6912    2.4417    0.0000 C   0  0  0  0  0  0  0  0  0  0  0  0
    1.5110    2.5341    0.0000 C   0  0  0  0  0  0  0  0  0  0  0  0
    1.6034    1.7143    0.0000 C   0  0  0  0  0  0  0  0  0  0  0  0
   -0.1140   -2.0587    0.0000 C   0  0  0  0  0  0  0  0  0  0  0  0
   -0.2975   -2.8630    0.0000 C   0  0  0  0  0  0  0  0  0  0  0  0
   -1.0859   -3.1062    0.0000 C   0  0  0  0  0  0  0  0  0  0  0  0
   -1.6906   -2.5451    0.0000 C   0  0  0  0  0  0  0  0  0  0  0  0
   -1.5071   -1.7408    0.0000 C   0  0  0  0  0  0  0  0  0  0  0  0
    1.4521    0.2336    0.0000 C   0  0  0  0  0  0  0  0  0  0  0  0
    1.9371    0.9011    0.0000 S   0  0  0  0  0  0  0  0  0  0  0  0
    2.7217    0.6461    0.0000 C   0  0  0  0  0  0  0  0  0  0  0  0
    2.7217   -0.1789    0.0000 C   0  0  0  0  0  0  0  0  0  0  0  0
    1.9371   -0.4338    0.0000 C   0  0  0  0  0  0  0  0  0  0  0  0
    2.0254    3.1791    0.0000 O   0  0  0  0  0  0  0  0  0  0  0  0
  1  2  2  0
  1  7  1  0
  2  3  1  0
  2 13  1  0
  3  5  1  0
  3 22  1  1
  4  5  2  0
  4  6  1  0
  4 12  1  0
  6  7  2  0
  6 11  1  0
  7  8  1  0
  8  9  2  0
  9 10  1  0
 10 11  2  0
 12 17  2  0
 12 21  1  0
 13 14  1  0
 13 16  1  0
 14 15  1  0
 15 16  1  0
 15 27  1  0
 17 18  1  0
 18 19  2  0
 19 20  1  0
 20 21  2  0
 22 23  1  0
 22 26  2  0
 23 24  1  0
 24 25  2  0
 25 26  1  0
M  END
>  <DRUGBANK_ID>  (1) 
DB08698

>  <COMMON_NAME>  (1) 
1-[(3S)-5-PHENYL-3-THIOPHEN-2-YL-3H-1,4-BENZODIAZEPIN-2-YL]AZETIDIN-3-OL

$$$$
