
     RDKit          2D

  1  0  0  0  0  0  0  0  0  0999 V2000
    0.0000    0.0000    0.0000 La  0  0  0  0  0 15  0  0  0  0  0  0
M  CHG  1   1   3
M  END
>  <DRUGBANK_ID>  (1) 
DB14579

>  <COMMON_NAME>  (1) 
Lanthanum III cation

>  <CAS_NUMBER>  (1) 
16096-89-2

>  <UNII>  (1) 
O7FU5X12W5

>  <SYNONYMS>  (1) 
Lanthanum cation (3+); Lanthanum cation (La3+); Lanthanum ion; Lanthanum, ion (La3+); lanthanum(3+) ion; Lanthanum(3+) ions; lanthanum(III) cation

$$$$
