ICL
     RDKit          2D

 24 24  0  0  0  0  0  0  0  0999 V2000
   -1.5535   -1.5580    0.0000 C   0  0  0  0  0  0  0  0  0  0  0  0
   -1.5535   -2.3830    0.0000 O   0  0  0  0  0  0  0  0  0  0  0  0
   -2.2680   -1.1455    0.0000 C   0  0  0  0  0  0  0  0  0  0  0  0
   -2.9824   -1.5580    0.0000 C   0  0  0  0  0  0  0  0  0  0  0  0
   -2.9824   -2.3830    0.0000 Cl  0  0  0  0  0  0  0  0  0  0  0  0
   -3.6969   -1.1455    0.0000 C   0  0  0  0  0  0  0  0  0  0  0  0
   -3.6969   -0.3205    0.0000 C   0  0  0  0  0  0  0  0  0  0  0  0
   -2.9824    0.0920    0.0000 C   0  0  0  0  0  0  0  0  0  0  0  0
   -2.2680   -0.3205    0.0000 C   0  0  0  0  0  0  0  0  0  0  0  0
   -1.5535    0.0920    0.0000 N   0  0  0  0  0  0  0  0  0  0  0  0
   -0.8390   -0.3205    0.0000 C   0  0  0  0  0  0  0  0  0  0  0  0
   -0.8390   -1.1455    0.0000 O   0  0  0  0  0  0  0  0  0  0  0  0
   -0.1245    0.0920    0.0000 C   0  0  0  0  0  0  0  0  0  0  0  0
   -0.1245    0.9170    0.0000 C   0  0  0  0  0  0  0  0  0  0  0  0
    0.5899    1.3295    0.0000 C   0  0  0  0  0  0  0  0  0  0  0  0
   -0.8390    1.3295    0.0000 C   0  0  0  0  0  0  0  0  0  0  0  0
    0.5899   -0.3205    0.0000 N   0  0  0  0  0  0  0  0  0  0  0  0
    1.3044    0.0920    0.0000 C   0  0  0  0  0  0  0  0  0  0  0  0
    1.3044    0.9170    0.0000 O   0  0  0  0  0  0  0  0  0  0  0  0
    2.0189   -0.3205    0.0000 O   0  0  0  0  0  0  0  0  0  0  0  0
    2.7333    0.0920    0.0000 C   0  0  0  0  0  0  0  0  0  0  0  0
    3.4478    0.5045    0.0000 C   0  0  0  0  0  0  0  0  0  0  0  0
    3.1458   -0.6225    0.0000 C   0  0  0  0  0  0  0  0  0  0  0  0
    2.3208    0.8064    0.0000 C   0  0  0  0  0  0  0  0  0  0  0  0
  1  2  2  0
  1  3  1  0
  3  4  2  0
  3  9  1  0
  4  5  1  0
  4  6  1  0
  6  7  2  0
  7  8  1  0
  8  9  2  0
  9 10  1  0
 10 11  1  0
 11 12  2  0
 11 13  1  0
 13 14  1  0
 13 17  1  6
 14 15  1  0
 14 16  1  0
 17 18  1  0
 18 19  2  0
 18 20  1  0
 20 21  1  0
 21 22  1  0
 21 23  1  0
 21 24  1  0
M  END
>  <DRUGBANK_ID>  (1) 
DB07956

>  <COMMON_NAME>  (1) 
[1-(3-CHLORO-2-FORMYL-PHENYLCARBAMOYL)-2-METHYL-PROPYL]-CARBAMIC ACID TERT-BUTYL ESTER

$$$$
