
     RDKit          2D

 13 12  0  0  0  0  0  0  0  0999 V2000
   -1.7861    0.2062    0.0000 N   0  0  0  0  0  0  0  0  0  0  0  0
    2.5007    0.2062    0.0000 C   0  0  0  0  0  0  0  0  0  0  0  0
    3.2152   -0.2062    0.0000 O   0  0  0  0  0  0  0  0  0  0  0  0
   -1.0717   -0.2062    0.0000 C   0  0  0  0  0  0  0  0  0  0  0  0
    1.7861   -0.2062    0.0000 C   0  0  0  0  0  0  0  0  0  0  0  0
    2.5007    1.0312    0.0000 O   0  0  0  0  0  0  0  0  0  0  0  0
    1.7861   -1.0312    0.0000 N   0  0  0  0  0  0  0  0  0  0  0  0
   -0.3572    0.2062    0.0000 C   0  0  0  0  0  0  0  0  0  0  0  0
    1.0717    0.2062    0.0000 C   0  0  0  0  0  0  0  0  0  0  0  0
    0.3572   -0.2062    0.0000 C   0  0  0  0  0  0  0  0  0  0  0  0
   -2.5006   -0.2062    0.0000 C   0  0  0  0  0  0  0  0  0  0  0  0
   -3.2152    0.2062    0.0000 N   0  0  0  0  0  0  0  0  0  0  0  0
   -2.5006   -1.0312    0.0000 N   0  0  0  0  0  0  0  0  0  0  0  0
  1 11  1  0
  3  2  1  0
  4  1  1  0
  5  2  1  0
  5  7  1  1
  6  2  2  0
  8  4  1  0
  9  5  1  0
 10  8  1  0
 10  9  1  0
 11 12  1  0
 11 13  2  0
M  END
>  <DRUGBANK_ID>  (1) 
DB03974

>  <SECONDARY_ACCESSION_NUMBERS>  (1) 
EXPT01779

>  <COMMON_NAME>  (1) 
L-homoarginine

>  <CAS_NUMBER>  (1) 
156-86-5

>  <UNII>  (1) 
JF751CK38I

>  <SYNONYMS>  (1) 
Homo-L-arginine; Homoarginine; N6-(Aminoiminomethyl)-L-lysine; N6-amidino-L-Lysine; N6-amidino-Lysine

$$$$
