
     RDKit          2D

 20 21  0  0  0  0  0  0  0  0999 V2000
   -1.3737   -3.5062    0.0000 N   0  0  0  0  0  0  0  0  0  0  0  0
   -1.3737   -2.6812    0.0000 C   0  0  0  0  0  0  0  0  0  0  0  0
   -0.6592   -2.2687    0.0000 C   0  0  0  0  0  0  0  0  0  0  0  0
   -0.6592   -1.4437    0.0000 C   0  0  0  0  0  0  0  0  0  0  0  0
   -1.3737   -1.0312    0.0000 C   0  0  0  0  0  0  0  0  0  0  0  0
   -2.0881   -1.4437    0.0000 C   0  0  0  0  0  0  0  0  0  0  0  0
   -2.0881   -2.2687    0.0000 C   0  0  0  0  0  0  0  0  0  0  0  0
   -1.3737   -0.2062    0.0000 S   0  0  0  0  0  0  0  0  0  0  0  0
   -0.5487   -0.2062    0.0000 O   0  0  0  0  0  0  0  0  0  0  0  0
   -2.1986   -0.2062    0.0000 O   0  0  0  0  0  0  0  0  0  0  0  0
   -1.3737    0.6187    0.0000 N   0  0  0  0  0  0  0  0  0  0  0  0
   -0.6592    1.0312    0.0000 C   0  0  0  0  0  0  0  0  0  0  0  0
    0.0552    0.6187    0.0000 N   0  0  0  0  0  0  0  0  0  0  0  0
   -0.6592    1.8562    0.0000 C   0  0  0  0  0  0  0  0  0  0  0  0
    0.7697    1.8562    0.0000 C   0  0  0  0  0  0  0  0  0  0  0  0
    0.7697    1.0312    0.0000 N   0  0  0  0  0  0  0  0  0  0  0  0
    0.0552    2.2687    0.0000 C   0  0  0  0  0  0  0  0  0  0  0  0
    1.4842    2.2687    0.0000 O   0  0  0  0  0  0  0  0  0  0  0  0
    1.4842    3.0937    0.0000 C   0  0  0  0  0  0  0  0  0  0  0  0
    2.1986    3.5062    0.0000 C   0  0  0  0  0  0  0  0  0  0  0  0
  1  2  1  0
  2  3  2  0
  2  7  1  0
  3  4  1  0
  4  5  2  0
  5  6  1  0
  5  8  1  0
  6  7  2  0
  8 10  2  0
  8  9  2  0
  8 11  1  0
 11 12  1  0
 13 12  2  0
 14 12  1  0
 15 16  2  0
 15 17  1  0
 15 18  1  0
 16 13  1  0
 17 14  2  0
 18 19  1  0
 19 20  1  0
M  END
>  <DRUGBANK_ID>  (1) 
DB11462

>  <COMMON_NAME>  (1) 
Sulfaethoxypyridazine

>  <CAS_NUMBER>  (1) 
963-14-4

>  <UNII>  (1) 
880RIW1DED

>  <SYNONYMS>  (1) 
4-amino-N-(6-ethoxy-3-pyridazinyl)benzenesulfonamide; N1-(6-ethoxy-3-pyridazinyl)sulfanilamide; N1-(6-ethoxypyridazin-3-yl)sulphanilamide

$$$$
