208
     RDKit          2D

 31 34  0  0  0  0  0  0  0  0999 V2000
    5.0861    1.5059    0.0000 C   0  0  0  0  0  0  0  0  0  0  0  0
    4.3716    1.0934    0.0000 C   0  0  0  0  0  0  0  0  0  0  0  0
    3.6572    1.5059    0.0000 O   0  0  0  0  0  0  0  0  0  0  0  0
    2.9427    1.0934    0.0000 C   0  0  0  0  0  0  0  0  0  0  0  0
    2.9427    0.2684    0.0000 C   0  0  0  0  0  0  0  0  0  0  0  0
    2.2282   -0.1441    0.0000 O   0  0  0  0  0  0  0  0  0  0  0  0
    3.6572   -0.1441    0.0000 O   0  0  0  0  0  0  0  0  0  0  0  0
    2.2282    1.5059    0.0000 C   0  0  0  0  0  0  0  0  0  0  0  0
    1.5138    1.0934    0.0000 C   0  0  0  0  0  0  0  0  0  0  0  0
    1.5138    0.2684    0.0000 C   0  0  0  0  0  0  0  0  0  0  0  0
    0.7993    1.5059    0.0000 C   0  0  0  0  0  0  0  0  0  0  0  0
    0.0848    1.0934    0.0000 C   0  0  0  0  0  0  0  0  0  0  0  0
   -0.6998    1.3483    0.0000 C   0  0  0  0  0  0  0  0  0  0  0  0
   -1.1847    0.6809    0.0000 C   0  0  0  0  0  0  0  0  0  0  0  0
    0.0848    0.2684    0.0000 C   0  0  0  0  0  0  0  0  0  0  0  0
    0.7993   -0.1441    0.0000 C   0  0  0  0  0  0  0  0  0  0  0  0
   -0.6998    0.0135    0.0000 N   0  0  0  0  0  0  0  0  0  0  0  0
   -0.9548   -0.7712    0.0000 C   0  0  0  0  0  0  0  0  0  0  0  0
   -1.7617   -0.9427    0.0000 C   0  0  0  0  0  0  0  0  0  0  0  0
   -2.0973   -1.6964    0.0000 C   0  0  0  0  0  0  0  0  0  0  0  0
   -1.6848   -2.4108    0.0000 C   0  0  0  0  0  0  0  0  0  0  0  0
   -2.9178   -1.6101    0.0000 O   0  0  0  0  0  0  0  0  0  0  0  0
   -2.3748   -0.3907    0.0000 N   0  0  0  0  0  0  0  0  0  0  0  0
   -3.0893   -0.8032    0.0000 C   0  0  0  0  0  0  0  0  0  0  0  0
   -3.8430   -0.4676    0.0000 C   0  0  0  0  0  0  0  0  0  0  0  0
   -4.5104   -0.9525    0.0000 C   0  0  0  0  0  0  0  0  0  0  0  0
   -4.4242   -1.7730    0.0000 Cl  0  0  0  0  0  0  0  0  0  0  0  0
   -5.2641   -0.6170    0.0000 C   0  0  0  0  0  0  0  0  0  0  0  0
   -5.3503    0.2035    0.0000 C   0  0  0  0  0  0  0  0  0  0  0  0
   -4.6829    0.6884    0.0000 C   0  0  0  0  0  0  0  0  0  0  0  0
   -3.9292    0.3529    0.0000 C   0  0  0  0  0  0  0  0  0  0  0  0
  1  2  1  0
  2  3  1  0
  4  3  1  0
  4  5  1  0
  4  8  1  6
  5  6  1  0
  5  7  2  0
  8  9  1  0
  9 10  2  0
  9 11  1  0
 10 16  1  0
 11 12  2  0
 12 13  1  0
 12 15  1  0
 13 14  2  0
 14 17  1  0
 15 16  2  0
 15 17  1  0
 17 18  1  0
 18 19  1  0
 19 20  2  0
 19 23  1  0
 20 21  1  0
 20 22  1  0
 22 24  1  0
 23 24  2  0
 24 25  1  0
 25 26  2  0
 25 31  1  0
 26 27  1  0
 26 28  1  0
 28 29  2  0
 29 30  1  0
 30 31  2  0
M  END
>  <DRUGBANK_ID>  (1) 
DB06908

>  <COMMON_NAME>  (1) 
(2S)-3-(1-{[2-(2-CHLOROPHENYL)-5-METHYL-1,3-OXAZOL-4-YL]METHYL}-1H-INDOL-5-YL)-2-ETHOXYPROPANOIC ACID

$$$$
