
     RDKit          2D

 24 25  0  0  0  0  0  0  0  0999 V2000
    2.6960    0.4677    0.0000 Cl  0  0  0  0  0  0  0  0  0  0  0  0
    1.2671    1.2928    0.0000 S   0  0  0  0  0  0  0  0  0  0  0  0
   -0.2480   -2.0027    0.0000 S   0  0  0  0  0  0  0  0  0  0  0  0
    2.0921    1.2928    0.0000 O   0  0  0  0  0  0  0  0  0  0  0  0
    0.4421    1.2928    0.0000 O   0  0  0  0  0  0  0  0  0  0  0  0
    2.6960    3.7678    0.0000 O   0  0  0  0  0  0  0  0  0  0  0  0
   -2.6960   -2.3467    0.0000 O   0  0  0  0  0  0  0  0  0  0  0  0
    1.2671    2.1178    0.0000 N   0  0  0  0  0  0  0  0  0  0  0  0
   -1.4676   -1.4597    0.0000 N   0  0  0  0  0  0  0  0  0  0  0  0
   -1.3906   -2.9279    0.0000 N   0  0  0  0  0  0  0  0  0  0  0  0
    1.2671    0.4677    0.0000 C   0  0  0  0  0  0  0  0  0  0  0  0
    0.5525   -0.7697    0.0000 C   0  0  0  0  0  0  0  0  0  0  0  0
    0.5525    0.0552    0.0000 C   0  0  0  0  0  0  0  0  0  0  0  0
   -0.1618   -1.1822    0.0000 C   0  0  0  0  0  0  0  0  0  0  0  0
    1.9816    0.0552    0.0000 C   0  0  0  0  0  0  0  0  0  0  0  0
    1.2671   -1.1822    0.0000 C   0  0  0  0  0  0  0  0  0  0  0  0
    1.9816    2.5303    0.0000 C   0  0  0  0  0  0  0  0  0  0  0  0
   -0.9155   -0.8466    0.0000 C   0  0  0  0  0  0  0  0  0  0  0  0
    1.9816   -0.7697    0.0000 C   0  0  0  0  0  0  0  0  0  0  0  0
    1.9816    3.3553    0.0000 C   0  0  0  0  0  0  0  0  0  0  0  0
   -1.0551   -2.1742    0.0000 C   0  0  0  0  0  0  0  0  0  0  0  0
   -1.0870   -0.0396    0.0000 C   0  0  0  0  0  0  0  0  0  0  0  0
   -2.2111   -3.0142    0.0000 C   0  0  0  0  0  0  0  0  0  0  0  0
   -2.5467   -3.7678    0.0000 C   0  0  0  0  0  0  0  0  0  0  0  0
  1 15  1  0
  2  4  2  0
  2  5  2  0
  2  8  1  0
  2 11  1  0
  3 14  1  0
  3 21  1  0
  6 20  1  0
  7 23  2  0
  8 17  1  0
  9 18  1  0
  9 21  2  0
 10 21  1  0
 10 23  1  0
 11 13  2  0
 11 15  1  0
 12 13  1  0
 12 14  1  0
 12 16  2  0
 14 18  2  0
 15 19  2  0
 16 19  1  0
 17 20  1  0
 18 22  1  0
 23 24  1  0
M  END
>  <DRUGBANK_ID>  (1) 
DB06836

>  <COMMON_NAME>  (1) 
N-(5-{4-Chloro-3-[(2-hydroxyethyl)sulfamoyl]phenyl}-4-methyl-1,3-thiazol-2-yl)acetamide

>  <CAS_NUMBER>  (1) 
593960-11-3

>  <UNII>  (1) 
QS3XFL5JRX

$$$$
