
     RDKit          2D

  8  7  0  0  1  0  0  0  0  0999 V2000
    0.8250   -1.4289    0.0000 C   0  0  0  0  0  0  0  0  0  0  0  0
    2.0625   -0.7145    0.0000 C   0  0  0  0  0  0  0  0  0  0  0  0
    1.2375   -0.7145    0.0000 C   0  0  0  0  0  0  0  0  0  0  0  0
    0.8250    0.0000    0.0000 C   0  0  0  0  0  0  0  0  0  0  0  0
    0.0000   -1.4289    0.0000 N   0  0  0  0  0  0  0  0  0  0  0  0
    2.4750    0.0000    0.0000 O   0  0  0  0  0  0  0  0  0  0  0  0
    1.2375    0.7145    0.0000 O   0  0  0  0  0  0  0  0  0  0  0  0
    0.0000    0.0000    0.0000 O   0  0  0  0  0  0  0  0  0  0  0  0
  3  1  1  6
  3  2  1  0
  3  4  1  0
  5  1  1  0
  6  2  1  0
  7  4  2  0
  8  4  1  0
M  END
>  <DRUGBANK_ID>  (1) 
DB02904

>  <SECONDARY_ACCESSION_NUMBERS>  (1) 
EXPT00762

>  <COMMON_NAME>  (1) 
Beta-3-Serine

$$$$
