161
     RDKit          2D

 32 33  0  0  0  0  0  0  0  0999 V2000
   -2.1586    2.7221    0.0000 C   0  0  0  0  0  0  0  0  0  0  0  0
   -2.8731    2.3096    0.0000 C   0  0  0  0  0  0  0  0  0  0  0  0
   -3.5876    2.7221    0.0000 O   0  0  0  0  0  0  0  0  0  0  0  0
   -2.8731    1.4846    0.0000 C   0  0  0  0  0  0  0  0  0  0  0  0
   -3.5876    1.0721    0.0000 C   0  0  0  0  0  0  0  0  0  0  0  0
   -4.3020    1.4846    0.0000 C   0  0  0  0  0  0  0  0  0  0  0  0
   -5.0165    1.0721    0.0000 O   0  0  0  0  0  0  0  0  0  0  0  0
   -4.3020    2.3096    0.0000 O   0  0  0  0  0  0  0  0  0  0  0  0
   -2.1586    1.0721    0.0000 N   0  0  0  0  0  0  0  0  0  0  0  0
   -1.4441    1.4846    0.0000 C   0  0  0  0  0  0  0  0  0  0  0  0
   -1.4441    2.3096    0.0000 O   0  0  0  0  0  0  0  0  0  0  0  0
   -0.7297    1.0721    0.0000 C   0  0  0  0  0  0  0  0  0  0  0  0
   -0.0152    1.4846    0.0000 C   0  0  0  0  0  0  0  0  0  0  0  0
    0.6993    1.0721    0.0000 C   0  0  0  0  0  0  0  0  0  0  0  0
   -0.7297    0.2471    0.0000 C   0  0  0  0  0  0  0  0  0  0  0  0
   -0.0152   -0.1654    0.0000 C   0  0  0  0  0  0  0  0  0  0  0  0
    0.6993    0.2471    0.0000 C   0  0  0  0  0  0  0  0  0  0  0  0
    1.4137   -0.1654    0.0000 C   0  0  0  0  0  0  0  0  0  0  0  0
    1.4137   -0.9904    0.0000 N   0  0  0  0  0  0  0  0  0  0  0  0
    2.1282   -1.4029    0.0000 S   0  0  0  0  0  0  0  0  0  0  0  0
    1.7157   -2.1173    0.0000 O   0  0  0  0  0  0  0  0  0  0  0  0
    2.5407   -0.6884    0.0000 O   0  0  0  0  0  0  0  0  0  0  0  0
    2.8427   -1.8154    0.0000 C   0  0  0  0  0  0  0  0  0  0  0  0
    3.5572   -1.4029    0.0000 C   0  0  0  0  0  0  0  0  0  0  0  0
    2.8427   -2.6404    0.0000 C   0  0  0  0  0  0  0  0  0  0  0  0
    3.5572   -3.0529    0.0000 C   0  0  0  0  0  0  0  0  0  0  0  0
    4.2716   -2.6404    0.0000 C   0  0  0  0  0  0  0  0  0  0  0  0
    4.9861   -3.0529    0.0000 O   0  0  0  0  0  0  0  0  0  0  0  0
    4.2716   -1.8154    0.0000 C   0  0  0  0  0  0  0  0  0  0  0  0
    4.9861   -1.4029    0.0000 C   0  0  0  0  0  0  0  0  0  0  0  0
    5.7006   -1.8154    0.0000 O   0  0  0  0  0  0  0  0  0  0  0  0
    4.9861   -0.5779    0.0000 O   0  0  0  0  0  0  0  0  0  0  0  0
  1  2  1  0
  2  3  2  0
  2  4  1  0
  4  5  1  1
  4  9  1  0
  5  6  1  0
  6  7  1  0
  6  8  2  0
  9 10  1  0
 10 11  2  0
 10 12  1  0
 12 13  2  0
 12 15  1  0
 13 14  1  0
 14 17  2  0
 15 16  2  0
 16 17  1  0
 17 18  1  0
 18 19  1  0
 19 20  1  0
 20 21  2  0
 20 22  2  0
 20 23  1  0
 23 24  2  0
 23 25  1  0
 24 29  1  0
 25 26  2  0
 26 27  1  0
 27 28  1  0
 27 29  2  0
 29 30  1  0
 30 31  1  0
 30 32  2  0
M  END
>  <DRUGBANK_ID>  (1) 
DB03124

>  <SECONDARY_ACCESSION_NUMBERS>  (1) 
EXPT00045

>  <COMMON_NAME>  (1) 
5-[4-(1-Carboxymethyl-2-Oxo-Propylcarbamoyl)-Benzylsulfamoyl]-2-Hydroxy-Benzoic Acid

$$$$
