
     RDKit          2D

 33 36  0  0  0  0  0  0  0  0999 V2000
   -1.4640   -1.9837    0.0000 C   0  0  0  0  0  0  0  0  0  0  0  0
   -2.1786   -2.3961    0.0000 C   0  0  0  0  0  0  0  0  0  0  0  0
   -2.8930   -1.9837    0.0000 C   0  0  0  0  0  0  0  0  0  0  0  0
   -3.6075   -2.3961    0.0000 C   0  0  0  0  0  0  0  0  0  0  0  0
   -4.3219   -1.1588    0.0000 C   0  0  0  0  0  0  0  0  0  0  0  0
   -3.6075   -0.7462    0.0000 C   0  0  0  0  0  0  0  0  0  0  0  0
   -1.4640    0.4912    0.0000 C   0  0  0  0  0  0  0  0  0  0  0  0
    0.5200   -0.3338    0.0000 C   0  0  0  0  0  0  0  0  0  0  0  0
    0.0350   -1.0012    0.0000 C   0  0  0  0  0  0  0  0  0  0  0  0
   -2.1786   -0.7462    0.0000 C   0  0  0  0  0  0  0  0  0  0  0  0
   -0.7495   -0.7462    0.0000 C   0  0  0  0  0  0  0  0  0  0  0  0
   -1.4640   -1.1588    0.0000 C   0  0  0  0  0  0  0  0  0  0  0  0
   -0.7495    0.0787    0.0000 C   0  0  0  0  0  0  0  0  0  0  0  0
    0.0350    0.3337    0.0000 C   0  0  0  0  0  0  0  0  0  0  0  0
   -4.3219   -1.9837    0.0000 C   0  0  0  0  0  0  0  0  0  0  0  0
   -5.0365   -2.3962    0.0000 O   0  0  0  0  0  0  0  0  0  0  0  0
   -2.1786    0.0787    0.0000 C   0  0  0  0  0  0  0  0  0  0  0  0
   -2.8931    0.4912    0.0000 O   0  0  0  0  0  0  0  0  0  0  0  0
    0.0350    1.1587    0.0000 C   0  0  0  0  0  0  0  0  0  0  0  0
   -0.6793    1.5712    0.0000 O   0  0  0  0  0  0  0  0  0  0  0  0
    0.7495    1.5712    0.0000 C   0  0  0  0  0  0  0  0  0  0  0  0
    1.4641    1.1587    0.0000 O   0  0  0  0  0  0  0  0  0  0  0  0
    0.7495    0.7461    0.0000 O   0  0  0  0  0  0  0  0  0  0  0  0
   -0.7495    0.9037    0.0000 C   0  0  0  0  0  0  0  0  0  0  0  0
   -2.8930   -1.1588    0.0000 C   0  0  0  0  0  0  0  0  0  0  0  0
   -2.8930   -0.3338    0.0000 C   0  0  0  0  0  0  0  0  0  0  0  0
    2.1786    1.5712    0.0000 C   0  0  0  0  0  0  0  0  0  0  0  0
    2.8931    1.1587    0.0000 C   0  0  0  0  0  0  0  0  0  0  0  0
    3.6075    1.5712    0.0000 C   0  0  0  0  0  0  0  0  0  0  0  0
    4.3220    1.1587    0.0000 C   0  0  0  0  0  0  0  0  0  0  0  0
    5.0365    1.5712    0.0000 O   0  0  0  0  0  0  0  0  0  0  0  0
    4.3220    0.3337    0.0000 O   0  0  0  0  0  0  0  0  0  0  0  0
    2.1786    2.3962    0.0000 O   0  0  0  0  0  0  0  0  0  0  0  0
  1  2  1  0
  2  3  1  0
  3  4  2  0
  3 25  1  0
  4 15  1  0
  5  6  1  0
  6 25  1  0
  7 13  1  0
  8  9  1  0
 11  9  1  1
 10 17  1  1
 12  1  1  6
 12 10  1  0
 12 11  1  0
 13 14  1  0
 13 11  1  0
 13 24  1  1
 14  8  1  0
 14 23  1  6
 14 19  1  0
 15  5  1  0
 15 16  2  0
 17  7  1  0
 17 18  1  1
 19 21  1  0
 19 20  2  0
 21 22  1  0
 22 27  1  0
 25 10  1  0
 25 26  1  1
 27 28  1  0
 27 33  2  0
 28 29  1  0
 29 30  1  0
 30 31  1  0
 30 32  2  0
M  END
>  <DRUGBANK_ID>  (1) 
DB14545

>  <COMMON_NAME>  (1) 
Hydrocortisone succinate

>  <CAS_NUMBER>  (1) 
2203-97-6

>  <UNII>  (1) 
IHV1VP592V

>  <SYNONYMS>  (1) 
Cortisol 21-(hydrogen succinate); Cortisol succinate; Hydrocortisone hemisuccinate anhydrous; Hydrocortisone hydrogen succinate; Hydrocortisone succinate; Hydroxycortisone succinate

$$$$
