
     RDKit          2D

 31 32  0  0  0  0  0  0  0  0999 V2000
    1.3805   -0.0223    0.0000 C   0  0  0  0  0  0  0  0  0  0  0  0
    0.9732    0.6920    0.0000 C   0  0  0  0  0  0  0  0  0  0  0  0
    2.2055   -0.0259    0.0000 C   0  0  0  0  0  0  0  0  0  0  0  0
    0.3314   -1.1511    0.0000 O   0  0  0  0  0  0  0  0  0  0  0  0
    1.3840    1.4030    0.0000 C   0  0  0  0  0  0  0  0  0  0  0  0
    0.1484    0.6920    0.0000 O   0  0  0  0  0  0  0  0  0  0  0  0
    2.6266    0.6851    0.0000 C   0  0  0  0  0  0  0  0  0  0  0  0
    2.6162   -0.7437    0.0000 N   0  0  0  0  0  0  0  0  0  0  0  0
   -0.9732   -1.4030    0.0000 C   0  0  0  0  0  0  0  0  0  0  0  0
    2.2124    1.3996    0.0000 O   0  0  0  0  0  0  0  0  0  0  0  0
    0.9732    2.1174    0.0000 C   0  0  0  0  0  0  0  0  0  0  0  0
   -0.2622    1.4098    0.0000 S   0  0  0  0  0  0  0  0  0  0  0  0
    3.4515    0.6815    0.0000 O   0  0  0  0  0  0  0  0  0  0  0  0
    2.1987   -1.4547    0.0000 C   0  0  0  0  0  0  0  0  0  0  0  0
   -1.3874   -0.6885    0.0000 O   0  0  0  0  0  0  0  0  0  0  0  0
   -1.3944   -2.1140    0.0000 C   0  0  0  0  0  0  0  0  0  0  0  0
    1.3874    2.8320    0.0000 O   0  0  0  0  0  0  0  0  0  0  0  0
    0.4487    1.8310    0.0000 O   0  0  0  0  0  0  0  0  0  0  0  0
   -0.9802    1.0061    0.0000 O   0  0  0  0  0  0  0  0  0  0  0  0
   -0.6799    2.1313    0.0000 O   0  0  0  0  0  0  0  0  0  0  0  0
    1.3737   -1.4513    0.0000 C   0  0  0  0  0  0  0  0  0  0  0  0
    2.6059   -2.1726    0.0000 O   0  0  0  0  0  0  0  0  0  0  0  0
   -2.2123   -0.6885    0.0000 C   0  0  0  0  0  0  0  0  0  0  0  0
   -2.2192   -2.1140    0.0000 C   0  0  0  0  0  0  0  0  0  0  0  0
   -0.9836   -2.8320    0.0000 O   0  0  0  0  0  0  0  0  0  0  0  0
   -2.6265   -1.3996    0.0000 C   0  0  0  0  0  0  0  0  0  0  0  0
   -2.6265    0.0293    0.0000 C   0  0  0  0  0  0  0  0  0  0  0  0
   -2.6334   -2.8250    0.0000 O   0  0  0  0  0  0  0  0  0  0  0  0
   -3.4515   -1.3961    0.0000 O   0  0  0  0  0  0  0  0  0  0  0  0
   -3.4515    0.0293    0.0000 O   0  0  0  0  0  0  0  0  0  0  0  0
   -2.2123    0.7437    0.0000 O   0  0  0  0  0  0  0  0  0  0  0  0
  1  2  1  0
  1  3  1  0
  1  4  1  1
  2  5  1  0
  2  6  1  1
  3  7  1  0
  3  8  1  6
  5 10  1  0
  5 11  1  1
  6 12  1  0
  7 13  1  1
  7 10  1  0
  8 14  1  0
  9  4  1  1
  9 15  1  0
  9 16  1  0
 11 17  1  0
 12 18  2  0
 12 19  2  0
 12 20  1  0
 14 21  1  0
 14 22  2  0
 15 23  1  0
 16 24  1  0
 16 25  1  6
 23 26  1  0
 23 27  1  6
 24 28  1  1
 24 26  1  0
 26 29  1  6
 27 30  2  0
 27 31  1  0
M  CHG  2  20  -1  31  -1
M  END
>  <DRUGBANK_ID>  (1) 
DB15880

>  <COMMON_NAME>  (1) 
Dermatan sulfate

>  <CAS_NUMBER>  (1) 
24967-94-0

>  <UNII>  (1) 
J3OC7JVS54

>  <SYNONYMS>  (1) 
beta-Heparin; Chondroitin sulfate B; Chondroitinsulfuric acid type B; Dermatan 4-sulfate; Dermatan hydrogen sulfate; Dermatan L-iduronate; Dermatan sulfate, low molecular weight; Dermatan sulphate

$$$$
