
     RDKit          2D

 28 31  0  0  1  0  0  0  0  0999 V2000
   -2.9440    0.6592    0.0000 C   0  0  0  0  0  0  0  0  0  0  0  0
   -2.2295    1.0716    0.0000 C   0  0  0  0  0  0  0  0  0  0  0  0
   -1.5149    0.6592    0.0000 C   0  0  0  0  0  0  0  0  0  0  0  0
   -1.5149   -0.1657    0.0000 C   0  0  0  0  0  0  0  0  0  0  0  0
   -2.2295   -0.5783    0.0000 C   0  0  0  0  0  0  0  0  0  0  0  0
   -2.9440   -0.1657    0.0000 N   0  0  0  0  0  0  0  0  0  0  0  0
   -3.6584    1.0716    0.0000 C   0  0  0  0  0  0  0  0  0  0  0  0
   -3.6584    1.8967    0.0000 O   0  0  0  0  0  0  0  0  0  0  0  0
   -4.3729    0.6592    0.0000 N   0  0  0  0  0  0  0  0  0  0  0  0
   -5.0874    1.0716    0.0000 C   0  0  0  0  0  0  0  0  0  0  0  0
   -0.8006    1.0716    0.0000 O   0  0  0  0  0  0  0  0  0  0  0  0
    2.1274    0.9141    0.0000 S   0  0  0  0  0  0  0  0  0  0  0  0
    2.6124    0.2467    0.0000 C   0  0  0  0  0  0  0  0  0  0  0  0
    2.1274   -0.4206    0.0000 N   0  0  0  0  0  0  0  0  0  0  0  0
    1.3427   -0.1657    0.0000 C   0  0  0  0  0  0  0  0  0  0  0  0
    1.3427    0.6592    0.0000 C   0  0  0  0  0  0  0  0  0  0  0  0
    0.6284   -0.5783    0.0000 C   0  0  0  0  0  0  0  0  0  0  0  0
   -0.0861   -0.1657    0.0000 C   0  0  0  0  0  0  0  0  0  0  0  0
   -0.0861    0.6592    0.0000 C   0  0  0  0  0  0  0  0  0  0  0  0
    0.6284    1.0716    0.0000 C   0  0  0  0  0  0  0  0  0  0  0  0
    3.4374    0.2467    0.0000 N   0  0  0  0  0  0  0  0  0  0  0  0
    3.8498   -0.4677    0.0000 C   0  0  0  0  0  0  0  0  0  0  0  0
    3.4374   -1.1822    0.0000 C   0  0  0  0  0  0  0  0  0  0  0  0
    3.8498   -1.8966    0.0000 C   0  0  0  0  0  0  0  0  0  0  0  0
    4.6748   -1.8966    0.0000 C   0  0  0  0  0  0  0  0  0  0  0  0
    5.0874   -1.1822    0.0000 C   0  0  0  0  0  0  0  0  0  0  0  0
    4.6748   -0.4677    0.0000 C   0  0  0  0  0  0  0  0  0  0  0  0
    2.6124   -1.1822    0.0000 O   0  0  0  0  0  0  0  0  0  0  0  0
  1  2  2  0
  1  6  1  0
  1  7  1  0
  2  3  1  0
  3  4  2  0
  3 11  1  0
  4  5  1  0
  5  6  2  0
  7  8  2  0
  7  9  1  0
  9 10  1  0
 11 19  1  0
 12 13  1  0
 12 16  1  0
 13 14  2  0
 13 21  1  0
 14 15  1  0
 15 16  2  0
 17 18  2  0
 17 15  1  0
 18 19  1  0
 19 20  2  0
 20 16  1  0
 22 23  1  0
 22 27  1  0
 22 21  1  6
 23 24  1  0
 23 28  1  1
 24 25  1  0
 25 26  1  0
 26 27  1  0
M  END
>  <DRUGBANK_ID>  (1) 
DB16838

>  <COMMON_NAME>  (1) 
BLZ-945

>  <CAS_NUMBER>  (1) 
953769-46-5

>  <UNII>  (1) 
7W3V82OQ0P

>  <SYNONYMS>  (1) 
Sotuletinib

$$$$
