
     RDKit          2D

 22 24  0  0  0  0  0  0  0  0999 V2000
   -2.0367   -0.4741    0.0000 C   0  0  0  0  0  0  0  0  0  0  0  0
   -2.0367   -1.2991    0.0000 C   0  0  0  0  0  0  0  0  0  0  0  0
   -2.7512   -1.7116    0.0000 C   0  0  0  0  0  0  0  0  0  0  0  0
   -3.4656   -1.2991    0.0000 C   0  0  0  0  0  0  0  0  0  0  0  0
   -3.4656   -0.4741    0.0000 C   0  0  0  0  0  0  0  0  0  0  0  0
   -2.7512   -0.0616    0.0000 C   0  0  0  0  0  0  0  0  0  0  0  0
   -2.7512    0.7634    0.0000 N   0  0  0  0  0  0  0  0  0  0  0  0
   -3.4656    1.1759    0.0000 C   0  0  0  0  0  0  0  0  0  0  0  0
   -4.1801    0.7634    0.0000 N   0  0  0  0  0  0  0  0  0  0  0  0
   -4.8946    1.1759    0.0000 C   0  0  0  0  0  0  0  0  0  0  0  0
   -4.8946    2.0009    0.0000 N   0  0  0  0  0  0  0  0  0  0  0  0
   -4.1801    2.4134    0.0000 C   0  0  0  0  0  0  0  0  0  0  0  0
   -3.4656    2.0009    0.0000 N   0  0  0  0  0  0  0  0  0  0  0  0
   -4.1801    3.2384    0.0000 N   0  0  0  0  0  0  0  0  0  0  0  0
   -5.6091    0.7634    0.0000 N   0  0  0  0  0  0  0  0  0  0  0  0
   -2.7512   -2.5366    0.0000 As  0  0  0  0  0  3  0  0  0  0  0  0
   -2.0837   -3.0215    0.0000 S   0  0  0  0  0  0  0  0  0  0  0  0
   -2.3387   -3.8062    0.0000 C   0  0  0  0  0  0  0  0  0  0  0  0
   -3.1637   -3.8062    0.0000 C   0  0  0  0  0  0  0  0  0  0  0  0
   -3.4186   -3.0215    0.0000 S   0  0  0  0  0  0  0  0  0  0  0  0
   -3.6486   -4.4736    0.0000 C   0  0  0  0  0  0  0  0  0  0  0  0
   -3.3130   -5.2273    0.0000 O   0  0  0  0  0  0  0  0  0  0  0  0
  1  2  2  0
  1  6  1  0
  2  3  1  0
  3  4  2  0
  3 16  1  0
  4  5  1  0
  5  6  2  0
  6  7  1  0
  7  8  1  0
  8  9  2  0
  8 13  1  0
  9 10  1  0
 10 11  2  0
 10 15  1  0
 11 12  1  0
 12 13  2  0
 12 14  1  0
 16 17  1  0
 16 20  1  0
 17 18  1  0
 18 19  1  0
 19 20  1  0
 19 21  1  0
 21 22  1  0
M  END
>  <DRUGBANK_ID>  (1) 
DB12864

>  <COMMON_NAME>  (1) 
Melarsoprol

>  <CAS_NUMBER>  (1) 
494-79-1

>  <UNII>  (1) 
ZF3786Q2E8

>  <SYNONYMS>  (1) 
Melarsoprol

$$$$
