
     RDKit          2D

 28 28  0  0  0  0  0  0  0  0999 V2000
   -3.9296   -3.7125    0.0000 I   0  0  0  0  0  0  0  0  0  0  0  0
   -1.7862   -0.8250    0.0000 S   0  0  0  0  0  0  0  0  0  0  0  0
    0.3572    1.2375    0.0000 O   0  0  0  0  0  0  0  0  0  0  0  0
   -0.3572    1.6500    0.0000 O   0  0  0  0  0  0  0  0  0  0  0  0
    3.9296    0.0000    0.0000 O   0  0  0  0  0  0  0  0  0  0  0  0
    3.2152    1.2375    0.0000 O   0  0  0  0  0  0  0  0  0  0  0  0
   -2.5006    3.7125    0.0000 O   0  0  0  0  0  0  0  0  0  0  0  0
   -3.2152    2.4750    0.0000 O   0  0  0  0  0  0  0  0  0  0  0  0
   -0.3572    0.0000    0.0000 N   0  0  0  0  0  0  0  0  0  0  0  0
   -1.7862    1.6500    0.0000 N   0  0  0  0  0  0  0  0  0  0  0  0
    2.5006   -0.8250    0.0000 N   0  0  0  0  0  0  0  0  0  0  0  0
   -1.0717    0.4125    0.0000 C   0  0  0  0  0  0  0  0  0  0  0  0
    1.7862    0.4125    0.0000 C   0  0  0  0  0  0  0  0  0  0  0  0
    1.0717    0.0000    0.0000 C   0  0  0  0  0  0  0  0  0  0  0  0
   -1.7862    0.0000    0.0000 C   0  0  0  0  0  0  0  0  0  0  0  0
    2.5006    0.0000    0.0000 C   0  0  0  0  0  0  0  0  0  0  0  0
    0.3572    0.4125    0.0000 C   0  0  0  0  0  0  0  0  0  0  0  0
   -1.0717    1.2375    0.0000 C   0  0  0  0  0  0  0  0  0  0  0  0
   -2.5006   -1.2375    0.0000 C   0  0  0  0  0  0  0  0  0  0  0  0
    3.2152    0.4125    0.0000 C   0  0  0  0  0  0  0  0  0  0  0  0
   -2.5006   -2.0625    0.0000 C   0  0  0  0  0  0  0  0  0  0  0  0
   -1.7862    2.4750    0.0000 C   0  0  0  0  0  0  0  0  0  0  0  0
   -3.2152   -2.4750    0.0000 C   0  0  0  0  0  0  0  0  0  0  0  0
   -1.7862   -2.4750    0.0000 C   0  0  0  0  0  0  0  0  0  0  0  0
   -3.2152   -3.3000    0.0000 C   0  0  0  0  0  0  0  0  0  0  0  0
   -1.7862   -3.3000    0.0000 C   0  0  0  0  0  0  0  0  0  0  0  0
   -2.5006    2.8875    0.0000 C   0  0  0  0  0  0  0  0  0  0  0  0
   -2.5006   -3.7125    0.0000 C   0  0  0  0  0  0  0  0  0  0  0  0
  1 25  1  0
  2 15  1  0
  2 19  1  0
  3 17  2  0
  4 18  2  0
  5 20  1  0
  6 20  2  0
  7 27  1  0
  8 27  2  0
  9 17  1  0
 10 18  1  0
 10 22  1  0
 12  9  1  0
 12 15  1  1
 12 18  1  0
 13 14  1  0
 13 16  1  0
 14 17  1  0
 16 11  1  1
 16 20  1  0
 19 21  1  0
 21 23  2  0
 21 24  1  0
 22 27  1  0
 23 25  1  0
 24 26  2  0
 25 28  2  0
 26 28  1  0
M  END
>  <DRUGBANK_ID>  (1) 
DB04341

>  <SECONDARY_ACCESSION_NUMBERS>  (1) 
EXPT01551

>  <COMMON_NAME>  (1) 
S-(3-Iodobenzyl)glutathione

$$$$
