3DH
     RDKit          2D

 21 23  0  0  0  0  0  0  0  0999 V2000
   -1.5966   -3.2393    0.0000 C   0  0  0  0  0  0  0  0  0  0  0  0
   -1.6829   -2.4188    0.0000 C   0  0  0  0  0  0  0  0  0  0  0  0
   -1.0154   -1.9339    0.0000 S   0  0  0  0  0  0  0  0  0  0  0  0
   -1.1017   -1.1134    0.0000 C   0  0  0  0  0  0  0  0  0  0  0  0
   -0.4342   -0.6285    0.0000 C   0  0  0  0  0  0  0  0  0  0  0  0
   -0.4342    0.1965    0.0000 O   0  0  0  0  0  0  0  0  0  0  0  0
    0.3504   -0.8834    0.0000 C   0  0  0  0  0  0  0  0  0  0  0  0
    0.6053   -1.6681    0.0000 O   0  0  0  0  0  0  0  0  0  0  0  0
    0.8353   -0.2160    0.0000 C   0  0  0  0  0  0  0  0  0  0  0  0
    1.6603   -0.2160    0.0000 O   0  0  0  0  0  0  0  0  0  0  0  0
    0.3504    0.4514    0.0000 C   0  0  0  0  0  0  0  0  0  0  0  0
    0.6053    1.2361    0.0000 N   0  0  0  0  0  0  0  0  0  0  0  0
    0.1204    1.9035    0.0000 C   0  0  0  0  0  0  0  0  0  0  0  0
    0.6053    2.5709    0.0000 N   0  0  0  0  0  0  0  0  0  0  0  0
    1.3900    2.3160    0.0000 C   0  0  0  0  0  0  0  0  0  0  0  0
    1.3900    1.4910    0.0000 C   0  0  0  0  0  0  0  0  0  0  0  0
    2.1044    1.0785    0.0000 N   0  0  0  0  0  0  0  0  0  0  0  0
    2.8189    1.4910    0.0000 C   0  0  0  0  0  0  0  0  0  0  0  0
    2.8189    2.3160    0.0000 N   0  0  0  0  0  0  0  0  0  0  0  0
    2.1044    2.7285    0.0000 C   0  0  0  0  0  0  0  0  0  0  0  0
    2.1044    3.5535    0.0000 N   0  0  0  0  0  0  0  0  0  0  0  0
  2  1  1  0
  2  3  1  0
  4  3  1  0
  5  4  1  1
  5  6  1  0
  6 11  1  0
  7  5  1  0
  7  9  1  0
  7  8  1  6
  9 10  1  6
  9 11  1  0
 11 12  1  1
 12 16  1  0
 13 12  1  0
 13 14  2  0
 14 15  1  0
 15 20  1  0
 16 15  2  0
 16 17  1  0
 17 18  2  0
 18 19  1  0
 20 19  2  0
 20 21  1  0
M  END
>  <DRUGBANK_ID>  (1) 
DB07052

>  <COMMON_NAME>  (1) 
5'-S-ethyl-5'-thioadenosine

$$$$
