
     RDKit          2D

 36 38  0  0  0  0  0  0  0  0999 V2000
    1.7847    1.2355    0.0000 C   0  0  0  0  0  0  0  0  0  0  0  0
    1.0699    0.8237    0.0000 N   0  0  0  0  0  0  0  0  0  0  0  0
    0.3596    1.2355    0.0000 C   0  0  0  0  0  0  0  0  0  0  0  0
   -0.3550    0.8237    0.0000 C   0  0  0  0  0  0  0  0  0  0  0  0
   -1.0700    1.2355    0.0000 O   0  0  0  0  0  0  0  0  0  0  0  0
   -1.7848    0.8237    0.0000 C   0  0  0  0  0  0  0  0  0  0  0  0
   -1.7848    0.0000    0.0000 C   0  0  0  0  0  0  0  0  0  0  0  0
   -1.0700   -0.4118    0.0000 C   0  0  0  0  0  0  0  0  0  0  0  0
   -1.0700   -1.2356    0.0000 N   0  0  0  0  0  0  0  0  0  0  0  0
   -1.7848   -1.6474    0.0000 C   0  0  0  0  0  0  0  0  0  0  0  0
   -2.4996   -1.2356    0.0000 C   0  0  0  0  0  0  0  0  0  0  0  0
   -2.4996   -0.4118    0.0000 C   0  0  0  0  0  0  0  0  0  0  0  0
   -0.3550   -1.6474    0.0000 C   0  0  0  0  0  0  0  0  0  0  0  0
   -0.3550   -2.4758    0.0000 O   0  0  0  0  0  0  0  0  0  0  0  0
    0.3596   -1.2356    0.0000 N   0  0  0  0  0  0  0  0  0  0  0  0
    1.0699   -1.6474    0.0000 C   0  0  0  0  0  0  0  0  0  0  0  0
    1.7847   -1.2356    0.0000 C   0  0  0  0  0  0  0  0  0  0  0  0
    2.4996   -1.6474    0.0000 C   0  0  0  0  0  0  0  0  0  0  0  0
    3.2145   -1.2356    0.0000 C   0  0  0  0  0  0  0  0  0  0  0  0
    3.2145   -0.4118    0.0000 C   0  0  0  0  0  0  0  0  0  0  0  0
    3.9293    0.0000    0.0000 O   0  0  0  0  0  0  0  0  0  0  0  0
    4.6443   -0.4118    0.0000 C   0  0  0  0  0  0  0  0  0  0  0  0
    4.6443   -1.2356    0.0000 C   0  0  0  0  0  0  0  0  0  0  0  0
    3.9293   -1.6474    0.0000 C   0  0  0  0  0  0  0  0  0  0  0  0
    1.7847   -0.4118    0.0000 N   0  0  0  0  0  0  0  0  0  0  0  0
    2.4996    0.0000    0.0000 C   0  0  0  0  0  0  0  0  0  0  0  0
   -2.4996    1.2355    0.0000 C   0  0  0  0  0  0  0  0  0  0  0  0
   -3.2146    0.8237    0.0000 C   0  0  0  0  0  0  0  0  0  0  0  0
   -3.9295    1.2355    0.0000 C   0  0  0  0  0  0  0  0  0  0  0  0
   -3.9295    2.0640    0.0000 C   0  0  0  0  0  0  0  0  0  0  0  0
   -3.2146    2.4758    0.0000 C   0  0  0  0  0  0  0  0  0  0  0  0
   -2.4996    2.0640    0.0000 C   0  0  0  0  0  0  0  0  0  0  0  0
   -4.6443    0.8237    0.0000 Cl  0  0  0  0  0  0  0  0  0  0  0  0
    1.7847    2.0640    0.0000 O   0  0  0  0  0  0  0  0  0  0  0  0
    2.4996    0.8237    0.0000 O   0  0  0  0  0  0  0  0  0  0  0  0
    3.2145    1.2355    0.0000 C   0  0  0  0  0  0  0  0  0  0  0  0
  1  2  1  0
  1 34  2  0
  1 35  1  0
  2  3  1  0
  3  4  1  0
  4  5  1  0
  6  5  1  6
  6  7  1  0
  6 27  1  0
  7  8  1  1
  7 12  1  0
  9  8  1  0
  9 10  1  0
  9 13  1  0
 11 10  1  0
 12 11  1  0
 13 14  2  0
 13 15  1  0
 15 16  1  0
 17 16  1  1
 17 18  1  0
 17 25  1  0
 19 18  1  6
 19 24  1  0
 20 19  1  0
 20 21  1  0
 22 21  1  0
 23 22  1  0
 24 23  1  0
 25 26  1  0
 27 28  2  0
 27 32  1  0
 28 29  1  0
 29 30  2  0
 29 33  1  0
 30 31  1  0
 31 32  2  0
 35 36  1  0
M  END
>  <DRUGBANK_ID>  (1) 
DB12416

>  <COMMON_NAME>  (1) 
VTP-27999

>  <CAS_NUMBER>  (1) 
942142-51-0

>  <UNII>  (1) 
254XY8NV84

$$$$
