
     RDKit          2D

 10  8  0  0  0  0  0  0  0  0999 V2000
    0.7144    0.2062    0.0000 C   0  0  0  0  0  0  0  0  0  0  0  0
    0.0000   -0.2062    0.0000 C   0  0  0  0  0  0  0  0  0  0  0  0
   -0.7144    0.2062    0.0000 C   0  0  0  0  0  0  0  0  0  0  0  0
   -0.7144    1.0312    0.0000 O   0  0  0  0  0  0  0  0  0  0  0  0
   -1.4289   -0.2062    0.0000 O   0  0  0  0  0  0  0  0  0  0  0  0
    0.0000   -1.0312    0.0000 O   0  0  0  0  0  0  0  0  0  0  0  0
    1.4289   -0.2062    0.0000 C   0  0  0  0  0  0  0  0  0  0  0  0
    2.1434    0.2062    0.0000 O   0  0  0  0  0  0  0  0  0  0  0  0
    1.4289   -1.0312    0.0000 O   0  0  0  0  0  0  0  0  0  0  0  0
   -2.1434   -0.6187    0.0000 Mg  0  0  0  0  0 15  0  0  0  0  0  0
  1  2  1  0
  1  7  1  0
  2  3  1  0
  2  6  1  0
  3  4  2  0
  3  5  1  0
  7  8  2  0
  7  9  1  0
M  CHG  3   5  -1   9  -1  10   2
M  END
>  <DRUGBANK_ID>  (1) 
DB15555

>  <COMMON_NAME>  (1) 
Magnesium malate

>  <CAS_NUMBER>  (1) 
869-06-7

>  <UNII>  (1) 
LA9X9UJA2Z

$$$$
