
     RDKit          2D

 35 37  0  0  0  0  0  0  0  0999 V2000
   -0.7145    0.2062    0.0000 O   0  0  0  0  0  0  0  0  0  0  0  0
   -3.5724    1.0312    0.0000 O   0  0  0  0  0  0  0  0  0  0  0  0
   -3.5724    2.6813    0.0000 O   0  0  0  0  0  0  0  0  0  0  0  0
    0.7145   -1.4437    0.0000 O   0  0  0  0  0  0  0  0  0  0  0  0
    0.0000   -0.2062    0.0000 O   0  0  0  0  0  0  0  0  0  0  0  0
   -2.1434    0.2062    0.0000 N   0  0  0  0  0  0  0  0  0  0  0  0
   -0.7145   -1.4437    0.0000 N   0  0  0  0  0  0  0  0  0  0  0  0
    3.5724   -1.4437    0.0000 N   0  0  0  0  0  0  0  0  0  0  0  0
   -2.1434    1.0312    0.0000 C   0  0  0  0  0  0  0  0  0  0  0  0
   -1.4289    1.4437    0.0000 C   0  0  0  0  0  0  0  0  0  0  0  0
   -1.4289   -1.0312    0.0000 C   0  0  0  0  0  0  0  0  0  0  0  0
   -1.4289    2.2687    0.0000 C   0  0  0  0  0  0  0  0  0  0  0  0
   -2.1434   -1.4437    0.0000 C   0  0  0  0  0  0  0  0  0  0  0  0
   -1.4289   -0.2062    0.0000 C   0  0  0  0  0  0  0  0  0  0  0  0
   -2.8579    1.4437    0.0000 C   0  0  0  0  0  0  0  0  0  0  0  0
   -0.7145    2.6813    0.0000 C   0  0  0  0  0  0  0  0  0  0  0  0
   -2.1434   -2.2687    0.0000 C   0  0  0  0  0  0  0  0  0  0  0  0
   -2.8579    2.2687    0.0000 C   0  0  0  0  0  0  0  0  0  0  0  0
    0.0000    2.2687    0.0000 C   0  0  0  0  0  0  0  0  0  0  0  0
   -0.7145    3.5063    0.0000 C   0  0  0  0  0  0  0  0  0  0  0  0
   -1.4289   -2.6813    0.0000 C   0  0  0  0  0  0  0  0  0  0  0  0
   -2.8579   -2.6813    0.0000 C   0  0  0  0  0  0  0  0  0  0  0  0
    0.0000   -1.0312    0.0000 C   0  0  0  0  0  0  0  0  0  0  0  0
    0.7145    2.6813    0.0000 C   0  0  0  0  0  0  0  0  0  0  0  0
    0.0000    3.9188    0.0000 C   0  0  0  0  0  0  0  0  0  0  0  0
   -1.4289   -3.5063    0.0000 C   0  0  0  0  0  0  0  0  0  0  0  0
   -2.8579   -3.5063    0.0000 C   0  0  0  0  0  0  0  0  0  0  0  0
    0.7145    3.5063    0.0000 C   0  0  0  0  0  0  0  0  0  0  0  0
   -2.1434   -3.9188    0.0000 C   0  0  0  0  0  0  0  0  0  0  0  0
    1.4289   -1.0312    0.0000 C   0  0  0  0  0  0  0  0  0  0  0  0
    2.1434   -1.4437    0.0000 C   0  0  0  0  0  0  0  0  0  0  0  0
    2.1434   -2.2687    0.0000 C   0  0  0  0  0  0  0  0  0  0  0  0
    2.8579   -1.0312    0.0000 C   0  0  0  0  0  0  0  0  0  0  0  0
    2.8579   -2.6813    0.0000 C   0  0  0  0  0  0  0  0  0  0  0  0
    3.5724   -2.2687    0.0000 C   0  0  0  0  0  0  0  0  0  0  0  0
  1 14  2  0
  2 15  2  0
  3 18  1  0
  4 23  1  0
  4 30  1  0
  5 23  2  0
  6 14  1  0
  7 23  1  0
  8 33  2  0
  8 35  1  0
  9  6  1  0
  9 10  1  6
  9 15  1  0
 10 12  1  0
 11  7  1  0
 11 13  1  1
 11 14  1  0
 12 16  1  0
 13 17  1  0
 15 18  1  0
 16 19  2  0
 16 20  1  0
 17 21  2  0
 17 22  1  0
 19 24  1  0
 20 25  2  0
 21 26  1  0
 22 27  2  0
 24 28  2  0
 25 28  1  0
 26 29  2  0
 27 29  1  0
 30 31  1  0
 31 32  2  0
 31 33  1  0
 32 34  1  0
 34 35  2  0
M  END
>  <DRUGBANK_ID>  (1) 
DB02128

>  <SECONDARY_ACCESSION_NUMBERS>  (1) 
EXPT02467

>  <COMMON_NAME>  (1) 
[1-(3-hydroxy-2-oxo-1-phenethyl-propylcarbamoyl)2-phenyl-ethyl]-carbamic acid pyridin-4-ylmethyl ester

>  <SYNONYMS>  (1) 
N-[(3S)-1-hydroxy-2-oxo-5-phenyl-3-pentanyl]-NÎ±-[(3-pyridinylmethoxy)carbonyl]-L-phenylalaninamide

$$$$
