
     RDKit          2D

 33 37  0  0  0  0  0  0  0  0999 V2000
    4.7199   -2.4989    0.0000 C   0  0  0  0  0  0  0  0  0  0  0  0
    3.9129   -2.6704    0.0000 C   0  0  0  0  0  0  0  0  0  0  0  0
    3.6580   -3.4550    0.0000 C   0  0  0  0  0  0  0  0  0  0  0  0
    2.8510   -3.6266    0.0000 C   0  0  0  0  0  0  0  0  0  0  0  0
    2.2990   -3.0135    0.0000 C   0  0  0  0  0  0  0  0  0  0  0  0
    1.4920   -3.1850    0.0000 C   0  0  0  0  0  0  0  0  0  0  0  0
    1.2371   -3.9696    0.0000 N   0  0  0  0  0  0  0  0  0  0  0  0
    0.4301   -4.1411    0.0000 C   0  0  0  0  0  0  0  0  0  0  0  0
    0.1751   -4.9258    0.0000 C   0  0  0  0  0  0  0  0  0  0  0  0
   -0.6318   -5.0973    0.0000 C   0  0  0  0  0  0  0  0  0  0  0  0
   -1.1839   -4.4842    0.0000 C   0  0  0  0  0  0  0  0  0  0  0  0
   -0.9289   -3.6996    0.0000 C   0  0  0  0  0  0  0  0  0  0  0  0
   -1.4810   -3.0865    0.0000 Cl  0  0  0  0  0  0  0  0  0  0  0  0
   -0.1219   -3.5280    0.0000 C   0  0  0  0  0  0  0  0  0  0  0  0
    0.1330   -2.7434    0.0000 F   0  0  0  0  0  0  0  0  0  0  0  0
    0.9400   -2.5719    0.0000 N   0  0  0  0  0  0  0  0  0  0  0  0
    1.1949   -1.7873    0.0000 C   0  0  0  0  0  0  0  0  0  0  0  0
    2.0019   -1.6157    0.0000 C   0  0  0  0  0  0  0  0  0  0  0  0
    2.5539   -2.2288    0.0000 C   0  0  0  0  0  0  0  0  0  0  0  0
    3.3609   -2.0573    0.0000 C   0  0  0  0  0  0  0  0  0  0  0  0
    3.6158   -1.2727    0.0000 N   0  0  0  0  0  0  0  0  0  0  0  0
    4.4228   -1.1012    0.0000 C   0  0  0  0  0  0  0  0  0  0  0  0
    4.9748   -1.7143    0.0000 O   0  0  0  0  0  0  0  0  0  0  0  0
    4.6777   -0.3165    0.0000 C   0  0  0  0  0  0  0  0  0  0  0  0
    4.1928    0.3509    0.0000 C   0  0  0  0  0  0  0  0  0  0  0  0
    4.6777    1.0183    0.0000 S   0  0  0  0  0  0  0  0  0  0  0  0
    5.4623    0.7634    0.0000 C   0  0  0  0  0  0  0  0  0  0  0  0
    6.1768    1.1759    0.0000 C   0  0  0  0  0  0  0  0  0  0  0  0
    6.1768    2.0009    0.0000 N   0  0  0  0  0  0  0  0  0  0  0  0
    6.8913    0.7634    0.0000 N   0  0  0  0  0  0  0  0  0  0  0  0
    6.8913   -0.0616    0.0000 C   0  0  0  0  0  0  0  0  0  0  0  0
    6.1768   -0.4741    0.0000 N   0  0  0  0  0  0  0  0  0  0  0  0
    5.4623   -0.0616    0.0000 C   0  0  0  0  0  0  0  0  0  0  0  0
  1  2  1  0
  2  3  2  0
  2 20  1  0
  3  4  1  0
  4  5  2  0
  5  6  1  0
  5 19  1  0
  6  7  1  0
  6 16  2  0
  7  8  1  0
  8  9  2  0
  8 14  1  0
  9 10  1  0
 10 11  2  0
 11 12  1  0
 12 13  1  0
 12 14  2  0
 14 15  1  0
 16 17  1  0
 17 18  2  0
 18 19  1  0
 19 20  2  0
 20 21  1  0
 21 22  1  0
 22 23  2  0
 22 24  1  0
 24 25  2  0
 24 33  1  0
 25 26  1  0
 26 27  1  0
 27 28  1  0
 27 33  2  0
 28 29  1  0
 28 30  2  0
 30 31  1  0
 31 32  2  0
 32 33  1  0
M  END
>  <DRUGBANK_ID>  (1) 
DB17568

>  <COMMON_NAME>  (1) 
Belvarafenib

>  <CAS_NUMBER>  (1) 
1446113-23-0

>  <UNII>  (1) 
31M3WLJ3KG

>  <SYNONYMS>  (1) 
4-amino-n-(1-((3-chloro-2-fluorophenyl)amino)-6-methylisoquinolin-5-yl)thieno(3,2-d)pyrimidine-7-carboxamide; Belvarafenib; Thieno(3,2-d)pyrimidine-7-carboxamide, 4-amino-n-(1-((3-chloro-2-fluorophenyl)amino)-6-methyl-5-isoquinolinyl)-

$$$$
