CRJ
     RDKit          2D

 33 35  0  0  0  0  0  0  0  0999 V2000
    3.4933   -1.6374    0.0000 C   0  0  0  0  0  0  0  0  0  0  0  0
    2.9255   -0.3261    0.0000 C   0  0  0  0  0  0  0  0  0  0  0  0
    2.1685   -0.6540    0.0000 C   0  0  0  0  0  0  0  0  0  0  0  0
    2.0738   -1.4735    0.0000 C   0  0  0  0  0  0  0  0  0  0  0  0
    2.7363   -1.9652    0.0000 C   0  0  0  0  0  0  0  0  0  0  0  0
    3.5880   -0.8179    0.0000 C   0  0  0  0  0  0  0  0  0  0  0  0
    1.5060   -0.1622    0.0000 C   0  0  0  0  0  0  0  0  0  0  0  0
    4.1558   -2.1291    0.0000 F   0  0  0  0  0  0  0  0  0  0  0  0
    0.7490   -0.4900    0.0000 N   0  0  0  0  0  0  0  0  0  0  0  0
    1.6007    0.6573    0.0000 C   0  0  0  0  0  0  0  0  0  0  0  0
    0.0865    0.0017    0.0000 C   0  0  0  0  0  0  0  0  0  0  0  0
    0.1811    0.8212    0.0000 C   0  0  0  0  0  0  0  0  0  0  0  0
   -0.6706   -0.3261    0.0000 C   0  0  0  0  0  0  0  0  0  0  0  0
   -1.3330    0.1656    0.0000 S   0  0  0  0  0  0  0  0  0  0  0  0
   -1.9954    0.6573    0.0000 C   0  0  0  0  0  0  0  0  0  0  0  0
   -0.4813    1.3130    0.0000 N   0  0  0  0  0  0  0  0  0  0  0  0
    0.9382    1.1491    0.0000 O   0  0  0  0  0  0  0  0  0  0  0  0
   -2.7525    0.3295    0.0000 C   0  0  0  0  0  0  0  0  0  0  0  0
   -2.9323   -0.4757    0.0000 C   0  0  0  0  0  0  0  0  0  0  0  0
   -3.7536   -0.5535    0.0000 C   0  0  0  0  0  0  0  0  0  0  0  0
   -4.0814    0.2036    0.0000 C   0  0  0  0  0  0  0  0  0  0  0  0
   -3.4627    0.7493    0.0000 N   0  0  0  0  0  0  0  0  0  0  0  0
   -4.8866    0.3834    0.0000 O   0  0  0  0  0  0  0  0  0  0  0  0
   -0.3867    2.1325    0.0000 C   0  0  0  0  0  0  0  0  0  0  0  0
   -0.0174    2.8703    0.0000 C   0  0  0  0  0  0  0  0  0  0  0  0
    0.4369    2.1817    0.0000 C   0  0  0  0  0  0  0  0  0  0  0  0
   -0.8413    0.8280    0.0000 O   0  0  0  0  0  0  0  0  0  0  0  0
   -1.8247   -0.4968    0.0000 O   0  0  0  0  0  0  0  0  0  0  0  0
    2.4202    0.5627    0.0000 F   0  0  0  0  0  0  0  0  0  0  0  0
    0.7811    0.7520    0.0000 F   0  0  0  0  0  0  0  0  0  0  0  0
    1.6953    1.4769    0.0000 F   0  0  0  0  0  0  0  0  0  0  0  0
   -1.9680    2.6036    0.0000 N   0  0  0  0  0  0  0  0  0  0  0  0
   -1.1773    2.3680    0.0000 C   0  0  0  0  0  0  0  0  0  0  0  0
  1  5  2  0
  1  6  1  0
  1  8  1  0
  2  3  1  0
  2  6  2  0
  3  4  2  0
  3  7  1  0
  4  5  1  0
  7  9  1  6
  7 10  1  0
 10 29  1  0
 10 30  1  0
 10 31  1  0
 11  9  1  0
 11 12  1  0
 11 13  1  1
 12 16  1  0
 12 17  2  0
 13 14  1  0
 14 15  1  0
 14 27  2  0
 14 28  2  0
 16 24  1  0
 18 15  1  6
 18 19  1  0
 18 22  1  0
 19 20  1  0
 20 21  1  0
 21 22  1  0
 21 23  2  0
 24 25  1  0
 24 26  1  0
 24 33  1  0
 25 26  1  0
 32 33  3  0
M  END
>  <DRUGBANK_ID>  (1) 
DB07587

>  <COMMON_NAME>  (1) 
N-(1-CYANOCYCLOPROPYL)-3-({[(2S)-5-OXOPYRROLIDIN-2-YL]METHYL}SULFONYL)-N~2~-[(1S)-2,2,2-TRIFLUORO-1-(4-FLUOROPHENYL)ETHYL]-L-ALANINAMIDE

$$$$
