DQO
     RDKit          2D

 33 37  0  0  0  0  0  0  0  0999 V2000
    0.3829   -0.7200    0.0000 C   0  0  0  0  0  0  0  0  0  0  0  0
   -0.3316   -1.1325    0.0000 C   0  0  0  0  0  0  0  0  0  0  0  0
   -1.0461   -0.7200    0.0000 C   0  0  0  0  0  0  0  0  0  0  0  0
   -1.0461    0.1050    0.0000 C   0  0  0  0  0  0  0  0  0  0  0  0
   -0.3316    0.5175    0.0000 C   0  0  0  0  0  0  0  0  0  0  0  0
    0.3829    0.1050    0.0000 C   0  0  0  0  0  0  0  0  0  0  0  0
   -1.7605    0.5175    0.0000 N   0  0  0  0  0  0  0  0  0  0  0  0
   -0.3316   -1.9575    0.0000 C   0  0  0  0  0  0  0  0  0  0  0  0
    1.0973    0.5175    0.0000 N   0  0  0  0  0  0  0  0  0  0  0  0
    1.8118    0.1050    0.0000 C   0  0  0  0  0  0  0  0  0  0  0  0
    1.8118   -0.7200    0.0000 N   0  0  0  0  0  0  0  0  0  0  0  0
    1.0973   -1.1325    0.0000 C   0  0  0  0  0  0  0  0  0  0  0  0
    2.5263    0.5175    0.0000 O   0  0  0  0  0  0  0  0  0  0  0  0
    1.0973    1.3425    0.0000 C   0  0  0  0  0  0  0  0  0  0  0  0
    0.3829   -2.3700    0.0000 C   0  0  0  0  0  0  0  0  0  0  0  0
    0.3829   -3.1950    0.0000 C   0  0  0  0  0  0  0  0  0  0  0  0
   -0.3316   -3.6075    0.0000 C   0  0  0  0  0  0  0  0  0  0  0  0
   -1.0461   -3.1950    0.0000 C   0  0  0  0  0  0  0  0  0  0  0  0
   -1.0461   -2.3700    0.0000 C   0  0  0  0  0  0  0  0  0  0  0  0
    0.3829    1.7550    0.0000 C   0  0  0  0  0  0  0  0  0  0  0  0
    0.3829    2.5800    0.0000 C   0  0  0  0  0  0  0  0  0  0  0  0
    1.0973    2.9925    0.0000 C   0  0  0  0  0  0  0  0  0  0  0  0
    1.8118    2.5800    0.0000 C   0  0  0  0  0  0  0  0  0  0  0  0
    1.8118    1.7550    0.0000 C   0  0  0  0  0  0  0  0  0  0  0  0
   -1.7605   -1.9575    0.0000 F   0  0  0  0  0  0  0  0  0  0  0  0
   -0.3316   -4.4325    0.0000 F   0  0  0  0  0  0  0  0  0  0  0  0
    2.5263    1.3425    0.0000 Cl  0  0  0  0  0  0  0  0  0  0  0  0
   -0.3316    1.3425    0.0000 Cl  0  0  0  0  0  0  0  0  0  0  0  0
   -2.4750    0.1050    0.0000 C   0  0  0  0  0  0  0  0  0  0  0  0
   -3.1895    0.5175    0.0000 C   0  0  0  0  0  0  0  0  0  0  0  0
   -3.1895    1.3425    0.0000 N   0  0  0  0  0  0  0  0  0  0  0  0
   -2.4750    1.7550    0.0000 C   0  0  0  0  0  0  0  0  0  0  0  0
   -1.7605    1.3425    0.0000 C   0  0  0  0  0  0  0  0  0  0  0  0
  1  2  1  0
  1  6  2  0
  1 12  1  0
  2  3  2  0
  2  8  1  0
  3  4  1  0
  4  5  2  0
  4  7  1  0
  5  6  1  0
  6  9  1  0
  7 29  1  0
  7 33  1  0
  8 15  2  0
  8 19  1  0
  9 10  1  0
  9 14  1  0
 10 11  1  0
 10 13  2  0
 11 12  1  0
 14 20  2  0
 14 24  1  0
 15 16  1  0
 16 17  2  0
 17 18  1  0
 17 26  1  0
 18 19  2  0
 19 25  1  0
 20 21  1  0
 20 28  1  0
 21 22  2  0
 22 23  1  0
 23 24  2  0
 24 27  1  0
 29 30  1  0
 30 31  1  0
 31 32  1  0
 32 33  1  0
M  END
>  <DRUGBANK_ID>  (1) 
DB02873

>  <SECONDARY_ACCESSION_NUMBERS>  (1) 
EXPT01266

>  <COMMON_NAME>  (1) 
1-(2,6-Dichlorophenyl)-5-(2,4-Difluorophenyl)-7-Piperazin-1-Yl-3,4-Dihydroquinazolin-2(1h)-One

$$$$
