
     RDKit          2D

 27 29  0  0  1  0  0  0  0  0999 V2000
   -3.4935   -2.0596    0.0000 C   0  0  0  0  0  0  0  0  0  0  0  0
   -3.4935   -1.2346    0.0000 C   0  0  0  0  0  0  0  0  0  0  0  0
   -2.7791   -0.8221    0.0000 N   0  0  0  0  0  0  0  0  0  0  0  0
   -2.0646   -1.2346    0.0000 C   0  0  0  0  0  0  0  0  0  0  0  0
   -2.0646   -2.0596    0.0000 O   0  0  0  0  0  0  0  0  0  0  0  0
   -1.3501   -0.8221    0.0000 C   0  0  0  0  0  0  0  0  0  0  0  0
   -0.6357   -1.2346    0.0000 N   0  0  0  0  0  0  0  0  0  0  0  0
   -0.5494   -2.0551    0.0000 C   0  0  0  0  0  0  0  0  0  0  0  0
    0.2575   -2.2266    0.0000 N   0  0  0  0  0  0  0  0  0  0  0  0
    0.6700   -1.5121    0.0000 C   0  0  0  0  0  0  0  0  0  0  0  0
    0.1180   -0.8990    0.0000 C   0  0  0  0  0  0  0  0  0  0  0  0
    0.3730   -0.1144    0.0000 C   0  0  0  0  0  0  0  0  0  0  0  0
   -0.1791    0.4987    0.0000 F   0  0  0  0  0  0  0  0  0  0  0  0
    1.1799    0.0571    0.0000 C   0  0  0  0  0  0  0  0  0  0  0  0
    1.4349    0.8418    0.0000 F   0  0  0  0  0  0  0  0  0  0  0  0
    1.7320   -0.5560    0.0000 C   0  0  0  0  0  0  0  0  0  0  0  0
    1.4770   -1.3406    0.0000 C   0  0  0  0  0  0  0  0  0  0  0  0
   -4.2080   -0.8221    0.0000 C   0  0  0  0  0  0  0  0  0  0  0  0
   -4.9225   -1.2346    0.0000 C   0  0  0  0  0  0  0  0  0  0  0  0
   -5.6370   -0.8221    0.0000 C   0  0  0  0  0  0  0  0  0  0  0  0
   -5.6370    0.0029    0.0000 C   0  0  0  0  0  0  0  0  0  0  0  0
   -4.9225    0.4154    0.0000 C   0  0  0  0  0  0  0  0  0  0  0  0
   -4.2080    0.0029    0.0000 C   0  0  0  0  0  0  0  0  0  0  0  0
   -6.3514    0.4154    0.0000 C   0  0  0  0  0  0  0  0  0  0  0  0
   -7.0659    0.8279    0.0000 C   0  0  0  0  0  0  0  0  0  0  0  0
   -5.9389    1.1299    0.0000 C   0  0  0  0  0  0  0  0  0  0  0  0
   -6.7639   -0.2990    0.0000 C   0  0  0  0  0  0  0  0  0  0  0  0
  2  1  1  1
  2  3  1  0
  2 18  1  0
  3  4  1  0
  4  5  2  0
  4  6  1  0
  6  7  1  0
  7  8  1  0
  7 11  1  0
  8  9  2  0
  9 10  1  0
 10 11  2  0
 10 17  1  0
 11 12  1  0
 12 13  1  0
 12 14  2  0
 14 15  1  0
 14 16  1  0
 16 17  2  0
 18 19  2  0
 18 23  1  0
 19 20  1  0
 20 21  2  0
 21 22  1  0
 21 24  1  0
 22 23  2  0
 24 25  1  0
 24 26  1  0
 24 27  1  0
M  END
>  <DRUGBANK_ID>  (1) 
DB15333

>  <COMMON_NAME>  (1) 
AZD-1386

>  <CAS_NUMBER>  (1) 
942937-80-6

>  <UNII>  (1) 
210323T9CP

$$$$
