
     RDKit          2D

 40 41  0  0  0  0  0  0  0  0999 V2000
    1.0719    1.6456    0.0000 C   0  0  0  0  0  0  0  0  0  0  0  0
    1.7863    2.0581    0.0000 C   0  0  0  0  0  0  0  0  0  0  0  0
    0.3574    2.0581    0.0000 O   0  0  0  0  0  0  0  0  0  0  0  0
    1.0719    0.8206    0.0000 C   0  0  0  0  0  0  0  0  0  0  0  0
    2.5008    1.6456    0.0000 C   0  0  0  0  0  0  0  0  0  0  0  0
   -0.3570    1.6456    0.0000 C   0  0  0  0  0  0  0  0  0  0  0  0
    1.7863    0.4081    0.0000 C   0  0  0  0  0  0  0  0  0  0  0  0
    2.5008    0.8206    0.0000 C   0  0  0  0  0  0  0  0  0  0  0  0
    3.2153    2.0581    0.0000 N   0  0  0  0  0  0  0  0  0  0  0  0
   -0.3570    0.8206    0.0000 N   0  0  0  0  0  0  0  0  0  0  0  0
   -1.0715    2.0581    0.0000 O   0  0  0  0  0  0  0  0  0  0  0  0
   -1.0715    0.4081    0.0000 C   0  0  0  0  0  0  0  0  0  0  0  0
    0.3574    0.4081    0.0000 C   0  0  0  0  0  0  0  0  0  0  0  0
   -1.7860    0.8206    0.0000 C   0  0  0  0  0  0  0  0  0  0  0  0
   -2.5004    0.4081    0.0000 C   0  0  0  0  0  0  0  0  0  0  0  0
   -3.2149    0.8206    0.0000 C   0  0  0  0  0  0  0  0  0  0  0  0
   -3.9294    0.4081    0.0000 C   0  0  0  0  0  0  0  0  0  0  0  0
   -3.9294   -0.4168    0.0000 C   0  0  0  0  0  0  0  0  0  0  0  0
   -3.2149   -0.8293    0.0000 C   0  0  0  0  0  0  0  0  0  0  0  0
   -2.5004   -0.4168    0.0000 C   0  0  0  0  0  0  0  0  0  0  0  0
   -1.7860   -0.8293    0.0000 C   0  0  0  0  0  0  0  0  0  0  0  0
   -1.0715   -0.4168    0.0000 C   0  0  0  0  0  0  0  0  0  0  0  0
   -0.3570   -0.8293    0.0000 N   0  0  0  0  0  0  0  0  0  0  0  0
   -0.3570   -1.6543    0.0000 C   0  0  0  0  0  0  0  0  0  0  0  0
    0.3574   -0.4168    0.0000 C   0  0  0  0  0  0  0  0  0  0  0  0
    0.3574   -2.0668    0.0000 O   0  0  0  0  0  0  0  0  0  0  0  0
    1.0719   -1.6543    0.0000 C   0  0  0  0  0  0  0  0  0  0  0  0
    1.7863   -2.0668    0.0000 C   0  0  0  0  0  0  0  0  0  0  0  0
    1.0719   -0.8293    0.0000 C   0  0  0  0  0  0  0  0  0  0  0  0
    2.5008   -1.6543    0.0000 C   0  0  0  0  0  0  0  0  0  0  0  0
    1.7863   -0.4168    0.0000 C   0  0  0  0  0  0  0  0  0  0  0  0
    2.5008   -0.8293    0.0000 C   0  0  0  0  0  0  0  0  0  0  0  0
    3.2153   -2.0668    0.0000 N   0  0  0  0  0  0  0  0  0  0  0  0
   -1.0715   -2.0668    0.0000 O   0  0  0  0  0  0  0  0  0  0  0  0
    3.2137    2.8875    0.0000 C   0  0  0  0  0  0  0  0  0  0  0  0
    3.9294    1.6549    0.0000 C   0  0  0  0  0  0  0  0  0  0  0  0
    3.9294    2.4700    0.0000 C   0  0  0  0  0  0  0  0  0  0  0  0
    3.9294   -1.6549    0.0000 C   0  0  0  0  0  0  0  0  0  0  0  0
    3.2137   -2.8875    0.0000 C   0  0  0  0  0  0  0  0  0  0  0  0
    3.9294   -2.4700    0.0000 C   0  0  0  0  0  0  0  0  0  0  0  0
  1  2  2  0
  1  3  1  0
  1  4  1  0
  2  5  1  0
  3  6  1  0
  4  7  2  0
  5  8  2  0
  5  9  1  0
  6 10  1  0
  6 11  2  0
  7  8  1  0
  9 35  1  0
  9 36  1  0
  9 37  1  0
 10 12  1  0
 10 13  1  0
 12 14  1  0
 14 15  1  0
 15 16  1  0
 16 17  1  0
 17 18  1  0
 18 19  1  0
 19 20  1  0
 20 21  1  0
 21 22  1  0
 22 23  1  0
 23 24  1  0
 23 25  1  0
 24 26  1  0
 24 34  2  0
 26 27  1  0
 27 28  2  0
 27 29  1  0
 28 30  1  0
 29 31  2  0
 30 32  2  0
 30 33  1  0
 31 32  1  0
 33 38  1  0
 33 39  1  0
 33 40  1  0
M  CHG  2   9   1  33   1
M  END
>  <DRUGBANK_ID>  (1) 
DB00944

>  <SECONDARY_ACCESSION_NUMBERS>  (1) 
APRD00905

>  <COMMON_NAME>  (1) 
Demecarium

>  <CAS_NUMBER>  (1) 
16505-84-3

>  <UNII>  (1) 
ILP8XJ8R5K

>  <SYNONYMS>  (1) 
Demecarium; Demecarium cation; Demecarium ion

$$$$
