
     RDKit          2D

 22 23  0  0  0  0  0  0  0  0999 V2000
   -0.9162    3.5328    0.0000 C   0  0  0  0  0  0  0  0  0  0  0  0
   -0.1410    3.8150    0.0000 C   0  0  0  0  0  0  0  0  0  0  0  0
    0.0023    4.6274    0.0000 N   0  0  0  0  0  0  0  0  0  0  0  0
    0.7775    4.9096    0.0000 C   0  0  0  0  0  0  0  0  0  0  0  0
    1.4095    4.3793    0.0000 C   0  0  0  0  0  0  0  0  0  0  0  0
    2.1848    4.6615    0.0000 C   0  0  0  0  0  0  0  0  0  0  0  0
    2.3280    5.4739    0.0000 O   0  0  0  0  0  0  0  0  0  0  0  0
    3.1033    5.7561    0.0000 P   0  0  0  0  0  0  0  0  0  0  0  0
    3.8785    6.0383    0.0000 O   0  0  0  0  0  0  0  0  0  0  0  0
    2.8211    6.5314    0.0000 O   0  0  0  0  0  0  0  0  0  0  0  0
    3.3854    4.9809    0.0000 O   0  0  0  0  0  0  0  0  0  0  0  0
    1.2663    3.5668    0.0000 C   0  0  0  0  0  0  0  0  0  0  0  0
    1.8982    3.0365    0.0000 C   0  0  0  0  0  0  0  0  0  0  0  0
    2.6735    3.3187    0.0000 N   0  0  0  0  0  0  0  0  0  0  0  0
    3.3055    2.7884    0.0000 C   0  0  0  0  0  0  0  0  0  0  0  0
    3.7180    2.0739    0.0000 C   0  0  0  0  0  0  0  0  0  0  0  0
    2.8930    2.0739    0.0000 C   0  0  0  0  0  0  0  0  0  0  0  0
    3.9375    3.3187    0.0000 C   0  0  0  0  0  0  0  0  0  0  0  0
    4.7127    3.0365    0.0000 O   0  0  0  0  0  0  0  0  0  0  0  0
    3.7942    4.1312    0.0000 O   0  0  0  0  0  0  0  0  0  0  0  0
    0.4910    3.2847    0.0000 C   0  0  0  0  0  0  0  0  0  0  0  0
    0.3477    2.4722    0.0000 O   0  0  0  0  0  0  0  0  0  0  0  0
  1  2  1  0
  2  3  2  0
  2 21  1  0
  3  4  1  0
  4  5  2  0
  5  6  1  0
  5 12  1  0
  6  7  1  0
  7  8  1  0
  8  9  1  0
  8 10  1  0
  8 11  2  0
 12 13  1  0
 12 21  2  0
 13 14  1  0
 14 15  1  0
 15 16  1  0
 15 17  1  0
 15 18  1  0
 16 17  1  0
 18 19  1  0
 18 20  2  0
 21 22  1  0
M  END
>  <DRUGBANK_ID>  (1) 
DB02849

>  <SECONDARY_ACCESSION_NUMBERS>  (1) 
EXPT00257

>  <COMMON_NAME>  (1) 
N-Pyridoxyl-1-Amino-Cyclopropanecarboxylic Acid-5-Monophosphate

$$$$
