
     RDKit          2D

 33 36  0  0  0  0  0  0  0  0999 V2000
    2.3522    0.3352    0.0000 C   0  0  0  0  0  0  0  0  0  0  0  0
    2.0701    1.1104    0.0000 C   0  0  0  0  0  0  0  0  0  0  0  0
    2.8825    1.2537    0.0000 C   0  0  0  0  0  0  0  0  0  0  0  0
    1.3556    0.6979    0.0000 C   0  0  0  0  0  0  0  0  0  0  0  0
    0.6411    1.1104    0.0000 C   0  0  0  0  0  0  0  0  0  0  0  0
    0.6411    1.9354    0.0000 C   0  0  0  0  0  0  0  0  0  0  0  0
   -0.1435    2.1904    0.0000 C   0  0  0  0  0  0  0  0  0  0  0  0
   -0.6284    1.5229    0.0000 N   0  0  0  0  0  0  0  0  0  0  0  0
   -0.1435    0.8555    0.0000 N   0  0  0  0  0  0  0  0  0  0  0  0
   -0.3984    0.0709    0.0000 C   0  0  0  0  0  0  0  0  0  0  0  0
    0.1536   -0.5422    0.0000 C   0  0  0  0  0  0  0  0  0  0  0  0
   -0.1014   -1.3268    0.0000 C   0  0  0  0  0  0  0  0  0  0  0  0
   -0.9083   -1.4984    0.0000 C   0  0  0  0  0  0  0  0  0  0  0  0
   -1.1633   -2.2830    0.0000 C   0  0  0  0  0  0  0  0  0  0  0  0
   -1.9702   -2.4545    0.0000 N   0  0  0  0  0  0  0  0  0  0  0  0
   -0.6112   -2.8961    0.0000 O   0  0  0  0  0  0  0  0  0  0  0  0
   -1.4604   -0.8853    0.0000 C   0  0  0  0  0  0  0  0  0  0  0  0
   -2.2673   -1.0568    0.0000 N   0  0  0  0  0  0  0  0  0  0  0  0
   -2.8194   -0.4437    0.0000 C   0  0  0  0  0  0  0  0  0  0  0  0
   -3.6263   -0.6152    0.0000 C   0  0  0  0  0  0  0  0  0  0  0  0
   -4.1784   -0.0021    0.0000 C   0  0  0  0  0  0  0  0  0  0  0  0
   -3.9234    0.7825    0.0000 C   0  0  0  0  0  0  0  0  0  0  0  0
   -4.4755    1.3956    0.0000 O   0  0  0  0  0  0  0  0  0  0  0  0
   -3.1165    0.9540    0.0000 C   0  0  0  0  0  0  0  0  0  0  0  0
   -2.5644    0.3409    0.0000 C   0  0  0  0  0  0  0  0  0  0  0  0
   -1.2054   -0.1006    0.0000 C   0  0  0  0  0  0  0  0  0  0  0  0
   -0.3984    2.9750    0.0000 C   0  0  0  0  0  0  0  0  0  0  0  0
   -0.6534    3.7596    0.0000 F   0  0  0  0  0  0  0  0  0  0  0  0
   -1.1831    2.7201    0.0000 F   0  0  0  0  0  0  0  0  0  0  0  0
    0.3862    3.2299    0.0000 F   0  0  0  0  0  0  0  0  0  0  0  0
    1.3556    2.3479    0.0000 C   0  0  0  0  0  0  0  0  0  0  0  0
    1.3556    3.1729    0.0000 O   0  0  0  0  0  0  0  0  0  0  0  0
    2.0701    1.9354    0.0000 C   0  0  0  0  0  0  0  0  0  0  0  0
  1  2  1  0
  2  3  1  0
  2  4  1  0
  2 33  1  0
  4  5  1  0
  5  6  2  0
  5  9  1  0
  6  7  1  0
  6 31  1  0
  7  8  2  0
  7 27  1  0
  8  9  1  0
  9 10  1  0
 10 11  2  0
 10 26  1  0
 11 12  1  0
 12 13  2  0
 13 14  1  0
 13 17  1  0
 14 15  1  0
 14 16  2  0
 17 18  1  0
 17 26  2  0
 19 18  1  1
 19 20  1  0
 19 25  1  0
 20 21  1  0
 22 21  1  0
 22 23  1  6
 22 24  1  0
 24 25  1  0
 27 28  1  0
 27 29  1  0
 27 30  1  0
 31 32  2  0
 31 33  1  0
M  END
>  <DRUGBANK_ID>  (1) 
DB17055

>  <COMMON_NAME>  (1) 
SNX-2112

>  <CAS_NUMBER>  (1) 
908112-43-6

>  <UNII>  (1) 
10C9P3FFOW

>  <SYNONYMS>  (1) 
Benzamide, 2-((trans-4-hydroxycyclohexyl)amino)-4-(4,5,6,7-tetrahydro-6,6-dimethyl-4-oxo-3-(trifluoromethyl)-1h-indazol-1-yl)-

$$$$
