
     RDKit          2D

 38 42  0  0  1  0  0  0  0  0999 V2000
    0.1536    1.3672    0.0000 C   0  0  0  0  0  0  0  0  0  0  0  0
   -0.3984    0.7541    0.0000 C   0  0  0  0  0  0  0  0  0  0  0  0
   -1.2054    0.9256    0.0000 O   0  0  0  0  0  0  0  0  0  0  0  0
   -0.1435   -0.0305    0.0000 C   0  0  0  0  0  0  0  0  0  0  0  0
   -0.6284   -0.6979    0.0000 N   0  0  0  0  0  0  0  0  0  0  0  0
   -0.1435   -1.3654    0.0000 N   0  0  0  0  0  0  0  0  0  0  0  0
   -0.3984   -2.1500    0.0000 C   0  0  0  0  0  0  0  0  0  0  0  0
   -1.2054   -2.3215    0.0000 C   0  0  0  0  0  0  0  0  0  0  0  0
   -1.7575   -1.7084    0.0000 O   0  0  0  0  0  0  0  0  0  0  0  0
   -1.4604   -3.1062    0.0000 N   0  0  0  0  0  0  0  0  0  0  0  0
   -0.9754   -3.7736    0.0000 C   0  0  0  0  0  0  0  0  0  0  0  0
   -1.4604   -4.4410    0.0000 C   0  0  0  0  0  0  0  0  0  0  0  0
   -1.2054   -5.2257    0.0000 F   0  0  0  0  0  0  0  0  0  0  0  0
   -2.2450   -4.1861    0.0000 C   0  0  0  0  0  0  0  0  0  0  0  0
   -2.2450   -3.3611    0.0000 C   0  0  0  0  0  0  0  0  0  0  0  0
   -2.9124   -2.8762    0.0000 C   0  0  0  0  0  0  0  0  0  0  0  0
   -2.8262   -2.0557    0.0000 O   0  0  0  0  0  0  0  0  0  0  0  0
   -3.6661   -3.2117    0.0000 N   0  0  0  0  0  0  0  0  0  0  0  0
   -4.3335   -2.7268    0.0000 C   0  0  0  0  0  0  0  0  0  0  0  0
   -5.0872   -3.0624    0.0000 C   0  0  0  0  0  0  0  0  0  0  0  0
   -5.7546   -2.5774    0.0000 C   0  0  0  0  0  0  0  0  0  0  0  0
   -5.6684   -1.7570    0.0000 C   0  0  0  0  0  0  0  0  0  0  0  0
   -4.9147   -1.4214    0.0000 C   0  0  0  0  0  0  0  0  0  0  0  0
   -4.8285   -0.6009    0.0000 Br  0  0  0  0  0  0  0  0  0  0  0  0
   -4.2473   -1.9063    0.0000 N   0  0  0  0  0  0  0  0  0  0  0  0
    0.6411   -1.1104    0.0000 C   0  0  0  0  0  0  0  0  0  0  0  0
    0.6411   -0.2854    0.0000 C   0  0  0  0  0  0  0  0  0  0  0  0
    1.3556    0.1271    0.0000 C   0  0  0  0  0  0  0  0  0  0  0  0
    2.0701   -0.2854    0.0000 C   0  0  0  0  0  0  0  0  0  0  0  0
    2.0701   -1.1104    0.0000 C   0  0  0  0  0  0  0  0  0  0  0  0
    1.3556   -1.5229    0.0000 C   0  0  0  0  0  0  0  0  0  0  0  0
    2.7845    0.1271    0.0000 C   0  0  0  0  0  0  0  0  0  0  0  0
    2.7845    0.9521    0.0000 C   0  0  0  0  0  0  0  0  0  0  0  0
    3.4990    1.3646    0.0000 N   0  0  0  0  0  0  0  0  0  0  0  0
    4.2135    0.9521    0.0000 C   0  0  0  0  0  0  0  0  0  0  0  0
    4.9279    1.3646    0.0000 C   0  0  0  0  0  0  0  0  0  0  0  0
    4.2135    0.1271    0.0000 N   0  0  0  0  0  0  0  0  0  0  0  0
    3.4990   -0.2854    0.0000 C   0  0  0  0  0  0  0  0  0  0  0  0
  1  2  1  0
  2  3  2  0
  2  4  1  0
  4  5  2  0
  4 27  1  0
  5  6  1  0
  6  7  1  0
  6 26  1  0
  7  8  1  0
  8  9  2  0
  8 10  1  0
 10 11  1  0
 12 11  1  0
 12 13  1  6
 12 14  1  0
 15 14  1  0
 15 10  1  0
 15 16  1  1
 16 17  2  0
 16 18  1  0
 18 19  1  0
 19 20  2  0
 19 25  1  0
 20 21  1  0
 21 22  2  0
 22 23  1  0
 23 24  1  0
 23 25  2  0
 26 27  2  0
 26 31  1  0
 27 28  1  0
 28 29  2  0
 29 30  1  0
 29 32  1  0
 30 31  2  0
 32 33  2  0
 32 38  1  0
 33 34  1  0
 34 35  2  0
 35 36  1  0
 35 37  1  0
 37 38  2  0
M  END
>  <DRUGBANK_ID>  (1) 
DB15401

>  <COMMON_NAME>  (1) 
Danicopan

>  <CAS_NUMBER>  (1) 
1903768-17-1

>  <UNII>  (1) 
JM8C1SFX0U

>  <SYNONYMS>  (1) 
(2S,4R)-1-(2-(3-acetyl-5-(2-methylpyrimidin-5-yl)-1H-indazol-1-yl)acetyl)-N-(6-bromopyridin-2-yl)-4-fluoropyrrolidine-2-carboxamide; (2S,4R)-1-(2-(3-acetyl-5-(2-methylpyrimidine-5-yl)-1H-indazol-1-yl)acetyl)-N-(6-bromopyridine-2-yl)-4-fluoropyrrolidine-2-carboxamide; ACH-0144471; ACH-4471; ACH-CFDIS; ALXN 2040; Danicopan

$$$$
