MXP
     RDKit          2D

 30 30  0  0  0  0  0  0  0  0999 V2000
    0.1413    1.0278    0.0000 O   0  0  0  0  0  0  0  0  0  0  0  0
   -1.2876    1.0278    0.0000 C   0  0  0  0  0  0  0  0  0  0  0  0
   -2.7166    5.1528    0.0000 N   0  0  0  0  0  0  0  0  0  0  0  0
   -1.2876    0.2028    0.0000 C   0  0  0  0  0  0  0  0  0  0  0  0
   -0.5732   -0.2097    0.0000 C   0  0  0  0  0  0  0  0  0  0  0  0
   -2.0021   -0.2097    0.0000 O   0  0  0  0  0  0  0  0  0  0  0  0
    0.1413    0.2028    0.0000 C   0  0  0  0  0  0  0  0  0  0  0  0
   -0.5732    1.4403    0.0000 C   0  0  0  0  0  0  0  0  0  0  0  0
   -0.5732   -1.0347    0.0000 C   0  0  0  0  0  0  0  0  0  0  0  0
    0.1413   -1.4472    0.0000 C   0  0  0  0  0  0  0  0  0  0  0  0
    0.8558   -0.2097    0.0000 O   0  0  0  0  0  0  0  0  0  0  0  0
    0.1413   -2.2722    0.0000 C   0  0  0  0  0  0  0  0  0  0  0  0
    0.8558   -2.6847    0.0000 C   0  0  0  0  0  0  0  0  0  0  0  0
    0.8558   -3.5097    0.0000 C   0  0  0  0  0  0  0  0  0  0  0  0
    1.5703   -3.9222    0.0000 C   0  0  0  0  0  0  0  0  0  0  0  0
    1.5703   -4.7472    0.0000 C   0  0  0  0  0  0  0  0  0  0  0  0
    2.2847   -5.1597    0.0000 C   0  0  0  0  0  0  0  0  0  0  0  0
    2.2847   -5.9847    0.0000 C   0  0  0  0  0  0  0  0  0  0  0  0
    0.8558   -1.0347    0.0000 C   0  0  0  0  0  0  0  0  0  0  0  0
    0.1413   -3.9222    0.0000 C   0  0  0  0  0  0  0  0  0  0  0  0
   -0.5732    2.2653    0.0000 C   0  0  0  0  0  0  0  0  0  0  0  0
   -1.2876    2.6778    0.0000 C   0  0  0  0  0  0  0  0  0  0  0  0
   -1.2876    3.5028    0.0000 C   0  0  0  0  0  0  0  0  0  0  0  0
   -2.0021    3.9153    0.0000 C   0  0  0  0  0  0  0  0  0  0  0  0
   -2.0021    4.7403    0.0000 C   0  0  0  0  0  0  0  0  0  0  0  0
   -3.4310    4.7403    0.0000 C   0  0  0  0  0  0  0  0  0  0  0  0
   -4.1455    5.9778    0.0000 C   0  0  0  0  0  0  0  0  0  0  0  0
   -1.2876   -1.4472    0.0000 O   0  0  0  0  0  0  0  0  0  0  0  0
   -4.1455    5.1528    0.0000 O   0  0  0  0  0  0  0  0  0  0  0  0
   -3.4310    3.9153    0.0000 O   0  0  0  0  0  0  0  0  0  0  0  0
  1  7  1  0
  1  8  1  0
  2  4  1  0
  2  8  2  0
  3 25  1  0
  3 26  1  0
  4  5  2  0
  4  6  1  0
  5  7  1  0
  5  9  1  0
  7 11  2  0
  8 21  1  0
  9 10  1  0
  9 28  2  0
 10 12  2  0
 10 19  1  0
 12 13  1  0
 13 14  2  0
 14 15  1  0
 14 20  1  0
 15 16  1  0
 16 17  1  0
 17 18  1  0
 21 22  1  0
 22 23  1  0
 23 24  1  0
 24 25  2  0
 26 29  1  0
 26 30  2  0
 27 29  1  0
M  END
>  <DRUGBANK_ID>  (1) 
DB08226

>  <COMMON_NAME>  (1) 
Myxopyronin B

$$$$
