
     RDKit          2D

 18 19  0  0  1  0  0  0  0  0999 V2000
    3.6130    0.6363    0.0000 C   0  0  0  0  0  0  0  0  0  0  0  0
    2.7880    0.6363    0.0000 C   0  0  0  0  0  0  0  0  0  0  0  0
    2.4300    1.3796    0.0000 C   0  0  0  0  0  0  0  0  0  0  0  0
    1.6257    1.5632    0.0000 C   0  0  0  0  0  0  0  0  0  0  0  0
    1.3940    0.6363    0.0000 C   0  0  0  0  0  0  0  0  0  0  0  0
    1.6257   -0.2905    0.0000 N   0  0  0  0  0  0  0  0  0  0  0  0
    2.4300   -0.1070    0.0000 C   0  0  0  0  0  0  0  0  0  0  0  0
    2.9444   -0.7520    0.0000 C   0  0  0  0  0  0  0  0  0  0  0  0
    3.7602   -0.6290    0.0000 N   0  0  0  0  0  0  0  0  0  0  0  0
    2.6430   -1.5199    0.0000 O   0  0  0  0  0  0  0  0  0  0  0  0
    0.9807    0.2238    0.0000 C   0  0  0  0  0  0  0  0  0  0  0  0
    0.2374   -0.1341    0.0000 O   0  0  0  0  0  0  0  0  0  0  0  0
    0.9807    1.0488    0.0000 N   0  0  0  0  0  0  0  0  0  0  0  0
    0.2374    1.4068    0.0000 O   0  0  0  0  0  0  0  0  0  0  0  0
   -0.4442    0.9421    0.0000 S   0  0  0  0  0  0  0  0  0  0  0  0
   -1.1259    0.4773    0.0000 O   0  0  0  0  0  0  0  0  0  0  0  0
   -0.9090    1.6237    0.0000 O   0  0  0  0  0  0  0  0  0  0  0  0
    0.0205    0.2604    0.0000 O   0  0  0  0  0  0  0  0  0  0  0  0
  1  2  1  0
  2  3  2  0
  4  3  1  6
  4  5  1  0
  4 13  1  0
  6  5  1  0
  6  7  1  0
  6 11  1  0
  7  2  1  0
  7  8  1  1
  8  9  1  0
  8 10  2  0
 11 12  2  0
 11 13  1  0
 13 14  1  0
 14 15  1  0
 15 16  1  0
 15 17  2  0
 15 18  2  0
M  END
>  <DRUGBANK_ID>  (1) 
DB16704

>  <COMMON_NAME>  (1) 
Durlobactam

>  <CAS_NUMBER>  (1) 
1467829-71-5

>  <UNII>  (1) 
PSA33KO9WA

>  <SYNONYMS>  (1) 
(2S,5R)-2-CARBAMOYL-3-METHYL-7-OXO-1,6-DIAZABICYCLO(3.2.1)OCT-3-EN-6-YL SULFATE; Durlobactam; SULFURIC ACID, MONO((2S,5R)-2-(AMINOCARBONYL)-3-METHYL-7-OXO-1,6-DIAZABICYCLO(3.2.1)OCT-3-EN-6-YL) ESTER

$$$$
