
     RDKit          2D

 12 13  0  0  0  0  0  0  0  0999 V2000
   -0.8642   -0.3076    0.0000 S   0  0  0  0  0  0  0  0  0  0  0  0
    1.3457   -0.5590    0.0000 O   0  0  0  0  0  0  0  0  0  0  0  0
    1.3457    1.0912    0.0000 N   0  0  0  0  0  0  0  0  0  0  0  0
    0.6310   -0.1465    0.0000 C   0  0  0  0  0  0  0  0  0  0  0  0
   -0.0834   -0.5590    0.0000 C   0  0  0  0  0  0  0  0  0  0  0  0
   -0.0834   -1.3842    0.0000 C   0  0  0  0  0  0  0  0  0  0  0  0
    0.6310   -1.7967    0.0000 C   0  0  0  0  0  0  0  0  0  0  0  0
    1.3457   -1.3842    0.0000 C   0  0  0  0  0  0  0  0  0  0  0  0
    0.6310    0.6787    0.0000 C   0  0  0  0  0  0  0  0  0  0  0  0
   -0.8642   -1.6356    0.0000 C   0  0  0  0  0  0  0  0  0  0  0  0
   -1.3457   -0.9716    0.0000 C   0  0  0  0  0  0  0  0  0  0  0  0
    1.3457    1.9164    0.0000 C   0  0  0  0  0  0  0  0  0  0  0  0
  1  5  1  0
  1 11  1  0
  2  4  1  0
  2  8  1  0
  3  9  1  0
  3 12  1  0
  4  5  1  0
  4  9  1  6
  5  6  2  0
  6  7  1  0
  6 10  1  0
  7  8  1  0
 10 11  2  0
M  END
>  <DRUGBANK_ID>  (1) 
DB15665

>  <COMMON_NAME>  (1) 
SEP-363856

>  <CAS_NUMBER>  (1) 
1310426-33-5

>  <UNII>  (1) 
3K6270MG59

$$$$
