
     RDKit          2D

 18 19  0  0  0  0  0  0  0  0999 V2000
    0.0160    0.7380    0.0000 N   0  0  0  0  0  0  0  0  0  0  0  0
    0.8410    0.7380    0.0000 C   0  0  0  0  0  0  0  0  0  0  0  0
   -0.3964    1.4524    0.0000 C   0  0  0  0  0  0  0  0  0  0  0  0
   -0.3964    0.0234    0.0000 C   0  0  0  0  0  0  0  0  0  0  0  0
    1.2535    0.0234    0.0000 C   0  0  0  0  0  0  0  0  0  0  0  0
    1.2535    1.4524    0.0000 N   0  0  0  0  0  0  0  0  0  0  0  0
   -1.2214    1.4524    0.0000 C   0  0  0  0  0  0  0  0  0  0  0  0
    0.0160   -0.6909    0.0000 C   0  0  0  0  0  0  0  0  0  0  0  0
    2.0785    0.0234    0.0000 C   0  0  0  0  0  0  0  0  0  0  0  0
    2.0785    1.4524    0.0000 C   0  0  0  0  0  0  0  0  0  0  0  0
   -1.7064    0.7849    0.0000 C   0  0  0  0  0  0  0  0  0  0  0  0
   -1.7064    2.1199    0.0000 C   0  0  0  0  0  0  0  0  0  0  0  0
   -0.3964   -1.4054    0.0000 N   0  0  0  0  0  0  0  0  0  0  0  0
    2.4910    0.7380    0.0000 C   0  0  0  0  0  0  0  0  0  0  0  0
   -2.4910    1.0399    0.0000 C   0  0  0  0  0  0  0  0  0  0  0  0
   -2.4910    1.8649    0.0000 S   0  0  0  0  0  0  0  0  0  0  0  0
   -1.2214   -1.4054    0.0000 C   0  0  0  0  0  0  0  0  0  0  0  0
    0.0160   -2.1199    0.0000 C   0  0  0  0  0  0  0  0  0  0  0  0
  1  2  1  0
  1  3  1  0
  1  4  1  0
  2  5  2  0
  2  6  1  0
  3  7  1  0
  4  8  1  0
  5  9  1  0
  6 10  2  0
  7 11  1  0
  7 12  2  0
  8 13  1  0
  9 14  2  0
 10 14  1  0
 11 15  2  0
 12 16  1  0
 13 17  1  0
 13 18  1  0
 15 16  1  0
M  END
>  <DRUGBANK_ID>  (1) 
DB16022

>  <COMMON_NAME>  (1) 
Thenyldiamine

>  <CAS_NUMBER>  (1) 
91-79-2

>  <UNII>  (1) 
E4U52363JE

>  <SYNONYMS>  (1) 
Tenildiamina; Thenyldiamine; Thenyldiaminum

$$$$
