
     RDKit          2D

 43 45  0  0  0  0  0  0  0  0999 V2000
   -2.0758    2.5371    0.0000 O   0  0  0  0  0  0  0  0  0  0  0  0
    0.9128    0.6021    0.0000 O   0  0  0  0  0  0  0  0  0  0  0  0
   -2.9778    1.9895    0.0000 O   0  0  0  0  0  0  0  0  0  0  0  0
    3.0387    1.0970    0.0000 O   0  0  0  0  0  0  0  0  0  0  0  0
   -4.4067   -1.3104    0.0000 O   0  0  0  0  0  0  0  0  0  0  0  0
    1.7333    0.5159    0.0000 O   0  0  0  0  0  0  0  0  0  0  0  0
   -5.1213   -0.0730    0.0000 O   0  0  0  0  0  0  0  0  0  0  0  0
   -0.2431    1.4419    0.0000 N   0  0  0  0  0  0  0  0  0  0  0  0
   -2.2633    0.7520    0.0000 N   0  0  0  0  0  0  0  0  0  0  0  0
    1.8827    1.9370    0.0000 N   0  0  0  0  0  0  0  0  0  0  0  0
   -3.6923   -0.0730    0.0000 N   0  0  0  0  0  0  0  0  0  0  0  0
   -1.5489    1.1644    0.0000 C   0  0  0  0  0  0  0  0  0  0  0  0
   -0.7952    0.8289    0.0000 C   0  0  0  0  0  0  0  0  0  0  0  0
   -0.6557    2.1564    0.0000 C   0  0  0  0  0  0  0  0  0  0  0  0
   -1.4626    1.9849    0.0000 C   0  0  0  0  0  0  0  0  0  0  0  0
    1.0621    2.0232    0.0000 C   0  0  0  0  0  0  0  0  0  0  0  0
    0.5773    1.3557    0.0000 C   0  0  0  0  0  0  0  0  0  0  0  0
    0.7266    2.7769    0.0000 C   0  0  0  0  0  0  0  0  0  0  0  0
    1.2115    3.4444    0.0000 C   0  0  0  0  0  0  0  0  0  0  0  0
   -3.6923    0.7520    0.0000 C   0  0  0  0  0  0  0  0  0  0  0  0
   -4.4067    1.1644    0.0000 C   0  0  0  0  0  0  0  0  0  0  0  0
   -2.9778    1.1644    0.0000 C   0  0  0  0  0  0  0  0  0  0  0  0
   -4.4067    1.9895    0.0000 C   0  0  0  0  0  0  0  0  0  0  0  0
    0.8760    4.1980    0.0000 C   0  0  0  0  0  0  0  0  0  0  0  0
    2.0320    3.3580    0.0000 C   0  0  0  0  0  0  0  0  0  0  0  0
   -5.1213    2.4019    0.0000 C   0  0  0  0  0  0  0  0  0  0  0  0
   -3.6923    2.4019    0.0000 C   0  0  0  0  0  0  0  0  0  0  0  0
    2.2182    1.1832    0.0000 C   0  0  0  0  0  0  0  0  0  0  0  0
   -4.4067   -0.4854    0.0000 C   0  0  0  0  0  0  0  0  0  0  0  0
    3.3743    0.3433    0.0000 C   0  0  0  0  0  0  0  0  0  0  0  0
   -5.1213   -1.7230    0.0000 C   0  0  0  0  0  0  0  0  0  0  0  0
    4.1948    0.2571    0.0000 C   0  0  0  0  0  0  0  0  0  0  0  0
   -5.1213   -2.5480    0.0000 C   0  0  0  0  0  0  0  0  0  0  0  0
    4.6798    0.9245    0.0000 C   0  0  0  0  0  0  0  0  0  0  0  0
    4.5304   -0.4965    0.0000 C   0  0  0  0  0  0  0  0  0  0  0  0
   -4.4067   -2.9605    0.0000 C   0  0  0  0  0  0  0  0  0  0  0  0
   -5.8358   -2.9605    0.0000 C   0  0  0  0  0  0  0  0  0  0  0  0
    5.5003    0.8383    0.0000 C   0  0  0  0  0  0  0  0  0  0  0  0
    5.3508   -0.5828    0.0000 C   0  0  0  0  0  0  0  0  0  0  0  0
    5.8358    0.0847    0.0000 C   0  0  0  0  0  0  0  0  0  0  0  0
   -4.4067   -3.7855    0.0000 C   0  0  0  0  0  0  0  0  0  0  0  0
   -5.8358   -3.7855    0.0000 C   0  0  0  0  0  0  0  0  0  0  0  0
   -5.1213   -4.1980    0.0000 C   0  0  0  0  0  0  0  0  0  0  0  0
  1 15  2  0
  2 17  2  0
  3 22  2  0
  4 28  1  0
  4 30  1  0
  5 29  1  0
  5 31  1  0
  6 28  2  0
  7 29  2  0
  8 13  1  0
  8 14  1  0
  8 17  1  0
  9 22  1  0
 10 28  1  0
 11 29  1  0
 12  9  1  1
 12 13  1  0
 12 15  1  0
 14 15  1  0
 16 10  1  0
 16 17  1  0
 16 18  1  6
 18 19  1  0
 19 24  1  0
 19 25  1  0
 20 11  1  0
 20 21  1  1
 20 22  1  0
 21 23  1  0
 23 26  1  0
 23 27  1  0
 30 32  1  0
 31 33  1  0
 32 34  2  0
 32 35  1  0
 33 36  2  0
 33 37  1  0
 34 38  1  0
 35 39  2  0
 36 41  1  0
 37 42  2  0
 38 40  2  0
 39 40  1  0
 41 43  2  0
 42 43  1  0
M  END
>  <DRUGBANK_ID>  (1) 
DB03405

>  <SECONDARY_ACCESSION_NUMBERS>  (1) 
EXPT02520

>  <COMMON_NAME>  (1) 
N2-[(Benzyloxy)carbonyl]-N-[(3R)-1-{N-[(benzyloxy)carbonyl]-L-leucyl}-4-oxo-3-pyrrolidinyl]-L-leucinamide

$$$$
