
     RDKit          2D

  6  4  0  0  0  0  0  0  0  0999 V2000
    0.8250    0.0000    0.0000 O   0  0  0  0  0  0  0  0  0  0  0  0
    1.6500   -0.0000    0.0000 Mn  0  0  0  0  0  7  0  0  0  0  0  0
    2.4750   -0.0000    0.0000 O   0  0  0  0  0  0  0  0  0  0  0  0
    1.6500    0.8250    0.0000 O   0  0  0  0  0  0  0  0  0  0  0  0
    1.6500   -0.8250    0.0000 O   0  0  0  0  0  0  0  0  0  0  0  0
    0.0000    0.0000    0.0000 K   0  0  0  0  0 15  0  0  0  0  0  0
  1  2  1  0
  2  3  2  0
  2  4  2  0
  2  5  2  0
M  CHG  2   1  -1   6   1
M  END
>  <DRUGBANK_ID>  (1) 
DB13831

>  <COMMON_NAME>  (1) 
Potassium permanganate

>  <CAS_NUMBER>  (1) 
7722-64-7

>  <UNII>  (1) 
00OT1QX5U4

>  <SYNONYMS>  (1) 
Potassium permanganate

$$$$
