
     RDKit          2D

 35 38  0  0  0  0  0  0  0  0999 V2000
    3.4894   -0.3182    0.0000 Cl  0  0  0  0  0  0  0  0  0  0  0  0
    2.5773   -0.6576    0.0000 C   0  0  0  0  0  0  0  0  0  0  0  0
    3.1289   -1.2728    0.0000 C   0  0  0  0  0  0  0  0  0  0  0  0
    2.8319    0.1272    0.0000 C   0  0  0  0  0  0  0  0  0  0  0  0
    1.7712   -0.8272    0.0000 C   0  0  0  0  0  0  0  0  0  0  0  0
    2.8743   -2.0576    0.0000 C   0  0  0  0  0  0  0  0  0  0  0  0
    3.9350   -1.1030    0.0000 C   0  0  0  0  0  0  0  0  0  0  0  0
    3.4258   -0.6363    0.0000 C   0  0  0  0  0  0  0  0  0  0  0  0
    3.6380    0.2969    0.0000 O   0  0  0  0  0  0  0  0  0  0  0  0
    2.2804    0.7424    0.0000 C   0  0  0  0  0  0  0  0  0  0  0  0
    1.2197   -0.2121    0.0000 C   0  0  0  0  0  0  0  0  0  0  0  0
    1.5166   -1.6122    0.0000 C   0  0  0  0  0  0  0  0  0  0  0  0
    3.4258   -2.6727    0.0000 C   0  0  0  0  0  0  0  0  0  0  0  0
    2.0682   -2.2273    0.0000 C   0  0  0  0  0  0  0  0  0  0  0  0
    4.4865   -1.7182    0.0000 C   0  0  0  0  0  0  0  0  0  0  0  0
    1.4743    0.5727    0.0000 C   0  0  0  0  0  0  0  0  0  0  0  0
    0.3924   -0.2121    0.0000 C   0  0  0  0  0  0  0  0  0  0  0  0
    4.2319   -2.5031    0.0000 C   0  0  0  0  0  0  0  0  0  0  0  0
    1.8137   -3.0122    0.0000 F   0  0  0  0  0  0  0  0  0  0  0  0
    0.8166    1.0606    0.0000 C   0  0  0  0  0  0  0  0  0  0  0  0
    1.6439    1.3788    0.0000 C   0  0  0  0  0  0  0  0  0  0  0  0
    0.1378    0.5727    0.0000 C   0  0  0  0  0  0  0  0  0  0  0  0
    4.7834   -3.1183    0.0000 O   0  0  0  0  0  0  0  0  0  0  0  0
    0.8166    1.8879    0.0000 C   0  0  0  0  0  0  0  0  0  0  0  0
   -0.6470    0.8272    0.0000 C   0  0  0  0  0  0  0  0  0  0  0  0
    1.5166    2.2910    0.0000 O   0  0  0  0  0  0  0  0  0  0  0  0
    0.1166    2.2910    0.0000 C   0  0  0  0  0  0  0  0  0  0  0  0
   -0.5833    1.8879    0.0000 O   0  0  0  0  0  0  0  0  0  0  0  0
   -1.2833    2.2910    0.0000 C   0  0  0  0  0  0  0  0  0  0  0  0
   -1.2833    3.1183    0.0000 O   0  0  0  0  0  0  0  0  0  0  0  0
   -1.9833    1.8879    0.0000 C   0  0  0  0  0  0  0  0  0  0  0  0
   -2.6834    2.2910    0.0000 C   0  0  0  0  0  0  0  0  0  0  0  0
   -3.3834    1.8879    0.0000 C   0  0  0  0  0  0  0  0  0  0  0  0
   -4.0834    2.2910    0.0000 C   0  0  0  0  0  0  0  0  0  0  0  0
   -4.7834    1.8879    0.0000 C   0  0  0  0  0  0  0  0  0  0  0  0
  2  1  1  1
  2  3  1  0
  2  4  1  0
  2  5  1  0
  3  6  1  0
  3  7  1  0
  3  8  1  6
  4  9  1  6
  4 10  1  0
  5 11  1  0
  5 12  1  1
  6 13  2  0
  6 14  1  0
  7 15  2  0
 10 16  1  0
 11 17  1  6
 11 16  1  0
 12 14  1  0
 13 18  1  0
 14 19  1  1
 15 18  1  0
 16 20  1  0
 16 21  1  6
 17 22  1  0
 18 23  2  0
 20 24  1  6
 20 22  1  0
 22 25  1  1
 24 26  2  0
 24 27  1  0
 27 28  1  0
 28 29  1  0
 29 30  2  0
 29 31  1  0
 31 32  1  0
 32 33  1  0
 33 34  1  0
 34 35  1  0
M  END
>  <DRUGBANK_ID>  (1) 
DB14653

>  <SECONDARY_ACCESSION_NUMBERS>  (1) 
DBSALT001838

>  <COMMON_NAME>  (1) 
Clocortolone caproate

>  <CAS_NUMBER>  (1) 
4891-71-8

>  <UNII>  (1) 
871M9PSU7T

>  <SYNONYMS>  (1) 
Clocortolone hexanoate

$$$$
