
     RDKit          2D

 25 28  0  0  0  0  0  0  0  0999 V2000
    1.6500   -3.3000    0.0000 Cl  0  0  0  0  0  0  0  0  0  0  0  0
    4.5079   -1.6500    0.0000 N   0  0  0  0  0  0  0  0  0  0  0  0
    3.7934    0.4125    0.0000 N   0  0  0  0  0  0  0  0  0  0  0  0
    3.7934   -0.4125    0.0000 N   0  0  0  0  0  0  0  0  0  0  0  0
    2.3644    2.8875    0.0000 N   0  0  0  0  0  0  0  0  0  0  0  0
    5.2223    0.4125    0.0000 C   0  0  0  0  0  0  0  0  0  0  0  0
    5.2223   -0.4125    0.0000 C   0  0  0  0  0  0  0  0  0  0  0  0
    4.5079    0.8250    0.0000 C   0  0  0  0  0  0  0  0  0  0  0  0
    4.5079    1.6500    0.0000 C   0  0  0  0  0  0  0  0  0  0  0  0
    4.5079   -0.8250    0.0000 C   0  0  0  0  0  0  0  0  0  0  0  0
    5.9599    0.8536    0.0000 C   0  0  0  0  0  0  0  0  0  0  0  0
    3.7934    2.0625    0.0000 C   0  0  0  0  0  0  0  0  0  0  0  0
    5.9599   -0.8536    0.0000 C   0  0  0  0  0  0  0  0  0  0  0  0
    6.7073    0.4297    0.0000 C   0  0  0  0  0  0  0  0  0  0  0  0
    6.7073   -0.4297    0.0000 C   0  0  0  0  0  0  0  0  0  0  0  0
    3.7934   -2.0625    0.0000 C   0  0  0  0  0  0  0  0  0  0  0  0
    3.0790    1.6500    0.0000 C   0  0  0  0  0  0  0  0  0  0  0  0
    3.7934    2.8875    0.0000 C   0  0  0  0  0  0  0  0  0  0  0  0
    3.7934   -2.8875    0.0000 C   0  0  0  0  0  0  0  0  0  0  0  0
    3.0790   -1.6500    0.0000 C   0  0  0  0  0  0  0  0  0  0  0  0
    2.3644    2.0625    0.0000 C   0  0  0  0  0  0  0  0  0  0  0  0
    3.0790    3.3000    0.0000 C   0  0  0  0  0  0  0  0  0  0  0  0
    3.0790   -3.3000    0.0000 C   0  0  0  0  0  0  0  0  0  0  0  0
    2.3644   -2.0625    0.0000 C   0  0  0  0  0  0  0  0  0  0  0  0
    2.3644   -2.8875    0.0000 C   0  0  0  0  0  0  0  0  0  0  0  0
  1 25  1  0
  2 10  1  0
  2 16  1  0
  3  4  2  0
  3  8  1  0
  4 10  1  0
  5 21  2  0
  5 22  1  0
  6  7  1  0
  6  8  2  0
  6 11  1  0
  7 10  2  0
  7 13  1  0
  8  9  1  0
  9 12  1  0
 11 14  2  0
 12 17  2  0
 12 18  1  0
 13 15  2  0
 14 15  1  0
 16 19  2  0
 16 20  1  0
 17 21  1  0
 18 22  2  0
 19 23  1  0
 20 24  2  0
 23 25  2  0
 24 25  1  0
M  END
>  <DRUGBANK_ID>  (1) 
DB04879

>  <COMMON_NAME>  (1) 
Vatalanib

>  <CAS_NUMBER>  (1) 
212141-54-3

>  <UNII>  (1) 
5DX9U76296

>  <SYNONYMS>  (1) 
Vatalanib; Vatalinib

$$$$
