DD1
     RDKit          2D

 28 31  0  0  0  0  0  0  0  0999 V2000
   -1.9245    1.5458    0.0000 F   0  0  0  0  0  0  0  0  0  0  0  0
   -1.9245    2.3708    0.0000 C   0  0  0  0  0  0  0  0  0  0  0  0
   -2.6389    2.7833    0.0000 C   0  0  0  0  0  0  0  0  0  0  0  0
   -2.6389    3.6083    0.0000 C   0  0  0  0  0  0  0  0  0  0  0  0
   -1.9245    4.0208    0.0000 C   0  0  0  0  0  0  0  0  0  0  0  0
   -1.2100    3.6083    0.0000 C   0  0  0  0  0  0  0  0  0  0  0  0
   -1.2100    2.7833    0.0000 C   0  0  0  0  0  0  0  0  0  0  0  0
   -0.4955    2.3708    0.0000 C   0  0  0  0  0  0  0  0  0  0  0  0
   -0.4955    1.5458    0.0000 N   0  0  0  0  0  0  0  0  0  0  0  0
    0.2190    1.1333    0.0000 C   0  0  0  0  0  0  0  0  0  0  0  0
    0.2190    0.3083    0.0000 C   0  0  0  0  0  0  0  0  0  0  0  0
   -0.4955   -0.1042    0.0000 C   0  0  0  0  0  0  0  0  0  0  0  0
   -1.2100    0.3083    0.0000 C   0  0  0  0  0  0  0  0  0  0  0  0
   -1.2100    1.1333    0.0000 C   0  0  0  0  0  0  0  0  0  0  0  0
   -0.4955   -0.9292    0.0000 C   0  0  0  0  0  0  0  0  0  0  0  0
    0.2190   -1.3417    0.0000 O   0  0  0  0  0  0  0  0  0  0  0  0
    0.2190   -2.1667    0.0000 C   0  0  0  0  0  0  0  0  0  0  0  0
    0.9334   -2.5792    0.0000 C   0  0  0  0  0  0  0  0  0  0  0  0
    1.6479   -2.1667    0.0000 C   0  0  0  0  0  0  0  0  0  0  0  0
    1.6479   -1.3417    0.0000 N   0  0  0  0  0  0  0  0  0  0  0  0
    2.3624   -2.5792    0.0000 N   0  0  0  0  0  0  0  0  0  0  0  0
    2.3624   -3.4042    0.0000 C   0  0  0  0  0  0  0  0  0  0  0  0
    3.0768   -3.8167    0.0000 N   0  0  0  0  0  0  0  0  0  0  0  0
    1.6479   -3.8167    0.0000 N   0  0  0  0  0  0  0  0  0  0  0  0
    0.9334   -3.4042    0.0000 C   0  0  0  0  0  0  0  0  0  0  0  0
    0.2190   -3.8167    0.0000 C   0  0  0  0  0  0  0  0  0  0  0  0
   -0.4955   -3.4042    0.0000 C   0  0  0  0  0  0  0  0  0  0  0  0
   -0.4955   -2.5792    0.0000 C   0  0  0  0  0  0  0  0  0  0  0  0
  1  2  1  0
  2  3  2  0
  2  7  1  0
  3  4  1  0
  4  5  2  0
  5  6  1  0
  6  7  2  0
  7  8  1  0
  8  9  1  0
  9 10  1  0
  9 14  1  0
 10 11  1  0
 11 12  1  0
 12 13  1  0
 12 15  1  0
 13 14  1  0
 15 16  1  0
 16 17  1  0
 17 18  1  0
 17 28  2  0
 18 19  2  0
 18 25  1  0
 19 20  1  0
 19 21  1  0
 21 22  2  0
 22 23  1  0
 22 24  1  0
 24 25  2  0
 25 26  1  0
 26 27  2  0
 27 28  1  0
M  END
>  <DRUGBANK_ID>  (1) 
DB07642

>  <COMMON_NAME>  (1) 
5-{[1-(2-fluorobenzyl)piperidin-4-yl]methoxy}quinazoline-2,4-diamine

$$$$
