FRZ
     RDKit          2D

 25 29  0  0  0  0  0  0  0  0999 V2000
    3.0201    0.9374    0.0000 C   0  0  0  0  0  0  0  0  0  0  0  0
    2.7652    0.1527    0.0000 C   0  0  0  0  0  0  0  0  0  0  0  0
    1.9582   -0.0188    0.0000 N   0  0  0  0  0  0  0  0  0  0  0  0
    1.4062    0.5943    0.0000 C   0  0  0  0  0  0  0  0  0  0  0  0
    1.6611    1.3789    0.0000 C   0  0  0  0  0  0  0  0  0  0  0  0
    2.4681    1.5504    0.0000 C   0  0  0  0  0  0  0  0  0  0  0  0
    1.5457   -0.7333    0.0000 N   0  0  0  0  0  0  0  0  0  0  0  0
    0.7387   -0.5617    0.0000 C   0  0  0  0  0  0  0  0  0  0  0  0
    0.6525    0.2587    0.0000 C   0  0  0  0  0  0  0  0  0  0  0  0
   -0.0620    0.6712    0.0000 C   0  0  0  0  0  0  0  0  0  0  0  0
    0.1256   -1.1138    0.0000 C   0  0  0  0  0  0  0  0  0  0  0  0
    0.2972   -1.9207    0.0000 C   0  0  0  0  0  0  0  0  0  0  0  0
   -0.3159   -2.4728    0.0000 C   0  0  0  0  0  0  0  0  0  0  0  0
   -1.1005   -2.2178    0.0000 C   0  0  0  0  0  0  0  0  0  0  0  0
   -1.2721   -1.4109    0.0000 C   0  0  0  0  0  0  0  0  0  0  0  0
   -0.6590   -0.8588    0.0000 C   0  0  0  0  0  0  0  0  0  0  0  0
   -0.7764    0.2587    0.0000 C   0  0  0  0  0  0  0  0  0  0  0  0
   -1.4909    0.6712    0.0000 C   0  0  0  0  0  0  0  0  0  0  0  0
   -1.4909    1.4962    0.0000 C   0  0  0  0  0  0  0  0  0  0  0  0
   -0.7764    1.9087    0.0000 N   0  0  0  0  0  0  0  0  0  0  0  0
   -0.0620    1.4962    0.0000 N   0  0  0  0  0  0  0  0  0  0  0  0
   -2.2755    0.4163    0.0000 C   0  0  0  0  0  0  0  0  0  0  0  0
   -2.7605    1.0837    0.0000 N   0  0  0  0  0  0  0  0  0  0  0  0
   -2.2755    1.7512    0.0000 N   0  0  0  0  0  0  0  0  0  0  0  0
   -2.5305   -0.3683    0.0000 N   0  0  0  0  0  0  0  0  0  0  0  0
  1  2  2  0
  1  6  1  0
  2  3  1  0
  3  4  1  0
  3  7  1  0
  4  5  1  0
  4  9  2  0
  5  6  2  0
  7  8  2  0
  8  9  1  0
  8 11  1  0
  9 10  1  0
 10 17  2  0
 10 21  1  0
 11 12  2  0
 11 16  1  0
 12 13  1  0
 13 14  2  0
 14 15  1  0
 15 16  2  0
 17 18  1  0
 18 19  2  0
 18 22  1  0
 19 20  1  0
 19 24  1  0
 20 21  2  0
 22 23  2  0
 22 25  1  0
 23 24  1  0
M  END
>  <DRUGBANK_ID>  (1) 
DB07794

>  <COMMON_NAME>  (1) 
5-(2-PHENYLPYRAZOLO[1,5-A]PYRIDIN-3-YL)-1H-PYRAZOLO[3,4-C]PYRIDAZIN-3-AMINE

>  <UNII>  (1) 
4C7X7GV82C

$$$$
