PM2
     RDKit          2D

 30 33  0  0  0  0  0  0  0  0999 V2000
   -0.4285   -2.8725    0.0000 C   0  0  0  0  0  0  0  0  0  0  0  0
    0.2859   -3.2850    0.0000 C   0  0  0  0  0  0  0  0  0  0  0  0
   -1.1430   -3.2850    0.0000 C   0  0  0  0  0  0  0  0  0  0  0  0
    0.2859   -4.1100    0.0000 C   0  0  0  0  0  0  0  0  0  0  0  0
   -1.1430   -4.1100    0.0000 C   0  0  0  0  0  0  0  0  0  0  0  0
   -0.4285   -4.5225    0.0000 C   0  0  0  0  0  0  0  0  0  0  0  0
    1.0004   -4.5225    0.0000 C   0  0  0  0  0  0  0  0  0  0  0  0
    1.0004   -5.3475    0.0000 N   0  0  0  0  0  0  0  0  0  0  0  0
   -1.1430   -1.6350    0.0000 C   0  0  0  0  0  0  0  0  0  0  0  0
   -1.1430   -0.8100    0.0000 C   0  0  0  0  0  0  0  0  0  0  0  0
   -0.4285    0.4275    0.0000 C   0  0  0  0  0  0  0  0  0  0  0  0
   -1.1430    0.8400    0.0000 O   0  0  0  0  0  0  0  0  0  0  0  0
   -0.4285   -2.0475    0.0000 C   0  0  0  0  0  0  0  0  0  0  0  0
   -0.4285   -0.3975    0.0000 N   0  0  0  0  0  0  0  0  0  0  0  0
    0.2859   -0.8100    0.0000 C   0  0  0  0  0  0  0  0  0  0  0  0
    0.2859   -1.6350    0.0000 C   0  0  0  0  0  0  0  0  0  0  0  0
    0.2859    0.8400    0.0000 C   0  0  0  0  0  0  0  0  0  0  0  0
    0.2859    1.6650    0.0000 C   0  0  0  0  0  0  0  0  0  0  0  0
    1.0004    0.4275    0.0000 C   0  0  0  0  0  0  0  0  0  0  0  0
    1.0004    2.0775    0.0000 C   0  0  0  0  0  0  0  0  0  0  0  0
    1.7149    0.8400    0.0000 N   0  0  0  0  0  0  0  0  0  0  0  0
    1.0004    2.9025    0.0000 C   0  0  0  0  0  0  0  0  0  0  0  0
    1.7149    1.6650    0.0000 C   0  0  0  0  0  0  0  0  0  0  0  0
    0.2859    3.3150    0.0000 C   0  0  0  0  0  0  0  0  0  0  0  0
    0.2859    4.1400    0.0000 C   0  0  0  0  0  0  0  0  0  0  0  0
   -0.4285    4.5525    0.0000 C   0  0  0  0  0  0  0  0  0  0  0  0
    1.0004    4.5525    0.0000 C   0  0  0  0  0  0  0  0  0  0  0  0
   -0.4285    5.3775    0.0000 C   0  0  0  0  0  0  0  0  0  0  0  0
    1.0004    5.3775    0.0000 C   0  0  0  0  0  0  0  0  0  0  0  0
    0.2859    5.7900    0.0000 C   0  0  0  0  0  0  0  0  0  0  0  0
  1  2  2  0
  1  3  1  0
  1 13  1  0
  2  4  1  0
  3  5  2  0
  4  6  2  0
  4  7  1  0
  5  6  1  0
  7  8  1  0
  9 10  1  0
  9 13  1  0
 10 14  1  0
 11 12  2  0
 11 14  1  0
 11 17  1  0
 13 16  1  0
 14 15  1  0
 15 16  1  0
 17 18  2  0
 17 19  1  0
 18 20  1  0
 19 21  2  0
 20 22  1  0
 20 23  2  0
 21 23  1  0
 22 24  1  0
 24 25  1  0
 25 26  2  0
 25 27  1  0
 26 28  1  0
 27 29  2  0
 28 30  2  0
 29 30  1  0
M  END
>  <DRUGBANK_ID>  (1) 
DB04764

>  <COMMON_NAME>  (1) 
[4-(3-AMINOMETHYL-PHENYL)-PIPERIDIN-1-YL]-(5-PHENETHYL- PYRIDIN-3-YL)-METHANONE

$$$$
