
     RDKit          2D

 17 17  0  0  0  0  0  0  0  0999 V2000
   -0.7168    0.0000    0.0000 O   0  0  0  0  0  0  0  0  0  0  0  0
   -1.4263    1.2400    0.0000 O   0  0  0  0  0  0  0  0  0  0  0  0
   -2.1574    0.0000    0.0000 C   0  0  0  0  0  0  0  0  0  0  0  0
   -1.4263    0.4085    0.0000 C   0  0  0  0  0  0  0  0  0  0  0  0
   -2.8671    0.4085    0.0000 C   0  0  0  0  0  0  0  0  0  0  0  0
   -2.1574   -0.8314    0.0000 C   0  0  0  0  0  0  0  0  0  0  0  0
    0.7168    0.0000    0.0000 C   0  0  0  0  0  0  0  0  0  0  0  0
    0.0000    0.4085    0.0000 C   0  0  0  0  0  0  0  0  0  0  0  0
   -3.5838    0.0000    0.0000 C   0  0  0  0  0  0  0  0  0  0  0  0
   -2.8671   -1.2400    0.0000 C   0  0  0  0  0  0  0  0  0  0  0  0
   -3.5838   -0.8314    0.0000 C   0  0  0  0  0  0  0  0  0  0  0  0
    1.4263    0.4085    0.0000 C   0  0  0  0  0  0  0  0  0  0  0  0
    0.7168   -0.8314    0.0000 C   0  0  0  0  0  0  0  0  0  0  0  0
    2.1574    0.0000    0.0000 C   0  0  0  0  0  0  0  0  0  0  0  0
    1.4263   -1.2400    0.0000 C   0  0  0  0  0  0  0  0  0  0  0  0
    2.8671    0.4085    0.0000 C   0  0  0  0  0  0  0  0  0  0  0  0
    3.5838    0.0000    0.0000 C   0  0  0  0  0  0  0  0  0  0  0  0
  1  4  1  0
  1  8  1  0
  2  4  2  0
  3  4  1  0
  3  5  2  0
  3  6  1  0
  5  9  1  0
  6 10  2  0
  7  8  1  0
  7 12  1  0
  7 13  1  0
  9 11  2  0
 10 11  1  0
 12 14  1  0
 13 15  1  0
 14 16  1  0
 16 17  1  0
M  END
>  <DRUGBANK_ID>  (1) 
DB11291

>  <COMMON_NAME>  (1) 
2-ethylhexyl benzoate

>  <CAS_NUMBER>  (1) 
5444-75-7

>  <UNII>  (1) 
R63ZWW1A13

>  <SYNONYMS>  (1) 
2-Ethyl-1-hexanol benzoate; Ethylhexyl benzoate

$$$$
