L35
     RDKit          2D

 25 26  0  0  0  0  0  0  0  0999 V2000
    1.1887   -2.1204    0.0000 C   0  0  0  0  0  0  0  0  0  0  0  0
    1.9031   -2.5329    0.0000 C   0  0  0  0  0  0  0  0  0  0  0  0
    1.9031   -3.3579    0.0000 C   0  0  0  0  0  0  0  0  0  0  0  0
    1.1887   -3.7704    0.0000 C   0  0  0  0  0  0  0  0  0  0  0  0
    0.4742   -3.3579    0.0000 C   0  0  0  0  0  0  0  0  0  0  0  0
    0.4742   -2.5329    0.0000 C   0  0  0  0  0  0  0  0  0  0  0  0
    0.4742   -0.8829    0.0000 C   0  0  0  0  0  0  0  0  0  0  0  0
   -1.6692    1.1796    0.0000 C   0  0  0  0  0  0  0  0  0  0  0  0
   -0.9547    1.5921    0.0000 C   0  0  0  0  0  0  0  0  0  0  0  0
   -0.2403    1.1796    0.0000 C   0  0  0  0  0  0  0  0  0  0  0  0
   -0.2403    0.3546    0.0000 C   0  0  0  0  0  0  0  0  0  0  0  0
   -0.9547   -0.0579    0.0000 C   0  0  0  0  0  0  0  0  0  0  0  0
   -1.6692    0.3546    0.0000 C   0  0  0  0  0  0  0  0  0  0  0  0
   -2.3837    2.4171    0.0000 C   0  0  0  0  0  0  0  0  0  0  0  0
   -1.5587    2.4171    0.0000 C   0  0  0  0  0  0  0  0  0  0  0  0
   -3.2087    2.4171    0.0000 C   0  0  0  0  0  0  0  0  0  0  0  0
   -2.3837    3.2421    0.0000 C   0  0  0  0  0  0  0  0  0  0  0  0
    1.1887   -1.2954    0.0000 N   0  0  0  0  0  0  0  0  0  0  0  0
    0.4742   -0.0579    0.0000 N   0  0  0  0  0  0  0  0  0  0  0  0
   -0.2403   -1.2954    0.0000 O   0  0  0  0  0  0  0  0  0  0  0  0
   -2.3837    1.5921    0.0000 O   0  0  0  0  0  0  0  0  0  0  0  0
   -3.0982    3.6546    0.0000 O   0  0  0  0  0  0  0  0  0  0  0  0
   -1.6692    3.6546    0.0000 O   0  0  0  0  0  0  0  0  0  0  0  0
   -0.2403   -3.7704    0.0000 Cl  0  0  0  0  0  0  0  0  0  0  0  0
    2.6176   -3.7704    0.0000 Cl  0  0  0  0  0  0  0  0  0  0  0  0
  1  2  2  0
  1  6  1  0
  1 18  1  0
  2  3  1  0
  3  4  2  0
  3 25  1  0
  4  5  1  0
  5  6  2  0
  5 24  1  0
  7 18  1  0
  7 19  1  0
  7 20  2  0
  8  9  2  0
  8 13  1  0
  8 21  1  0
  9 10  1  0
 10 11  2  0
 11 12  1  0
 11 19  1  0
 12 13  2  0
 14 15  1  0
 14 16  1  0
 14 17  1  0
 14 21  1  0
 17 22  1  0
 17 23  2  0
M  END
>  <DRUGBANK_ID>  (1) 
DB08077

>  <COMMON_NAME>  (1) 
2-[4-({[(3,5-DICHLOROPHENYL)AMINO]CARBONYL}AMINO)PHENOXY]-2-METHYLPROPANOIC ACID

>  <UNII>  (1) 
PS3UC84IQA

$$$$
