
     RDKit          2D

 27 25  0  0  0  0  0  0  0  0999 V2000
    0.0000    0.0000    0.0000 O   0  0  0  0  0  0  0  0  0  0  0  0
    2.3571   -0.2062    0.0000 N   0  0  0  0  0  0  0  0  0  0  0  0
    3.0716    0.2063    0.0000 C   0  0  0  0  0  0  0  0  0  0  0  0
    3.7861   -0.2063    0.0000 C   0  0  0  0  0  0  0  0  0  0  0  0
    4.5006    0.2062    0.0000 C   0  0  0  0  0  0  0  0  0  0  0  0
    5.2150   -0.2063    0.0000 C   0  0  0  0  0  0  0  0  0  0  0  0
    5.9295    0.2062    0.0000 C   0  0  0  0  0  0  0  0  0  0  0  0
    5.9295    1.0312    0.0000 N   0  0  0  0  0  0  0  0  0  0  0  0
    6.6440   -0.2063    0.0000 C   0  0  0  0  0  0  0  0  0  0  0  0
    7.3584    0.2062    0.0000 O   0  0  0  0  0  0  0  0  0  0  0  0
    6.6440   -1.0313    0.0000 O   0  0  0  0  0  0  0  0  0  0  0  0
   -0.9377   -3.6977    0.0000 O   0  0  0  0  0  0  0  0  0  0  0  0
   -0.2233   -4.1102    0.0000 C   0  0  0  0  0  0  0  0  0  0  0  0
    0.4912   -4.5227    0.0000 C   0  0  0  0  0  0  0  0  0  0  0  0
    0.4912   -5.3477    0.0000 N   0  0  0  0  0  0  0  0  0  0  0  0
    1.1586   -5.8326    0.0000 C   0  0  0  0  0  0  0  0  0  0  0  0
    0.9037   -6.6172    0.0000 C   0  0  0  0  0  0  0  0  0  0  0  0
    0.0787   -6.6172    0.0000 N   0  0  0  0  0  0  0  0  0  0  0  0
   -0.1762   -5.8326    0.0000 C   0  0  0  0  0  0  0  0  0  0  0  0
    0.1892   -3.3957    0.0000 P   0  0  0  0  0  0  0  0  0  0  0  0
    0.6017   -2.6813    0.0000 O   0  0  0  0  0  0  0  0  0  0  0  0
    0.9037   -3.8082    0.0000 O   0  0  0  0  0  0  0  0  0  0  0  0
   -0.5252   -2.9832    0.0000 O   0  0  0  0  0  0  0  0  0  0  0  0
   -0.6358   -4.8247    0.0000 P   0  0  0  0  0  0  0  0  0  0  0  0
    0.0787   -5.2372    0.0000 O   0  0  0  0  0  0  0  0  0  0  0  0
   -1.0483   -5.5391    0.0000 O   0  0  0  0  0  0  0  0  0  0  0  0
   -1.3502   -4.4122    0.0000 O   0  0  0  0  0  0  0  0  0  0  0  0
  2  3  1  0
  3  4  1  0
  4  5  1  0
  5  6  1  0
  6  7  1  0
  7  8  1  0
  7  9  1  0
  9 10  1  0
  9 11  2  0
 12 13  1  0
 13 14  1  0
 13 20  1  0
 13 24  1  0
 14 15  1  0
 15 16  1  0
 15 19  1  0
 16 17  2  0
 17 18  1  0
 18 19  2  0
 20 21  1  0
 20 22  1  0
 20 23  2  0
 24 25  1  0
 24 26  1  0
 24 27  2  0
M  END
>  <DRUGBANK_ID>  (1) 
DB16907

>  <COMMON_NAME>  (1) 
Zoledronate D,L-Lysine Monohydrate

>  <CAS_NUMBER>  (1) 
1323976-37-9

>  <UNII>  (1) 
IL1N7FSO1U

$$$$
