KJ2
     RDKit          2D

 25 27  0  0  0  0  0  0  0  0999 V2000
   -2.5227    1.5804    0.0000 C   0  0  0  0  0  0  0  0  0  0  0  0
   -1.7381    1.3254    0.0000 C   0  0  0  0  0  0  0  0  0  0  0  0
   -3.1358    1.0283    0.0000 C   0  0  0  0  0  0  0  0  0  0  0  0
   -2.9642    0.2214    0.0000 C   0  0  0  0  0  0  0  0  0  0  0  0
   -2.1796   -0.0336    0.0000 C   0  0  0  0  0  0  0  0  0  0  0  0
   -1.5665    0.5185    0.0000 C   0  0  0  0  0  0  0  0  0  0  0  0
   -3.5773   -0.3307    0.0000 O   0  0  0  0  0  0  0  0  0  0  0  0
   -2.6942    2.3874    0.0000 O   0  0  0  0  0  0  0  0  0  0  0  0
   -1.1250    1.8775    0.0000 Cl  0  0  0  0  0  0  0  0  0  0  0  0
   -2.0081   -0.8405    0.0000 C   0  0  0  0  0  0  0  0  0  0  0  0
   -1.2544   -1.1761    0.0000 C   0  0  0  0  0  0  0  0  0  0  0  0
   -2.1476   -2.1681    0.0000 N   0  0  0  0  0  0  0  0  0  0  0  0
   -1.3407   -1.9966    0.0000 C   0  0  0  0  0  0  0  0  0  0  0  0
   -2.5601   -1.4536    0.0000 N   0  0  0  0  0  0  0  0  0  0  0  0
   -0.5400   -0.7636    0.0000 C   0  0  0  0  0  0  0  0  0  0  0  0
   -0.5400    0.0614    0.0000 C   0  0  0  0  0  0  0  0  0  0  0  0
    0.1745    0.4739    0.0000 C   0  0  0  0  0  0  0  0  0  0  0  0
    0.8890   -0.7636    0.0000 C   0  0  0  0  0  0  0  0  0  0  0  0
    0.1745   -1.1761    0.0000 C   0  0  0  0  0  0  0  0  0  0  0  0
    0.8890    0.0614    0.0000 C   0  0  0  0  0  0  0  0  0  0  0  0
    1.6035    0.4739    0.0000 O   0  0  0  0  0  0  0  0  0  0  0  0
    2.3179    0.0614    0.0000 C   0  0  0  0  0  0  0  0  0  0  0  0
    3.0324    0.4739    0.0000 C   0  0  0  0  0  0  0  0  0  0  0  0
    3.7469    0.0614    0.0000 C   0  0  0  0  0  0  0  0  0  0  0  0
    4.4613    0.4739    0.0000 N   0  0  0  0  0  0  0  0  0  0  0  0
  1  2  2  0
  1  3  1  0
  1  8  1  0
  2  6  1  0
  2  9  1  0
  3  4  2  0
  4  5  1  0
  4  7  1  0
  5  6  2  0
  5 10  1  0
 10 11  2  0
 10 14  1  0
 11 13  1  0
 11 15  1  0
 12 13  2  0
 12 14  1  0
 15 16  2  0
 15 19  1  0
 16 17  1  0
 17 20  2  0
 18 19  2  0
 18 20  1  0
 20 21  1  0
 21 22  1  0
 22 23  1  0
 23 24  1  0
 24 25  1  0
M  END
>  <DRUGBANK_ID>  (1) 
DB08045

>  <COMMON_NAME>  (1) 
4-{4-[4-(3-AMINOPROPOXY)PHENYL]-1H-PYRAZOL-5-YL}-6-CHLOROBENZENE-1,3-DIOL

$$$$
