
     RDKit          2D

 11 10  0  0  1  0  0  0  0  0999 V2000
    0.4125    3.5724    0.0000 C   0  0  0  0  0  0  0  0  0  0  0  0
    0.8250    2.8579    0.0000 S   0  0  0  0  0  0  0  0  0  0  0  0
    0.1105    2.4454    0.0000 O   0  0  0  0  0  0  0  0  0  0  0  0
    1.5395    3.2704    0.0000 N   0  0  0  0  0  0  0  0  0  0  0  0
    1.2375    2.1434    0.0000 C   0  0  0  0  0  0  0  0  0  0  0  0
    0.8250    1.4289    0.0000 C   0  0  0  0  0  0  0  0  0  0  0  0
    1.2375    0.7145    0.0000 C   0  0  0  0  0  0  0  0  0  0  0  0
    2.0625    0.7145    0.0000 N   0  0  0  0  0  0  0  0  0  0  0  0
    0.8250    0.0000    0.0000 C   0  0  0  0  0  0  0  0  0  0  0  0
    1.2375   -0.7145    0.0000 O   0  0  0  0  0  0  0  0  0  0  0  0
    0.0000    0.0000    0.0000 O   0  0  0  0  0  0  0  0  0  0  0  0
  2  1  1  1
  2  3  1  0
  2  4  2  0
  2  5  1  0
  5  6  1  0
  7  6  1  0
  7  8  1  6
  7  9  1  0
  9 10  1  0
  9 11  2  0
M  CHG  2   2   1   3  -1
M  END
>  <DRUGBANK_ID>  (1) 
DB18529

>  <COMMON_NAME>  (1) 
Methionine sulfoximine, (S)-

>  <CAS_NUMBER>  (1) 
21752-32-9

>  <UNII>  (1) 
DE3D2PZ3TT

>  <SYNONYMS>  (1) 
(2s)-2-amino-4-((s(s))-s-methylsulfonimidoyl)butanoic acid; Butanoic acid, 2-amino-4-((s(s))-s-methylsulfonimidoyl)-, (2s)-; L-methionine-(s)-sulfoximine; L-S-(3-Amino-3-carboxypropyl)-S-methylsulfoximine

$$$$
