U01
     RDKit          2D

 23 25  0  0  0  0  0  0  0  0999 V2000
    0.3104   -0.3556    0.0000 C   0  0  0  0  0  0  0  0  0  0  0  0
    0.3104   -1.1806    0.0000 C   0  0  0  0  0  0  0  0  0  0  0  0
    1.7393   -1.1806    0.0000 C   0  0  0  0  0  0  0  0  0  0  0  0
    1.7393   -0.3556    0.0000 C   0  0  0  0  0  0  0  0  0  0  0  0
    1.0248    0.0569    0.0000 C   0  0  0  0  0  0  0  0  0  0  0  0
   -0.4041    0.8819    0.0000 C   0  0  0  0  0  0  0  0  0  0  0  0
   -1.1186    1.2944    0.0000 C   0  0  0  0  0  0  0  0  0  0  0  0
   -1.1186    2.1194    0.0000 C   0  0  0  0  0  0  0  0  0  0  0  0
   -0.4041    2.5319    0.0000 C   0  0  0  0  0  0  0  0  0  0  0  0
    0.3104    2.1194    0.0000 C   0  0  0  0  0  0  0  0  0  0  0  0
    0.3104    1.2944    0.0000 C   0  0  0  0  0  0  0  0  0  0  0  0
   -0.4041    0.0569    0.0000 C   0  0  0  0  0  0  0  0  0  0  0  0
   -1.1186   -0.3556    0.0000 C   0  0  0  0  0  0  0  0  0  0  0  0
   -1.8330    0.0569    0.0000 C   0  0  0  0  0  0  0  0  0  0  0  0
   -1.1186   -1.1806    0.0000 C   0  0  0  0  0  0  0  0  0  0  0  0
    2.4538   -1.5931    0.0000 C   0  0  0  0  0  0  0  0  0  0  0  0
    3.1683   -1.1806    0.0000 C   0  0  0  0  0  0  0  0  0  0  0  0
    3.1683   -0.3556    0.0000 C   0  0  0  0  0  0  0  0  0  0  0  0
    2.4538    0.0569    0.0000 C   0  0  0  0  0  0  0  0  0  0  0  0
   -0.4041   -1.5931    0.0000 O   0  0  0  0  0  0  0  0  0  0  0  0
    1.0248   -1.5931    0.0000 O   0  0  0  0  0  0  0  0  0  0  0  0
    1.0248    0.8819    0.0000 O   0  0  0  0  0  0  0  0  0  0  0  0
   -0.4041    3.3569    0.0000 Br  0  0  0  0  0  0  0  0  0  0  0  0
  1  2  1  0
  1  5  2  0
  1 12  1  0
  2 20  2  0
  2 21  1  0
  3  4  2  0
  3 16  1  0
  3 21  1  0
  4  5  1  0
  4 19  1  0
  5 22  1  0
  6  7  2  0
  6 11  1  0
  6 12  1  0
  7  8  1  0
  8  9  2  0
  9 10  1  0
  9 23  1  0
 10 11  2  0
 12 13  1  1
 13 14  1  0
 13 15  1  0
 16 17  2  0
 17 18  1  0
 18 19  2  0
M  END
>  <DRUGBANK_ID>  (1) 
DB08662

>  <COMMON_NAME>  (1) 
3-[1-(4-BROMO-PHENYL)-2-METHYL-PROPYL]-4-HYDROXY-CHROMEN-2-ONE

$$$$
