
     RDKit          2D

 28 31  0  0  0  0  0  0  0  0999 V2000
   -2.4844    1.2510    0.0000 N   0  0  0  0  0  0  0  0  0  0  0  0
   -2.4844    0.4259    0.0000 C   0  0  0  0  0  0  0  0  0  0  0  0
   -1.7723    0.0176    0.0000 N   0  0  0  0  0  0  0  0  0  0  0  0
   -1.7723    1.6678    0.0000 C   0  0  0  0  0  0  0  0  0  0  0  0
   -1.0602    1.2510    0.0000 C   0  0  0  0  0  0  0  0  0  0  0  0
   -1.0637    0.4259    0.0000 C   0  0  0  0  0  0  0  0  0  0  0  0
   -0.2611   -0.0497    0.0000 N   0  0  0  0  0  0  0  0  0  0  0  0
    0.3618    0.4199    0.0000 C   0  0  0  0  0  0  0  0  0  0  0  0
    0.3653    1.2449    0.0000 C   0  0  0  0  0  0  0  0  0  0  0  0
   -0.3479    1.6628    0.0000 C   0  0  0  0  0  0  0  0  0  0  0  0
    1.0825    1.6487    0.0000 O   0  0  0  0  0  0  0  0  0  0  0  0
    1.0741    0.0033    0.0000 O   0  0  0  0  0  0  0  0  0  0  0  0
   -0.2971   -0.8123    0.0000 C   0  0  0  0  0  0  0  0  0  0  0  0
   -3.1983    0.0125    0.0000 N   0  0  0  0  0  0  0  0  0  0  0  0
   -3.1971   -0.8126    0.0000 C   0  0  0  0  0  0  0  0  0  0  0  0
   -3.9180   -1.2228    0.0000 C   0  0  0  0  0  0  0  0  0  0  0  0
   -3.9188   -2.0443    0.0000 C   0  0  0  0  0  0  0  0  0  0  0  0
   -3.2055   -2.4597    0.0000 O   0  0  0  0  0  0  0  0  0  0  0  0
   -2.4897   -2.0474    0.0000 C   0  0  0  0  0  0  0  0  0  0  0  0
   -2.4873   -1.2197    0.0000 C   0  0  0  0  0  0  0  0  0  0  0  0
    1.7925    1.2285    0.0000 C   0  0  0  0  0  0  0  0  0  0  0  0
    1.7791    0.4041    0.0000 C   0  0  0  0  0  0  0  0  0  0  0  0
    2.4883   -0.0159    0.0000 C   0  0  0  0  0  0  0  0  0  0  0  0
    3.2082    0.3887    0.0000 C   0  0  0  0  0  0  0  0  0  0  0  0
    3.2146    1.2181    0.0000 C   0  0  0  0  0  0  0  0  0  0  0  0
    2.5048    1.6345    0.0000 C   0  0  0  0  0  0  0  0  0  0  0  0
    2.5099    2.4596    0.0000 F   0  0  0  0  0  0  0  0  0  0  0  0
    3.9188   -0.0303    0.0000 F   0  0  0  0  0  0  0  0  0  0  0  0
  1  4  2  0
  1  2  1  0
  2 14  1  0
  2  3  2  0
  3  6  1  0
  5  4  1  0
  5 10  1  0
  5  6  2  0
  6  7  1  0
  7  8  1  0
  7 13  1  0
  8  9  1  0
  8 12  2  0
  9 10  2  0
  9 11  1  0
 11 21  1  0
 14 15  1  0
 15 16  1  0
 15 20  1  0
 16 17  1  0
 17 18  1  0
 18 19  1  0
 19 20  1  0
 21 22  2  0
 22 23  1  0
 23 24  2  0
 24 25  1  0
 24 28  1  0
 25 26  2  0
 26 21  1  0
 26 27  1  0
M  END
>  <DRUGBANK_ID>  (1) 
DB06518

>  <COMMON_NAME>  (1) 
R-1487

>  <CAS_NUMBER>  (1) 
449811-92-1

>  <UNII>  (1) 
IO0DCY55NQ

$$$$
