3AC
     RDKit          2D

 22 23  0  0  0  0  0  0  0  0999 V2000
    1.2750    0.9639    0.0000 O   0  0  0  0  0  0  0  0  0  0  0  0
    1.2750    0.1389    0.0000 C   0  0  0  0  0  0  0  0  0  0  0  0
    1.9894   -0.2736    0.0000 C   0  0  0  0  0  0  0  0  0  0  0  0
    2.7039    0.1389    0.0000 I   0  0  0  0  0  0  0  0  0  0  0  0
    1.9894   -1.0986    0.0000 C   0  0  0  0  0  0  0  0  0  0  0  0
    2.7039   -1.5111    0.0000 O   0  0  0  0  0  0  0  0  0  0  0  0
    1.2750   -1.5111    0.0000 N   0  0  0  0  0  0  0  0  0  0  0  0
    0.5605   -1.0986    0.0000 C   0  0  0  0  0  0  0  0  0  0  0  0
   -0.1540   -1.5111    0.0000 C   0  0  0  0  0  0  0  0  0  0  0  0
    0.5605   -0.2736    0.0000 C   0  0  0  0  0  0  0  0  0  0  0  0
   -0.1540    0.1389    0.0000 C   0  0  0  0  0  0  0  0  0  0  0  0
   -0.8685   -0.2736    0.0000 C   0  0  0  0  0  0  0  0  0  0  0  0
    0.5605    1.3764    0.0000 C   0  0  0  0  0  0  0  0  0  0  0  0
   -0.1540    0.9639    0.0000 C   0  0  0  0  0  0  0  0  0  0  0  0
   -0.8685    1.3764    0.0000 C   0  0  0  0  0  0  0  0  0  0  0  0
   -0.8685    2.2014    0.0000 C   0  0  0  0  0  0  0  0  0  0  0  0
   -0.1540    2.6139    0.0000 C   0  0  0  0  0  0  0  0  0  0  0  0
    0.5605    2.2014    0.0000 C   0  0  0  0  0  0  0  0  0  0  0  0
   -0.1540    3.4389    0.0000 C   0  0  0  0  0  0  0  0  0  0  0  0
    0.5605    3.8514    0.0000 C   0  0  0  0  0  0  0  0  0  0  0  0
    0.5605    5.5014    0.0000 N   0  0  0  0  0  0  0  0  0  0  0  0
    0.5605    4.6764    0.0000 C   0  0  0  0  0  0  0  0  0  0  0  0
  1  2  1  0
  1 13  1  0
  2  3  2  0
  2 10  1  0
  3  4  1  0
  3  5  1  0
  5  6  2  0
  5  7  1  0
  7  8  1  0
  8  9  1  0
  8 10  2  0
 10 11  1  0
 11 12  1  0
 13 14  2  0
 13 18  1  0
 14 15  1  0
 15 16  2  0
 16 17  1  0
 17 18  2  0
 17 19  1  0
 19 20  2  0
 20 22  1  0
 21 22  3  0
M  END
>  <DRUGBANK_ID>  (1) 
DB07035

>  <COMMON_NAME>  (1) 
(2E)-3-{3-[(5-ETHYL-3-IODO-6-METHYL-2-OXO-1,2-DIHYDROPYRIDIN-4-YL)OXY]PHENYL}ACRYLONITRILE

$$$$
