
     RDKit          2D

 24 24  0  0  0  0  0  0  0  0999 V2000
    2.8463    1.7054    0.0000 C   0  0  0  0  0  0  0  0  0  0  0  0
    2.4265    2.4146    0.0000 C   0  0  0  0  0  0  0  0  0  0  0  0
    3.2467    2.4193    0.0000 C   0  0  0  0  0  0  0  0  0  0  0  0
    2.8560    0.8804    0.0000 C   0  0  0  0  0  0  0  0  0  0  0  0
    2.1468    0.4655    0.0000 N   0  0  0  0  0  0  0  0  0  0  0  0
    2.1468   -0.3594    0.0000 C   0  0  0  0  0  0  0  0  0  0  0  0
    2.8608   -0.7742    0.0000 C   0  0  0  0  0  0  0  0  0  0  0  0
   -2.1420   -2.0044    0.0000 C   0  0  0  0  0  0  0  0  0  0  0  0
   -2.8608   -1.5896    0.0000 C   0  0  0  0  0  0  0  0  0  0  0  0
    3.5699    0.4800    0.0000 O   0  0  0  0  0  0  0  0  0  0  0  0
    3.5699   -0.3642    0.0000 O   0  0  0  0  0  0  0  0  0  0  0  0
    2.8560   -1.5992    0.0000 O   0  0  0  0  0  0  0  0  0  0  0  0
   -2.1420   -2.8294    0.0000 O   0  0  0  0  0  0  0  0  0  0  0  0
    1.4279   -0.7742    0.0000 C   0  0  0  0  0  0  0  0  0  0  0  0
   -3.5699   -2.0044    0.0000 N   0  0  0  0  0  0  0  0  0  0  0  0
   -1.4328   -1.5896    0.0000 O   0  0  0  0  0  0  0  0  0  0  0  0
    1.7078    2.0140    0.0000 C   0  0  0  0  0  0  0  0  0  0  0  0
    1.7078    2.8294    0.0000 C   0  0  0  0  0  0  0  0  0  0  0  0
   -2.1420   -0.3545    0.0000 S   0  0  0  0  0  0  0  0  0  0  0  0
   -2.8608   -0.7646    0.0000 C   0  0  0  0  0  0  0  0  0  0  0  0
    0.7140   -0.3594    0.0000 C   0  0  0  0  0  0  0  0  0  0  0  0
   -1.4328   -0.7694    0.0000 C   0  0  0  0  0  0  0  0  0  0  0  0
    0.0000   -0.7694    0.0000 C   0  0  0  0  0  0  0  0  0  0  0  0
   -0.7140   -0.3545    0.0000 C   0  0  0  0  0  0  0  0  0  0  0  0
  1  4  1  6
  2  1  1  0
  3  1  1  0
  3  2  1  0
  5  4  1  0
  6  5  1  0
  7  6  1  0
  8  9  1  0
  9 20  1  0
 10  4  2  0
 11  7  1  0
 12  7  2  0
 13  8  2  0
 14  6  2  0
  9 15  1  1
 16  8  1  0
 17  2  1  0
 18  2  1  0
 19 22  1  0
 20 19  1  0
 21 14  1  0
 22 24  1  0
 23 21  1  0
 24 23  1  0
M  END
>  <DRUGBANK_ID>  (1) 
DB01597

>  <SECONDARY_ACCESSION_NUMBERS>  (1) 
EXPT00918

>  <COMMON_NAME>  (1) 
Cilastatin

>  <CAS_NUMBER>  (1) 
82009-34-5

>  <UNII>  (1) 
141A6AMN38

>  <SYNONYMS>  (1) 
(L)-7-(2-Amino-2-carboxy-ethylsulfanyl)-2-[(2,2-dimethyl-cyclopropanecarbonyl)-amino]-hept-2-enoic acid; (Z)-(S)-6-carboxy-6-[(S)-2,2-dimethylcyclopropanecarboxamido]hex-5-enyl-L-cysteine; (Z)-7-((R)-2-Amino-2-carboxy-ethylsulfanyl)-2-[((S)-2,2-dimethyl-cyclopropanecarbonyl)-amino]-hept-2-enoic acid; Cilastatin; Cilastatina; Cilastatine; Cilastatinum

$$$$
