
     RDKit          2D

  6  5  0  0  0  0  0  0  0  0999 V2000
    1.2375    2.1434    0.0000 O   0  0  0  0  0  0  0  0  0  0  0  0
    0.8250    1.4289    0.0000 C   0  0  0  0  0  0  0  0  0  0  0  0
    1.2375    0.7145    0.0000 C   0  0  0  0  0  0  0  0  0  0  0  0
    0.8250    0.0000    0.0000 C   0  0  0  0  0  0  0  0  0  0  0  0
    1.2375   -0.7145    0.0000 Br  0  0  0  0  0  0  0  0  0  0  0  0
    0.0000    0.0000    0.0000 C   0  0  0  0  0  0  0  0  0  0  0  0
  1  2  1  0
  2  3  1  0
  3  4  1  0
  4  5  1  0
  4  6  2  0
M  END
>  <DRUGBANK_ID>  (1) 
DB04592

>  <COMMON_NAME>  (1) 
3-Bromo-3-buten-1-ol

>  <CAS_NUMBER>  (1) 
76334-36-6

>  <UNII>  (1) 
T4HW642ALH

$$$$
