SKF
     RDKit          2D

 14 15  0  0  0  0  0  0  0  0999 V2000
   -0.3607    0.8531    0.0000 C   0  0  0  0  0  0  0  0  0  0  0  0
   -1.0752    0.4406    0.0000 C   0  0  0  0  0  0  0  0  0  0  0  0
   -1.0752   -0.3844    0.0000 C   0  0  0  0  0  0  0  0  0  0  0  0
   -0.3607   -0.7969    0.0000 C   0  0  0  0  0  0  0  0  0  0  0  0
   -1.7897   -0.7969    0.0000 S   0  0  0  0  0  0  0  0  0  0  0  0
    0.3537   -0.3844    0.0000 C   0  0  0  0  0  0  0  0  0  0  0  0
    0.3537    0.4406    0.0000 C   0  0  0  0  0  0  0  0  0  0  0  0
   -2.5041   -1.2094    0.0000 O   0  0  0  0  0  0  0  0  0  0  0  0
   -1.3772   -1.5114    0.0000 O   0  0  0  0  0  0  0  0  0  0  0  0
   -2.2022   -0.0825    0.0000 N   0  0  0  0  0  0  0  0  0  0  0  0
    1.0682   -0.7969    0.0000 C   0  0  0  0  0  0  0  0  0  0  0  0
    1.7827    0.4406    0.0000 C   0  0  0  0  0  0  0  0  0  0  0  0
    1.0682    0.8531    0.0000 C   0  0  0  0  0  0  0  0  0  0  0  0
    1.7827   -0.3844    0.0000 N   0  0  0  0  0  0  0  0  0  0  0  0
  1  2  2  0
  1  7  1  0
  2  3  1  0
  3  4  2  0
  3  5  1  0
  4  6  1  0
  5  8  2  0
  5  9  2  0
  5 10  1  0
  6  7  2  0
  6 11  1  0
  7 13  1  0
 11 14  1  0
 12 13  1  0
 12 14  1  0
M  END
>  <DRUGBANK_ID>  (1) 
DB03468

>  <SECONDARY_ACCESSION_NUMBERS>  (1) 
EXPT02913

>  <COMMON_NAME>  (1) 
1,2,3,4-Tetrahydro-Isoquinoline-7-Sulfonic Acid Amide

>  <UNII>  (1) 
7ASE44P9QJ

$$$$
