
     RDKit          2D

 43 46  0  0  0  0  0  0  0  0999 V2000
   -1.4348    4.0557    0.0000 C   0  0  0  0  0  0  0  0  0  0  0  0
   -5.1610    0.6533    0.0000 C   0  0  0  0  0  0  0  0  0  0  0  0
    0.7316    2.5882    0.0000 C   0  0  0  0  0  0  0  0  0  0  0  0
   -3.9280    2.9614    0.0000 C   0  0  0  0  0  0  0  0  0  0  0  0
    1.3779   -0.4525    0.0000 C   0  0  0  0  0  0  0  0  0  0  0  0
   -3.8121   -1.7117    0.0000 C   0  0  0  0  0  0  0  0  0  0  0  0
   -0.7204    3.6432    0.0000 C   0  0  0  0  0  0  0  0  0  0  0  0
   -4.8255    1.4070    0.0000 C   0  0  0  0  0  0  0  0  0  0  0  0
    3.0176    0.2774    0.0000 C   0  0  0  0  0  0  0  0  0  0  0  0
   -2.1724   -2.4418    0.0000 C   0  0  0  0  0  0  0  0  0  0  0  0
    3.7321    0.6899    0.0000 C   0  0  0  0  0  0  0  0  0  0  0  0
   -1.3878   -2.6967    0.0000 C   0  0  0  0  0  0  0  0  0  0  0  0
    0.1770    0.8812    0.0000 C   0  0  0  0  0  0  0  0  0  0  0  0
   -2.1724    2.5882    0.0000 C   0  0  0  0  0  0  0  0  0  0  0  0
   -3.6245    0.0732    0.0000 C   0  0  0  0  0  0  0  0  0  0  0  0
   -0.0529    2.3333    0.0000 C   0  0  0  0  0  0  0  0  0  0  0  0
   -3.5925    2.2077    0.0000 C   0  0  0  0  0  0  0  0  0  0  0  0
    1.5495    0.3544    0.0000 C   0  0  0  0  0  0  0  0  0  0  0  0
   -3.0976   -1.2992    0.0000 C   0  0  0  0  0  0  0  0  0  0  0  0
   -0.7204    2.8182    0.0000 C   0  0  0  0  0  0  0  0  0  0  0  0
   -4.0050    1.4932    0.0000 C   0  0  0  0  0  0  0  0  0  0  0  0
    2.3031    0.6899    0.0000 C   0  0  0  0  0  0  0  0  0  0  0  0
   -2.3440   -1.6348    0.0000 C   0  0  0  0  0  0  0  0  0  0  0  0
   -0.3079    1.5487    0.0000 C   0  0  0  0  0  0  0  0  0  0  0  0
   -2.7855    2.0362    0.0000 C   0  0  0  0  0  0  0  0  0  0  0  0
    0.9974    0.9675    0.0000 C   0  0  0  0  0  0  0  0  0  0  0  0
   -3.0114   -0.4788    0.0000 C   0  0  0  0  0  0  0  0  0  0  0  0
   -1.3878    2.3333    0.0000 C   0  0  0  0  0  0  0  0  0  0  0  0
   -3.4530    0.8802    0.0000 C   0  0  0  0  0  0  0  0  0  0  0  0
    4.4466    0.2774    0.0000 C   0  0  0  0  0  0  0  0  0  0  0  0
   -1.2163   -3.5037    0.0000 C   0  0  0  0  0  0  0  0  0  0  0  0
    2.2169    1.5104    0.0000 C   0  0  0  0  0  0  0  0  0  0  0  0
   -1.7919   -1.0217    0.0000 C   0  0  0  0  0  0  0  0  0  0  0  0
   -1.1329    1.5487    0.0000 N   0  0  0  0  0  0  0  0  0  0  0  0
   -2.6993    1.2157    0.0000 N   0  0  0  0  0  0  0  0  0  0  0  0
    1.4099    1.6819    0.0000 N   0  0  0  0  0  0  0  0  0  0  0  0
   -2.2044   -0.3072    0.0000 N   0  0  0  0  0  0  0  0  0  0  0  0
    5.1610    0.6899    0.0000 O   0  0  0  0  0  0  0  0  0  0  0  0
    4.4466   -0.5475    0.0000 O   0  0  0  0  0  0  0  0  0  0  0  0
   -1.8294   -4.0557    0.0000 O   0  0  0  0  0  0  0  0  0  0  0  0
   -0.4317   -3.7586    0.0000 O   0  0  0  0  0  0  0  0  0  0  0  0
    2.8300    2.0624    0.0000 O   0  0  0  0  0  0  0  0  0  0  0  0
   -0.9714   -1.1079    0.0000 O   0  0  0  0  0  0  0  0  0  0  0  0
  7  1  2  0
  8  2  2  0
 11  9  1  0
 12 10  1  0
 16  3  1  0
 17  4  1  0
 18  5  1  0
 19  6  1  0
 20  7  1  0
 20 16  1  0
 21  8  1  0
 21 17  2  0
 22  9  1  0
 22 18  2  0
 23 10  1  0
 23 19  2  0
 24 13  1  0
 24 16  2  0
 25 14  2  0
 25 17  1  0
 26 13  2  0
 26 18  1  0
 27 15  1  0
 27 19  1  0
 28 14  1  0
 28 20  2  0
 29 15  2  0
 29 21  1  0
 30 11  1  0
 31 12  1  0
 32 22  1  0
 33 23  1  0
 34 24  1  0
 34 28  1  0
 35 25  1  0
 35 29  1  0
 36 26  1  0
 36 32  2  0
 37 27  2  0
 37 33  1  0
 38 30  2  0
 39 30  1  0
 40 31  2  0
 41 31  1  0
 42 32  1  0
 43 33  2  0
M  END
>  <DRUGBANK_ID>  (1) 
DB02864

>  <SECONDARY_ACCESSION_NUMBERS>  (1) 
EXPT00720

>  <COMMON_NAME>  (1) 
Biliverdin Ix Gamma Chromophore

$$$$
