DLG
     RDKit          2D

 17 17  0  0  0  0  0  0  0  0999 V2000
   -0.9820    0.1327    0.0000 C   0  0  0  0  0  0  0  0  0  0  0  0
   -0.9820   -0.6923    0.0000 C   0  0  0  0  0  0  0  0  0  0  0  0
   -1.6965   -1.1048    0.0000 C   0  0  0  0  0  0  0  0  0  0  0  0
   -2.4110   -0.6923    0.0000 C   0  0  0  0  0  0  0  0  0  0  0  0
   -2.4110    0.1327    0.0000 C   0  0  0  0  0  0  0  0  0  0  0  0
   -3.1254    0.5452    0.0000 C   0  0  0  0  0  0  0  0  0  0  0  0
   -0.2675    0.5452    0.0000 O   0  0  0  0  0  0  0  0  0  0  0  0
   -0.2675   -1.1048    0.0000 O   0  0  0  0  0  0  0  0  0  0  0  0
   -3.1254   -1.1048    0.0000 O   0  0  0  0  0  0  0  0  0  0  0  0
   -1.6965    0.5452    0.0000 O   0  0  0  0  0  0  0  0  0  0  0  0
   -3.1254    1.3702    0.0000 O   0  0  0  0  0  0  0  0  0  0  0  0
    0.4469    0.1327    0.0000 C   0  0  0  0  0  0  0  0  0  0  0  0
    1.1614    0.5452    0.0000 C   0  0  0  0  0  0  0  0  0  0  0  0
    1.8759    0.1327    0.0000 C   0  0  0  0  0  0  0  0  0  0  0  0
    2.5903    0.5452    0.0000 C   0  0  0  0  0  0  0  0  0  0  0  0
    3.3048    0.1327    0.0000 C   0  0  0  0  0  0  0  0  0  0  0  0
    4.0193    0.5452    0.0000 C   0  0  0  0  0  0  0  0  0  0  0  0
  1  2  1  0
  1  7  1  1
  1 10  1  0
  2  3  1  0
  2  8  1  6
  3  4  1  0
  4  5  1  0
  4  9  1  1
  5  6  1  1
  5 10  1  0
  6 11  1  0
  7 12  1  0
 12 13  1  0
 13 14  1  0
 14 15  1  0
 15 16  1  0
 16 17  1  0
M  END
>  <DRUGBANK_ID>  (1) 
DB03772

>  <SECONDARY_ACCESSION_NUMBERS>  (1) 
EXPT01217

>  <COMMON_NAME>  (1) 
2-Hexyloxy-6-Hydroxymethyl-Tetrahydro-Pyran-3,5-Diol

$$$$
