GVP
     RDKit          2D

 24 27  0  0  0  0  0  0  0  0999 V2000
    3.3070    2.1704    0.0000 Cl  0  0  0  0  0  0  0  0  0  0  0  0
    2.4946    2.3137    0.0000 C   0  0  0  0  0  0  0  0  0  0  0  0
    1.9643    1.6817    0.0000 C   0  0  0  0  0  0  0  0  0  0  0  0
    1.1518    1.8249    0.0000 C   0  0  0  0  0  0  0  0  0  0  0  0
    0.8696    2.6002    0.0000 C   0  0  0  0  0  0  0  0  0  0  0  0
    1.3999    3.2322    0.0000 C   0  0  0  0  0  0  0  0  0  0  0  0
    2.2124    3.0889    0.0000 C   0  0  0  0  0  0  0  0  0  0  0  0
    0.0572    2.7434    0.0000 C   0  0  0  0  0  0  0  0  0  0  0  0
   -0.7553    2.6002    0.0000 C   0  0  0  0  0  0  0  0  0  0  0  0
   -1.2856    3.2322    0.0000 C   0  0  0  0  0  0  0  0  0  0  0  0
   -1.0034    4.0074    0.0000 N   0  0  0  0  0  0  0  0  0  0  0  0
   -0.1910    4.1507    0.0000 C   0  0  0  0  0  0  0  0  0  0  0  0
    0.3393    3.5187    0.0000 C   0  0  0  0  0  0  0  0  0  0  0  0
    0.0572    1.9184    0.0000 C   0  0  0  0  0  0  0  0  0  0  0  0
   -0.6573    1.5059    0.0000 C   0  0  0  0  0  0  0  0  0  0  0  0
   -0.6573    0.6809    0.0000 C   0  0  0  0  0  0  0  0  0  0  0  0
    0.0572    0.2684    0.0000 C   0  0  0  0  0  0  0  0  0  0  0  0
    0.7716    0.6809    0.0000 C   0  0  0  0  0  0  0  0  0  0  0  0
    0.7716    1.5059    0.0000 C   0  0  0  0  0  0  0  0  0  0  0  0
    0.0572   -0.5566    0.0000 C   0  0  0  0  0  0  0  0  0  0  0  0
    0.7246   -1.0415    0.0000 C   0  0  0  0  0  0  0  0  0  0  0  0
    0.4697   -1.8261    0.0000 N   0  0  0  0  0  0  0  0  0  0  0  0
   -0.3553   -1.8261    0.0000 N   0  0  0  0  0  0  0  0  0  0  0  0
   -0.6103   -1.0415    0.0000 C   0  0  0  0  0  0  0  0  0  0  0  0
  1  2  1  0
  2  3  2  0
  2  7  1  0
  3  4  1  0
  4  5  2  0
  5  6  1  0
  5  8  1  0
  6  7  2  0
  8  9  1  0
  8 13  1  0
  8 14  1  0
  9 10  1  0
 10 11  1  0
 11 12  1  0
 12 13  1  0
 14 19  1  0
 14 15  2  0
 15 16  1  0
 16 17  2  0
 17 18  1  0
 17 20  1  0
 18 19  2  0
 20 21  2  0
 20 24  1  0
 21 22  1  0
 22 23  1  0
 23 24  2  0
M  END
>  <DRUGBANK_ID>  (1) 
DB07859

>  <COMMON_NAME>  (1) 
4-(4-CHLOROPHENYL)-4-[4-(1H-PYRAZOL-4-YL)PHENYL]PIPERIDINE

>  <UNII>  (1) 
ERF7YL2CE2

$$$$
