
     RDKit          2D

 39 43  0  0  0  0  0  0  0  0999 V2000
    2.5971    1.5861    0.0000 C   0  0  0  0  0  0  0  0  0  0  0  0
    0.0811    1.1840    0.0000 C   0  0  0  0  0  0  0  0  0  0  0  0
   -4.7243    0.4512    0.0000 C   0  0  0  0  0  0  0  0  0  0  0  0
   -5.0046   -0.3247    0.0000 C   0  0  0  0  0  0  0  0  0  0  0  0
   -3.9122    0.5964    0.0000 C   0  0  0  0  0  0  0  0  0  0  0  0
    2.6258    3.7686    0.0000 C   0  0  0  0  0  0  0  0  0  0  0  0
    1.8137    3.6234    0.0000 C   0  0  0  0  0  0  0  0  0  0  0  0
    4.2213    1.8765    0.0000 C   0  0  0  0  0  0  0  0  0  0  0  0
    0.0700    3.2086    0.0000 C   0  0  0  0  0  0  0  0  0  0  0  0
    3.4092    1.7313    0.0000 C   0  0  0  0  0  0  0  0  0  0  0  0
   -0.6128    2.7457    0.0000 C   0  0  0  0  0  0  0  0  0  0  0  0
   -3.6607   -0.8102    0.0000 C   0  0  0  0  0  0  0  0  0  0  0  0
    3.9698    3.2831    0.0000 C   0  0  0  0  0  0  0  0  0  0  0  0
    0.9728    1.2956    0.0000 C   0  0  0  0  0  0  0  0  0  0  0  0
   -4.7531   -1.7313    0.0000 C   0  0  0  0  0  0  0  0  0  0  0  0
   -1.4759    1.0320    0.0000 C   0  0  0  0  0  0  0  0  0  0  0  0
   -4.4728   -0.9554    0.0000 C   0  0  0  0  0  0  0  0  0  0  0  0
   -3.3804   -0.0342    0.0000 C   0  0  0  0  0  0  0  0  0  0  0  0
    3.1577    3.1379    0.0000 C   0  0  0  0  0  0  0  0  0  0  0  0
    4.5016    2.6524    0.0000 C   0  0  0  0  0  0  0  0  0  0  0  0
    1.5334    2.8475    0.0000 C   0  0  0  0  0  0  0  0  0  0  0  0
    0.7213    2.7023    0.0000 C   0  0  0  0  0  0  0  0  0  0  0  0
    1.7850    1.4409    0.0000 C   0  0  0  0  0  0  0  0  0  0  0  0
   -1.1956    1.8079    0.0000 C   0  0  0  0  0  0  0  0  0  0  0  0
    2.0652    2.2168    0.0000 C   0  0  0  0  0  0  0  0  0  0  0  0
   -2.5683    0.1109    0.0000 C   0  0  0  0  0  0  0  0  0  0  0  0
    2.8774    2.3620    0.0000 C   0  0  0  0  0  0  0  0  0  0  0  0
    0.4410    1.9264    0.0000 C   0  0  0  0  0  0  0  0  0  0  0  0
   -0.3835    1.9532    0.0000 C   0  0  0  0  0  0  0  0  0  0  0  0
   -4.5016   -3.1379    0.0000 N   0  0  0  0  0  0  0  0  0  0  0  0
    5.3137    2.7976    0.0000 O   0  0  0  0  0  0  0  0  0  0  0  0
    2.3168    0.8102    0.0000 O   0  0  0  0  0  0  0  0  0  0  0  0
   -1.7274    2.4387    0.0000 O   0  0  0  0  0  0  0  0  0  0  0  0
   -2.0365   -0.5197    0.0000 O   0  0  0  0  0  0  0  0  0  0  0  0
   -0.3239    1.1303    0.0000 O   0  0  0  0  0  0  0  0  0  0  0  0
   -5.3137   -3.2831    0.0000 O   0  0  0  0  0  0  0  0  0  0  0  0
   -3.9698   -3.7686    0.0000 O   0  0  0  0  0  0  0  0  0  0  0  0
   -2.2880    0.8868    0.0000 O   0  0  0  0  0  0  0  0  0  0  0  0
   -4.2213   -2.3620    0.0000 O   0  0  0  0  0  0  0  0  0  0  0  0
  4  3  2  0
  5  3  1  0
  7  6  1  0
 10  8  1  0
 11  9  1  0
 17  4  1  0
 17 12  2  0
 17 15  1  0
 18  5  2  0
 18 12  1  0
 19  6  1  0
 19 13  2  0
 20  8  1  0
 20 13  1  0
 21  7  1  0
 22  9  1  0
 22 21  1  0
 23 14  1  0
 24 16  1  0
 25 21  1  0
 25 23  1  0
 26 18  1  0
 27  1  1  0
 27 10  1  0
 27 19  1  0
 27 25  1  0
 28  2  1  0
 28 14  1  0
 28 22  1  0
 29 11  1  0
 29 24  1  0
 29 28  1  0
 31 20  2  0
 32 23  1  0
 33 24  2  0
 34 26  2  0
 35 29  1  0
 36 30  1  0
 37 30  2  0
 38 16  1  0
 38 26  1  0
 39 15  1  0
 39 30  1  0
M  CHG  2  30   1  36  -1
M  END
>  <DRUGBANK_ID>  (1) 
DB05410

>  <COMMON_NAME>  (1) 
NCX 1022

>  <CAS_NUMBER>  (1) 
571186-50-0

>  <UNII>  (1) 
XY2WH7X5M5

$$$$
