
     RDKit          2D

 27 31  0  0  0  0  0  0  0  0999 V2000
    1.5662   -2.8960    0.0000 C   0  0  0  0  0  0  0  0  0  0  0  0
    1.5663   -3.7210    0.0000 C   0  0  0  0  0  0  0  0  0  0  0  0
    0.8518   -4.1335    0.0000 C   0  0  0  0  0  0  0  0  0  0  0  0
    0.1373   -3.7210    0.0000 C   0  0  0  0  0  0  0  0  0  0  0  0
    0.1373   -2.8960    0.0000 C   0  0  0  0  0  0  0  0  0  0  0  0
    0.8517   -2.4835    0.0000 C   0  0  0  0  0  0  0  0  0  0  0  0
    0.8517   -1.6585    0.0000 C   0  0  0  0  0  0  0  0  0  0  0  0
    0.1163   -2.0322    0.0000 C   0  0  0  0  0  0  0  0  0  0  0  0
    0.5657   -1.2419    0.0000 C   0  0  0  0  0  0  0  0  0  0  0  0
    0.5657   -0.4945    0.0000 C   0  0  0  0  0  0  0  0  0  0  0  0
    1.3012   -0.1208    0.0000 C   0  0  0  0  0  0  0  0  0  0  0  0
    0.8517   -0.9111    0.0000 C   0  0  0  0  0  0  0  0  0  0  0  0
    2.0368   -0.4945    0.0000 C   0  0  0  0  0  0  0  0  0  0  0  0
    2.0368   -1.2419    0.0000 C   0  0  0  0  0  0  0  0  0  0  0  0
    1.3012   -1.6156    0.0000 C   0  0  0  0  0  0  0  0  0  0  0  0
    1.5873   -2.0322    0.0000 C   0  0  0  0  0  0  0  0  0  0  0  0
    2.8344   -1.4529    0.0000 C   0  0  0  0  0  0  0  0  0  0  0  0
    3.4159   -0.8676    0.0000 O   0  0  0  0  0  0  0  0  0  0  0  0
    3.0505   -2.2490    0.0000 N   0  0  0  0  0  0  0  0  0  0  0  0
    3.8480   -2.4600    0.0000 C   0  0  0  0  0  0  0  0  0  0  0  0
    4.0641   -3.2562    0.0000 C   0  0  0  0  0  0  0  0  0  0  0  0
    4.8617   -3.4671    0.0000 C   0  0  0  0  0  0  0  0  0  0  0  0
    5.0778   -4.2633    0.0000 C   0  0  0  0  0  0  0  0  0  0  0  0
    4.4963   -4.8486    0.0000 N   0  0  0  0  0  0  0  0  0  0  0  0
    3.6988   -4.6376    0.0000 C   0  0  0  0  0  0  0  0  0  0  0  0
    3.4827   -3.8414    0.0000 C   0  0  0  0  0  0  0  0  0  0  0  0
    0.8519   -4.9585    0.0000 Cl  0  0  0  0  0  0  0  0  0  0  0  0
  1  2  2  0
  1  6  1  0
  2  3  1  0
  3  4  2  0
  3 27  1  0
  4  5  1  0
  5  6  2  0
  6  7  1  0
  7  8  1  0
  7 16  1  0
  7 12  1  0
  8  9  1  0
  9 15  1  0
  9 10  1  0
 10 11  1  0
 11 12  1  0
 11 13  1  0
 13 14  1  0
 14 16  1  0
 14 15  1  0
 14 17  1  0
 17 18  2  0
 17 19  1  0
 19 20  1  0
 20 21  1  0
 21 22  2  0
 21 26  1  0
 22 23  1  0
 23 24  2  0
 24 25  1  0
 25 26  2  0
M  END
>  <DRUGBANK_ID>  (1) 
DB12764

>  <COMMON_NAME>  (1) 
Opaganib

>  <CAS_NUMBER>  (1) 
915385-81-8

>  <UNII>  (1) 
DRG21OQ517

>  <SYNONYMS>  (1) 
4-Pyridinylmethyl 3(4-Chlorophenyl)Adamantine Carboxamide; 4-Pyridinylmethyl-3-(4-Chlorophenyl) Adamantine Carboxamide; ABC-294640; ABC294640; Opaganib; Yeliva

$$$$
