
     RDKit          2D

 29 32  0  0  0  0  0  0  0  0999 V2000
   -0.3572    0.6187    0.0000 C   0  0  0  0  0  0  0  0  0  0  0  0
    0.3572    1.0311    0.0000 N   0  0  0  0  0  0  0  0  0  0  0  0
    1.0717    0.6187    0.0000 C   0  0  0  0  0  0  0  0  0  0  0  0
    1.0717   -0.2063    0.0000 C   0  0  0  0  0  0  0  0  0  0  0  0
    0.3572   -0.6188    0.0000 C   0  0  0  0  0  0  0  0  0  0  0  0
   -0.3572   -0.2063    0.0000 N   0  0  0  0  0  0  0  0  0  0  0  0
    1.7862   -0.6188    0.0000 C   0  0  0  0  0  0  0  0  0  0  0  0
    2.5006   -0.2063    0.0000 C   0  0  0  0  0  0  0  0  0  0  0  0
    2.5006    0.6188    0.0000 C   0  0  0  0  0  0  0  0  0  0  0  0
    1.7862    1.0313    0.0000 N   0  0  0  0  0  0  0  0  0  0  0  0
    3.2151    1.0313    0.0000 O   0  0  0  0  0  0  0  0  0  0  0  0
    1.7862    1.8563    0.0000 C   0  0  0  0  0  0  0  0  0  0  0  0
   -1.0717    1.0311    0.0000 N   0  0  0  0  0  0  0  0  0  0  0  0
   -1.7862    0.6187    0.0000 C   0  0  0  0  0  0  0  0  0  0  0  0
   -2.5006    1.0311    0.0000 C   0  0  0  0  0  0  0  0  0  0  0  0
   -3.2151    0.6187    0.0000 C   0  0  0  0  0  0  0  0  0  0  0  0
   -3.2151   -0.2063    0.0000 C   0  0  0  0  0  0  0  0  0  0  0  0
   -2.5006   -0.6188    0.0000 C   0  0  0  0  0  0  0  0  0  0  0  0
   -1.7862   -0.2063    0.0000 C   0  0  0  0  0  0  0  0  0  0  0  0
   -3.9296    1.0311    0.0000 C   0  0  0  0  0  0  0  0  0  0  0  0
   -4.6441    0.6187    0.0000 O   0  0  0  0  0  0  0  0  0  0  0  0
    3.2151   -0.6188    0.0000 C   0  0  0  0  0  0  0  0  0  0  0  0
    3.9296   -0.2063    0.0000 C   0  0  0  0  0  0  0  0  0  0  0  0
    4.6441   -0.6188    0.0000 C   0  0  0  0  0  0  0  0  0  0  0  0
    4.6441   -1.4438    0.0000 C   0  0  0  0  0  0  0  0  0  0  0  0
    3.9296   -1.8563    0.0000 C   0  0  0  0  0  0  0  0  0  0  0  0
    3.2151   -1.4438    0.0000 C   0  0  0  0  0  0  0  0  0  0  0  0
    2.5006   -1.8563    0.0000 Cl  0  0  0  0  0  0  0  0  0  0  0  0
    3.9296    0.6187    0.0000 Cl  0  0  0  0  0  0  0  0  0  0  0  0
  1  2  2  0
  1  6  1  0
  1 13  1  0
  2  3  1  0
  3  4  2  0
  4  5  1  0
  5  6  2  0
  7  8  2  0
  7  4  1  0
  8  9  1  0
  8 22  1  0
  9 10  1  0
  9 11  2  0
 10  3  1  0
 10 12  1  0
 13 14  1  0
 14 15  2  0
 14 19  1  0
 15 16  1  0
 16 17  2  0
 16 20  1  0
 17 18  1  0
 18 19  2  0
 20 21  1  0
 22 23  2  0
 22 27  1  0
 23 24  1  0
 23 29  1  0
 24 25  2  0
 25 26  1  0
 26 27  2  0
 27 28  1  0
M  END
>  <DRUGBANK_ID>  (1) 
DB08339

>  <COMMON_NAME>  (1) 
PD-166326

>  <CAS_NUMBER>  (1) 
185039-91-2

>  <UNII>  (1) 
0H77F2T4U3

$$$$
