
     RDKit          2D

 34 38  0  0  1  0  0  0  0  0999 V2000
   -1.4052    1.0638    0.0000 C   0  0  0  0  0  0  0  0  0  0  0  0
   -2.0760    1.5441    0.0000 C   0  0  0  0  0  0  0  0  0  0  0  0
   -2.0816    2.3691    0.0000 N   0  0  0  0  0  0  0  0  0  0  0  0
   -2.8679    2.6187    0.0000 N   0  0  0  0  0  0  0  0  0  0  0  0
   -3.1282    3.4015    0.0000 C   0  0  0  0  0  0  0  0  0  0  0  0
   -2.5804    4.0184    0.0000 C   0  0  0  0  0  0  0  0  0  0  0  0
   -3.9364    3.5676    0.0000 C   0  0  0  0  0  0  0  0  0  0  0  0
   -3.3483    1.9480    0.0000 C   0  0  0  0  0  0  0  0  0  0  0  0
   -4.1681    1.8561    0.0000 C   0  0  0  0  0  0  0  0  0  0  0  0
   -4.4985    1.1002    0.0000 C   0  0  0  0  0  0  0  0  0  0  0  0
   -4.0090    0.4361    0.0000 C   0  0  0  0  0  0  0  0  0  0  0  0
   -3.1892    0.5279    0.0000 C   0  0  0  0  0  0  0  0  0  0  0  0
   -2.8588    1.2838    0.0000 C   0  0  0  0  0  0  0  0  0  0  0  0
   -1.4859    0.2427    0.0000 O   0  0  0  0  0  0  0  0  0  0  0  0
   -0.6539    1.4045    0.0000 N   0  0  0  0  0  0  0  0  0  0  0  0
    0.0167    0.9241    0.0000 C   0  0  0  0  0  0  0  0  0  0  0  0
   -0.1248    0.1114    0.0000 C   0  0  0  0  0  0  0  0  0  0  0  0
    0.4220   -0.5061    0.0000 C   0  0  0  0  0  0  0  0  0  0  0  0
    1.2459   -0.4634    0.0000 C   0  0  0  0  0  0  0  0  0  0  0  0
    1.7263    0.2072    0.0000 C   0  0  0  0  0  0  0  0  0  0  0  0
    1.5014    1.0009    0.0000 C   0  0  0  0  0  0  0  0  0  0  0  0
    0.5267    0.5590    0.0000 N   0  0  0  0  0  0  0  0  0  0  0  0
    1.1974    0.0786    0.0000 C   0  0  0  0  0  0  0  0  0  0  0  0
    0.8320   -1.0903    0.0000 C   0  0  0  0  0  0  0  0  0  0  0  0
    1.7350   -1.7564    0.0000 N   0  0  0  0  0  0  0  0  0  0  0  0
    2.4864   -1.4157    0.0000 C   0  0  0  0  0  0  0  0  0  0  0  0
    3.1571   -1.8960    0.0000 C   0  0  0  0  0  0  0  0  0  0  0  0
    3.0765   -2.7171    0.0000 N   0  0  0  0  0  0  0  0  0  0  0  0
    3.7472   -3.1974    0.0000 C   0  0  0  0  0  0  0  0  0  0  0  0
    3.6666   -4.0184    0.0000 O   0  0  0  0  0  0  0  0  0  0  0  0
    4.4986   -2.8567    0.0000 C   0  0  0  0  0  0  0  0  0  0  0  0
    2.3251   -3.0578    0.0000 C   0  0  0  0  0  0  0  0  0  0  0  0
    1.6544   -2.5774    0.0000 C   0  0  0  0  0  0  0  0  0  0  0  0
    0.7405    1.3201    0.0000 C   0  0  0  0  0  0  0  0  0  0  0  0
  1  2  1  0
  1 14  2  0
  1 15  1  0
  2  3  2  0
  2 13  1  0
  3  4  1  0
  4  5  1  0
  5  6  1  0
  5  7  1  0
  8  4  1  0
  8  9  2  0
  9 10  1  0
 11 10  2  0
 12 11  1  0
 13 12  2  0
 13  8  1  0
 16 15  1  1
 16 17  1  0
 16 34  1  0
 18 17  1  1
 18 19  1  0
 18 22  1  0
 20 19  1  0
 21 20  1  1
 21 22  1  0
 22 23  1  0
 23 24  1  0
 24 25  1  0
 25 26  1  0
 25 33  1  0
 26 27  1  0
 27 28  1  0
 28 29  1  0
 29 30  2  0
 29 31  1  0
 32 28  1  0
 33 32  1  0
 34 21  1  0
M  END
>  <DRUGBANK_ID>  (1) 
DB05905

>  <COMMON_NAME>  (1) 
TD-2749

>  <CAS_NUMBER>  (1) 
863248-59-3

>  <UNII>  (1) 
0ZN0AQ6SBV

$$$$
