SC8
     RDKit          2D

 25 28  0  0  0  0  0  0  0  0999 V2000
   -2.2604    1.3788    0.0000 C   0  0  0  0  0  0  0  0  0  0  0  0
   -1.4758    1.1239    0.0000 C   0  0  0  0  0  0  0  0  0  0  0  0
   -1.4758    0.2989    0.0000 N   0  0  0  0  0  0  0  0  0  0  0  0
   -2.2604    0.0440    0.0000 N   0  0  0  0  0  0  0  0  0  0  0  0
   -2.7453    0.7114    0.0000 C   0  0  0  0  0  0  0  0  0  0  0  0
   -0.7613    1.5364    0.0000 N   0  0  0  0  0  0  0  0  0  0  0  0
   -0.0469    1.1239    0.0000 C   0  0  0  0  0  0  0  0  0  0  0  0
   -0.0469    0.2989    0.0000 C   0  0  0  0  0  0  0  0  0  0  0  0
   -0.7613   -0.1136    0.0000 C   0  0  0  0  0  0  0  0  0  0  0  0
   -0.7613   -0.9386    0.0000 N   0  0  0  0  0  0  0  0  0  0  0  0
    0.6676    1.5364    0.0000 C   0  0  0  0  0  0  0  0  0  0  0  0
   -1.4758   -1.3511    0.0000 C   0  0  0  0  0  0  0  0  0  0  0  0
   -1.4758   -2.1761    0.0000 C   0  0  0  0  0  0  0  0  0  0  0  0
   -0.7613   -2.5886    0.0000 C   0  0  0  0  0  0  0  0  0  0  0  0
   -0.7613   -3.4136    0.0000 C   0  0  0  0  0  0  0  0  0  0  0  0
   -1.4758   -3.8261    0.0000 N   0  0  0  0  0  0  0  0  0  0  0  0
   -2.1903   -3.4136    0.0000 C   0  0  0  0  0  0  0  0  0  0  0  0
   -2.1903   -2.5886    0.0000 C   0  0  0  0  0  0  0  0  0  0  0  0
    0.6676    2.3614    0.0000 C   0  0  0  0  0  0  0  0  0  0  0  0
    1.3821    2.7739    0.0000 C   0  0  0  0  0  0  0  0  0  0  0  0
    2.0966    2.3614    0.0000 C   0  0  0  0  0  0  0  0  0  0  0  0
    2.0966    1.5364    0.0000 C   0  0  0  0  0  0  0  0  0  0  0  0
    1.3821    1.1239    0.0000 C   0  0  0  0  0  0  0  0  0  0  0  0
    1.3821    0.2989    0.0000 Cl  0  0  0  0  0  0  0  0  0  0  0  0
    2.8110    1.1239    0.0000 Cl  0  0  0  0  0  0  0  0  0  0  0  0
  1  2  2  0
  2  6  1  0
  3  9  1  0
  3  2  1  0
  4  5  2  0
  4  3  1  0
  5  1  1  0
  6  7  2  0
  7 11  1  0
  8  7  1  0
  9  8  2  0
 10 12  1  0
 10  9  1  0
 11 19  2  0
 13 14  2  0
 13 12  1  0
 15 14  1  0
 16 15  2  0
 17 16  1  0
 17 18  2  0
 18 13  1  0
 19 20  1  0
 21 20  2  0
 22 21  1  0
 23 11  1  0
 23 22  2  0
 24 23  1  0
 25 22  1  0
M  END
>  <DRUGBANK_ID>  (1) 
DB08531

>  <COMMON_NAME>  (1) 
5-(2,3-dichlorophenyl)-N-(pyridin-4-ylmethyl)pyrazolo[1,5-a]pyrimidin-7-amine

$$$$
