BHG
     RDKit          2D

 18 18  0  0  0  0  0  0  0  0999 V2000
   -0.5339    0.1729    0.0000 C   0  0  0  0  0  0  0  0  0  0  0  0
    0.1805    0.5854    0.0000 O   0  0  0  0  0  0  0  0  0  0  0  0
   -0.5339   -0.6521    0.0000 C   0  0  0  0  0  0  0  0  0  0  0  0
    0.1805   -1.0646    0.0000 O   0  0  0  0  0  0  0  0  0  0  0  0
   -1.2484   -1.0646    0.0000 C   0  0  0  0  0  0  0  0  0  0  0  0
   -1.2484   -1.8896    0.0000 O   0  0  0  0  0  0  0  0  0  0  0  0
   -1.9629   -0.6521    0.0000 C   0  0  0  0  0  0  0  0  0  0  0  0
   -2.6774   -1.0646    0.0000 O   0  0  0  0  0  0  0  0  0  0  0  0
   -1.9629    0.1729    0.0000 C   0  0  0  0  0  0  0  0  0  0  0  0
   -1.2484    0.5854    0.0000 O   0  0  0  0  0  0  0  0  0  0  0  0
   -2.6774    0.5854    0.0000 C   0  0  0  0  0  0  0  0  0  0  0  0
   -2.6774    1.4104    0.0000 O   0  0  0  0  0  0  0  0  0  0  0  0
    0.8950    0.1729    0.0000 C   0  0  0  0  0  0  0  0  0  0  0  0
    1.6095    0.5854    0.0000 C   0  0  0  0  0  0  0  0  0  0  0  0
    2.3239    0.1729    0.0000 C   0  0  0  0  0  0  0  0  0  0  0  0
    3.0384    0.5854    0.0000 C   0  0  0  0  0  0  0  0  0  0  0  0
    3.7529    0.1729    0.0000 C   0  0  0  0  0  0  0  0  0  0  0  0
    4.4674    0.5854    0.0000 C   0  0  0  0  0  0  0  0  0  0  0  0
  1  2  1  1
  1  3  1  0
  1 10  1  0
  2 13  1  0
  3  4  1  6
  3  5  1  0
  5  6  1  1
  5  7  1  0
  7  8  1  1
  7  9  1  0
  9 10  1  0
  9 11  1  1
 11 12  1  0
 13 14  1  0
 14 15  1  0
 15 16  1  0
 16 17  1  0
 17 18  1  0
M  END
>  <DRUGBANK_ID>  (1) 
DB04141

>  <SECONDARY_ACCESSION_NUMBERS>  (1) 
EXPT00697

>  <COMMON_NAME>  (1) 
2-Hexyloxy-6-Hydroxymethyl-Tetrahydro-Pyran-3,4,5-Triol

$$$$
