
     RDKit          2D

 29 28  0  0  0  0  0  0  0  0999 V2000
   -0.5743    2.8066    0.0000 C   0  0  0  0  0  0  0  0  0  0  0  0
    0.1401    2.3941    0.0000 C   0  0  0  0  0  0  0  0  0  0  0  0
    0.1401    1.5691    0.0000 C   0  0  0  0  0  0  0  0  0  0  0  0
    0.8546    1.1566    0.0000 C   0  0  0  0  0  0  0  0  0  0  0  0
    0.8546    0.3316    0.0000 C   0  0  0  0  0  0  0  0  0  0  0  0
    1.5691   -0.0809    0.0000 C   0  0  0  0  0  0  0  0  0  0  0  0
    1.5691   -0.9059    0.0000 C   0  0  0  0  0  0  0  0  0  0  0  0
    2.2836   -1.3184    0.0000 C   0  0  0  0  0  0  0  0  0  0  0  0
    2.2836   -2.1434    0.0000 C   0  0  0  0  0  0  0  0  0  0  0  0
    2.9980   -2.5559    0.0000 C   0  0  0  0  0  0  0  0  0  0  0  0
    3.7125   -2.1434    0.0000 C   0  0  0  0  0  0  0  0  0  0  0  0
    4.4270   -2.5559    0.0000 C   0  0  0  0  0  0  0  0  0  0  0  0
    5.1414   -2.1434    0.0000 C   0  0  0  0  0  0  0  0  0  0  0  0
    5.8559   -2.5559    0.0000 C   0  0  0  0  0  0  0  0  0  0  0  0
    6.5704   -2.1434    0.0000 C   0  0  0  0  0  0  0  0  0  0  0  0
    7.2849   -2.5559    0.0000 C   0  0  0  0  0  0  0  0  0  0  0  0
    7.9993   -2.1434    0.0000 C   0  0  0  0  0  0  0  0  0  0  0  0
    8.7138   -2.5559    0.0000 C   0  0  0  0  0  0  0  0  0  0  0  0
    9.4283   -2.1434    0.0000 O   0  0  0  0  0  0  0  0  0  0  0  0
   10.1427   -2.5559    0.0000 P   0  0  0  0  0  0  0  0  0  0  0  0
    9.7302   -3.2704    0.0000 O   0  0  0  0  0  0  0  0  0  0  0  0
   10.5552   -1.8414    0.0000 O   0  0  0  0  0  0  0  0  0  0  0  0
   10.8572   -2.9684    0.0000 O   0  0  0  0  0  0  0  0  0  0  0  0
   11.5717   -2.5559    0.0000 C   0  0  0  0  0  0  0  0  0  0  0  0
   12.2862   -2.9684    0.0000 C   0  0  0  0  0  0  0  0  0  0  0  0
   13.0006   -2.5559    0.0000 N   0  0  0  0  0  0  0  0  0  0  0  0
   13.7151   -2.1434    0.0000 C   0  0  0  0  0  0  0  0  0  0  0  0
   13.4131   -3.2704    0.0000 C   0  0  0  0  0  0  0  0  0  0  0  0
   12.5881   -1.8414    0.0000 C   0  0  0  0  0  0  0  0  0  0  0  0
  1  2  1  0
  2  3  1  0
  3  4  1  0
  4  5  1  0
  5  6  1  0
  6  7  1  0
  7  8  1  0
  8  9  1  0
  9 10  2  0
 10 11  1  0
 11 12  1  0
 12 13  1  0
 13 14  1  0
 14 15  1  0
 15 16  1  0
 16 17  1  0
 17 18  1  0
 18 19  1  0
 19 20  1  0
 20 21  1  0
 20 22  2  0
 20 23  1  0
 23 24  1  0
 24 25  1  0
 25 26  1  0
 26 27  1  0
 26 28  1  0
 26 29  1  0
M  CHG  2  21  -1  26   1
M  END
>  <DRUGBANK_ID>  (1) 
DB17750

>  <COMMON_NAME>  (1) 
Oleylphosphocholine

>  <CAS_NUMBER>  (1) 
76622-80-5

>  <UNII>  (1) 
Z46GXL23LX

>  <SYNONYMS>  (1) 
Cis-9-octadecenylphosphocholine; Ethanaminium, 2-((hydroxy((9z)-9-octadecen-1-yloxy)phosphinyl)oxy)-n,n,n-trimethyl-, inner salt; Ethanaminium, 2-((hydroxy(9-octadecenyloxy)phosphinyl)oxy)-n,n,n-trimethyl-, inner salt, (z)-; Oleyl phosphocholine

$$$$
