J54
     RDKit          2D

 17 17  0  0  0  0  0  0  0  0999 V2000
   -3.6747   -0.0296    0.0000 O   0  0  0  0  0  0  0  0  0  0  0  0
   -2.9602    0.3829    0.0000 C   0  0  0  0  0  0  0  0  0  0  0  0
   -2.2457   -0.0296    0.0000 C   0  0  0  0  0  0  0  0  0  0  0  0
   -2.2457   -0.8546    0.0000 O   0  0  0  0  0  0  0  0  0  0  0  0
   -1.5312    0.3829    0.0000 C   0  0  0  0  0  0  0  0  0  0  0  0
   -0.8168   -0.0296    0.0000 N   0  0  0  0  0  0  0  0  0  0  0  0
   -0.1023    0.3829    0.0000 C   0  0  0  0  0  0  0  0  0  0  0  0
   -0.1023    1.2079    0.0000 O   0  0  0  0  0  0  0  0  0  0  0  0
    0.6122   -0.0296    0.0000 N   0  0  0  0  0  0  0  0  0  0  0  0
    1.3266    0.3829    0.0000 C   0  0  0  0  0  0  0  0  0  0  0  0
    2.0411   -0.0296    0.0000 C   0  0  0  0  0  0  0  0  0  0  0  0
    2.7556    0.3829    0.0000 C   0  0  0  0  0  0  0  0  0  0  0  0
    3.4701   -0.0296    0.0000 C   0  0  0  0  0  0  0  0  0  0  0  0
    3.4701   -0.8546    0.0000 C   0  0  0  0  0  0  0  0  0  0  0  0
    2.7556   -1.2671    0.0000 C   0  0  0  0  0  0  0  0  0  0  0  0
    2.0411   -0.8546    0.0000 C   0  0  0  0  0  0  0  0  0  0  0  0
   -2.9602    1.2079    0.0000 O   0  0  0  0  0  0  0  0  0  0  0  0
  1  2  2  0
  2  3  1  0
  2 17  1  0
  3  4  1  1
  3  5  1  0
  5  6  1  0
  6  7  1  0
  7  8  2  0
  7  9  1  0
  9 10  1  0
 10 11  1  0
 11 12  2  0
 11 16  1  0
 12 13  1  0
 13 14  2  0
 14 15  1  0
 15 16  2  0
M  END
>  <DRUGBANK_ID>  (1) 
DB08007

>  <COMMON_NAME>  (1) 
(2R)-3-{[(BENZYLAMINO)CARBONYL]AMINO}-2-HYDROXYPROPANOIC ACID

$$$$
