
     RDKit          2D

 29 31  0  0  0  0  0  0  0  0999 V2000
    1.0425    1.5641    0.0000 S   0  0  0  0  0  0  0  0  0  0  0  0
    3.7158    3.4992    0.0000 S   0  0  0  0  0  0  0  0  0  0  0  0
   -1.0486    0.1083    0.0000 O   0  0  0  0  0  0  0  0  0  0  0  0
   -3.1426    0.5246    0.0000 O   0  0  0  0  0  0  0  0  0  0  0  0
   -2.0850    1.9747    0.0000 O   0  0  0  0  0  0  0  0  0  0  0  0
    0.3741    1.0802    0.0000 O   0  0  0  0  0  0  0  0  0  0  0  0
    0.5587    2.2324    0.0000 O   0  0  0  0  0  0  0  0  0  0  0  0
    1.5263    0.8958    0.0000 O   0  0  0  0  0  0  0  0  0  0  0  0
    2.5487    0.8903    0.0000 O   0  0  0  0  0  0  0  0  0  0  0  0
   -2.0900   -0.9294    0.0000 N   0  0  0  0  0  0  0  0  0  0  0  0
   -2.0900   -2.2573    0.0000 N   0  0  0  0  0  0  0  0  0  0  0  0
   -3.5852   -0.7683    0.0000 N   0  0  0  0  0  0  0  0  0  0  0  0
    1.7108    2.0478    0.0000 N   0  0  0  0  0  0  0  0  0  0  0  0
   -4.2997   -2.0058    0.0000 N   0  0  0  0  0  0  0  0  0  0  0  0
   -3.5852   -3.2435    0.0000 N   0  0  0  0  0  0  0  0  0  0  0  0
    3.8854    1.8578    0.0000 N   0  0  0  0  0  0  0  0  0  0  0  0
   -2.3176    0.5231    0.0000 C   0  0  0  0  0  0  0  0  0  0  0  0
   -1.8314    1.1896    0.0000 C   0  0  0  0  0  0  0  0  0  0  0  0
   -1.8337   -0.1451    0.0000 C   0  0  0  0  0  0  0  0  0  0  0  0
   -1.0471    0.9334    0.0000 C   0  0  0  0  0  0  0  0  0  0  0  0
   -0.3788    1.4172    0.0000 C   0  0  0  0  0  0  0  0  0  0  0  0
   -2.8706   -1.1808    0.0000 C   0  0  0  0  0  0  0  0  0  0  0  0
   -1.6085   -1.5934    0.0000 C   0  0  0  0  0  0  0  0  0  0  0  0
   -2.8706   -2.0058    0.0000 C   0  0  0  0  0  0  0  0  0  0  0  0
   -3.5852   -2.4184    0.0000 C   0  0  0  0  0  0  0  0  0  0  0  0
   -4.2997   -1.1808    0.0000 C   0  0  0  0  0  0  0  0  0  0  0  0
    2.4639    1.7110    0.0000 C   0  0  0  0  0  0  0  0  0  0  0  0
    3.1323    2.1949    0.0000 C   0  0  0  0  0  0  0  0  0  0  0  0
    3.0475    3.0155    0.0000 C   0  0  0  0  0  0  0  0  0  0  0  0
  1  6  1  0
  1  7  2  0
  1  8  2  0
  1 13  1  0
  2 29  1  0
  3 19  1  0
  3 20  1  0
  6 21  1  0
  9 27  2  0
 10 22  1  0
 10 23  1  0
 11 23  2  0
 11 24  1  0
 12 22  1  0
 12 26  2  0
 13 27  1  0
 14 25  2  0
 14 26  1  0
 15 25  1  0
 17  4  1  6
 17 18  1  0
 17 19  1  0
 18  5  1  6
 18 20  1  0
 19 10  1  1
 20 21  1  1
 22 24  2  0
 24 25  1  0
 27 28  1  0
 28 16  1  6
 28 29  1  0
M  END
>  <DRUGBANK_ID>  (1) 
DB02684

>  <SECONDARY_ACCESSION_NUMBERS>  (1) 
EXPT00241

>  <COMMON_NAME>  (1) 
5'-O-(L-Cysteinylsulfamoyl)adenosine

>  <SYNONYMS>  (1) 
5'-O-(N-(L-Cysteinyl)-sulfamoyl)adenosine

$$$$
