
     RDKit          2D

 24 23  0  0  0  0  0  0  0  0999 V2000
   -0.3563    0.2026    0.0000 C   0  0  0  0  0  0  0  0  0  0  0  0
   -1.0708   -0.2114    0.0000 C   0  0  0  0  0  0  0  0  0  0  0  0
   -0.3633    1.0276    0.0000 O   0  0  0  0  0  0  0  0  0  0  0  0
   -1.7853    0.2026    0.0000 C   0  0  0  0  0  0  0  0  0  0  0  0
   -2.4962   -0.2114    0.0000 C   0  0  0  0  0  0  0  0  0  0  0  0
   -3.2108    0.2026    0.0000 C   0  0  0  0  0  0  0  0  0  0  0  0
   -3.9288   -0.2114    0.0000 C   0  0  0  0  0  0  0  0  0  0  0  0
   -3.2143    1.0276    0.0000 N   0  0  0  0  0  0  0  0  0  0  0  0
   -4.6467    0.1992    0.0000 O   0  0  0  0  0  0  0  0  0  0  0  0
   -3.9322   -1.0364    0.0000 O   0  0  0  0  0  0  0  0  0  0  0  0
    0.3600   -0.2062    0.0000 N   0  0  0  0  0  0  0  0  0  0  0  0
    1.7889   -0.2062    0.0000 C   0  0  0  0  0  0  0  0  0  0  0  0
    1.0744    0.2062    0.0000 C   0  0  0  0  0  0  0  0  0  0  0  0
    2.5033    0.2062    0.0000 N   0  0  0  0  0  0  0  0  0  0  0  0
    0.3600    1.4437    0.0000 S   0  0  0  0  0  0  0  0  0  0  0  0
    1.0744    1.0312    0.0000 C   0  0  0  0  0  0  0  0  0  0  0  0
    1.7889   -1.0312    0.0000 O   0  0  0  0  0  0  0  0  0  0  0  0
    3.9323    0.2062    0.0000 C   0  0  0  0  0  0  0  0  0  0  0  0
    3.2178   -0.2062    0.0000 C   0  0  0  0  0  0  0  0  0  0  0  0
    4.6467   -0.2062    0.0000 O   0  0  0  0  0  0  0  0  0  0  0  0
    3.2178   -1.0312    0.0000 C   0  0  0  0  0  0  0  0  0  0  0  0
    3.9323   -1.4437    0.0000 C   0  0  0  0  0  0  0  0  0  0  0  0
    2.5033   -1.4437    0.0000 C   0  0  0  0  0  0  0  0  0  0  0  0
    3.9323    1.0312    0.0000 O   0  0  0  0  0  0  0  0  0  0  0  0
  1  2  1  0
  1  3  2  0
  1 11  1  0
  2  4  1  0
  4  5  1  0
  5  6  1  0
  6  7  1  0
  6  8  1  1
  7  9  1  0
  7 10  2  0
 12 13  1  0
 12 14  1  0
 13 11  1  0
 13 16  1  1
 15 16  1  0
 17 12  2  0
 18 19  1  0
 18 20  1  0
 19 14  1  1
 19 21  1  0
 21 22  1  0
 21 23  1  0
 24 18  2  0
M  END
>  <DRUGBANK_ID>  (1) 
DB02025

>  <SECONDARY_ACCESSION_NUMBERS>  (1) 
EXPT00421

>  <COMMON_NAME>  (1) 
ACV tripeptide

>  <CAS_NUMBER>  (1) 
32467-88-2

>  <UNII>  (1) 
O3VOU3H9VS

>  <SYNONYMS>  (1) 
(alpha-Aminoadipyl)-cys-val; 5-(2-Aminoad)-cys-val; AADCV; ACV; delta(L-2-Aminoadipyl)-L-cysteinyl-D-valine; L-delta-(alpha-Aminoadipoyl)-L-cysteinyl-D-valine; N-[L-5-Amino-5-carboxypentanoyl]-L-cysteinyl-D-valine

$$$$
