VX2
     RDKit          2D

 26 29  0  0  0  0  0  0  0  0999 V2000
   -3.2905    1.5618    0.0000 C   0  0  0  0  0  0  0  0  0  0  0  0
   -1.1666   -1.6854    0.0000 N   0  0  0  0  0  0  0  0  0  0  0  0
   -1.9314    2.0033    0.0000 C   0  0  0  0  0  0  0  0  0  0  0  0
   -1.1245    1.8318    0.0000 C   0  0  0  0  0  0  0  0  0  0  0  0
   -0.8695    1.0472    0.0000 C   0  0  0  0  0  0  0  0  0  0  0  0
   -0.3820   -1.4305    0.0000 C   0  0  0  0  0  0  0  0  0  0  0  0
    0.3325   -1.8430    0.0000 C   0  0  0  0  0  0  0  0  0  0  0  0
    1.0469   -0.6055    0.0000 C   0  0  0  0  0  0  0  0  0  0  0  0
    2.4759   -0.6055    0.0000 C   0  0  0  0  0  0  0  0  0  0  0  0
   -2.4835    1.3902    0.0000 C   0  0  0  0  0  0  0  0  0  0  0  0
   -2.2285    0.6056    0.0000 C   0  0  0  0  0  0  0  0  0  0  0  0
    1.0469   -1.4305    0.0000 C   0  0  0  0  0  0  0  0  0  0  0  0
    3.9048   -0.6055    0.0000 C   0  0  0  0  0  0  0  0  0  0  0  0
   -1.6516   -1.0180    0.0000 N   0  0  0  0  0  0  0  0  0  0  0  0
   -4.0974    1.7333    0.0000 F   0  0  0  0  0  0  0  0  0  0  0  0
   -3.4620    0.7548    0.0000 F   0  0  0  0  0  0  0  0  0  0  0  0
   -3.1189    2.3687    0.0000 F   0  0  0  0  0  0  0  0  0  0  0  0
   -1.4216    0.4341    0.0000 C   0  0  0  0  0  0  0  0  0  0  0  0
   -1.1666   -0.3505    0.0000 C   0  0  0  0  0  0  0  0  0  0  0  0
    1.7614   -0.1930    0.0000 N   0  0  0  0  0  0  0  0  0  0  0  0
    3.1903   -0.1930    0.0000 C   0  0  0  0  0  0  0  0  0  0  0  0
    3.9048   -1.4305    0.0000 C   0  0  0  0  0  0  0  0  0  0  0  0
    3.1903   -1.8430    0.0000 C   0  0  0  0  0  0  0  0  0  0  0  0
    2.4759   -1.4305    0.0000 C   0  0  0  0  0  0  0  0  0  0  0  0
    0.3325   -0.1930    0.0000 N   0  0  0  0  0  0  0  0  0  0  0  0
   -0.3820   -0.6055    0.0000 N   0  0  0  0  0  0  0  0  0  0  0  0
  1 15  1  0
  1 10  1  0
  2 14  1  0
  3  4  2  0
  5  4  1  0
  6  2  2  0
  7  6  1  0
  8 12  1  0
  8 25  2  0
  9 21  1  0
  9 20  1  0
 10  3  1  0
 11 10  2  0
 11 18  1  0
 12  7  2  0
 13 21  1  0
 16  1  1  0
 17  1  1  0
 18  5  2  0
 19 14  2  0
 19 18  1  0
 20  8  1  0
 22 13  1  0
 23 22  1  0
 23 24  1  0
 24  9  1  0
 25 26  1  0
 26  6  1  0
 26 19  1  0
M  END
>  <DRUGBANK_ID>  (1) 
DB08708

>  <COMMON_NAME>  (1) 
N-cyclohexyl-3-[3-(trifluoromethyl)phenyl][1,2,4]triazolo[4,3-b]pyridazin-6-amine

$$$$
