
     RDKit          2D

 40 42  0  0  0  0  0  0  0  0999 V2000
   -2.4891    1.1731    0.0000 O   0  0  0  0  0  0  0  0  0  0  0  0
   -3.2034    1.5855    0.0000 C   0  0  0  0  0  0  0  0  0  0  0  0
   -3.2034    2.4105    0.0000 O   0  0  0  0  0  0  0  0  0  0  0  0
   -3.9180    1.1731    0.0000 N   0  0  0  0  0  0  0  0  0  0  0  0
   -3.9180    0.3482    0.0000 C   0  0  0  0  0  0  0  0  0  0  0  0
   -4.6324   -0.0648    0.0000 C   0  0  0  0  0  0  0  0  0  0  0  0
   -5.3468    0.3482    0.0000 N   0  0  0  0  0  0  0  0  0  0  0  0
   -5.3468    1.1731    0.0000 C   0  0  0  0  0  0  0  0  0  0  0  0
   -4.6324    1.5855    0.0000 C   0  0  0  0  0  0  0  0  0  0  0  0
   -6.0651   -0.0648    0.0000 C   0  0  0  0  0  0  0  0  0  0  0  0
   -2.4891    0.3482    0.0000 C   0  0  0  0  0  0  0  0  0  0  0  0
   -1.6641    0.3482    0.0000 C   0  0  0  0  0  0  0  0  0  0  0  0
   -1.0809   -0.2366    0.0000 C   0  0  0  0  0  0  0  0  0  0  0  0
   -0.3666    0.1770    0.0000 C   0  0  0  0  0  0  0  0  0  0  0  0
   -0.3666    1.0020    0.0000 C   0  0  0  0  0  0  0  0  0  0  0  0
    0.3505   -0.2366    0.0000 C   0  0  0  0  0  0  0  0  0  0  0  0
    1.0640    0.1770    0.0000 C   0  0  0  0  0  0  0  0  0  0  0  0
    1.7796   -0.2366    0.0000 C   0  0  0  0  0  0  0  0  0  0  0  0
    2.4932    0.1770    0.0000 C   0  0  0  0  0  0  0  0  0  0  0  0
    3.2067   -0.2366    0.0000 C   0  0  0  0  0  0  0  0  0  0  0  0
    3.9223    0.1770    0.0000 C   0  0  0  0  0  0  0  0  0  0  0  0
    3.9223    1.0020    0.0000 C   0  0  0  0  0  0  0  0  0  0  0  0
    4.6359   -0.2366    0.0000 C   0  0  0  0  0  0  0  0  0  0  0  0
    5.3495    0.1770    0.0000 C   0  0  0  0  0  0  0  0  0  0  0  0
    6.0651   -0.2366    0.0000 C   0  0  0  0  0  0  0  0  0  0  0  0
    6.0651   -1.0615    0.0000 C   0  0  0  0  0  0  0  0  0  0  0  0
    5.3495   -1.4729    0.0000 C   0  0  0  0  0  0  0  0  0  0  0  0
    4.6359   -1.0615    0.0000 N   0  0  0  0  0  0  0  0  0  0  0  0
    1.0640    1.0020    0.0000 C   0  0  0  0  0  0  0  0  0  0  0  0
    0.3505   -1.0615    0.0000 O   0  0  0  0  0  0  0  0  0  0  0  0
   -0.3666   -1.4729    0.0000 C   0  0  0  0  0  0  0  0  0  0  0  0
   -1.0809   -1.0615    0.0000 C   0  0  0  0  0  0  0  0  0  0  0  0
   -1.6641   -1.6449    0.0000 C   0  0  0  0  0  0  0  0  0  0  0  0
   -2.4891   -1.6449    0.0000 C   0  0  0  0  0  0  0  0  0  0  0  0
   -3.0745   -1.0615    0.0000 C   0  0  0  0  0  0  0  0  0  0  0  0
   -3.0745   -0.2366    0.0000 C   0  0  0  0  0  0  0  0  0  0  0  0
   -3.4860    0.4780    0.0000 C   0  0  0  0  0  0  0  0  0  0  0  0
   -3.8707   -0.4496    0.0000 O   0  0  0  0  0  0  0  0  0  0  0  0
   -1.3552   -2.4105    0.0000 O   0  0  0  0  0  0  0  0  0  0  0  0
   -0.3666   -2.2979    0.0000 O   0  0  0  0  0  0  0  0  0  0  0  0
  2  1  1  0
  3  2  2  0
  4  2  1  0
  5  4  1  0
  6  5  1  0
  7  6  1  0
  8  7  1  0
  9  4  1  0
  9  8  1  0
 10  7  1  0
 11  1  1  1
 12 11  1  0
 13 12  2  0
 14 13  1  0
 14 15  1  6
 16 14  1  0
 16 17  1  1
 18 17  2  0
 19 18  1  0
 20 19  2  0
 21 20  1  0
 21 22  1  1
 23 21  1  0
 24 23  2  0
 25 24  1  0
 26 25  2  0
 27 26  1  0
 28 23  1  0
 28 27  2  0
 29 17  1  0
 30 16  1  0
 31 30  1  0
 32 31  1  0
 33 32  1  0
 33 39  1  6
 34 33  1  0
 35 34  1  0
 36 11  1  0
 36 35  1  0
 36 37  1  6
 36 38  1  0
 40 31  2  0
M  END
>  <DRUGBANK_ID>  (1) 
DB14017

>  <COMMON_NAME>  (1) 
H3B-8800

>  <CAS_NUMBER>  (1) 
1825302-42-8

>  <UNII>  (1) 
90YLS47BRX

>  <SYNONYMS>  (1) 
(2S,3S,4E,6S,7R,10R)-7,10-Dihydroxy-3,7-dimethyl-12-oxo-2-[(2E,4E,6R)-6-(2-pyridinyl)-2,4-heptadien-2-yl]oxacyclododec-4-en-6-yl 4-methyl-1-piperazinecarboxylate; (2S,3S,4E,6S,7R,10R)-7,10-Dihydroxy-3,7-Dimethyl-12-Oxo-2-[(2E,4E,6R)-6-(Pyridin-2-Yl)Hepta-2,4-Dien-2-Yl]Oxacyclododec-4-En-6-Yl 4-Methylpiperazine-1-Carboxylate; 1-PIPERAZINECARBOXYLIC ACID, 4-METHYL-, (2S,3S,4E,6S,7R,10R)-7,10-DIHYDROXY-3,7-DIMETHYL-2-((1E,3E,5R)-1-METHYL-5-(2-PYRIDINYL)-1,3-HEXADIEN-1-YL)-12-OXOOXACYCLODODEC-4-EN-6-YL ESTER

$$$$
