
     RDKit          2D

 18 20  0  0  1  0  0  0  0  0999 V2000
    0.6592   -0.4677    0.0000 C   0  0  0  0  0  0  0  0  0  0  0  0
    1.4843   -0.4677    0.0000 C   0  0  0  0  0  0  0  0  0  0  0  0
    1.0718   -1.1822    0.0000 C   0  0  0  0  0  0  0  0  0  0  0  0
   -0.0552   -0.0553    0.0000 N   0  0  0  0  0  0  0  0  0  0  0  0
    2.1987   -0.0553    0.0000 C   0  0  0  0  0  0  0  0  0  0  0  0
    2.1987    0.7697    0.0000 C   0  0  0  0  0  0  0  0  0  0  0  0
    2.9132    1.1822    0.0000 C   0  0  0  0  0  0  0  0  0  0  0  0
    3.6278    0.7697    0.0000 C   0  0  0  0  0  0  0  0  0  0  0  0
    3.6278   -0.0553    0.0000 C   0  0  0  0  0  0  0  0  0  0  0  0
    2.9132   -0.4677    0.0000 C   0  0  0  0  0  0  0  0  0  0  0  0
   -0.7698   -0.4677    0.0000 C   0  0  0  0  0  0  0  0  0  0  0  0
   -1.4842    0.7697    0.0000 C   0  0  0  0  0  0  0  0  0  0  0  0
   -1.4842   -0.0553    0.0000 C   0  0  0  0  0  0  0  0  0  0  0  0
   -2.1987   -0.4677    0.0000 C   0  0  0  0  0  0  0  0  0  0  0  0
   -2.9132   -0.0553    0.0000 C   0  0  0  0  0  0  0  0  0  0  0  0
   -2.9132    0.7697    0.0000 C   0  0  0  0  0  0  0  0  0  0  0  0
   -2.1987    1.1822    0.0000 C   0  0  0  0  0  0  0  0  0  0  0  0
   -3.6278    1.1822    0.0000 N   0  0  0  0  0  0  0  0  0  0  0  0
  1  2  1  0
  1  3  1  0
  1  4  1  1
  2  3  1  0
  2  5  1  6
  4 11  1  0
  5  6  2  0
  5 10  1  0
  6  7  1  0
  7  8  2  0
  8  9  1  0
  9 10  2  0
 11 13  1  0
 12 13  1  0
 12 17  1  0
 13 14  1  0
 14 15  1  0
 15 16  1  0
 16 17  1  0
 16 18  1  0
M  END
>  <DRUGBANK_ID>  (1) 
DB16848

>  <COMMON_NAME>  (1) 
ORY-1001

>  <CAS_NUMBER>  (1) 
1401966-39-9

>  <UNII>  (1) 
XC0UT08SNJ

>  <SYNONYMS>  (1) 
Iadademstat

$$$$
