
     RDKit          2D

 31 35  0  0  0  0  0  0  0  0999 V2000
    0.1536   -2.7631    0.0000 C   0  0  0  0  0  0  0  0  0  0  0  0
   -0.3984   -2.1500    0.0000 C   0  0  0  0  0  0  0  0  0  0  0  0
   -0.1435   -1.3654    0.0000 N   0  0  0  0  0  0  0  0  0  0  0  0
    0.6411   -1.1104    0.0000 C   0  0  0  0  0  0  0  0  0  0  0  0
    0.6411   -0.2854    0.0000 C   0  0  0  0  0  0  0  0  0  0  0  0
   -0.1435   -0.0305    0.0000 C   0  0  0  0  0  0  0  0  0  0  0  0
   -0.6284   -0.6979    0.0000 N   0  0  0  0  0  0  0  0  0  0  0  0
    1.3556    0.1271    0.0000 C   0  0  0  0  0  0  0  0  0  0  0  0
    2.0701   -0.2854    0.0000 C   0  0  0  0  0  0  0  0  0  0  0  0
    2.0701   -1.1104    0.0000 C   0  0  0  0  0  0  0  0  0  0  0  0
    1.3556   -1.5229    0.0000 N   0  0  0  0  0  0  0  0  0  0  0  0
    2.7845    0.1271    0.0000 C   0  0  0  0  0  0  0  0  0  0  0  0
    2.8708    0.9475    0.0000 N   0  0  0  0  0  0  0  0  0  0  0  0
    3.6777    1.1191    0.0000 N   0  0  0  0  0  0  0  0  0  0  0  0
    4.0902    0.4046    0.0000 C   0  0  0  0  0  0  0  0  0  0  0  0
    3.5382   -0.2085    0.0000 O   0  0  0  0  0  0  0  0  0  0  0  0
    4.9107    0.3184    0.0000 C   0  0  0  0  0  0  0  0  0  0  0  0
    5.3956    0.9858    0.0000 C   0  0  0  0  0  0  0  0  0  0  0  0
    5.1407    1.7704    0.0000 C   0  0  0  0  0  0  0  0  0  0  0  0
    5.8081    2.2553    0.0000 N   0  0  0  0  0  0  0  0  0  0  0  0
    6.4756    1.7704    0.0000 C   0  0  0  0  0  0  0  0  0  0  0  0
    6.2206    0.9858    0.0000 S   0  0  0  0  0  0  0  0  0  0  0  0
    7.2602    2.0254    0.0000 C   0  0  0  0  0  0  0  0  0  0  0  0
    4.3561    2.0254    0.0000 C   0  0  0  0  0  0  0  0  0  0  0  0
    1.3556    0.9521    0.0000 N   0  0  0  0  0  0  0  0  0  0  0  0
    0.6411    1.3646    0.0000 C   0  0  0  0  0  0  0  0  0  0  0  0
   -0.0734    0.9521    0.0000 C   0  0  0  0  0  0  0  0  0  0  0  0
   -0.7878    1.3646    0.0000 C   0  0  0  0  0  0  0  0  0  0  0  0
   -0.7878    2.1896    0.0000 O   0  0  0  0  0  0  0  0  0  0  0  0
   -0.0734    2.6021    0.0000 C   0  0  0  0  0  0  0  0  0  0  0  0
    0.6411    2.1896    0.0000 C   0  0  0  0  0  0  0  0  0  0  0  0
  1  2  1  0
  2  3  1  0
  3  4  1  0
  3  7  1  0
  4  5  2  0
  4 11  1  0
  5  6  1  0
  5  8  1  0
  6  7  2  0
  8  9  2  0
  8 25  1  0
  9 10  1  0
  9 12  1  0
 10 11  2  0
 12 13  2  0
 12 16  1  0
 13 14  1  0
 14 15  2  0
 15 16  1  0
 15 17  1  0
 17 18  1  0
 18 19  2  0
 18 22  1  0
 19 20  1  0
 19 24  1  0
 20 21  2  0
 21 22  1  0
 21 23  1  0
 25 26  1  0
 26 27  1  0
 26 31  1  0
 27 28  1  0
 28 29  1  0
 29 30  1  0
 30 31  1  0
M  END
>  <DRUGBANK_ID>  (1) 
DB12542

>  <COMMON_NAME>  (1) 
GSK-356278

>  <CAS_NUMBER>  (1) 
720704-34-7

>  <UNII>  (1) 
1QTA9P992C

$$$$
