NLA
     RDKit          2D

 14 15  0  0  0  0  0  0  0  0999 V2000
    0.3236    0.0242    0.0000 C   0  0  0  0  0  0  0  0  0  0  0  0
   -0.3909   -0.3883    0.0000 C   0  0  0  0  0  0  0  0  0  0  0  0
   -1.1054    0.0242    0.0000 C   0  0  0  0  0  0  0  0  0  0  0  0
   -1.1054    0.8492    0.0000 C   0  0  0  0  0  0  0  0  0  0  0  0
   -0.3909    1.2617    0.0000 C   0  0  0  0  0  0  0  0  0  0  0  0
    0.3236    0.8492    0.0000 C   0  0  0  0  0  0  0  0  0  0  0  0
    1.0380    1.2617    0.0000 C   0  0  0  0  0  0  0  0  0  0  0  0
    1.7525    0.8492    0.0000 C   0  0  0  0  0  0  0  0  0  0  0  0
    1.7525    0.0242    0.0000 C   0  0  0  0  0  0  0  0  0  0  0  0
    1.0380   -0.3883    0.0000 C   0  0  0  0  0  0  0  0  0  0  0  0
   -0.3909   -1.2133    0.0000 C   0  0  0  0  0  0  0  0  0  0  0  0
   -1.1054   -1.6258    0.0000 C   0  0  0  0  0  0  0  0  0  0  0  0
   -1.1054   -2.4508    0.0000 O   0  0  0  0  0  0  0  0  0  0  0  0
   -1.8198   -1.2133    0.0000 O   0  0  0  0  0  0  0  0  0  0  0  0
  1  2  2  0
  1  6  1  0
  1 10  1  0
  2  3  1  0
  2 11  1  0
  3  4  2  0
  4  5  1  0
  5  6  2  0
  6  7  1  0
  7  8  2  0
  8  9  1  0
  9 10  2  0
 11 12  1  0
 12 13  2  0
 12 14  1  0
M  END
>  <DRUGBANK_ID>  (1) 
DB01750

>  <SECONDARY_ACCESSION_NUMBERS>  (1) 
EXPT02353

>  <COMMON_NAME>  (1) 
1-naphthaleneacetic acid

>  <CAS_NUMBER>  (1) 
86-87-3

>  <UNII>  (1) 
33T7G7757C

>  <SYNONYMS>  (1) 
1-Naphthylacetic acid; NAA; naphthalen-1-yl-acetic acid; naphthalene-1-acetic acid; α-NAA; α-naphthaleneacetic acid

$$$$
