
     RDKit          2D

 11 11  0  0  0  0  0  0  0  0999 V2000
    1.0674    1.8583    0.0000 O   0  0  0  0  0  0  0  0  0  0  0  0
    1.0683    1.0305    0.0000 C   0  0  0  0  0  0  0  0  0  0  0  0
    1.7830    0.6183    0.0000 O   0  0  0  0  0  0  0  0  0  0  0  0
    0.3575    0.6202    0.0000 C   0  0  0  0  0  0  0  0  0  0  0  0
    0.3583   -0.2076    0.0000 C   0  0  0  0  0  0  0  0  0  0  0  0
   -0.3556   -0.6208    0.0000 C   0  0  0  0  0  0  0  0  0  0  0  0
   -1.0734   -0.2083    0.0000 C   0  0  0  0  0  0  0  0  0  0  0  0
   -1.7830   -0.6208    0.0000 C   0  0  0  0  0  0  0  0  0  0  0  0
   -1.7830   -1.4458    0.0000 C   0  0  0  0  0  0  0  0  0  0  0  0
   -1.0734   -1.8583    0.0000 C   0  0  0  0  0  0  0  0  0  0  0  0
   -0.3556   -1.4458    0.0000 C   0  0  0  0  0  0  0  0  0  0  0  0
  1  2  2  0
  2  3  1  0
  2  4  1  0
  4  5  1  0
  5  6  1  0
  6  7  1  0
  7  8  1  0
  8  9  1  0
  9 10  1  0
 10 11  1  0
 11  6  1  0
M  END
>  <DRUGBANK_ID>  (1) 
DB02242

>  <SECONDARY_ACCESSION_NUMBERS>  (1) 
EXPT01069

>  <COMMON_NAME>  (1) 
Cyclohexanepropanoic acid

>  <CAS_NUMBER>  (1) 
701-97-3

>  <UNII>  (1) 
U36W9HNV6D

>  <SYNONYMS>  (1) 
3-Cyclohexanepropionic acid; 3-Cyclohexylpropanoic acid; 3-Cyclohexylpropionic acid

$$$$
