
     RDKit          2D

 35 39  0  0  0  0  0  0  0  0999 V2000
   -2.6425    5.1799    0.0000 C   0  0  0  0  0  0  0  0  0  0  0  0
   -2.3699   -0.7374    0.0000 C   0  0  0  0  0  0  0  0  0  0  0  0
    0.1795   -5.0084    0.0000 C   0  0  0  0  0  0  0  0  0  0  0  0
    0.9864   -5.1799    0.0000 C   0  0  0  0  0  0  0  0  0  0  0  0
   -0.0754   -4.2237    0.0000 C   0  0  0  0  0  0  0  0  0  0  0  0
    1.5385   -4.5668    0.0000 C   0  0  0  0  0  0  0  0  0  0  0  0
    0.4766   -3.6106    0.0000 C   0  0  0  0  0  0  0  0  0  0  0  0
    2.1326   -1.7714    0.0000 C   0  0  0  0  0  0  0  0  0  0  0  0
    0.7736   -2.2129    0.0000 C   0  0  0  0  0  0  0  0  0  0  0  0
    1.8777   -0.9867    0.0000 C   0  0  0  0  0  0  0  0  0  0  0  0
    0.5187   -1.4283    0.0000 C   0  0  0  0  0  0  0  0  0  0  0  0
    0.2388    1.5929    0.0000 C   0  0  0  0  0  0  0  0  0  0  0  0
   -2.4596    1.1804    0.0000 C   0  0  0  0  0  0  0  0  0  0  0  0
   -1.0777    3.7278    0.0000 C   0  0  0  0  0  0  0  0  0  0  0  0
   -2.1576    4.5124    0.0000 C   0  0  0  0  0  0  0  0  0  0  0  0
    1.3639   -3.8357    0.0000 C   0  0  0  0  0  0  0  0  0  0  0  0
   -0.2460    0.9255    0.0000 C   0  0  0  0  0  0  0  0  0  0  0  0
   -1.7451    0.7679    0.0000 C   0  0  0  0  0  0  0  0  0  0  0  0
   -1.0306    1.1804    0.0000 C   0  0  0  0  0  0  0  0  0  0  0  0
   -1.0306    2.0054    0.0000 C   0  0  0  0  0  0  0  0  0  0  0  0
    0.0088    0.1408    0.0000 C   0  0  0  0  0  0  0  0  0  0  0  0
   -1.7451    2.4179    0.0000 C   0  0  0  0  0  0  0  0  0  0  0  0
    1.9159   -3.1959    0.0000 C   0  0  0  0  0  0  0  0  0  0  0  0
    0.8158   -0.0306    0.0000 C   0  0  0  0  0  0  0  0  0  0  0  0
   -0.2460    2.2603    0.0000 N   0  0  0  0  0  0  0  0  0  0  0  0
   -2.4596    2.0054    0.0000 N   0  0  0  0  0  0  0  0  0  0  0  0
   -1.3326    4.5124    0.0000 N   0  0  0  0  0  0  0  0  0  0  0  0
   -2.4125    3.7278    0.0000 N   0  0  0  0  0  0  0  0  0  0  0  0
    1.5806   -2.3845    0.0000 N   0  0  0  0  0  0  0  0  0  0  0  0
    1.0707   -0.8152    0.0000 N   0  0  0  0  0  0  0  0  0  0  0  0
   -1.7451    3.2429    0.0000 N   0  0  0  0  0  0  0  0  0  0  0  0
   -0.5431   -0.4722    0.0000 O   0  0  0  0  0  0  0  0  0  0  0  0
    2.6425   -3.3406    0.0000 O   0  0  0  0  0  0  0  0  0  0  0  0
    1.3678    0.5824    0.0000 O   0  0  0  0  0  0  0  0  0  0  0  0
   -1.7451   -0.0570    0.0000 O   0  0  0  0  0  0  0  0  0  0  0  0
  4  3  2  0
  5  3  1  0
  6  4  1  0
  7  5  2  0
 10  8  1  0
 11  9  1  0
 15  1  1  0
 16  6  2  0
 16  7  1  0
 17 12  2  0
 18 13  1  0
 19 17  1  0
 19 18  2  0
 20 19  1  0
 21 17  1  0
 22 20  2  0
 23 16  1  0
 24 21  1  0
 25 12  1  0
 25 20  1  0
 26 13  2  0
 26 22  1  0
 27 14  2  0
 27 15  1  0
 28 15  2  0
 29  8  1  0
 29  9  1  0
 29 23  1  0
 30 10  1  0
 30 11  1  0
 30 24  1  0
 31 14  1  0
 31 22  1  0
 31 28  1  0
 32 21  2  0
 33 23  2  0
 34 24  2  0
 35  2  1  0
 35 18  1  0
M  END
>  <DRUGBANK_ID>  (1) 
DB14675

>  <COMMON_NAME>  (1) 
Temsavir

>  <CAS_NUMBER>  (1) 
701213-36-7

>  <UNII>  (1) 
4B6J53W8N3

>  <SYNONYMS>  (1) 
Temsavir

$$$$
