
     RDKit          2D

 12 12  0  0  0  0  0  0  0  0999 V2000
    2.0076   -1.1360    0.0000 F   0  0  0  0  0  0  0  0  0  0  0  0
    1.7057   -0.0090    0.0000 F   0  0  0  0  0  0  0  0  0  0  0  0
    0.8807   -1.4380    0.0000 F   0  0  0  0  0  0  0  0  0  0  0  0
   -0.1358   -0.7235    0.0000 N   0  0  0  0  0  0  0  0  0  0  0  0
    0.5787    0.5139    0.0000 N   0  0  0  0  0  0  0  0  0  0  0  0
   -1.5647   -0.7235    0.0000 N   0  0  0  0  0  0  0  0  0  0  0  0
    0.5787   -0.3110    0.0000 C   0  0  0  0  0  0  0  0  0  0  0  0
   -0.8502    0.5139    0.0000 C   0  0  0  0  0  0  0  0  0  0  0  0
    1.2932   -0.7235    0.0000 C   0  0  0  0  0  0  0  0  0  0  0  0
   -0.8502   -0.3110    0.0000 C   0  0  0  0  0  0  0  0  0  0  0  0
   -0.1358    0.9265    0.0000 C   0  0  0  0  0  0  0  0  0  0  0  0
   -1.5647    0.9265    0.0000 C   0  0  0  0  0  0  0  0  0  0  0  0
  1  9  1  0
  2  9  1  0
  3  9  1  0
  4  7  2  0
  4 10  1  0
  5  7  1  0
  5 11  2  0
  6 10  2  0
  7  9  1  0
  8 10  1  0
  8 11  1  0
  8 12  2  0
M  END
>  <DRUGBANK_ID>  (1) 
DB02885

>  <SECONDARY_ACCESSION_NUMBERS>  (1) 
EXPT01848

>  <COMMON_NAME>  (1) 
4-Imino-5-methidyl-2-trifluoromethylpyrimidine

>  <CAS_NUMBER>  (1) 
921227-53-4

$$$$
