3B3
     RDKit          2D

 19 20  0  0  0  0  0  0  0  0999 V2000
   -0.8682    1.5327    0.0000 C   0  0  0  0  0  0  0  0  0  0  0  0
   -0.1538    1.9452    0.0000 C   0  0  0  0  0  0  0  0  0  0  0  0
    0.5607    1.5327    0.0000 C   0  0  0  0  0  0  0  0  0  0  0  0
    0.5607    0.7077    0.0000 N   0  0  0  0  0  0  0  0  0  0  0  0
   -0.1538    0.2952    0.0000 C   0  0  0  0  0  0  0  0  0  0  0  0
   -0.1538   -0.5298    0.0000 C   0  0  0  0  0  0  0  0  0  0  0  0
    0.5607   -0.9423    0.0000 N   0  0  0  0  0  0  0  0  0  0  0  0
    1.2752   -0.5298    0.0000 C   0  0  0  0  0  0  0  0  0  0  0  0
   -0.8682   -0.9423    0.0000 C   0  0  0  0  0  0  0  0  0  0  0  0
   -1.5827   -0.5298    0.0000 C   0  0  0  0  0  0  0  0  0  0  0  0
   -1.5827    0.2952    0.0000 C   0  0  0  0  0  0  0  0  0  0  0  0
   -0.8682    0.7077    0.0000 C   0  0  0  0  0  0  0  0  0  0  0  0
    1.9897   -0.9423    0.0000 C   0  0  0  0  0  0  0  0  0  0  0  0
    2.7041   -0.5298    0.0000 C   0  0  0  0  0  0  0  0  0  0  0  0
    3.4186   -0.9423    0.0000 N   0  0  0  0  0  0  0  0  0  0  0  0
   -3.0116    0.2952    0.0000 O   0  0  0  0  0  0  0  0  0  0  0  0
   -2.2972    1.5327    0.0000 O   0  0  0  0  0  0  0  0  0  0  0  0
   -2.2972    0.7077    0.0000 N   0  0  0  0  0  0  0  0  0  0  0  0
    1.9897   -1.7673    0.0000 O   0  0  0  0  0  0  0  0  0  0  0  0
  1  2  2  0
  1 12  1  0
  2  3  1  0
  3  4  2  0
  4  5  1  0
  5  6  1  0
  5 12  2  0
  6  7  1  0
  6  9  2  0
  7  8  1  0
  8 13  1  0
  9 10  1  0
 10 11  2  0
 11 12  1  0
 11 18  1  0
 13 14  1  0
 13 19  1  6
 14 15  1  0
 16 18  2  0
 17 18  1  0
M  CHG  2  17  -1  18   1
M  END
>  <DRUGBANK_ID>  (1) 
DB07037

>  <COMMON_NAME>  (1) 
(2S)-1-AMINO-3-[(5-NITROQUINOLIN-8-YL)AMINO]PROPAN-2-OL

$$$$
