
     RDKit          2D

  6  4  0  0  0  0  0  0  0  0999 V2000
   -0.4808   -0.0580    0.0000 Cl  0  0  0  0  0  0  0  0  0  0  0  0
    0.2294   -0.4735    0.0000 O   0  0  0  0  0  0  0  0  0  0  0  0
   -1.1959   -0.4735    0.0000 O   0  0  0  0  0  0  0  0  0  0  0  0
   -0.0797    0.6572    0.0000 O   0  0  0  0  0  0  0  0  0  0  0  0
   -0.8964    0.6572    0.0000 O   0  0  0  0  0  0  0  0  0  0  0  0
    1.1959   -0.6572    0.0000 K   0  0  0  0  0 15  0  0  0  0  0  0
  2  1  1  0
  3  1  1  0
  4  1  1  0
  5  1  1  0
M  CHG  6   1   3   2  -1   3  -1   4  -1   5  -1   6   1
M  END
>  <DRUGBANK_ID>  (1) 
DB09418

>  <COMMON_NAME>  (1) 
Potassium perchlorate

>  <CAS_NUMBER>  (1) 
7778-74-7

>  <UNII>  (1) 
42255P5X4D

>  <SYNONYMS>  (1) 
Perchloric acid, potassium salt; Potassium perchlorate

$$$$
