GT9
     RDKit          2D

 16 15  0  0  0  0  0  0  0  0999 V2000
    3.4833    1.0627    0.0000 N   0  0  0  0  0  0  0  0  0  0  0  0
    3.4833    0.2377    0.0000 C   0  0  0  0  0  0  0  0  0  0  0  0
    2.7688   -0.1748    0.0000 C   0  0  0  0  0  0  0  0  0  0  0  0
    2.0544    0.2377    0.0000 S   0  0  0  0  0  0  0  0  0  0  0  0
    4.1978   -0.1748    0.0000 C   0  0  0  0  0  0  0  0  0  0  0  0
    4.9122    0.2377    0.0000 O   0  0  0  0  0  0  0  0  0  0  0  0
    4.1978   -0.9998    0.0000 O   0  0  0  0  0  0  0  0  0  0  0  0
    1.3399   -0.1748    0.0000 C   0  0  0  0  0  0  0  0  0  0  0  0
    0.6254    0.2377    0.0000 C   0  0  0  0  0  0  0  0  0  0  0  0
   -0.0891   -0.1748    0.0000 C   0  0  0  0  0  0  0  0  0  0  0  0
   -0.8035    0.2377    0.0000 C   0  0  0  0  0  0  0  0  0  0  0  0
   -1.5180   -0.1748    0.0000 C   0  0  0  0  0  0  0  0  0  0  0  0
   -2.2325    0.2377    0.0000 C   0  0  0  0  0  0  0  0  0  0  0  0
   -2.9469   -0.1748    0.0000 C   0  0  0  0  0  0  0  0  0  0  0  0
   -3.6614    0.2377    0.0000 C   0  0  0  0  0  0  0  0  0  0  0  0
   -4.3759   -0.1748    0.0000 C   0  0  0  0  0  0  0  0  0  0  0  0
  2  1  1  6
  2  3  1  0
  2  5  1  0
  3  4  1  0
  4  8  1  0
  5  6  2  0
  5  7  1  0
  8  9  1  0
  9 10  1  0
 10 11  1  0
 11 12  1  0
 12 13  1  0
 13 14  1  0
 14 15  1  0
 15 16  1  0
M  END
>  <DRUGBANK_ID>  (1) 
DB07849

>  <COMMON_NAME>  (1) 
S-NONYL-CYSTEINE

$$$$
