
     RDKit          2D

 22 24  0  0  0  0  0  0  0  0999 V2000
   -3.8020    1.5751    0.0000 C   0  0  0  0  0  0  0  0  0  0  0  0
   -3.8020    0.7490    0.0000 C   0  0  0  0  0  0  0  0  0  0  0  0
   -3.0883    0.3272    0.0000 C   0  0  0  0  0  0  0  0  0  0  0  0
   -2.3793    0.7459    0.0000 C   0  0  0  0  0  0  0  0  0  0  0  0
   -2.3793    1.5770    0.0000 C   0  0  0  0  0  0  0  0  0  0  0  0
   -1.6625    1.9951    0.0000 N   0  0  0  0  0  0  0  0  0  0  0  0
   -0.9480    1.5802    0.0000 C   0  0  0  0  0  0  0  0  0  0  0  0
   -0.2351    1.9953    0.0000 C   0  0  0  0  0  0  0  0  0  0  0  0
    0.4794    1.5847    0.0000 C   0  0  0  0  0  0  0  0  0  0  0  0
    0.4794    0.7581    0.0000 C   0  0  0  0  0  0  0  0  0  0  0  0
   -0.2339    0.3449    0.0000 C   0  0  0  0  0  0  0  0  0  0  0  0
   -0.2339   -0.4766    0.0000 O   0  0  0  0  0  0  0  0  0  0  0  0
    0.3430   -1.0801    0.0000 C   0  0  0  0  0  0  0  0  0  0  0  0
    1.0576   -0.6639    0.0000 C   0  0  0  0  0  0  0  0  0  0  0  0
    1.6544   -1.1076    0.0000 C   0  0  0  0  0  0  0  0  0  0  0  0
    2.3768   -0.7678    0.0000 N   0  0  0  0  0  0  0  0  0  0  0  0
    3.0915   -1.1659    0.0000 C   0  0  0  0  0  0  0  0  0  0  0  0
    3.0915   -1.9953    0.0000 C   0  0  0  0  0  0  0  0  0  0  0  0
    3.8020   -0.7490    0.0000 C   0  0  0  0  0  0  0  0  0  0  0  0
    1.0576    0.1603    0.0000 O   0  0  0  0  0  0  0  0  0  0  0  0
   -0.9480    0.7459    0.0000 C   0  0  0  0  0  0  0  0  0  0  0  0
   -3.0916    1.9840    0.0000 C   0  0  0  0  0  0  0  0  0  0  0  0
  1  2  2  0
  2  3  1  0
  3  4  2  0
  4 21  1  0
  5  4  1  0
  5 22  2  0
  6  5  1  0
  7  6  1  0
  7 21  2  0
  8  7  1  0
  9  8  2  0
 10  9  1  0
 11 10  2  0
 11 12  1  0
 12 13  1  0
 13 14  1  0
 14 15  1  0
 14 20  1  1
 15 16  1  0
 16 17  1  0
 17 18  1  0
 17 19  1  0
 21 11  1  0
 22  1  1  0
M  END
>  <DRUGBANK_ID>  (1) 
DB07543

>  <COMMON_NAME>  (1) 
(S)-carazolol

>  <CAS_NUMBER>  (1) 
78859-33-3

>  <UNII>  (1) 
6Q9080LN3O

>  <SYNONYMS>  (1) 
(-)-Carazolol

$$$$
