
     RDKit          2D

  8  8  0  0  0  0  0  0  0  0999 V2000
    0.7145    2.0625    0.0000 O   0  0  0  0  0  0  0  0  0  0  0  0
    0.7145    1.2375    0.0000 C   0  0  0  0  0  0  0  0  0  0  0  0
    1.4289    0.8250    0.0000 N   0  0  0  0  0  0  0  0  0  0  0  0
    1.4289   -0.0000    0.0000 C   0  0  0  0  0  0  0  0  0  0  0  0
    2.1434   -0.4125    0.0000 O   0  0  0  0  0  0  0  0  0  0  0  0
    0.7145   -0.4125    0.0000 N   0  0  0  0  0  0  0  0  0  0  0  0
    0.0000    0.0000    0.0000 C   0  0  0  0  0  0  0  0  0  0  0  0
    0.0000    0.8250    0.0000 C   0  0  0  0  0  0  0  0  0  0  0  0
  1  2  2  0
  2  3  1  0
  2  8  1  0
  3  4  1  0
  4  5  2  0
  4  6  1  0
  6  7  1  0
  7  8  2  0
M  ISO  1   4  13
M  END
>  <DRUGBANK_ID>  (1) 
DB16345

>  <COMMON_NAME>  (1) 
Uracil C-13

>  <CAS_NUMBER>  (1) 
35803-45-3

>  <UNII>  (1) 
OZF8J4VAIK

>  <SYNONYMS>  (1) 
13C-uracil; Uracil (2-13c); Uracil 2c-13; Uracil C-13, 2-; Uracil-(2-13c)

$$$$
