11F
     RDKit          2D

 27 29  0  0  0  0  0  0  0  0999 V2000
    2.2299   -1.8516    0.0000 C   0  0  0  0  0  0  0  0  0  0  0  0
    2.9444   -2.2641    0.0000 C   0  0  0  0  0  0  0  0  0  0  0  0
    2.9444   -3.0891    0.0000 C   0  0  0  0  0  0  0  0  0  0  0  0
    2.2299   -3.5016    0.0000 C   0  0  0  0  0  0  0  0  0  0  0  0
    1.5154   -3.0891    0.0000 C   0  0  0  0  0  0  0  0  0  0  0  0
    1.5154   -2.2641    0.0000 C   0  0  0  0  0  0  0  0  0  0  0  0
    0.8010   -1.8516    0.0000 C   0  0  0  0  0  0  0  0  0  0  0  0
    0.8010   -1.0266    0.0000 C   0  0  0  0  0  0  0  0  0  0  0  0
    0.0865   -0.6141    0.0000 C   0  0  0  0  0  0  0  0  0  0  0  0
    1.5154   -0.6141    0.0000 O   0  0  0  0  0  0  0  0  0  0  0  0
    1.5154    0.2109    0.0000 C   0  0  0  0  0  0  0  0  0  0  0  0
    0.0865   -2.2641    0.0000 C   0  0  0  0  0  0  0  0  0  0  0  0
   -0.6280   -1.8516    0.0000 C   0  0  0  0  0  0  0  0  0  0  0  0
   -0.6280   -1.0266    0.0000 C   0  0  0  0  0  0  0  0  0  0  0  0
   -1.3425   -0.6141    0.0000 C   0  0  0  0  0  0  0  0  0  0  0  0
   -2.0569   -1.0266    0.0000 C   0  0  0  0  0  0  0  0  0  0  0  0
   -1.3425    0.2109    0.0000 C   0  0  0  0  0  0  0  0  0  0  0  0
   -1.3425    1.0359    0.0000 C   0  0  0  0  0  0  0  0  0  0  0  0
   -1.3425    1.8609    0.0000 C   0  0  0  0  0  0  0  0  0  0  0  0
   -2.0569    2.2734    0.0000 C   0  0  0  0  0  0  0  0  0  0  0  0
   -2.7714    1.8609    0.0000 C   0  0  0  0  0  0  0  0  0  0  0  0
   -2.0569    3.0984    0.0000 N   0  0  0  0  0  0  0  0  0  0  0  0
   -1.3425    3.5109    0.0000 C   0  0  0  0  0  0  0  0  0  0  0  0
   -1.3425    4.3359    0.0000 N   0  0  0  0  0  0  0  0  0  0  0  0
   -0.6280    3.0984    0.0000 N   0  0  0  0  0  0  0  0  0  0  0  0
   -0.6280    2.2734    0.0000 C   0  0  0  0  0  0  0  0  0  0  0  0
    0.0865    1.8609    0.0000 N   0  0  0  0  0  0  0  0  0  0  0  0
  1  2  2  0
  2  3  1  0
  4  3  2  0
  5  4  1  0
  6  1  1  0
  6  5  2  0
  7  6  1  0
  8  7  2  0
  8 10  1  0
  9  8  1  0
 11 10  1  0
 12  7  1  0
 13 12  2  0
 14  9  2  0
 14 13  1  0
 15 14  1  0
 15 16  1  6
 17 15  1  0
 18 17  3  0
 19 18  1  0
 19 20  2  0
 20 21  1  0
 22 20  1  0
 23 22  2  0
 24 23  1  0
 25 23  1  0
 25 26  2  0
 26 19  1  0
 27 26  1  0
M  END
>  <DRUGBANK_ID>  (1) 
DB06847

>  <COMMON_NAME>  (1) 
5-[(3S)-3-(2-methoxybiphenyl-4-yl)but-1-yn-1-yl]-6-methylpyrimidine-2,4-diamine

$$$$
