NPV
     RDKit          2D

 28 31  0  0  0  0  0  0  0  0999 V2000
   -2.3750   -1.7469    0.0000 C   0  0  0  0  0  0  0  0  0  0  0  0
   -2.3750   -0.9219    0.0000 C   0  0  0  0  0  0  0  0  0  0  0  0
   -1.6606   -0.5094    0.0000 C   0  0  0  0  0  0  0  0  0  0  0  0
   -0.9461   -0.9219    0.0000 C   0  0  0  0  0  0  0  0  0  0  0  0
   -1.6606   -2.1594    0.0000 C   0  0  0  0  0  0  0  0  0  0  0  0
   -0.2316   -0.5094    0.0000 C   0  0  0  0  0  0  0  0  0  0  0  0
    2.6263    0.3156    0.0000 C   0  0  0  0  0  0  0  0  0  0  0  0
    0.4828   -0.9219    0.0000 C   0  0  0  0  0  0  0  0  0  0  0  0
    1.1973   -0.5094    0.0000 C   0  0  0  0  0  0  0  0  0  0  0  0
    1.9118   -0.9219    0.0000 C   0  0  0  0  0  0  0  0  0  0  0  0
   -3.0895   -2.1594    0.0000 C   0  0  0  0  0  0  0  0  0  0  0  0
   -3.0895   -2.9844    0.0000 O   0  0  0  0  0  0  0  0  0  0  0  0
   -3.8040   -1.7469    0.0000 O   0  0  0  0  0  0  0  0  0  0  0  0
   -0.9461   -1.7469    0.0000 C   0  0  0  0  0  0  0  0  0  0  0  0
   -0.2316    0.3156    0.0000 N   0  0  0  0  0  0  0  0  0  0  0  0
    2.6263   -0.5094    0.0000 C   0  0  0  0  0  0  0  0  0  0  0  0
    1.9118    0.7281    0.0000 N   0  0  0  0  0  0  0  0  0  0  0  0
    1.1973    0.3156    0.0000 C   0  0  0  0  0  0  0  0  0  0  0  0
    0.4828    0.7281    0.0000 C   0  0  0  0  0  0  0  0  0  0  0  0
    0.4828    1.5531    0.0000 C   0  0  0  0  0  0  0  0  0  0  0  0
    1.1973    1.9656    0.0000 C   0  0  0  0  0  0  0  0  0  0  0  0
   -0.2316    1.9656    0.0000 C   0  0  0  0  0  0  0  0  0  0  0  0
   -0.2316    2.7906    0.0000 C   0  0  0  0  0  0  0  0  0  0  0  0
    0.4828    3.2031    0.0000 C   0  0  0  0  0  0  0  0  0  0  0  0
    1.1973    2.7906    0.0000 C   0  0  0  0  0  0  0  0  0  0  0  0
    1.9118    3.2031    0.0000 N   0  0  0  0  0  0  0  0  0  0  0  0
    1.9118    4.0281    0.0000 O   0  0  0  0  0  0  0  0  0  0  0  0
    2.6263    2.7906    0.0000 O   0  0  0  0  0  0  0  0  0  0  0  0
  1  2  2  0
  1  5  1  0
  2  3  1  0
  3  4  2  0
  4  6  1  0
  5 14  2  0
  6 15  1  0
  6  8  2  0
  8  9  1  0
  9 18  1  0
  9 10  2  0
 10 16  1  0
 11  1  1  0
 12 11  2  0
 13 11  1  0
 14  4  1  0
 15 19  2  0
 16  7  2  0
 17  7  1  0
 18 17  2  0
 19 20  1  0
 19 18  1  0
 20 22  2  0
 21 25  2  0
 21 20  1  0
 22 23  1  0
 24 23  2  0
 25 24  1  0
 26 27  2  0
 26 25  1  0
 28 26  1  0
M  CHG  2  26   1  28  -1
M  END
>  <DRUGBANK_ID>  (1) 
DB08299

>  <COMMON_NAME>  (1) 
4-[8-(3-nitrophenyl)-1,7-naphthyridin-6-yl]benzoic acid

>  <UNII>  (1) 
ISK95MWA33

$$$$
