GD7
     RDKit          2D

 10  9  0  0  0  0  0  0  0  0999 V2000
   -1.7650    0.5459    0.0000 C   0  0  0  0  0  0  0  0  0  0  0  0
   -1.4630   -0.5811    0.0000 C   0  0  0  0  0  0  0  0  0  0  0  0
   -0.6379    0.8480    0.0000 C   0  0  0  0  0  0  0  0  0  0  0  0
   -0.3360   -1.1042    0.0000 C   0  0  0  0  0  0  0  0  0  0  0  0
   -0.3360   -0.2791    0.0000 C   0  0  0  0  0  0  0  0  0  0  0  0
   -1.0505    0.1334    0.0000 C   0  0  0  0  0  0  0  0  0  0  0  0
    1.8075    0.1334    0.0000 C   0  0  0  0  0  0  0  0  0  0  0  0
    0.3785    0.1334    0.0000 O   0  0  0  0  0  0  0  0  0  0  0  0
    1.0931   -0.2791    0.0000 P   0  0  0  0  0  0  0  0  0  0  0  0
    1.0931   -1.1042    0.0000 O   0  0  0  0  0  0  0  0  0  0  0  0
  1  6  1  0
  2  6  1  0
  3  6  1  0
  5  4  1  6
  5  6  1  0
  5  8  1  0
  8  9  1  0
  9  7  1  6
  9 10  2  0
M  END
>  <DRUGBANK_ID>  (1) 
DB07821

>  <COMMON_NAME>  (1) 
(1R)-1,2,2-trimethylpropyl (R)-methylphosphinate

$$$$
