
     RDKit          2D

 19 19  0  0  1  0  0  0  0  0999 V2000
    2.0198    0.8843    0.0000 O   0  0  0  0  0  0  0  0  0  0  0  0
    1.2352    0.6294    0.0000 C   0  0  0  0  0  0  0  0  0  0  0  0
    0.9803   -0.1553    0.0000 C   0  0  0  0  0  0  0  0  0  0  0  0
    1.4652   -0.8227    0.0000 O   0  0  0  0  0  0  0  0  0  0  0  0
    0.1553   -0.1553    0.0000 C   0  0  0  0  0  0  0  0  0  0  0  0
   -0.3297   -0.8227    0.0000 C   0  0  0  0  0  0  0  0  0  0  0  0
    0.0059   -1.5764    0.0000 O   0  0  0  0  0  0  0  0  0  0  0  0
   -0.4790   -2.2438    0.0000 P   0  0  0  0  0  0  0  0  0  0  0  0
   -0.9640   -2.9112    0.0000 O   0  0  0  0  0  0  0  0  0  0  0  0
    0.1884   -2.7287    0.0000 O   0  0  0  0  0  0  0  0  0  0  0  0
   -1.1465   -1.7589    0.0000 O   0  0  0  0  0  0  0  0  0  0  0  0
   -0.0997    0.6294    0.0000 O   0  0  0  0  0  0  0  0  0  0  0  0
    0.5678    1.1143    0.0000 C   0  0  0  0  0  0  0  0  0  0  0  0
    0.5678    1.9393    0.0000 C   0  0  0  0  0  0  0  0  0  0  0  0
    1.2822    2.3518    0.0000 O   0  0  0  0  0  0  0  0  0  0  0  0
    1.2822    3.1768    0.0000 P   0  0  0  0  0  0  0  0  0  0  0  0
    1.2822    4.0018    0.0000 O   0  0  0  0  0  0  0  0  0  0  0  0
    2.1072    3.1768    0.0000 O   0  0  0  0  0  0  0  0  0  0  0  0
    0.4572    3.1768    0.0000 O   0  0  0  0  0  0  0  0  0  0  0  0
  2  1  1  1
  2  3  1  0
  2 13  1  0
  3  4  1  6
  3  5  1  0
  5  6  1  6
  5 12  1  0
  6  7  1  0
  7  8  1  0
  8  9  1  0
  8 10  1  0
  8 11  2  0
 12 13  1  0
 13 14  1  6
 14 15  1  0
 15 16  1  0
 16 17  1  0
 16 18  1  0
 16 19  2  0
M  END
>  <DRUGBANK_ID>  (1) 
DB02778

>  <SECONDARY_ACCESSION_NUMBERS>  (1) 
EXPT00466

>  <COMMON_NAME>  (1) 
2,5-Anhydroglucitol-1,6-Biphosphate

$$$$
