LZ4
     RDKit          2D

 18 19  0  0  0  0  0  0  0  0999 V2000
   16.6667    7.1015    0.0000 N   0  0  0  0  0  0  0  0  0  0  0  0
   16.6667    6.2765    0.0000 S   0  0  0  0  0  0  0  0  0  0  0  0
   15.8417    6.2765    0.0000 O   0  0  0  0  0  0  0  0  0  0  0  0
   17.4917    6.2765    0.0000 O   0  0  0  0  0  0  0  0  0  0  0  0
   16.6667    5.4515    0.0000 C   0  0  0  0  0  0  0  0  0  0  0  0
   17.3812    5.0390    0.0000 C   0  0  0  0  0  0  0  0  0  0  0  0
   17.3812    4.2140    0.0000 C   0  0  0  0  0  0  0  0  0  0  0  0
   16.6667    3.8015    0.0000 C   0  0  0  0  0  0  0  0  0  0  0  0
   16.6667    2.9765    0.0000 N   0  0  0  0  0  0  0  0  0  0  0  0
   15.9522    2.5640    0.0000 C   0  0  0  0  0  0  0  0  0  0  0  0
   15.9522    1.7390    0.0000 C   0  0  0  0  0  0  0  0  0  0  0  0
   15.2377    1.3265    0.0000 N   0  0  0  0  0  0  0  0  0  0  0  0
   14.5233    1.7390    0.0000 C   0  0  0  0  0  0  0  0  0  0  0  0
   14.5233    2.5640    0.0000 C   0  0  0  0  0  0  0  0  0  0  0  0
   13.8088    2.9765    0.0000 Cl  0  0  0  0  0  0  0  0  0  0  0  0
   15.2377    2.9765    0.0000 N   0  0  0  0  0  0  0  0  0  0  0  0
   15.9522    4.2140    0.0000 C   0  0  0  0  0  0  0  0  0  0  0  0
   15.9522    5.0390    0.0000 C   0  0  0  0  0  0  0  0  0  0  0  0
  1  2  1  0
  2  3  2  0
  2  4  2  0
  2  5  1  0
  5  6  2  0
  5 18  1  0
  6  7  1  0
  7  8  2  0
  8  9  1  0
  8 17  1  0
  9 10  1  0
 10 11  2  0
 10 16  1  0
 11 12  1  0
 12 13  2  0
 13 14  1  0
 14 15  1  0
 14 16  2  0
 17 18  2  0
M  END
>  <DRUGBANK_ID>  (1) 
DB08134

>  <COMMON_NAME>  (1) 
4-[(6-chloropyrazin-2-yl)amino]benzenesulfonamide

>  <UNII>  (1) 
RMT3PKK7NW

$$$$
