
     RDKit          2D

 27 29  0  0  1  0  0  0  0  0999 V2000
    1.6940    2.9711    0.0000 C   0  0  0  0  0  0  0  0  0  0  0  0
    3.1250    0.3393    0.0000 C   0  0  0  0  0  0  0  0  0  0  0  0
   -3.5239   -0.0097    0.0000 C   0  0  0  0  0  0  0  0  0  0  0  0
   -1.6402   -1.1125    0.0000 C   0  0  0  0  0  0  0  0  0  0  0  0
   -0.8291   -0.9615    0.0000 C   0  0  0  0  0  0  0  0  0  0  0  0
   -1.1965    2.6583    0.0000 C   0  0  0  0  0  0  0  0  0  0  0  0
    0.2198    0.4522    0.0000 C   0  0  0  0  0  0  0  0  0  0  0  0
   -0.4660    3.0417    0.0000 C   0  0  0  0  0  0  0  0  0  0  0  0
    0.9750    0.1201    0.0000 C   0  0  0  0  0  0  0  0  0  0  0  0
   -2.1633    1.6971    0.0000 C   0  0  0  0  0  0  0  0  0  0  0  0
    1.3249    1.9405    0.0000 C   0  0  0  0  0  0  0  0  0  0  0  0
   -1.3523    1.8481    0.0000 C   0  0  0  0  0  0  0  0  0  0  0  0
    0.0086    1.2497    0.0000 C   0  0  0  0  0  0  0  0  0  0  0  0
    0.5004    1.9121    0.0000 C   0  0  0  0  0  0  0  0  0  0  0  0
    0.2892    2.7096    0.0000 C   0  0  0  0  0  0  0  0  0  0  0  0
    1.8612    1.3136    0.0000 C   0  0  0  0  0  0  0  0  0  0  0  0
    1.7055    0.5035    0.0000 C   0  0  0  0  0  0  0  0  0  0  0  0
   -2.4381    0.9192    0.0000 C   0  0  0  0  0  0  0  0  0  0  0  0
   -0.8159    1.2212    0.0000 C   0  0  0  0  0  0  0  0  0  0  0  0
   -1.9018    0.2923    0.0000 C   0  0  0  0  0  0  0  0  0  0  0  0
   -1.0907    0.4433    0.0000 C   0  0  0  0  0  0  0  0  0  0  0  0
    0.9161    3.2459    0.0000 N   0  0  0  0  0  0  0  0  0  0  0  0
    2.6587    1.5248    0.0000 O   0  0  0  0  0  0  0  0  0  0  0  0
    2.3678    0.0116    0.0000 O   0  0  0  0  0  0  0  0  0  0  0  0
   -3.2491    0.7682    0.0000 O   0  0  0  0  0  0  0  0  0  0  0  0
   -2.1765   -0.4856    0.0000 O   0  0  0  0  0  0  0  0  0  0  0  0
   -0.5544   -0.1835    0.0000 O   0  0  0  0  0  0  0  0  0  0  0  0
  8  6  1  0
  9  7  1  0
 12  6  1  0
 12 10  1  0
 13  7  2  0
 14 11  2  0
 14 13  1  0
 15  8  1  0
 15 14  1  0
 15 22  1  6
 16 11  1  0
 17  9  2  0
 17 16  1  0
 18 10  2  0
 19 12  2  0
 19 13  1  0
 20 18  1  0
 21 19  1  0
 21 20  2  0
 22  1  1  0
 23 16  2  0
 24  2  1  0
 24 17  1  0
 25  3  1  0
 25 18  1  0
 26  4  1  0
 26 20  1  0
 27  5  1  0
 27 21  1  0
M  END
>  <DRUGBANK_ID>  (1) 
DB13318

>  <COMMON_NAME>  (1) 
Demecolcine

>  <CAS_NUMBER>  (1) 
477-30-5

>  <UNII>  (1) 
Z01IVE25KI

>  <SYNONYMS>  (1) 
demecolcina; Demecolcine

$$$$
