534
     RDKit          2D

 11 10  0  0  1  0  0  0  0  0999 V2000
    3.1019    0.8631    0.0000 Hg  0  0  0  0  0  2  0  0  0  0  0  0
    2.7440    1.6063    0.0000 Cl  0  0  0  0  0  0  0  0  0  0  0  0
    5.2456    0.4017    0.0000 O   0  0  0  0  0  0  0  0  0  0  0  0
    2.5876    0.2181    0.0000 O   0  0  0  0  0  0  0  0  0  0  0  0
    3.5143   -0.9442    0.0000 N   0  0  0  0  0  0  0  0  0  0  0  0
    2.1260   -1.1006    0.0000 N   0  0  0  0  0  0  0  0  0  0  0  0
    4.4412    0.2181    0.0000 C   0  0  0  0  0  0  0  0  0  0  0  0
    4.2577   -0.5863    0.0000 C   0  0  0  0  0  0  0  0  0  0  0  0
    3.9268    0.8631    0.0000 C   0  0  0  0  0  0  0  0  0  0  0  0
    2.7711   -0.5863    0.0000 C   0  0  0  0  0  0  0  0  0  0  0  0
    5.4887    1.1899    0.0000 C   0  0  0  0  0  0  0  0  0  0  0  0
  1  2  1  0
  1  9  1  0
  3  7  1  0
  3 11  1  0
  4 10  2  0
  5  8  1  0
  5 10  1  0
  6 10  1  0
  7  8  1  0
  7  9  1  0
M  END
>  <DRUGBANK_ID>  (1) 
DB00534

>  <SECONDARY_ACCESSION_NUMBERS>  (1) 
APRD00864

>  <COMMON_NAME>  (1) 
Chlormerodrin

>  <CAS_NUMBER>  (1) 
62-37-3

>  <UNII>  (1) 
99T5TWO621

>  <SYNONYMS>  (1) 
{3-[(aminocarbonyl)amino]-2-methoxypropyl}chloromercury; 1-[3-(chloromercuri)-2-methoxypropyl]urea; Chlormerodrin; Chlormerodrina; Chlormerodrine; Chlormerodrinum

$$$$
