BRK
     RDKit          2D

 25 27  0  0  0  0  0  0  0  0999 V2000
   -3.9133    2.3034    0.0000 C   0  0  0  0  0  0  0  0  0  0  0  0
   -3.1988    2.7159    0.0000 O   0  0  0  0  0  0  0  0  0  0  0  0
   -2.4843    2.3034    0.0000 C   0  0  0  0  0  0  0  0  0  0  0  0
   -1.7698    2.7159    0.0000 C   0  0  0  0  0  0  0  0  0  0  0  0
   -1.0554    2.3034    0.0000 C   0  0  0  0  0  0  0  0  0  0  0  0
   -2.4843    1.4784    0.0000 C   0  0  0  0  0  0  0  0  0  0  0  0
   -1.7698    1.0659    0.0000 C   0  0  0  0  0  0  0  0  0  0  0  0
   -1.0554    1.4784    0.0000 C   0  0  0  0  0  0  0  0  0  0  0  0
   -0.3409    1.0659    0.0000 C   0  0  0  0  0  0  0  0  0  0  0  0
    0.3736    1.4784    0.0000 O   0  0  0  0  0  0  0  0  0  0  0  0
   -0.3409    0.2409    0.0000 C   0  0  0  0  0  0  0  0  0  0  0  0
    0.3265   -0.2440    0.0000 S   0  0  0  0  0  0  0  0  0  0  0  0
   -1.0083   -0.2440    0.0000 C   0  0  0  0  0  0  0  0  0  0  0  0
   -1.7930    0.0109    0.0000 N   0  0  0  0  0  0  0  0  0  0  0  0
   -0.7534   -1.0287    0.0000 N   0  0  0  0  0  0  0  0  0  0  0  0
    0.0716   -1.0287    0.0000 C   0  0  0  0  0  0  0  0  0  0  0  0
    0.5565   -1.6961    0.0000 N   0  0  0  0  0  0  0  0  0  0  0  0
    1.3770   -1.6099    0.0000 C   0  0  0  0  0  0  0  0  0  0  0  0
    1.7126   -0.8562    0.0000 C   0  0  0  0  0  0  0  0  0  0  0  0
    2.5330   -0.7700    0.0000 C   0  0  0  0  0  0  0  0  0  0  0  0
    3.0180   -1.4374    0.0000 C   0  0  0  0  0  0  0  0  0  0  0  0
    3.8384   -1.3512    0.0000 O   0  0  0  0  0  0  0  0  0  0  0  0
    4.1740   -0.5975    0.0000 C   0  0  0  0  0  0  0  0  0  0  0  0
    2.6824   -2.1911    0.0000 C   0  0  0  0  0  0  0  0  0  0  0  0
    1.8619   -2.2773    0.0000 C   0  0  0  0  0  0  0  0  0  0  0  0
  1  2  1  0
  2  3  1  0
  3  4  2  0
  3  6  1  0
  4  5  1  0
  5  8  2  0
  6  7  2  0
  7  8  1  0
  8  9  1  0
  9 10  2  0
  9 11  1  0
 11 12  1  0
 11 13  2  0
 12 16  1  0
 13 14  1  0
 13 15  1  0
 15 16  1  0
 16 17  2  0
 17 18  1  0
 18 19  2  0
 18 25  1  0
 19 20  1  0
 20 21  2  0
 21 22  1  0
 21 24  1  0
 22 23  1  0
 24 25  2  0
M  END
>  <DRUGBANK_ID>  (1) 
DB07488

>  <COMMON_NAME>  (1) 
{4-Amino-2-[(4-methoxyphenyl)amino]-1,3-thiazol-5-yl}(4-methoxyphenyl)methanone

>  <CAS_NUMBER>  (1) 
727685-49-6

$$$$
