701
     RDKit          2D

 29 31  0  0  0  0  0  0  0  0999 V2000
    1.3071    3.4319    0.0000 Cl  0  0  0  0  0  0  0  0  0  0  0  0
    1.3071    2.6069    0.0000 C   0  0  0  0  0  0  0  0  0  0  0  0
    1.9745    2.1220    0.0000 C   0  0  0  0  0  0  0  0  0  0  0  0
    1.7196    1.3373    0.0000 C   0  0  0  0  0  0  0  0  0  0  0  0
    0.8946    1.3373    0.0000 C   0  0  0  0  0  0  0  0  0  0  0  0
    0.4096    0.6699    0.0000 C   0  0  0  0  0  0  0  0  0  0  0  0
    0.7452   -0.0838    0.0000 C   0  0  0  0  0  0  0  0  0  0  0  0
   -0.8958    0.0887    0.0000 S   0  0  0  0  0  0  0  0  0  0  0  0
   -1.5632    0.5736    0.0000 O   0  0  0  0  0  0  0  0  0  0  0  0
   -0.2283   -0.3962    0.0000 O   0  0  0  0  0  0  0  0  0  0  0  0
   -1.3807   -0.5787    0.0000 N   0  0  0  0  0  0  0  0  0  0  0  0
   -1.0451   -1.3324    0.0000 C   0  0  0  0  0  0  0  0  0  0  0  0
   -0.2382   -1.5039    0.0000 C   0  0  0  0  0  0  0  0  0  0  0  0
   -0.1519   -2.3244    0.0000 C   0  0  0  0  0  0  0  0  0  0  0  0
   -1.4576   -2.0469    0.0000 C   0  0  0  0  0  0  0  0  0  0  0  0
   -2.2781   -2.1331    0.0000 O   0  0  0  0  0  0  0  0  0  0  0  0
   -0.9056   -2.6600    0.0000 N   0  0  0  0  0  0  0  0  0  0  0  0
   -1.0771   -3.4669    0.0000 C   0  0  0  0  0  0  0  0  0  0  0  0
   -1.8618   -3.7219    0.0000 C   0  0  0  0  0  0  0  0  0  0  0  0
   -0.4640   -4.0190    0.0000 C   0  0  0  0  0  0  0  0  0  0  0  0
    0.3206   -3.7640    0.0000 O   0  0  0  0  0  0  0  0  0  0  0  0
   -0.6356   -4.8259    0.0000 N   0  0  0  0  0  0  0  0  0  0  0  0
   -0.0225   -5.3780    0.0000 C   0  0  0  0  0  0  0  0  0  0  0  0
   -0.1940   -6.1850    0.0000 C   0  0  0  0  0  0  0  0  0  0  0  0
   -0.9786   -6.4399    0.0000 O   0  0  0  0  0  0  0  0  0  0  0  0
   -1.5917   -5.8879    0.0000 C   0  0  0  0  0  0  0  0  0  0  0  0
   -1.4202   -5.0809    0.0000 C   0  0  0  0  0  0  0  0  0  0  0  0
    0.6396    2.1220    0.0000 S   0  0  0  0  0  0  0  0  0  0  0  0
   -0.4108    0.7561    0.0000 C   0  0  0  0  0  0  0  0  0  0  0  0
  1  2  1  0
  2  3  2  0
  2 28  1  0
  3  4  1  0
  4  5  2  0
  5  6  1  0
  5 28  1  0
  6  7  1  0
  6 29  2  0
  8  9  2  0
  8 10  2  0
  8 11  1  0
  8 29  1  0
 12 11  1  1
 12 13  1  0
 12 15  1  0
 13 14  1  0
 14 17  1  0
 15 16  2  0
 15 17  1  0
 17 18  1  0
 18 19  1  6
 18 20  1  0
 20 21  2  0
 20 22  1  0
 22 23  1  0
 22 27  1  0
 23 24  1  0
 24 25  1  0
 25 26  1  0
 26 27  1  0
M  END
>  <DRUGBANK_ID>  (1) 
DB07211

>  <COMMON_NAME>  (1) 
(2R)-2-(5-CHLORO-2-THIENYL)-N-{(3S)-1-[(1S)-1-METHYL-2-MORPHOLIN-4-YL-2-OXOETHYL]-2-OXOPYRROLIDIN-3-YL}PROPENE-1-SULFONAMIDE

$$$$
