
     RDKit          2D

 31 35  0  0  0  0  0  0  0  0999 V2000
    3.0977   11.7924    0.0000 C   0  0  0  0  0  0  0  0  0  0  0  0
    2.5457   11.1793    0.0000 C   0  0  0  0  0  0  0  0  0  0  0  0
    1.7387   11.3509    0.0000 C   0  0  0  0  0  0  0  0  0  0  0  0
    1.1867   10.7378    0.0000 C   0  0  0  0  0  0  0  0  0  0  0  0
    1.4416    9.9531    0.0000 C   0  0  0  0  0  0  0  0  0  0  0  0
    2.2486    9.7816    0.0000 N   0  0  0  0  0  0  0  0  0  0  0  0
    2.8007   10.3947    0.0000 C   0  0  0  0  0  0  0  0  0  0  0  0
    3.6076   10.2232    0.0000 N   0  0  0  0  0  0  0  0  0  0  0  0
    3.8626    9.4386    0.0000 C   0  0  0  0  0  0  0  0  0  0  0  0
    3.3105    8.8255    0.0000 C   0  0  0  0  0  0  0  0  0  0  0  0
    2.5036    8.9970    0.0000 C   0  0  0  0  0  0  0  0  0  0  0  0
    1.9515    8.3839    0.0000 O   0  0  0  0  0  0  0  0  0  0  0  0
    3.5655    8.0408    0.0000 C   0  0  0  0  0  0  0  0  0  0  0  0
    4.3724    7.8693    0.0000 C   0  0  0  0  0  0  0  0  0  0  0  0
    4.6274    7.0847    0.0000 N   0  0  0  0  0  0  0  0  0  0  0  0
    5.4344    6.9132    0.0000 C   0  0  0  0  0  0  0  0  0  0  0  0
    5.6893    6.1285    0.0000 C   0  0  0  0  0  0  0  0  0  0  0  0
    5.1373    5.5155    0.0000 C   0  0  0  0  0  0  0  0  0  0  0  0
    4.3303    5.6870    0.0000 C   0  0  0  0  0  0  0  0  0  0  0  0
    4.0753    6.4716    0.0000 C   0  0  0  0  0  0  0  0  0  0  0  0
    5.3922    4.7308    0.0000 C   0  0  0  0  0  0  0  0  0  0  0  0
    6.1768    4.4759    0.0000 C   0  0  0  0  0  0  0  0  0  0  0  0
    6.8913    4.8884    0.0000 C   0  0  0  0  0  0  0  0  0  0  0  0
    7.6058    4.4759    0.0000 C   0  0  0  0  0  0  0  0  0  0  0  0
    7.6058    3.6509    0.0000 C   0  0  0  0  0  0  0  0  0  0  0  0
    6.8913    3.2384    0.0000 C   0  0  0  0  0  0  0  0  0  0  0  0
    6.1768    3.6509    0.0000 C   0  0  0  0  0  0  0  0  0  0  0  0
    5.3922    3.3960    0.0000 O   0  0  0  0  0  0  0  0  0  0  0  0
    4.9073    4.0634    0.0000 N   0  0  0  0  0  0  0  0  0  0  0  0
    8.3202    3.2384    0.0000 F   0  0  0  0  0  0  0  0  0  0  0  0
    4.6695    9.2670    0.0000 C   0  0  0  0  0  0  0  0  0  0  0  0
  1  2  1  0
  2  3  2  0
  2  7  1  0
  3  4  1  0
  4  5  2  0
  5  6  1  0
  6  7  1  0
  6 11  1  0
  7  8  2  0
  8  9  1  0
  9 10  2  0
  9 31  1  0
 10 11  1  0
 10 13  1  0
 11 12  2  0
 13 14  1  0
 14 15  1  0
 15 16  1  0
 15 20  1  0
 16 17  1  0
 17 18  1  0
 18 19  1  0
 18 21  1  0
 19 20  1  0
 21 22  1  0
 21 29  2  0
 22 23  2  0
 22 27  1  0
 23 24  1  0
 24 25  2  0
 25 26  1  0
 25 30  1  0
 26 27  2  0
 27 28  1  0
 28 29  1  0
M  END
>  <DRUGBANK_ID>  (1) 
DB06229

>  <COMMON_NAME>  (1) 
Ocaperidone

>  <CAS_NUMBER>  (1) 
129029-23-8

>  <UNII>  (1) 
26HUS7139V

>  <SYNONYMS>  (1) 
Ocaperidona; Ocaperidone; Ocaperidonum

$$$$
