
     RDKit          2D

 33 32  0  0  1  0  0  0  0  0999 V2000
   22.4377   -8.1859    0.0000 C   0  0  0  0  0  0  0  0  0  0  0  0
   21.4766   -8.7409    0.0000 C   0  0  0  0  0  0  0  0  0  0  0  0
   20.5154   -8.1861    0.0000 C   0  0  0  0  0  0  0  0  0  0  0  0
   22.4377   -7.0761    0.0000 O   0  0  0  0  0  0  0  0  0  0  0  0
   19.5542   -8.7409    0.0000 O   0  0  0  0  0  0  0  0  0  0  0  0
   20.7265   -9.8509    0.0000 O   0  0  0  0  0  0  0  0  0  0  0  0
   13.8384   -8.7409    0.0000 C   0  0  0  0  0  0  0  0  0  0  0  0
   14.5529   -8.3284    0.0000 C   0  0  0  0  0  0  0  0  0  0  0  0
   15.2674   -8.7409    0.0000 C   0  0  0  0  0  0  0  0  0  0  0  0
   15.9818   -8.3284    0.0000 C   0  0  0  0  0  0  0  0  0  0  0  0
   16.6963   -8.7409    0.0000 C   0  0  0  0  0  0  0  0  0  0  0  0
   17.4108   -8.3284    0.0000 C   0  0  0  0  0  0  0  0  0  0  0  0
   18.1252   -8.7409    0.0000 C   0  0  0  0  0  0  0  0  0  0  0  0
   18.8397   -8.3284    0.0000 C   0  0  0  0  0  0  0  0  0  0  0  0
   18.8397   -7.5034    0.0000 O   0  0  0  0  0  0  0  0  0  0  0  0
   15.0107   -9.8509    0.0000 C   0  0  0  0  0  0  0  0  0  0  0  0
   15.7252  -10.2634    0.0000 C   0  0  0  0  0  0  0  0  0  0  0  0
   16.4397   -9.8509    0.0000 C   0  0  0  0  0  0  0  0  0  0  0  0
   17.1541  -10.2634    0.0000 C   0  0  0  0  0  0  0  0  0  0  0  0
   17.8686   -9.8509    0.0000 C   0  0  0  0  0  0  0  0  0  0  0  0
   18.5831  -10.2634    0.0000 C   0  0  0  0  0  0  0  0  0  0  0  0
   19.2976   -9.8509    0.0000 C   0  0  0  0  0  0  0  0  0  0  0  0
   20.0121  -10.2634    0.0000 C   0  0  0  0  0  0  0  0  0  0  0  0
   20.0121  -11.0884    0.0000 O   0  0  0  0  0  0  0  0  0  0  0  0
   16.7219   -7.0761    0.0000 C   0  0  0  0  0  0  0  0  0  0  0  0
   17.4364   -6.6636    0.0000 C   0  0  0  0  0  0  0  0  0  0  0  0
   18.1508   -7.0761    0.0000 C   0  0  0  0  0  0  0  0  0  0  0  0
   18.8653   -6.6636    0.0000 C   0  0  0  0  0  0  0  0  0  0  0  0
   19.5798   -7.0761    0.0000 C   0  0  0  0  0  0  0  0  0  0  0  0
   20.2943   -6.6636    0.0000 C   0  0  0  0  0  0  0  0  0  0  0  0
   21.0087   -7.0761    0.0000 C   0  0  0  0  0  0  0  0  0  0  0  0
   21.7232   -6.6636    0.0000 C   0  0  0  0  0  0  0  0  0  0  0  0
   21.7232   -5.8386    0.0000 O   0  0  0  0  0  0  0  0  0  0  0  0
  2  1  1  0
  2  6  1  0
  3  2  1  0
  4  1  1  0
  5  3  1  0
  7  8  1  0
  8  9  1  0
  9 10  1  0
 10 11  1  0
 11 12  1  0
 12 13  1  0
 13 14  1  0
 14  5  1  0
 14 15  2  0
 16 17  1  0
 17 18  1  0
 18 19  1  0
 19 20  1  0
 20 21  1  0
 21 22  1  0
 22 23  1  0
 23  6  1  0
 23 24  2  0
 25 26  1  0
 26 27  1  0
 27 28  1  0
 28 29  1  0
 29 30  1  0
 30 31  1  0
 31 32  1  0
 32  4  1  0
 32 33  2  0
M  END
>  <DRUGBANK_ID>  (1) 
DB12176

>  <SECONDARY_ACCESSION_NUMBERS>  (1) 
DB05781

>  <COMMON_NAME>  (1) 
Tricaprylin

>  <CAS_NUMBER>  (1) 
538-23-8

>  <UNII>  (1) 
6P92858988

>  <SYNONYMS>  (1) 
Caprylic acid triglyceride; Caprylic triglyceride; Glycerol tricaprylate; Glycerol trioctanoate; Tricaprilin; Tricaprylyl glycerin; Tricaprylyl glycerol

$$$$
