ZMA
     RDKit          2D

 25 28  0  0  0  0  0  0  0  0999 V2000
    3.0695    0.8823    0.0000 C   0  0  0  0  0  0  0  0  0  0  0  0
    3.7839    0.4698    0.0000 C   0  0  0  0  0  0  0  0  0  0  0  0
    3.7839   -0.3552    0.0000 C   0  0  0  0  0  0  0  0  0  0  0  0
    4.4984   -0.7677    0.0000 O   0  0  0  0  0  0  0  0  0  0  0  0
    3.0695   -0.7677    0.0000 C   0  0  0  0  0  0  0  0  0  0  0  0
    2.3550   -0.3552    0.0000 C   0  0  0  0  0  0  0  0  0  0  0  0
    2.3550    0.4698    0.0000 C   0  0  0  0  0  0  0  0  0  0  0  0
    1.6405    0.8823    0.0000 C   0  0  0  0  0  0  0  0  0  0  0  0
    0.9260    0.4698    0.0000 C   0  0  0  0  0  0  0  0  0  0  0  0
    0.2116    0.8823    0.0000 N   0  0  0  0  0  0  0  0  0  0  0  0
   -0.5029    0.4698    0.0000 C   0  0  0  0  0  0  0  0  0  0  0  0
   -1.2174    0.8823    0.0000 N   0  0  0  0  0  0  0  0  0  0  0  0
   -0.5029   -0.3552    0.0000 N   0  0  0  0  0  0  0  0  0  0  0  0
   -1.2174   -0.7677    0.0000 C   0  0  0  0  0  0  0  0  0  0  0  0
   -1.2174   -1.5927    0.0000 N   0  0  0  0  0  0  0  0  0  0  0  0
   -1.9318   -0.3552    0.0000 N   0  0  0  0  0  0  0  0  0  0  0  0
   -2.7165   -0.6102    0.0000 N   0  0  0  0  0  0  0  0  0  0  0  0
   -1.9318    0.4698    0.0000 C   0  0  0  0  0  0  0  0  0  0  0  0
   -2.7165    0.7247    0.0000 N   0  0  0  0  0  0  0  0  0  0  0  0
   -3.2014    0.0573    0.0000 C   0  0  0  0  0  0  0  0  0  0  0  0
   -4.0264    0.0573    0.0000 C   0  0  0  0  0  0  0  0  0  0  0  0
   -4.5113    0.7247    0.0000 C   0  0  0  0  0  0  0  0  0  0  0  0
   -5.2959    0.4698    0.0000 C   0  0  0  0  0  0  0  0  0  0  0  0
   -5.2959   -0.3552    0.0000 C   0  0  0  0  0  0  0  0  0  0  0  0
   -4.5113   -0.6102    0.0000 O   0  0  0  0  0  0  0  0  0  0  0  0
  1  2  2  0
  2  3  1  0
  3  4  1  0
  5  3  2  0
  6  5  1  0
  7  1  1  0
  7  6  2  0
  8  7  1  0
  9  8  1  0
 10  9  1  0
 11 10  1  0
 11 13  1  0
 12 11  2  0
 14 13  2  0
 14 15  1  0
 16 14  1  0
 17 16  1  0
 18 12  1  0
 18 16  1  0
 19 18  2  0
 20 17  2  0
 20 19  1  0
 21 20  1  0
 22 21  2  0
 23 22  1  0
 23 24  2  0
 24 25  1  0
 25 21  1  0
M  END
>  <DRUGBANK_ID>  (1) 
DB08770

>  <COMMON_NAME>  (1) 
4-{2-[(7-amino-2-furan-2-yl[1,2,4]triazolo[1,5-a][1,3,5]triazin-5-yl)amino]ethyl}phenol

>  <UNII>  (1) 
5NIC36BO71

$$$$
