TPI
     RDKit          2D

 29 30  0  0  0  0  0  0  0  0999 V2000
   -4.2044   -1.3904    0.0000 P   0  0  0  0  0  0  0  0  0  0  0  0
   -4.9189   -1.8029    0.0000 O   0  0  0  0  0  0  0  0  0  0  0  0
   -3.7919   -2.1049    0.0000 O   0  0  0  0  0  0  0  0  0  0  0  0
   -4.6169   -0.6759    0.0000 O   0  0  0  0  0  0  0  0  0  0  0  0
   -3.4899   -0.9779    0.0000 C   0  0  0  0  0  0  0  0  0  0  0  0
   -3.0774   -1.6924    0.0000 F   0  0  0  0  0  0  0  0  0  0  0  0
   -3.9024   -0.2634    0.0000 F   0  0  0  0  0  0  0  0  0  0  0  0
   -2.0610   -0.9779    0.0000 C   0  0  0  0  0  0  0  0  0  0  0  0
   -2.7755   -0.5654    0.0000 C   0  0  0  0  0  0  0  0  0  0  0  0
   -2.7755    0.2596    0.0000 C   0  0  0  0  0  0  0  0  0  0  0  0
   -2.0610    0.6721    0.0000 C   0  0  0  0  0  0  0  0  0  0  0  0
   -0.6320    0.6721    0.0000 C   0  0  0  0  0  0  0  0  0  0  0  0
    0.0824    0.2596    0.0000 C   0  0  0  0  0  0  0  0  0  0  0  0
    0.0824   -0.5654    0.0000 C   0  0  0  0  0  0  0  0  0  0  0  0
   -0.6320   -0.9779    0.0000 C   0  0  0  0  0  0  0  0  0  0  0  0
   -1.3465   -0.5654    0.0000 C   0  0  0  0  0  0  0  0  0  0  0  0
   -1.3465    0.2596    0.0000 C   0  0  0  0  0  0  0  0  0  0  0  0
    0.7969    0.6721    0.0000 C   0  0  0  0  0  0  0  0  0  0  0  0
    0.7969    1.4971    0.0000 O   0  0  0  0  0  0  0  0  0  0  0  0
    1.5114    0.2596    0.0000 N   0  0  0  0  0  0  0  0  0  0  0  0
    2.2258    0.6721    0.0000 C   0  0  0  0  0  0  0  0  0  0  0  0
    2.2258    1.4971    0.0000 C   0  0  0  0  0  0  0  0  0  0  0  0
    2.9403    1.9096    0.0000 N   0  0  0  0  0  0  0  0  0  0  0  0
    1.5114    1.9096    0.0000 O   0  0  0  0  0  0  0  0  0  0  0  0
    2.9403    0.2596    0.0000 C   0  0  0  0  0  0  0  0  0  0  0  0
    3.6548    0.6721    0.0000 C   0  0  0  0  0  0  0  0  0  0  0  0
    4.3693    0.2596    0.0000 C   0  0  0  0  0  0  0  0  0  0  0  0
    5.0837    0.6721    0.0000 O   0  0  0  0  0  0  0  0  0  0  0  0
    4.3693   -0.5654    0.0000 O   0  0  0  0  0  0  0  0  0  0  0  0
  1  2  1  0
  1  3  1  0
  1  4  2  0
  1  5  1  0
  5  6  1  0
  5  7  1  0
  5  9  1  0
  8  9  2  0
  8 16  1  0
  9 10  1  0
 10 11  2  0
 11 17  1  0
 12 13  1  0
 12 17  2  0
 13 14  2  0
 13 18  1  0
 14 15  1  0
 15 16  2  0
 16 17  1  0
 18 19  2  0
 18 20  1  0
 21 20  1  0
 21 22  1  0
 21 25  1  6
 22 23  1  0
 22 24  2  0
 25 26  1  0
 26 27  1  0
 27 28  2  0
 27 29  1  0
M  END
>  <DRUGBANK_ID>  (1) 
DB03714

>  <SECONDARY_ACCESSION_NUMBERS>  (1) 
EXPT03090

>  <COMMON_NAME>  (1) 
4-Carbamoyl-4-{[6-(Difluoro-Phosphono-Methyl)-Naphthalene-2-Carbonyl]-Amino}-Butyric Acid

$$$$
