AI1
     RDKit          2D

 28 30  0  0  0  0  0  0  0  0999 V2000
    0.3469   -1.5165    0.0000 C   0  0  0  0  0  0  0  0  0  0  0  0
    0.3469   -0.6915    0.0000 O   0  0  0  0  0  0  0  0  0  0  0  0
    1.0613   -1.9290    0.0000 C   0  0  0  0  0  0  0  0  0  0  0  0
    1.7758   -1.5165    0.0000 O   0  0  0  0  0  0  0  0  0  0  0  0
    1.0613   -2.7540    0.0000 C   0  0  0  0  0  0  0  0  0  0  0  0
    1.7758   -3.1665    0.0000 O   0  0  0  0  0  0  0  0  0  0  0  0
    0.3469   -3.1665    0.0000 C   0  0  0  0  0  0  0  0  0  0  0  0
    0.3469   -3.9915    0.0000 O   0  0  0  0  0  0  0  0  0  0  0  0
   -0.3676   -2.7540    0.0000 C   0  0  0  0  0  0  0  0  0  0  0  0
   -0.3676   -1.9290    0.0000 O   0  0  0  0  0  0  0  0  0  0  0  0
   -1.0821   -3.1665    0.0000 C   0  0  0  0  0  0  0  0  0  0  0  0
   -1.7965   -2.7540    0.0000 O   0  0  0  0  0  0  0  0  0  0  0  0
   -0.3676   -0.2790    0.0000 C   0  0  0  0  0  0  0  0  0  0  0  0
   -1.0821   -0.6915    0.0000 C   0  0  0  0  0  0  0  0  0  0  0  0
   -1.7965   -0.2790    0.0000 C   0  0  0  0  0  0  0  0  0  0  0  0
   -1.7965    0.5460    0.0000 C   0  0  0  0  0  0  0  0  0  0  0  0
   -1.0821    0.9585    0.0000 C   0  0  0  0  0  0  0  0  0  0  0  0
   -0.3676    0.5460    0.0000 C   0  0  0  0  0  0  0  0  0  0  0  0
   -1.0821    1.7835    0.0000 C   0  0  0  0  0  0  0  0  0  0  0  0
   -1.7965    2.1960    0.0000 O   0  0  0  0  0  0  0  0  0  0  0  0
   -0.3676    2.1960    0.0000 N   0  0  0  0  0  0  0  0  0  0  0  0
   -0.3676    3.0210    0.0000 C   0  0  0  0  0  0  0  0  0  0  0  0
    0.3469    3.4335    0.0000 C   0  0  0  0  0  0  0  0  0  0  0  0
    0.3469    4.2585    0.0000 C   0  0  0  0  0  0  0  0  0  0  0  0
    1.0613    4.6710    0.0000 C   0  0  0  0  0  0  0  0  0  0  0  0
    1.7758    4.2585    0.0000 C   0  0  0  0  0  0  0  0  0  0  0  0
    1.7758    3.4335    0.0000 C   0  0  0  0  0  0  0  0  0  0  0  0
    1.0613    3.0210    0.0000 C   0  0  0  0  0  0  0  0  0  0  0  0
  1  2  1  6
  1  3  1  0
  1 10  1  0
  2 13  1  0
  3  4  1  6
  3  5  1  0
  5  6  1  1
  5  7  1  0
  7  8  1  1
  7  9  1  0
  9 10  1  0
  9 11  1  1
 11 12  1  0
 13 14  2  0
 13 18  1  0
 14 15  1  0
 15 16  2  0
 16 17  1  0
 17 18  2  0
 17 19  1  0
 19 20  2  0
 19 21  1  0
 21 22  1  0
 22 23  1  0
 23 24  2  0
 23 28  1  0
 24 25  1  0
 25 26  2  0
 26 27  1  0
 27 28  2  0
M  END
>  <DRUGBANK_ID>  (1) 
DB03446

>  <SECONDARY_ACCESSION_NUMBERS>  (1) 
EXPT00470

>  <COMMON_NAME>  (1) 
N-Benzyl-3-(alpha-D-galactopyranosyloxy)benzamide

>  <SYNONYMS>  (1) 
BAPG; N-Benzyl-3-(Î±-D-galactopyranosyloxy)benzamide

$$$$
