
     RDKit          2D

 32 35  0  0  0  0  0  0  0  0999 V2000
    4.2135    0.6979    0.0000 C   0  0  0  0  0  0  0  0  0  0  0  0
    3.4990    1.1104    0.0000 C   0  0  0  0  0  0  0  0  0  0  0  0
    2.7845    0.6979    0.0000 C   0  0  0  0  0  0  0  0  0  0  0  0
    2.0701    1.1104    0.0000 N   0  0  0  0  0  0  0  0  0  0  0  0
    1.3556    0.6979    0.0000 C   0  0  0  0  0  0  0  0  0  0  0  0
    1.3556   -0.1271    0.0000 O   0  0  0  0  0  0  0  0  0  0  0  0
    0.6411    1.1104    0.0000 C   0  0  0  0  0  0  0  0  0  0  0  0
    0.6411    1.9354    0.0000 C   0  0  0  0  0  0  0  0  0  0  0  0
   -0.1435    2.1904    0.0000 N   0  0  0  0  0  0  0  0  0  0  0  0
   -0.6284    1.5229    0.0000 C   0  0  0  0  0  0  0  0  0  0  0  0
   -0.1435    0.8555    0.0000 N   0  0  0  0  0  0  0  0  0  0  0  0
   -1.4534    1.5229    0.0000 C   0  0  0  0  0  0  0  0  0  0  0  0
   -1.9384    0.8555    0.0000 C   0  0  0  0  0  0  0  0  0  0  0  0
   -2.7230    1.1104    0.0000 N   0  0  0  0  0  0  0  0  0  0  0  0
   -2.7230    1.9354    0.0000 N   0  0  0  0  0  0  0  0  0  0  0  0
   -1.9384    2.1904    0.0000 C   0  0  0  0  0  0  0  0  0  0  0  0
   -3.3904    2.4204    0.0000 C   0  0  0  0  0  0  0  0  0  0  0  0
   -4.1441    2.0848    0.0000 C   0  0  0  0  0  0  0  0  0  0  0  0
   -4.2303    1.2643    0.0000 C   0  0  0  0  0  0  0  0  0  0  0  0
   -4.9840    0.9288    0.0000 C   0  0  0  0  0  0  0  0  0  0  0  0
   -5.6514    1.4137    0.0000 C   0  0  0  0  0  0  0  0  0  0  0  0
   -5.5652    2.2342    0.0000 C   0  0  0  0  0  0  0  0  0  0  0  0
   -4.8115    2.5697    0.0000 C   0  0  0  0  0  0  0  0  0  0  0  0
   -6.2326    2.7191    0.0000 C   0  0  0  0  0  0  0  0  0  0  0  0
   -6.9001    3.2040    0.0000 F   0  0  0  0  0  0  0  0  0  0  0  0
   -5.7477    3.3865    0.0000 F   0  0  0  0  0  0  0  0  0  0  0  0
   -6.7176    2.0517    0.0000 F   0  0  0  0  0  0  0  0  0  0  0  0
    1.3556    2.3479    0.0000 N   0  0  0  0  0  0  0  0  0  0  0  0
    2.0701    1.9354    0.0000 C   0  0  0  0  0  0  0  0  0  0  0  0
    2.7845    2.3479    0.0000 O   0  0  0  0  0  0  0  0  0  0  0  0
    1.3556    3.1729    0.0000 C   0  0  0  0  0  0  0  0  0  0  0  0
    2.0701    3.5854    0.0000 C   0  0  0  0  0  0  0  0  0  0  0  0
  1  2  1  0
  2  3  1  0
  3  4  1  0
  4  5  1  0
  4 29  1  0
  5  6  2  0
  5  7  1  0
  7  8  2  0
  7 11  1  0
  8  9  1  0
  8 28  1  0
  9 10  2  0
 10 11  1  0
 10 12  1  0
 12 13  1  0
 12 16  2  0
 13 14  2  0
 14 15  1  0
 15 16  1  0
 15 17  1  0
 17 18  1  0
 18 19  2  0
 18 23  1  0
 19 20  1  0
 20 21  2  0
 21 22  1  0
 22 23  2  0
 22 24  1  0
 24 25  1  0
 24 26  1  0
 24 27  1  0
 28 29  1  0
 28 31  1  0
 29 30  2  0
 31 32  1  0
M  END
>  <DRUGBANK_ID>  (1) 
DB05936

>  <COMMON_NAME>  (1) 
CVT-6883

>  <CAS_NUMBER>  (1) 
752222-83-6

>  <UNII>  (1) 
67CKV7X08G

$$$$
