
     RDKit          2D

 15 15  0  0  0  0  0  0  0  0999 V2000
    0.3572    0.1105    0.0000 O   0  0  0  0  0  0  0  0  0  0  0  0
   -1.7863   -1.1270    0.0000 O   0  0  0  0  0  0  0  0  0  0  0  0
   -0.3572   -1.9520    0.0000 O   0  0  0  0  0  0  0  0  0  0  0  0
   -1.7863    0.5230    0.0000 O   0  0  0  0  0  0  0  0  0  0  0  0
   -0.7698    1.2376    0.0000 O   0  0  0  0  0  0  0  0  0  0  0  0
    1.7863   -0.7145    0.0000 O   0  0  0  0  0  0  0  0  0  0  0  0
   -0.3572    1.9520    0.0000 O   0  0  0  0  0  0  0  0  0  0  0  0
    0.8803    1.2376    0.0000 N   0  0  0  0  0  0  0  0  0  0  0  0
   -1.0717   -0.7145    0.0000 C   0  0  0  0  0  0  0  0  0  0  0  0
   -0.3572   -1.1270    0.0000 C   0  0  0  0  0  0  0  0  0  0  0  0
   -1.0717    0.1105    0.0000 C   0  0  0  0  0  0  0  0  0  0  0  0
    0.3572   -0.7145    0.0000 C   0  0  0  0  0  0  0  0  0  0  0  0
   -0.3572    0.5230    0.0000 C   0  0  0  0  0  0  0  0  0  0  0  0
    1.0717   -1.1270    0.0000 C   0  0  0  0  0  0  0  0  0  0  0  0
    0.0552    1.2376    0.0000 C   0  0  0  0  0  0  0  0  0  0  0  0
  1 12  1  0
  1 13  1  0
  6 14  1  0
  7 15  2  0
  8 15  1  0
  9  2  1  6
  9 10  1  0
  9 11  1  0
 10  3  1  1
 10 12  1  0
 11  4  1  1
 11 13  1  0
 12 14  1  6
 13  5  1  1
 13 15  1  0
M  END
>  <DRUGBANK_ID>  (1) 
DB02719

>  <SECONDARY_ACCESSION_NUMBERS>  (1) 
EXPT00842

>  <COMMON_NAME>  (1) 
C-(1-hydrogyl-beta-D-glucopyranosyl) formamide

>  <CAS_NUMBER>  (1) 
361440-32-6

>  <SYNONYMS>  (1) 
(2R,3R,4S,5S,6R)-2,3,4,5-Tetrahydroxy-6-(hydroxymethyl)tetrahydro-2H-pyran-2-carboxamide

$$$$
