
     RDKit          2D

 32 36  0  0  0  0  0  0  0  0999 V2000
   -1.8213   -0.8250    0.0000 C   0  0  0  0  0  0  0  0  0  0  0  0
   -1.1068   -1.2374    0.0000 C   0  0  0  0  0  0  0  0  0  0  0  0
    0.3220   -2.0625    0.0000 C   0  0  0  0  0  0  0  0  0  0  0  0
   -0.3923   -2.4749    0.0000 C   0  0  0  0  0  0  0  0  0  0  0  0
   -1.1068   -2.0625    0.0000 C   0  0  0  0  0  0  0  0  0  0  0  0
   -1.8213   -2.4749    0.0000 C   0  0  0  0  0  0  0  0  0  0  0  0
   -2.5357   -1.2374    0.0000 C   0  0  0  0  0  0  0  0  0  0  0  0
   -2.5357   -2.0625    0.0000 C   0  0  0  0  0  0  0  0  0  0  0  0
    0.3220   -1.2374    0.0000 C   0  0  0  0  0  0  0  0  0  0  0  0
   -0.3923   -0.8250    0.0000 C   0  0  0  0  0  0  0  0  0  0  0  0
    1.8212   -1.0799    0.0000 C   0  0  0  0  0  0  0  0  0  0  0  0
    1.8212    0.2549    0.0000 C   0  0  0  0  0  0  0  0  0  0  0  0
    0.3222    0.4125    0.0000 C   0  0  0  0  0  0  0  0  0  0  0  0
    2.3061   -0.4125    0.0000 C   0  0  0  0  0  0  0  0  0  0  0  0
   -0.3923    0.0000    0.0000 C   0  0  0  0  0  0  0  0  0  0  0  0
   -3.2502   -2.4749    0.0000 O   0  0  0  0  0  0  0  0  0  0  0  0
    1.0365    0.0000    0.0000 C   0  0  0  0  0  0  0  0  0  0  0  0
    1.0366    0.8249    0.0000 C   0  0  0  0  0  0  0  0  0  0  0  0
    1.0365   -0.8251    0.0000 C   0  0  0  0  0  0  0  0  0  0  0  0
   -1.1068    0.4125    0.0000 C   0  0  0  0  0  0  0  0  0  0  0  0
    1.8212    1.0799    0.0000 O   0  0  0  0  0  0  0  0  0  0  0  0
   -1.8212    1.6500    0.0000 C   0  0  0  0  0  0  0  0  0  0  0  0
   -2.5357    1.2375    0.0000 C   0  0  0  0  0  0  0  0  0  0  0  0
   -2.5357    0.4125    0.0000 C   0  0  0  0  0  0  0  0  0  0  0  0
   -1.8212    0.0000    0.0000 C   0  0  0  0  0  0  0  0  0  0  0  0
   -1.1068    1.2375    0.0000 C   0  0  0  0  0  0  0  0  0  0  0  0
   -3.2502    1.6500    0.0000 N   0  0  0  0  0  0  0  0  0  0  0  0
   -3.2502    2.4749    0.0000 C   0  0  0  0  0  0  0  0  0  0  0  0
   -3.9646    1.2375    0.0000 C   0  0  0  0  0  0  0  0  0  0  0  0
    2.5357    0.6674    0.0000 C   0  0  0  0  0  0  0  0  0  0  0  0
    3.2501    1.0799    0.0000 C   0  0  0  0  0  0  0  0  0  0  0  0
    3.9646    1.4924    0.0000 C   0  0  0  0  0  0  0  0  0  0  0  0
  1  7  1  0
  2  1  1  0
  2  5  1  0
  3  4  1  0
  4  5  1  0
  5  6  2  0
  6  8  1  0
  7  8  1  0
  8 16  2  0
  9  3  1  6
  9 19  1  0
 10  9  1  0
 10  2  2  0
 10 15  1  0
 12 14  1  0
 12 21  1  1
 12 30  1  0
 13 15  1  0
 14 11  1  0
 15 20  1  1
 17 12  1  0
 17 13  1  0
 17 18  1  1
 19 11  1  1
 19 17  1  0
 20 26  2  0
 22 23  2  0
 22 26  1  0
 23 24  1  0
 23 27  1  0
 24 25  2  0
 25 20  1  0
 27 28  1  0
 27 29  1  0
 30 31  3  0
 31 32  1  0
M  END
>  <DRUGBANK_ID>  (1) 
DB00834

>  <SECONDARY_ACCESSION_NUMBERS>  (1) 
APRD00432

>  <COMMON_NAME>  (1) 
Mifepristone

>  <CAS_NUMBER>  (1) 
84371-65-3

>  <UNII>  (1) 
320T6RNW1F

>  <SYNONYMS>  (1) 
Mifepriston; Mifepristona; Mif√©pristone; Mifepristone; Mifepristonum

$$$$
