
     RDKit          2D

 33 35  0  0  0  0  0  0  0  0999 V2000
    0.7178    0.2078    0.0000 C   0  0  0  0  0  0  0  0  0  0  0  0
    1.4333   -0.2078    0.0000 C   0  0  0  0  0  0  0  0  0  0  0  0
    0.0071   -0.2078    0.0000 C   0  0  0  0  0  0  0  0  0  0  0  0
    2.1439    0.1934    0.0000 C   0  0  0  0  0  0  0  0  0  0  0  0
    1.4188   -1.0345    0.0000 C   0  0  0  0  0  0  0  0  0  0  0  0
    2.8593   -0.2175    0.0000 C   0  0  0  0  0  0  0  0  0  0  0  0
   -0.7081    0.2175    0.0000 N   0  0  0  0  0  0  0  0  0  0  0  0
    2.1342   -1.4598    0.0000 N   0  0  0  0  0  0  0  0  0  0  0  0
    0.7081   -1.4454    0.0000 C   0  0  0  0  0  0  0  0  0  0  0  0
   -0.0072   -1.0345    0.0000 C   0  0  0  0  0  0  0  0  0  0  0  0
    2.1439    1.0200    0.0000 N   0  0  0  0  0  0  0  0  0  0  0  0
    3.5747    0.1934    0.0000 C   0  0  0  0  0  0  0  0  0  0  0  0
    4.2853    0.6090    0.0000 N   0  0  0  0  0  0  0  0  0  0  0  0
   -1.4188   -0.1934    0.0000 C   0  0  0  0  0  0  0  0  0  0  0  0
    4.2853    1.4308    0.0000 C   0  0  0  0  0  0  0  0  0  0  0  0
    3.5747    1.0200    0.0000 C   0  0  0  0  0  0  0  0  0  0  0  0
    2.8593   -1.0440    0.0000 C   0  0  0  0  0  0  0  0  0  0  0  0
    2.8593    1.4308    0.0000 C   0  0  0  0  0  0  0  0  0  0  0  0
    4.2853    2.2574    0.0000 C   0  0  0  0  0  0  0  0  0  0  0  0
   -2.1342    0.2175    0.0000 C   0  0  0  0  0  0  0  0  0  0  0  0
   -2.8593   -0.1934    0.0000 C   0  0  0  0  0  0  0  0  0  0  0  0
   -1.4333   -1.0200    0.0000 O   0  0  0  0  0  0  0  0  0  0  0  0
    3.5747    2.6733    0.0000 C   0  0  0  0  0  0  0  0  0  0  0  0
    5.0008    1.0200    0.0000 Cl  0  0  0  0  0  0  0  0  0  0  0  0
    2.8593    2.2574    0.0000 C   0  0  0  0  0  0  0  0  0  0  0  0
   -4.2853   -0.1836    0.0000 N   0  0  0  0  0  0  0  0  0  0  0  0
    5.0008    2.6733    0.0000 F   0  0  0  0  0  0  0  0  0  0  0  0
   -0.7178   -1.4454    0.0000 O   0  0  0  0  0  0  0  0  0  0  0  0
   -3.5747    0.2320    0.0000 C   0  0  0  0  0  0  0  0  0  0  0  0
   -5.0008    0.2320    0.0000 C   0  0  0  0  0  0  0  0  0  0  0  0
   -4.2853   -1.0055    0.0000 C   0  0  0  0  0  0  0  0  0  0  0  0
   -0.7324   -2.2719    0.0000 C   0  0  0  0  0  0  0  0  0  0  0  0
   -1.4478   -2.6733    0.0000 C   0  0  0  0  0  0  0  0  0  0  0  0
  2  1  2  0
  3  1  1  0
  4  2  1  0
  5  2  1  0
  5  9  2  0
  6  4  2  0
  7  3  1  0
  8  5  1  0
  9 10  1  0
 10  3  2  0
 11  4  1  0
 12  6  1  0
 13 12  3  0
 14  7  1  0
 15 16  2  0
 16 18  1  0
 17  8  2  0
 17  6  1  0
 18 11  1  0
 19 23  2  0
 19 15  1  0
 20 14  1  0
 21 20  2  0
 22 14  2  0
 23 25  1  0
 24 15  1  0
 25 18  2  0
 26 29  1  0
 27 19  1  0
 28 10  1  0
 29 21  1  0
 30 26  1  0
 31 26  1  0
 32 28  1  0
 33 32  1  0
M  END
>  <DRUGBANK_ID>  (1) 
DB05524

>  <COMMON_NAME>  (1) 
Pelitinib

>  <CAS_NUMBER>  (1) 
257933-82-7

>  <UNII>  (1) 
X5DWL380Z6

>  <SYNONYMS>  (1) 
(2E)-N-(4-((3-chloro-4-fluorophenyl)amino)-3-cyano-7-ethoxy-6-quinolinyl)-4-(dimethylamino)-2-butenamide; Pelitinib

$$$$
