
     RDKit          2D

 20 21  0  0  0  0  0  0  0  0999 V2000
    4.8525   -0.8511    0.0000 C   0  0  0  0  0  0  0  0  0  0  0  0
    5.5670   -1.2636    0.0000 C   0  0  0  0  0  0  0  0  0  0  0  0
    5.5670   -2.0886    0.0000 O   0  0  0  0  0  0  0  0  0  0  0  0
    6.2815   -0.8511    0.0000 C   0  0  0  0  0  0  0  0  0  0  0  0
    6.9960   -1.2636    0.0000 C   0  0  0  0  0  0  0  0  0  0  0  0
    7.7104   -0.8511    0.0000 C   0  0  0  0  0  0  0  0  0  0  0  0
    8.4249   -1.2636    0.0000 C   0  0  0  0  0  0  0  0  0  0  0  0
    9.1394   -0.8511    0.0000 N   0  0  0  0  0  0  0  0  0  0  0  0
    9.2256   -0.0307    0.0000 C   0  0  0  0  0  0  0  0  0  0  0  0
   10.0326    0.1409    0.0000 N   0  0  0  0  0  0  0  0  0  0  0  0
   10.4451   -0.5736    0.0000 C   0  0  0  0  0  0  0  0  0  0  0  0
   11.2521   -0.7451    0.0000 N   0  0  0  0  0  0  0  0  0  0  0  0
   11.8041   -0.1320    0.0000 C   0  0  0  0  0  0  0  0  0  0  0  0
   11.5070   -1.5298    0.0000 C   0  0  0  0  0  0  0  0  0  0  0  0
   12.3140   -1.7013    0.0000 O   0  0  0  0  0  0  0  0  0  0  0  0
   10.9550   -2.1428    0.0000 N   0  0  0  0  0  0  0  0  0  0  0  0
   11.2099   -2.9275    0.0000 C   0  0  0  0  0  0  0  0  0  0  0  0
   10.1480   -1.9713    0.0000 C   0  0  0  0  0  0  0  0  0  0  0  0
    9.5960   -2.5844    0.0000 O   0  0  0  0  0  0  0  0  0  0  0  0
    9.8930   -1.1867    0.0000 C   0  0  0  0  0  0  0  0  0  0  0  0
  1  2  1  0
  2  3  2  0
  2  4  1  0
  4  5  1  0
  5  6  1  0
  6  7  1  0
  7  8  1  0
  8  9  1  0
  8 20  1  0
  9 10  2  0
 10 11  1  0
 11 12  1  0
 11 20  2  0
 12 13  1  0
 12 14  1  0
 14 15  2  0
 14 16  1  0
 16 17  1  0
 16 18  1  0
 18 19  2  0
 18 20  1  0
M  END
>  <DRUGBANK_ID>  (1) 
DB18002

>  <COMMON_NAME>  (1) 
Lomifylline

>  <CAS_NUMBER>  (1) 
10226-54-7

>  <UNII>  (1) 
NA91GV8GDJ

>  <SYNONYMS>  (1) 
7-(5-oxohexyl)theophylline

$$$$
