
     RDKit          2D

 35 36  0  0  1  0  0  0  0  0999 V2000
   -4.2868    8.2500    0.0000 C   0  0  0  0  0  0  0  0  0  0  0  0
   -3.5724    7.8375    0.0000 C   0  0  0  0  0  0  0  0  0  0  0  0
   -2.8579    8.2500    0.0000 C   0  0  0  0  0  0  0  0  0  0  0  0
   -2.1434    7.8375    0.0000 C   0  0  0  0  0  0  0  0  0  0  0  0
   -1.4289    8.2500    0.0000 C   0  0  0  0  0  0  0  0  0  0  0  0
   -0.7145    7.8375    0.0000 C   0  0  0  0  0  0  0  0  0  0  0  0
   -0.0000    8.2500    0.0000 C   0  0  0  0  0  0  0  0  0  0  0  0
    0.7145    7.8375    0.0000 C   0  0  0  0  0  0  0  0  0  0  0  0
    1.4289    8.2500    0.0000 C   0  0  0  0  0  0  0  0  0  0  0  0
    2.1434    7.8375    0.0000 C   0  0  0  0  0  0  0  0  0  0  0  0
    2.8579    8.2500    0.0000 C   0  0  0  0  0  0  0  0  0  0  0  0
    3.5724    7.8375    0.0000 C   0  0  0  0  0  0  0  0  0  0  0  0
    8.5737    9.0750    0.0000 C   0  0  0  0  0  0  0  0  0  0  0  0
    5.7158    5.7750    0.0000 C   0  0  0  0  0  0  0  0  0  0  0  0
    8.5737    8.2500    0.0000 C   0  0  0  0  0  0  0  0  0  0  0  0
    5.7158    6.6000    0.0000 C   0  0  0  0  0  0  0  0  0  0  0  0
    9.2881    7.8375    0.0000 C   0  0  0  0  0  0  0  0  0  0  0  0
    9.2881    7.0125    0.0000 C   0  0  0  0  0  0  0  0  0  0  0  0
    6.4302    7.8375    0.0000 C   0  0  0  0  0  0  0  0  0  0  0  0
    8.5737    6.6000    0.0000 C   0  0  0  0  0  0  0  0  0  0  0  0
    5.7158    8.2500    0.0000 C   0  0  0  0  0  0  0  0  0  0  0  0
    6.4302    7.0125    0.0000 C   0  0  0  0  0  0  0  0  0  0  0  0
    5.0013    7.8375    0.0000 C   0  0  0  0  0  0  0  0  0  0  0  0
    7.8592    7.0125    0.0000 C   0  0  0  0  0  0  0  0  0  0  0  0
    9.2881    9.4875    0.0000 O   0  0  0  0  0  0  0  0  0  0  0  0
    5.0013    5.3625    0.0000 O   0  0  0  0  0  0  0  0  0  0  0  0
   10.0026    8.2500    0.0000 O   0  0  0  0  0  0  0  0  0  0  0  0
   10.0026    6.6000    0.0000 O   0  0  0  0  0  0  0  0  0  0  0  0
    7.1447    8.2500    0.0000 O   0  0  0  0  0  0  0  0  0  0  0  0
    8.5737    5.7750    0.0000 O   0  0  0  0  0  0  0  0  0  0  0  0
    5.7158    9.0750    0.0000 O   0  0  0  0  0  0  0  0  0  0  0  0
    4.2868    8.2500    0.0000 O   0  0  0  0  0  0  0  0  0  0  0  0
    7.8592    7.8375    0.0000 O   0  0  0  0  0  0  0  0  0  0  0  0
    5.0013    7.0125    0.0000 O   0  0  0  0  0  0  0  0  0  0  0  0
    7.1447    6.6000    0.0000 O   0  0  0  0  0  0  0  0  0  0  0  0
  2  1  1  0
  3  2  1  0
  4  3  1  0
  5  4  1  0
  6  5  1  0
  7  6  1  0
  8  7  1  0
  9  8  1  0
 10  9  1  0
 11 10  1  0
 12 11  1  0
 15 13  1  6
 16 14  1  1
 17 15  1  0
 17 27  1  1
 18 17  1  0
 18 28  1  6
 19 29  1  1
 20 18  1  0
 20 30  1  1
 21 19  1  0
 21 31  1  6
 22 16  1  0
 22 19  1  0
 22 35  1  6
 23 21  1  0
 23 32  1  6
 24 20  1  0
 24 35  1  1
 25 13  1  0
 26 14  1  0
 32 12  1  0
 33 15  1  0
 33 24  1  0
 34 16  1  0
 34 23  1  0
M  END
>  <DRUGBANK_ID>  (1) 
DB03279

>  <SECONDARY_ACCESSION_NUMBERS>  (1) 
EXPT02044

>  <COMMON_NAME>  (1) 
Dodecyl-Alpha-D-Maltoside

$$$$
