
     RDKit          2D

 20 23  0  0  0  0  0  0  0  0999 V2000
   -2.0599   -0.5160    0.0000 C   0  0  0  0  0  0  0  0  0  0  0  0
   -2.0599   -1.3469    0.0000 C   0  0  0  0  0  0  0  0  0  0  0  0
   -1.3495   -1.7574    0.0000 C   0  0  0  0  0  0  0  0  0  0  0  0
   -0.6338   -1.3469    0.0000 C   0  0  0  0  0  0  0  0  0  0  0  0
   -0.6338   -0.5160    0.0000 C   0  0  0  0  0  0  0  0  0  0  0  0
   -1.3495   -0.1056    0.0000 C   0  0  0  0  0  0  0  0  0  0  0  0
    0.0764   -0.1056    0.0000 C   0  0  0  0  0  0  0  0  0  0  0  0
    0.7921   -0.5160    0.0000 C   0  0  0  0  0  0  0  0  0  0  0  0
    0.7921   -1.3469    0.0000 C   0  0  0  0  0  0  0  0  0  0  0  0
    0.0764   -1.7574    0.0000 C   0  0  0  0  0  0  0  0  0  0  0  0
    1.5078   -0.1056    0.0000 C   0  0  0  0  0  0  0  0  0  0  0  0
    1.5078    0.7152    0.0000 C   0  0  0  0  0  0  0  0  0  0  0  0
    0.7921    1.1265    0.0000 C   0  0  0  0  0  0  0  0  0  0  0  0
    0.0764    0.7152    0.0000 C   0  0  0  0  0  0  0  0  0  0  0  0
    2.2871    0.9681    0.0000 C   0  0  0  0  0  0  0  0  0  0  0  0
    2.7756    0.3047    0.0000 C   0  0  0  0  0  0  0  0  0  0  0  0
    2.2871   -0.3631    0.0000 C   0  0  0  0  0  0  0  0  0  0  0  0
    2.5445    1.7574    0.0000 O   0  0  0  0  0  0  0  0  0  0  0  0
    1.5078    1.5415    0.0000 C   0  0  0  0  0  0  0  0  0  0  0  0
   -2.7756   -1.7574    0.0000 O   0  0  0  0  0  0  0  0  0  0  0  0
  1  2  1  0
  1  6  1  0
  2  3  1  0
  2 20  1  1
  3  4  1  0
  4  5  1  0
  4 10  2  0
  5  6  1  6
  5  7  1  0
  7 14  1  1
  8  7  1  0
  8 11  1  0
  8  9  1  6
 10  9  1  0
 11 12  1  0
 11 17  1  1
 12 13  1  0
 12 15  1  0
 12 19  1  1
 13 14  1  0
 15 18  1  1
 16 15  1  0
 17 16  1  0
M  END
>  <DRUGBANK_ID>  (1) 
DB01455

>  <COMMON_NAME>  (1) 
19-Nor-5-androstenediol

>  <CAS_NUMBER>  (1) 
25975-59-1

>  <UNII>  (1) 
5N0V272KSA

$$$$
