
     RDKit          2D

 25 28  0  0  0  0  0  0  0  0999 V2000
   -1.3441   -2.4241    0.0000 C   0  0  0  0  0  0  0  0  0  0  0  0
    1.8896    1.3425    0.0000 C   0  0  0  0  0  0  0  0  0  0  0  0
    1.7349    2.1529    0.0000 C   0  0  0  0  0  0  0  0  0  0  0  0
    1.2652    0.8033    0.0000 C   0  0  0  0  0  0  0  0  0  0  0  0
    0.9558    2.4241    0.0000 C   0  0  0  0  0  0  0  0  0  0  0  0
    0.7387   -1.7723    0.0000 C   0  0  0  0  0  0  0  0  0  0  0  0
   -0.0811   -1.6813    0.0000 C   0  0  0  0  0  0  0  0  0  0  0  0
    0.8964   -0.3521    0.0000 C   0  0  0  0  0  0  0  0  0  0  0  0
   -1.6238    0.4774    0.0000 C   0  0  0  0  0  0  0  0  0  0  0  0
   -1.6639   -1.6636    0.0000 C   0  0  0  0  0  0  0  0  0  0  0  0
    1.2275   -1.1077    0.0000 C   0  0  0  0  0  0  0  0  0  0  0  0
    0.4860    1.0745    0.0000 C   0  0  0  0  0  0  0  0  0  0  0  0
    0.0764   -0.2611    0.0000 C   0  0  0  0  0  0  0  0  0  0  0  0
    0.3313    1.8849    0.0000 C   0  0  0  0  0  0  0  0  0  0  0  0
   -0.4123   -0.9256    0.0000 C   0  0  0  0  0  0  0  0  0  0  0  0
   -1.7758   -0.3334    0.0000 C   0  0  0  0  0  0  0  0  0  0  0  0
   -0.1383    0.5354    0.0000 C   0  0  0  0  0  0  0  0  0  0  0  0
   -0.4477    2.1561    0.0000 Cl  0  0  0  0  0  0  0  0  0  0  0  0
   -0.8950    0.8641    0.0000 N   0  0  0  0  0  0  0  0  0  0  0  0
   -2.4672   -1.4753    0.0000 N   0  0  0  0  0  0  0  0  0  0  0  0
   -2.5363   -0.6532    0.0000 N   0  0  0  0  0  0  0  0  0  0  0  0
   -1.2367   -0.9578    0.0000 N   0  0  0  0  0  0  0  0  0  0  0  0
    2.0475   -1.1987    0.0000 N   0  0  0  0  0  0  0  0  0  0  0  0
    2.5363   -0.5341    0.0000 O   0  0  0  0  0  0  0  0  0  0  0  0
    2.3787   -1.9543    0.0000 O   0  0  0  0  0  0  0  0  0  0  0  0
  3  2  2  0
  4  2  1  0
  5  3  1  0
  7  6  2  0
 10  1  1  0
 11  6  1  0
 11  8  2  0
 12  4  2  0
 13  8  1  0
 14  5  2  0
 14 12  1  0
 15  7  1  0
 15 13  2  0
 16  9  1  0
 17 12  1  0
 17 13  1  0
 18 14  1  0
 19  9  1  0
 19 17  2  0
 20 10  2  0
 21 16  2  0
 21 20  1  0
 22 10  1  0
 22 15  1  0
 22 16  1  0
 23 11  1  0
 24 23  1  0
 25 23  2  0
M  CHG  2  23   1  24  -1
M  END
>  <DRUGBANK_ID>  (1) 
DB14716

>  <COMMON_NAME>  (1) 
Clonazolam

>  <CAS_NUMBER>  (1) 
33887-02-4

>  <UNII>  (1) 
HJH52YYC1X

$$$$
