
     RDKit          2D

 14 13  0  0  1  0  0  0  0  0999 V2000
    2.0625   -0.7145    0.0000 C   0  0  0  0  0  0  0  0  0  0  0  0
    0.8250   -1.4289    0.0000 C   0  0  0  0  0  0  0  0  0  0  0  0
   -1.2375    0.7145    0.0000 C   0  0  0  0  0  0  0  0  0  0  0  0
    1.2375   -0.7145    0.0000 C   0  0  0  0  0  0  0  0  0  0  0  0
   -2.0625    0.7145    0.0000 C   0  0  0  0  0  0  0  0  0  0  0  0
   -2.4750    1.4289    0.0000 C   0  0  0  0  0  0  0  0  0  0  0  0
   -2.4750    0.0000    0.0000 N   0  0  0  0  0  0  0  0  0  0  0  0
   -3.3000    1.4289    0.0000 O   0  0  0  0  0  0  0  0  0  0  0  0
   -2.0625    2.1434    0.0000 O   0  0  0  0  0  0  0  0  0  0  0  0
    0.0000    0.8250    0.0000 O   0  0  0  0  0  0  0  0  0  0  0  0
    0.0000   -0.8250    0.0000 O   0  0  0  0  0  0  0  0  0  0  0  0
   -0.8250    0.0000    0.0000 O   0  0  0  0  0  0  0  0  0  0  0  0
    0.8250    0.0000    0.0000 O   0  0  0  0  0  0  0  0  0  0  0  0
    0.0000    0.0000    0.0000 P   0  0  0  0  0  0  0  0  0  0  0  0
  4  1  1  0
  4  2  1  0
  5  3  1  0
  5  7  1  6
  6  5  1  0
  8  6  2  0
  9  6  1  0
 12  3  1  0
 13  4  1  0
 14 10  1  0
 14 11  2  0
 14 12  1  0
 14 13  1  0
M  END
>  <DRUGBANK_ID>  (1) 
DB01805

>  <SECONDARY_ACCESSION_NUMBERS>  (1) 
EXPT02178

>  <COMMON_NAME>  (1) 
Monoisopropylphosphorylserine

$$$$
