
     RDKit          2D

 18 17  0  0  0  0  0  0  0  0999 V2000
   11.8557   -4.9590    0.0000 C   0  0  0  0  0  0  0  0  0  0  0  0
   12.2682   -5.6735    0.0000 C   0  0  0  0  0  0  0  0  0  0  0  0
   11.8557   -6.3880    0.0000 C   0  0  0  0  0  0  0  0  0  0  0  0
   12.2682   -7.1024    0.0000 C   0  0  0  0  0  0  0  0  0  0  0  0
   11.8557   -7.8169    0.0000 C   0  0  0  0  0  0  0  0  0  0  0  0
   12.2682   -8.5314    0.0000 C   0  0  0  0  0  0  0  0  0  0  0  0
   11.8557   -9.2459    0.0000 C   0  0  0  0  0  0  0  0  0  0  0  0
   12.2682   -9.9604    0.0000 C   0  0  0  0  0  0  0  0  0  0  0  0
   13.0932   -9.9604    0.0000 C   0  0  0  0  0  0  0  0  0  0  0  0
   13.5057  -10.6749    0.0000 C   0  0  0  0  0  0  0  0  0  0  0  0
   14.3307  -10.6749    0.0000 C   0  0  0  0  0  0  0  0  0  0  0  0
   14.7432  -11.3893    0.0000 C   0  0  0  0  0  0  0  0  0  0  0  0
   15.5682  -11.3893    0.0000 C   0  0  0  0  0  0  0  0  0  0  0  0
   15.9807  -12.1038    0.0000 C   0  0  0  0  0  0  0  0  0  0  0  0
   16.8057  -12.1038    0.0000 C   0  0  0  0  0  0  0  0  0  0  0  0
   17.2182  -12.8183    0.0000 C   0  0  0  0  0  0  0  0  0  0  0  0
   16.8057  -13.5327    0.0000 O   0  0  0  0  0  0  0  0  0  0  0  0
   18.0432  -12.8183    0.0000 O   0  0  0  0  0  0  0  0  0  0  0  0
  1  2  1  0
  2  3  1  0
  3  4  1  0
  4  5  1  0
  5  6  1  0
  6  7  1  0
  7  8  2  0
  8  9  1  0
  9 10  1  0
 10 11  1  0
 11 12  1  0
 12 13  1  0
 13 14  1  0
 14 15  1  0
 15 16  1  0
 16 17  1  0
 16 18  2  0
M  END
>  <DRUGBANK_ID>  (1) 
DB04257

>  <SECONDARY_ACCESSION_NUMBERS>  (1) 
EXPT02495

>  <COMMON_NAME>  (1) 
Palmitoleic Acid

>  <CAS_NUMBER>  (1) 
373-49-9

>  <UNII>  (1) 
209B6YPZ4I

>  <SYNONYMS>  (1) 
(9Z)-hexadecenoic acid; (Z)-9-hexadecenoic acid; (Z)-hexadec-9-enoic acid; 9-cis-hexadecenoic acid; cis-9-Hexadecenoic acid; palmitolinoleic acid; zoomaric acid

$$$$
