
     RDKit          2D

 26 29  0  0  1  0  0  0  0  0999 V2000
   -2.0473    4.3709    0.0000 F   0  0  0  0  0  0  0  0  0  0  0  0
   -2.0473    3.5459    0.0000 C   0  0  0  0  0  0  0  0  0  0  0  0
   -1.3328    3.1334    0.0000 C   0  0  0  0  0  0  0  0  0  0  0  0
   -1.3328    2.3084    0.0000 C   0  0  0  0  0  0  0  0  0  0  0  0
   -2.0473    1.8959    0.0000 C   0  0  0  0  0  0  0  0  0  0  0  0
   -2.7617    2.3084    0.0000 C   0  0  0  0  0  0  0  0  0  0  0  0
   -3.4762    1.8959    0.0000 F   0  0  0  0  0  0  0  0  0  0  0  0
   -2.7617    3.1334    0.0000 C   0  0  0  0  0  0  0  0  0  0  0  0
   -0.6183    1.8959    0.0000 C   0  0  0  0  0  0  0  0  0  0  0  0
    0.0962    2.3084    0.0000 O   0  0  0  0  0  0  0  0  0  0  0  0
   -0.6183    1.0709    0.0000 N   0  0  0  0  0  0  0  0  0  0  0  0
    0.0962    0.6584    0.0000 C   0  0  0  0  0  0  0  0  0  0  0  0
    0.8106    1.0709    0.0000 C   0  0  0  0  0  0  0  0  0  0  0  0
    1.5251    0.6584    0.0000 C   0  0  0  0  0  0  0  0  0  0  0  0
    1.5251   -0.1666    0.0000 C   0  0  0  0  0  0  0  0  0  0  0  0
    0.8106   -0.5791    0.0000 N   0  0  0  0  0  0  0  0  0  0  0  0
    0.9481   -0.0291    0.0000 C   0  0  0  0  0  0  0  0  0  0  0  0
    0.9481    0.5209    0.0000 C   0  0  0  0  0  0  0  0  0  0  0  0
    0.0962   -0.1666    0.0000 C   0  0  0  0  0  0  0  0  0  0  0  0
   -0.6183   -0.5791    0.0000 C   0  0  0  0  0  0  0  0  0  0  0  0
   -1.3328   -0.1666    0.0000 C   0  0  0  0  0  0  0  0  0  0  0  0
   -2.0473   -0.5791    0.0000 C   0  0  0  0  0  0  0  0  0  0  0  0
   -2.7617   -0.1666    0.0000 N   0  0  0  0  0  0  0  0  0  0  0  0
   -2.7617    0.6584    0.0000 C   0  0  0  0  0  0  0  0  0  0  0  0
   -2.0473    1.0709    0.0000 C   0  0  0  0  0  0  0  0  0  0  0  0
   -1.3328    0.6584    0.0000 C   0  0  0  0  0  0  0  0  0  0  0  0
  1  2  1  0
  2  3  2  0
  2  8  1  0
  3  4  1  0
  4  5  2  0
  4  9  1  0
  5  6  1  0
  6  7  1  0
  6  8  2  0
  9 10  2  0
  9 11  1  0
 12 11  1  6
 12 13  1  0
 12 19  1  0
 13 14  1  0
 13 18  1  0
 14 15  1  0
 15 16  1  0
 16 17  1  0
 17 18  1  0
 19 16  1  0
 19 20  1  1
 20 21  1  0
 21 22  2  0
 21 26  1  0
 22 23  1  0
 23 24  2  0
 24 25  1  0
 25 26  2  0
M  END
>  <DRUGBANK_ID>  (1) 
DB14854

>  <COMMON_NAME>  (1) 
TC-6987

>  <CAS_NUMBER>  (1) 
1196701-27-5

>  <UNII>  (1) 
Q2U4R164OG

$$$$
