SBC
     RDKit          2D

 25 28  0  0  0  0  0  0  0  0999 V2000
    0.9391    1.9154    0.0000 C   0  0  0  0  0  0  0  0  0  0  0  0
    1.1106    1.1085    0.0000 C   0  0  0  0  0  0  0  0  0  0  0  0
    0.4975    0.5564    0.0000 C   0  0  0  0  0  0  0  0  0  0  0  0
   -0.2871    0.8114    0.0000 C   0  0  0  0  0  0  0  0  0  0  0  0
   -0.4587    1.6183    0.0000 C   0  0  0  0  0  0  0  0  0  0  0  0
    0.1544    2.1704    0.0000 C   0  0  0  0  0  0  0  0  0  0  0  0
    0.6690   -0.2505    0.0000 N   0  0  0  0  0  0  0  0  0  0  0  0
    0.1170   -0.8636    0.0000 C   0  0  0  0  0  0  0  0  0  0  0  0
    0.5295   -1.5781    0.0000 C   0  0  0  0  0  0  0  0  0  0  0  0
    1.3365   -1.4066    0.0000 C   0  0  0  0  0  0  0  0  0  0  0  0
    1.4227   -0.5861    0.0000 N   0  0  0  0  0  0  0  0  0  0  0  0
   -0.7080   -0.8636    0.0000 C   0  0  0  0  0  0  0  0  0  0  0  0
    0.1170   -2.2926    0.0000 C   0  0  0  0  0  0  0  0  0  0  0  0
   -0.7080   -2.2926    0.0000 C   0  0  0  0  0  0  0  0  0  0  0  0
   -1.1205   -1.5781    0.0000 C   0  0  0  0  0  0  0  0  0  0  0  0
   -1.2600   -0.2505    0.0000 C   0  0  0  0  0  0  0  0  0  0  0  0
   -1.9275   -1.4066    0.0000 N   0  0  0  0  0  0  0  0  0  0  0  0
   -2.0137   -0.5861    0.0000 N   0  0  0  0  0  0  0  0  0  0  0  0
    1.9496   -1.9586    0.0000 C   0  0  0  0  0  0  0  0  0  0  0  0
    2.7342   -1.7037    0.0000 N   0  0  0  0  0  0  0  0  0  0  0  0
    1.7780   -2.7656    0.0000 O   0  0  0  0  0  0  0  0  0  0  0  0
   -0.0171    2.9773    0.0000 S   0  0  0  0  0  0  0  0  0  0  0  0
   -0.1886    3.7843    0.0000 O   0  0  0  0  0  0  0  0  0  0  0  0
    0.7899    3.1489    0.0000 O   0  0  0  0  0  0  0  0  0  0  0  0
   -0.8241    2.8058    0.0000 N   0  0  0  0  0  0  0  0  0  0  0  0
  1  2  2  0
  1  6  1  0
  2  3  1  0
  3  4  2  0
  3  7  1  0
  4  5  1  0
  5  6  2  0
  6 22  1  0
  7  8  1  0
  7 11  1  0
  8  9  2  0
  8 12  1  0
  9 10  1  0
  9 13  1  0
 10 11  2  0
 10 19  1  0
 12 15  2  0
 12 16  1  0
 13 14  2  0
 14 15  1  0
 15 17  1  0
 16 18  2  0
 17 18  1  0
 19 20  1  0
 19 21  2  0
 22 23  2  0
 22 24  2  0
 22 25  1  0
M  END
>  <DRUGBANK_ID>  (1) 
DB08527

>  <COMMON_NAME>  (1) 
1-[4-(AMINOSULFONYL)PHENYL]-1,6-DIHYDROPYRAZOLO[3,4-E]INDAZOLE-3-CARBOXAMIDE

$$$$
