CKR
     RDKit          2D

 24 27  0  0  0  0  0  0  0  0999 V2000
    0.9116   -0.0205    0.0000 N   0  0  0  0  0  0  0  0  0  0  0  0
    1.6962   -0.2755    0.0000 C   0  0  0  0  0  0  0  0  0  0  0  0
    2.4107    0.1370    0.0000 C   0  0  0  0  0  0  0  0  0  0  0  0
    3.1251   -0.2755    0.0000 C   0  0  0  0  0  0  0  0  0  0  0  0
    3.8396    0.1370    0.0000 C   0  0  0  0  0  0  0  0  0  0  0  0
    3.8396    0.9620    0.0000 O   0  0  0  0  0  0  0  0  0  0  0  0
    4.5541   -0.2755    0.0000 N   0  0  0  0  0  0  0  0  0  0  0  0
    4.5541   -1.1005    0.0000 C   0  0  0  0  0  0  0  0  0  0  0  0
    5.2686   -1.5130    0.0000 N   0  0  0  0  0  0  0  0  0  0  0  0
    3.8396   -1.5130    0.0000 N   0  0  0  0  0  0  0  0  0  0  0  0
    3.1251   -1.1005    0.0000 C   0  0  0  0  0  0  0  0  0  0  0  0
    2.4107   -1.5130    0.0000 C   0  0  0  0  0  0  0  0  0  0  0  0
    1.6962   -1.1005    0.0000 C   0  0  0  0  0  0  0  0  0  0  0  0
    0.9116   -1.3554    0.0000 N   0  0  0  0  0  0  0  0  0  0  0  0
    0.4267   -0.6880    0.0000 C   0  0  0  0  0  0  0  0  0  0  0  0
   -0.3983   -0.6880    0.0000 N   0  0  0  0  0  0  0  0  0  0  0  0
   -0.8108    0.0265    0.0000 C   0  0  0  0  0  0  0  0  0  0  0  0
   -1.6358    0.0265    0.0000 C   0  0  0  0  0  0  0  0  0  0  0  0
   -2.0483    0.7410    0.0000 N   0  0  0  0  0  0  0  0  0  0  0  0
   -2.8733    0.7410    0.0000 C   0  0  0  0  0  0  0  0  0  0  0  0
   -3.2858    1.4554    0.0000 C   0  0  0  0  0  0  0  0  0  0  0  0
   -2.8733    2.1699    0.0000 O   0  0  0  0  0  0  0  0  0  0  0  0
   -2.0483    2.1699    0.0000 C   0  0  0  0  0  0  0  0  0  0  0  0
   -1.6358    1.4554    0.0000 C   0  0  0  0  0  0  0  0  0  0  0  0
  1  2  1  0
  1 15  2  0
  2  3  2  0
  2 13  1  0
  3  4  1  0
  4  5  1  0
  4 11  2  0
  5  6  2  0
  5  7  1  0
  7  8  1  0
  8  9  1  0
  8 10  2  0
 10 11  1  0
 11 12  1  0
 12 13  2  0
 13 14  1  0
 14 15  1  0
 15 16  1  0
 16 17  1  0
 17 18  1  0
 18 19  1  0
 19 20  1  0
 19 24  1  0
 20 21  1  0
 21 22  1  0
 22 23  1  0
 23 24  1  0
M  END
>  <DRUGBANK_ID>  (1) 
DB07564

>  <COMMON_NAME>  (1) 
6-amino-2-[(2-morpholin-4-ylethyl)amino]-3,7-dihydro-8H-imidazo[4,5-g]quinazolin-8-one

$$$$
