GLE
     RDKit          2D

 26 25  0  0  0  0  0  0  0  0999 V2000
    1.8362    0.5052    0.0000 C   0  0  0  0  0  0  0  0  0  0  0  0
    1.1217    0.0927    0.0000 O   0  0  0  0  0  0  0  0  0  0  0  0
    2.5507    0.0927    0.0000 C   0  0  0  0  0  0  0  0  0  0  0  0
    2.5507   -0.7323    0.0000 O   0  0  0  0  0  0  0  0  0  0  0  0
    3.2652    0.5052    0.0000 C   0  0  0  0  0  0  0  0  0  0  0  0
    3.9796    0.0927    0.0000 O   0  0  0  0  0  0  0  0  0  0  0  0
    4.6941    0.5052    0.0000 C   0  0  0  0  0  0  0  0  0  0  0  0
    5.4086    0.0927    0.0000 C   0  0  0  0  0  0  0  0  0  0  0  0
    6.1230   -0.3198    0.0000 F   0  0  0  0  0  0  0  0  0  0  0  0
    5.8211    0.8072    0.0000 F   0  0  0  0  0  0  0  0  0  0  0  0
    4.9961   -0.6218    0.0000 F   0  0  0  0  0  0  0  0  0  0  0  0
    3.2652   -1.1448    0.0000 P   0  0  0  0  0  0  0  0  0  0  0  0
    3.6777   -0.4303    0.0000 O   0  0  0  0  0  0  0  0  0  0  0  0
    2.8527   -1.8593    0.0000 O   0  0  0  0  0  0  0  0  0  0  0  0
    3.9796   -2.3823    0.0000 C   0  0  0  0  0  0  0  0  0  0  0  0
    3.9796   -1.5573    0.0000 O   0  0  0  0  0  0  0  0  0  0  0  0
    0.4073    0.5052    0.0000 C   0  0  0  0  0  0  0  0  0  0  0  0
   -0.3072    0.0927    0.0000 C   0  0  0  0  0  0  0  0  0  0  0  0
   -1.0217    0.5052    0.0000 C   0  0  0  0  0  0  0  0  0  0  0  0
   -1.7361    0.0927    0.0000 C   0  0  0  0  0  0  0  0  0  0  0  0
   -2.4506    0.5052    0.0000 C   0  0  0  0  0  0  0  0  0  0  0  0
   -3.1651    0.0927    0.0000 C   0  0  0  0  0  0  0  0  0  0  0  0
   -3.8796    0.5052    0.0000 C   0  0  0  0  0  0  0  0  0  0  0  0
   -4.5940    0.0927    0.0000 C   0  0  0  0  0  0  0  0  0  0  0  0
   -5.3085    0.5052    0.0000 C   0  0  0  0  0  0  0  0  0  0  0  0
   -6.0230    0.0927    0.0000 C   0  0  0  0  0  0  0  0  0  0  0  0
  1  2  1  0
  3  1  1  1
  2 17  1  0
  3  4  1  0
  3  5  1  0
  5  6  1  0
  6  7  1  0
  7  8  1  0
  8  9  1  0
  8 10  1  0
  8 11  1  0
 12  4  1  0
 12 13  2  0
 12 14  1  0
 12 16  1  0
 15 16  1  0
 17 18  1  0
 18 19  1  0
 19 20  1  0
 20 21  1  0
 21 22  1  0
 22 23  1  0
 23 24  1  0
 24 25  1  0
 25 26  1  0
M  END
>  <DRUGBANK_ID>  (1) 
DB07836

>  <COMMON_NAME>  (1) 
1-DECYL-3-TRIFLUORO ETHYL-SN-GLYCERO-2-PHOSPHOMETHANOL

$$$$
