
     RDKit          2D

 23 25  0  0  0  0  0  0  0  0999 V2000
   -0.9054   -0.4293    0.0000 C   0  0  0  0  0  0  0  0  0  0  0  0
   -0.0984   -0.2577    0.0000 O   0  0  0  0  0  0  0  0  0  0  0  0
    0.1565    0.5269    0.0000 C   0  0  0  0  0  0  0  0  0  0  0  0
   -0.3955    1.1400    0.0000 C   0  0  0  0  0  0  0  0  0  0  0  0
   -0.1406    1.9246    0.0000 C   0  0  0  0  0  0  0  0  0  0  0  0
    0.6664    2.0961    0.0000 C   0  0  0  0  0  0  0  0  0  0  0  0
    1.2184    1.4830    0.0000 C   0  0  0  0  0  0  0  0  0  0  0  0
    0.9635    0.6984    0.0000 C   0  0  0  0  0  0  0  0  0  0  0  0
    1.9721    1.8186    0.0000 C   0  0  0  0  0  0  0  0  0  0  0  0
    1.8859    2.6391    0.0000 C   0  0  0  0  0  0  0  0  0  0  0  0
    1.0789    2.8106    0.0000 N   0  0  0  0  0  0  0  0  0  0  0  0
    2.6866    1.4061    0.0000 C   0  0  0  0  0  0  0  0  0  0  0  0
    3.4010    1.8186    0.0000 C   0  0  0  0  0  0  0  0  0  0  0  0
    4.1155    1.4061    0.0000 N   0  0  0  0  0  0  0  0  0  0  0  0
    4.8300    1.8186    0.0000 C   0  0  0  0  0  0  0  0  0  0  0  0
    4.8300    2.6436    0.0000 O   0  0  0  0  0  0  0  0  0  0  0  0
    5.5445    1.4061    0.0000 C   0  0  0  0  0  0  0  0  0  0  0  0
    6.2589    1.8186    0.0000 C   0  0  0  0  0  0  0  0  0  0  0  0
    6.9734    1.4061    0.0000 C   0  0  0  0  0  0  0  0  0  0  0  0
    7.6879    1.8186    0.0000 O   0  0  0  0  0  0  0  0  0  0  0  0
    6.9734    0.5811    0.0000 C   0  0  0  0  0  0  0  0  0  0  0  0
    6.2589    0.1686    0.0000 C   0  0  0  0  0  0  0  0  0  0  0  0
    5.5445    0.5811    0.0000 O   0  0  0  0  0  0  0  0  0  0  0  0
  1  2  1  0
  2  3  1  0
  3  4  2  0
  3  8  1  0
  4  5  1  0
  5  6  2  0
  6  7  1  0
  6 11  1  0
  7  8  2  0
  7  9  1  0
  9 10  2  0
  9 12  1  0
 10 11  1  0
 12 13  1  0
 13 14  1  0
 14 15  1  0
 15 16  2  0
 15 17  1  0
 17 18  2  0
 17 23  1  0
 18 19  1  0
 19 20  2  0
 19 21  1  0
 21 22  2  0
 22 23  1  0
M  END
>  <DRUGBANK_ID>  (1) 
DB12288

>  <COMMON_NAME>  (1) 
Piromelatine

>  <CAS_NUMBER>  (1) 
946846-83-9

>  <UNII>  (1) 
S3UN2146K9

>  <SYNONYMS>  (1) 
Piromelatine

$$$$
