D93
     RDKit          2D

 32 36  0  0  0  0  0  0  0  0999 V2000
    2.8136    4.6536    0.0000 Cl  0  0  0  0  0  0  0  0  0  0  0  0
    2.0992    4.2411    0.0000 C   0  0  0  0  0  0  0  0  0  0  0  0
    1.3847    4.6536    0.0000 C   0  0  0  0  0  0  0  0  0  0  0  0
    0.6702    4.2411    0.0000 C   0  0  0  0  0  0  0  0  0  0  0  0
    0.6702    3.4161    0.0000 C   0  0  0  0  0  0  0  0  0  0  0  0
    0.0571    2.8641    0.0000 N   0  0  0  0  0  0  0  0  0  0  0  0
    2.0992    3.4161    0.0000 C   0  0  0  0  0  0  0  0  0  0  0  0
    1.3847    3.0036    0.0000 C   0  0  0  0  0  0  0  0  0  0  0  0
    1.2132    2.1967    0.0000 C   0  0  0  0  0  0  0  0  0  0  0  0
    0.3927    2.1104    0.0000 C   0  0  0  0  0  0  0  0  0  0  0  0
   -0.0198    1.3960    0.0000 C   0  0  0  0  0  0  0  0  0  0  0  0
   -0.8448    1.3960    0.0000 O   0  0  0  0  0  0  0  0  0  0  0  0
    0.3927    0.6815    0.0000 N   0  0  0  0  0  0  0  0  0  0  0  0
   -0.0198   -0.0330    0.0000 C   0  0  0  0  0  0  0  0  0  0  0  0
   -0.8448   -0.0330    0.0000 C   0  0  0  0  0  0  0  0  0  0  0  0
   -1.2573   -0.7475    0.0000 C   0  0  0  0  0  0  0  0  0  0  0  0
   -0.8448   -1.4619    0.0000 C   0  0  0  0  0  0  0  0  0  0  0  0
   -0.0198   -1.4619    0.0000 C   0  0  0  0  0  0  0  0  0  0  0  0
    0.3927   -0.7475    0.0000 C   0  0  0  0  0  0  0  0  0  0  0  0
    1.2177   -0.7475    0.0000 N   0  0  0  0  0  0  0  0  0  0  0  0
    1.6302   -0.0330    0.0000 C   0  0  0  0  0  0  0  0  0  0  0  0
    1.2177    0.6815    0.0000 O   0  0  0  0  0  0  0  0  0  0  0  0
    2.4552   -0.0330    0.0000 C   0  0  0  0  0  0  0  0  0  0  0  0
    2.9401    0.6345    0.0000 S   0  0  0  0  0  0  0  0  0  0  0  0
    3.7247    0.3795    0.0000 C   0  0  0  0  0  0  0  0  0  0  0  0
    4.4392    0.7920    0.0000 C   0  0  0  0  0  0  0  0  0  0  0  0
    5.1537    0.3795    0.0000 N   0  0  0  0  0  0  0  0  0  0  0  0
    5.8681    0.7920    0.0000 C   0  0  0  0  0  0  0  0  0  0  0  0
    5.1537   -0.4455    0.0000 C   0  0  0  0  0  0  0  0  0  0  0  0
    4.4392   -0.8580    0.0000 C   0  0  0  0  0  0  0  0  0  0  0  0
    3.7247   -0.4455    0.0000 C   0  0  0  0  0  0  0  0  0  0  0  0
    2.9401   -0.7004    0.0000 N   0  0  0  0  0  0  0  0  0  0  0  0
  1  2  1  0
  2  7  2  0
  2  3  1  0
  3  4  2  0
  4  5  1  0
  5  8  2  0
  5  6  1  0
  6 10  1  0
  7  8  1  0
  8  9  1  0
  9 10  2  0
 10 11  1  0
 11 12  2  0
 11 13  1  0
 14 13  1  1
 14 19  1  0
 14 15  1  0
 15 16  1  0
 16 17  1  0
 17 18  1  0
 18 19  1  0
 19 20  1  6
 20 21  1  0
 21 23  1  0
 21 22  2  0
 23 32  2  0
 23 24  1  0
 24 25  1  0
 25 26  1  0
 25 31  2  0
 26 27  1  0
 27 28  1  0
 27 29  1  0
 29 30  1  0
 30 31  1  0
 31 32  1  0
M  END
>  <DRUGBANK_ID>  (1) 
DB07630

>  <COMMON_NAME>  (1) 
N-((1R,2R)-2-(5-CHLORO-1H-INDOLE-2-CARBOXAMIDO)CYCLOHEXYL)-5-METHYL-4,5,6,7-TETRAHYDROTHIAZOLO[5,4-C]PYRIDINE-2-CARBOXAMIDE

$$$$
