
     RDKit          2D

 19 21  0  0  0  0  0  0  0  0999 V2000
    4.0668    0.6979    0.0000 C   0  0  0  0  0  0  0  0  0  0  0  0
    4.7812    1.1104    0.0000 C   0  0  0  0  0  0  0  0  0  0  0  0
    3.3523    3.5854    0.0000 C   0  0  0  0  0  0  0  0  0  0  0  0
    3.3523    1.9354    0.0000 C   0  0  0  0  0  0  0  0  0  0  0  0
    5.4957    2.3479    0.0000 C   0  0  0  0  0  0  0  0  0  0  0  0
    1.3683    2.7604    0.0000 C   0  0  0  0  0  0  0  0  0  0  0  0
    4.0668    3.1729    0.0000 C   0  0  0  0  0  0  0  0  0  0  0  0
    5.4957    3.1729    0.0000 C   0  0  0  0  0  0  0  0  0  0  0  0
    4.0668    2.3479    0.0000 C   0  0  0  0  0  0  0  0  0  0  0  0
    2.6378    3.1729    0.0000 C   0  0  0  0  0  0  0  0  0  0  0  0
    2.6378    2.3479    0.0000 C   0  0  0  0  0  0  0  0  0  0  0  0
    4.7812    3.5854    0.0000 C   0  0  0  0  0  0  0  0  0  0  0  0
    6.2102    3.5854    0.0000 C   0  0  0  0  0  0  0  0  0  0  0  0
    4.7812    1.9354    0.0000 N   0  0  0  0  0  0  0  0  0  0  0  0
    4.7812    4.4104    0.0000 O   0  0  0  0  0  0  0  0  0  0  0  0
    6.2102    4.4104    0.0000 O   0  0  0  0  0  0  0  0  0  0  0  0
    6.9246    3.1729    0.0000 O   0  0  0  0  0  0  0  0  0  0  0  0
    1.8532    3.4279    0.0000 O   0  0  0  0  0  0  0  0  0  0  0  0
    1.8532    2.0930    0.0000 O   0  0  0  0  0  0  0  0  0  0  0  0
  2  1  1  0
  7  3  2  0
  8  5  2  0
  9  4  2  0
  9  7  1  0
 10  3  1  0
 11  4  1  0
 11 10  2  0
 12  7  1  0
 12  8  1  0
 13  8  1  0
 14  2  1  0
 14  5  1  0
 14  9  1  0
 15 12  2  0
 16 13  2  0
 17 13  1  0
 18  6  1  0
 18 10  1  0
 19  6  1  0
 19 11  1  0
M  END
>  <DRUGBANK_ID>  (1) 
DB13627

>  <COMMON_NAME>  (1) 
Oxolinic acid

>  <CAS_NUMBER>  (1) 
14698-29-4

>  <UNII>  (1) 
L0A22B22FT

>  <SYNONYMS>  (1) 
ácido oxolínico; Oxolinic acid

$$$$
