
     RDKit          2D

 37 39  0  0  0  0  0  0  0  0999 V2000
    2.9265   -0.6613    0.0000 C   0  0  0  0  0  0  0  0  0  0  0  0
    2.2119   -0.2487    0.0000 C   0  0  0  0  0  0  0  0  0  0  0  0
    2.2119    0.5762    0.0000 C   0  0  0  0  0  0  0  0  0  0  0  0
    1.4972    0.9886    0.0000 N   0  0  0  0  0  0  0  0  0  0  0  0
    0.7828    0.5762    0.0000 C   0  0  0  0  0  0  0  0  0  0  0  0
    0.0682    0.9886    0.0000 C   0  0  0  0  0  0  0  0  0  0  0  0
   -0.6462    0.5761    0.0000 N   0  0  0  0  0  0  0  0  0  0  0  0
   -1.3607    0.9885    0.0000 P   0  0  0  0  0  0  0  0  0  0  0  0
   -1.3601    0.1587    0.0000 O   0  0  0  0  0  0  0  0  0  0  0  0
   -2.0887   -0.2602    0.0000 C   0  0  0  0  0  0  0  0  0  0  0  0
    3.6801   -0.3255    0.0000 C   0  0  0  0  0  0  0  0  0  0  0  0
    4.2322   -0.9387    0.0000 N   0  0  0  0  0  0  0  0  0  0  0  0
    3.8198   -1.6532    0.0000 C   0  0  0  0  0  0  0  0  0  0  0  0
    3.0127   -1.4817    0.0000 C   0  0  0  0  0  0  0  0  0  0  0  0
    4.0747   -2.4378    0.0000 C   0  0  0  0  0  0  0  0  0  0  0  0
    3.5227   -3.0511    0.0000 C   0  0  0  0  0  0  0  0  0  0  0  0
    2.7157   -2.8795    0.0000 C   0  0  0  0  0  0  0  0  0  0  0  0
    2.4607   -2.0950    0.0000 C   0  0  0  0  0  0  0  0  0  0  0  0
    2.9263    0.9887    0.0000 C   0  0  0  0  0  0  0  0  0  0  0  0
    0.0682    1.8134    0.0000 C   0  0  0  0  0  0  0  0  0  0  0  0
    0.7828   -0.2487    0.0000 O   0  0  0  0  0  0  0  0  0  0  0  0
    2.9263    1.8266    0.0000 O   0  0  0  0  0  0  0  0  0  0  0  0
    3.6296    0.5828    0.0000 O   0  0  0  0  0  0  0  0  0  0  0  0
    0.7704    2.2190    0.0000 C   0  0  0  0  0  0  0  0  0  0  0  0
    1.4689    1.8158    0.0000 C   0  0  0  0  0  0  0  0  0  0  0  0
    0.7705    3.0511    0.0000 C   0  0  0  0  0  0  0  0  0  0  0  0
   -2.7955    0.1494    0.0000 O   0  0  0  0  0  0  0  0  0  0  0  0
   -3.5108   -0.2617    0.0000 C   0  0  0  0  0  0  0  0  0  0  0  0
   -3.5122   -1.0867    0.0000 C   0  0  0  0  0  0  0  0  0  0  0  0
   -2.8053   -1.4965    0.0000 C   0  0  0  0  0  0  0  0  0  0  0  0
   -2.0901   -1.0852    0.0000 C   0  0  0  0  0  0  0  0  0  0  0  0
   -2.8067   -2.3311    0.0000 O   0  0  0  0  0  0  0  0  0  0  0  0
   -1.3694   -1.5028    0.0000 O   0  0  0  0  0  0  0  0  0  0  0  0
   -4.2243    0.1517    0.0000 C   0  0  0  0  0  0  0  0  0  0  0  0
   -4.2322   -1.5007    0.0000 O   0  0  0  0  0  0  0  0  0  0  0  0
   -1.3557    1.8128    0.0000 O   0  0  0  0  0  0  0  0  0  0  0  0
   -2.0713    0.5704    0.0000 O   0  0  0  0  0  0  0  0  0  0  0  0
  1  2  1  0
  1 11  2  0
  1 14  1  0
  3  2  1  6
  3  4  1  0
  3 19  1  0
  4  5  1  0
  5  6  1  0
  5 21  2  0
  6  7  1  0
  6 20  1  1
  7  8  1  0
  8  9  1  0
  8 36  2  0
  8 37  1  0
 10  9  1  1
 10 27  1  0
 10 31  1  0
 11 12  1  0
 12 13  1  0
 13 14  2  0
 13 15  1  0
 14 18  1  0
 15 16  2  0
 16 17  1  0
 17 18  2  0
 19 22  2  0
 19 23  1  0
 20 24  1  0
 24 25  1  0
 24 26  1  0
 27 28  1  0
 28 29  1  0
 28 34  1  6
 29 30  1  0
 29 35  1  1
 30 31  1  0
 30 32  1  6
 31 33  1  6
M  END
>  <DRUGBANK_ID>  (1) 
DB02557

>  <SECONDARY_ACCESSION_NUMBERS>  (1) 
EXPT02764

>  <COMMON_NAME>  (1) 
Phosphoramidon

>  <CAS_NUMBER>  (1) 
36357-77-4

>  <UNII>  (1) 
T3G94E2LB1

$$$$
