
     RDKit          2D

 18 19  0  0  1  0  0  0  0  0999 V2000
    1.6500   -1.3578    0.0000 F   0  0  0  0  0  0  0  0  0  0  0  0
    4.3826   -1.0607    0.0000 O   0  0  0  0  0  0  0  0  0  0  0  0
    2.8177   -2.5127    0.0000 O   0  0  0  0  0  0  0  0  0  0  0  0
    5.4331   -2.4265    0.0000 O   0  0  0  0  0  0  0  0  0  0  0  0
    2.2863    0.2492    0.0000 O   0  0  0  0  0  0  0  0  0  0  0  0
    3.7152    0.2492    0.0000 N   0  0  0  0  0  0  0  0  0  0  0  0
    3.0007    1.4868    0.0000 N   0  0  0  0  0  0  0  0  0  0  0  0
    3.7152    2.7243    0.0000 N   0  0  0  0  0  0  0  0  0  0  0  0
    4.1277   -1.8453    0.0000 C   0  0  0  0  0  0  0  0  0  0  0  0
    3.3027   -1.8453    0.0000 C   0  0  0  0  0  0  0  0  0  0  0  0
    3.7152   -0.5758    0.0000 C   0  0  0  0  0  0  0  0  0  0  0  0
    3.0478   -1.0607    0.0000 C   0  0  0  0  0  0  0  0  0  0  0  0
    4.6126   -2.5127    0.0000 C   0  0  0  0  0  0  0  0  0  0  0  0
    2.2631   -0.8057    0.0000 C   0  0  0  0  0  0  0  0  0  0  0  0
    4.4296    0.6617    0.0000 C   0  0  0  0  0  0  0  0  0  0  0  0
    3.0007    0.6617    0.0000 C   0  0  0  0  0  0  0  0  0  0  0  0
    4.4296    1.4868    0.0000 C   0  0  0  0  0  0  0  0  0  0  0  0
    3.7152    1.8993    0.0000 C   0  0  0  0  0  0  0  0  0  0  0  0
  1 14  1  0
  2  9  1  0
  2 11  1  0
  4 13  1  0
  5 16  2  0
  6 15  1  0
  6 16  1  0
  7 16  1  0
  7 18  2  0
  8 18  1  0
  9 10  1  0
  9 13  1  6
 10  3  1  1
 10 12  1  0
 11  6  1  6
 11 12  1  0
 12 14  2  0
 15 17  2  0
 17 18  1  0
M  END
>  <DRUGBANK_ID>  (1) 
DB06433

>  <COMMON_NAME>  (1) 
Tezacitabine

>  <CAS_NUMBER>  (1) 
171176-43-5

>  <UNII>  (1) 
7607Y95N9S

>  <SYNONYMS>  (1) 
2'-Deoxy-2'-(fluoromethylene)cytidine; Tezacitabine

$$$$
