
     RDKit          2D

 17 18  0  0  1  0  0  0  0  0999 V2000
    1.7044   -3.4197    0.0000 C   0  0  0  0  0  0  0  0  0  0  0  0
    2.1893   -2.7523    0.0000 C   0  0  0  0  0  0  0  0  0  0  0  0
    0.5484   -2.5798    0.0000 C   0  0  0  0  0  0  0  0  0  0  0  0
    4.2032   -0.2916    0.0000 C   0  0  0  0  0  0  0  0  0  0  0  0
    0.8839   -3.3335    0.0000 C   0  0  0  0  0  0  0  0  0  0  0  0
    3.4186   -0.5465    0.0000 C   0  0  0  0  0  0  0  0  0  0  0  0
    1.0333   -1.9124    0.0000 C   0  0  0  0  0  0  0  0  0  0  0  0
    2.7512   -0.0616    0.0000 C   0  0  0  0  0  0  0  0  0  0  0  0
    2.0837   -0.5465    0.0000 C   0  0  0  0  0  0  0  0  0  0  0  0
    2.3387   -1.3312    0.0000 C   0  0  0  0  0  0  0  0  0  0  0  0
    0.3990   -4.0009    0.0000 N   0  0  0  0  0  0  0  0  0  0  0  0
    1.8538   -1.9986    0.0000 N   0  0  0  0  0  0  0  0  0  0  0  0
    4.3748    0.5154    0.0000 O   0  0  0  0  0  0  0  0  0  0  0  0
    0.6977   -1.1587    0.0000 O   0  0  0  0  0  0  0  0  0  0  0  0
    2.7512    0.7634    0.0000 O   0  0  0  0  0  0  0  0  0  0  0  0
    1.2991   -0.2916    0.0000 O   0  0  0  0  0  0  0  0  0  0  0  0
    3.1637   -1.3312    0.0000 O   0  0  0  0  0  0  0  0  0  0  0  0
  2  1  2  0
  5  1  1  0
  5  3  2  0
  6  4  1  1
  7  3  1  0
  8  6  1  0
  8 15  1  6
  9  8  1  0
  9 16  1  6
 10  9  1  0
 10 12  1  1
 11  5  1  0
 12  2  1  0
 12  7  1  0
 13  4  1  0
 14  7  2  0
 17  6  1  0
 17 10  1  0
M  END
>  <DRUGBANK_ID>  (1) 
DB04385

>  <SECONDARY_ACCESSION_NUMBERS>  (1) 
EXPT01050

>  <COMMON_NAME>  (1) 
3-Deazacytidine

$$$$
