PST
     RDKit          2D

 21 22  0  0  0  0  0  0  0  0999 V2000
   -1.2104    2.8449    0.0000 P   0  0  0  0  0  0  0  0  0  0  0  0
   -1.2104    3.6699    0.0000 O   0  0  0  0  0  0  0  0  0  0  0  0
   -2.0354    2.8449    0.0000 O   0  0  0  0  0  0  0  0  0  0  0  0
   -0.3854    2.8449    0.0000 S   0  0  0  0  0  0  0  0  0  0  0  0
   -1.2104    2.0199    0.0000 O   0  0  0  0  0  0  0  0  0  0  0  0
   -0.4959    1.6074    0.0000 C   0  0  0  0  0  0  0  0  0  0  0  0
   -0.4959    0.7824    0.0000 C   0  0  0  0  0  0  0  0  0  0  0  0
    0.1715    0.2975    0.0000 O   0  0  0  0  0  0  0  0  0  0  0  0
   -1.1633    0.2975    0.0000 C   0  0  0  0  0  0  0  0  0  0  0  0
   -1.9480    0.5524    0.0000 O   0  0  0  0  0  0  0  0  0  0  0  0
   -0.9084   -0.4872    0.0000 C   0  0  0  0  0  0  0  0  0  0  0  0
   -0.0834   -0.4872    0.0000 C   0  0  0  0  0  0  0  0  0  0  0  0
    0.4015   -1.1546    0.0000 N   0  0  0  0  0  0  0  0  0  0  0  0
    1.2220   -1.0684    0.0000 C   0  0  0  0  0  0  0  0  0  0  0  0
    1.5576   -0.3147    0.0000 O   0  0  0  0  0  0  0  0  0  0  0  0
    1.7069   -1.7358    0.0000 N   0  0  0  0  0  0  0  0  0  0  0  0
    1.3714   -2.4895    0.0000 C   0  0  0  0  0  0  0  0  0  0  0  0
    1.8563   -3.1569    0.0000 O   0  0  0  0  0  0  0  0  0  0  0  0
    0.5509   -2.5757    0.0000 C   0  0  0  0  0  0  0  0  0  0  0  0
    0.2153   -3.3294    0.0000 C   0  0  0  0  0  0  0  0  0  0  0  0
    0.0660   -1.9083    0.0000 C   0  0  0  0  0  0  0  0  0  0  0  0
  1  2  1  0
  1  3  1  0
  1  4  2  0
  1  5  1  0
  5  6  1  0
  7  6  1  1
  7  8  1  0
  7  9  1  0
  8 12  1  0
  9 10  1  6
  9 11  1  0
 11 12  1  0
 12 13  1  1
 13 14  1  0
 13 21  1  0
 14 15  2  0
 14 16  1  0
 16 17  1  0
 17 18  2  0
 17 19  1  0
 19 20  1  0
 19 21  2  0
M  END
>  <DRUGBANK_ID>  (1) 
DB08432

>  <COMMON_NAME>  (1) 
THYMIDINE-5'-THIOPHOSPHATE

$$$$
