FXG
     RDKit          2D

 31 33  0  0  0  0  0  0  0  0999 V2000
   -0.3875   -1.8183    0.0000 O   0  0  0  0  0  0  0  0  0  0  0  0
   -0.3875   -0.9933    0.0000 C   0  0  0  0  0  0  0  0  0  0  0  0
   -1.1020   -0.5808    0.0000 C   0  0  0  0  0  0  0  0  0  0  0  0
   -1.8165   -0.9933    0.0000 C   0  0  0  0  0  0  0  0  0  0  0  0
   -2.5309   -0.5808    0.0000 C   0  0  0  0  0  0  0  0  0  0  0  0
   -3.2454   -0.9933    0.0000 C   0  0  0  0  0  0  0  0  0  0  0  0
   -3.9599   -0.5808    0.0000 C   0  0  0  0  0  0  0  0  0  0  0  0
   -4.6744   -0.9933    0.0000 N   0  0  0  0  0  0  0  0  0  0  0  0
   -5.3888   -0.5808    0.0000 C   0  0  0  0  0  0  0  0  0  0  0  0
   -5.3888    0.2442    0.0000 C   0  0  0  0  0  0  0  0  0  0  0  0
   -6.1033    0.6567    0.0000 C   0  0  0  0  0  0  0  0  0  0  0  0
   -5.9318    1.4637    0.0000 N   0  0  0  0  0  0  0  0  0  0  0  0
   -5.1113    1.5499    0.0000 C   0  0  0  0  0  0  0  0  0  0  0  0
   -4.7757    0.7962    0.0000 N   0  0  0  0  0  0  0  0  0  0  0  0
   -6.8178    0.2442    0.0000 N   0  0  0  0  0  0  0  0  0  0  0  0
   -6.8178   -0.5808    0.0000 C   0  0  0  0  0  0  0  0  0  0  0  0
   -6.1033   -0.9933    0.0000 N   0  0  0  0  0  0  0  0  0  0  0  0
    0.3269   -0.5808    0.0000 N   0  0  0  0  0  0  0  0  0  0  0  0
    1.0414   -0.9933    0.0000 C   0  0  0  0  0  0  0  0  0  0  0  0
    1.0414   -1.8183    0.0000 C   0  0  0  0  0  0  0  0  0  0  0  0
    1.7559   -2.2308    0.0000 C   0  0  0  0  0  0  0  0  0  0  0  0
    2.4704   -1.8183    0.0000 C   0  0  0  0  0  0  0  0  0  0  0  0
    2.4704   -0.9933    0.0000 C   0  0  0  0  0  0  0  0  0  0  0  0
    1.7559   -0.5808    0.0000 C   0  0  0  0  0  0  0  0  0  0  0  0
    3.1848   -0.5808    0.0000 C   0  0  0  0  0  0  0  0  0  0  0  0
    3.8993   -0.9933    0.0000 O   0  0  0  0  0  0  0  0  0  0  0  0
    3.1848    0.2442    0.0000 N   0  0  0  0  0  0  0  0  0  0  0  0
    3.8993    0.6567    0.0000 C   0  0  0  0  0  0  0  0  0  0  0  0
    3.8993    1.4817    0.0000 C   0  0  0  0  0  0  0  0  0  0  0  0
    4.6138    1.8942    0.0000 C   0  0  0  0  0  0  0  0  0  0  0  0
    4.6138    2.7192    0.0000 C   0  0  0  0  0  0  0  0  0  0  0  0
  2  1  2  0
  2  3  1  0
  3  4  1  0
  5  4  1  0
  6  5  1  0
  7  6  1  0
  8  7  1  0
  9  8  1  0
  9 17  2  0
 10  9  1  0
 11 10  2  0
 11 15  1  0
 12 11  1  0
 12 13  1  0
 13 14  2  0
 14 10  1  0
 15 16  2  0
 16 17  1  0
 18  2  1  0
 19 18  1  0
 20 19  2  0
 21 20  1  0
 22 21  2  0
 22 23  1  0
 23 24  2  0
 24 19  1  0
 25 23  1  0
 25 26  2  0
 27 25  1  0
 28 27  1  0
 29 28  1  0
 29 30  1  0
 31 30  1  0
M  END
>  <DRUGBANK_ID>  (1) 
DB07801

>  <COMMON_NAME>  (1) 
N-butyl-3-{[6-(9H-purin-6-ylamino)hexanoyl]amino}benzamide

$$$$
