CTL
     RDKit          2D

 12 13  0  0  0  0  0  0  0  0999 V2000
   -0.2047   -0.5717    0.0000 C   0  0  0  0  0  0  0  0  0  0  0  0
   -0.9192   -0.1592    0.0000 C   0  0  0  0  0  0  0  0  0  0  0  0
   -0.9192    0.6658    0.0000 C   0  0  0  0  0  0  0  0  0  0  0  0
   -0.2047    1.0783    0.0000 C   0  0  0  0  0  0  0  0  0  0  0  0
    0.5097    0.6658    0.0000 C   0  0  0  0  0  0  0  0  0  0  0  0
    1.2242    1.0783    0.0000 C   0  0  0  0  0  0  0  0  0  0  0  0
    0.5097   -0.1592    0.0000 C   0  0  0  0  0  0  0  0  0  0  0  0
    1.2242   -0.5717    0.0000 C   0  0  0  0  0  0  0  0  0  0  0  0
    1.9387   -0.1592    0.0000 C   0  0  0  0  0  0  0  0  0  0  0  0
    1.9387    0.6658    0.0000 C   0  0  0  0  0  0  0  0  0  0  0  0
   -0.2047   -1.3967    0.0000 O   0  0  0  0  0  0  0  0  0  0  0  0
   -1.6337   -0.5717    0.0000 N   0  0  0  0  0  0  0  0  0  0  0  0
  1  2  1  0
  1  7  1  0
  1 11  1  1
  2  3  1  0
  2 12  1  1
  3  4  1  0
  4  5  1  0
  5  6  1  0
  5  7  2  0
  6 10  2  0
  7  8  1  0
  8  9  2  0
  9 10  1  0
M  END
>  <DRUGBANK_ID>  (1) 
DB07597

>  <COMMON_NAME>  (1) 
CIS-(1R,2S)-2-AMINO-1,2,3,4-TETRAHYDRONAPHTHALEN-1-OL

$$$$
