5HD
     RDKit          2D

 14 13  0  0  0  0  0  0  0  0999 V2000
   -1.3303   -0.0978    0.0000 C   0  0  0  0  0  0  0  0  0  0  0  0
   -2.0447   -0.5103    0.0000 C   0  0  0  0  0  0  0  0  0  0  0  0
   -2.7592   -0.0978    0.0000 C   0  0  0  0  0  0  0  0  0  0  0  0
    3.6710   -0.5103    0.0000 O   0  0  0  0  0  0  0  0  0  0  0  0
    2.9566   -0.0978    0.0000 C   0  0  0  0  0  0  0  0  0  0  0  0
    2.2421   -0.5103    0.0000 C   0  0  0  0  0  0  0  0  0  0  0  0
    1.5276   -0.0978    0.0000 C   0  0  0  0  0  0  0  0  0  0  0  0
    0.8132   -0.5103    0.0000 C   0  0  0  0  0  0  0  0  0  0  0  0
    0.0987   -0.0978    0.0000 C   0  0  0  0  0  0  0  0  0  0  0  0
    0.0987    0.7272    0.0000 C   0  0  0  0  0  0  0  0  0  0  0  0
   -0.6158    1.1397    0.0000 C   0  0  0  0  0  0  0  0  0  0  0  0
   -0.6158    1.9647    0.0000 O   0  0  0  0  0  0  0  0  0  0  0  0
   -0.6158   -0.5103    0.0000 C   0  0  0  0  0  0  0  0  0  0  0  0
   -3.4737   -0.5103    0.0000 O   0  0  0  0  0  0  0  0  0  0  0  0
  1  2  1  0
  2  3  1  0
  3 14  1  0
  5  4  1  0
  5  6  1  0
  6  7  1  0
  7  8  1  0
  9  8  1  0
  9 13  1  0
 10  9  1  0
 11 10  1  0
 12 11  1  0
 13  1  1  0
M  END
>  <DRUGBANK_ID>  (1) 
DB07171

>  <COMMON_NAME>  (1) 
5-(2-hydroxyethyl)nonane-1,9-diol

$$$$
