
     RDKit          2D

 29 31  0  0  0  0  0  0  0  0999 V2000
    7.3658    0.0000    0.0000 F   0  0  0  0  0  0  0  0  0  0  0  0
    4.5079    4.9500    0.0000 F   0  0  0  0  0  0  0  0  0  0  0  0
    3.7933   -3.7125    0.0000 O   0  0  0  0  0  0  0  0  0  0  0  0
    3.0790   -0.8250    0.0000 N   0  0  0  0  0  0  0  0  0  0  0  0
    3.0790   -2.4750    0.0000 N   0  0  0  0  0  0  0  0  0  0  0  0
    2.3644   -3.7125    0.0000 N   0  0  0  0  0  0  0  0  0  0  0  0
    3.0790    0.0000    0.0000 C   0  0  0  0  0  0  0  0  0  0  0  0
    2.3644   -1.2375    0.0000 C   0  0  0  0  0  0  0  0  0  0  0  0
    3.7933   -1.2375    0.0000 C   0  0  0  0  0  0  0  0  0  0  0  0
    3.7933    0.4125    0.0000 C   0  0  0  0  0  0  0  0  0  0  0  0
    2.3644   -2.0625    0.0000 C   0  0  0  0  0  0  0  0  0  0  0  0
    3.7933   -2.0625    0.0000 C   0  0  0  0  0  0  0  0  0  0  0  0
    3.7933    1.2375    0.0000 C   0  0  0  0  0  0  0  0  0  0  0  0
    4.5079    1.6500    0.0000 C   0  0  0  0  0  0  0  0  0  0  0  0
    5.2223    1.2375    0.0000 C   0  0  0  0  0  0  0  0  0  0  0  0
    4.5079    2.4750    0.0000 C   0  0  0  0  0  0  0  0  0  0  0  0
    3.0790   -3.3000    0.0000 C   0  0  0  0  0  0  0  0  0  0  0  0
    5.2223    0.4125    0.0000 C   0  0  0  0  0  0  0  0  0  0  0  0
    3.7933    2.8875    0.0000 C   0  0  0  0  0  0  0  0  0  0  0  0
    5.9369    1.6500    0.0000 C   0  0  0  0  0  0  0  0  0  0  0  0
    5.2223    2.8875    0.0000 C   0  0  0  0  0  0  0  0  0  0  0  0
    2.3644   -4.5375    0.0000 C   0  0  0  0  0  0  0  0  0  0  0  0
    5.9369    0.0000    0.0000 C   0  0  0  0  0  0  0  0  0  0  0  0
    3.7933    3.7125    0.0000 C   0  0  0  0  0  0  0  0  0  0  0  0
    6.6513    1.2375    0.0000 C   0  0  0  0  0  0  0  0  0  0  0  0
    5.2223    3.7125    0.0000 C   0  0  0  0  0  0  0  0  0  0  0  0
    6.6513    0.4125    0.0000 C   0  0  0  0  0  0  0  0  0  0  0  0
    4.5079    4.1250    0.0000 C   0  0  0  0  0  0  0  0  0  0  0  0
    1.6500   -4.9500    0.0000 C   0  0  0  0  0  0  0  0  0  0  0  0
  1 27  1  0
  2 28  1  0
  3 17  2  0
  4  7  1  0
  4  8  1  0
  4  9  1  0
  5 11  1  0
  5 12  1  0
  5 17  1  0
  6 17  1  0
  6 22  1  0
  7 10  1  0
  8 11  1  0
  9 12  1  0
 10 13  1  0
 13 14  1  0
 14 15  1  0
 14 16  1  0
 15 18  2  0
 15 20  1  0
 16 19  2  0
 16 21  1  0
 18 23  1  0
 19 24  1  0
 20 25  2  0
 21 26  2  0
 22 29  1  0
 23 27  2  0
 24 28  2  0
 25 27  1  0
 26 28  1  0
M  END
>  <DRUGBANK_ID>  (1) 
DB08927

>  <COMMON_NAME>  (1) 
Amperozide

>  <CAS_NUMBER>  (1) 
75558-90-6

>  <UNII>  (1) 
0M2W3TAG39

>  <SYNONYMS>  (1) 
Amperozide

$$$$
