
     RDKit          2D

 16 16  0  0  0  0  0  0  0  0999 V2000
    0.5330   -1.3255    0.0000 O   0  0  0  0  0  0  0  0  0  0  0  0
   -0.8713    1.1540    0.0000 O   0  0  0  0  0  0  0  0  0  0  0  0
   -2.3174   -1.3255    0.0000 O   0  0  0  0  0  0  0  0  0  0  0  0
   -0.8713   -1.3255    0.0000 N   0  0  0  0  0  0  0  0  0  0  0  0
   -1.6175   -0.0881    0.0000 N   0  0  0  0  0  0  0  0  0  0  0  0
   -0.1715   -0.0881    0.0000 C   0  0  0  0  0  0  0  0  0  0  0  0
   -0.1715   -0.9131    0.0000 C   0  0  0  0  0  0  0  0  0  0  0  0
   -0.8713    0.3244    0.0000 C   0  0  0  0  0  0  0  0  0  0  0  0
    0.6581   -0.0881    0.0000 C   0  0  0  0  0  0  0  0  0  0  0  0
   -0.1715    0.7415    0.0000 C   0  0  0  0  0  0  0  0  0  0  0  0
   -1.6175   -0.9131    0.0000 C   0  0  0  0  0  0  0  0  0  0  0  0
    1.0706    0.6164    0.0000 C   0  0  0  0  0  0  0  0  0  0  0  0
    1.0568   -0.7832    0.0000 C   0  0  0  0  0  0  0  0  0  0  0  0
    0.5330    1.1540    0.0000 C   0  0  0  0  0  0  0  0  0  0  0  0
    1.8957    0.6071    0.0000 C   0  0  0  0  0  0  0  0  0  0  0  0
    2.3174    1.3255    0.0000 C   0  0  0  0  0  0  0  0  0  0  0  0
  1  7  2  0
  2  8  2  0
  3 11  2  0
  4  7  1  0
  4 11  1  0
  5  8  1  0
  5 11  1  0
  6  7  1  0
  6  8  1  0
  6  9  1  0
  6 10  1  0
  9 12  2  0
  9 13  1  0
 10 14  1  0
 12 15  1  0
 15 16  1  0
M  END
>  <DRUGBANK_ID>  (1) 
DB13377

>  <COMMON_NAME>  (1) 
Vinbarbital

>  <CAS_NUMBER>  (1) 
125-42-8

>  <UNII>  (1) 
7NZH2C1T6O

>  <SYNONYMS>  (1) 
Vinbarbital; Vinbarbitalum

$$$$
