
     RDKit          2D

 35 39  0  0  0  0  0  0  0  0999 V2000
   -4.7456    0.4124    0.0000 C   0  0  0  0  0  0  0  0  0  0  0  0
   -4.7456   -0.4126    0.0000 C   0  0  0  0  0  0  0  0  0  0  0  0
   -4.0438   -0.8253    0.0000 C   0  0  0  0  0  0  0  0  0  0  0  0
   -3.2598   -0.4126    0.0000 C   0  0  0  0  0  0  0  0  0  0  0  0
   -3.2598    0.4124    0.0000 C   0  0  0  0  0  0  0  0  0  0  0  0
   -4.0438    0.8252    0.0000 C   0  0  0  0  0  0  0  0  0  0  0  0
   -2.5584   -0.8253    0.0000 C   0  0  0  0  0  0  0  0  0  0  0  0
   -1.8568   -0.4126    0.0000 N   0  0  0  0  0  0  0  0  0  0  0  0
   -1.8568    0.4124    0.0000 C   0  0  0  0  0  0  0  0  0  0  0  0
   -2.5584    0.8252    0.0000 N   0  0  0  0  0  0  0  0  0  0  0  0
   -2.5584   -1.6506    0.0000 C   0  0  0  0  0  0  0  0  0  0  0  0
   -1.1553    0.8252    0.0000 C   0  0  0  0  0  0  0  0  0  0  0  0
   -0.4538    0.4124    0.0000 N   0  0  0  0  0  0  0  0  0  0  0  0
   -0.4538   -0.4126    0.0000 C   0  0  0  0  0  0  0  0  0  0  0  0
    0.2887   -0.8253    0.0000 N   0  0  0  0  0  0  0  0  0  0  0  0
    0.9902   -0.4126    0.0000 C   0  0  0  0  0  0  0  0  0  0  0  0
    0.9902    0.4124    0.0000 C   0  0  0  0  0  0  0  0  0  0  0  0
    0.2887    0.8252    0.0000 C   0  0  0  0  0  0  0  0  0  0  0  0
    0.2887    1.6506    0.0000 O   0  0  0  0  0  0  0  0  0  0  0  0
   -1.1553   -0.8253    0.0000 O   0  0  0  0  0  0  0  0  0  0  0  0
    0.2887   -1.6506    0.0000 C   0  0  0  0  0  0  0  0  0  0  0  0
    1.7745   -0.6601    0.0000 N   0  0  0  0  0  0  0  0  0  0  0  0
    2.2696    0.0000    0.0000 C   0  0  0  0  0  0  0  0  0  0  0  0
    1.7745    0.6600    0.0000 N   0  0  0  0  0  0  0  0  0  0  0  0
    3.0949    0.0000    0.0000 N   0  0  0  0  0  0  0  0  0  0  0  0
    3.5076   -0.7014    0.0000 C   0  0  0  0  0  0  0  0  0  0  0  0
    4.3329   -0.7014    0.0000 C   0  0  0  0  0  0  0  0  0  0  0  0
    4.7456    0.0000    0.0000 C   0  0  0  0  0  0  0  0  0  0  0  0
    4.3329    0.7013    0.0000 C   0  0  0  0  0  0  0  0  0  0  0  0
    3.5076    0.7013    0.0000 C   0  0  0  0  0  0  0  0  0  0  0  0
    4.7456   -1.4442    0.0000 N   0  0  0  0  0  0  0  0  0  0  0  0
    2.1871    1.3616    0.0000 C   0  0  0  0  0  0  0  0  0  0  0  0
    3.0123    1.3616    0.0000 C   0  0  0  0  0  0  0  0  0  0  0  0
    3.8377    1.3616    0.0000 C   0  0  0  0  0  0  0  0  0  0  0  0
    4.6631    1.3616    0.0000 C   0  0  0  0  0  0  0  0  0  0  0  0
  1  2  2  0
  1  6  1  0
  2  3  1  0
  3  4  2  0
  4  5  1  0
  4  7  1  0
  5  6  2  0
  5 10  1  0
  7  8  2  0
  7 11  1  0
  8  9  1  0
  9 10  2  0
  9 12  1  0
 12 13  1  0
 13 14  1  0
 13 18  1  0
 14 15  1  0
 14 20  2  0
 15 16  1  0
 15 21  1  0
 16 17  2  0
 16 22  1  0
 17 18  1  0
 17 24  1  0
 18 19  2  0
 22 23  2  0
 23 24  1  0
 23 25  1  0
 25 26  1  0
 25 30  1  0
 26 27  1  0
 27 28  1  0
 27 31  1  1
 28 29  1  0
 29 30  1  0
 32 33  1  0
 32 24  1  0
 33 34  3  0
 34 35  1  0
M  END
>  <DRUGBANK_ID>  (1) 
DB08882

>  <COMMON_NAME>  (1) 
Linagliptin

>  <CAS_NUMBER>  (1) 
668270-12-0

>  <UNII>  (1) 
3X29ZEJ4R2

>  <SYNONYMS>  (1) 
(R)-8-(3-aminopiperidin-1-yl)-7-but-2-ynyl-3-methyl-1-(4-methylquinazolin-2-ylmethyl)-3,7-dihydro-purine-2,6-dione; Linagliptin; Linagliptina

$$$$
