
     RDKit          2D

 30 32  0  0  1  0  0  0  0  0999 V2000
   -3.5724   10.8911    0.0000 N   0  0  0  0  0  0  0  0  0  0  0  0
   -2.8579   10.4786    0.0000 C   0  0  0  0  0  0  0  0  0  0  0  0
   -2.1434   10.8911    0.0000 N   0  0  0  0  0  0  0  0  0  0  0  0
   -2.8579    9.6536    0.0000 C   0  0  0  0  0  0  0  0  0  0  0  0
   -2.1434    9.2411    0.0000 C   0  0  0  0  0  0  0  0  0  0  0  0
   -2.1434    8.4161    0.0000 C   0  0  0  0  0  0  0  0  0  0  0  0
   -2.8579    8.0036    0.0000 C   0  0  0  0  0  0  0  0  0  0  0  0
   -2.8579    7.1786    0.0000 N   0  0  0  0  0  0  0  0  0  0  0  0
   -2.1434    6.7661    0.0000 C   0  0  0  0  0  0  0  0  0  0  0  0
   -1.4289    7.1786    0.0000 C   0  0  0  0  0  0  0  0  0  0  0  0
   -0.7145    6.7661    0.0000 O   0  0  0  0  0  0  0  0  0  0  0  0
   -1.4289    8.0036    0.0000 O   0  0  0  0  0  0  0  0  0  0  0  0
   -2.1434    5.9411    0.0000 C   0  0  0  0  0  0  0  0  0  0  0  0
   -1.4289    5.5286    0.0000 C   0  0  0  0  0  0  0  0  0  0  0  0
   -0.7145    5.9411    0.0000 F   0  0  0  0  0  0  0  0  0  0  0  0
   -1.4289    4.7036    0.0000 C   0  0  0  0  0  0  0  0  0  0  0  0
   -0.7145    4.2911    0.0000 O   0  0  0  0  0  0  0  0  0  0  0  0
   -0.7145    3.4661    0.0000 C   0  0  0  0  0  0  0  0  0  0  0  0
   -0.0470    2.9812    0.0000 C   0  0  0  0  0  0  0  0  0  0  0  0
   -0.3020    2.1965    0.0000 C   0  0  0  0  0  0  0  0  0  0  0  0
   -1.1270    2.1965    0.0000 O   0  0  0  0  0  0  0  0  0  0  0  0
   -1.3819    2.9812    0.0000 C   0  0  0  0  0  0  0  0  0  0  0  0
   -2.1434    4.2911    0.0000 C   0  0  0  0  0  0  0  0  0  0  0  0
   -2.8579    4.7036    0.0000 C   0  0  0  0  0  0  0  0  0  0  0  0
   -3.5724    4.2911    0.0000 O   0  0  0  0  0  0  0  0  0  0  0  0
   -3.5724    3.4661    0.0000 C   0  0  0  0  0  0  0  0  0  0  0  0
   -4.2868    3.0536    0.0000 C   0  0  0  0  0  0  0  0  0  0  0  0
   -2.8579    5.5286    0.0000 C   0  0  0  0  0  0  0  0  0  0  0  0
   -3.5724    8.4161    0.0000 C   0  0  0  0  0  0  0  0  0  0  0  0
   -3.5724    9.2411    0.0000 C   0  0  0  0  0  0  0  0  0  0  0  0
  1  2  2  0
  2  3  1  0
  2  4  1  0
  4  5  2  0
  4 30  1  0
  5  6  1  0
  6  7  2  0
  7  8  1  0
  7 29  1  0
  9  8  1  1
  9 10  1  0
  9 13  1  0
 10 11  1  0
 10 12  2  0
 13 14  2  0
 13 28  1  0
 14 15  1  0
 14 16  1  0
 16 17  1  0
 16 23  2  0
 18 17  1  6
 18 19  1  0
 18 22  1  0
 19 20  1  0
 20 21  1  0
 21 22  1  0
 23 24  1  0
 24 25  1  0
 24 28  2  0
 25 26  1  0
 26 27  1  0
 29 30  2  0
M  END
>  <DRUGBANK_ID>  (1) 
DB04590

>  <COMMON_NAME>  (1) 
(2R)-({4-[AMINO(IMINO)METHYL]PHENYL}AMINO){5-ETHOXY-2-FLUORO-3-[(3R)-TETRAHYDROFURAN-3-YLOXY]PHENYL}ACETICACID

$$$$
