
     RDKit          2D

 33 38  0  0  0  0  0  0  0  0999 V2000
   -2.0125    2.5735    0.0000 O   0  0  0  0  0  0  0  0  0  0  0  0
    0.7509    3.4661    0.0000 O   0  0  0  0  0  0  0  0  0  0  0  0
   -1.4821   -3.0588    0.0000 N   0  0  0  0  0  0  0  0  0  0  0  0
   -0.9600   -0.2081    0.0000 N   0  0  0  0  0  0  0  0  0  0  0  0
   -0.7014    3.2386    0.0000 N   0  0  0  0  0  0  0  0  0  0  0  0
    1.5245    0.5944    0.0000 N   0  0  0  0  0  0  0  0  0  0  0  0
   -0.9984   -2.3905    0.0000 C   0  0  0  0  0  0  0  0  0  0  0  0
   -0.2134   -2.6441    0.0000 C   0  0  0  0  0  0  0  0  0  0  0  0
   -0.2119   -3.4691    0.0000 C   0  0  0  0  0  0  0  0  0  0  0  0
   -1.2547   -1.6063    0.0000 C   0  0  0  0  0  0  0  0  0  0  0  0
   -0.9961   -3.7254    0.0000 C   0  0  0  0  0  0  0  0  0  0  0  0
   -0.7038   -0.9923    0.0000 C   0  0  0  0  0  0  0  0  0  0  0  0
   -2.3071   -3.0602    0.0000 C   0  0  0  0  0  0  0  0  0  0  0  0
   -1.7406    0.0432    0.0000 C   0  0  0  0  0  0  0  0  0  0  0  0
   -0.4785    0.4557    0.0000 C   0  0  0  0  0  0  0  0  0  0  0  0
   -0.9600    1.1196    0.0000 C   0  0  0  0  0  0  0  0  0  0  0  0
   -1.7406    0.8682    0.0000 C   0  0  0  0  0  0  0  0  0  0  0  0
   -0.7038    1.9038    0.0000 C   0  0  0  0  0  0  0  0  0  0  0  0
   -2.4551   -0.3692    0.0000 C   0  0  0  0  0  0  0  0  0  0  0  0
    0.0812    2.1573    0.0000 C   0  0  0  0  0  0  0  0  0  0  0  0
   -2.4551    1.2807    0.0000 C   0  0  0  0  0  0  0  0  0  0  0  0
    0.7478    1.6713    0.0000 C   0  0  0  0  0  0  0  0  0  0  0  0
   -1.1875    2.5720    0.0000 C   0  0  0  0  0  0  0  0  0  0  0  0
   -3.1696    0.0432    0.0000 C   0  0  0  0  0  0  0  0  0  0  0  0
   -3.1696    0.8682    0.0000 C   0  0  0  0  0  0  0  0  0  0  0  0
    0.0827    2.9823    0.0000 C   0  0  0  0  0  0  0  0  0  0  0  0
    1.5280    1.9240    0.0000 C   0  0  0  0  0  0  0  0  0  0  0  0
    0.7457    0.8512    0.0000 C   0  0  0  0  0  0  0  0  0  0  0  0
    2.0106    1.2549    0.0000 C   0  0  0  0  0  0  0  0  0  0  0  0
    1.8662    2.6766    0.0000 C   0  0  0  0  0  0  0  0  0  0  0  0
    2.8314    1.3383    0.0000 C   0  0  0  0  0  0  0  0  0  0  0  0
    2.6870    2.7599    0.0000 C   0  0  0  0  0  0  0  0  0  0  0  0
    3.1696    2.0908    0.0000 C   0  0  0  0  0  0  0  0  0  0  0  0
  1 23  2  0
  2 26  2  0
  3  7  1  0
  3 11  1  0
  3 13  1  0
  4 12  1  0
  4 14  1  0
  4 15  1  0
  5 23  1  0
  5 26  1  0
  6 28  1  0
  6 29  1  0
  7  8  1  0
  7 10  1  1
  8  9  1  0
  9 11  1  0
 10 12  1  0
 14 17  2  0
 14 19  1  0
 15 16  2  0
 16 17  1  0
 16 18  1  0
 17 21  1  0
 18 20  2  0
 18 23  1  0
 19 24  2  0
 20 22  1  0
 20 26  1  0
 21 25  2  0
 22 27  1  0
 22 28  2  0
 24 25  1  0
 27 29  2  0
 27 30  1  0
 29 31  1  0
 30 32  2  0
 31 33  2  0
 32 33  1  0
M  END
>  <DRUGBANK_ID>  (1) 
DB07456

>  <COMMON_NAME>  (1) 
3-(1H-indol-3-yl)-4-(1-{2-[(2S)-1-methylpyrrolidinyl]ethyl}-1H-indol-3-yl)-1H-pyrrole-2,5-dione

$$$$
