
     RDKit          2D

 13 12  0  0  0  0  0  0  0  0999 V2000
   -0.3559   -0.8878    0.0000 P   0  0  0  0  0  0  0  0  0  0  0  0
    0.4690   -0.8878    0.0000 O   0  0  0  0  0  0  0  0  0  0  0  0
   -0.3559   -0.0628    0.0000 O   0  0  0  0  0  0  0  0  0  0  0  0
   -0.3559   -1.7128    0.0000 O   0  0  0  0  0  0  0  0  0  0  0  0
   -1.1691   -0.8878    0.0000 O   0  0  0  0  0  0  0  0  0  0  0  0
   -1.8606   -0.4242    0.0000 C   0  0  0  0  0  0  0  0  0  0  0  0
   -1.8606    0.4399    0.0000 C   0  0  0  0  0  0  0  0  0  0  0  0
   -1.0435    0.4399    0.0000 O   0  0  0  0  0  0  0  0  0  0  0  0
   -1.8606    1.2492    0.0000 C   0  0  0  0  0  0  0  0  0  0  0  0
   -1.1927    1.7128    0.0000 O   0  0  0  0  0  0  0  0  0  0  0  0
    1.1943   -1.2809    0.0000 C   0  0  0  0  0  0  0  0  0  0  0  0
    1.8974   -0.8493    0.0000 C   0  0  0  0  0  0  0  0  0  0  0  0
    2.6227   -1.2424    0.0000 N   0  0  0  0  0  0  0  0  0  0  0  0
  2  1  1  0
  3  1  1  0
  4  1  2  0
  5  1  1  0
  6  5  1  0
  7  6  1  0
  7  8  1  1
  9  7  1  0
 10  9  1  0
 11  2  1  0
 12 11  1  0
 13 12  1  0
M  END
>  <DRUGBANK_ID>  (1) 
DB03484

>  <SECONDARY_ACCESSION_NUMBERS>  (1) 
EXPT01637

>  <COMMON_NAME>  (1) 
sn-glycero-3-phosphoethanolamine

>  <CAS_NUMBER>  (1) 
59734-15-5

>  <UNII>  (1) 
966T5WN0AC

>  <SYNONYMS>  (1) 
Glycerophosphoethanolamine

$$$$
