
     RDKit          2D

 14 15  0  0  0  0  0  0  0  0999 V2000
    0.7144   -1.2375    0.0000 N   0  0  0  0  0  0  0  0  0  0  0  0
    1.4290   -0.8250    0.0000 C   0  0  0  0  0  0  0  0  0  0  0  0
    1.4290    0.0000    0.0000 C   0  0  0  0  0  0  0  0  0  0  0  0
    0.7145    0.4124    0.0000 N   0  0  0  0  0  0  0  0  0  0  0  0
    0.0000    0.0000    0.0000 C   0  0  0  0  0  0  0  0  0  0  0  0
    0.0000   -0.8250    0.0000 C   0  0  0  0  0  0  0  0  0  0  0  0
   -0.7146   -1.2375    0.0000 N   0  0  0  0  0  0  0  0  0  0  0  0
   -1.4291   -0.8249    0.0000 C   0  0  0  0  0  0  0  0  0  0  0  0
   -1.4290    0.0000    0.0000 N   0  0  0  0  0  0  0  0  0  0  0  0
   -0.7145    0.4126    0.0000 C   0  0  0  0  0  0  0  0  0  0  0  0
   -0.7144    1.2375    0.0000 O   0  0  0  0  0  0  0  0  0  0  0  0
   -2.1437   -1.2374    0.0000 N   0  0  0  0  0  0  0  0  0  0  0  0
    2.1436    0.4124    0.0000 C   0  0  0  0  0  0  0  0  0  0  0  0
    2.1437    1.2374    0.0000 O   0  0  0  0  0  0  0  0  0  0  0  0
  1  2  2  0
  2  3  1  0
  3  4  2  0
  3 13  1  0
  4  5  1  0
  5  6  2  0
  6  1  1  0
  6  7  1  0
  7  8  1  0
  8  9  2  0
  8 12  1  0
  9 10  1  0
 10  5  1  0
 10 11  2  0
 13 14  1  0
M  END
>  <DRUGBANK_ID>  (1) 
DB03197

>  <SECONDARY_ACCESSION_NUMBERS>  (1) 
EXPT01747

>  <COMMON_NAME>  (1) 
6-Hydroxymethylpterin

>  <CAS_NUMBER>  (1) 
712-29-8

>  <UNII>  (1) 
7O0I7Z5A0Y

>  <SYNONYMS>  (1) 
2-Amino-4-hydroxy-6-hydroxymethyl-pteridine; 6-(Hydroxymethyl)pterin; Pterin-6-methanol; Rana-pterin 3; Ranachrome 3

$$$$
