
     RDKit          2D

 32 34  0  0  0  0  0  0  0  0999 V2000
    1.8832    0.8598    0.0000 C   0  0  0  0  0  0  0  0  0  0  0  0
    2.7020    1.3667    0.0000 C   0  0  0  0  0  0  0  0  0  0  0  0
    2.0353   -0.0331    0.0000 C   0  0  0  0  0  0  0  0  0  0  0  0
    1.1423    1.2536    0.0000 S   0  0  0  0  0  0  0  0  0  0  0  0
    2.9748    2.1073    0.0000 C   0  0  0  0  0  0  0  0  0  0  0  0
    3.3804    0.7974    0.0000 S   0  0  0  0  0  0  0  0  0  0  0  0
    1.4855   -0.5985    0.0000 N   0  0  0  0  0  0  0  0  0  0  0  0
    0.3977    0.8598    0.0000 C   0  0  0  0  0  0  0  0  0  0  0  0
    3.7547    2.1073    0.0000 C   0  0  0  0  0  0  0  0  0  0  0  0
    4.0393    1.3159    0.0000 C   0  0  0  0  0  0  0  0  0  0  0  0
    0.6785   -0.5985    0.0000 C   0  0  0  0  0  0  0  0  0  0  0  0
    1.8325   -1.3977    0.0000 C   0  0  0  0  0  0  0  0  0  0  0  0
    0.1833    0.1111    0.0000 C   0  0  0  0  0  0  0  0  0  0  0  0
    0.2534   -1.2885    0.0000 O   0  0  0  0  0  0  0  0  0  0  0  0
    2.6825   -1.3977    0.0000 C   0  0  0  0  0  0  0  0  0  0  0  0
   -0.5029   -0.2866    0.0000 N   0  0  0  0  0  0  0  0  0  0  0  0
    3.0567   -0.6686    0.0000 O   0  0  0  0  0  0  0  0  0  0  0  0
    3.0373   -2.1073    0.0000 O   0  0  0  0  0  0  0  0  0  0  0  0
   -1.2125    0.1189    0.0000 C   0  0  0  0  0  0  0  0  0  0  0  0
   -1.9416   -0.2866    0.0000 C   0  0  0  0  0  0  0  0  0  0  0  0
   -1.2125    0.9729    0.0000 C   0  0  0  0  0  0  0  0  0  0  0  0
   -2.6629    0.1111    0.0000 C   0  0  0  0  0  0  0  0  0  0  0  0
   -1.9143    1.3667    0.0000 O   0  0  0  0  0  0  0  0  0  0  0  0
   -0.5029    1.3667    0.0000 O   0  0  0  0  0  0  0  0  0  0  0  0
   -3.3726   -0.2866    0.0000 C   0  0  0  0  0  0  0  0  0  0  0  0
   -2.5928    0.9729    0.0000 C   0  0  0  0  0  0  0  0  0  0  0  0
   -3.3726   -1.1364    0.0000 C   0  0  0  0  0  0  0  0  0  0  0  0
   -4.1017    0.0995    0.0000 C   0  0  0  0  0  0  0  0  0  0  0  0
   -3.3024    1.3667    0.0000 C   0  0  0  0  0  0  0  0  0  0  0  0
   -4.1017   -1.5615    0.0000 C   0  0  0  0  0  0  0  0  0  0  0  0
   -4.7996   -0.2866    0.0000 C   0  0  0  0  0  0  0  0  0  0  0  0
   -4.7996   -1.1364    0.0000 C   0  0  0  0  0  0  0  0  0  0  0  0
  1  2  1  6
  1  3  1  0
  1  4  1  0
  2  5  2  0
  2  6  1  0
  3  7  1  0
  4  8  1  0
  5  9  1  0
  6 10  1  0
  7 11  1  0
  7 12  1  0
  8 13  1  0
  9 10  2  0
 11 14  2  0
 11 13  1  0
 12 15  1  0
 13 16  1  1
 15 17  1  0
 15 18  2  0
 16 19  1  0
 19 20  1  1
 19 21  1  0
 20 22  1  0
 21 23  1  0
 21 24  2  0
 22 25  1  0
 23 26  1  0
 25 27  2  0
 25 28  1  0
 26 29  1  0
 27 30  1  0
 28 31  2  0
 30 32  2  0
 31 32  1  0
M  END
>  <DRUGBANK_ID>  (1) 
DB08836

>  <COMMON_NAME>  (1) 
Temocapril

>  <CAS_NUMBER>  (1) 
111902-57-9

>  <UNII>  (1) 
18IZ008EU6

>  <SYNONYMS>  (1) 
Temocapril; Temocaprilum

$$$$
