
     RDKit          2D

 21 22  0  0  0  0  0  0  0  0999 V2000
   -1.4256   -0.4162    0.0000 C   0  0  0  0  0  0  0  0  0  0  0  0
   -2.1527    0.0141    0.0000 C   0  0  0  0  0  0  0  0  0  0  0  0
   -2.8566   -0.4162    0.0000 C   0  0  0  0  0  0  0  0  0  0  0  0
   -2.1527    0.7798    0.0000 C   0  0  0  0  0  0  0  0  0  0  0  0
   -0.6935    0.0141    0.0000 C   0  0  0  0  0  0  0  0  0  0  0  0
    0.0103   -0.4162    0.0000 N   0  0  0  0  0  0  0  0  0  0  0  0
   -3.5862    0.8108    0.0000 C   0  0  0  0  0  0  0  0  0  0  0  0
    3.5784    0.8186    0.0000 C   0  0  0  0  0  0  0  0  0  0  0  0
   -2.8566    1.2232    0.0000 C   0  0  0  0  0  0  0  0  0  0  0  0
   -3.5862   -0.0141    0.0000 C   0  0  0  0  0  0  0  0  0  0  0  0
   -1.4256   -1.2388    0.0000 O   0  0  0  0  0  0  0  0  0  0  0  0
    2.1476    0.0141    0.0000 C   0  0  0  0  0  0  0  0  0  0  0  0
    3.5784    0.0141    0.0000 C   0  0  0  0  0  0  0  0  0  0  0  0
    2.8514    1.2388    0.0000 C   0  0  0  0  0  0  0  0  0  0  0  0
    2.8592   -0.3957    0.0000 C   0  0  0  0  0  0  0  0  0  0  0  0
    2.1476    0.8108    0.0000 C   0  0  0  0  0  0  0  0  0  0  0  0
    0.7141   -0.0012    0.0000 C   0  0  0  0  0  0  0  0  0  0  0  0
   -4.2901    1.2232    0.0000 O   0  0  0  0  0  0  0  0  0  0  0  0
    4.2901    1.2388    0.0000 O   0  0  0  0  0  0  0  0  0  0  0  0
    1.4256   -0.4162    0.0000 C   0  0  0  0  0  0  0  0  0  0  0  0
   -0.7141    0.8108    0.0000 C   0  0  0  0  0  0  0  0  0  0  0  0
  1 11  1  1
  2  1  1  0
  3  2  2  0
  4  2  1  0
  5  1  1  0
  5 21  1  1
  6  5  1  0
  7  9  1  0
  7 10  2  0
  8 14  2  0
  9  4  2  0
 10  3  1  0
 12 20  1  0
 13 15  2  0
 13  8  1  0
 14 16  1  0
 15 12  1  0
 16 12  2  0
 17  6  1  0
 18  7  1  0
 19  8  1  0
 20 17  1  0
M  END
>  <DRUGBANK_ID>  (1) 
DB00867

>  <SECONDARY_ACCESSION_NUMBERS>  (1) 
APRD00541

>  <COMMON_NAME>  (1) 
Ritodrine

>  <CAS_NUMBER>  (1) 
26652-09-5

>  <UNII>  (1) 
I0Q6O6740J

>  <SYNONYMS>  (1) 
p-Hydroxy-alpha-(1-((p-hydroxyphenethyl)amino)ethyl)benzyl alcohol; Ritodrina; Ritodrine; Ritodrinium

$$$$
