SLE
     RDKit          2D

 10  9  0  0  0  0  0  0  0  0999 V2000
   -1.3810    0.4744    0.0000 C   0  0  0  0  0  0  0  0  0  0  0  0
   -2.0955    0.0619    0.0000 O   0  0  0  0  0  0  0  0  0  0  0  0
   -1.3810    1.2994    0.0000 O   0  0  0  0  0  0  0  0  0  0  0  0
   -0.6666    0.0619    0.0000 C   0  0  0  0  0  0  0  0  0  0  0  0
   -0.6666   -0.7631    0.0000 C   0  0  0  0  0  0  0  0  0  0  0  0
   -1.3810   -1.1756    0.0000 S   0  0  0  0  0  0  0  0  0  0  0  0
    0.0479    0.4744    0.0000 C   0  0  0  0  0  0  0  0  0  0  0  0
    0.7624    0.0619    0.0000 C   0  0  0  0  0  0  0  0  0  0  0  0
    1.4769    0.4744    0.0000 C   0  0  0  0  0  0  0  0  0  0  0  0
    0.7624   -0.7631    0.0000 C   0  0  0  0  0  0  0  0  0  0  0  0
  1  2  2  0
  1  3  1  0
  1  4  1  0
  4  5  1  6
  4  7  1  0
  5  6  1  0
  7  8  1  0
  8  9  1  0
  8 10  1  0
M  END
>  <DRUGBANK_ID>  (1) 
DB02996

>  <SECONDARY_ACCESSION_NUMBERS>  (1) 
EXPT02916

>  <COMMON_NAME>  (1) 
2-(Thiomethylene)-4-Methylpentanoic Acid

$$$$
