K10
     RDKit          2D

 23 25  0  0  0  0  0  0  0  0999 V2000
    0.9702    1.0976    0.0000 N   0  0  0  0  0  0  0  0  0  0  0  0
    0.9702    0.2726    0.0000 C   0  0  0  0  0  0  0  0  0  0  0  0
    1.6847   -0.1399    0.0000 N   0  0  0  0  0  0  0  0  0  0  0  0
    1.6847   -0.9649    0.0000 C   0  0  0  0  0  0  0  0  0  0  0  0
    0.9702   -1.3774    0.0000 N   0  0  0  0  0  0  0  0  0  0  0  0
    0.2557   -0.9649    0.0000 C   0  0  0  0  0  0  0  0  0  0  0  0
    0.2557   -0.1399    0.0000 C   0  0  0  0  0  0  0  0  0  0  0  0
   -0.5289    0.1150    0.0000 C   0  0  0  0  0  0  0  0  0  0  0  0
   -1.0138   -0.5524    0.0000 N   0  0  0  0  0  0  0  0  0  0  0  0
   -0.5289   -1.2199    0.0000 N   0  0  0  0  0  0  0  0  0  0  0  0
   -0.7838   -2.0045    0.0000 C   0  0  0  0  0  0  0  0  0  0  0  0
   -1.0388   -2.7891    0.0000 C   0  0  0  0  0  0  0  0  0  0  0  0
   -1.5685   -1.7495    0.0000 C   0  0  0  0  0  0  0  0  0  0  0  0
    0.0008   -2.2594    0.0000 C   0  0  0  0  0  0  0  0  0  0  0  0
   -0.7838    0.8996    0.0000 C   0  0  0  0  0  0  0  0  0  0  0  0
   -0.2318    1.5127    0.0000 C   0  0  0  0  0  0  0  0  0  0  0  0
    0.5752    1.3412    0.0000 C   0  0  0  0  0  0  0  0  0  0  0  0
    1.1272    1.9543    0.0000 C   0  0  0  0  0  0  0  0  0  0  0  0
    0.8723    2.7389    0.0000 C   0  0  0  0  0  0  0  0  0  0  0  0
    0.0653    2.9105    0.0000 C   0  0  0  0  0  0  0  0  0  0  0  0
   -0.4867    2.2974    0.0000 C   0  0  0  0  0  0  0  0  0  0  0  0
   -1.2937    2.4689    0.0000 C   0  0  0  0  0  0  0  0  0  0  0  0
    1.9342    1.7828    0.0000 C   0  0  0  0  0  0  0  0  0  0  0  0
  1  2  1  0
  2  3  2  0
  2  7  1  0
  3  4  1  0
  4  5  2  0
  5  6  1  0
  6  7  2  0
  6 10  1  0
  7  8  1  0
  8  9  2  0
  8 15  1  0
  9 10  1  0
 10 11  1  0
 11 12  1  0
 11 13  1  0
 11 14  1  0
 15 16  1  0
 16 17  2  0
 16 21  1  0
 17 18  1  0
 18 19  2  0
 18 23  1  0
 19 20  1  0
 20 21  2  0
 21 22  1  0
M  END
>  <DRUGBANK_ID>  (1) 
DB08035

>  <COMMON_NAME>  (1) 
1-TERT-BUTYL-3-(2,5-DIMETHYLBENZYL)-1H-PYRAZOLO[3,4-D]PYRIMIDIN-4-AMINE

$$$$
