
     RDKit          2D

 21 23  0  0  1  0  0  0  0  0999 V2000
    0.0000   -0.8250    0.0000 C   0  0  0  0  0  0  0  0  0  0  0  0
    0.7145   -0.4125    0.0000 C   0  0  0  0  0  0  0  0  0  0  0  0
    0.0000    0.8250    0.0000 C   0  0  0  0  0  0  0  0  0  0  0  0
   -0.7145   -0.4125    0.0000 C   0  0  0  0  0  0  0  0  0  0  0  0
   -0.7145    0.4125    0.0000 C   0  0  0  0  0  0  0  0  0  0  0  0
    0.7145    0.4125    0.0000 C   0  0  0  0  0  0  0  0  0  0  0  0
   -1.4289   -0.8250    0.0000 C   0  0  0  0  0  0  0  0  0  0  0  0
    1.9840    0.0000    0.0000 C   0  0  0  0  0  0  0  0  0  0  0  0
    1.4991   -0.6674    0.0000 C   0  0  0  0  0  0  0  0  0  0  0  0
    1.7540   -1.4521    0.0000 C   0  0  0  0  0  0  0  0  0  0  0  0
    2.8159   -2.4081    0.0000 N   0  0  0  0  0  0  0  0  0  0  0  0
    2.2639   -3.0212    0.0000 C   0  0  0  0  0  0  0  0  0  0  0  0
    3.6229   -2.5796    0.0000 C   0  0  0  0  0  0  0  0  0  0  0  0
    2.5610   -1.6235    0.0000 C   0  0  0  0  0  0  0  0  0  0  0  0
    1.4991    0.6674    0.0000 N   0  0  0  0  0  0  0  0  0  0  0  0
   -2.1434   -0.4125    0.0000 C   0  0  0  0  0  0  0  0  0  0  0  0
   -2.8108   -0.8974    0.0000 N   0  0  0  0  0  0  0  0  0  0  0  0
   -3.4783   -0.4126    0.0000 C   0  0  0  0  0  0  0  0  0  0  0  0
   -3.2233    0.3720    0.0000 O   0  0  0  0  0  0  0  0  0  0  0  0
   -4.2629   -0.6675    0.0000 O   0  0  0  0  0  0  0  0  0  0  0  0
   -2.3983    0.3720    0.0000 C   0  0  0  0  0  0  0  0  0  0  0  0
  1  4  2  0
  2  1  1  0
  2  9  1  0
  2  6  2  0
  3  5  2  0
  4  7  1  0
  4  5  1  0
  6  3  1  0
  6 15  1  0
  9  8  2  0
  9 10  1  0
 10 14  1  0
 11 12  1  0
 11 13  1  0
 14 11  1  0
 15  8  1  0
 16  7  1  6
 16 17  1  0
 16 21  1  0
 17 18  1  0
 18 20  2  0
 18 19  1  0
 21 19  1  0
M  END
>  <DRUGBANK_ID>  (1) 
DB00315

>  <SECONDARY_ACCESSION_NUMBERS>  (1) 
APRD00376

>  <COMMON_NAME>  (1) 
Zolmitriptan

>  <CAS_NUMBER>  (1) 
139264-17-8

>  <UNII>  (1) 
2FS66TH3YW

>  <SYNONYMS>  (1) 
(S)-4-({3-[2-(dimethylamino)ethyl]-1H-indol-5-yl}methyl)-1,3-oxazolidin-2-one; 4-[[3-(2-dimethylaminoethyl)-1H-indol-5-yl]methyl]oxazolidin-2-one; Zolmitriptan; Zolmitript√°n; Zolmitriptanum

$$$$
