
     RDKit          2D

 20 22  0  0  0  0  0  0  0  0999 V2000
   -2.8579    2.4750    0.0000 C   0  0  0  0  0  0  0  0  0  0  0  0
   -2.1434    3.7125    0.0000 C   0  0  0  0  0  0  0  0  0  0  0  0
    2.1434    1.2375    0.0000 C   0  0  0  0  0  0  0  0  0  0  0  0
    2.8579    1.6500    0.0000 C   0  0  0  0  0  0  0  0  0  0  0  0
    0.7145    5.3625    0.0000 C   0  0  0  0  0  0  0  0  0  0  0  0
   -0.7145    2.8875    0.0000 C   0  0  0  0  0  0  0  0  0  0  0  0
    1.4289    1.6500    0.0000 C   0  0  0  0  0  0  0  0  0  0  0  0
    2.8579    2.4750    0.0000 C   0  0  0  0  0  0  0  0  0  0  0  0
    1.4289    4.9500    0.0000 C   0  0  0  0  0  0  0  0  0  0  0  0
   -0.0000    4.9500    0.0000 C   0  0  0  0  0  0  0  0  0  0  0  0
   -1.4289    2.4750    0.0000 C   0  0  0  0  0  0  0  0  0  0  0  0
    0.0000    2.4750    0.0000 C   0  0  0  0  0  0  0  0  0  0  0  0
    1.4289    2.4750    0.0000 C   0  0  0  0  0  0  0  0  0  0  0  0
    2.1434    2.8875    0.0000 C   0  0  0  0  0  0  0  0  0  0  0  0
    1.4289    4.1250    0.0000 C   0  0  0  0  0  0  0  0  0  0  0  0
    0.7145    3.7125    0.0000 C   0  0  0  0  0  0  0  0  0  0  0  0
   -0.0000    4.1250    0.0000 N   0  0  0  0  0  0  0  0  0  0  0  0
   -2.1434    2.8875    0.0000 N   0  0  0  0  0  0  0  0  0  0  0  0
    0.7145    2.8875    0.0000 N   0  0  0  0  0  0  0  0  0  0  0  0
    2.1434    3.7125    0.0000 S   0  0  0  0  0  0  0  0  0  0  0  0
  4  3  2  0
  7  3  1  0
  8  4  1  0
  9  5  2  0
 10  5  1  0
 11  6  1  0
 12  6  1  0
 13  7  2  0
 14  8  2  0
 14 13  1  0
 15  9  1  0
 16 15  2  0
 17 10  2  0
 17 16  1  0
 18  1  1  0
 18  2  1  0
 18 11  1  0
 19 12  1  0
 19 13  1  0
 19 16  1  0
 20 14  1  0
 20 15  1  0
M  END
>  <DRUGBANK_ID>  (1) 
DB12958

>  <COMMON_NAME>  (1) 
Prothipendyl

>  <CAS_NUMBER>  (1) 
303-69-5

>  <UNII>  (1) 
5O6VWA87VA

>  <SYNONYMS>  (1) 
Prothipendyl; Prothipendylum; Protipendilo

$$$$
