
     RDKit          2D

 24 20  0  0  0  0  0  0  0  0999 V2000
    0.2492   -0.8250    0.0000 C   0  0  0  0  0  0  0  0  0  0  0  0
   -0.4651   -1.2375    0.0000 C   0  0  0  0  0  0  0  0  0  0  0  0
   -0.4651   -2.0625    0.0000 O   0  0  0  0  0  0  0  0  0  0  0  0
   -1.1796   -0.8250    0.0000 O   0  0  0  0  0  0  0  0  0  0  0  0
    0.2492    0.0000    0.0000 C   0  0  0  0  0  0  0  0  0  0  0  0
    0.2492    0.8250    0.0000 C   0  0  0  0  0  0  0  0  0  0  0  0
   -0.4651    1.2375    0.0000 C   0  0  0  0  0  0  0  0  0  0  0  0
   -0.4651    2.0625    0.0000 O   0  0  0  0  0  0  0  0  0  0  0  0
   -1.1796    0.8250    0.0000 O   0  0  0  0  0  0  0  0  0  0  0  0
    1.0742    0.0000    0.0000 C   0  0  0  0  0  0  0  0  0  0  0  0
    1.4867    0.7144    0.0000 O   0  0  0  0  0  0  0  0  0  0  0  0
    1.4867   -0.7144    0.0000 O   0  0  0  0  0  0  0  0  0  0  0  0
   -0.5757    0.0000    0.0000 O   0  0  0  0  0  0  0  0  0  0  0  0
    5.9796    0.4760    0.0000 C   0  0  0  0  0  0  0  0  0  0  0  0
    5.5671    1.1905    0.0000 C   0  0  0  0  0  0  0  0  0  0  0  0
    5.9796    1.9049    0.0000 O   0  0  0  0  0  0  0  0  0  0  0  0
    4.7421    1.1905    0.0000 O   0  0  0  0  0  0  0  0  0  0  0  0
    6.8046    0.4760    0.0000 N   0  0  0  0  0  0  0  0  0  0  0  0
    3.2698    0.1190    0.0000 Zn  0  0  0  0  0 15  0  0  0  0  0  0
    5.9350   -1.9123    0.0000 C   0  0  0  0  0  0  0  0  0  0  0  0
    5.5225   -1.1978    0.0000 C   0  0  0  0  0  0  0  0  0  0  0  0
    5.9350   -0.4834    0.0000 O   0  0  0  0  0  0  0  0  0  0  0  0
    4.6975   -1.1978    0.0000 O   0  0  0  0  0  0  0  0  0  0  0  0
    6.7600   -1.9123    0.0000 N   0  0  0  0  0  0  0  0  0  0  0  0
  1  2  1  0
  1  5  1  0
  2  3  2  0
  2  4  1  0
  5  6  1  0
  5 10  1  0
  5 13  1  0
  6  7  1  0
  7  8  2  0
  7  9  1  0
 10 11  2  0
 10 12  1  0
 14 15  1  0
 14 18  1  0
 15 16  2  0
 15 17  1  0
 20 21  1  0
 20 24  1  0
 21 22  2  0
 21 23  1  0
M  CHG  3  17  -1  19   2  23  -1
M  END
>  <DRUGBANK_ID>  (1) 
DB15556

>  <COMMON_NAME>  (1) 
Zinc glycinate citrate

>  <CAS_NUMBER>  (1) 
955009-96-8

>  <UNII>  (1) 
H3472PJ7YA

$$$$
