2PD
     RDKit          2D

 33 36  0  0  0  0  0  0  0  0999 V2000
    1.7011    2.4219    0.0000 O   0  0  0  0  0  0  0  0  0  0  0  0
    1.1708    1.7899    0.0000 S   0  0  0  0  0  0  0  0  0  0  0  0
    0.6405    2.4219    0.0000 O   0  0  0  0  0  0  0  0  0  0  0  0
    1.8853    1.3774    0.0000 C   0  0  0  0  0  0  0  0  0  0  0  0
    2.5998    1.7899    0.0000 C   0  0  0  0  0  0  0  0  0  0  0  0
    3.3143    1.3774    0.0000 C   0  0  0  0  0  0  0  0  0  0  0  0
    4.0287    1.7899    0.0000 O   0  0  0  0  0  0  0  0  0  0  0  0
    4.7432    1.3774    0.0000 C   0  0  0  0  0  0  0  0  0  0  0  0
    3.3143    0.5524    0.0000 C   0  0  0  0  0  0  0  0  0  0  0  0
    0.4564    1.3774    0.0000 N   0  0  0  0  0  0  0  0  0  0  0  0
    0.4564    0.5524    0.0000 C   0  0  0  0  0  0  0  0  0  0  0  0
    1.1708    0.1399    0.0000 N   0  0  0  0  0  0  0  0  0  0  0  0
    1.8853    0.5524    0.0000 C   0  0  0  0  0  0  0  0  0  0  0  0
    2.5998    0.1399    0.0000 C   0  0  0  0  0  0  0  0  0  0  0  0
   -0.2581    0.1399    0.0000 C   0  0  0  0  0  0  0  0  0  0  0  0
   -0.2581   -0.6851    0.0000 C   0  0  0  0  0  0  0  0  0  0  0  0
    0.4564   -1.0976    0.0000 O   0  0  0  0  0  0  0  0  0  0  0  0
   -0.9726    0.5524    0.0000 C   0  0  0  0  0  0  0  0  0  0  0  0
   -0.9726    1.3774    0.0000 O   0  0  0  0  0  0  0  0  0  0  0  0
   -1.6870    0.1399    0.0000 N   0  0  0  0  0  0  0  0  0  0  0  0
   -2.4015    0.5524    0.0000 C   0  0  0  0  0  0  0  0  0  0  0  0
   -3.1160    0.1399    0.0000 C   0  0  0  0  0  0  0  0  0  0  0  0
   -3.8304    0.5524    0.0000 C   0  0  0  0  0  0  0  0  0  0  0  0
   -4.5449    0.1399    0.0000 C   0  0  0  0  0  0  0  0  0  0  0  0
   -3.8304    1.3774    0.0000 C   0  0  0  0  0  0  0  0  0  0  0  0
   -1.6870   -0.6851    0.0000 N   0  0  0  0  0  0  0  0  0  0  0  0
   -0.9726   -1.0976    0.0000 C   0  0  0  0  0  0  0  0  0  0  0  0
   -0.9726   -1.9226    0.0000 C   0  0  0  0  0  0  0  0  0  0  0  0
   -0.2581   -2.3351    0.0000 C   0  0  0  0  0  0  0  0  0  0  0  0
   -0.2581   -3.1601    0.0000 C   0  0  0  0  0  0  0  0  0  0  0  0
   -1.6870   -2.3351    0.0000 C   0  0  0  0  0  0  0  0  0  0  0  0
   -1.6870   -3.1601    0.0000 C   0  0  0  0  0  0  0  0  0  0  0  0
   -0.9726   -3.5726    0.0000 C   0  0  0  0  0  0  0  0  0  0  0  0
  1  2  2  0
  2  3  2  0
  2  4  1  0
  2 10  1  0
  4  5  1  0
  4 13  2  0
  5  6  2  0
  6  7  1  0
  6  9  1  0
  7  8  1  0
  9 14  2  0
 10 11  1  0
 11 12  2  0
 11 15  1  0
 12 13  1  0
 13 14  1  0
 15 16  2  0
 15 18  1  0
 16 17  1  0
 16 27  1  0
 18 19  2  0
 18 20  1  0
 20 21  1  0
 20 26  1  0
 21 22  1  0
 22 23  1  0
 23 24  1  0
 23 25  1  0
 26 27  2  0
 27 28  1  0
 28 29  2  0
 28 31  1  0
 29 30  1  0
 30 33  2  0
 31 32  2  0
 32 33  1  0
M  END
>  <DRUGBANK_ID>  (1) 
DB06974

>  <COMMON_NAME>  (1) 
5-hydroxy-4-(7-methoxy-1,1-dioxido-2H-1,2,4-benzothiadiazin-3-yl)-2-(3-methylbutyl)-6-phenylpyridazin-3(2H)-one

$$$$
