
     RDKit          2D

  5  3  0  0  0  0  0  0  0  0999 V2000
   -1.3621   -0.9905    0.0000 Ca  0  0  0  0  0 15  0  0  0  0  0  0
   -0.0409    0.9905    0.0000 O   0  0  0  0  0  0  0  0  0  0  0  0
    1.3621    0.9905    0.0000 O   0  0  0  0  0  0  0  0  0  0  0  0
    0.6189    0.5777    0.0000 C   0  0  0  0  0  0  0  0  0  0  0  0
    0.6189   -0.2473    0.0000 O   0  0  0  0  0  0  0  0  0  0  0  0
  2  4  1  0
  3  4  1  0
  4  5  2  0
M  CHG  3   1   2   2  -1   3  -1
M  END
>  <DRUGBANK_ID>  (1) 
DB06724

>  <COMMON_NAME>  (1) 
Calcium carbonate

>  <CAS_NUMBER>  (1) 
471-34-1

>  <UNII>  (1) 
H0G9379FGK

>  <SYNONYMS>  (1) 
Calcio carbonato; Calcium carbonate; Calcium carbonate (1:1); Calciumcarbonat; Carbonate de calcium; Carbonato de calcio; Carbonic acid calcium salt (1:1); Chalk; Kalziumkarbonat; Kohlensaurer kalk; Precipitated calcium carbonate

$$$$
