ChEBI
     RDKit          2D

 20 19  0  0  1  0  0  0  0  0999 V2000
   14.7400   -5.7318    0.0000 C   0  0  0  0  0  0  0  0  0  0  0  0
   14.7400   -6.5568    0.0000 C   0  0  0  0  0  0  0  0  0  0  0  0
   14.7400   -7.3818    0.0000 C   0  0  0  0  0  0  0  0  0  0  0  0
   14.7400   -8.2068    0.0000 C   0  0  0  0  0  0  0  0  0  0  0  0
   14.7400   -9.0318    0.0000 C   0  0  0  0  0  0  0  0  0  0  0  0
   14.7400   -9.8568    0.0000 C   0  0  0  0  0  0  0  0  0  0  0  0
   15.4545  -10.2693    0.0000 O   0  0  0  0  0  0  0  0  0  0  0  0
   15.4545   -5.3193    0.0000 O   0  0  0  0  0  0  0  0  0  0  0  0
   15.5650   -6.5568    0.0000 O   0  0  0  0  0  0  0  0  0  0  0  0
   13.9150   -7.3818    0.0000 O   0  0  0  0  0  0  0  0  0  0  0  0
   15.5650   -8.2068    0.0000 O   0  0  0  0  0  0  0  0  0  0  0  0
   15.5650   -9.0318    0.0000 O   0  0  0  0  0  0  0  0  0  0  0  0
   16.2874   -5.3271    0.0000 P   0  0  0  0  0  0  0  0  0  0  0  0
   17.0809   -5.3428    0.0000 O   0  0  0  0  0  0  0  0  0  0  0  0
   16.2795   -6.1600    0.0000 O   0  0  0  0  0  0  0  0  0  0  0  0
   16.2795   -4.4943    0.0000 O   0  0  0  0  0  0  0  0  0  0  0  0
   16.5073  -10.2536    0.0000 P   0  0  0  0  0  0  0  0  0  0  0  0
   17.2459  -10.2536    0.0000 O   0  0  0  0  0  0  0  0  0  0  0  0
   16.4994   -9.4207    0.0000 O   0  0  0  0  0  0  0  0  0  0  0  0
   16.4994  -10.9214    0.0000 O   0  0  0  0  0  0  0  0  0  0  0  0
  2  1  1  0
  2  9  2  0
  3  2  1  0
  3 10  1  1
  4  3  1  0
  4 11  1  1
  5  4  1  0
  5 12  1  1
  6  5  1  0
  7  6  1  0
  7 17  1  0
  8  1  1  0
  8 13  1  0
 14 13  2  0
 15 13  1  0
 16 13  1  0
 18 17  2  0
 19 17  1  0
 20 17  1  0
M  END
>  <DRUGBANK_ID>  (1) 
DB13863

>  <COMMON_NAME>  (1) 
Fosfructose

>  <CAS_NUMBER>  (1) 
488-69-7

>  <UNII>  (1) 
M7522JYX1H

>  <SYNONYMS>  (1) 
1,6-di-O-phosphono-D-fructose; D-fructose 1,6-bisphosphate; Fosfructose; Fructose 1,6-bisphosphate; Fructose 1,6-diphosphate; Fructose-1,6-diphosphate; Harden-young ester; keto-D-fructose 1,6-bisphosphate

$$$$
