295
     RDKit          2D

 21 25  0  0  1  0  0  0  0  0999 V2000
    2.3452    0.0738    0.0000 O   0  0  0  0  0  0  0  0  0  0  0  0
    2.1443   -2.0555    0.0000 O   0  0  0  0  0  0  0  0  0  0  0  0
    2.1443    2.1117    0.0000 O   0  0  0  0  0  0  0  0  0  0  0  0
    5.7533   -0.7968    0.0000 N   0  0  0  0  0  0  0  0  0  0  0  0
    3.6100   -0.3844    0.0000 C   0  0  0  0  0  0  0  0  0  0  0  0
    4.3245   -0.7968    0.0000 C   0  0  0  0  0  0  0  0  0  0  0  0
    5.0389   -0.3843    0.0000 C   0  0  0  0  0  0  0  0  0  0  0  0
    2.8955   -0.7968    0.0000 C   0  0  0  0  0  0  0  0  0  0  0  0
    4.0866    0.2205    0.0000 C   0  0  0  0  0  0  0  0  0  0  0  0
    3.6100    0.4405    0.0000 C   0  0  0  0  0  0  0  0  0  0  0  0
    5.0390    0.4404    0.0000 C   0  0  0  0  0  0  0  0  0  0  0  0
    5.2599    0.2206    0.0000 C   0  0  0  0  0  0  0  0  0  0  0  0
    4.3244    0.8530    0.0000 C   0  0  0  0  0  0  0  0  0  0  0  0
    2.8955   -1.6219    0.0000 C   0  0  0  0  0  0  0  0  0  0  0  0
    4.3245   -1.6218    0.0000 C   0  0  0  0  0  0  0  0  0  0  0  0
    2.8954    0.8530    0.0000 C   0  0  0  0  0  0  0  0  0  0  0  0
    3.6100   -2.0343    0.0000 C   0  0  0  0  0  0  0  0  0  0  0  0
    6.3444   -1.4318    0.0000 C   0  0  0  0  0  0  0  0  0  0  0  0
    4.3245    1.6779    0.0000 C   0  0  0  0  0  0  0  0  0  0  0  0
    2.8955    1.6780    0.0000 C   0  0  0  0  0  0  0  0  0  0  0  0
    3.6099    2.0903    0.0000 C   0  0  0  0  0  0  0  0  0  0  0  0
  8  1  1  6
  1 16  1  0
  3 20  1  0
  4  7  1  0
  4 12  1  0
  4 18  1  0
  5  6  1  0
  5  8  1  0
  5  9  1  1
  5 10  1  0
  6  7  1  0
  6 15  1  6
  7 11  1  1
  8 14  1  0
  9 12  1  0
 10 13  2  0
 10 16  1  0
 11 13  1  0
 13 19  1  0
 14  2  1  6
 14 17  1  0
 15 17  2  0
 16 20  2  0
 19 21  2  0
 20 21  1  0
M  END
>  <DRUGBANK_ID>  (1) 
DB00295

>  <SECONDARY_ACCESSION_NUMBERS>  (1) 
APRD00215; DB05354

>  <COMMON_NAME>  (1) 
Morphine

>  <CAS_NUMBER>  (1) 
57-27-2

>  <UNII>  (1) 
76I7G6D29C

>  <SYNONYMS>  (1) 
(−)-morphine; (5alpha,6alpha)-17-methyl-7,8-didehydro-4,5-epoxymorphinan-3,6-diol; (5alpha,6alpha)-didehydro-4,5-epoxy-17-methylmorphinan-3,6-diol; (5R,6S,9R,13S,14R)-4,5-epoxy-N-methyl-7-morphinen-3,6-diol; (5α,6α)-17-methyl-7,8-didehydro-4,5-epoxymorphinan-3,6-diol; (5α,6α)-didehydro-4,5-epoxy-17-methylmorphinan-3,6-diol; (7R,7AS,12bs)-3-methyl-2,3,4,4a,7,7a-hexahydro-1H-4,12-methano[1]benzofuro[3,2-e]isoquinoline-7,9-diol; Anhydrous morphine; Morfina; Morphia; Morphin; Morphine; Morphinum; Morphium

$$$$
