1189
     RDKit          2D

 10  9  0  0  1  0  0  0  0  0999 V2000
    3.0791    0.9760    0.0000 F   0  0  0  0  0  0  0  0  0  0  0  0
    1.6500   -0.6740    0.0000 F   0  0  0  0  0  0  0  0  0  0  0  0
    1.9520    0.4529    0.0000 F   0  0  0  0  0  0  0  0  0  0  0  0
    2.7770   -0.9760    0.0000 F   0  0  0  0  0  0  0  0  0  0  0  0
    5.2224   -0.2615    0.0000 F   0  0  0  0  0  0  0  0  0  0  0  0
    4.5080    0.9760    0.0000 F   0  0  0  0  0  0  0  0  0  0  0  0
    3.7935   -0.2615    0.0000 O   0  0  0  0  0  0  0  0  0  0  0  0
    3.0791    0.1510    0.0000 C   0  0  0  0  0  0  0  0  0  0  0  0
    2.3645   -0.2615    0.0000 C   0  0  0  0  0  0  0  0  0  0  0  0
    4.5080    0.1510    0.0000 C   0  0  0  0  0  0  0  0  0  0  0  0
  1  8  1  0
  2  9  1  0
  3  9  1  0
  4  9  1  0
  5 10  1  0
  6 10  1  0
  7  8  1  0
  7 10  1  0
  8  9  1  0
M  END
>  <DRUGBANK_ID>  (1) 
DB01189

>  <SECONDARY_ACCESSION_NUMBERS>  (1) 
APRD00907

>  <COMMON_NAME>  (1) 
Desflurane

>  <CAS_NUMBER>  (1) 
57041-67-5

>  <UNII>  (1) 
CRS35BZ94Q

>  <SYNONYMS>  (1) 
(Â±)-2-difluoromethyl 1,2,2,2-tetrafluoroethyl ether; 1,1,1,2-tetrafluoro-2-(difluoromethoxy)ethane; Desflurane; Desflurano; Desfluranum; Difluoromethyl 1,2,2,2-tetrafluoroethyl ether

$$$$
