
     RDKit          2D

 31 33  0  0  0  0  0  0  0  0999 V2000
    1.4289   -2.6813    0.0000 Cl  0  0  0  0  0  0  0  0  0  0  0  0
   -3.2704   -1.7457    0.0000 F   0  0  0  0  0  0  0  0  0  0  0  0
   -2.4454   -0.3168    0.0000 F   0  0  0  0  0  0  0  0  0  0  0  0
    0.0000   -0.2062    0.0000 O   0  0  0  0  0  0  0  0  0  0  0  0
    3.5724    2.6813    0.0000 N   0  0  0  0  0  0  0  0  0  0  0  0
    2.1434    0.2062    0.0000 N   0  0  0  0  0  0  0  0  0  0  0  0
    5.0014    2.6813    0.0000 N   0  0  0  0  0  0  0  0  0  0  0  0
    0.7144   -1.4437    0.0000 N   0  0  0  0  0  0  0  0  0  0  0  0
   -1.4290   -1.0312    0.0000 N   0  0  0  0  0  0  0  0  0  0  0  0
   -0.7144   -2.2687    0.0000 N   0  0  0  0  0  0  0  0  0  0  0  0
   -4.2869   -1.0312    0.0000 N   0  0  0  0  0  0  0  0  0  0  0  0
    2.8579    1.4437    0.0000 C   0  0  0  0  0  0  0  0  0  0  0  0
    2.8579    2.2687    0.0000 C   0  0  0  0  0  0  0  0  0  0  0  0
    3.5724    1.0312    0.0000 C   0  0  0  0  0  0  0  0  0  0  0  0
    4.2868    1.4437    0.0000 C   0  0  0  0  0  0  0  0  0  0  0  0
    4.2868    2.2687    0.0000 C   0  0  0  0  0  0  0  0  0  0  0  0
    2.1434    1.0312    0.0000 C   0  0  0  0  0  0  0  0  0  0  0  0
    2.1434    2.6813    0.0000 C   0  0  0  0  0  0  0  0  0  0  0  0
    1.4289   -0.2062    0.0000 C   0  0  0  0  0  0  0  0  0  0  0  0
    1.4289   -1.0312    0.0000 C   0  0  0  0  0  0  0  0  0  0  0  0
    0.0000   -1.0312    0.0000 C   0  0  0  0  0  0  0  0  0  0  0  0
    0.7144   -2.2687    0.0000 C   0  0  0  0  0  0  0  0  0  0  0  0
   -0.7144   -1.4437    0.0000 C   0  0  0  0  0  0  0  0  0  0  0  0
    0.0000   -2.6813    0.0000 C   0  0  0  0  0  0  0  0  0  0  0  0
   -2.1434   -1.4437    0.0000 C   0  0  0  0  0  0  0  0  0  0  0  0
   -2.8579   -1.0312    0.0000 C   0  0  0  0  0  0  0  0  0  0  0  0
   -3.5724   -0.6187    0.0000 C   0  0  0  0  0  0  0  0  0  0  0  0
   -3.5724    0.2062    0.0000 C   0  0  0  0  0  0  0  0  0  0  0  0
   -4.2869    0.6187    0.0000 C   0  0  0  0  0  0  0  0  0  0  0  0
   -5.0014   -0.6187    0.0000 C   0  0  0  0  0  0  0  0  0  0  0  0
   -5.0014    0.2062    0.0000 C   0  0  0  0  0  0  0  0  0  0  0  0
  1 22  1  0
  2 26  1  0
  3 26  1  0
  4 21  1  0
  5 13  1  0
  5 16  1  0
  6 17  1  0
  6 19  1  0
  8 20  1  0
  8 21  1  0
  8 22  1  0
  9 23  1  0
  9 25  1  0
 10 23  2  0
 10 24  1  0
 11 27  2  0
 11 30  1  0
 12 13  1  0
 12 14  1  0
 12 17  1  0
 13 18  1  0
 14 15  1  0
 15 16  1  0
 16  7  1  1
 19 20  1  0
 21 23  1  0
 22 24  2  0
 25 26  1  0
 26 27  1  0
 27 28  1  0
 28 29  2  0
 29 31  1  0
 30 31  2  0
M  END
>  <DRUGBANK_ID>  (1) 
DB07515

>  <COMMON_NAME>  (1) 
1-(2-{[(6-amino-2-methylpyridin-3-yl)methyl]amino}ethyl)-6-chloro-3-[(2,2-difluoro-2-pyridin-2-ylethyl)amino]-1,4-dihydropyrazin-2-ol

$$$$
