
     RDKit          2D

 19 20  0  0  0  0  0  0  0  0999 V2000
   -1.1579    0.5230    0.0000 C   0  0  0  0  0  0  0  0  0  0  0  0
   -1.1579   -0.3019    0.0000 C   0  0  0  0  0  0  0  0  0  0  0  0
   -0.4434   -0.7145    0.0000 C   0  0  0  0  0  0  0  0  0  0  0  0
   -0.4434    0.9356    0.0000 C   0  0  0  0  0  0  0  0  0  0  0  0
    0.2710    0.5230    0.0000 C   0  0  0  0  0  0  0  0  0  0  0  0
    0.2710   -0.3019    0.0000 C   0  0  0  0  0  0  0  0  0  0  0  0
    1.0558   -0.5569    0.0000 N   0  0  0  0  0  0  0  0  0  0  0  0
    1.5408    0.1105    0.0000 C   0  0  0  0  0  0  0  0  0  0  0  0
    1.0558    0.7780    0.0000 N   0  0  0  0  0  0  0  0  0  0  0  0
    2.3659    0.1105    0.0000 N   0  0  0  0  0  0  0  0  0  0  0  0
    2.7783    0.8251    0.0000 C   0  0  0  0  0  0  0  0  0  0  0  0
    3.6035    0.8251    0.0000 O   0  0  0  0  0  0  0  0  0  0  0  0
    2.3659    1.5395    0.0000 O   0  0  0  0  0  0  0  0  0  0  0  0
    4.0160    1.5395    0.0000 C   0  0  0  0  0  0  0  0  0  0  0  0
   -1.8724   -0.7145    0.0000 S   0  0  0  0  0  0  0  0  0  0  0  0
   -2.5870   -0.3019    0.0000 C   0  0  0  0  0  0  0  0  0  0  0  0
   -1.8724   -1.5395    0.0000 O   0  0  0  0  0  0  0  0  0  0  0  0
   -3.3014   -0.7145    0.0000 C   0  0  0  0  0  0  0  0  0  0  0  0
   -4.0160   -0.3019    0.0000 C   0  0  0  0  0  0  0  0  0  0  0  0
  1  2  2  0
  2  3  1  0
  2 15  1  0
  3  6  2  0
  4  1  1  0
  5  6  1  0
  5  4  2  0
  6  7  1  0
  7  8  2  0
  8 10  1  0
  8  9  1  0
  9  5  1  0
 10 11  1  0
 11 12  1  0
 11 13  2  0
 12 14  1  0
 15 16  1  0
 15 17  2  0
 16 18  1  0
 18 19  1  0
M  END
>  <DRUGBANK_ID>  (1) 
DB13871

>  <COMMON_NAME>  (1) 
Albendazole oxide

>  <CAS_NUMBER>  (1) 
54029-12-8

>  <UNII>  (1) 
J39B52TV34

>  <SYNONYMS>  (1) 
(Â±)-albendazole sulfoxide; Albendazole oxide; Albendazole S-oxide; Albendazole sulfoxide; Methyl 5-(propylsulfinyl)-2-benzimidazolecarbamate; Ricobendazole; Rycobendazole

$$$$
