SX5
     RDKit          2D

 25 26  0  0  0  0  0  0  0  0999 V2000
   -5.2593   -1.6334    0.0000 O   0  0  0  0  0  0  0  0  0  0  0  0
   -4.5448   -1.2209    0.0000 C   0  0  0  0  0  0  0  0  0  0  0  0
   -4.5448   -0.3959    0.0000 O   0  0  0  0  0  0  0  0  0  0  0  0
   -3.8304   -1.6334    0.0000 C   0  0  0  0  0  0  0  0  0  0  0  0
   -3.1159   -1.2209    0.0000 C   0  0  0  0  0  0  0  0  0  0  0  0
   -2.4014   -1.6334    0.0000 C   0  0  0  0  0  0  0  0  0  0  0  0
   -2.4014   -2.4584    0.0000 O   0  0  0  0  0  0  0  0  0  0  0  0
   -1.6870   -1.2209    0.0000 N   0  0  0  0  0  0  0  0  0  0  0  0
   -0.9725   -1.6334    0.0000 C   0  0  0  0  0  0  0  0  0  0  0  0
   -0.9725   -2.4584    0.0000 C   0  0  0  0  0  0  0  0  0  0  0  0
   -0.2580   -2.8709    0.0000 C   0  0  0  0  0  0  0  0  0  0  0  0
    0.4565   -2.4584    0.0000 C   0  0  0  0  0  0  0  0  0  0  0  0
    1.1709   -2.8709    0.0000 Br  0  0  0  0  0  0  0  0  0  0  0  0
    0.4565   -1.6334    0.0000 C   0  0  0  0  0  0  0  0  0  0  0  0
   -0.2580   -1.2209    0.0000 C   0  0  0  0  0  0  0  0  0  0  0  0
   -0.2580   -0.3959    0.0000 C   0  0  0  0  0  0  0  0  0  0  0  0
   -0.9725    0.0166    0.0000 O   0  0  0  0  0  0  0  0  0  0  0  0
    0.4565    0.0166    0.0000 N   0  0  0  0  0  0  0  0  0  0  0  0
    1.1709   -0.3959    0.0000 C   0  0  0  0  0  0  0  0  0  0  0  0
    1.8854    0.0166    0.0000 C   0  0  0  0  0  0  0  0  0  0  0  0
    2.5999   -0.3959    0.0000 C   0  0  0  0  0  0  0  0  0  0  0  0
    1.8854    0.8416    0.0000 C   0  0  0  0  0  0  0  0  0  0  0  0
    0.4565    0.8416    0.0000 C   0  0  0  0  0  0  0  0  0  0  0  0
    1.1709    1.2541    0.0000 C   0  0  0  0  0  0  0  0  0  0  0  0
    1.1709    2.0791    0.0000 C   0  0  0  0  0  0  0  0  0  0  0  0
  1  2  2  0
  2  3  1  0
  2  4  1  0
  5  4  1  0
  6  5  1  0
  7  6  2  0
  8  6  1  0
  9  8  1  0
 10  9  2  0
 11 10  1  0
 12 11  2  0
 12 14  1  0
 13 12  1  0
 14 15  2  0
 15  9  1  0
 15 16  1  0
 16 18  1  0
 16 17  2  0
 18 23  1  0
 19 18  1  0
 20 19  1  0
 20 22  1  0
 20 21  1  1
 22 24  1  0
 24 23  1  0
 24 25  1  1
M  END
>  <DRUGBANK_ID>  (1) 
DB08581

>  <COMMON_NAME>  (1) 
4-[(4-bromo-2-{[(3R,5S)-3,5-dimethylpiperidin-1-yl]carbonyl}phenyl)amino]-4-oxobutanoic acid

$$$$
