
     RDKit          2D

 13 12  0  0  0  0  0  0  0  0999 V2000
   -4.2717   -0.2055    0.0000 O   0  0  0  0  0  0  0  0  0  0  0  0
   -3.5563    0.2055    0.0000 C   0  0  0  0  0  0  0  0  0  0  0  0
   -2.8492   -0.2055    0.0000 O   0  0  0  0  0  0  0  0  0  0  0  0
   -2.1338    0.2055    0.0000 C   0  0  0  0  0  0  0  0  0  0  0  0
   -1.4266   -0.2055    0.0000 C   0  0  0  0  0  0  0  0  0  0  0  0
   -0.7112    0.2055    0.0000 C   0  0  0  0  0  0  0  0  0  0  0  0
    0.0041   -0.2055    0.0000 C   0  0  0  0  0  0  0  0  0  0  0  0
    0.7112    0.2055    0.0000 C   0  0  0  0  0  0  0  0  0  0  0  0
    1.4266   -0.2055    0.0000 C   0  0  0  0  0  0  0  0  0  0  0  0
    2.1338    0.2055    0.0000 C   0  0  0  0  0  0  0  0  0  0  0  0
    2.8492   -0.2055    0.0000 C   0  0  0  0  0  0  0  0  0  0  0  0
    3.5646    0.2055    0.0000 C   0  0  0  0  0  0  0  0  0  0  0  0
    4.2717   -0.2055    0.0000 C   0  0  0  0  0  0  0  0  0  0  0  0
  1  2  2  0
  2  3  1  0
  3  4  1  0
  4  5  1  0
  5  6  1  0
  6  7  1  0
  7  8  1  0
  8  9  1  0
  9 10  1  0
 10 11  1  0
 11 12  1  0
 12 13  1  0
M  END
>  <DRUGBANK_ID>  (1) 
DB07650

>  <COMMON_NAME>  (1) 
Decyl formate

>  <CAS_NUMBER>  (1) 
5451-52-5

>  <UNII>  (1) 
I3X2P7V6YF

>  <SYNONYMS>  (1) 
n-Decyl methanoate

$$$$
