
     RDKit          2D

 38 41  0  0  1  0  0  0  0  0999 V2000
   10.1235    1.2375    0.0000 C   0  0  0  0  0  0  0  0  0  0  0  0
   10.1235    0.4125    0.0000 C   0  0  0  0  0  0  0  0  0  0  0  0
   10.1235   -0.4125    0.0000 C   0  0  0  0  0  0  0  0  0  0  0  0
   10.9485    0.4125    0.0000 C   0  0  0  0  0  0  0  0  0  0  0  0
   11.3610   -0.3020    0.0000 O   0  0  0  0  0  0  0  0  0  0  0  0
   11.3610    1.1270    0.0000 O   0  0  0  0  0  0  0  0  0  0  0  0
    9.2985    0.4125    0.0000 O   0  0  0  0  0  0  0  0  0  0  0  0
    8.8860    1.1270    0.0000 C   0  0  0  0  0  0  0  0  0  0  0  0
    8.0610    1.1270    0.0000 C   0  0  0  0  0  0  0  0  0  0  0  0
    7.6485    1.8414    0.0000 C   0  0  0  0  0  0  0  0  0  0  0  0
    8.0610    2.5559    0.0000 C   0  0  0  0  0  0  0  0  0  0  0  0
    8.8860    2.5559    0.0000 C   0  0  0  0  0  0  0  0  0  0  0  0
    9.2985    1.8414    0.0000 C   0  0  0  0  0  0  0  0  0  0  0  0
   10.1235    1.8414    0.0000 Cl  0  0  0  0  0  0  0  0  0  0  0  0
    7.6485    3.2704    0.0000 C   0  0  0  0  0  0  0  0  0  0  0  0
    8.0610    3.9849    0.0000 O   0  0  0  0  0  0  0  0  0  0  0  0
    6.8235    3.2704    0.0000 N   0  0  0  0  0  0  0  0  0  0  0  0
    6.4110    3.9849    0.0000 C   0  0  0  0  0  0  0  0  0  0  0  0
    6.8235    1.8414    0.0000 O   0  0  0  0  0  0  0  0  0  0  0  0
    6.4110    1.1270    0.0000 C   0  0  0  0  0  0  0  0  0  0  0  0
    5.5860    1.1270    0.0000 C   0  0  0  0  0  0  0  0  0  0  0  0
    5.1735    0.4125    0.0000 C   0  0  0  0  0  0  0  0  0  0  0  0
    4.3485    0.4125    0.0000 N   0  0  0  0  0  0  0  0  0  0  0  0
    3.9360   -0.3020    0.0000 C   0  0  0  0  0  0  0  0  0  0  0  0
    3.1110   -0.3020    0.0000 C   0  0  0  0  0  0  0  0  0  0  0  0
    2.6985    0.4125    0.0000 C   0  0  0  0  0  0  0  0  0  0  0  0
    3.1110    1.1270    0.0000 C   0  0  0  0  0  0  0  0  0  0  0  0
    3.9360    1.1270    0.0000 C   0  0  0  0  0  0  0  0  0  0  0  0
    2.2136   -0.2549    0.0000 C   0  0  0  0  0  0  0  0  0  0  0  0
    1.4289   -0.0000    0.0000 C   0  0  0  0  0  0  0  0  0  0  0  0
    0.7145   -0.4125    0.0000 C   0  0  0  0  0  0  0  0  0  0  0  0
   -0.0000    0.0000    0.0000 C   0  0  0  0  0  0  0  0  0  0  0  0
    0.0000    0.8250    0.0000 C   0  0  0  0  0  0  0  0  0  0  0  0
    0.7145    1.2375    0.0000 C   0  0  0  0  0  0  0  0  0  0  0  0
    1.4289    0.8250    0.0000 C   0  0  0  0  0  0  0  0  0  0  0  0
    2.2136    1.0799    0.0000 O   0  0  0  0  0  0  0  0  0  0  0  0
   -0.7145   -0.4125    0.0000 Cl  0  0  0  0  0  0  0  0  0  0  0  0
    5.1735    1.8414    0.0000 O   0  0  0  0  0  0  0  0  0  0  0  0
  1  2  1  0
  2  3  1  0
  2  4  1  0
  2  7  1  0
  4  5  2  0
  4  6  1  0
  7  8  1  0
  8  9  2  0
  8 13  1  0
  9 10  1  0
 10 11  2  0
 10 19  1  0
 11 12  1  0
 11 15  1  0
 12 13  2  0
 13 14  1  0
 15 16  2  0
 15 17  1  0
 17 18  1  0
 19 20  1  0
 20 21  1  0
 21 22  1  0
 21 38  1  6
 22 23  1  0
 23 24  1  0
 23 28  1  0
 24 25  1  0
 25 26  1  0
 26 27  1  0
 26 29  1  0
 26 36  1  0
 27 28  1  0
 29 30  1  0
 30 31  1  0
 30 35  2  0
 31 32  2  0
 32 33  1  0
 32 37  1  0
 33 34  2  0
 34 35  1  0
 35 36  1  0
M  END
>  <DRUGBANK_ID>  (1) 
DB12002

>  <COMMON_NAME>  (1) 
AZD-4818

>  <CAS_NUMBER>  (1) 
1003566-93-5

>  <UNII>  (1) 
S5UP6P540K

$$$$
