OX4
     RDKit          2D

 19 20  0  0  0  0  0  0  0  0999 V2000
   -0.8227    5.0371    0.0000 O   0  0  0  0  0  0  0  0  0  0  0  0
   -0.8227    4.2121    0.0000 C   0  0  0  0  0  0  0  0  0  0  0  0
   -1.5372    3.7996    0.0000 C   0  0  0  0  0  0  0  0  0  0  0  0
   -2.2517    4.2121    0.0000 F   0  0  0  0  0  0  0  0  0  0  0  0
   -1.5372    2.9746    0.0000 C   0  0  0  0  0  0  0  0  0  0  0  0
   -0.8227    2.5621    0.0000 C   0  0  0  0  0  0  0  0  0  0  0  0
   -0.1082    2.9746    0.0000 C   0  0  0  0  0  0  0  0  0  0  0  0
   -0.1082    3.7996    0.0000 C   0  0  0  0  0  0  0  0  0  0  0  0
   -0.8227    1.7371    0.0000 C   0  0  0  0  0  0  0  0  0  0  0  0
   -1.5372    1.3246    0.0000 N   0  0  0  0  0  0  0  0  0  0  0  0
   -1.5372    0.4996    0.0000 O   0  0  0  0  0  0  0  0  0  0  0  0
   -0.8227    0.0871    0.0000 C   0  0  0  0  0  0  0  0  0  0  0  0
   -0.1082    0.4996    0.0000 O   0  0  0  0  0  0  0  0  0  0  0  0
   -0.8227   -0.7379    0.0000 C   0  0  0  0  0  0  0  0  0  0  0  0
   -0.1082   -1.1504    0.0000 C   0  0  0  0  0  0  0  0  0  0  0  0
   -0.1082   -1.9754    0.0000 C   0  0  0  0  0  0  0  0  0  0  0  0
   -0.8227   -2.3879    0.0000 C   0  0  0  0  0  0  0  0  0  0  0  0
   -1.5372   -1.9754    0.0000 C   0  0  0  0  0  0  0  0  0  0  0  0
   -1.5372   -1.1504    0.0000 C   0  0  0  0  0  0  0  0  0  0  0  0
  1  2  1  0
  2  8  2  0
  2  3  1  0
  3  5  2  0
  3  4  1  0
  5  6  1  0
  6  9  1  0
  6  7  2  0
  7  8  1  0
  9 10  2  0
 10 11  1  0
 11 12  1  0
 12 13  2  0
 12 14  1  0
 14 15  1  0
 14 19  1  0
 15 16  1  0
 16 17  1  0
 17 18  1  0
 18 19  1  0
M  END
>  <DRUGBANK_ID>  (1) 
DB08334

>  <COMMON_NAME>  (1) 
3-FLUORO-4-HYDROXYBENZALDEHYDE O-(CYCLOHEXYLCARBONYL)OXIME

$$$$
