ANH
     RDKit          2D

 30 31  0  0  0  0  0  0  0  0999 V2000
   -0.5024    0.1583    0.0000 N   0  0  0  0  0  0  0  0  0  0  0  0
   -1.3125    0.0024    0.0000 C   0  0  0  0  0  0  0  0  0  0  0  0
   -1.8526    0.6260    0.0000 C   0  0  0  0  0  0  0  0  0  0  0  0
   -1.5826   -0.7771    0.0000 C   0  0  0  0  0  0  0  0  0  0  0  0
   -2.3927   -0.9331    0.0000 O   0  0  0  0  0  0  0  0  0  0  0  0
   -1.0425   -1.4008    0.0000 O   0  0  0  0  0  0  0  0  0  0  0  0
   -1.3125   -2.1803    0.0000 C   0  0  0  0  0  0  0  0  0  0  0  0
   -2.6627    0.4701    0.0000 C   0  0  0  0  0  0  0  0  0  0  0  0
   -2.9328   -0.3094    0.0000 C   0  0  0  0  0  0  0  0  0  0  0  0
   -3.7429   -0.4653    0.0000 C   0  0  0  0  0  0  0  0  0  0  0  0
   -4.2830    0.1583    0.0000 C   0  0  0  0  0  0  0  0  0  0  0  0
   -4.0130    0.9379    0.0000 C   0  0  0  0  0  0  0  0  0  0  0  0
   -3.2028    1.0938    0.0000 C   0  0  0  0  0  0  0  0  0  0  0  0
   -4.5531    1.5615    0.0000 C   0  0  0  0  0  0  0  0  0  0  0  0
   -5.3632    1.4056    0.0000 N   0  0  0  0  0  0  0  0  0  0  0  0
   -4.2830    2.3411    0.0000 N   0  0  0  0  0  0  0  0  0  0  0  0
    0.0377   -0.4653    0.0000 C   0  0  0  0  0  0  0  0  0  0  0  0
    0.8478   -0.3094    0.0000 C   0  0  0  0  0  0  0  0  0  0  0  0
    1.3879   -0.9331    0.0000 N   0  0  0  0  0  0  0  0  0  0  0  0
   -0.2323   -1.2449    0.0000 O   0  0  0  0  0  0  0  0  0  0  0  0
    5.4386   -0.1535    0.0000 C   0  0  0  0  0  0  0  0  0  0  0  0
    4.6285   -0.3094    0.0000 C   0  0  0  0  0  0  0  0  0  0  0  0
    4.3584   -1.0890    0.0000 C   0  0  0  0  0  0  0  0  0  0  0  0
    3.5483   -1.2449    0.0000 C   0  0  0  0  0  0  0  0  0  0  0  0
    3.0082   -0.6212    0.0000 C   0  0  0  0  0  0  0  0  0  0  0  0
    3.2782    0.1583    0.0000 C   0  0  0  0  0  0  0  0  0  0  0  0
    4.0884    0.3142    0.0000 C   0  0  0  0  0  0  0  0  0  0  0  0
    2.1981   -0.7771    0.0000 S   0  0  0  0  0  0  0  0  0  0  0  0
    2.3540   -1.5873    0.0000 O   0  0  0  0  0  0  0  0  0  0  0  0
    2.0422    0.0330    0.0000 O   0  0  0  0  0  0  0  0  0  0  0  0
  1 17  1  0
  2  1  1  0
  2  3  1  6
  2  4  1  0
  3  8  1  0
  4  5  2  0
  4  6  1  0
  6  7  1  0
  8  9  2  0
  8 13  1  0
  9 10  1  0
 10 11  2  0
 11 12  1  0
 12 13  2  0
 12 14  1  0
 14 15  1  0
 14 16  2  0
 17 18  1  0
 17 20  2  0
 18 19  1  0
 19 28  1  0
 21 22  1  0
 22 23  2  0
 22 27  1  0
 23 24  1  0
 24 25  2  0
 25 26  1  0
 25 28  1  0
 26 27  2  0
 28 29  2  0
 28 30  2  0
M  END
>  <DRUGBANK_ID>  (1) 
DB01737

>  <SECONDARY_ACCESSION_NUMBERS>  (1) 
EXPT00521

>  <COMMON_NAME>  (1) 
Nalpha-(2-Naphthylsulfonylglycyl)-3-Amidino-D,L-Phenylalanine-Isopropylester

>  <CAS_NUMBER>  (1) 
133397-81-6

$$$$
