PP1
     RDKit          2D

 21 23  0  0  0  0  0  0  0  0999 V2000
    0.1264   -1.1875    0.0000 N   0  0  0  0  0  0  0  0  0  0  0  0
    2.3400   -0.9326    0.0000 C   0  0  0  0  0  0  0  0  0  0  0  0
    1.6255   -1.3451    0.0000 N   0  0  0  0  0  0  0  0  0  0  0  0
    0.9111   -0.9326    0.0000 C   0  0  0  0  0  0  0  0  0  0  0  0
    0.9111   -0.1076    0.0000 C   0  0  0  0  0  0  0  0  0  0  0  0
    1.6255    0.3049    0.0000 C   0  0  0  0  0  0  0  0  0  0  0  0
    2.3400   -0.1076    0.0000 N   0  0  0  0  0  0  0  0  0  0  0  0
   -0.3585   -0.5201    0.0000 N   0  0  0  0  0  0  0  0  0  0  0  0
    0.1264    0.1474    0.0000 C   0  0  0  0  0  0  0  0  0  0  0  0
    1.6255    1.1299    0.0000 N   0  0  0  0  0  0  0  0  0  0  0  0
   -0.1285    0.9320    0.0000 C   0  0  0  0  0  0  0  0  0  0  0  0
   -0.9355    1.1035    0.0000 C   0  0  0  0  0  0  0  0  0  0  0  0
   -1.1904    1.8882    0.0000 C   0  0  0  0  0  0  0  0  0  0  0  0
   -0.6384    2.5013    0.0000 C   0  0  0  0  0  0  0  0  0  0  0  0
    0.1686    2.3297    0.0000 C   0  0  0  0  0  0  0  0  0  0  0  0
    0.4235    1.5451    0.0000 C   0  0  0  0  0  0  0  0  0  0  0  0
   -0.8933    3.2859    0.0000 C   0  0  0  0  0  0  0  0  0  0  0  0
   -0.1285   -1.9721    0.0000 C   0  0  0  0  0  0  0  0  0  0  0  0
   -0.3834   -2.7567    0.0000 C   0  0  0  0  0  0  0  0  0  0  0  0
   -0.9131   -1.7172    0.0000 C   0  0  0  0  0  0  0  0  0  0  0  0
    0.6561   -2.2271    0.0000 C   0  0  0  0  0  0  0  0  0  0  0  0
  1  4  1  0
  1  8  1  0
  1 18  1  0
  2  3  1  0
  2  7  2  0
  3  4  2  0
  4  5  1  0
  5  6  2  0
  5  9  1  0
  6  7  1  0
  6 10  1  0
  8  9  2  0
  9 11  1  0
 11 12  2  0
 11 16  1  0
 12 13  1  0
 13 14  2  0
 14 15  1  0
 14 17  1  0
 15 16  2  0
 18 19  1  0
 18 20  1  0
 18 21  1  0
M  END
>  <DRUGBANK_ID>  (1) 
DB01809

>  <SECONDARY_ACCESSION_NUMBERS>  (1) 
EXPT02633

>  <COMMON_NAME>  (1) 
1-Ter-Butyl-3-P-Tolyl-1h-Pyrazolo[3,4-D]Pyrimidin-4-Ylamine

>  <UNII>  (1) 
SA2ND7EHY4

$$$$
