798
     RDKit          2D

 26 29  0  0  0  0  0  0  0  0999 V2000
    3.2701    0.4394    0.0000 O   0  0  0  0  0  0  0  0  0  0  0  0
    2.5556    0.0269    0.0000 C   0  0  0  0  0  0  0  0  0  0  0  0
    2.5556   -0.7981    0.0000 C   0  0  0  0  0  0  0  0  0  0  0  0
    3.2701   -1.2106    0.0000 C   0  0  0  0  0  0  0  0  0  0  0  0
    3.2701   -2.0356    0.0000 C   0  0  0  0  0  0  0  0  0  0  0  0
    2.5556   -2.4481    0.0000 C   0  0  0  0  0  0  0  0  0  0  0  0
    2.5556   -3.2731    0.0000 C   0  0  0  0  0  0  0  0  0  0  0  0
    3.2230   -3.7580    0.0000 C   0  0  0  0  0  0  0  0  0  0  0  0
    2.9681   -4.5426    0.0000 S   0  0  0  0  0  0  0  0  0  0  0  0
    2.1431   -4.5426    0.0000 C   0  0  0  0  0  0  0  0  0  0  0  0
    1.8881   -3.7580    0.0000 C   0  0  0  0  0  0  0  0  0  0  0  0
    1.8411   -2.0356    0.0000 C   0  0  0  0  0  0  0  0  0  0  0  0
    1.8411   -1.2106    0.0000 C   0  0  0  0  0  0  0  0  0  0  0  0
    1.8411    0.4394    0.0000 C   0  0  0  0  0  0  0  0  0  0  0  0
    1.8411    1.2644    0.0000 C   0  0  0  0  0  0  0  0  0  0  0  0
    1.1266    1.6769    0.0000 C   0  0  0  0  0  0  0  0  0  0  0  0
    0.4122    1.2644    0.0000 C   0  0  0  0  0  0  0  0  0  0  0  0
    0.4122    0.4394    0.0000 C   0  0  0  0  0  0  0  0  0  0  0  0
    1.1266    0.0269    0.0000 C   0  0  0  0  0  0  0  0  0  0  0  0
   -0.3023    1.6769    0.0000 O   0  0  0  0  0  0  0  0  0  0  0  0
   -1.0168    1.2644    0.0000 C   0  0  0  0  0  0  0  0  0  0  0  0
   -1.7312    1.6769    0.0000 C   0  0  0  0  0  0  0  0  0  0  0  0
   -2.4849    1.3414    0.0000 N   0  0  0  0  0  0  0  0  0  0  0  0
   -3.0369    1.9544    0.0000 C   0  0  0  0  0  0  0  0  0  0  0  0
   -2.6244    2.6689    0.0000 C   0  0  0  0  0  0  0  0  0  0  0  0
   -1.8175    2.4974    0.0000 C   0  0  0  0  0  0  0  0  0  0  0  0
  1  2  2  0
  2  3  1  0
  3  4  2  0
  4  5  1  0
  6  5  2  0
  6  7  1  0
  7  8  2  0
  8  9  1  0
 10  9  1  0
 11  7  1  0
 11 10  2  0
 12  6  1  0
 13  3  1  0
 13 12  2  0
 14  2  1  0
 14 19  1  0
 15 14  2  0
 16 15  1  0
 16 17  2  0
 17 18  1  0
 18 19  2  0
 20 17  1  0
 21 20  1  0
 22 21  1  6
 22 23  1  0
 22 26  1  0
 23 24  1  0
 24 25  1  0
 26 25  1  0
M  END
>  <DRUGBANK_ID>  (1) 
DB07237

>  <COMMON_NAME>  (1) 
{4-[(2R)-pyrrolidin-2-ylmethoxy]phenyl}(4-thiophen-3-ylphenyl)methanone

$$$$
