
     RDKit          2D

 27 28  0  0  0  0  0  0  0  0999 V2000
   -1.4561   -0.8250    0.0000 O   0  0  0  0  0  0  0  0  0  0  0  0
   -0.0272   -2.4750    0.0000 O   0  0  0  0  0  0  0  0  0  0  0  0
   -2.1707   -2.0625    0.0000 O   0  0  0  0  0  0  0  0  0  0  0  0
   -2.1707   -3.7125    0.0000 O   0  0  0  0  0  0  0  0  0  0  0  0
   -1.4561    0.0000    0.0000 O   0  0  0  0  0  0  0  0  0  0  0  0
    1.4152    2.5036    0.0000 O   0  0  0  0  0  0  0  0  0  0  0  0
    2.8851   -0.0198    0.0000 O   0  0  0  0  0  0  0  0  0  0  0  0
   -2.1707    3.7125    0.0000 O   0  0  0  0  0  0  0  0  0  0  0  0
   -2.8851    2.4750    0.0000 O   0  0  0  0  0  0  0  0  0  0  0  0
   -0.0272    0.0000    0.0000 N   0  0  0  0  0  0  0  0  0  0  0  0
    1.4248   -0.0286    0.0000 N   0  0  0  0  0  0  0  0  0  0  0  0
   -0.0272    1.6500    0.0000 N   0  0  0  0  0  0  0  0  0  0  0  0
    2.1722    1.2546    0.0000 N   0  0  0  0  0  0  0  0  0  0  0  0
   -0.7416   -1.2375    0.0000 C   0  0  0  0  0  0  0  0  0  0  0  0
   -0.7416   -2.0625    0.0000 C   0  0  0  0  0  0  0  0  0  0  0  0
   -0.0272   -0.8250    0.0000 C   0  0  0  0  0  0  0  0  0  0  0  0
   -1.4561   -2.4750    0.0000 C   0  0  0  0  0  0  0  0  0  0  0  0
    0.6872    0.4125    0.0000 C   0  0  0  0  0  0  0  0  0  0  0  0
   -0.7416    0.4125    0.0000 C   0  0  0  0  0  0  0  0  0  0  0  0
   -0.7416    1.2375    0.0000 C   0  0  0  0  0  0  0  0  0  0  0  0
    0.6872    1.2375    0.0000 C   0  0  0  0  0  0  0  0  0  0  0  0
   -1.4561   -3.3000    0.0000 C   0  0  0  0  0  0  0  0  0  0  0  0
   -1.4561    1.6500    0.0000 C   0  0  0  0  0  0  0  0  0  0  0  0
    1.4248    1.6786    0.0000 C   0  0  0  0  0  0  0  0  0  0  0  0
   -1.4561    2.4750    0.0000 C   0  0  0  0  0  0  0  0  0  0  0  0
    2.1722    0.3953    0.0000 C   0  0  0  0  0  0  0  0  0  0  0  0
   -2.1707    2.8875    0.0000 C   0  0  0  0  0  0  0  0  0  0  0  0
  4 22  1  0
  5 19  2  0
  6 24  2  0
  7 26  2  0
  8 27  1  0
  9 27  2  0
 10 16  1  0
 10 18  1  0
 10 19  1  0
 11 18  1  0
 11 26  1  0
 12 20  2  0
 12 21  1  0
 13 24  1  0
 13 26  1  0
 14  1  1  1
 14 15  1  0
 14 16  1  0
 15  2  1  6
 15 17  1  0
 17  3  1  1
 17 22  1  0
 18 21  2  0
 19 20  1  0
 20 23  1  0
 21 24  1  0
 23 25  1  0
 25 27  1  0
M  END
>  <DRUGBANK_ID>  (1) 
DB03883

>  <SECONDARY_ACCESSION_NUMBERS>  (1) 
EXPT01023

>  <COMMON_NAME>  (1) 
Carboxyethyllumazine

>  <CAS_NUMBER>  (1) 
29161-67-9

$$$$
