AM4
     RDKit          2D

 13 13  0  0  0  0  0  0  0  0999 V2000
    0.4218    0.2220    0.0000 C   0  0  0  0  0  0  0  0  0  0  0  0
    0.4218   -0.6030    0.0000 C   0  0  0  0  0  0  0  0  0  0  0  0
   -0.2927   -1.0155    0.0000 C   0  0  0  0  0  0  0  0  0  0  0  0
   -0.2927   -1.8405    0.0000 C   0  0  0  0  0  0  0  0  0  0  0  0
   -1.0071   -2.2530    0.0000 N   0  0  0  0  0  0  0  0  0  0  0  0
    0.4218   -2.2530    0.0000 N   0  0  0  0  0  0  0  0  0  0  0  0
   -1.0071   -0.6030    0.0000 C   0  0  0  0  0  0  0  0  0  0  0  0
   -1.0071    0.2220    0.0000 C   0  0  0  0  0  0  0  0  0  0  0  0
   -0.2927    0.6345    0.0000 C   0  0  0  0  0  0  0  0  0  0  0  0
   -0.2927    1.4595    0.0000 S   0  0  0  0  0  0  0  0  0  0  0  0
   -0.2927    2.2845    0.0000 C   0  0  0  0  0  0  0  0  0  0  0  0
    0.5323    1.4595    0.0000 O   0  0  0  0  0  0  0  0  0  0  0  0
   -1.1177    1.4595    0.0000 O   0  0  0  0  0  0  0  0  0  0  0  0
  1  2  2  0
  1  9  1  0
  2  3  1  0
  3  4  1  0
  3  7  2  0
  4  5  2  0
  4  6  1  0
  7  8  1  0
  8  9  2  0
  9 10  1  0
 10 11  1  0
 10 12  2  0
 10 13  2  0
M  END
>  <DRUGBANK_ID>  (1) 
DB07368

>  <COMMON_NAME>  (1) 
4-(METHYLSULFONYL)BENZENECARBOXIMIDAMIDE

$$$$
