PF8
     RDKit          2D

 29 33  0  0  0  0  0  0  0  0999 V2000
   -1.1950   -0.5617    0.0000 C   0  0  0  0  0  0  0  0  0  0  0  0
   -3.5171   -1.5537    0.0000 C   0  0  0  0  0  0  0  0  0  0  0  0
   -1.1950    1.0883    0.0000 C   0  0  0  0  0  0  0  0  0  0  0  0
    1.6629    1.0883    0.0000 C   0  0  0  0  0  0  0  0  0  0  0  0
   -1.9095    0.6758    0.0000 C   0  0  0  0  0  0  0  0  0  0  0  0
   -0.4805    0.6758    0.0000 C   0  0  0  0  0  0  0  0  0  0  0  0
    0.9484    0.6758    0.0000 C   0  0  0  0  0  0  0  0  0  0  0  0
    3.8063    0.6758    0.0000 C   0  0  0  0  0  0  0  0  0  0  0  0
    4.5208    1.9133    0.0000 C   0  0  0  0  0  0  0  0  0  0  0  0
    4.5208    1.0883    0.0000 C   0  0  0  0  0  0  0  0  0  0  0  0
    3.0918    1.0883    0.0000 C   0  0  0  0  0  0  0  0  0  0  0  0
    2.3774    0.6758    0.0000 N   0  0  0  0  0  0  0  0  0  0  0  0
    3.8063    2.3258    0.0000 C   0  0  0  0  0  0  0  0  0  0  0  0
    3.0918    1.9133    0.0000 C   0  0  0  0  0  0  0  0  0  0  0  0
    2.3774    2.3258    0.0000 C   0  0  0  0  0  0  0  0  0  0  0  0
    1.6629    1.9133    0.0000 C   0  0  0  0  0  0  0  0  0  0  0  0
    0.2339    1.0883    0.0000 O   0  0  0  0  0  0  0  0  0  0  0  0
   -0.4805   -0.1492    0.0000 C   0  0  0  0  0  0  0  0  0  0  0  0
   -1.9095   -0.1492    0.0000 C   0  0  0  0  0  0  0  0  0  0  0  0
   -2.6239   -0.5617    0.0000 C   0  0  0  0  0  0  0  0  0  0  0  0
   -2.7102   -1.3822    0.0000 C   0  0  0  0  0  0  0  0  0  0  0  0
   -3.9296   -0.8392    0.0000 N   0  0  0  0  0  0  0  0  0  0  0  0
   -3.3776   -0.2261    0.0000 N   0  0  0  0  0  0  0  0  0  0  0  0
   -2.0971   -1.9342    0.0000 C   0  0  0  0  0  0  0  0  0  0  0  0
   -2.2686   -2.7412    0.0000 C   0  0  0  0  0  0  0  0  0  0  0  0
   -1.6555   -3.2932    0.0000 C   0  0  0  0  0  0  0  0  0  0  0  0
   -0.8709   -3.0383    0.0000 N   0  0  0  0  0  0  0  0  0  0  0  0
   -0.6994   -2.2313    0.0000 C   0  0  0  0  0  0  0  0  0  0  0  0
   -1.3125   -1.6793    0.0000 C   0  0  0  0  0  0  0  0  0  0  0  0
  1 19  2  0
  2 22  1  0
  3  5  2  0
  4  7  1  0
  5 19  1  0
  6  3  1  0
  6 18  2  0
  7 17  1  0
  8 11  2  0
  9 13  1  0
  9 10  2  0
 10  8  1  0
 11 12  1  0
 12  4  2  0
 13 14  2  0
 14 11  1  0
 14 15  1  0
 15 16  2  0
 16  4  1  0
 17  6  1  0
 18  1  1  0
 19 20  1  0
 20 21  1  0
 20 23  2  0
 21  2  2  0
 23 22  1  0
 24 21  1  0
 24 29  1  0
 25 24  2  0
 26 25  1  0
 26 27  2  0
 27 28  1  0
 28 29  2  0
M  END
>  <DRUGBANK_ID>  (1) 
DB08386

>  <COMMON_NAME>  (1) 
2-{[4-(4-pyridin-4-yl-1H-pyrazol-3-yl)phenoxy]methyl}quinoline

$$$$
