
     RDKit          2D

 24 24  0  0  0  0  0  0  0  0999 V2000
   -3.2093    1.6344    0.0000 C   0  0  0  0  0  0  0  0  0  0  0  0
   -2.4960    1.2255    0.0000 C   0  0  0  0  0  0  0  0  0  0  0  0
   -1.7829    1.6385    0.0000 C   0  0  0  0  0  0  0  0  0  0  0  0
   -1.0697    1.2298    0.0000 N   0  0  0  0  0  0  0  0  0  0  0  0
   -0.3565    1.6427    0.0000 C   0  0  0  0  0  0  0  0  0  0  0  0
    0.3565    1.2340    0.0000 C   0  0  0  0  0  0  0  0  0  0  0  0
    1.0697    1.6469    0.0000 C   0  0  0  0  0  0  0  0  0  0  0  0
    1.7830    1.2381    0.0000 C   0  0  0  0  0  0  0  0  0  0  0  0
    2.4961    1.6510    0.0000 C   0  0  0  0  0  0  0  0  0  0  0  0
    3.2093    1.2423    0.0000 O   0  0  0  0  0  0  0  0  0  0  0  0
   -1.0679    0.4041    0.0000 C   0  0  0  0  0  0  0  0  0  0  0  0
   -1.7822   -0.0105    0.0000 C   0  0  0  0  0  0  0  0  0  0  0  0
   -1.7803   -0.8361    0.0000 C   0  0  0  0  0  0  0  0  0  0  0  0
   -0.3583    2.4684    0.0000 O   0  0  0  0  0  0  0  0  0  0  0  0
    0.3584    0.4081    0.0000 N   0  0  0  0  0  0  0  0  0  0  0  0
    1.0745   -0.0032    0.0000 C   0  0  0  0  0  0  0  0  0  0  0  0
    1.0763   -0.8289    0.0000 C   0  0  0  0  0  0  0  0  0  0  0  0
    1.7886    0.4113    0.0000 O   0  0  0  0  0  0  0  0  0  0  0  0
    2.4942    2.4767    0.0000 O   0  0  0  0  0  0  0  0  0  0  0  0
    0.3631   -1.2397    0.0000 C   0  0  0  0  0  0  0  0  0  0  0  0
    0.3650   -2.0656    0.0000 C   0  0  0  0  0  0  0  0  0  0  0  0
    1.0811   -2.4767    0.0000 C   0  0  0  0  0  0  0  0  0  0  0  0
    1.7953   -2.0623    0.0000 C   0  0  0  0  0  0  0  0  0  0  0  0
    1.7935   -1.2365    0.0000 C   0  0  0  0  0  0  0  0  0  0  0  0
  1  2  1  0
  2  3  1  0
  3  4  1  0
  4  5  1  0
  4 11  1  0
  5 14  2  0
  5  6  1  0
  6  7  1  0
  6 15  1  0
  7  8  1  0
  8  9  1  0
  9 19  2  0
  9 10  1  0
 11 12  1  0
 12 13  1  0
 15 16  1  0
 16 17  1  0
 16 18  2  0
 17 20  2  0
 20 21  1  0
 21 22  2  0
 22 23  1  0
 23 24  2  0
 24 17  1  0
M  END
>  <DRUGBANK_ID>  (1) 
DB13431

>  <COMMON_NAME>  (1) 
Proglumide

>  <CAS_NUMBER>  (1) 
6620-60-6

>  <UNII>  (1) 
EPL8W5565D

>  <SYNONYMS>  (1) 
proglumida; Proglumide

$$$$
