HHG
     RDKit          2D

 17 16  0  0  0  0  0  0  0  0999 V2000
   -3.5971   -0.5920    0.0000 O   0  0  0  0  0  0  0  0  0  0  0  0
   -2.8826   -0.1796    0.0000 P   0  0  0  0  0  0  0  0  0  0  0  0
   -2.4702   -0.8940    0.0000 O   0  0  0  0  0  0  0  0  0  0  0  0
   -3.2951    0.5348    0.0000 O   0  0  0  0  0  0  0  0  0  0  0  0
   -2.1682    0.2329    0.0000 O   0  0  0  0  0  0  0  0  0  0  0  0
   -1.4537   -0.1796    0.0000 C   0  0  0  0  0  0  0  0  0  0  0  0
   -0.7394    0.2329    0.0000 C   0  0  0  0  0  0  0  0  0  0  0  0
   -0.7394    1.0579    0.0000 O   0  0  0  0  0  0  0  0  0  0  0  0
   -0.0249   -0.1796    0.0000 C   0  0  0  0  0  0  0  0  0  0  0  0
    0.6896    0.2329    0.0000 O   0  0  0  0  0  0  0  0  0  0  0  0
    1.4039   -0.1796    0.0000 C   0  0  0  0  0  0  0  0  0  0  0  0
    1.4039   -1.0046    0.0000 O   0  0  0  0  0  0  0  0  0  0  0  0
    2.1184    0.2329    0.0000 C   0  0  0  0  0  0  0  0  0  0  0  0
    2.8328   -0.1796    0.0000 C   0  0  0  0  0  0  0  0  0  0  0  0
    3.5473    0.2329    0.0000 C   0  0  0  0  0  0  0  0  0  0  0  0
    4.2617   -0.1796    0.0000 C   0  0  0  0  0  0  0  0  0  0  0  0
    4.9762    0.2329    0.0000 C   0  0  0  0  0  0  0  0  0  0  0  0
  1  2  1  0
  2  3  2  0
  2  4  1  0
  2  5  1  0
  5  6  1  0
  6  7  1  0
  7  8  1  1
  7  9  1  0
  9 10  1  0
 10 11  1  0
 11 12  2  0
 11 13  1  0
 13 14  1  0
 14 15  1  0
 15 16  1  0
 16 17  1  0
M  END
>  <DRUGBANK_ID>  (1) 
DB04199

>  <SECONDARY_ACCESSION_NUMBERS>  (1) 
EXPT01744

>  <COMMON_NAME>  (1) 
1-Monohexanoyl-2-Hydroxy-Sn-Glycero-3-Phosphate

$$$$
