
     RDKit          2D

  9  8  0  0  1  0  0  0  0  0999 V2000
    1.9224    1.0164    0.0000 C   0  0  0  0  0  0  0  0  0  0  0  0
   -0.2211    1.4289    0.0000 C   0  0  0  0  0  0  0  0  0  0  0  0
   -0.9355    1.0164    0.0000 C   0  0  0  0  0  0  0  0  0  0  0  0
   -1.6500    1.4289    0.0000 C   0  0  0  0  0  0  0  0  0  0  0  0
   -0.9355    0.1914    0.0000 N   0  0  0  0  0  0  0  0  0  0  0  0
   -2.3645    1.0164    0.0000 O   0  0  0  0  0  0  0  0  0  0  0  0
   -1.6500    2.2539    0.0000 O   0  0  0  0  0  0  0  0  0  0  0  0
    1.2079    1.4289    0.0000 S   0  0  0  0  0  0  0  0  0  0  0  0
    0.4934    1.0164    0.0000 S   0  0  0  0  0  0  0  0  0  0  0  0
  3  2  1  0
  3  5  1  6
  4  3  1  0
  6  4  2  0
  7  4  1  0
  8  1  1  0
  9  2  1  0
  9  8  1  0
M  END
>  <DRUGBANK_ID>  (1) 
DB02361

>  <SECONDARY_ACCESSION_NUMBERS>  (1) 
EXPT02865

>  <COMMON_NAME>  (1) 
S-Methyl Thiocysteine Group

$$$$
