
     RDKit          2D

 25 27  0  0  0  0  0  0  0  0999 V2000
    4.3355   -1.2164    0.0000 C   0  0  0  0  0  0  0  0  0  0  0  0
    4.3613   -0.3918    0.0000 C   0  0  0  0  0  0  0  0  0  0  0  0
    3.6601    0.0428    0.0000 C   0  0  0  0  0  0  0  0  0  0  0  0
    3.5995    0.8656    0.0000 N   0  0  0  0  0  0  0  0  0  0  0  0
    2.7983    1.0622    0.0000 C   0  0  0  0  0  0  0  0  0  0  0  0
    2.3637    0.3610    0.0000 C   0  0  0  0  0  0  0  0  0  0  0  0
    2.8963   -0.2691    0.0000 N   0  0  0  0  0  0  0  0  0  0  0  0
    2.6996   -1.0703    0.0000 C   0  0  0  0  0  0  0  0  0  0  0  0
    3.2952   -1.6412    0.0000 C   0  0  0  0  0  0  0  0  0  0  0  0
    3.0986   -2.4424    0.0000 C   0  0  0  0  0  0  0  0  0  0  0  0
    3.6941   -3.0133    0.0000 C   0  0  0  0  0  0  0  0  0  0  0  0
    3.4975   -3.8145    0.0000 N   0  0  0  0  0  0  0  0  0  0  0  0
    4.0930   -4.3855    0.0000 S   0  0  0  0  0  0  0  0  0  0  0  0
    4.6886   -4.9564    0.0000 O   0  0  0  0  0  0  0  0  0  0  0  0
    4.6639   -3.7899    0.0000 O   0  0  0  0  0  0  0  0  0  0  0  0
    3.5221   -4.9810    0.0000 C   0  0  0  0  0  0  0  0  0  0  0  0
    1.5391    0.3867    0.0000 C   0  0  0  0  0  0  0  0  0  0  0  0
    1.1045   -0.3145    0.0000 C   0  0  0  0  0  0  0  0  0  0  0  0
    0.2799   -0.2887    0.0000 C   0  0  0  0  0  0  0  0  0  0  0  0
   -0.1101    0.4383    0.0000 C   0  0  0  0  0  0  0  0  0  0  0  0
    0.3245    1.1395    0.0000 C   0  0  0  0  0  0  0  0  0  0  0  0
    1.1491    1.1137    0.0000 C   0  0  0  0  0  0  0  0  0  0  0  0
    1.5837    1.8150    0.0000 N   0  0  0  0  0  0  0  0  0  0  0  0
    2.4083    1.7892    0.0000 C   0  0  0  0  0  0  0  0  0  0  0  0
    2.8429    2.4905    0.0000 N   0  0  0  0  0  0  0  0  0  0  0  0
  1  2  1  0
  2  3  1  0
  3  4  2  0
  3  7  1  0
  4  5  1  0
  5  6  2  0
  5 24  1  0
  6  7  1  0
  6 17  1  0
  7  8  1  0
  8  9  1  0
  9 10  1  0
 10 11  1  0
 11 12  1  0
 12 13  1  0
 13 14  2  0
 13 15  2  0
 13 16  1  0
 17 18  2  0
 17 22  1  0
 18 19  1  0
 19 20  2  0
 20 21  1  0
 21 22  2  0
 22 23  1  0
 23 24  2  0
 24 25  1  0
M  END
>  <DRUGBANK_ID>  (1) 
DB12476

>  <COMMON_NAME>  (1) 
CPG-52852

>  <CAS_NUMBER>  (1) 
532959-63-0

>  <UNII>  (1) 
6PJC3KPK6S

>  <SYNONYMS>  (1) 
N-[4-(4-amino-2-ethylimidazo[4,5-c]quinolin-1-yl)butyl]methanesulfonamide

$$$$
