
     RDKit          2D

 24 25  0  0  0  0  0  0  0  0999 V2000
    3.6019   -0.9059    0.0000 C   0  0  0  0  0  0  0  0  0  0  0  0
    5.7453    0.3315    0.0000 C   0  0  0  0  0  0  0  0  0  0  0  0
    4.3164   -1.3184    0.0000 C   0  0  0  0  0  0  0  0  0  0  0  0
    5.0309   -0.0809    0.0000 C   0  0  0  0  0  0  0  0  0  0  0  0
   10.7466   -2.5559    0.0000 C   0  0  0  0  0  0  0  0  0  0  0  0
    9.8407    0.8250    0.0000 C   0  0  0  0  0  0  0  0  0  0  0  0
   10.7466   -1.7309    0.0000 C   0  0  0  0  0  0  0  0  0  0  0  0
   10.0322   -2.9684    0.0000 C   0  0  0  0  0  0  0  0  0  0  0  0
    9.0157    0.8250    0.0000 C   0  0  0  0  0  0  0  0  0  0  0  0
   10.2532    0.1105    0.0000 C   0  0  0  0  0  0  0  0  0  0  0  0
   10.0322   -1.3184    0.0000 C   0  0  0  0  0  0  0  0  0  0  0  0
    9.3177   -2.5559    0.0000 C   0  0  0  0  0  0  0  0  0  0  0  0
    8.6032    0.1105    0.0000 C   0  0  0  0  0  0  0  0  0  0  0  0
    9.8407   -0.6039    0.0000 C   0  0  0  0  0  0  0  0  0  0  0  0
    5.7453   -1.3184    0.0000 C   0  0  0  0  0  0  0  0  0  0  0  0
    6.4598   -0.9059    0.0000 C   0  0  0  0  0  0  0  0  0  0  0  0
    9.3177   -1.7309    0.0000 C   0  0  0  0  0  0  0  0  0  0  0  0
    9.0157   -0.6039    0.0000 C   0  0  0  0  0  0  0  0  0  0  0  0
    7.8887   -0.9059    0.0000 C   0  0  0  0  0  0  0  0  0  0  0  0
    8.6032   -1.3184    0.0000 C   0  0  0  0  0  0  0  0  0  0  0  0
    5.0309   -0.9059    0.0000 N   0  0  0  0  0  0  0  0  0  0  0  0
    7.8887   -0.0809    0.0000 O   0  0  0  0  0  0  0  0  0  0  0  0
    8.1907   -2.0328    0.0000 O   0  0  0  0  0  0  0  0  0  0  0  0
    7.1743   -1.3184    0.0000 O   0  0  0  0  0  0  0  0  0  0  0  0
  3  1  1  0
  4  2  1  0
  7  5  2  0
  8  5  1  0
  9  6  2  0
 10  6  1  0
 11  7  1  0
 12  8  2  0
 13  9  1  0
 14 10  2  0
 16 15  1  0
 17 11  2  0
 17 12  1  0
 18 13  2  0
 18 14  1  0
 20 17  1  0
 20 18  1  0
 20 19  1  0
 21  3  1  0
 21  4  1  0
 21 15  1  0
 22 19  2  0
 23 20  1  0
 24 16  1  0
 24 19  1  0
M  END
>  <DRUGBANK_ID>  (1) 
DB09023

>  <COMMON_NAME>  (1) 
Benactyzine

>  <CAS_NUMBER>  (1) 
302-40-9

>  <UNII>  (1) 
595EG71R3F

>  <SYNONYMS>  (1) 
Benactyzine

$$$$
