
     RDKit          2D

  4  3  0  0  0  0  0  0  0  0999 V2000
    0.8250    0.0000    0.0000 I   0  0  0  0  0  0  0  0  0  0  0  0
    0.0000   -0.8250    0.0000 I   0  0  0  0  0  0  0  0  0  0  0  0
    0.0000    0.0000    0.0000 C   0  0  0  0  0  0  0  0  0  0  0  0
   -0.8250    0.0000    0.0000 I   0  0  0  0  0  0  0  0  0  0  0  0
  1  3  1  0
  3  2  1  0
  4  3  1  0
M  END
>  <DRUGBANK_ID>  (1) 
DB13813

>  <COMMON_NAME>  (1) 
Iodoform

>  <CAS_NUMBER>  (1) 
75-47-8

>  <UNII>  (1) 
KXI2J76489

>  <SYNONYMS>  (1) 
carbon triiodide; Iodoform; Jodoform; methyl triiodide; triiodomethane

$$$$
