325
     RDKit          2D

 31 34  0  0  0  0  0  0  0  0999 V2000
    0.6441    1.3343    0.0000 O   0  0  0  0  0  0  0  0  0  0  0  0
    0.0920    0.7212    0.0000 C   0  0  0  0  0  0  0  0  0  0  0  0
   -0.7149    0.8927    0.0000 C   0  0  0  0  0  0  0  0  0  0  0  0
   -1.2670    0.2797    0.0000 C   0  0  0  0  0  0  0  0  0  0  0  0
   -1.0120   -0.5050    0.0000 F   0  0  0  0  0  0  0  0  0  0  0  0
   -2.0739    0.4512    0.0000 C   0  0  0  0  0  0  0  0  0  0  0  0
   -2.6260   -0.1619    0.0000 N   0  0  0  0  0  0  0  0  0  0  0  0
   -3.4329    0.0096    0.0000 S   0  0  0  0  0  0  0  0  0  0  0  0
   -4.2399    0.1811    0.0000 C   0  0  0  0  0  0  0  0  0  0  0  0
   -4.7919   -0.4320    0.0000 C   0  0  0  0  0  0  0  0  0  0  0  0
   -3.6045   -0.7974    0.0000 O   0  0  0  0  0  0  0  0  0  0  0  0
   -3.2614    0.8166    0.0000 O   0  0  0  0  0  0  0  0  0  0  0  0
   -2.3289    1.2358    0.0000 C   0  0  0  0  0  0  0  0  0  0  0  0
   -1.7768    1.8489    0.0000 C   0  0  0  0  0  0  0  0  0  0  0  0
   -0.9699    1.6774    0.0000 C   0  0  0  0  0  0  0  0  0  0  0  0
   -0.4178    2.2905    0.0000 F   0  0  0  0  0  0  0  0  0  0  0  0
    0.3470   -0.0634    0.0000 C   0  0  0  0  0  0  0  0  0  0  0  0
    1.1316   -0.3183    0.0000 C   0  0  0  0  0  0  0  0  0  0  0  0
    1.8461    0.0942    0.0000 C   0  0  0  0  0  0  0  0  0  0  0  0
    1.1316   -1.1433    0.0000 C   0  0  0  0  0  0  0  0  0  0  0  0
    0.3470   -1.3983    0.0000 N   0  0  0  0  0  0  0  0  0  0  0  0
   -0.1379   -0.7308    0.0000 C   0  0  0  0  0  0  0  0  0  0  0  0
    1.8461   -1.5558    0.0000 N   0  0  0  0  0  0  0  0  0  0  0  0
    2.5605   -1.1433    0.0000 C   0  0  0  0  0  0  0  0  0  0  0  0
    2.5605   -0.3183    0.0000 C   0  0  0  0  0  0  0  0  0  0  0  0
    3.2750    0.0942    0.0000 C   0  0  0  0  0  0  0  0  0  0  0  0
    3.2750    0.9192    0.0000 C   0  0  0  0  0  0  0  0  0  0  0  0
    3.9895    1.3317    0.0000 N   0  0  0  0  0  0  0  0  0  0  0  0
    4.7040    0.9192    0.0000 C   0  0  0  0  0  0  0  0  0  0  0  0
    4.7040    0.0942    0.0000 C   0  0  0  0  0  0  0  0  0  0  0  0
    3.9895   -0.3183    0.0000 C   0  0  0  0  0  0  0  0  0  0  0  0
  1  2  2  0
  2  3  1  0
  2 17  1  0
  3  4  2  0
  3 15  1  0
  4  5  1  0
  4  6  1  0
  6  7  1  0
  6 13  2  0
  7  8  1  0
  8  9  1  0
  8 11  2  0
  8 12  2  0
  9 10  1  0
 13 14  1  0
 14 15  2  0
 15 16  1  0
 17 18  1  0
 17 22  2  0
 18 19  2  0
 18 20  1  0
 19 25  1  0
 20 21  1  0
 20 23  2  0
 21 22  1  0
 23 24  1  0
 24 25  2  0
 25 26  1  0
 26 27  2  0
 26 31  1  0
 27 28  1  0
 28 29  2  0
 29 30  1  0
 30 31  2  0
M  END
>  <DRUGBANK_ID>  (1) 
DB07000

>  <COMMON_NAME>  (1) 
N-{2,4-difluoro-3-[(5-pyridin-3-yl-1H-pyrrolo[2,3-b]pyridin-3-yl)carbonyl]phenyl}ethanesulfonamide

$$$$
