U15
     RDKit          2D

 28 28  0  0  0  0  0  0  0  0999 V2000
   -2.9028    2.1794    0.0000 O   0  0  0  0  0  0  0  0  0  0  0  0
   -3.1009    1.3785    0.0000 C   0  0  0  0  0  0  0  0  0  0  0  0
   -3.8936    1.1497    0.0000 O   0  0  0  0  0  0  0  0  0  0  0  0
   -4.4880    1.7217    0.0000 C   0  0  0  0  0  0  0  0  0  0  0  0
   -2.5065    0.8065    0.0000 C   0  0  0  0  0  0  0  0  0  0  0  0
   -2.7046    0.0056    0.0000 C   0  0  0  0  0  0  0  0  0  0  0  0
   -2.1101   -0.5664    0.0000 C   0  0  0  0  0  0  0  0  0  0  0  0
   -1.3175   -0.3376    0.0000 C   0  0  0  0  0  0  0  0  0  0  0  0
   -2.3083   -1.3672    0.0000 C   0  0  0  0  0  0  0  0  0  0  0  0
   -1.7138    1.0353    0.0000 N   0  0  0  0  0  0  0  0  0  0  0  0
   -1.1193    0.4633    0.0000 C   0  0  0  0  0  0  0  0  0  0  0  0
   -0.8089   -0.3011    0.0000 O   0  0  0  0  0  0  0  0  0  0  0  0
   -0.3267    0.6921    0.0000 C   0  0  0  0  0  0  0  0  0  0  0  0
   -0.1286    1.4929    0.0000 C   0  0  0  0  0  0  0  0  0  0  0  0
    0.2678    0.1201    0.0000 N   0  0  0  0  0  0  0  0  0  0  0  0
    1.0604    0.3489    0.0000 C   0  0  0  0  0  0  0  0  0  0  0  0
    1.2586    1.1497    0.0000 O   0  0  0  0  0  0  0  0  0  0  0  0
    1.6549   -0.2232    0.0000 C   0  0  0  0  0  0  0  0  0  0  0  0
    1.4567   -1.0240    0.0000 O   0  0  0  0  0  0  0  0  0  0  0  0
    2.4475    0.0056    0.0000 C   0  0  0  0  0  0  0  0  0  0  0  0
    2.6457    0.8065    0.0000 N   0  0  0  0  0  0  0  0  0  0  0  0
    3.0420   -0.5664    0.0000 C   0  0  0  0  0  0  0  0  0  0  0  0
    3.8346   -0.3376    0.0000 C   0  0  0  0  0  0  0  0  0  0  0  0
    4.4291   -0.9096    0.0000 C   0  0  0  0  0  0  0  0  0  0  0  0
    4.2309   -1.7105    0.0000 C   0  0  0  0  0  0  0  0  0  0  0  0
    4.8254   -2.2825    0.0000 C   0  0  0  0  0  0  0  0  0  0  0  0
    3.4383   -1.9393    0.0000 C   0  0  0  0  0  0  0  0  0  0  0  0
    2.8438   -1.3672    0.0000 C   0  0  0  0  0  0  0  0  0  0  0  0
  1  2  2  0
  2  3  1  0
  2  5  1  0
  3  4  1  0
  5  6  1  6
  5 10  1  0
  6  7  1  0
  7  8  1  0
  7  9  1  0
 10 11  1  0
 11 12  2  0
 11 13  1  0
 13 14  1  6
 13 15  1  0
 15 16  1  0
 16 17  2  0
 16 18  1  0
 18 19  1  6
 18 20  1  0
 20 21  1  6
 20 22  1  0
 22 23  2  0
 22 28  1  0
 23 24  1  0
 24 25  2  0
 25 26  1  0
 25 27  1  0
 27 28  2  0
M  END
>  <DRUGBANK_ID>  (1) 
DB08669

>  <COMMON_NAME>  (1) 
METHYL N-[(2S,3R)-3-AMINO-2-HYDROXY-3-(4-METHYLPHENYL)PROPANOYL]-D-ALANYL-D-LEUCINATE

$$$$
