LUM
     RDKit          2D

 18 20  0  0  0  0  0  0  0  0999 V2000
    2.1222    0.8300    0.0000 N   0  0  0  0  0  0  0  0  0  0  0  0
    2.8367    0.4175    0.0000 C   0  0  0  0  0  0  0  0  0  0  0  0
    1.4078    0.4175    0.0000 C   0  0  0  0  0  0  0  0  0  0  0  0
    3.5512    0.8300    0.0000 O   0  0  0  0  0  0  0  0  0  0  0  0
    2.8367   -0.4075    0.0000 N   0  0  0  0  0  0  0  0  0  0  0  0
    2.1222   -0.8200    0.0000 C   0  0  0  0  0  0  0  0  0  0  0  0
    2.1222   -1.6450    0.0000 O   0  0  0  0  0  0  0  0  0  0  0  0
    1.4078   -0.4075    0.0000 C   0  0  0  0  0  0  0  0  0  0  0  0
    0.6933   -0.8200    0.0000 N   0  0  0  0  0  0  0  0  0  0  0  0
   -0.0212   -0.4075    0.0000 C   0  0  0  0  0  0  0  0  0  0  0  0
   -0.7356   -0.8200    0.0000 C   0  0  0  0  0  0  0  0  0  0  0  0
   -0.0212    0.4175    0.0000 C   0  0  0  0  0  0  0  0  0  0  0  0
   -1.4501   -0.4075    0.0000 C   0  0  0  0  0  0  0  0  0  0  0  0
   -2.1646   -0.8200    0.0000 C   0  0  0  0  0  0  0  0  0  0  0  0
   -1.4501    0.4175    0.0000 C   0  0  0  0  0  0  0  0  0  0  0  0
   -2.1646    0.8300    0.0000 C   0  0  0  0  0  0  0  0  0  0  0  0
   -0.7356    0.8300    0.0000 C   0  0  0  0  0  0  0  0  0  0  0  0
    0.6933    0.8300    0.0000 N   0  0  0  0  0  0  0  0  0  0  0  0
  1  2  1  0
  1  3  1  0
  2  4  2  0
  2  5  1  0
  3  8  2  0
  3 18  1  0
  5  6  1  0
  6  7  2  0
  6  8  1  0
  8  9  1  0
  9 10  2  0
 10 11  1  0
 10 12  1  0
 11 13  2  0
 12 17  1  0
 12 18  2  0
 13 14  1  0
 13 15  1  0
 15 16  1  0
 15 17  2  0
M  END
>  <DRUGBANK_ID>  (1) 
DB04345

>  <SECONDARY_ACCESSION_NUMBERS>  (1) 
EXPT02065

>  <COMMON_NAME>  (1) 
Lumichrome

>  <CAS_NUMBER>  (1) 
1086-80-2

>  <UNII>  (1) 
99U1UDJ2HM

>  <SYNONYMS>  (1) 
7,8-dimethylalloxazine; 7,8-dimethylbenzo[g]pteridine-2,4(1H,3H)-dione; Lumichrome; Riboflavin lumichrome

$$$$
