593
     RDKit          2D

 10 10  0  0  1  0  0  0  0  0999 V2000
    4.5544   -0.6800    0.0000 O   0  0  0  0  0  0  0  0  0  0  0  0
    1.6501   -0.6800    0.0000 O   0  0  0  0  0  0  0  0  0  0  0  0
    3.1023   -0.9100    0.0000 N   0  0  0  0  0  0  0  0  0  0  0  0
    3.5148    0.3596    0.0000 C   0  0  0  0  0  0  0  0  0  0  0  0
    2.6897    0.3596    0.0000 C   0  0  0  0  0  0  0  0  0  0  0  0
    4.2994    0.6146    0.0000 C   0  0  0  0  0  0  0  0  0  0  0  0
    3.7697   -0.4251    0.0000 C   0  0  0  0  0  0  0  0  0  0  0  0
    3.5148    1.1846    0.0000 C   0  0  0  0  0  0  0  0  0  0  0  0
    2.4348   -0.4251    0.0000 C   0  0  0  0  0  0  0  0  0  0  0  0
    4.4709    1.4216    0.0000 C   0  0  0  0  0  0  0  0  0  0  0  0
  1  7  2  0
  2  9  2  0
  3  7  1  0
  3  9  1  0
  4  5  1  0
  4  6  1  0
  4  7  1  0
  4  8  1  0
  5  9  1  0
  6 10  1  0
M  END
>  <DRUGBANK_ID>  (1) 
DB00593

>  <SECONDARY_ACCESSION_NUMBERS>  (1) 
APRD00318

>  <COMMON_NAME>  (1) 
Ethosuximide

>  <CAS_NUMBER>  (1) 
77-67-8

>  <UNII>  (1) 
5SEH9X1D1D

>  <SYNONYMS>  (1) 
(±)-2-ethyl-2-methylsuccinimide; 2-ethyl-2-methylsuccinimide; 2-methyl-2-ethylsuccinimide; 3-ethyl-3-methyl-2,5-pyrrolidinedione; 3-ethyl-3-methylsuccinimide; 3-methyl-3-ethylpyrrolidine-2,5-dione; 3-methyl-3-ethylsuccinimide; Aethosuximide; Atysmal; Ethosuximid; éthosuximide; Ethosuximide; Ethosuximidum; Etosuximida; Thilopemal; α-ethyl-α-methylsuccinimide; α-methyl-α-ethylsuccinimide; γ-ethyl-γ-methyl-succinimide; γ-methyl-γ-ethyl-succinimide

$$$$
