
     RDKit          2D

 23 25  0  0  0  0  0  0  0  0999 V2000
   -2.1871   -1.3832    0.0000 C   0  0  0  0  0  0  0  0  0  0  0  0
   -2.9030   -1.7958    0.0000 C   0  0  0  0  0  0  0  0  0  0  0  0
   -2.9030   -2.6208    0.0000 C   0  0  0  0  0  0  0  0  0  0  0  0
   -2.1871   -3.0335    0.0000 C   0  0  0  0  0  0  0  0  0  0  0  0
   -1.4772   -1.7958    0.0000 C   0  0  0  0  0  0  0  0  0  0  0  0
   -1.4772   -2.6208    0.0000 C   0  0  0  0  0  0  0  0  0  0  0  0
   -0.2093   -2.2083    0.0000 C   0  0  0  0  0  0  0  0  0  0  0  0
   -0.6946   -1.5409    0.0000 C   0  0  0  0  0  0  0  0  0  0  0  0
   -0.6946   -2.8757    0.0000 N   0  0  0  0  0  0  0  0  0  0  0  0
    0.6158   -2.2083    0.0000 O   0  0  0  0  0  0  0  0  0  0  0  0
   -0.4399   -0.7583    0.0000 C   0  0  0  0  0  0  0  0  0  0  0  0
    0.3670   -0.5884    0.0000 C   0  0  0  0  0  0  0  0  0  0  0  0
    1.7018   -0.5884    0.0000 C   0  0  0  0  0  0  0  0  0  0  0  0
    1.4469    0.1941    0.0000 C   0  0  0  0  0  0  0  0  0  0  0  0
    0.6218    0.1941    0.0000 C   0  0  0  0  0  0  0  0  0  0  0  0
    1.0343   -1.0738    0.0000 N   0  0  0  0  0  0  0  0  0  0  0  0
    0.1364    0.8615    0.0000 C   0  0  0  0  0  0  0  0  0  0  0  0
    2.4843   -0.8432    0.0000 C   0  0  0  0  0  0  0  0  0  0  0  0
    1.9322    0.8615    0.0000 C   0  0  0  0  0  0  0  0  0  0  0  0
    1.5925    1.6137    0.0000 C   0  0  0  0  0  0  0  0  0  0  0  0
    2.0779    2.2812    0.0000 C   0  0  0  0  0  0  0  0  0  0  0  0
    2.9030    2.2812    0.0000 O   0  0  0  0  0  0  0  0  0  0  0  0
    1.7441    3.0335    0.0000 O   0  0  0  0  0  0  0  0  0  0  0  0
  1  2  2  0
  1  5  1  0
  2  3  1  0
  3  4  2  0
  4  6  1  0
  5  8  1  0
  5  6  2  0
  6  9  1  0
  7  9  1  0
  7  8  1  0
  7 10  2  0
  8 11  2  0
 11 12  1  0
 12 15  2  0
 12 16  1  0
 13 16  1  0
 13 14  2  0
 13 18  1  0
 14 15  1  0
 14 19  1  0
 15 17  1  0
 19 20  1  0
 20 21  1  0
 21 23  1  0
 21 22  2  0
M  END
>  <DRUGBANK_ID>  (1) 
DB12072

>  <COMMON_NAME>  (1) 
Orantinib

>  <CAS_NUMBER>  (1) 
252916-29-3

>  <UNII>  (1) 
9RL37ZZ665

>  <SYNONYMS>  (1) 
Orantinib; Orantinibum

$$$$
