
     RDKit          2D

 21 23  0  0  0  0  0  0  0  0999 V2000
   -0.6469    0.8003    0.0000 N   0  0  0  0  0  0  0  0  0  0  0  0
   -0.6469   -0.0247    0.0000 C   0  0  0  0  0  0  0  0  0  0  0  0
    0.1376    1.0552    0.0000 C   0  0  0  0  0  0  0  0  0  0  0  0
   -1.4719    0.8003    0.0000 C   0  0  0  0  0  0  0  0  0  0  0  0
    0.6226    0.3877    0.0000 C   0  0  0  0  0  0  0  0  0  0  0  0
    0.1376   -0.2796    0.0000 S   0  0  0  0  0  0  0  0  0  0  0  0
   -1.4719   -0.0247    0.0000 C   0  0  0  0  0  0  0  0  0  0  0  0
    2.1376   -1.6324    0.0000 S   0  0  0  0  0  0  0  0  0  0  0  0
    0.3926    1.8398    0.0000 C   0  0  0  0  0  0  0  0  0  0  0  0
    1.4476    0.3877    0.0000 S   0  0  0  0  0  0  0  0  0  0  0  0
   -2.0553    1.3836    0.0000 O   0  0  0  0  0  0  0  0  0  0  0  0
    1.5245   -1.0803    0.0000 C   0  0  0  0  0  0  0  0  0  0  0  0
    1.8601   -0.3267    0.0000 C   0  0  0  0  0  0  0  0  0  0  0  0
    2.0514   -2.4529    0.0000 O   0  0  0  0  0  0  0  0  0  0  0  0
   -2.0553   -0.6080    0.0000 C   0  0  0  0  0  0  0  0  0  0  0  0
   -0.1594    2.4528    0.0000 O   0  0  0  0  0  0  0  0  0  0  0  0
    2.8521   -1.2198    0.0000 C   0  0  0  0  0  0  0  0  0  0  0  0
    2.6805   -0.4129    0.0000 C   0  0  0  0  0  0  0  0  0  0  0  0
    1.1995    2.0113    0.0000 O   0  0  0  0  0  0  0  0  0  0  0  0
   -1.8417   -1.4050    0.0000 O   0  0  0  0  0  0  0  0  0  0  0  0
   -2.8521   -0.3945    0.0000 C   0  0  0  0  0  0  0  0  0  0  0  0
  2  1  1  0
  2  7  1  0
  3  1  1  0
  4  1  1  0
  5  3  2  0
  2  6  1  6
  6  5  1  0
  7  4  1  1
  8 12  1  0
  8 14  1  1
  8 17  1  0
  9  3  1  0
 10  5  1  0
 11  4  2  0
 12 13  1  0
 13 10  1  1
 15  7  1  0
 15 20  1  0
 16  9  2  0
 17 18  1  0
 18 13  1  0
 19  9  1  0
 15 21  1  6
M  CHG  2   8   1  14  -1
M  END
>  <DRUGBANK_ID>  (1) 
DB15284

>  <COMMON_NAME>  (1) 
Sulopenem

>  <CAS_NUMBER>  (1) 
120788-07-0

>  <UNII>  (1) 
XX514BJ1XW

>  <SYNONYMS>  (1) 
Sulopenem

$$$$
