
     RDKit          2D

 15 14  0  0  0  0  0  0  0  0999 V2000
    2.1453   -0.2067    0.0000 C   0  0  0  0  0  0  0  0  0  0  0  0
    1.4308    0.2057    0.0000 C   0  0  0  0  0  0  0  0  0  0  0  0
    2.1453   -1.0317    0.0000 N   0  0  0  0  0  0  0  0  0  0  0  0
    2.8597    0.2057    0.0000 C   0  0  0  0  0  0  0  0  0  0  0  0
    0.7163   -0.2067    0.0000 C   0  0  0  0  0  0  0  0  0  0  0  0
    3.5742   -0.2067    0.0000 O   0  0  0  0  0  0  0  0  0  0  0  0
    2.8597    1.0307    0.0000 O   0  0  0  0  0  0  0  0  0  0  0  0
    0.0018    0.2057    0.0000 C   0  0  0  0  0  0  0  0  0  0  0  0
   -0.7125   -0.2067    0.0000 N   0  0  0  0  0  0  0  0  0  0  0  0
   -1.4270    0.2057    0.0000 C   0  0  0  0  0  0  0  0  0  0  0  0
   -2.1415   -0.2067    0.0000 N   0  0  0  0  0  0  0  0  0  0  0  0
   -1.4270    1.0307    0.0000 N   0  0  0  0  0  0  0  0  0  0  0  0
   -2.8585    0.2067    0.0000 N   0  0  0  0  0  0  0  0  0  0  0  0
   -2.8585    1.0317    0.0000 O   0  0  0  0  0  0  0  0  0  0  0  0
   -3.5742   -0.2106    0.0000 O   0  0  0  0  0  0  0  0  0  0  0  0
  1  2  1  0
  1  3  1  1
  1  4  1  0
  2  5  1  0
  4  6  1  0
  4  7  2  0
  5  8  1  0
  8  9  1  0
  9 10  1  0
 10 11  1  0
 10 12  2  0
 11 13  1  0
 13 14  2  0
 13 15  1  0
M  CHG  2  13   1  15  -1
M  END
>  <DRUGBANK_ID>  (1) 
DB04223

>  <SECONDARY_ACCESSION_NUMBERS>  (1) 
EXPT02387

>  <COMMON_NAME>  (1) 
Nitroarginine

>  <CAS_NUMBER>  (1) 
2149-70-4

>  <UNII>  (1) 
7O8V7H6P2J

>  <SYNONYMS>  (1) 
L-NNA; N(gamma)-nitro-L-arginine; Ngamma-Nitro-L-arginine; omega-Nitroarginine

$$$$
