
     RDKit          2D

 17 19  0  0  0  0  0  0  0  0999 V2000
    0.0828   -1.6570    0.0000 N   0  0  0  0  0  0  0  0  0  0  0  0
   -0.6351   -1.2392    0.0000 C   0  0  0  0  0  0  0  0  0  0  0  0
    0.0794   -2.4820    0.0000 C   0  0  0  0  0  0  0  0  0  0  0  0
    0.8698   -1.4049    0.0000 C   0  0  0  0  0  0  0  0  0  0  0  0
   -0.6351   -0.4142    0.0000 C   0  0  0  0  0  0  0  0  0  0  0  0
   -1.3462   -1.6570    0.0000 C   0  0  0  0  0  0  0  0  0  0  0  0
   -0.6351   -2.8894    0.0000 C   0  0  0  0  0  0  0  0  0  0  0  0
    0.8630   -2.7409    0.0000 C   0  0  0  0  0  0  0  0  0  0  0  0
    1.3531   -2.0746    0.0000 N   0  0  0  0  0  0  0  0  0  0  0  0
   -1.3531   -0.0033    0.0000 C   0  0  0  0  0  0  0  0  0  0  0  0
    0.0759   -0.0033    0.0000 C   0  0  0  0  0  0  0  0  0  0  0  0
   -1.3462   -2.4820    0.0000 C   0  0  0  0  0  0  0  0  0  0  0  0
   -1.3531    0.8216    0.0000 C   0  0  0  0  0  0  0  0  0  0  0  0
    0.0794    0.8216    0.0000 C   0  0  0  0  0  0  0  0  0  0  0  0
   -0.6386    1.2359    0.0000 C   0  0  0  0  0  0  0  0  0  0  0  0
   -0.6386    2.0644    0.0000 C   0  0  0  0  0  0  0  0  0  0  0  0
   -0.6351    2.8894    0.0000 N   0  0  0  0  0  0  0  0  0  0  0  0
  1  2  1  0
  1  3  1  0
  1  4  1  0
  2  5  1  0
  2  6  1  0
  3  7  1  0
  3  8  2  0
  4  9  2  0
  5 10  2  0
  5 11  1  0
  6 12  1  0
  7 12  1  0
  8  9  1  0
 10 13  1  0
 11 14  2  0
 13 15  2  0
 14 15  1  0
 15 16  1  0
 16 17  3  0
M  END
>  <DRUGBANK_ID>  (1) 
DB16832

>  <COMMON_NAME>  (1) 
Fadrozole

>  <CAS_NUMBER>  (1) 
102676-47-1

>  <UNII>  (1) 
H3988M64PU

>  <SYNONYMS>  (1) 
Fadrozole

$$$$
