
     RDKit          2D

 23 23  0  0  0  0  0  0  0  0999 V2000
    1.6106   -2.7302    0.0000 C   0  0  0  0  0  0  0  0  0  0  0  0
    3.4815   -1.1099    0.0000 C   0  0  0  0  0  0  0  0  0  0  0  0
   10.0298   -1.1099    0.0000 C   0  0  0  0  0  0  0  0  0  0  0  0
    9.5620   -2.4601    0.0000 C   0  0  0  0  0  0  0  0  0  0  0  0
    2.3902   -3.0002    0.0000 C   0  0  0  0  0  0  0  0  0  0  0  0
    2.8579   -1.6500    0.0000 C   0  0  0  0  0  0  0  0  0  0  0  0
    5.3524    0.5104    0.0000 C   0  0  0  0  0  0  0  0  0  0  0  0
    4.7288   -0.0297    0.0000 C   0  0  0  0  0  0  0  0  0  0  0  0
    6.1320    0.2403    0.0000 C   0  0  0  0  0  0  0  0  0  0  0  0
    4.8847   -0.8399    0.0000 C   0  0  0  0  0  0  0  0  0  0  0  0
    6.2879   -0.5698    0.0000 C   0  0  0  0  0  0  0  0  0  0  0  0
    8.6266   -1.3800    0.0000 C   0  0  0  0  0  0  0  0  0  0  0  0
    4.4170   -2.1901    0.0000 C   0  0  0  0  0  0  0  0  0  0  0  0
    3.7933   -2.7302    0.0000 C   0  0  0  0  0  0  0  0  0  0  0  0
    8.0029   -1.9200    0.0000 C   0  0  0  0  0  0  0  0  0  0  0  0
    9.4061   -1.6500    0.0000 C   0  0  0  0  0  0  0  0  0  0  0  0
    5.6643   -1.1099    0.0000 C   0  0  0  0  0  0  0  0  0  0  0  0
    5.8202   -1.9200    0.0000 C   0  0  0  0  0  0  0  0  0  0  0  0
    6.5997   -2.1901    0.0000 C   0  0  0  0  0  0  0  0  0  0  0  0
    5.1965   -2.4601    0.0000 N   0  0  0  0  0  0  0  0  0  0  0  0
    3.0138   -2.4601    0.0000 N   0  0  0  0  0  0  0  0  0  0  0  0
    6.7556   -3.0002    0.0000 O   0  0  0  0  0  0  0  0  0  0  0  0
    7.2234   -1.6500    0.0000 O   0  0  0  0  0  0  0  0  0  0  0  0
  5  1  1  0
  6  2  1  0
  8  7  2  0
  9  7  1  0
 10  8  1  0
 11  9  2  0
 14 13  1  0
 15 12  1  0
 16  3  1  0
 16  4  1  0
 16 12  1  0
 17 10  2  0
 17 11  1  0
 18 17  1  0
 19 18  1  0
 20 13  1  0
 20 18  1  0
 21  5  1  0
 21  6  1  0
 21 14  1  0
 22 19  2  0
 23 15  1  0
 23 19  1  0
M  END
>  <DRUGBANK_ID>  (1) 
DB13738

>  <COMMON_NAME>  (1) 
Camylofin

>  <CAS_NUMBER>  (1) 
54-30-8

>  <UNII>  (1) 
340B6Q764V

>  <SYNONYMS>  (1) 
Camylofin

$$$$
