D28
     RDKit          2D

 24 26  0  0  0  0  0  0  0  0999 V2000
    7.6194    3.5966    0.0000 C   0  0  0  0  0  0  0  0  0  0  0  0
    7.6194    4.4216    0.0000 C   0  0  0  0  0  0  0  0  0  0  0  0
    8.2869    3.1116    0.0000 N   0  0  0  0  0  0  0  0  0  0  0  0
    6.9520    3.1116    0.0000 C   0  0  0  0  0  0  0  0  0  0  0  0
    6.9050    4.8341    0.0000 C   0  0  0  0  0  0  0  0  0  0  0  0
    8.3339    4.8341    0.0000 C   0  0  0  0  0  0  0  0  0  0  0  0
    8.0319    2.3270    0.0000 C   0  0  0  0  0  0  0  0  0  0  0  0
    7.2069    2.3270    0.0000 S   0  0  0  0  0  0  0  0  0  0  0  0
    6.9050    5.6591    0.0000 C   0  0  0  0  0  0  0  0  0  0  0  0
    8.3339    5.6591    0.0000 C   0  0  0  0  0  0  0  0  0  0  0  0
    8.5169    1.6596    0.0000 N   0  0  0  0  0  0  0  0  0  0  0  0
    7.6194    6.0716    0.0000 C   0  0  0  0  0  0  0  0  0  0  0  0
    6.1905    6.0716    0.0000 C   0  0  0  0  0  0  0  0  0  0  0  0
    8.1813    0.9059    0.0000 C   0  0  0  0  0  0  0  0  0  0  0  0
    7.6194    6.8966    0.0000 F   0  0  0  0  0  0  0  0  0  0  0  0
    8.6662    0.2385    0.0000 C   0  0  0  0  0  0  0  0  0  0  0  0
    7.3608    0.8197    0.0000 C   0  0  0  0  0  0  0  0  0  0  0  0
    8.3307   -0.5152    0.0000 C   0  0  0  0  0  0  0  0  0  0  0  0
    7.0253    0.0660    0.0000 C   0  0  0  0  0  0  0  0  0  0  0  0
    7.5102   -0.6014    0.0000 C   0  0  0  0  0  0  0  0  0  0  0  0
    8.8156   -1.1826    0.0000 O   0  0  0  0  0  0  0  0  0  0  0  0
    7.1746   -1.3551    0.0000 C   0  0  0  0  0  0  0  0  0  0  0  0
    7.6596   -2.0226    0.0000 O   0  0  0  0  0  0  0  0  0  0  0  0
    6.3541   -1.4414    0.0000 O   0  0  0  0  0  0  0  0  0  0  0  0
  1  2  1  0
  1  3  1  0
  1  4  2  0
  2  5  2  0
  2  6  1  0
  3  7  2  0
  4  8  1  0
  5  9  1  0
  6 10  2  0
  7  8  1  0
  7 11  1  0
  9 12  2  0
  9 13  1  0
 10 12  1  0
 11 14  1  0
 12 15  1  0
 14 16  2  0
 14 17  1  0
 16 18  1  0
 17 19  2  0
 18 20  2  0
 18 21  1  0
 19 20  1  0
 20 22  1  0
 22 23  1  0
 22 24  2  0
M  END
>  <DRUGBANK_ID>  (1) 
DB07616

>  <COMMON_NAME>  (1) 
4-{[4-(4-fluoro-3-methylphenyl)-1,3-thiazol-2-yl]amino}-2-hydroxybenzoic acid

$$$$
