IP7
     RDKit          2D

 32 36  0  0  0  0  0  0  0  0999 V2000
    2.2421   -2.7914    0.0000 N   0  0  0  0  0  0  0  0  0  0  0  0
    1.5276   -3.2039    0.0000 C   0  0  0  0  0  0  0  0  0  0  0  0
    1.5276   -4.0289    0.0000 N   0  0  0  0  0  0  0  0  0  0  0  0
    0.8132   -4.4414    0.0000 C   0  0  0  0  0  0  0  0  0  0  0  0
    0.0987   -4.0289    0.0000 C   0  0  0  0  0  0  0  0  0  0  0  0
    0.0987   -3.2039    0.0000 C   0  0  0  0  0  0  0  0  0  0  0  0
    0.8132   -2.7914    0.0000 C   0  0  0  0  0  0  0  0  0  0  0  0
    0.8132   -1.9664    0.0000 N   0  0  0  0  0  0  0  0  0  0  0  0
    0.0987   -1.5539    0.0000 C   0  0  0  0  0  0  0  0  0  0  0  0
    0.0987   -0.7289    0.0000 C   0  0  0  0  0  0  0  0  0  0  0  0
   -0.6158   -0.3164    0.0000 C   0  0  0  0  0  0  0  0  0  0  0  0
   -0.6158    0.5086    0.0000 C   0  0  0  0  0  0  0  0  0  0  0  0
    0.0987    0.9211    0.0000 C   0  0  0  0  0  0  0  0  0  0  0  0
    0.8132    0.5086    0.0000 C   0  0  0  0  0  0  0  0  0  0  0  0
    0.8132   -0.3164    0.0000 C   0  0  0  0  0  0  0  0  0  0  0  0
    1.5276   -0.7289    0.0000 O   0  0  0  0  0  0  0  0  0  0  0  0
    2.2421   -0.3164    0.0000 C   0  0  0  0  0  0  0  0  0  0  0  0
    2.9566   -0.7289    0.0000 C   0  0  0  0  0  0  0  0  0  0  0  0
    2.9566   -1.5539    0.0000 C   0  0  0  0  0  0  0  0  0  0  0  0
    3.6711   -1.9664    0.0000 C   0  0  0  0  0  0  0  0  0  0  0  0
    4.3855   -1.5539    0.0000 C   0  0  0  0  0  0  0  0  0  0  0  0
    4.3855   -0.7289    0.0000 C   0  0  0  0  0  0  0  0  0  0  0  0
    3.6711   -0.3164    0.0000 N   0  0  0  0  0  0  0  0  0  0  0  0
   -1.3302    0.9211    0.0000 C   0  0  0  0  0  0  0  0  0  0  0  0
   -1.3302    1.7461    0.0000 C   0  0  0  0  0  0  0  0  0  0  0  0
   -2.0447    2.1586    0.0000 C   0  0  0  0  0  0  0  0  0  0  0  0
   -2.7592    1.7461    0.0000 C   0  0  0  0  0  0  0  0  0  0  0  0
   -3.5438    2.0010    0.0000 C   0  0  0  0  0  0  0  0  0  0  0  0
   -4.0287    1.3336    0.0000 C   0  0  0  0  0  0  0  0  0  0  0  0
   -3.5438    0.6662    0.0000 N   0  0  0  0  0  0  0  0  0  0  0  0
   -2.7592    0.9211    0.0000 C   0  0  0  0  0  0  0  0  0  0  0  0
   -2.0447    0.5086    0.0000 C   0  0  0  0  0  0  0  0  0  0  0  0
  1  2  1  0
  2  3  2  0
  2  7  1  0
  3  4  1  0
  4  5  2  0
  5  6  1  0
  6  7  2  0
  7  8  1  0
  8  9  1  0
  9 10  1  0
 10 11  2  0
 10 15  1  0
 11 12  1  0
 12 24  1  0
 12 13  2  0
 13 14  1  0
 14 15  2  0
 15 16  1  0
 16 17  1  0
 17 18  1  0
 18 23  1  0
 18 19  2  0
 19 20  1  0
 20 21  2  0
 21 22  1  0
 22 23  2  0
 24 32  1  0
 24 25  2  0
 25 26  1  0
 26 27  2  0
 27 28  1  0
 27 31  1  0
 28 29  2  0
 29 30  1  0
 30 31  1  0
 31 32  2  0
M  END
>  <DRUGBANK_ID>  (1) 
DB07994

>  <COMMON_NAME>  (1) 
N~3~-[5-(1H-INDOL-6-YL)-2-(PYRIDIN-2-YLMETHOXY)BENZYL]PYRIDINE-2,3-DIAMINE

$$$$
