028
     RDKit          2D

 16 15  0  0  0  0  0  0  0  0999 V2000
   -2.1436    0.0090    0.0000 C   0  0  0  0  0  0  0  0  0  0  0  0
   -1.4000   -0.3483    0.0000 C   0  0  0  0  0  0  0  0  0  0  0  0
   -0.7187    0.1170    0.0000 C   0  0  0  0  0  0  0  0  0  0  0  0
    0.0249   -0.2404    0.0000 C   0  0  0  0  0  0  0  0  0  0  0  0
    0.7062    0.2249    0.0000 C   0  0  0  0  0  0  0  0  0  0  0  0
    1.4499   -0.1324    0.0000 C   0  0  0  0  0  0  0  0  0  0  0  0
    2.1312    0.3329    0.0000 C   0  0  0  0  0  0  0  0  0  0  0  0
    1.6659    1.0143    0.0000 P   0  0  0  0  0  0  0  0  0  0  0  0
    2.3472    1.4796    0.0000 O   0  0  0  0  0  0  0  0  0  0  0  0
    0.9846    0.5489    0.0000 O   0  0  0  0  0  0  0  0  0  0  0  0
    1.2005    1.6955    0.0000 O   0  0  0  0  0  0  0  0  0  0  0  0
    2.5966   -0.3483    0.0000 P   0  0  0  0  0  0  0  0  0  0  0  0
    3.0619   -1.0297    0.0000 O   0  0  0  0  0  0  0  0  0  0  0  0
    3.2778    0.1170    0.0000 O   0  0  0  0  0  0  0  0  0  0  0  0
    1.9152   -0.8137    0.0000 O   0  0  0  0  0  0  0  0  0  0  0  0
    2.8125    0.7983    0.0000 O   0  0  0  0  0  0  0  0  0  0  0  0
  1  2  1  0
  2  3  1  0
  3  4  1  0
  4  5  1  0
  5  6  1  0
  6  7  1  0
  7 12  1  0
  7  8  1  0
  7 16  1  0
  8  9  2  0
  8 10  1  0
  8 11  1  0
 12 15  2  0
 12 14  1  0
 12 13  1  0
M  END
>  <DRUGBANK_ID>  (1) 
DB06830

>  <COMMON_NAME>  (1) 
(1-HYDROXYHEPTANE-1,1-DIYL)BIS(PHOSPHONIC ACID)

$$$$
