
     RDKit          2D

 20 21  0  0  0  0  0  0  0  0999 V2000
    0.0808   -0.4414    0.0000 C   0  0  0  0  0  0  0  0  0  0  0  0
    0.7668   -0.8650    0.0000 C   0  0  0  0  0  0  0  0  0  0  0  0
    1.4878   -0.4545    0.0000 N   0  0  0  0  0  0  0  0  0  0  0  0
    1.4878    0.0305    0.0000 C   0  0  0  0  0  0  0  0  0  0  0  0
    2.0644   -0.7690    0.0000 C   0  0  0  0  0  0  0  0  0  0  0  0
    0.7668   -1.7040    0.0000 C   0  0  0  0  0  0  0  0  0  0  0  0
    0.0895   -2.1147    0.0000 C   0  0  0  0  0  0  0  0  0  0  0  0
   -0.6400   -1.7128    0.0000 C   0  0  0  0  0  0  0  0  0  0  0  0
   -0.6400   -0.8650    0.0000 C   0  0  0  0  0  0  0  0  0  0  0  0
    0.4916    0.1834    0.0000 C   0  0  0  0  0  0  0  0  0  0  0  0
    0.9852    0.1834    0.0000 O   0  0  0  0  0  0  0  0  0  0  0  0
    0.0501    0.8650    0.0000 O   0  0  0  0  0  0  0  0  0  0  0  0
    0.5440    1.5291    0.0000 C   0  0  0  0  0  0  0  0  0  0  0  0
    0.2250    2.1147    0.0000 C   0  0  0  0  0  0  0  0  0  0  0  0
   -0.6270   -0.0436    0.0000 C   0  0  0  0  0  0  0  0  0  0  0  0
   -0.6270    0.7733    0.0000 C   0  0  0  0  0  0  0  0  0  0  0  0
   -1.3347    1.1971    0.0000 C   0  0  0  0  0  0  0  0  0  0  0  0
   -2.0644    0.7953    0.0000 C   0  0  0  0  0  0  0  0  0  0  0  0
   -2.0644   -0.0480    0.0000 C   0  0  0  0  0  0  0  0  0  0  0  0
   -1.3566   -0.4544    0.0000 C   0  0  0  0  0  0  0  0  0  0  0  0
  1 10  1  1
  1 15  1  0
  2  1  1  0
  2  3  1  6
  4  3  1  0
  5  3  1  0
  6  2  1  0
  7  6  2  0
  7  8  1  0
  8  9  1  0
  9  1  1  0
 11 10  2  0
 12 10  1  0
 13 12  1  0
 14 13  1  0
 16 15  2  0
 17 16  1  0
 18 17  2  0
 18 19  1  0
 19 20  2  0
 20 15  1  0
M  END
>  <DRUGBANK_ID>  (1) 
DB16731

>  <COMMON_NAME>  (1) 
Dextilidine

>  <CAS_NUMBER>  (1) 
32447-90-8

>  <UNII>  (1) 
2728MV084C

>  <SYNONYMS>  (1) 
Dextilidina; Dextilidine; Dextilidinum

$$$$
