NN1
     RDKit          2D

 29 32  0  0  0  0  0  0  0  0999 V2000
   -0.7137   -3.6426    0.0000 C   0  0  0  0  0  0  0  0  0  0  0  0
    4.2030    0.0377    0.0000 C   0  0  0  0  0  0  0  0  0  0  0  0
    0.0779   -3.8748    0.0000 C   0  0  0  0  0  0  0  0  0  0  0  0
   -1.3106   -4.2121    0.0000 C   0  0  0  0  0  0  0  0  0  0  0  0
   -1.1158   -5.0138    0.0000 C   0  0  0  0  0  0  0  0  0  0  0  0
   -0.3242   -5.2460    0.0000 C   0  0  0  0  0  0  0  0  0  0  0  0
    0.6873   -0.3307    0.0000 C   0  0  0  0  0  0  0  0  0  0  0  0
    1.1367    1.2070    0.0000 C   0  0  0  0  0  0  0  0  0  0  0  0
    1.4227    0.0430    0.0000 C   0  0  0  0  0  0  0  0  0  0  0  0
    2.1583   -0.3307    0.0000 C   0  0  0  0  0  0  0  0  0  0  0  0
    2.6078    0.4596    0.0000 C   0  0  0  0  0  0  0  0  0  0  0  0
    1.8722    0.0859    0.0000 C   0  0  0  0  0  0  0  0  0  0  0  0
    0.2579   -2.8683    0.0000 C   0  0  0  0  0  0  0  0  0  0  0  0
   -0.3116   -2.2714    0.0000 C   0  0  0  0  0  0  0  0  0  0  0  0
   -0.8812   -1.6745    0.0000 C   0  0  0  0  0  0  0  0  0  0  0  0
   -0.9085   -2.8409    0.0000 O   0  0  0  0  0  0  0  0  0  0  0  0
    0.2852   -1.7019    0.0000 C   0  0  0  0  0  0  0  0  0  0  0  0
    1.0769   -1.9340    0.0000 O   0  0  0  0  0  0  0  0  0  0  0  0
    0.0905   -0.9002    0.0000 N   0  0  0  0  0  0  0  0  0  0  0  0
    1.1367    0.4596    0.0000 C   0  0  0  0  0  0  0  0  0  0  0  0
    1.8722    1.5807    0.0000 C   0  0  0  0  0  0  0  0  0  0  0  0
    1.4227    0.7904    0.0000 C   0  0  0  0  0  0  0  0  0  0  0  0
    2.6078    1.2070    0.0000 C   0  0  0  0  0  0  0  0  0  0  0  0
    3.4054    0.2487    0.0000 S   0  0  0  0  0  0  0  0  0  0  0  0
    3.1945   -0.5489    0.0000 O   0  0  0  0  0  0  0  0  0  0  0  0
    3.6164    1.0462    0.0000 O   0  0  0  0  0  0  0  0  0  0  0  0
    0.2727   -4.6764    0.0000 C   0  0  0  0  0  0  0  0  0  0  0  0
    0.6748   -3.3052    0.0000 Cl  0  0  0  0  0  0  0  0  0  0  0  0
   -0.1294   -6.0476    0.0000 F   0  0  0  0  0  0  0  0  0  0  0  0
  1 16  1  0
  1  3  2  0
  1  4  1  0
  2 24  1  0
  3 28  1  0
  3 27  1  0
  4  5  2  0
  5  6  1  0
  6 27  2  0
  6 29  1  0
  7  9  1  0
  7 19  1  1
  7 20  1  0
 21  8  1  6
 20  8  1  1
  9 10  1  6
  9 22  1  0
 10 11  1  0
 11 24  1  6
 11 12  1  0
 11 23  1  0
 12 20  1  0
 13 14  1  0
 14 16  1  0
 14 17  1  0
 14 15  1  0
 17 19  1  0
 17 18  2  0
 21 23  1  0
 21 22  1  0
 24 26  2  0
 24 25  2  0
M  END
>  <DRUGBANK_ID>  (1) 
DB08277

>  <COMMON_NAME>  (1) 
2-(2-CHLORO-4-FLUOROPHENOXY)-2-METHYL-N-[(1R,2S,3S,5S,7S)-5-(METHYLSULFONYL)-2-ADAMANTYL]PROPANAMIDE

$$$$
