TDA
     RDKit          2D

 15 14  0  0  0  0  0  0  0  0999 V2000
   -4.9362   -0.2196    0.0000 O   0  0  0  0  0  0  0  0  0  0  0  0
   -4.2216    1.0180    0.0000 O   0  0  0  0  0  0  0  0  0  0  0  0
   -4.2216    0.1929    0.0000 C   0  0  0  0  0  0  0  0  0  0  0  0
   -3.5072   -0.2196    0.0000 C   0  0  0  0  0  0  0  0  0  0  0  0
   -2.7926    0.1929    0.0000 C   0  0  0  0  0  0  0  0  0  0  0  0
   -2.0781   -0.2196    0.0000 C   0  0  0  0  0  0  0  0  0  0  0  0
   -1.3636    0.1929    0.0000 C   0  0  0  0  0  0  0  0  0  0  0  0
   -0.6490   -0.2196    0.0000 C   0  0  0  0  0  0  0  0  0  0  0  0
    0.0655    0.1929    0.0000 C   0  0  0  0  0  0  0  0  0  0  0  0
    0.7801   -0.2196    0.0000 C   0  0  0  0  0  0  0  0  0  0  0  0
    1.4945    0.1929    0.0000 C   0  0  0  0  0  0  0  0  0  0  0  0
    2.2091   -0.2196    0.0000 C   0  0  0  0  0  0  0  0  0  0  0  0
    2.9236    0.1929    0.0000 C   0  0  0  0  0  0  0  0  0  0  0  0
    3.6381   -0.2196    0.0000 C   0  0  0  0  0  0  0  0  0  0  0  0
    4.3526    0.1929    0.0000 C   0  0  0  0  0  0  0  0  0  0  0  0
  1  3  1  0
  2  3  2  0
  3  4  1  0
  4  5  1  0
  5  6  1  0
  6  7  1  0
  7  8  1  0
  8  9  1  0
  9 10  1  0
 10 11  1  0
 11 12  1  0
 12 13  1  0
 13 14  1  0
 14 15  1  0
M  END
>  <DRUGBANK_ID>  (1) 
DB02448

>  <SECONDARY_ACCESSION_NUMBERS>  (1) 
EXPT03028

>  <COMMON_NAME>  (1) 
N-Tridecanoic Acid

>  <CAS_NUMBER>  (1) 
638-53-9

>  <UNII>  (1) 
19936LIY2V

$$$$
