
     RDKit          2D

 31 35  0  0  0  0  0  0  0  0999 V2000
    2.4680    0.5475    0.0000 C   0  0  0  0  0  0  0  0  0  0  0  0
    3.2750    0.7190    0.0000 O   0  0  0  0  0  0  0  0  0  0  0  0
    1.0955    1.0744    0.0000 O   0  0  0  0  0  0  0  0  0  0  0  0
    1.9159    1.1606    0.0000 C   0  0  0  0  0  0  0  0  0  0  0  0
    2.0875    1.9675    0.0000 C   0  0  0  0  0  0  0  0  0  0  0  0
    1.3730    2.3800    0.0000 C   0  0  0  0  0  0  0  0  0  0  0  0
    0.7599    1.8281    0.0000 C   0  0  0  0  0  0  0  0  0  0  0  0
   -0.0471    1.9996    0.0000 C   0  0  0  0  0  0  0  0  0  0  0  0
   -0.8540    2.1711    0.0000 C   0  0  0  0  0  0  0  0  0  0  0  0
   -1.6610    2.3426    0.0000 C   0  0  0  0  0  0  0  0  0  0  0  0
   -2.2130    1.7295    0.0000 C   0  0  0  0  0  0  0  0  0  0  0  0
   -3.0200    1.9011    0.0000 C   0  0  0  0  0  0  0  0  0  0  0  0
   -3.2750    2.6857    0.0000 C   0  0  0  0  0  0  0  0  0  0  0  0
   -2.7229    3.2988    0.0000 C   0  0  0  0  0  0  0  0  0  0  0  0
   -1.9159    3.1273    0.0000 C   0  0  0  0  0  0  0  0  0  0  0  0
    1.7032   -3.1412    0.0000 O   0  0  0  0  0  0  0  0  0  0  0  0
    2.1881   -2.4738    0.0000 C   0  0  0  0  0  0  0  0  0  0  0  0
    1.7032   -1.8063    0.0000 C   0  0  0  0  0  0  0  0  0  0  0  0
    0.9185   -2.0613    0.0000 C   0  0  0  0  0  0  0  0  0  0  0  0
    0.9185   -2.8863    0.0000 C   0  0  0  0  0  0  0  0  0  0  0  0
    0.2041   -1.6488    0.0000 C   0  0  0  0  0  0  0  0  0  0  0  0
   -0.5104   -2.0613    0.0000 C   0  0  0  0  0  0  0  0  0  0  0  0
   -0.5104   -2.8863    0.0000 C   0  0  0  0  0  0  0  0  0  0  0  0
    0.2041   -3.2988    0.0000 C   0  0  0  0  0  0  0  0  0  0  0  0
    2.2130   -0.2371    0.0000 N   0  0  0  0  0  0  0  0  0  0  0  0
    1.4060   -0.4086    0.0000 C   0  0  0  0  0  0  0  0  0  0  0  0
    1.1511   -1.1933    0.0000 C   0  0  0  0  0  0  0  0  0  0  0  0
    2.5101   -1.6348    0.0000 C   0  0  0  0  0  0  0  0  0  0  0  0
    2.7651   -0.8502    0.0000 C   0  0  0  0  0  0  0  0  0  0  0  0
   -1.2249   -1.6488    0.0000 C   0  0  0  0  0  0  0  0  0  0  0  0
   -1.9393   -2.0613    0.0000 N   0  0  0  0  0  0  0  0  0  0  0  0
  1  2  2  0
  1  4  1  0
  1 25  1  0
  3  4  1  0
  3  7  1  0
  4  5  2  0
  5  6  1  0
  6  7  2  0
  7  8  1  0
  8  9  3  0
  9 10  1  0
 10 11  2  0
 10 15  1  0
 11 12  1  0
 12 13  2  0
 13 14  1  0
 14 15  2  0
 16 17  1  0
 16 20  1  0
 17 18  1  0
 18 19  1  0
 19 20  2  0
 21 22  2  0
 21 19  1  0
 22 23  1  0
 22 30  1  0
 23 24  2  0
 24 20  1  0
 25 26  1  0
 25 29  1  0
 26 27  1  0
 27 18  1  0
 28 29  1  0
 28 18  1  0
 30 31  1  0
M  END
>  <DRUGBANK_ID>  (1) 
DB06962

>  <COMMON_NAME>  (1) 
JNJ-27390467

>  <CAS_NUMBER>  (1) 
1025795-11-2

>  <UNII>  (1) 
B700BD3K5Y

$$$$
