
     RDKit          2D

 31 34  0  0  0  0  0  0  0  0999 V2000
   -0.0000    9.9000    0.0000 C   0  0  0  0  0  0  0  0  0  0  0  0
   -2.8579    3.3000    0.0000 C   0  0  0  0  0  0  0  0  0  0  0  0
   -2.1434    3.7125    0.0000 C   0  0  0  0  0  0  0  0  0  0  0  0
   -3.5724    3.7125    0.0000 C   0  0  0  0  0  0  0  0  0  0  0  0
    0.7145   11.9625    0.0000 C   0  0  0  0  0  0  0  0  0  0  0  0
   -0.0000   12.3750    0.0000 C   0  0  0  0  0  0  0  0  0  0  0  0
   -4.2868    7.4250    0.0000 C   0  0  0  0  0  0  0  0  0  0  0  0
   -5.0013    7.0125    0.0000 C   0  0  0  0  0  0  0  0  0  0  0  0
    0.7145   11.1375    0.0000 C   0  0  0  0  0  0  0  0  0  0  0  0
   -2.1434    4.5375    0.0000 C   0  0  0  0  0  0  0  0  0  0  0  0
   -3.5724    4.5375    0.0000 C   0  0  0  0  0  0  0  0  0  0  0  0
   -0.7145   11.9625    0.0000 C   0  0  0  0  0  0  0  0  0  0  0  0
   -3.5724    7.0125    0.0000 C   0  0  0  0  0  0  0  0  0  0  0  0
   -5.0013    6.1875    0.0000 C   0  0  0  0  0  0  0  0  0  0  0  0
   -0.7145    8.6625    0.0000 C   0  0  0  0  0  0  0  0  0  0  0  0
   -2.1434    8.6625    0.0000 C   0  0  0  0  0  0  0  0  0  0  0  0
   -0.7145    9.4875    0.0000 C   0  0  0  0  0  0  0  0  0  0  0  0
   -2.1434    9.4875    0.0000 C   0  0  0  0  0  0  0  0  0  0  0  0
   -1.4289    7.4250    0.0000 C   0  0  0  0  0  0  0  0  0  0  0  0
   -2.1434    7.0125    0.0000 C   0  0  0  0  0  0  0  0  0  0  0  0
   -1.4289   10.7250    0.0000 C   0  0  0  0  0  0  0  0  0  0  0  0
   -0.0000   10.7250    0.0000 C   0  0  0  0  0  0  0  0  0  0  0  0
   -2.8579    4.9500    0.0000 C   0  0  0  0  0  0  0  0  0  0  0  0
   -0.7145   11.1375    0.0000 C   0  0  0  0  0  0  0  0  0  0  0  0
   -3.5724    6.1875    0.0000 C   0  0  0  0  0  0  0  0  0  0  0  0
   -4.2868    5.7750    0.0000 C   0  0  0  0  0  0  0  0  0  0  0  0
   -2.8579    5.7750    0.0000 C   0  0  0  0  0  0  0  0  0  0  0  0
   -4.2868    4.9500    0.0000 Cl  0  0  0  0  0  0  0  0  0  0  0  0
   -1.4289    8.2500    0.0000 N   0  0  0  0  0  0  0  0  0  0  0  0
   -1.4289    9.9000    0.0000 N   0  0  0  0  0  0  0  0  0  0  0  0
   -2.1434    6.1875    0.0000 O   0  0  0  0  0  0  0  0  0  0  0  0
  3  2  2  0
  4  2  1  0
  6  5  2  0
  8  7  2  0
  9  5  1  0
 10  3  1  0
 11  4  2  0
 12  6  1  0
 13  7  1  0
 14  8  1  0
 17 15  1  0
 18 16  1  0
 20 19  1  0
 22  1  1  0
 22  9  2  0
 23 10  2  0
 23 11  1  0
 24 12  2  0
 24 21  1  0
 24 22  1  0
 25 13  2  0
 26 14  2  0
 26 25  1  0
 27 23  1  0
 27 25  1  0
 28 26  1  0
 29 15  1  0
 29 16  1  0
 29 19  1  0
 30 17  1  0
 30 18  1  0
 30 21  1  0
 31 20  1  0
 31 27  1  0
M  END
>  <DRUGBANK_ID>  (1) 
DB13788

>  <COMMON_NAME>  (1) 
Chlorbenzoxamine

>  <CAS_NUMBER>  (1) 
522-18-9

>  <UNII>  (1) 
N52918SLYN

>  <SYNONYMS>  (1) 
Chlorbenzoxamine

$$$$
