547
     RDKit          2D

 30 34  0  0  0  0  0  0  0  0999 V2000
    2.3376   -4.8893    0.0000 C   0  0  0  0  0  0  0  0  0  0  0  0
    1.6232   -5.3018    0.0000 N   0  0  0  0  0  0  0  0  0  0  0  0
    0.9087   -4.8893    0.0000 C   0  0  0  0  0  0  0  0  0  0  0  0
    0.9087   -4.0643    0.0000 C   0  0  0  0  0  0  0  0  0  0  0  0
    1.6232   -3.6518    0.0000 C   0  0  0  0  0  0  0  0  0  0  0  0
    2.3376   -4.0643    0.0000 C   0  0  0  0  0  0  0  0  0  0  0  0
    0.1241   -5.1443    0.0000 O   0  0  0  0  0  0  0  0  0  0  0  0
   -0.3608   -4.4768    0.0000 C   0  0  0  0  0  0  0  0  0  0  0  0
    0.1241   -3.8094    0.0000 C   0  0  0  0  0  0  0  0  0  0  0  0
   -0.1309   -3.0248    0.0000 C   0  0  0  0  0  0  0  0  0  0  0  0
   -0.9378   -2.8532    0.0000 C   0  0  0  0  0  0  0  0  0  0  0  0
   -1.1928   -2.0686    0.0000 C   0  0  0  0  0  0  0  0  0  0  0  0
   -0.6407   -1.4555    0.0000 C   0  0  0  0  0  0  0  0  0  0  0  0
    0.1662   -1.6271    0.0000 C   0  0  0  0  0  0  0  0  0  0  0  0
    0.4212   -2.4117    0.0000 C   0  0  0  0  0  0  0  0  0  0  0  0
   -1.1858   -4.4768    0.0000 C   0  0  0  0  0  0  0  0  0  0  0  0
   -1.5983   -5.1913    0.0000 C   0  0  0  0  0  0  0  0  0  0  0  0
   -2.4233   -5.1913    0.0000 C   0  0  0  0  0  0  0  0  0  0  0  0
   -2.8358   -4.4768    0.0000 C   0  0  0  0  0  0  0  0  0  0  0  0
   -2.4233   -3.7624    0.0000 C   0  0  0  0  0  0  0  0  0  0  0  0
   -1.5983   -3.7624    0.0000 C   0  0  0  0  0  0  0  0  0  0  0  0
    1.6232   -2.8268    0.0000 N   0  0  0  0  0  0  0  0  0  0  0  0
    0.9087   -2.4143    0.0000 C   0  0  0  0  0  0  0  0  0  0  0  0
    0.9087   -1.5893    0.0000 C   0  0  0  0  0  0  0  0  0  0  0  0
    1.6232   -1.1768    0.0000 N   0  0  0  0  0  0  0  0  0  0  0  0
    2.3376   -1.5893    0.0000 C   0  0  0  0  0  0  0  0  0  0  0  0
    3.0521   -1.1768    0.0000 C   0  0  0  0  0  0  0  0  0  0  0  0
    3.0521   -0.3518    0.0000 N   0  0  0  0  0  0  0  0  0  0  0  0
    2.3376    0.0607    0.0000 C   0  0  0  0  0  0  0  0  0  0  0  0
    1.6232   -0.3518    0.0000 C   0  0  0  0  0  0  0  0  0  0  0  0
  1  2  2  0
  1  6  1  0
  2  3  1  0
  3  7  1  0
  3  4  2  0
  4  9  1  0
  4  5  1  0
  5  6  2  0
  5 22  1  0
  7  8  1  0
  8 16  1  0
  8  9  2  0
  9 10  1  0
 10 11  2  0
 10 15  1  0
 11 12  1  0
 12 13  2  0
 13 14  1  0
 14 15  2  0
 16 17  2  0
 16 21  1  0
 17 18  1  0
 18 19  2  0
 19 20  1  0
 20 21  2  0
 22 23  1  0
 23 24  1  0
 24 25  1  0
 25 30  1  0
 25 26  1  0
 26 27  1  0
 27 28  1  0
 28 29  1  0
 29 30  1  0
M  END
>  <DRUGBANK_ID>  (1) 
DB07146

>  <COMMON_NAME>  (1) 
2,3-DIPHENYL-N-(2-PIPERAZIN-1-YLETHYL)FURO[2,3-B]PYRIDIN-4-AMINE

$$$$
