B23
     RDKit          2D

 17 18  0  0  0  0  0  0  0  0999 V2000
   -1.4031    2.5399    0.0000 O   0  0  0  0  0  0  0  0  0  0  0  0
   -0.6887    2.1274    0.0000 C   0  0  0  0  0  0  0  0  0  0  0  0
    0.0258    2.5399    0.0000 O   0  0  0  0  0  0  0  0  0  0  0  0
   -0.6887    1.3024    0.0000 C   0  0  0  0  0  0  0  0  0  0  0  0
   -0.0212    0.8174    0.0000 O   0  0  0  0  0  0  0  0  0  0  0  0
   -1.3561    0.8174    0.0000 C   0  0  0  0  0  0  0  0  0  0  0  0
   -1.1012    0.0328    0.0000 C   0  0  0  0  0  0  0  0  0  0  0  0
   -0.2762    0.0328    0.0000 C   0  0  0  0  0  0  0  0  0  0  0  0
    0.2088   -0.6346    0.0000 C   0  0  0  0  0  0  0  0  0  0  0  0
    1.0293   -0.5484    0.0000 C   0  0  0  0  0  0  0  0  0  0  0  0
    1.5142   -1.2158    0.0000 C   0  0  0  0  0  0  0  0  0  0  0  0
    1.1786   -1.9695    0.0000 C   0  0  0  0  0  0  0  0  0  0  0  0
    0.3581   -2.0557    0.0000 C   0  0  0  0  0  0  0  0  0  0  0  0
   -0.1268   -1.3883    0.0000 C   0  0  0  0  0  0  0  0  0  0  0  0
   -0.9473   -1.4745    0.0000 N   0  0  0  0  0  0  0  0  0  0  0  0
   -1.2828   -2.2282    0.0000 O   0  0  0  0  0  0  0  0  0  0  0  0
   -1.4322   -0.8071    0.0000 O   0  0  0  0  0  0  0  0  0  0  0  0
  1  2  1  0
  2  3  2  0
  2  4  1  0
  4  5  1  0
  4  6  2  0
  5  8  1  0
  6  7  1  0
  7  8  2  0
  8  9  1  0
  9 10  2  0
  9 14  1  0
 10 11  1  0
 11 12  2  0
 12 13  1  0
 13 14  2  0
 14 15  1  0
 15 16  1  0
 15 17  2  0
M  CHG  2  15   1  16  -1
M  END
>  <DRUGBANK_ID>  (1) 
DB07408

>  <COMMON_NAME>  (1) 
5-(2-NITROPHENYL)-2-FUROIC ACID

>  <UNII>  (1) 
GAR5WG9DZJ

$$$$
