J5Z
     RDKit          2D

 21 23  0  0  0  0  0  0  0  0999 V2000
   -0.9435   -0.2209    0.0000 C   0  0  0  0  0  0  0  0  0  0  0  0
    0.4854   -0.2209    0.0000 N   0  0  0  0  0  0  0  0  0  0  0  0
   -0.2290   -0.6334    0.0000 C   0  0  0  0  0  0  0  0  0  0  0  0
   -0.2290    1.0166    0.0000 N   0  0  0  0  0  0  0  0  0  0  0  0
   -0.2290   -1.4584    0.0000 C   0  0  0  0  0  0  0  0  0  0  0  0
   -1.0136    0.7617    0.0000 N   0  0  0  0  0  0  0  0  0  0  0  0
   -0.9435   -1.8709    0.0000 C   0  0  0  0  0  0  0  0  0  0  0  0
   -1.0136    2.0966    0.0000 N   0  0  0  0  0  0  0  0  0  0  0  0
    0.4854    2.2541    0.0000 N   0  0  0  0  0  0  0  0  0  0  0  0
   -2.3724   -1.8709    0.0000 C   0  0  0  0  0  0  0  0  0  0  0  0
   -1.6580   -1.4584    0.0000 C   0  0  0  0  0  0  0  0  0  0  0  0
   -1.6580   -0.6334    0.0000 C   0  0  0  0  0  0  0  0  0  0  0  0
    0.4854    0.6041    0.0000 C   0  0  0  0  0  0  0  0  0  0  0  0
    1.1999    1.0166    0.0000 C   0  0  0  0  0  0  0  0  0  0  0  0
    1.1999    1.8416    0.0000 C   0  0  0  0  0  0  0  0  0  0  0  0
    1.9144    2.2541    0.0000 C   0  0  0  0  0  0  0  0  0  0  0  0
   -0.2290    1.8416    0.0000 C   0  0  0  0  0  0  0  0  0  0  0  0
   -1.4986    1.4291    0.0000 C   0  0  0  0  0  0  0  0  0  0  0  0
   -3.0869   -2.2834    0.0000 F   0  0  0  0  0  0  0  0  0  0  0  0
   -1.9599   -2.5854    0.0000 F   0  0  0  0  0  0  0  0  0  0  0  0
   -2.7849   -1.1564    0.0000 F   0  0  0  0  0  0  0  0  0  0  0  0
  1  3  2  0
  2 13  1  0
  3  2  1  0
  4 17  1  0
  5  3  1  0
  6  4  1  0
  6 18  2  0
  7  5  2  0
  8 17  2  0
 10 11  1  0
 10 21  1  0
 11  7  1  0
 11 12  2  0
 12  1  1  0
 13  4  1  0
 13 14  2  0
 14 15  1  0
 15  9  2  0
 15 16  1  0
 17  9  1  0
 18  8  1  0
 19 10  1  0
 20 10  1  0
M  END
>  <DRUGBANK_ID>  (1) 
DB08008

>  <COMMON_NAME>  (1) 
5-methyl-N-[4-(trifluoromethyl)phenyl][1,2,4]triazolo[1,5-a]pyrimidin-7-amine

>  <UNII>  (1) 
A94AKH2DCP

$$$$
