
     RDKit          2D

  3  3  0  0  0  0  0  0  0  0999 V2000
    0.0000    0.3572    0.0000 C   0  0  0  0  0  0  0  0  0  0  0  0
    0.4125   -0.3572    0.0000 C   0  0  0  0  0  0  0  0  0  0  0  0
   -0.4125   -0.3572    0.0000 C   0  0  0  0  0  0  0  0  0  0  0  0
  1  2  1  0
  1  3  1  0
  2  3  1  0
M  END
>  <DRUGBANK_ID>  (1) 
DB13984

>  <COMMON_NAME>  (1) 
Cyclopropane

>  <CAS_NUMBER>  (1) 
75-19-4

>  <UNII>  (1) 
99TB643425

>  <SYNONYMS>  (1) 
Ciclopropano; Cyclopropan; Cyclopropane; Cyclopropanum; Trimethylene; Zyklopropan

$$$$
