GK5
     RDKit          2D

 26 29  0  0  0  0  0  0  0  0999 V2000
   -1.5505    0.8584    0.0000 C   0  0  0  0  0  0  0  0  0  0  0  0
    2.4343    4.4604    0.0000 C   0  0  0  0  0  0  0  0  0  0  0  0
    2.8468    3.7459    0.0000 C   0  0  0  0  0  0  0  0  0  0  0  0
    2.0218    3.7459    0.0000 C   0  0  0  0  0  0  0  0  0  0  0  0
   -1.9630   -4.8060    0.0000 C   0  0  0  0  0  0  0  0  0  0  0  0
   -2.3755   -4.0916    0.0000 C   0  0  0  0  0  0  0  0  0  0  0  0
   -1.5505   -4.0916    0.0000 C   0  0  0  0  0  0  0  0  0  0  0  0
   -0.8361    1.2709    0.0000 C   0  0  0  0  0  0  0  0  0  0  0  0
   -0.8361    2.0959    0.0000 C   0  0  0  0  0  0  0  0  0  0  0  0
   -0.1216    2.5084    0.0000 C   0  0  0  0  0  0  0  0  0  0  0  0
    0.5929    2.0959    0.0000 C   0  0  0  0  0  0  0  0  0  0  0  0
    1.3073    2.5084    0.0000 C   0  0  0  0  0  0  0  0  0  0  0  0
    2.0218    2.0959    0.0000 O   0  0  0  0  0  0  0  0  0  0  0  0
    1.3073    3.3334    0.0000 N   0  0  0  0  0  0  0  0  0  0  0  0
    0.5929    1.2709    0.0000 C   0  0  0  0  0  0  0  0  0  0  0  0
   -0.1216    0.8584    0.0000 C   0  0  0  0  0  0  0  0  0  0  0  0
   -0.1216    0.0334    0.0000 C   0  0  0  0  0  0  0  0  0  0  0  0
    0.5929   -0.3791    0.0000 C   0  0  0  0  0  0  0  0  0  0  0  0
    0.5929   -1.2041    0.0000 C   0  0  0  0  0  0  0  0  0  0  0  0
   -0.1216   -1.6166    0.0000 C   0  0  0  0  0  0  0  0  0  0  0  0
   -0.8361   -1.2041    0.0000 C   0  0  0  0  0  0  0  0  0  0  0  0
   -0.8361   -0.3791    0.0000 C   0  0  0  0  0  0  0  0  0  0  0  0
   -0.1216   -2.4416    0.0000 C   0  0  0  0  0  0  0  0  0  0  0  0
    0.5929   -2.8541    0.0000 O   0  0  0  0  0  0  0  0  0  0  0  0
   -0.8361   -2.8541    0.0000 N   0  0  0  0  0  0  0  0  0  0  0  0
   -0.8361   -3.6791    0.0000 C   0  0  0  0  0  0  0  0  0  0  0  0
  1  8  1  0
  2  3  1  0
  2  4  1  0
  3  4  1  0
  4 14  1  0
  5  6  1  0
  5  7  1  0
  6  7  1  0
  7 26  1  0
  8  9  2  0
  8 16  1  0
  9 10  1  0
 10 11  2  0
 11 12  1  0
 11 15  1  0
 12 13  2  0
 12 14  1  0
 15 16  2  0
 16 17  1  0
 17 18  2  0
 17 22  1  0
 18 19  1  0
 19 20  2  0
 20 21  1  0
 20 23  1  0
 21 22  2  0
 23 24  2  0
 23 25  1  0
 25 26  1  0
M  END
>  <DRUGBANK_ID>  (1) 
DB07835

>  <COMMON_NAME>  (1) 
N~3~-cyclopropyl-N~4~'-(cyclopropylmethyl)-6-methylbiphenyl-3,4'-dicarboxamide

>  <UNII>  (1) 
ATH2GHG7LR

$$$$
