
     RDKit          2D

 33 35  0  0  1  0  0  0  0  0999 V2000
   -8.5737   -4.9499    0.0000 N   0  0  0  0  0  0  0  0  0  0  0  0
   -7.8592   -4.5375    0.0000 C   0  0  0  0  0  0  0  0  0  0  0  0
   -7.8592   -3.7125    0.0000 C   0  0  0  0  0  0  0  0  0  0  0  0
   -7.1447   -3.3000    0.0000 C   0  0  0  0  0  0  0  0  0  0  0  0
   -6.4302   -3.7125    0.0000 C   0  0  0  0  0  0  0  0  0  0  0  0
   -6.4302   -4.5375    0.0000 C   0  0  0  0  0  0  0  0  0  0  0  0
   -7.1447   -4.9499    0.0000 C   0  0  0  0  0  0  0  0  0  0  0  0
   -5.7158   -3.3000    0.0000 C   0  0  0  0  0  0  0  0  0  0  0  0
   -5.7158   -2.4749    0.0000 O   0  0  0  0  0  0  0  0  0  0  0  0
   -5.0012   -3.7125    0.0000 N   0  0  0  0  0  0  0  0  0  0  0  0
   -4.2868   -3.3000    0.0000 C   0  0  0  0  0  0  0  0  0  0  0  0
   -3.5724   -3.7125    0.0000 C   0  0  0  0  0  0  0  0  0  0  0  0
   -2.8579   -3.3000    0.0000 C   0  0  0  0  0  0  0  0  0  0  0  0
   -2.1434   -3.7125    0.0000 C   0  0  0  0  0  0  0  0  0  0  0  0
   -1.4289   -3.3000    0.0000 O   0  0  0  0  0  0  0  0  0  0  0  0
   -2.1434   -4.5375    0.0000 O   0  0  0  0  0  0  0  0  0  0  0  0
   -4.2868   -2.4749    0.0000 C   0  0  0  0  0  0  0  0  0  0  0  0
   -3.5724   -2.0625    0.0000 O   0  0  0  0  0  0  0  0  0  0  0  0
   -5.0012   -2.0625    0.0000 O   0  0  0  0  0  0  0  0  0  0  0  0
   -9.2881   -4.5374    0.0000 C   0  0  0  0  0  0  0  0  0  0  0  0
  -10.0026   -4.9499    0.0000 C   0  0  0  0  0  0  0  0  0  0  0  0
  -10.7171   -4.5374    0.0000 N   0  0  0  0  0  0  0  0  0  0  0  0
  -11.4316   -4.9499    0.0000 C   0  0  0  0  0  0  0  0  0  0  0  0
  -11.4315   -5.7749    0.0000 C   0  0  0  0  0  0  0  0  0  0  0  0
  -10.7171   -6.1875    0.0000 N   0  0  0  0  0  0  0  0  0  0  0  0
  -10.0026   -5.7750    0.0000 C   0  0  0  0  0  0  0  0  0  0  0  0
  -12.1463   -4.5375    0.0000 C   0  0  0  0  0  0  0  0  0  0  0  0
  -12.8606   -4.9502    0.0000 N   0  0  0  0  0  0  0  0  0  0  0  0
  -12.8606   -5.7751    0.0000 C   0  0  0  0  0  0  0  0  0  0  0  0
  -12.1460   -6.1876    0.0000 N   0  0  0  0  0  0  0  0  0  0  0  0
  -13.5750   -6.1877    0.0000 N   0  0  0  0  0  0  0  0  0  0  0  0
  -12.1464   -3.7125    0.0000 O   0  0  0  0  0  0  0  0  0  0  0  0
  -10.7171   -3.7124    0.0000 C   0  0  0  0  0  0  0  0  0  0  0  0
  1  2  1  0
  1 20  1  0
  2  3  2  0
  2  7  1  0
  3  4  1  0
  4  5  2  0
  5  6  1  0
  5  8  1  0
  6  7  2  0
  8  9  2  0
  8 10  1  0
 11 10  1  0
 11 12  1  6
 11 17  1  0
 12 13  1  0
 13 14  1  0
 14 15  1  0
 14 16  2  0
 17 18  1  0
 17 19  2  0
 20 21  1  0
 21 26  1  0
 21 22  1  0
 22 23  1  0
 22 33  1  0
 23 24  2  0
 23 27  1  0
 24 25  1  0
 24 30  1  0
 25 26  1  0
 27 32  2  0
 27 28  1  0
 28 29  2  0
 29 30  1  0
 29 31  1  0
M  END
>  <DRUGBANK_ID>  (1) 
DB04789

>  <COMMON_NAME>  (1) 
5-methyltetrahydrofolic acid

>  <CAS_NUMBER>  (1) 
134-35-0

>  <UNII>  (1) 
TYK22LML8F

>  <SYNONYMS>  (1) 
5-Methyl-5,6,7,8-tetrahydrofolic acid; 5-Methyl-5,6,7,8-tetrahydropteroyl-L-glutamic acid; 5-Methyltetrahydropteroyl monoglutamate; 5-Methyltetrahydropteroylglutamic acid; N-Methyltetrahydrofolate; N-Methyltetrahydrofolic acid; N5-Methyltetrahydrofolate; N5-Methyltetrahydrofolic acid; N5-Methyltetrahydropteroylglutamate

$$$$
