KIQ
     RDKit          2D

 31 34  0  0  0  0  0  0  0  0999 V2000
   -1.0379    0.7026    0.0000 C   0  0  0  0  0  0  0  0  0  0  0  0
   -1.7524    1.1151    0.0000 C   0  0  0  0  0  0  0  0  0  0  0  0
   -2.4668   -0.1224    0.0000 C   0  0  0  0  0  0  0  0  0  0  0  0
   -4.6804   -0.3773    0.0000 C   0  0  0  0  0  0  0  0  0  0  0  0
   -0.3234    1.1151    0.0000 C   0  0  0  0  0  0  0  0  0  0  0  0
    0.3911    0.7026    0.0000 C   0  0  0  0  0  0  0  0  0  0  0  0
    0.3911   -0.1224    0.0000 C   0  0  0  0  0  0  0  0  0  0  0  0
    1.8200   -0.1224    0.0000 C   0  0  0  0  0  0  0  0  0  0  0  0
    0.3911   -1.7724    0.0000 F   0  0  0  0  0  0  0  0  0  0  0  0
    1.1055   -1.3599    0.0000 C   0  0  0  0  0  0  0  0  0  0  0  0
    1.8200   -1.7724    0.0000 C   0  0  0  0  0  0  0  0  0  0  0  0
    2.5345   -1.3599    0.0000 C   0  0  0  0  0  0  0  0  0  0  0  0
    3.2489   -1.7724    0.0000 F   0  0  0  0  0  0  0  0  0  0  0  0
    2.5345   -0.5349    0.0000 C   0  0  0  0  0  0  0  0  0  0  0  0
    3.2489   -0.1224    0.0000 F   0  0  0  0  0  0  0  0  0  0  0  0
    1.1055   -0.5349    0.0000 C   0  0  0  0  0  0  0  0  0  0  0  0
   -0.3234   -0.5349    0.0000 C   0  0  0  0  0  0  0  0  0  0  0  0
   -0.3234   -1.3599    0.0000 N   0  0  0  0  0  0  0  0  0  0  0  0
   -1.0379   -0.1224    0.0000 C   0  0  0  0  0  0  0  0  0  0  0  0
   -1.7524    1.9401    0.0000 O   0  0  0  0  0  0  0  0  0  0  0  0
   -2.4668    0.7026    0.0000 N   0  0  0  0  0  0  0  0  0  0  0  0
   -3.1813    1.1151    0.0000 C   0  0  0  0  0  0  0  0  0  0  0  0
   -3.8958    0.7026    0.0000 C   0  0  0  0  0  0  0  0  0  0  0  0
   -4.6804    0.9576    0.0000 N   0  0  0  0  0  0  0  0  0  0  0  0
   -5.1653    0.2901    0.0000 N   0  0  0  0  0  0  0  0  0  0  0  0
   -4.9353   -1.1619    0.0000 C   0  0  0  0  0  0  0  0  0  0  0  0
   -5.1903   -1.9466    0.0000 F   0  0  0  0  0  0  0  0  0  0  0  0
   -5.7199   -0.9070    0.0000 F   0  0  0  0  0  0  0  0  0  0  0  0
   -4.1507   -1.4169    0.0000 F   0  0  0  0  0  0  0  0  0  0  0  0
   -3.8958   -0.1224    0.0000 N   0  0  0  0  0  0  0  0  0  0  0  0
   -3.1813   -0.5349    0.0000 C   0  0  0  0  0  0  0  0  0  0  0  0
  1  5  2  0
  1  2  1  0
  1 19  1  0
  2 21  1  0
  2 20  2  0
  3 31  1  0
  3 21  1  0
  4 26  1  0
  4 30  1  0
  4 25  2  0
  5  6  1  0
  6  7  1  0
  7 16  1  6
  7 17  1  0
  8 14  2  0
  8 16  1  0
  9 10  1  0
 10 11  1  0
 10 16  2  0
 11 12  2  0
 12 13  1  0
 12 14  1  0
 14 15  1  0
 17 18  1  1
 17 19  1  0
 21 22  1  0
 22 23  1  0
 23 30  1  0
 23 24  2  0
 24 25  1  0
 26 27  1  0
 26 28  1  0
 26 29  1  0
 30 31  1  0
M  END
>  <DRUGBANK_ID>  (1) 
DB08044

>  <COMMON_NAME>  (1) 
ABT-341

>  <CAS_NUMBER>  (1) 
913623-69-5

>  <SYNONYMS>  (1) 
(1S,6R)-3-{[3-(TRIFLUOROMETHYL)-5,6-DIHYDRO[1,2,4]TRIAZOLO[4,3-A]PYRAZIN-7(8H)-YL]CARBONYL}-6-(2,4,5-TRIFLUOROPHENYL)CYCLOHEX-3-EN-1-AMINE

$$$$
