
     RDKit          2D

 13 14  0  0  0  0  0  0  0  0999 V2000
    1.0044    0.2933    0.0000 N   0  0  0  0  0  0  0  0  0  0  0  0
    1.0044    1.1183    0.0000 C   0  0  0  0  0  0  0  0  0  0  0  0
    0.2900    1.5308    0.0000 N   0  0  0  0  0  0  0  0  0  0  0  0
   -0.4244    1.1183    0.0000 C   0  0  0  0  0  0  0  0  0  0  0  0
   -0.4244    0.2933    0.0000 C   0  0  0  0  0  0  0  0  0  0  0  0
    0.2900   -0.1191    0.0000 C   0  0  0  0  0  0  0  0  0  0  0  0
    0.2900   -0.9441    0.0000 O   0  0  0  0  0  0  0  0  0  0  0  0
   -1.2090    0.0383    0.0000 C   0  0  0  0  0  0  0  0  0  0  0  0
   -1.4640   -0.7462    0.0000 C   0  0  0  0  0  0  0  0  0  0  0  0
   -1.7189   -1.5308    0.0000 N   0  0  0  0  0  0  0  0  0  0  0  0
   -1.6939    0.7058    0.0000 C   0  0  0  0  0  0  0  0  0  0  0  0
   -1.2090    1.3732    0.0000 N   0  0  0  0  0  0  0  0  0  0  0  0
    1.7189    1.5308    0.0000 N   0  0  0  0  0  0  0  0  0  0  0  0
  2  1  1  0
  2  3  2  0
  2 13  1  0
  4  3  1  0
  4  5  2  0
  4 12  1  0
  5  6  1  0
  5  8  1  0
  6  1  1  0
  6  7  2  0
  8 11  2  0
  9  8  1  0
  9 10  3  0
 11 12  1  0
M  END
>  <DRUGBANK_ID>  (1) 
DB03074

>  <SECONDARY_ACCESSION_NUMBERS>  (1) 
EXPT02651

>  <COMMON_NAME>  (1) 
7-cyano-7-deazaguanine

>  <SYNONYMS>  (1) 
7-CN-7-deazaG; 7-Cyano-7-carbaguanine

$$$$
