89I
     RDKit          2D

 30 33  0  0  0  0  0  0  0  0999 V2000
    0.4711    2.8191    0.0000 C   0  0  0  0  0  0  0  0  0  0  0  0
    1.1855    2.4066    0.0000 N   0  0  0  0  0  0  0  0  0  0  0  0
    1.1855    1.5816    0.0000 C   0  0  0  0  0  0  0  0  0  0  0  0
    0.4711    1.1691    0.0000 C   0  0  0  0  0  0  0  0  0  0  0  0
   -0.2434    1.5816    0.0000 C   0  0  0  0  0  0  0  0  0  0  0  0
   -0.2434    2.4066    0.0000 N   0  0  0  0  0  0  0  0  0  0  0  0
    0.4711    0.3441    0.0000 C   0  0  0  0  0  0  0  0  0  0  0  0
   -0.2434   -0.0684    0.0000 C   0  0  0  0  0  0  0  0  0  0  0  0
   -0.2434   -0.8934    0.0000 C   0  0  0  0  0  0  0  0  0  0  0  0
    0.4711   -1.3059    0.0000 C   0  0  0  0  0  0  0  0  0  0  0  0
    1.1855   -0.8934    0.0000 C   0  0  0  0  0  0  0  0  0  0  0  0
    1.1855   -0.0684    0.0000 C   0  0  0  0  0  0  0  0  0  0  0  0
    4.0434    0.7566    0.0000 C   0  0  0  0  0  0  0  0  0  0  0  0
    4.7579    0.3441    0.0000 N   0  0  0  0  0  0  0  0  0  0  0  0
    4.7579   -0.4809    0.0000 C   0  0  0  0  0  0  0  0  0  0  0  0
    4.0434   -0.8934    0.0000 C   0  0  0  0  0  0  0  0  0  0  0  0
    3.3289   -0.4809    0.0000 C   0  0  0  0  0  0  0  0  0  0  0  0
    3.3289    0.3441    0.0000 C   0  0  0  0  0  0  0  0  0  0  0  0
    6.1868   -0.4809    0.0000 C   0  0  0  0  0  0  0  0  0  0  0  0
    6.9013   -0.8934    0.0000 C   0  0  0  0  0  0  0  0  0  0  0  0
    6.9013   -1.7184    0.0000 O   0  0  0  0  0  0  0  0  0  0  0  0
    6.1868   -2.1309    0.0000 C   0  0  0  0  0  0  0  0  0  0  0  0
    5.4724   -1.7184    0.0000 C   0  0  0  0  0  0  0  0  0  0  0  0
    5.4724   -0.8934    0.0000 N   0  0  0  0  0  0  0  0  0  0  0  0
    1.9000    1.1691    0.0000 C   0  0  0  0  0  0  0  0  0  0  0  0
    2.6145    0.7566    0.0000 C   0  0  0  0  0  0  0  0  0  0  0  0
    0.4711   -2.1309    0.0000 N   0  0  0  0  0  0  0  0  0  0  0  0
    1.1855   -2.5434    0.0000 C   0  0  0  0  0  0  0  0  0  0  0  0
   -0.2434   -2.5434    0.0000 C   0  0  0  0  0  0  0  0  0  0  0  0
   -0.9579    1.1691    0.0000 N   0  0  0  0  0  0  0  0  0  0  0  0
  1  2  2  0
  1  6  1  0
  2  3  1  0
  3 25  1  0
  3  4  2  0
  4  7  1  0
  4  5  1  0
  5 30  1  0
  5  6  2  0
  7 12  1  0
  7  8  2  0
  8  9  1  0
  9 10  2  0
 10 27  1  0
 10 11  1  0
 11 12  2  0
 13 14  2  0
 13 18  1  0
 14 15  1  0
 15 24  1  0
 15 16  2  0
 16 17  1  0
 17 18  2  0
 18 26  1  0
 19 20  1  0
 19 24  1  0
 20 21  1  0
 21 22  1  0
 22 23  1  0
 23 24  1  0
 25 26  3  0
 27 28  1  0
 27 29  1  0
M  END
>  <DRUGBANK_ID>  (1) 
DB07280

>  <COMMON_NAME>  (1) 
5-[4-(DIMETHYLAMINO)PHENYL]-6-[(6-MORPHOLIN-4-YLPYRIDIN-3-YL)ETHYNYL]PYRIMIDIN-4-AMINE

$$$$
