
     RDKit          2D

  1  0  0  0  0  0  0  0  0  0999 V2000
    0.0000    0.0000    0.0000 Pd  0  0  0  0  0 15  0  0  0  0  0  0
M  ISO  1   1 103
M  END
>  <DRUGBANK_ID>  (1) 
DB15016

>  <COMMON_NAME>  (1) 
Palladium Pd-103

>  <CAS_NUMBER>  (1) 
14967-68-1

>  <UNII>  (1) 
68QTV136DF

$$$$
