BIR
     RDKit          2D

 29 30  0  0  0  0  0  0  0  0999 V2000
   -2.0418   -2.1869    0.0000 C   0  0  0  0  0  0  0  0  0  0  0  0
   -2.5819   -1.5632    0.0000 C   0  0  0  0  0  0  0  0  0  0  0  0
   -3.3921   -1.7192    0.0000 N   0  0  0  0  0  0  0  0  0  0  0  0
   -2.3119   -0.7837    0.0000 P   0  0  0  0  0  0  0  0  0  0  0  0
   -1.5323   -1.0537    0.0000 O   0  0  0  0  0  0  0  0  0  0  0  0
   -3.0914   -0.5136    0.0000 O   0  0  0  0  0  0  0  0  0  0  0  0
   -2.0418   -0.0041    0.0000 C   0  0  0  0  0  0  0  0  0  0  0  0
   -1.2317    0.1518    0.0000 C   0  0  0  0  0  0  0  0  0  0  0  0
   -0.6916   -0.4719    0.0000 C   0  0  0  0  0  0  0  0  0  0  0  0
   -0.9617   -1.2514    0.0000 O   0  0  0  0  0  0  0  0  0  0  0  0
    0.1185   -0.3160    0.0000 N   0  0  0  0  0  0  0  0  0  0  0  0
    0.6586   -0.9396    0.0000 C   0  0  0  0  0  0  0  0  0  0  0  0
    0.3886   -1.7192    0.0000 C   0  0  0  0  0  0  0  0  0  0  0  0
    1.4687   -0.7837    0.0000 C   0  0  0  0  0  0  0  0  0  0  0  0
    1.7388   -0.0041    0.0000 O   0  0  0  0  0  0  0  0  0  0  0  0
    2.0088   -1.4073    0.0000 O   0  0  0  0  0  0  0  0  0  0  0  0
   -0.9617    0.9313    0.0000 C   0  0  0  0  0  0  0  0  0  0  0  0
   -0.1515    1.0872    0.0000 C   0  0  0  0  0  0  0  0  0  0  0  0
    0.1185    1.8668    0.0000 C   0  0  0  0  0  0  0  0  0  0  0  0
    0.9287    2.0227    0.0000 C   0  0  0  0  0  0  0  0  0  0  0  0
    1.4687    1.3991    0.0000 C   0  0  0  0  0  0  0  0  0  0  0  0
    1.1987    0.6195    0.0000 C   0  0  0  0  0  0  0  0  0  0  0  0
    0.3886    0.4636    0.0000 C   0  0  0  0  0  0  0  0  0  0  0  0
    2.2789    1.5550    0.0000 C   0  0  0  0  0  0  0  0  0  0  0  0
    2.5489    2.3345    0.0000 C   0  0  0  0  0  0  0  0  0  0  0  0
    3.3591    2.4904    0.0000 C   0  0  0  0  0  0  0  0  0  0  0  0
    3.8991    1.8668    0.0000 C   0  0  0  0  0  0  0  0  0  0  0  0
    3.6291    1.0872    0.0000 C   0  0  0  0  0  0  0  0  0  0  0  0
    2.8190    0.9313    0.0000 C   0  0  0  0  0  0  0  0  0  0  0  0
  2  1  1  6
  2  3  1  0
  2  4  1  0
  4  5  2  0
  4  6  1  0
  4  7  1  0
  8  7  1  1
  8  9  1  0
  8 17  1  0
  9 10  2  0
  9 11  1  0
 11 12  1  0
 12 13  1  6
 12 14  1  0
 14 15  1  0
 14 16  2  0
 17 18  1  0
 18 19  2  0
 18 23  1  0
 19 20  1  0
 20 21  2  0
 21 22  1  0
 21 24  1  0
 22 23  2  0
 24 25  2  0
 24 29  1  0
 25 26  1  0
 26 27  2  0
 27 28  1  0
 28 29  2  0
M  END
>  <DRUGBANK_ID>  (1) 
DB02062

>  <SECONDARY_ACCESSION_NUMBERS>  (1) 
EXPT00710

>  <COMMON_NAME>  (1) 
N-[3-[(1-Aminoethyl)(Hydroxy)Phosphoryl]-2-(1,1'-Biphenyl-4-Ylmethyl)Propanoyl]Alanine

$$$$
