
     RDKit          2D

 28 30  0  0  1  0  0  0  0  0999 V2000
    3.4916   -4.8337    0.0000 C   0  0  0  0  0  0  0  0  0  0  0  0
    2.9396   -4.2206    0.0000 C   0  0  0  0  0  0  0  0  0  0  0  0
    3.1945   -3.4360    0.0000 C   0  0  0  0  0  0  0  0  0  0  0  0
    2.6425   -2.8229    0.0000 C   0  0  0  0  0  0  0  0  0  0  0  0
    1.8355   -2.9944    0.0000 C   0  0  0  0  0  0  0  0  0  0  0  0
    2.8974   -2.0383    0.0000 O   0  0  0  0  0  0  0  0  0  0  0  0
    2.3454   -1.4252    0.0000 C   0  0  0  0  0  0  0  0  0  0  0  0
    1.5384   -1.5967    0.0000 N   0  0  0  0  0  0  0  0  0  0  0  0
    0.9864   -0.9836    0.0000 C   0  0  0  0  0  0  0  0  0  0  0  0
    0.1794   -1.1552    0.0000 N   0  0  0  0  0  0  0  0  0  0  0  0
    1.2413   -0.1990    0.0000 C   0  0  0  0  0  0  0  0  0  0  0  0
    0.8288    0.5155    0.0000 N   0  0  0  0  0  0  0  0  0  0  0  0
    1.3809    1.1286    0.0000 C   0  0  0  0  0  0  0  0  0  0  0  0
    1.2093    1.9355    0.0000 O   0  0  0  0  0  0  0  0  0  0  0  0
    2.1345    0.7930    0.0000 N   0  0  0  0  0  0  0  0  0  0  0  0
    2.8490    1.2055    0.0000 C   0  0  0  0  0  0  0  0  0  0  0  0
    3.5635    0.7930    0.0000 C   0  0  0  0  0  0  0  0  0  0  0  0
    4.2780    1.2055    0.0000 C   0  0  0  0  0  0  0  0  0  0  0  0
    4.9924    0.7930    0.0000 C   0  0  0  0  0  0  0  0  0  0  0  0
    5.7069    1.2055    0.0000 C   0  0  0  0  0  0  0  0  0  0  0  0
    6.4214    0.7930    0.0000 N   0  0  0  0  0  0  0  0  0  0  0  0
    7.1358    1.2055    0.0000 C   0  0  0  0  0  0  0  0  0  0  0  0
    7.8503    0.7930    0.0000 C   0  0  0  0  0  0  0  0  0  0  0  0
    7.8503   -0.0320    0.0000 C   0  0  0  0  0  0  0  0  0  0  0  0
    7.1358   -0.4445    0.0000 C   0  0  0  0  0  0  0  0  0  0  0  0
    6.4214   -0.0320    0.0000 C   0  0  0  0  0  0  0  0  0  0  0  0
    2.0483   -0.0275    0.0000 C   0  0  0  0  0  0  0  0  0  0  0  0
    2.6003   -0.6406    0.0000 N   0  0  0  0  0  0  0  0  0  0  0  0
  1  2  1  0
  2  3  1  0
  4  3  1  0
  4  5  1  6
  4  6  1  0
  6  7  1  0
  7  8  2  0
  7 28  1  0
  8  9  1  0
  9 10  1  0
  9 11  2  0
 11 12  1  0
 11 27  1  0
 12 13  1  0
 13 14  2  0
 13 15  1  0
 15 16  1  0
 15 27  1  0
 16 17  1  0
 17 18  1  0
 18 19  1  0
 19 20  1  0
 20 21  1  0
 21 22  1  0
 21 26  1  0
 22 23  1  0
 23 24  1  0
 24 25  1  0
 25 26  1  0
 27 28  2  0
M  END
>  <DRUGBANK_ID>  (1) 
DB16076

>  <COMMON_NAME>  (1) 
GSK2245035

>  <CAS_NUMBER>  (1) 
1207629-49-9

>  <UNII>  (1) 
5L3SX16QBQ

$$$$
