N2T
     RDKit          2D

 29 32  0  0  0  0  0  0  0  0999 V2000
    1.7096   -2.7751    0.0000 C   0  0  0  0  0  0  0  0  0  0  0  0
    1.2247   -2.1077    0.0000 C   0  0  0  0  0  0  0  0  0  0  0  0
    1.5603   -1.3540    0.0000 C   0  0  0  0  0  0  0  0  0  0  0  0
    2.3808   -1.2678    0.0000 C   0  0  0  0  0  0  0  0  0  0  0  0
    2.8657   -1.9352    0.0000 C   0  0  0  0  0  0  0  0  0  0  0  0
    2.5301   -2.6889    0.0000 C   0  0  0  0  0  0  0  0  0  0  0  0
    1.0754   -0.6866    0.0000 C   0  0  0  0  0  0  0  0  0  0  0  0
    0.2504   -0.6866    0.0000 C   0  0  0  0  0  0  0  0  0  0  0  0
   -0.0046    0.0980    0.0000 N   0  0  0  0  0  0  0  0  0  0  0  0
    0.6629    0.5830    0.0000 C   0  0  0  0  0  0  0  0  0  0  0  0
    1.3303    0.0980    0.0000 C   0  0  0  0  0  0  0  0  0  0  0  0
    0.6629    1.4080    0.0000 C   0  0  0  0  0  0  0  0  0  0  0  0
   -0.0516    1.8205    0.0000 C   0  0  0  0  0  0  0  0  0  0  0  0
   -0.0516    2.6455    0.0000 C   0  0  0  0  0  0  0  0  0  0  0  0
    0.6629    3.0580    0.0000 C   0  0  0  0  0  0  0  0  0  0  0  0
    1.3773    2.6455    0.0000 C   0  0  0  0  0  0  0  0  0  0  0  0
    1.3773    1.8205    0.0000 C   0  0  0  0  0  0  0  0  0  0  0  0
   -0.7892    0.3530    0.0000 C   0  0  0  0  0  0  0  0  0  0  0  0
   -1.4023   -0.1990    0.0000 N   0  0  0  0  0  0  0  0  0  0  0  0
   -2.1869    0.0559    0.0000 C   0  0  0  0  0  0  0  0  0  0  0  0
    2.7163   -0.5141    0.0000 F   0  0  0  0  0  0  0  0  0  0  0  0
    1.3741   -3.5288    0.0000 F   0  0  0  0  0  0  0  0  0  0  0  0
   -0.9607    1.1600    0.0000 O   0  0  0  0  0  0  0  0  0  0  0  0
   -2.8000   -0.4961    0.0000 C   0  0  0  0  0  0  0  0  0  0  0  0
   -1.2308   -1.0060    0.0000 C   0  0  0  0  0  0  0  0  0  0  0  0
   -2.3584    0.8629    0.0000 C   0  0  0  0  0  0  0  0  0  0  0  0
   -3.5846   -0.2412    0.0000 C   0  0  0  0  0  0  0  0  0  0  0  0
   -3.1431    1.1178    0.0000 C   0  0  0  0  0  0  0  0  0  0  0  0
   -3.7562    0.5658    0.0000 N   0  0  0  0  0  0  0  0  0  0  0  0
  1  2  2  0
  1  6  1  0
  1 22  1  0
  2  3  1  0
  3  4  2  0
  3  7  1  0
  4  5  1  0
  4 21  1  0
  5  6  2  0
  7  8  1  0
  7 11  2  0
  8  9  1  0
  9 10  1  0
  9 18  1  0
 10 11  1  0
 10 12  1  6
 12 13  2  0
 12 17  1  0
 13 14  1  0
 14 15  2  0
 15 16  1  0
 16 17  2  0
 18 19  1  0
 18 23  2  0
 19 20  1  0
 19 25  1  0
 20 24  1  0
 20 26  1  0
 24 27  1  0
 26 28  1  0
 27 29  1  0
 28 29  1  0
M  END
>  <DRUGBANK_ID>  (1) 
DB08239

>  <COMMON_NAME>  (1) 
(2S)-4-(2,5-DIFLUOROPHENYL)-N-METHYL-2-PHENYL-N-PIPERIDIN-4-YL-2,5-DIHYDRO-1H-PYRROLE-1-CARBOXAMIDE

$$$$
