
     RDKit          2D

 18 18  0  0  1  0  0  0  0  0999 V2000
   -0.5902   -0.0666    0.0000 C   0  0  0  0  0  0  0  0  0  0  0  0
   -1.3047   -0.4791    0.0000 C   0  0  0  0  0  0  0  0  0  0  0  0
   -1.3047   -1.3041    0.0000 C   0  0  0  0  0  0  0  0  0  0  0  0
    0.1242   -0.4791    0.0000 C   0  0  0  0  0  0  0  0  0  0  0  0
   -0.5902   -1.7166    0.0000 C   0  0  0  0  0  0  0  0  0  0  0  0
    0.1242   -1.3041    0.0000 C   0  0  0  0  0  0  0  0  0  0  0  0
   -2.0191   -0.0666    0.0000 C   0  0  0  0  0  0  0  0  0  0  0  0
   -2.0191    0.7583    0.0000 C   0  0  0  0  0  0  0  0  0  0  0  0
   -2.7336   -0.4791    0.0000 O   0  0  0  0  0  0  0  0  0  0  0  0
   -2.7336    1.1708    0.0000 N   0  0  0  0  0  0  0  0  0  0  0  0
   -1.3047    1.1708    0.0000 C   0  0  0  0  0  0  0  0  0  0  0  0
   -0.5902    0.7583    0.0000 O   0  0  0  0  0  0  0  0  0  0  0  0
    0.8387   -1.7166    0.0000 N   0  0  0  0  0  0  0  0  0  0  0  0
    0.8387   -2.5416    0.0000 O   0  0  0  0  0  0  0  0  0  0  0  0
    1.5531   -1.3041    0.0000 O   0  0  0  0  0  0  0  0  0  0  0  0
   -2.7336    1.9958    0.0000 C   0  0  0  0  0  0  0  0  0  0  0  0
   -3.4481    2.4083    0.0000 O   0  0  0  0  0  0  0  0  0  0  0  0
   -2.0191    2.4083    0.0000 C   0  0  0  0  0  0  0  0  0  0  0  0
  1  4  2  0
  2  1  1  0
  2  7  1  0
  2  3  2  0
  3  5  1  0
  4  6  1  0
  5  6  2  0
  6 13  1  0
  7  8  1  0
  7  9  1  1
  8 10  1  0
  8 11  1  6
 11 12  1  0
 13 14  1  0
 13 15  2  0
 16 17  2  0
 16 10  1  0
 18 16  1  0
M  CHG  2  13   1  14  -1
M  END
>  <DRUGBANK_ID>  (1) 
DB02608

>  <SECONDARY_ACCESSION_NUMBERS>  (1) 
EXPT00937

>  <COMMON_NAME>  (1) 
N-[(1R,2R)-1,3-Dihydroxy-1-(4-nitrophenyl)-2-propanyl]acetamide

>  <CAS_NUMBER>  (1) 
4423-58-9

$$$$
