SB1
     RDKit          2D

 31 32  0  0  0  0  0  0  0  0999 V2000
   -2.3392    0.5138    0.0000 N   0  0  0  0  0  0  0  0  0  0  0  0
   -1.8618    1.2801    0.0000 C   0  0  0  0  0  0  0  0  0  0  0  0
   -1.0553    1.1062    0.0000 O   0  0  0  0  0  0  0  0  0  0  0  0
   -1.9707    2.0978    0.0000 C   0  0  0  0  0  0  0  0  0  0  0  0
   -2.6963    2.4904    0.0000 O   0  0  0  0  0  0  0  0  0  0  0  0
   -1.2266    2.4541    0.0000 C   0  0  0  0  0  0  0  0  0  0  0  0
   -0.6578    1.8565    0.0000 C   0  0  0  0  0  0  0  0  0  0  0  0
    0.2384    1.7480    0.0000 O   0  0  0  0  0  0  0  0  0  0  0  0
    0.5947    1.0039    0.0000 C   0  0  0  0  0  0  0  0  0  0  0  0
    0.1285    0.3233    0.0000 O   0  0  0  0  0  0  0  0  0  0  0  0
    1.4173    0.9404    0.0000 C   0  0  0  0  0  0  0  0  0  0  0  0
    1.7736    0.1963    0.0000 C   0  0  0  0  0  0  0  0  0  0  0  0
    2.5961    0.1329    0.0000 C   0  0  0  0  0  0  0  0  0  0  0  0
    2.9524   -0.6112    0.0000 C   0  0  0  0  0  0  0  0  0  0  0  0
    2.4861   -1.2919    0.0000 C   0  0  0  0  0  0  0  0  0  0  0  0
    2.8424   -2.0360    0.0000 C   0  0  0  0  0  0  0  0  0  0  0  0
    2.3762   -2.7166    0.0000 C   0  0  0  0  0  0  0  0  0  0  0  0
    1.5536   -2.6531    0.0000 C   0  0  0  0  0  0  0  0  0  0  0  0
    1.1973   -1.9090    0.0000 C   0  0  0  0  0  0  0  0  0  0  0  0
    0.3748   -1.8455    0.0000 C   0  0  0  0  0  0  0  0  0  0  0  0
    0.0185   -1.1014    0.0000 C   0  0  0  0  0  0  0  0  0  0  0  0
   -0.8041   -1.0379    0.0000 O   0  0  0  0  0  0  0  0  0  0  0  0
   -1.1604   -0.2938    0.0000 C   0  0  0  0  0  0  0  0  0  0  0  0
   -0.6941    0.3868    0.0000 O   0  0  0  0  0  0  0  0  0  0  0  0
   -1.9829   -0.2303    0.0000 C   0  0  0  0  0  0  0  0  0  0  0  0
   -2.4492   -0.9109    0.0000 C   0  0  0  0  0  0  0  0  0  0  0  0
   -3.2717   -0.8474    0.0000 C   0  0  0  0  0  0  0  0  0  0  0  0
   -3.6280   -0.1033    0.0000 C   0  0  0  0  0  0  0  0  0  0  0  0
   -3.1618    0.5773    0.0000 C   0  0  0  0  0  0  0  0  0  0  0  0
   -1.4950    3.2342    0.0000 C   0  0  0  0  0  0  0  0  0  0  0  0
   -0.6983    3.0878    0.0000 C   0  0  0  0  0  0  0  0  0  0  0  0
  1  2  1  0
  1 25  1  0
  1 29  1  0
  2  3  2  0
  2  4  1  0
  4  5  2  0
  4  6  1  0
  6  7  1  0
  6 30  1  0
  6 31  1  0
  7  8  1  0
  8  9  1  0
  9 10  2  0
  9 11  1  0
 11 12  1  0
 12 13  1  0
 13 14  1  0
 14 15  1  0
 15 16  1  0
 16 17  1  0
 17 18  1  0
 18 19  1  0
 19 20  1  0
 20 21  1  0
 21 22  1  0
 22 23  1  0
 23 24  2  0
 23 25  1  0
 25 26  1  6
 26 27  1  0
 27 28  1  0
 28 29  1  0
M  END
>  <DRUGBANK_ID>  (1) 
DB08520

>  <COMMON_NAME>  (1) 
(21S)-1AZA-4,4-DIMETHYL-6,19-DIOXA-2,3,7,20-TETRAOXOBICYCLO[19.4.0] PENTACOSANE

$$$$
