8ST
     RDKit          2D

 24 26  0  0  0  0  0  0  0  0999 V2000
   -1.2169    3.6365    0.0000 Cl  0  0  0  0  0  0  0  0  0  0  0  0
   -1.2169    2.8115    0.0000 C   0  0  0  0  0  0  0  0  0  0  0  0
   -1.9314    2.3990    0.0000 C   0  0  0  0  0  0  0  0  0  0  0  0
   -1.9314    1.5740    0.0000 C   0  0  0  0  0  0  0  0  0  0  0  0
   -0.5024    2.3990    0.0000 C   0  0  0  0  0  0  0  0  0  0  0  0
   -0.5024    1.5740    0.0000 C   0  0  0  0  0  0  0  0  0  0  0  0
   -1.2169    1.1615    0.0000 C   0  0  0  0  0  0  0  0  0  0  0  0
   -1.2169    0.3365    0.0000 N   0  0  0  0  0  0  0  0  0  0  0  0
   -0.5024   -0.0760    0.0000 C   0  0  0  0  0  0  0  0  0  0  0  0
    0.2120    0.3365    0.0000 O   0  0  0  0  0  0  0  0  0  0  0  0
   -0.5024   -0.9010    0.0000 C   0  0  0  0  0  0  0  0  0  0  0  0
    0.2120   -1.3135    0.0000 C   0  0  0  0  0  0  0  0  0  0  0  0
    0.2120   -2.1385    0.0000 C   0  0  0  0  0  0  0  0  0  0  0  0
   -0.5024   -2.5510    0.0000 C   0  0  0  0  0  0  0  0  0  0  0  0
   -1.2169   -2.1385    0.0000 C   0  0  0  0  0  0  0  0  0  0  0  0
   -1.2169   -1.3135    0.0000 C   0  0  0  0  0  0  0  0  0  0  0  0
    0.9265   -0.9010    0.0000 N   0  0  0  0  0  0  0  0  0  0  0  0
    1.6410   -1.3135    0.0000 C   0  0  0  0  0  0  0  0  0  0  0  0
    2.3555   -0.9010    0.0000 C   0  0  0  0  0  0  0  0  0  0  0  0
    3.0699   -1.3135    0.0000 C   0  0  0  0  0  0  0  0  0  0  0  0
    3.7844   -0.9010    0.0000 C   0  0  0  0  0  0  0  0  0  0  0  0
    3.7844   -0.0760    0.0000 N   0  0  0  0  0  0  0  0  0  0  0  0
    3.0699    0.3365    0.0000 C   0  0  0  0  0  0  0  0  0  0  0  0
    2.3555   -0.0760    0.0000 C   0  0  0  0  0  0  0  0  0  0  0  0
  1  2  1  0
  2  5  2  0
  2  3  1  0
  3  4  2  0
  4  7  1  0
  5  6  1  0
  6  7  2  0
  7  8  1  0
  9  8  1  0
  9 11  1  0
 10  9  2  0
 11 12  1  0
 11 16  2  0
 12 13  2  0
 13 14  1  0
 15 14  2  0
 16 15  1  0
 17 12  1  0
 18 17  1  0
 18 19  1  0
 19 24  1  0
 19 20  2  0
 20 21  1  0
 21 22  2  0
 23 22  1  0
 24 23  2  0
M  END
>  <DRUGBANK_ID>  (1) 
DB07288

>  <COMMON_NAME>  (1) 
N-(4-chlorophenyl)-2-[(pyridin-4-ylmethyl)amino]benzamide

$$$$
