NC6
     RDKit          2D

 18 18  0  0  0  0  0  0  0  0999 V2000
   -2.4065   -0.0534    0.0000 C   0  0  0  0  0  0  0  0  0  0  0  0
   -1.6919   -0.4659    0.0000 N   0  0  0  0  0  0  0  0  0  0  0  0
   -0.9775   -0.0534    0.0000 C   0  0  0  0  0  0  0  0  0  0  0  0
   -0.2629   -0.4659    0.0000 N   0  0  0  0  0  0  0  0  0  0  0  0
    0.4516   -0.0534    0.0000 C   0  0  0  0  0  0  0  0  0  0  0  0
    1.1662   -0.4659    0.0000 C   0  0  0  0  0  0  0  0  0  0  0  0
    1.8806   -0.0534    0.0000 C   0  0  0  0  0  0  0  0  0  0  0  0
    2.5952   -0.4659    0.0000 C   0  0  0  0  0  0  0  0  0  0  0  0
    3.3097   -0.0534    0.0000 C   0  0  0  0  0  0  0  0  0  0  0  0
   -0.9775    0.7717    0.0000 O   0  0  0  0  0  0  0  0  0  0  0  0
    4.0242   -0.4659    0.0000 C   0  0  0  0  0  0  0  0  0  0  0  0
    4.7388   -0.0534    0.0000 O   0  0  0  0  0  0  0  0  0  0  0  0
    4.0242   -1.2910    0.0000 O   0  0  0  0  0  0  0  0  0  0  0  0
   -3.1210   -0.4659    0.0000 C   0  0  0  0  0  0  0  0  0  0  0  0
   -3.8355   -0.0534    0.0000 C   0  0  0  0  0  0  0  0  0  0  0  0
   -3.8355    0.7717    0.0000 C   0  0  0  0  0  0  0  0  0  0  0  0
   -3.1210    1.1842    0.0000 C   0  0  0  0  0  0  0  0  0  0  0  0
   -2.4065    0.7717    0.0000 C   0  0  0  0  0  0  0  0  0  0  0  0
  1  2  1  0
  1 14  1  0
  1 18  1  0
  2  3  1  0
  3  4  1  0
  3 10  2  0
  4  5  1  0
  5  6  1  0
  6  7  1  0
  7  8  1  0
  8  9  1  0
  9 11  1  0
 11 12  1  0
 11 13  2  0
 14 15  1  0
 15 16  1  0
 16 17  1  0
 17 18  1  0
M  END
>  <DRUGBANK_ID>  (1) 
DB08258

>  <COMMON_NAME>  (1) 
6-{[(CYCLOHEXYLAMINO)CARBONYL]AMINO}HEXANOIC ACID

>  <UNII>  (1) 
BCV85A2H3R

$$$$
