
     RDKit          2D

 33 36  0  0  1  0  0  0  0  0999 V2000
   11.1613   -9.5509    0.0000 C   0  0  0  0  0  0  0  0  0  0  0  0
   10.4469   -9.9634    0.0000 C   0  0  0  0  0  0  0  0  0  0  0  0
   10.4469  -10.7884    0.0000 C   0  0  0  0  0  0  0  0  0  0  0  0
   11.1613  -11.2009    0.0000 C   0  0  0  0  0  0  0  0  0  0  0  0
   11.8758  -10.7884    0.0000 C   0  0  0  0  0  0  0  0  0  0  0  0
   11.8758   -9.9634    0.0000 C   0  0  0  0  0  0  0  0  0  0  0  0
   12.5903   -9.5509    0.0000 C   0  0  0  0  0  0  0  0  0  0  0  0
   12.5903  -11.2009    0.0000 C   0  0  0  0  0  0  0  0  0  0  0  0
   13.3047  -10.7884    0.0000 C   0  0  0  0  0  0  0  0  0  0  0  0
   13.3047   -9.9634    0.0000 C   0  0  0  0  0  0  0  0  0  0  0  0
   14.0192   -9.5509    0.0000 C   0  0  0  0  0  0  0  0  0  0  0  0
   14.0192  -11.2009    0.0000 C   0  0  0  0  0  0  0  0  0  0  0  0
   14.7337  -10.7884    0.0000 C   0  0  0  0  0  0  0  0  0  0  0  0
   14.7337   -9.9634    0.0000 C   0  0  0  0  0  0  0  0  0  0  0  0
   15.4481   -9.5509    0.0000 C   0  0  0  0  0  0  0  0  0  0  0  0
   15.4481  -11.2009    0.0000 C   0  0  0  0  0  0  0  0  0  0  0  0
   16.1626  -10.7884    0.0000 C   0  0  0  0  0  0  0  0  0  0  0  0
   16.1626   -9.9634    0.0000 C   0  0  0  0  0  0  0  0  0  0  0  0
   11.1613   -8.7259    0.0000 N   0  0  0  0  0  0  0  0  0  0  0  0
   15.4481   -8.7259    0.0000 N   0  0  0  0  0  0  0  0  0  0  0  0
   14.7337  -11.6134    0.0000 O   0  0  0  0  0  0  0  0  0  0  0  0
   11.8758   -8.3134    0.0000 C   0  0  0  0  0  0  0  0  0  0  0  0
   10.4469   -8.3134    0.0000 C   0  0  0  0  0  0  0  0  0  0  0  0
   16.1626   -8.3134    0.0000 C   0  0  0  0  0  0  0  0  0  0  0  0
   14.7336   -8.3134    0.0000 C   0  0  0  0  0  0  0  0  0  0  0  0
   16.8771   -9.5509    0.0000 O   0  0  0  0  0  0  0  0  0  0  0  0
   11.1613  -12.0259    0.0000 O   0  0  0  0  0  0  0  0  0  0  0  0
   12.5903  -12.0259    0.0000 O   0  0  0  0  0  0  0  0  0  0  0  0
   14.0192  -12.0259    0.0000 O   0  0  0  0  0  0  0  0  0  0  0  0
   15.4481  -12.0259    0.0000 O   0  0  0  0  0  0  0  0  0  0  0  0
   16.8771  -11.2009    0.0000 C   0  0  0  0  0  0  0  0  0  0  0  0
   16.8771  -12.0259    0.0000 O   0  0  0  0  0  0  0  0  0  0  0  0
   17.5915  -10.7884    0.0000 N   0  0  0  0  0  0  0  0  0  0  0  0
  1  2  2  0
  1  6  1  0
  1 19  1  0
  2  3  1  0
  3  4  2  0
  4  5  1  0
  4 27  1  0
  5  8  1  0
  6  5  2  0
  7  6  1  0
 10  7  1  1
  8  9  1  0
  8 28  2  0
  9 12  2  0
 10  9  1  0
 11 10  1  0
 14 11  1  1
 12 13  1  0
 12 29  1  0
 13 16  1  0
 13 21  1  6
 14 13  1  0
 15 14  1  0
 15 18  1  0
 15 20  1  6
 16 17  1  0
 16 30  2  0
 17 18  2  0
 17 31  1  0
 18 26  1  0
 19 22  1  0
 19 23  1  0
 20 24  1  0
 20 25  1  0
 31 32  2  0
 31 33  1  0
M  END
>  <DRUGBANK_ID>  (1) 
DB01017

>  <SECONDARY_ACCESSION_NUMBERS>  (1) 
APRD00547

>  <COMMON_NAME>  (1) 
Minocycline

>  <CAS_NUMBER>  (1) 
10118-90-8

>  <UNII>  (1) 
FYY3R43WGO

>  <SYNONYMS>  (1) 
(4S,4aS,5aR,12aS)-4,7-bis(dimethylamino)-3,10,12,12a-tetrahydroxy-1,11-dioxo-1,4,4a,5,5a,6,11,12a-octahydrotetracene-2-carboxamide; 7-Dimethylamino-6-demethyl-6-deoxytetracycline; Minociclina; Minociclinum; Minocyclin; Minocycline; Minocyclinum; Minomycin

$$$$
