130
     RDKit          2D

 25 28  0  0  0  0  0  0  0  0999 V2000
    2.8455   -0.2947    0.0000 C   0  0  0  0  0  0  0  0  0  0  0  0
    2.8455   -1.1197    0.0000 C   0  0  0  0  0  0  0  0  0  0  0  0
    2.1311   -1.5322    0.0000 C   0  0  0  0  0  0  0  0  0  0  0  0
    1.4166   -1.1197    0.0000 C   0  0  0  0  0  0  0  0  0  0  0  0
    1.4166   -0.2947    0.0000 C   0  0  0  0  0  0  0  0  0  0  0  0
    2.1311    0.1178    0.0000 C   0  0  0  0  0  0  0  0  0  0  0  0
    3.5600    0.1178    0.0000 C   0  0  0  0  0  0  0  0  0  0  0  0
    4.2745   -0.2947    0.0000 N   0  0  0  0  0  0  0  0  0  0  0  0
    3.5600    0.9428    0.0000 N   0  0  0  0  0  0  0  0  0  0  0  0
    0.6320   -1.3747    0.0000 N   0  0  0  0  0  0  0  0  0  0  0  0
    0.6320   -0.0398    0.0000 N   0  0  0  0  0  0  0  0  0  0  0  0
    0.1470   -0.7072    0.0000 C   0  0  0  0  0  0  0  0  0  0  0  0
   -0.6780   -0.7072    0.0000 C   0  0  0  0  0  0  0  0  0  0  0  0
   -1.0905   -1.4217    0.0000 C   0  0  0  0  0  0  0  0  0  0  0  0
   -1.9155   -1.4217    0.0000 C   0  0  0  0  0  0  0  0  0  0  0  0
   -2.3280   -0.7072    0.0000 C   0  0  0  0  0  0  0  0  0  0  0  0
   -1.9155    0.0072    0.0000 C   0  0  0  0  0  0  0  0  0  0  0  0
   -1.0905    0.0072    0.0000 C   0  0  0  0  0  0  0  0  0  0  0  0
   -0.6780    0.7217    0.0000 O   0  0  0  0  0  0  0  0  0  0  0  0
   -2.3280    0.7217    0.0000 C   0  0  0  0  0  0  0  0  0  0  0  0
   -3.1530    0.7217    0.0000 C   0  0  0  0  0  0  0  0  0  0  0  0
   -3.5655    1.4362    0.0000 C   0  0  0  0  0  0  0  0  0  0  0  0
   -3.1530    2.1506    0.0000 C   0  0  0  0  0  0  0  0  0  0  0  0
   -2.3280    2.1506    0.0000 C   0  0  0  0  0  0  0  0  0  0  0  0
   -1.9155    1.4362    0.0000 C   0  0  0  0  0  0  0  0  0  0  0  0
  1  2  2  0
  1  6  1  0
  1  7  1  0
  2  3  1  0
  3  4  2  0
  4  5  1  0
  4 10  1  0
  5  6  2  0
  5 11  1  0
  7  8  1  0
  7  9  2  0
 10 12  1  0
 11 12  2  0
 12 13  1  0
 13 14  2  0
 13 18  1  0
 14 15  1  0
 15 16  2  0
 16 17  1  0
 17 18  2  0
 17 20  1  0
 18 19  1  0
 20 21  2  0
 20 25  1  0
 21 22  1  0
 22 23  2  0
 23 24  1  0
 24 25  2  0
M  END
>  <DRUGBANK_ID>  (1) 
DB01725

>  <SECONDARY_ACCESSION_NUMBERS>  (1) 
EXPT00301; DB06854

>  <COMMON_NAME>  (1) 
2-{2-hydroxy-[1,1'-biphenyl]-3-yl}-1H-1,3-benzodiazole-5-carboximidamide

>  <SYNONYMS>  (1) 
2-(2-HYDROXY-BIPHENYL)-1H-BENZOIMIDAZOLE-5-CARBOXAMIDINE; 3-{5-[AMINO(IMINIO)METHYL]-1H-BENZIMIDAZOL-2-YL}-1,1'-BIPHENYL-2-OLATE

$$$$
