
     RDKit          2D

 18 18  0  0  1  0  0  0  0  0999 V2000
    1.9967    5.2393    0.0000 C   0  0  0  0  0  0  0  0  0  0  0  0
    1.9967    4.4143    0.0000 C   0  0  0  0  0  0  0  0  0  0  0  0
    1.2822    4.0018    0.0000 C   0  0  0  0  0  0  0  0  0  0  0  0
    0.5678    4.4143    0.0000 C   0  0  0  0  0  0  0  0  0  0  0  0
   -0.1467    4.0018    0.0000 C   0  0  0  0  0  0  0  0  0  0  0  0
    1.2822    3.1768    0.0000 C   0  0  0  0  0  0  0  0  0  0  0  0
    1.9967    2.7643    0.0000 C   0  0  0  0  0  0  0  0  0  0  0  0
    2.7112    3.1768    0.0000 O   0  0  0  0  0  0  0  0  0  0  0  0
    0.5678    2.7643    0.0000 N   0  0  0  0  0  0  0  0  0  0  0  0
    0.5678    1.9393    0.0000 S   0  0  0  0  0  0  0  0  0  0  0  0
   -0.2572    1.9393    0.0000 O   0  0  0  0  0  0  0  0  0  0  0  0
    1.3928    1.9393    0.0000 O   0  0  0  0  0  0  0  0  0  0  0  0
    0.5678    1.1143    0.0000 C   0  0  0  0  0  0  0  0  0  0  0  0
    1.2352    0.6294    0.0000 C   0  0  0  0  0  0  0  0  0  0  0  0
    0.9803   -0.1553    0.0000 C   0  0  0  0  0  0  0  0  0  0  0  0
    0.1553   -0.1553    0.0000 C   0  0  0  0  0  0  0  0  0  0  0  0
   -0.0997    0.6294    0.0000 S   0  0  0  0  0  0  0  0  0  0  0  0
   -0.3297   -0.8227    0.0000 Cl  0  0  0  0  0  0  0  0  0  0  0  0
  1  2  1  0
  2  3  1  0
  3  4  1  0
  3  6  1  0
  4  5  1  0
  6  7  1  1
  6  9  1  0
  7  8  1  0
  9 10  1  0
 10 11  2  0
 10 12  2  0
 10 13  1  0
 13 14  2  0
 13 17  1  0
 14 15  1  0
 15 16  2  0
 16 17  1  0
 16 18  1  0
M  END
>  <DRUGBANK_ID>  (1) 
DB12819

>  <COMMON_NAME>  (1) 
GSI-136

>  <CAS_NUMBER>  (1) 
443989-01-3

>  <UNII>  (1) 
51JV4753AD

$$$$
