
     RDKit          2D

  4  3  0  0  0  0  0  0  0  0999 V2000
    0.2062   -0.3572    0.0000 C   0  0  0  0  0  0  0  0  0  0  0  0
   -0.2062    0.3572    0.0000 C   0  0  0  0  0  0  0  0  0  0  0  0
    1.0313   -0.3572    0.0000 N   0  0  0  0  0  0  0  0  0  0  0  0
   -1.0313    0.3572    0.0000 N   0  0  0  0  0  0  0  0  0  0  0  0
  1  2  1  0
  1  3  2  0
  2  4  1  0
M  END
>  <DRUGBANK_ID>  (1) 
DB02108

>  <SECONDARY_ACCESSION_NUMBERS>  (1) 
EXPT00447

>  <COMMON_NAME>  (1) 
2-Aminoethanimidic Acid

>  <SYNONYMS>  (1) 
2-aminoethylimine

$$$$
