J78
     RDKit          2D

 28 30  0  0  0  0  0  0  0  0999 V2000
   -5.6305    2.3999    0.0000 C   0  0  0  0  0  0  0  0  0  0  0  0
   -4.9160    1.9874    0.0000 C   0  0  0  0  0  0  0  0  0  0  0  0
   -4.2015    2.3999    0.0000 C   0  0  0  0  0  0  0  0  0  0  0  0
   -3.4871    1.9874    0.0000 C   0  0  0  0  0  0  0  0  0  0  0  0
   -3.4871    1.1624    0.0000 C   0  0  0  0  0  0  0  0  0  0  0  0
   -4.2015    0.7499    0.0000 N   0  0  0  0  0  0  0  0  0  0  0  0
   -4.9160    1.1624    0.0000 N   0  0  0  0  0  0  0  0  0  0  0  0
   -2.7726    0.7499    0.0000 N   0  0  0  0  0  0  0  0  0  0  0  0
   -2.0581    1.1624    0.0000 C   0  0  0  0  0  0  0  0  0  0  0  0
   -1.3437    0.7499    0.0000 C   0  0  0  0  0  0  0  0  0  0  0  0
   -1.3437   -0.0751    0.0000 C   0  0  0  0  0  0  0  0  0  0  0  0
   -2.0581   -0.4876    0.0000 C   0  0  0  0  0  0  0  0  0  0  0  0
   -2.7726   -0.0751    0.0000 C   0  0  0  0  0  0  0  0  0  0  0  0
   -0.6292   -0.4876    0.0000 C   0  0  0  0  0  0  0  0  0  0  0  0
    0.0853   -0.0751    0.0000 C   0  0  0  0  0  0  0  0  0  0  0  0
    0.7998   -0.4876    0.0000 C   0  0  0  0  0  0  0  0  0  0  0  0
    1.5142   -0.0751    0.0000 O   0  0  0  0  0  0  0  0  0  0  0  0
    2.2287   -0.4876    0.0000 C   0  0  0  0  0  0  0  0  0  0  0  0
    2.9432   -0.0751    0.0000 C   0  0  0  0  0  0  0  0  0  0  0  0
    3.6576   -0.4876    0.0000 C   0  0  0  0  0  0  0  0  0  0  0  0
    3.6576   -1.3126    0.0000 C   0  0  0  0  0  0  0  0  0  0  0  0
    2.9432   -1.7251    0.0000 C   0  0  0  0  0  0  0  0  0  0  0  0
    2.2287   -1.3126    0.0000 C   0  0  0  0  0  0  0  0  0  0  0  0
    4.3721   -1.7251    0.0000 C   0  0  0  0  0  0  0  0  0  0  0  0
    4.3721   -2.5501    0.0000 O   0  0  0  0  0  0  0  0  0  0  0  0
    5.0866   -1.3126    0.0000 O   0  0  0  0  0  0  0  0  0  0  0  0
    5.8011   -1.7251    0.0000 C   0  0  0  0  0  0  0  0  0  0  0  0
    6.5155   -1.3126    0.0000 C   0  0  0  0  0  0  0  0  0  0  0  0
  1  2  1  0
  2  3  2  0
  2  7  1  0
  3  4  1  0
  4  5  2  0
  5  6  1  0
  5  8  1  0
  6  7  2  0
  8  9  1  0
  8 13  1  0
  9 10  1  0
 10 11  1  0
 11 12  1  0
 11 14  1  0
 12 13  1  0
 14 15  1  0
 15 16  1  0
 16 17  1  0
 17 18  1  0
 18 19  2  0
 18 23  1  0
 19 20  1  0
 20 21  2  0
 21 22  1  0
 21 24  1  0
 22 23  2  0
 24 25  2  0
 24 26  1  0
 26 27  1  0
 27 28  1  0
M  END
>  <DRUGBANK_ID>  (1) 
DB08013

>  <COMMON_NAME>  (1) 
(METHYLPYRIDAZINE PIPERIDINE PROPYLOXYPHENYL)ETHYLACETATE

>  <UNII>  (1) 
3GR7JE5BNH

$$$$
