
     RDKit          2D

 24 28  0  0  0  0  0  0  0  0999 V2000
   -1.4037    0.3477    0.0000 C   0  0  0  0  0  0  0  0  0  0  0  0
   -2.1182   -0.0646    0.0000 N   0  0  0  0  0  0  0  0  0  0  0  0
   -2.1182   -0.8897    0.0000 C   0  0  0  0  0  0  0  0  0  0  0  0
   -1.4037   -1.3021    0.0000 N   0  0  0  0  0  0  0  0  0  0  0  0
   -0.6893   -0.8897    0.0000 C   0  0  0  0  0  0  0  0  0  0  0  0
   -0.6893   -0.0646    0.0000 C   0  0  0  0  0  0  0  0  0  0  0  0
    0.0953    0.1903    0.0000 C   0  0  0  0  0  0  0  0  0  0  0  0
    0.0953   -1.1446    0.0000 N   0  0  0  0  0  0  0  0  0  0  0  0
    0.5802   -0.4771    0.0000 N   0  0  0  0  0  0  0  0  0  0  0  0
   -1.4037    1.1728    0.0000 N   0  0  0  0  0  0  0  0  0  0  0  0
    0.3089   -1.9416    0.0000 C   0  0  0  0  0  0  0  0  0  0  0  0
   -0.2014   -2.5896    0.0000 C   0  0  0  0  0  0  0  0  0  0  0  0
    0.2571   -3.2754    0.0000 C   0  0  0  0  0  0  0  0  0  0  0  0
    1.0511   -3.0511    0.0000 C   0  0  0  0  0  0  0  0  0  0  0  0
    1.0830   -2.2266    0.0000 C   0  0  0  0  0  0  0  0  0  0  0  0
    0.0050    2.3835    0.0000 N   0  0  0  0  0  0  0  0  0  0  0  0
   -0.2461    1.5976    0.0000 C   0  0  0  0  0  0  0  0  0  0  0  0
    0.3089    0.9872    0.0000 C   0  0  0  0  0  0  0  0  0  0  0  0
    1.1150    1.1625    0.0000 C   0  0  0  0  0  0  0  0  0  0  0  0
    1.3662    1.9484    0.0000 C   0  0  0  0  0  0  0  0  0  0  0  0
    0.8112    2.5588    0.0000 C   0  0  0  0  0  0  0  0  0  0  0  0
    1.2203    3.2754    0.0000 N   0  0  0  0  0  0  0  0  0  0  0  0
    2.1182    2.2876    0.0000 C   0  0  0  0  0  0  0  0  0  0  0  0
    2.0282    3.1077    0.0000 C   0  0  0  0  0  0  0  0  0  0  0  0
  1  2  2  0
  1  6  1  0
  1 10  1  0
  2  3  1  0
  3  4  2  0
  4  5  1  0
  5  8  1  0
  6  5  2  0
  7  6  1  0
  7  9  2  0
  7 18  1  0
  8  9  1  0
  8 11  1  0
 11 12  1  0
 11 15  1  0
 12 13  1  0
 13 14  1  0
 14 15  1  0
 16 17  2  0
 16 21  1  0
 17 18  1  0
 18 19  2  0
 19 20  1  0
 20 21  2  0
 20 23  1  0
 22 21  1  0
 22 24  1  0
 23 24  2  0
M  END
>  <DRUGBANK_ID>  (1) 
DB08052

>  <COMMON_NAME>  (1) 
PP-121

>  <CAS_NUMBER>  (1) 
1092788-83-4

>  <UNII>  (1) 
5B9VB06146

$$$$
