
     RDKit          2D

 22 24  0  0  0  0  0  0  0  0999 V2000
   -1.6689   -1.3136    0.0000 N   0  0  0  0  0  0  0  0  0  0  0  0
   -0.8483   -1.2274    0.0000 C   0  0  0  0  0  0  0  0  0  0  0  0
   -0.3634   -1.8948    0.0000 N   0  0  0  0  0  0  0  0  0  0  0  0
   -0.5129   -0.4736    0.0000 N   0  0  0  0  0  0  0  0  0  0  0  0
   -0.9977    0.1937    0.0000 C   0  0  0  0  0  0  0  0  0  0  0  0
   -1.8183    0.1075    0.0000 C   0  0  0  0  0  0  0  0  0  0  0  0
   -2.1537   -0.6462    0.0000 C   0  0  0  0  0  0  0  0  0  0  0  0
   -2.9742   -0.7324    0.0000 Cl  0  0  0  0  0  0  0  0  0  0  0  0
   -2.1538    0.8611    0.0000 N   0  0  0  0  0  0  0  0  0  0  0  0
   -1.5407    1.4131    0.0000 C   0  0  0  0  0  0  0  0  0  0  0  0
   -0.8263    1.0006    0.0000 N   0  0  0  0  0  0  0  0  0  0  0  0
    2.8559    1.8580    0.0000 C   0  0  0  0  0  0  0  0  0  0  0  0
    2.5972   -0.6033    0.0000 C   0  0  0  0  0  0  0  0  0  0  0  0
    1.4347    2.0074    0.0000 C   0  0  0  0  0  0  0  0  0  0  0  0
    1.1760   -0.4539    0.0000 C   0  0  0  0  0  0  0  0  0  0  0  0
   -0.0725    1.3362    0.0000 C   0  0  0  0  0  0  0  0  0  0  0  0
    0.5087    0.0308    0.0000 N   0  0  0  0  0  0  0  0  0  0  0  0
    2.7697    1.0376    0.0000 O   0  0  0  0  0  0  0  0  0  0  0  0
    1.9297   -0.1185    0.0000 C   0  0  0  0  0  0  0  0  0  0  0  0
    1.3484    1.1869    0.0000 C   0  0  0  0  0  0  0  0  0  0  0  0
    0.5948    0.8513    0.0000 C   0  0  0  0  0  0  0  0  0  0  0  0
    2.0159    0.7020    0.0000 C   0  0  0  0  0  0  0  0  0  0  0  0
  2  1  2  0
  2  3  1  0
  2  4  1  0
  5  4  2  0
  5  6  1  0
  5 11  1  0
  6  7  2  0
  6  9  1  0
  7  1  1  0
  7  8  1  0
 10  9  2  0
 10 11  1  0
 12 18  1  0
 13 19  1  0
 14 20  1  0
 15 17  2  0
 15 19  1  0
 16 11  1  0
 16 21  1  0
 19 22  2  0
 20 21  2  0
 20 22  1  0
 21 17  1  0
 22 18  1  0
M  END
>  <DRUGBANK_ID>  (1) 
DB12359

>  <COMMON_NAME>  (1) 
BIIB021

>  <CAS_NUMBER>  (1) 
848695-25-0

>  <UNII>  (1) 
851B9FQ7Q0

$$$$
