
     RDKit          2D

 19 20  0  0  0  0  0  0  0  0999 V2000
    3.5330   -2.0617    0.0000 C   0  0  0  0  0  0  0  0  0  0  0  0
    4.2475   -1.6492    0.0000 C   0  0  0  0  0  0  0  0  0  0  0  0
    4.9620   -2.0617    0.0000 C   0  0  0  0  0  0  0  0  0  0  0  0
    5.6764   -1.6492    0.0000 C   0  0  0  0  0  0  0  0  0  0  0  0
    6.3909   -2.0617    0.0000 C   0  0  0  0  0  0  0  0  0  0  0  0
    7.1054   -1.6492    0.0000 C   0  0  0  0  0  0  0  0  0  0  0  0
    7.8198   -2.0617    0.0000 O   0  0  0  0  0  0  0  0  0  0  0  0
    8.5343   -1.6492    0.0000 C   0  0  0  0  0  0  0  0  0  0  0  0
    8.6206   -0.8287    0.0000 N   0  0  0  0  0  0  0  0  0  0  0  0
    9.4275   -0.6572    0.0000 S   0  0  0  0  0  0  0  0  0  0  0  0
    9.8400   -1.3716    0.0000 N   0  0  0  0  0  0  0  0  0  0  0  0
    9.2880   -1.9847    0.0000 C   0  0  0  0  0  0  0  0  0  0  0  0
    9.4595   -2.7917    0.0000 C   0  0  0  0  0  0  0  0  0  0  0  0
   10.2441   -3.0466    0.0000 C   0  0  0  0  0  0  0  0  0  0  0  0
   10.4157   -3.8536    0.0000 C   0  0  0  0  0  0  0  0  0  0  0  0
    9.8026   -4.4056    0.0000 C   0  0  0  0  0  0  0  0  0  0  0  0
    9.0180   -4.1507    0.0000 N   0  0  0  0  0  0  0  0  0  0  0  0
    8.4049   -4.7027    0.0000 C   0  0  0  0  0  0  0  0  0  0  0  0
    8.8464   -3.3437    0.0000 C   0  0  0  0  0  0  0  0  0  0  0  0
  1  2  1  0
  2  3  1  0
  3  4  1  0
  4  5  1  0
  5  6  1  0
  6  7  1  0
  7  8  1  0
  8  9  2  0
  8 12  1  0
  9 10  1  0
 10 11  1  0
 11 12  2  0
 12 13  1  0
 13 14  2  0
 13 19  1  0
 14 15  1  0
 15 16  1  0
 16 17  1  0
 17 18  1  0
 17 19  1  0
M  END
>  <DRUGBANK_ID>  (1) 
DB15357

>  <COMMON_NAME>  (1) 
Xanomeline

>  <CAS_NUMBER>  (1) 
131986-45-3

>  <UNII>  (1) 
9ORI6L73CJ

>  <SYNONYMS>  (1) 
Xanomeline

$$$$
