BIP
     RDKit          2D

 13 13  0  0  0  0  0  0  0  0999 V2000
    1.5808    1.1185    0.0000 C   0  0  0  0  0  0  0  0  0  0  0  0
    1.5808    1.9435    0.0000 O   0  0  0  0  0  0  0  0  0  0  0  0
    2.2953    0.7060    0.0000 O   0  0  0  0  0  0  0  0  0  0  0  0
    0.8663    0.7060    0.0000 C   0  0  0  0  0  0  0  0  0  0  0  0
    0.1518    1.1185    0.0000 C   0  0  0  0  0  0  0  0  0  0  0  0
   -0.5626    0.7060    0.0000 I   0  0  0  0  0  0  0  0  0  0  0  0
    0.8663   -0.1190    0.0000 C   0  0  0  0  0  0  0  0  0  0  0  0
    0.1518   -0.5315    0.0000 C   0  0  0  0  0  0  0  0  0  0  0  0
    0.1518   -1.3565    0.0000 C   0  0  0  0  0  0  0  0  0  0  0  0
   -0.5626   -1.7690    0.0000 C   0  0  0  0  0  0  0  0  0  0  0  0
   -1.2771   -1.3565    0.0000 C   0  0  0  0  0  0  0  0  0  0  0  0
   -1.2771   -0.5315    0.0000 C   0  0  0  0  0  0  0  0  0  0  0  0
   -0.5626   -0.1190    0.0000 C   0  0  0  0  0  0  0  0  0  0  0  0
  1  2  2  0
  1  3  1  0
  1  4  1  0
  4  5  1  1
  4  7  1  0
  5  6  1  0
  7  8  1  0
  8  9  2  0
  8 13  1  0
  9 10  1  0
 10 11  2  0
 11 12  1  0
 12 13  2  0
M  END
>  <DRUGBANK_ID>  (1) 
DB03441

>  <SECONDARY_ACCESSION_NUMBERS>  (1) 
EXPT00709

>  <COMMON_NAME>  (1) 
2-Benzyl-3-Iodopropanoic Acid

$$$$
