
     RDKit          2D

 33 35  0  0  1  0  0  0  0  0999 V2000
    4.5079    0.3630    0.0000 O   0  0  0  0  0  0  0  0  0  0  0  0
    5.2223    1.6005    0.0000 O   0  0  0  0  0  0  0  0  0  0  0  0
    1.6500    0.3630    0.0000 O   0  0  0  0  0  0  0  0  0  0  0  0
    2.3645   -5.8245    0.0000 O   0  0  0  0  0  0  0  0  0  0  0  0
    3.0790    0.3630    0.0000 N   0  0  0  0  0  0  0  0  0  0  0  0
    5.9369    5.3130    0.0000 N   0  0  0  0  0  0  0  0  0  0  0  0
    4.5079    5.3130    0.0000 N   0  0  0  0  0  0  0  0  0  0  0  0
    2.3645   -4.9995    0.0000 N   0  0  0  0  0  0  0  0  0  0  0  0
    3.7934    1.6005    0.0000 C   0  0  0  0  0  0  0  0  0  0  0  0
    3.0790    1.1880    0.0000 C   0  0  0  0  0  0  0  0  0  0  0  0
    3.7934    2.4255    0.0000 C   0  0  0  0  0  0  0  0  0  0  0  0
    2.3645    1.6005    0.0000 C   0  0  0  0  0  0  0  0  0  0  0  0
    4.5079    2.8380    0.0000 C   0  0  0  0  0  0  0  0  0  0  0  0
    4.5079    1.1880    0.0000 C   0  0  0  0  0  0  0  0  0  0  0  0
    4.5079    3.6630    0.0000 C   0  0  0  0  0  0  0  0  0  0  0  0
    2.3645   -0.0495    0.0000 C   0  0  0  0  0  0  0  0  0  0  0  0
    5.2223    2.4255    0.0000 C   0  0  0  0  0  0  0  0  0  0  0  0
    5.2223    4.0755    0.0000 C   0  0  0  0  0  0  0  0  0  0  0  0
    2.3645   -0.8745    0.0000 C   0  0  0  0  0  0  0  0  0  0  0  0
    5.9369    2.8380    0.0000 C   0  0  0  0  0  0  0  0  0  0  0  0
    5.9369    3.6630    0.0000 C   0  0  0  0  0  0  0  0  0  0  0  0
    1.6500   -1.2870    0.0000 C   0  0  0  0  0  0  0  0  0  0  0  0
    3.0790   -1.2870    0.0000 C   0  0  0  0  0  0  0  0  0  0  0  0
    2.3645   -2.5245    0.0000 C   0  0  0  0  0  0  0  0  0  0  0  0
    5.2223    4.9005    0.0000 C   0  0  0  0  0  0  0  0  0  0  0  0
    5.2223   -0.0495    0.0000 C   0  0  0  0  0  0  0  0  0  0  0  0
    1.6500   -2.1120    0.0000 C   0  0  0  0  0  0  0  0  0  0  0  0
    3.0790   -2.1120    0.0000 C   0  0  0  0  0  0  0  0  0  0  0  0
    2.3645   -3.3495    0.0000 C   0  0  0  0  0  0  0  0  0  0  0  0
    3.0790   -3.7620    0.0000 C   0  0  0  0  0  0  0  0  0  0  0  0
    1.6500   -3.7620    0.0000 C   0  0  0  0  0  0  0  0  0  0  0  0
    3.0790   -4.5870    0.0000 C   0  0  0  0  0  0  0  0  0  0  0  0
    1.6500   -4.5870    0.0000 C   0  0  0  0  0  0  0  0  0  0  0  0
  1 14  1  0
  1 26  1  0
  2 14  2  0
  3 16  2  0
  4  8  1  0
  5 16  1  0
  6 25  1  0
  7 25  2  0
  8 32  2  0
  8 33  1  0
  9 10  1  0
  9 11  1  1
  9 14  1  0
 10  5  1  0
 10 12  1  6
 11 13  1  0
 13 15  2  0
 13 17  1  0
 15 18  1  0
 16 19  1  0
 17 20  2  0
 18 21  2  0
 18 25  1  0
 19 22  2  0
 19 23  1  0
 20 21  1  0
 22 27  1  0
 23 28  2  0
 24 27  2  0
 24 28  1  0
 24 29  1  0
 29 30  2  0
 29 31  1  0
 30 32  1  0
 31 33  2  0
M  CHG  2   4  -1   8   1
M  END
>  <DRUGBANK_ID>  (1) 
DB06635

>  <COMMON_NAME>  (1) 
Otamixaban

>  <CAS_NUMBER>  (1) 
193153-04-7

>  <UNII>  (1) 
S173RED00L

>  <SYNONYMS>  (1) 
Otamixaban

$$$$
