2TY
     RDKit          2D

 23 24  0  0  0  0  0  0  0  0999 V2000
    4.4918   -0.7029    0.0000 N   0  0  0  0  0  0  0  0  0  0  0  0
    3.7774   -0.2904    0.0000 C   0  0  0  0  0  0  0  0  0  0  0  0
    3.0629   -0.7029    0.0000 C   0  0  0  0  0  0  0  0  0  0  0  0
    3.7774    0.5346    0.0000 C   0  0  0  0  0  0  0  0  0  0  0  0
    4.4918    0.9471    0.0000 O   0  0  0  0  0  0  0  0  0  0  0  0
    3.0629   -1.5279    0.0000 C   0  0  0  0  0  0  0  0  0  0  0  0
    3.7774   -1.9404    0.0000 C   0  0  0  0  0  0  0  0  0  0  0  0
    4.4918   -1.5279    0.0000 O   0  0  0  0  0  0  0  0  0  0  0  0
    3.7774   -2.7654    0.0000 C   0  0  0  0  0  0  0  0  0  0  0  0
    2.3484   -1.9404    0.0000 C   0  0  0  0  0  0  0  0  0  0  0  0
    2.3484   -2.7654    0.0000 C   0  0  0  0  0  0  0  0  0  0  0  0
    1.6339   -3.1779    0.0000 N   0  0  0  0  0  0  0  0  0  0  0  0
    3.0629   -3.1779    0.0000 C   0  0  0  0  0  0  0  0  0  0  0  0
    3.0629   -4.0029    0.0000 O   0  0  0  0  0  0  0  0  0  0  0  0
   -0.5095   -2.7654    0.0000 C   0  0  0  0  0  0  0  0  0  0  0  0
   -1.2239   -3.1779    0.0000 C   0  0  0  0  0  0  0  0  0  0  0  0
   -1.9384   -2.7654    0.0000 C   0  0  0  0  0  0  0  0  0  0  0  0
   -1.9384   -1.9404    0.0000 C   0  0  0  0  0  0  0  0  0  0  0  0
   -1.2239   -1.5279    0.0000 C   0  0  0  0  0  0  0  0  0  0  0  0
   -0.5095   -1.9404    0.0000 C   0  0  0  0  0  0  0  0  0  0  0  0
    0.2050   -3.1779    0.0000 C   0  0  0  0  0  0  0  0  0  0  0  0
    0.9195   -2.7654    0.0000 C   0  0  0  0  0  0  0  0  0  0  0  0
    3.0629    0.9471    0.0000 O   0  0  0  0  0  0  0  0  0  0  0  0
  2  1  1  1
  2  3  1  0
  2  4  1  0
  3  6  1  0
  4  5  2  0
  4 23  1  0
  6  7  2  0
  6 10  1  0
  7  8  1  0
  7  9  1  0
  9 13  2  0
 10 11  2  0
 11 12  1  0
 11 13  1  0
 12 22  2  0
 13 14  1  0
 15 16  2  0
 15 20  1  0
 15 21  1  0
 16 17  1  0
 17 18  2  0
 18 19  1  0
 19 20  2  0
 21 22  1  0
M  END
>  <DRUGBANK_ID>  (1) 
DB06988

>  <COMMON_NAME>  (1) 
2-HYDROXY-5-{[(1E)-2-PHENYLETHYLIDENE]AMINO}-L-TYROSINE

$$$$
