
     RDKit          2D

 15 15  0  0  0  0  0  0  0  0999 V2000
   -3.5724    3.7125    0.0000 C   0  0  0  0  0  0  0  0  0  0  0  0
   -2.8579    4.1250    0.0000 C   0  0  0  0  0  0  0  0  0  0  0  0
   -2.1434    3.7125    0.0000 C   0  0  0  0  0  0  0  0  0  0  0  0
    2.1434    3.7125    0.0000 C   0  0  0  0  0  0  0  0  0  0  0  0
    1.4289    4.9500    0.0000 C   0  0  0  0  0  0  0  0  0  0  0  0
    2.8579    4.1250    0.0000 C   0  0  0  0  0  0  0  0  0  0  0  0
    2.1434    5.3625    0.0000 C   0  0  0  0  0  0  0  0  0  0  0  0
   -1.4289    4.1250    0.0000 C   0  0  0  0  0  0  0  0  0  0  0  0
    0.0000    4.1250    0.0000 C   0  0  0  0  0  0  0  0  0  0  0  0
    1.4289    4.1250    0.0000 C   0  0  0  0  0  0  0  0  0  0  0  0
    2.8579    4.9500    0.0000 C   0  0  0  0  0  0  0  0  0  0  0  0
    0.7145    3.7125    0.0000 C   0  0  0  0  0  0  0  0  0  0  0  0
   -0.7145    3.7125    0.0000 N   0  0  0  0  0  0  0  0  0  0  0  0
    3.5724    5.3625    0.0000 O   0  0  0  0  0  0  0  0  0  0  0  0
    0.7145    2.8875    0.0000 O   0  0  0  0  0  0  0  0  0  0  0  0
  2  1  1  0
  3  2  1  0
  6  4  2  0
  7  5  1  0
  8  3  1  0
 10  4  1  0
 10  5  2  0
 11  6  1  0
 11  7  2  0
 12  9  1  0
 12 10  1  0
 13  8  1  0
 13  9  1  0
 14 11  1  0
 15 12  1  0
M  END
>  <DRUGBANK_ID>  (1) 
DB13206

>  <COMMON_NAME>  (1) 
Bamethan

>  <CAS_NUMBER>  (1) 
3703-79-5

>  <UNII>  (1) 
Y08ZFJ9TFK

>  <SYNONYMS>  (1) 
1-(4-Hydroxyphenyl)-1-hydroxy-2-butylaminoethane; 1-(p-Hydroxyphenyl)-2-butylaminoethanol; 2-Butylamino-1-p-hydroxyphenylethanol; Bametano; Bamethan; Bamethane; Bamethanum; N-Butylnorsynephrine

$$$$
