80G
     RDKit          2D

 13 14  0  0  0  0  0  0  0  0999 V2000
   -0.2257   -0.3611    0.0000 C   0  0  0  0  0  0  0  0  0  0  0  0
    0.4887    0.0514    0.0000 C   0  0  0  0  0  0  0  0  0  0  0  0
    0.4887    0.8764    0.0000 C   0  0  0  0  0  0  0  0  0  0  0  0
   -0.2257    1.2889    0.0000 C   0  0  0  0  0  0  0  0  0  0  0  0
   -0.9402    0.8764    0.0000 C   0  0  0  0  0  0  0  0  0  0  0  0
   -0.9402    0.0514    0.0000 C   0  0  0  0  0  0  0  0  0  0  0  0
   -0.2257   -1.1861    0.0000 C   0  0  0  0  0  0  0  0  0  0  0  0
    0.1868   -2.4557    0.0000 C   0  0  0  0  0  0  0  0  0  0  0  0
   -0.6382   -2.4557    0.0000 C   0  0  0  0  0  0  0  0  0  0  0  0
   -0.8932   -1.6711    0.0000 C   0  0  0  0  0  0  0  0  0  0  0  0
   -0.2257    2.1139    0.0000 C   0  0  0  0  0  0  0  0  0  0  0  0
   -0.9402    2.5264    0.0000 N   0  0  0  0  0  0  0  0  0  0  0  0
    0.4417   -1.6711    0.0000 S   0  0  0  0  0  0  0  0  0  0  0  0
  1  6  1  0
  1  7  1  0
  2  1  2  0
  3  2  1  0
  3  4  2  0
  4  5  1  0
  5  6  2  0
  7 13  1  0
  7 10  2  0
  8  9  2  0
 10  9  1  0
 11  4  1  0
 11 12  1  0
 13  8  1  0
M  END
>  <DRUGBANK_ID>  (1) 
DB07259

>  <COMMON_NAME>  (1) 
1-(4-thiophen-2-ylphenyl)methanamine

$$$$
