
     RDKit          2D

 34 34  0  0  1  0  0  0  0  0999 V2000
   -3.1982   -3.7582    0.0000 C   0  0  0  0  0  0  0  0  0  0  0  0
   -2.4136   -3.5033    0.0000 C   0  0  0  0  0  0  0  0  0  0  0  0
   -2.2420   -2.6963    0.0000 C   0  0  0  0  0  0  0  0  0  0  0  0
   -1.4574   -2.4414    0.0000 C   0  0  0  0  0  0  0  0  0  0  0  0
   -1.2859   -1.6344    0.0000 C   0  0  0  0  0  0  0  0  0  0  0  0
   -0.5013   -1.3794    0.0000 C   0  0  0  0  0  0  0  0  0  0  0  0
    0.1118   -1.9315    0.0000 O   0  0  0  0  0  0  0  0  0  0  0  0
   -0.3298   -0.5725    0.0000 C   0  0  0  0  0  0  0  0  0  0  0  0
    0.4549   -0.3175    0.0000 C   0  0  0  0  0  0  0  0  0  0  0  0
    0.6264    0.4894    0.0000 C   0  0  0  0  0  0  0  0  0  0  0  0
    0.0744    1.1025    0.0000 C   0  0  0  0  0  0  0  0  0  0  0  0
   -0.7461    1.0163    0.0000 O   0  0  0  0  0  0  0  0  0  0  0  0
    0.4869    1.8170    0.0000 C   0  0  0  0  0  0  0  0  0  0  0  0
    1.2938    1.6455    0.0000 C   0  0  0  0  0  0  0  0  0  0  0  0
    1.9069    2.1975    0.0000 O   0  0  0  0  0  0  0  0  0  0  0  0
    1.7354    3.0045    0.0000 C   0  0  0  0  0  0  0  0  0  0  0  0
    0.9508    3.2594    0.0000 O   0  0  0  0  0  0  0  0  0  0  0  0
    2.3485    3.5565    0.0000 C   0  0  0  0  0  0  0  0  0  0  0  0
    2.1770    4.3635    0.0000 C   0  0  0  0  0  0  0  0  0  0  0  0
    2.7901    4.9155    0.0000 C   0  0  0  0  0  0  0  0  0  0  0  0
    1.3801    0.8250    0.0000 C   0  0  0  0  0  0  0  0  0  0  0  0
    2.0945    0.4125    0.0000 C   0  0  0  0  0  0  0  0  0  0  0  0
    2.8090    0.8250    0.0000 C   0  0  0  0  0  0  0  0  0  0  0  0
    3.5235    0.4125    0.0000 C   0  0  0  0  0  0  0  0  0  0  0  0
    4.2380    0.8250    0.0000 C   0  0  0  0  0  0  0  0  0  0  0  0
    4.9524    0.4125    0.0000 C   0  0  0  0  0  0  0  0  0  0  0  0
    5.6669    0.8250    0.0000 C   0  0  0  0  0  0  0  0  0  0  0  0
    6.3814    0.4125    0.0000 C   0  0  0  0  0  0  0  0  0  0  0  0
    6.3814   -0.4125    0.0000 O   0  0  0  0  0  0  0  0  0  0  0  0
    7.0958    0.8250    0.0000 O   0  0  0  0  0  0  0  0  0  0  0  0
    7.8103    0.4125    0.0000 C   0  0  0  0  0  0  0  0  0  0  0  0
    8.5248    0.8250    0.0000 C   0  0  0  0  0  0  0  0  0  0  0  0
    9.2393    0.4125    0.0000 C   0  0  0  0  0  0  0  0  0  0  0  0
    9.9537    0.8250    0.0000 C   0  0  0  0  0  0  0  0  0  0  0  0
  1  2  1  0
  2  3  1  0
  3  4  1  0
  4  5  1  0
  6  5  1  0
  6  7  1  1
  6  8  1  0
  8  9  2  0
 10  9  1  1
 10 11  1  0
 10 21  1  0
 11 12  1  6
 11 13  1  0
 13 14  1  0
 14 15  1  0
 14 21  2  0
 15 16  1  0
 16 17  2  0
 16 18  1  0
 18 19  1  0
 19 20  1  0
 21 22  1  0
 22 23  1  0
 23 24  1  0
 24 25  1  0
 25 26  1  0
 26 27  1  0
 27 28  1  0
 28 29  2  0
 28 30  1  0
 30 31  1  0
 31 32  1  0
 32 33  1  0
 33 34  1  0
M  END
>  <DRUGBANK_ID>  (1) 
DB16148

>  <COMMON_NAME>  (1) 
Ecraprost

>  <CAS_NUMBER>  (1) 
136892-64-3

>  <UNII>  (1) 
Q2XM6VR8DO

>  <SYNONYMS>  (1) 
Circulase; Ecraprost

$$$$
