
     RDKit          2D

 18 19  0  0  0  0  0  0  0  0999 V2000
   -0.3771    0.7518    0.0000 O   0  0  0  0  0  0  0  0  0  0  0  0
   -0.2339   -1.4895    0.0000 O   0  0  0  0  0  0  0  0  0  0  0  0
   -1.6146   -1.3915    0.0000 O   0  0  0  0  0  0  0  0  0  0  0  0
   -2.4397    0.0374    0.0000 O   0  0  0  0  0  0  0  0  0  0  0  0
    0.2653    1.4895    0.0000 O   0  0  0  0  0  0  0  0  0  0  0  0
   -2.4397    1.4663    0.0000 O   0  0  0  0  0  0  0  0  0  0  0  0
    1.9724   -0.8600    0.0000 O   0  0  0  0  0  0  0  0  0  0  0  0
    0.5202   -0.6300    0.0000 N   0  0  0  0  0  0  0  0  0  0  0  0
    1.3048    0.4499    0.0000 N   0  0  0  0  0  0  0  0  0  0  0  0
    1.9724    0.9348    0.0000 N   0  0  0  0  0  0  0  0  0  0  0  0
    0.0353    0.0374    0.0000 C   0  0  0  0  0  0  0  0  0  0  0  0
   -0.3771   -0.6770    0.0000 C   0  0  0  0  0  0  0  0  0  0  0  0
   -1.2021   -0.6770    0.0000 C   0  0  0  0  0  0  0  0  0  0  0  0
   -1.6146    0.0374    0.0000 C   0  0  0  0  0  0  0  0  0  0  0  0
   -1.2021    0.7518    0.0000 C   0  0  0  0  0  0  0  0  0  0  0  0
    0.5202    0.7048    0.0000 C   0  0  0  0  0  0  0  0  0  0  0  0
   -1.6146    1.4663    0.0000 C   0  0  0  0  0  0  0  0  0  0  0  0
    1.3048   -0.3750    0.0000 C   0  0  0  0  0  0  0  0  0  0  0  0
  1 15  1  0
  5 16  2  0
  6 17  1  0
  7 18  2  0
 11  8  1  1
  8 18  1  0
  9 10  1  0
  9 16  1  0
  9 18  1  0
 11  1  1  0
 11 12  1  0
 11 16  1  0
 12  2  1  6
 12 13  1  0
 13  3  1  1
 13 14  1  0
 14  4  1  6
 14 15  1  0
 15 17  1  1
M  END
>  <DRUGBANK_ID>  (1) 
DB01843

>  <SECONDARY_ACCESSION_NUMBERS>  (1) 
EXPT01596

>  <COMMON_NAME>  (1) 
(5S,7R,8S,9S,10R)-3-Amino-8,9,10-trihydroxy-7-(hydroxymethyl)-6-oxa-1,3-diazaspiro[4.5]decane-2,4-dione

$$$$
