DMC
     RDKit          2D

 18 18  0  0  0  0  0  0  0  0999 V2000
    2.6147    2.8666    0.0000 O   0  0  0  0  0  0  0  0  0  0  0  0
    2.6147    2.0416    0.0000 C   0  0  0  0  0  0  0  0  0  0  0  0
    1.9002    1.6291    0.0000 C   0  0  0  0  0  0  0  0  0  0  0  0
    1.9002    0.8041    0.0000 C   0  0  0  0  0  0  0  0  0  0  0  0
    1.1858    2.0416    0.0000 C   0  0  0  0  0  0  0  0  0  0  0  0
    1.1858    0.3916    0.0000 C   0  0  0  0  0  0  0  0  0  0  0  0
    1.1858   -0.4334    0.0000 C   0  0  0  0  0  0  0  0  0  0  0  0
    0.4713   -0.8459    0.0000 C   0  0  0  0  0  0  0  0  0  0  0  0
   -0.2432   -0.4334    0.0000 C   0  0  0  0  0  0  0  0  0  0  0  0
   -0.2432    0.3916    0.0000 C   0  0  0  0  0  0  0  0  0  0  0  0
    0.4713    0.8041    0.0000 C   0  0  0  0  0  0  0  0  0  0  0  0
    1.9002   -0.8459    0.0000 O   0  0  0  0  0  0  0  0  0  0  0  0
   -0.9576   -0.8459    0.0000 N   0  0  0  0  0  0  0  0  0  0  0  0
   -1.6721   -0.4334    0.0000 C   0  0  0  0  0  0  0  0  0  0  0  0
   -0.9576   -1.6709    0.0000 C   0  0  0  0  0  0  0  0  0  0  0  0
   -2.3866   -0.8459    0.0000 C   0  0  0  0  0  0  0  0  0  0  0  0
   -1.6721   -2.0834    0.0000 C   0  0  0  0  0  0  0  0  0  0  0  0
    3.3292    1.6291    0.0000 O   0  0  0  0  0  0  0  0  0  0  0  0
  1  2  2  0
  2  3  1  0
  2 18  1  0
  3  4  2  0
  3  5  1  0
  4  6  1  0
  6  7  2  0
  6 11  1  0
  7  8  1  0
  7 12  1  0
  8  9  2  0
  9 10  1  0
  9 13  1  0
 10 11  2  0
 13 14  1  0
 13 15  1  0
 14 16  1  0
 15 17  1  0
M  END
>  <DRUGBANK_ID>  (1) 
DB07668

>  <COMMON_NAME>  (1) 
alpha-Methyl-2-hydroxy-4-diethylaminocinnamic acid

>  <CAS_NUMBER>  (1) 
125769-41-7

>  <UNII>  (1) 
GLA35OJ8JH

>  <SYNONYMS>  (1) 
3-(4-diethylamino-2-hydroxy-phenyl)-2-methyl-propionic acid; alpha-MHDAC

$$$$
