
     RDKit          2D

 23 25  0  0  0  0  0  0  0  0999 V2000
   -3.2151   -1.9115    0.0000 C   0  0  0  0  0  0  0  0  0  0  0  0
   -2.5006   -1.4990    0.0000 C   0  0  0  0  0  0  0  0  0  0  0  0
   -2.0881   -2.2134    0.0000 C   0  0  0  0  0  0  0  0  0  0  0  0
   -2.9131   -0.7845    0.0000 C   0  0  0  0  0  0  0  0  0  0  0  0
   -1.7861   -1.0865    0.0000 C   0  0  0  0  0  0  0  0  0  0  0  0
   -1.7861   -0.2615    0.0000 C   0  0  0  0  0  0  0  0  0  0  0  0
   -1.0717    0.1509    0.0000 C   0  0  0  0  0  0  0  0  0  0  0  0
   -0.3572   -0.2615    0.0000 C   0  0  0  0  0  0  0  0  0  0  0  0
   -0.3572   -1.0865    0.0000 C   0  0  0  0  0  0  0  0  0  0  0  0
   -1.0717   -1.4990    0.0000 C   0  0  0  0  0  0  0  0  0  0  0  0
    0.3572    0.1509    0.0000 C   0  0  0  0  0  0  0  0  0  0  0  0
    0.3572    0.9759    0.0000 C   0  0  0  0  0  0  0  0  0  0  0  0
    1.0717    1.3884    0.0000 C   0  0  0  0  0  0  0  0  0  0  0  0
    1.0717    2.2134    0.0000 O   0  0  0  0  0  0  0  0  0  0  0  0
    1.7861    0.9759    0.0000 C   0  0  0  0  0  0  0  0  0  0  0  0
    2.5006    1.3884    0.0000 C   0  0  0  0  0  0  0  0  0  0  0  0
    3.2151    0.9759    0.0000 C   0  0  0  0  0  0  0  0  0  0  0  0
    3.2151    0.1509    0.0000 C   0  0  0  0  0  0  0  0  0  0  0  0
    2.5006   -0.2615    0.0000 C   0  0  0  0  0  0  0  0  0  0  0  0
    1.7861    0.1509    0.0000 C   0  0  0  0  0  0  0  0  0  0  0  0
    1.0717   -0.2615    0.0000 C   0  0  0  0  0  0  0  0  0  0  0  0
    1.0717   -1.0865    0.0000 O   0  0  0  0  0  0  0  0  0  0  0  0
   -0.3572    1.3884    0.0000 O   0  0  0  0  0  0  0  0  0  0  0  0
  1  2  1  0
  2  3  1  0
  2  4  1  0
  2  5  1  0
  5  6  1  0
  5 10  1  0
  6  7  1  0
  7  8  1  0
  8  9  1  0
  8 11  1  0
  9 10  1  0
 11 12  2  0
 11 21  1  0
 12 13  1  0
 12 23  1  0
 13 14  2  0
 13 15  1  0
 15 16  2  0
 15 20  1  0
 16 17  1  0
 17 18  2  0
 18 19  1  0
 19 20  2  0
 20 21  1  0
 21 22  2  0
M  END
>  <DRUGBANK_ID>  (1) 
DB06740

>  <COMMON_NAME>  (1) 
BW-A 58C

>  <CAS_NUMBER>  (1) 
94015-46-0

>  <SYNONYMS>  (1) 
2-(4-(1,1-Dimethylethyl)cyclohexyl)-3-hydroxy-1,4-naphthalenedione; 2-(4-tert-butylcyclohexyl)-3-hydroxy-1,4-naphthoquinone; 2-(4'-t-Butylcyclohexyl)-3-hydroxy-1,4-naphthoquinone; 2-[4-(1,1-Dimethylethyl)cyclohexyl]-3-hydroxy-1,4-naphthalenedione

$$$$
