
     RDKit          2D

 29 30  0  0  0  0  0  0  0  0999 V2000
   -1.2421    0.5418    0.0000 C   0  0  0  0  0  0  0  0  0  0  0  0
   -0.8281    1.2554    0.0000 O   0  0  0  0  0  0  0  0  0  0  0  0
   -0.8281   -0.1717    0.0000 C   0  0  0  0  0  0  0  0  0  0  0  0
   -0.1145    0.2422    0.0000 N   0  0  0  0  0  0  0  0  0  0  0  0
   -1.5417   -0.5858    0.0000 C   0  0  0  0  0  0  0  0  0  0  0  0
   -1.5417   -1.4139    0.0000 O   0  0  0  0  0  0  0  0  0  0  0  0
   -2.2553   -1.8280    0.0000 C   0  0  0  0  0  0  0  0  0  0  0  0
   -2.9776   -1.4139    0.0000 C   0  0  0  0  0  0  0  0  0  0  0  0
   -2.9776   -0.5858    0.0000 C   0  0  0  0  0  0  0  0  0  0  0  0
   -3.6912   -0.1717    0.0000 C   0  0  0  0  0  0  0  0  0  0  0  0
   -2.2553   -0.1717    0.0000 N   0  0  0  0  0  0  0  0  0  0  0  0
   -3.6912   -1.8280    0.0000 C   0  0  0  0  0  0  0  0  0  0  0  0
    0.6695   -0.0484    0.0000 C   0  0  0  0  0  0  0  0  0  0  0  0
    0.8104   -0.8589    0.0000 O   0  0  0  0  0  0  0  0  0  0  0  0
    1.2949    0.4889    0.0000 C   0  0  0  0  0  0  0  0  0  0  0  0
    2.0790    0.2070    0.0000 C   0  0  0  0  0  0  0  0  0  0  0  0
    2.7045    0.7355    0.0000 C   0  0  0  0  0  0  0  0  0  0  0  0
    3.4886    0.4537    0.0000 C   0  0  0  0  0  0  0  0  0  0  0  0
    3.6295   -0.3655    0.0000 C   0  0  0  0  0  0  0  0  0  0  0  0
    4.4048   -0.6475    0.0000 O   0  0  0  0  0  0  0  0  0  0  0  0
    2.9952   -0.8941    0.0000 C   0  0  0  0  0  0  0  0  0  0  0  0
    2.2200   -0.6122    0.0000 C   0  0  0  0  0  0  0  0  0  0  0  0
    1.1540    1.2994    0.0000 C   0  0  0  0  0  0  0  0  0  0  0  0
    1.7883    1.8280    0.0000 O   0  0  0  0  0  0  0  0  0  0  0  0
    0.3788    1.5813    0.0000 O   0  0  0  0  0  0  0  0  0  0  0  0
   -0.4140   -0.8941    0.0000 O   0  0  0  0  0  0  0  0  0  0  0  0
   -0.8281   -1.6077    0.0000 C   0  0  0  0  0  0  0  0  0  0  0  0
   -4.4048   -0.5858    0.0000 O   0  0  0  0  0  0  0  0  0  0  0  0
   -3.6912    0.6475    0.0000 O   0  0  0  0  0  0  0  0  0  0  0  0
  1  2  2  0
  3  1  1  6
  3  4  1  0
  3 26  1  0
  3  5  1  0
  4 13  1  0
  5  6  1  0
  5 11  1  1
  6  7  1  0
  7  8  1  0
  8  9  1  0
  8 12  2  0
  9 11  2  0
  9 10  1  0
 10 28  2  0
 10 29  1  0
 15 13  1  1
 13 14  2  0
 15 16  1  0
 15 23  1  0
 16 17  2  0
 16 22  1  0
 17 18  1  0
 18 19  2  0
 19 20  1  0
 19 21  1  0
 21 22  2  0
 23 25  1  0
 23 24  2  0
 26 27  1  0
M  END
>  <DRUGBANK_ID>  (1) 
DB02588

>  <SECONDARY_ACCESSION_NUMBERS>  (1) 
EXPT02215

>  <COMMON_NAME>  (1) 
(2R)-2-[(1R)-1-{[(2S)-2-Carboxy-2-(4-hydroxyphenyl)acetyl]amino}-1-methoxy-2-oxoethyl]-5-methylene-5,6-dihydro-2H-1,3-oxazine-4-carboxylic acid

$$$$
