
     RDKit          2D

 18 17  0  0  1  0  0  0  0  0999 V2000
   -1.6500    0.0000    0.0000 C   0  0  0  0  0  0  0  0  0  0  0  0
   -2.4750    0.0000    0.0000 C   0  0  0  0  0  0  0  0  0  0  0  0
   -1.2375    0.7145    0.0000 C   0  0  0  0  0  0  0  0  0  0  0  0
   -2.8875   -0.7145    0.0000 C   0  0  0  0  0  0  0  0  0  0  0  0
   -0.0000    1.4289    0.0000 C   0  0  0  0  0  0  0  0  0  0  0  0
    2.0625   -0.7145    0.0000 C   0  0  0  0  0  0  0  0  0  0  0  0
    0.8250    1.4289    0.0000 C   0  0  0  0  0  0  0  0  0  0  0  0
    1.2375   -0.7145    0.0000 C   0  0  0  0  0  0  0  0  0  0  0  0
    2.0625    2.1434    0.0000 C   0  0  0  0  0  0  0  0  0  0  0  0
   -0.4125    0.7145    0.0000 C   0  0  0  0  0  0  0  0  0  0  0  0
   -3.7125   -0.7145    0.0000 C   0  0  0  0  0  0  0  0  0  0  0  0
    2.4750    2.8579    0.0000 N   0  0  0  0  0  0  0  0  0  0  0  0
    2.4750   -1.4289    0.0000 O   0  0  0  0  0  0  0  0  0  0  0  0
   -4.1250   -1.4289    0.0000 O   0  0  0  0  0  0  0  0  0  0  0  0
   -4.1250    0.0000    0.0000 O   0  0  0  0  0  0  0  0  0  0  0  0
    1.2375    2.1434    0.0000 S   0  0  0  0  0  0  0  0  0  0  0  0
    0.8250    0.0000    0.0000 S   0  0  0  0  0  0  0  0  0  0  0  0
   -0.0000    0.0000    0.0000 S   0  0  0  0  0  0  0  0  0  0  0  0
  2  1  1  0
  3  1  1  0
  4  2  1  0
  7  5  1  0
  8  6  1  0
 10  3  1  1
 10  5  1  0
 10 18  1  0
 11  4  1  0
 12  9  1  0
 13  6  1  0
 14 11  2  0
 15 11  1  0
 16  7  1  0
 16  9  1  0
 17  8  1  0
 18 17  1  0
M  END
>  <DRUGBANK_ID>  (1) 
DB03187

>  <SECONDARY_ACCESSION_NUMBERS>  (1) 
EXPT02450

>  <COMMON_NAME>  (1) 
6-(Hydroxyethyldithio)-8-(Aminomethylthio)Octanoic Acid

$$$$
