566
     RDKit          2D

 21 23  0  0  0  0  0  0  0  0999 V2000
    2.8545   -0.1713    0.0000 C   0  0  0  0  0  0  0  0  0  0  0  0
    2.0699   -0.4263    0.0000 C   0  0  0  0  0  0  0  0  0  0  0  0
    1.4568    0.1258    0.0000 C   0  0  0  0  0  0  0  0  0  0  0  0
    1.6283    0.9327    0.0000 C   0  0  0  0  0  0  0  0  0  0  0  0
    2.4129    1.1877    0.0000 C   0  0  0  0  0  0  0  0  0  0  0  0
    3.0260    0.6356    0.0000 C   0  0  0  0  0  0  0  0  0  0  0  0
    0.4172   -0.9138    0.0000 C   0  0  0  0  0  0  0  0  0  0  0  0
   -0.4078   -0.9138    0.0000 C   0  0  0  0  0  0  0  0  0  0  0  0
   -0.6627   -0.1292    0.0000 C   0  0  0  0  0  0  0  0  0  0  0  0
    0.0047    0.3557    0.0000 C   0  0  0  0  0  0  0  0  0  0  0  0
    0.6722   -0.1292    0.0000 N   0  0  0  0  0  0  0  0  0  0  0  0
   -3.4581   -0.7234    0.0000 C   0  0  0  0  0  0  0  0  0  0  0  0
   -4.2428   -0.4684    0.0000 C   0  0  0  0  0  0  0  0  0  0  0  0
   -4.4143    0.3385    0.0000 C   0  0  0  0  0  0  0  0  0  0  0  0
   -3.8012    0.8906    0.0000 C   0  0  0  0  0  0  0  0  0  0  0  0
   -3.0166    0.6356    0.0000 C   0  0  0  0  0  0  0  0  0  0  0  0
   -2.8450   -0.1713    0.0000 C   0  0  0  0  0  0  0  0  0  0  0  0
   -1.4473    0.1258    0.0000 C   0  0  0  0  0  0  0  0  0  0  0  0
   -2.0604   -0.4263    0.0000 N   0  0  0  0  0  0  0  0  0  0  0  0
   -1.6189    0.9327    0.0000 O   0  0  0  0  0  0  0  0  0  0  0  0
    0.9022   -1.5812    0.0000 O   0  0  0  0  0  0  0  0  0  0  0  0
  1  2  1  0
  1  6  1  0
  2  3  1  0
  3  4  1  0
  3 11  1  0
  4  5  1  0
  5  6  1  0
  7  8  1  0
  7 11  1  0
  7 21  2  0
  8  9  1  0
  9 10  1  0
  9 18  1  6
 10 11  1  0
 12 13  2  0
 12 17  1  0
 13 14  1  0
 14 15  2  0
 15 16  1  0
 16 17  2  0
 17 19  1  0
 18 19  1  0
 18 20  2  0
M  END
>  <DRUGBANK_ID>  (1) 
DB07155

>  <COMMON_NAME>  (1) 
(3S)-1-CYCLOHEXYL-5-OXO-N-PHENYLPYRROLIDINE-3-CARBOXAMIDE

$$$$
