DFW
     RDKit          2D

 26 29  0  0  0  0  0  0  0  0999 V2000
    2.6387   -1.5510    0.0000 C   0  0  0  0  0  0  0  0  0  0  0  0
   -0.0598   -1.1385    0.0000 C   0  0  0  0  0  0  0  0  0  0  0  0
   -0.8848   -1.1385    0.0000 C   0  0  0  0  0  0  0  0  0  0  0  0
   -1.2973   -1.8529    0.0000 C   0  0  0  0  0  0  0  0  0  0  0  0
   -2.1223   -1.8529    0.0000 C   0  0  0  0  0  0  0  0  0  0  0  0
   -2.5348   -1.1385    0.0000 C   0  0  0  0  0  0  0  0  0  0  0  0
   -2.1223   -0.4240    0.0000 C   0  0  0  0  0  0  0  0  0  0  0  0
   -1.2973   -0.4240    0.0000 C   0  0  0  0  0  0  0  0  0  0  0  0
   -0.6368    0.4851    0.0000 C   0  0  0  0  0  0  0  0  0  0  0  0
   -0.8917    1.2697    0.0000 C   0  0  0  0  0  0  0  0  0  0  0  0
   -0.3397    1.8828    0.0000 C   0  0  0  0  0  0  0  0  0  0  0  0
    0.4673    1.7113    0.0000 C   0  0  0  0  0  0  0  0  0  0  0  0
    1.9242   -1.9635    0.0000 N   0  0  0  0  0  0  0  0  0  0  0  0
    1.2098   -1.5510    0.0000 C   0  0  0  0  0  0  0  0  0  0  0  0
    0.4252   -1.8059    0.0000 O   0  0  0  0  0  0  0  0  0  0  0  0
    1.2098   -0.7260    0.0000 C   0  0  0  0  0  0  0  0  0  0  0  0
    1.9242    0.5115    0.0000 N   0  0  0  0  0  0  0  0  0  0  0  0
    1.9242   -0.3135    0.0000 C   0  0  0  0  0  0  0  0  0  0  0  0
    2.6387   -0.7260    0.0000 N   0  0  0  0  0  0  0  0  0  0  0  0
    0.7222    0.9267    0.0000 C   0  0  0  0  0  0  0  0  0  0  0  0
    0.4252   -0.4710    0.0000 C   0  0  0  0  0  0  0  0  0  0  0  0
    0.1702    0.3136    0.0000 C   0  0  0  0  0  0  0  0  0  0  0  0
    1.2098    1.7490    0.0000 C   0  0  0  0  0  0  0  0  0  0  0  0
    1.2098    0.9240    0.0000 C   0  0  0  0  0  0  0  0  0  0  0  0
    0.4953    2.1615    0.0000 O   0  0  0  0  0  0  0  0  0  0  0  0
    1.9242    2.1615    0.0000 O   0  0  0  0  0  0  0  0  0  0  0  0
  1 13  2  0
  1 19  1  0
  2  3  1  0
  2 15  1  0
  2 21  2  0
  3  4  2  0
  3  8  1  0
  4  5  1  0
  5  6  2  0
  6  7  1  0
  7  8  2  0
  9 10  2  0
  9 22  1  0
 10 11  1  0
 11 12  2  0
 12 20  1  0
 13 14  1  0
 14 15  1  0
 14 16  2  0
 16 18  1  0
 16 21  1  0
 17 18  1  0
 17 24  1  0
 18 19  2  0
 20 22  2  0
 21 22  1  0
 23 24  1  0
 23 25  2  0
 23 26  1  0
M  END
>  <DRUGBANK_ID>  (1) 
DB07653

>  <COMMON_NAME>  (1) 
N-(5,6-DIPHENYLFURO[2,3-D]PYRIMIDIN-4-YL)GLYCINE

$$$$
