CFQ
     RDKit          2D

 21 21  0  0  0  0  0  0  0  0999 V2000
   51.5794   30.5537    0.0000 As  0  0  0  0  0  4  0  0  0  0  0  0
   51.1669   31.2682    0.0000 C   0  0  0  0  0  0  0  0  0  0  0  0
   50.8650   30.1412    0.0000 C   0  0  0  0  0  0  0  0  0  0  0  0
   52.2939   30.9662    0.0000 C   0  0  0  0  0  0  0  0  0  0  0  0
   51.9919   29.8392    0.0000 C   0  0  0  0  0  0  0  0  0  0  0  0
   52.8169   29.8392    0.0000 C   0  0  0  0  0  0  0  0  0  0  0  0
   53.2294   29.1248    0.0000 O   0  0  0  0  0  0  0  0  0  0  0  0
   54.0544   29.1248    0.0000 C   0  0  0  0  0  0  0  0  0  0  0  0
   54.4669   29.8392    0.0000 C   0  0  0  0  0  0  0  0  0  0  0  0
   54.4669   28.4103    0.0000 C   0  0  0  0  0  0  0  0  0  0  0  0
   55.2919   28.4103    0.0000 C   0  0  0  0  0  0  0  0  0  0  0  0
   55.7044   27.6958    0.0000 C   0  0  0  0  0  0  0  0  0  0  0  0
   55.2919   26.9813    0.0000 C   0  0  0  0  0  0  0  0  0  0  0  0
   54.4669   26.9813    0.0000 C   0  0  0  0  0  0  0  0  0  0  0  0
   54.0544   27.6958    0.0000 C   0  0  0  0  0  0  0  0  0  0  0  0
   55.7044   29.1248    0.0000 N   0  0  0  0  0  0  0  0  0  0  0  0
   56.5294   29.1248    0.0000 O   0  0  0  0  0  0  0  0  0  0  0  0
   55.2919   29.8392    0.0000 O   0  0  0  0  0  0  0  0  0  0  0  0
   55.1814   29.4267    0.0000 F   0  0  0  0  0  0  0  0  0  0  0  0
   53.7525   30.2517    0.0000 F   0  0  0  0  0  0  0  0  0  0  0  0
   54.8794   30.5537    0.0000 F   0  0  0  0  0  0  0  0  0  0  0  0
  1  2  1  0
  1  3  1  0
  1  4  1  0
  1  5  1  0
  5  6  1  0
  6  7  1  0
  8  7  1  6
  8  9  1  0
  8 10  1  0
  9 19  1  0
  9 20  1  0
  9 21  1  0
 10 11  2  0
 10 15  1  0
 11 12  1  0
 11 16  1  0
 12 13  2  0
 13 14  1  0
 14 15  2  0
 16 17  1  0
 16 18  2  0
M  CHG  2   1   1  16   1
M  END
>  <DRUGBANK_ID>  (1) 
DB07555

>  <COMMON_NAME>  (1) 
Hydroxy(oxo)(2-{(1S)-2,2,2-trifluoro-1-[2-(trimethylarsonio)ethoxy]ethyl}phenyl)ammonium

$$$$
