
     RDKit          2D

 25 27  0  0  0  0  0  0  0  0999 V2000
    0.3536    0.8328    0.0000 C   0  0  0  0  0  0  0  0  0  0  0  0
   -0.3613    0.4242    0.0000 C   0  0  0  0  0  0  0  0  0  0  0  0
   -0.3613   -0.4007    0.0000 N   0  0  0  0  0  0  0  0  0  0  0  0
    0.3536   -0.8171    0.0000 S   0  0  0  0  0  0  0  0  0  0  0  0
   -0.0550   -1.5321    0.0000 O   0  0  0  0  0  0  0  0  0  0  0  0
    0.9429   -1.3986    0.0000 O   0  0  0  0  0  0  0  0  0  0  0  0
    1.0686    0.4242    0.0000 C   0  0  0  0  0  0  0  0  0  0  0  0
    1.0686   -0.4007    0.0000 C   0  0  0  0  0  0  0  0  0  0  0  0
    2.4987    0.4242    0.0000 C   0  0  0  0  0  0  0  0  0  0  0  0
    2.4987   -0.4007    0.0000 C   0  0  0  0  0  0  0  0  0  0  0  0
    1.7836   -0.8171    0.0000 S   0  0  0  0  0  0  0  0  0  0  0  0
    2.8051   -1.5321    0.0000 O   0  0  0  0  0  0  0  0  0  0  0  0
    3.7951   -1.3986    0.0000 O   0  0  0  0  0  0  0  0  0  0  0  0
    3.2137   -0.8171    0.0000 S   0  0  0  0  0  0  0  0  0  0  0  0
    3.9287   -0.4007    0.0000 N   0  0  0  0  0  0  0  0  0  0  0  0
   -1.0686   -0.8171    0.0000 C   0  0  0  0  0  0  0  0  0  0  0  0
   -1.7993   -0.4242    0.0000 C   0  0  0  0  0  0  0  0  0  0  0  0
   -2.4987   -0.8564    0.0000 C   0  0  0  0  0  0  0  0  0  0  0  0
   -2.4750   -1.6814    0.0000 C   0  0  0  0  0  0  0  0  0  0  0  0
   -1.7443   -2.0743    0.0000 C   0  0  0  0  0  0  0  0  0  0  0  0
   -1.0450   -1.6421    0.0000 C   0  0  0  0  0  0  0  0  0  0  0  0
   -3.2293   -0.4714    0.0000 O   0  0  0  0  0  0  0  0  0  0  0  0
   -3.9287   -0.9036    0.0000 C   0  0  0  0  0  0  0  0  0  0  0  0
    0.3536    1.6579    0.0000 N   0  0  0  0  0  0  0  0  0  0  0  0
    1.0686    2.0743    0.0000 C   0  0  0  0  0  0  0  0  0  0  0  0
  1  2  1  0
  1  7  1  0
  1 24  1  6
  2  3  1  0
  3 16  1  0
  3  4  1  0
  4  8  1  0
  4  5  2  0
  4  6  2  0
  7  9  1  0
  7  8  2  0
  8 11  1  0
  9 10  2  0
 10 11  1  0
 10 14  1  0
 12 14  2  0
 13 14  2  0
 14 15  1  0
 16 21  1  0
 16 17  2  0
 17 18  1  0
 18 19  2  0
 18 22  1  0
 19 20  1  0
 20 21  2  0
 22 23  1  0
 24 25  1  0
M  END
>  <DRUGBANK_ID>  (1) 
DB02220

>  <SECONDARY_ACCESSION_NUMBERS>  (1) 
EXPT00492

>  <COMMON_NAME>  (1) 
AL7089A

>  <CAS_NUMBER>  (1) 
220402-83-5

$$$$
