
     RDKit          2D

 10 11  0  0  0  0  0  0  0  0999 V2000
    0.8299   -0.2861    0.0000 N   0  0  0  0  0  0  0  0  0  0  0  0
   -0.6654    1.2031    0.0000 N   0  0  0  0  0  0  0  0  0  0  0  0
   -1.3801   -0.0346    0.0000 N   0  0  0  0  0  0  0  0  0  0  0  0
   -0.6654   -1.2724    0.0000 N   0  0  0  0  0  0  0  0  0  0  0  0
    0.0490   -0.0346    0.0000 C   0  0  0  0  0  0  0  0  0  0  0  0
    0.0490    0.7905    0.0000 C   0  0  0  0  0  0  0  0  0  0  0  0
   -0.6654   -0.4472    0.0000 C   0  0  0  0  0  0  0  0  0  0  0  0
    0.8299    1.0419    0.0000 C   0  0  0  0  0  0  0  0  0  0  0  0
    1.3114    0.3779    0.0000 C   0  0  0  0  0  0  0  0  0  0  0  0
   -1.3801    0.7905    0.0000 C   0  0  0  0  0  0  0  0  0  0  0  0
  1  5  1  0
  1  9  1  0
  2  6  1  0
  2 10  2  0
  3  7  2  0
  3 10  1  0
  4  7  1  0
  5  6  2  0
  5  7  1  0
  6  8  1  0
  8  9  2  0
M  END
>  <DRUGBANK_ID>  (1) 
DB03506

>  <SECONDARY_ACCESSION_NUMBERS>  (1) 
EXPT00355

>  <COMMON_NAME>  (1) 
5H-pyrrolo[3,2-d]pyrimidin-4-amine

>  <CAS_NUMBER>  (1) 
2227-98-7

>  <SYNONYMS>  (1) 
5H-Pyrrolo[3,2-d]pyrimidin-4-amine; 9-deazaadenine

$$$$
