
     RDKit          2D

 15 15  0  0  0  0  0  0  0  0999 V2000
    3.2458    0.3231    0.0000 C   0  0  0  0  0  0  0  0  0  0  0  0
    2.5312    0.7467    0.0000 C   0  0  0  0  0  0  0  0  0  0  0  0
   -3.2458   -1.5994    0.0000 C   0  0  0  0  0  0  0  0  0  0  0  0
    1.1225    1.5994    0.0000 O   0  0  0  0  0  0  0  0  0  0  0  0
    1.8042    0.3544    0.0000 O   0  0  0  0  0  0  0  0  0  0  0  0
   -3.2263   -0.7747    0.0000 O   0  0  0  0  0  0  0  0  0  0  0  0
    1.1008    0.7670    0.0000 C   0  0  0  0  0  0  0  0  0  0  0  0
   -2.5023   -0.3792    0.0000 C   0  0  0  0  0  0  0  0  0  0  0  0
    0.3722    0.3798    0.0000 C   0  0  0  0  0  0  0  0  0  0  0  0
   -1.7981   -0.8057    0.0000 C   0  0  0  0  0  0  0  0  0  0  0  0
   -2.4808    0.4335    0.0000 C   0  0  0  0  0  0  0  0  0  0  0  0
   -0.3350    0.7970    0.0000 C   0  0  0  0  0  0  0  0  0  0  0  0
   -1.0665   -0.4093    0.0000 C   0  0  0  0  0  0  0  0  0  0  0  0
   -1.7573    0.8389    0.0000 C   0  0  0  0  0  0  0  0  0  0  0  0
   -1.0491    0.4081    0.0000 C   0  0  0  0  0  0  0  0  0  0  0  0
  2  1  1  0
  5  2  1  0
  6  3  1  0
  7  4  2  0
  7  5  1  0
  8  6  1  0
  9  7  1  0
 10  8  2  0
 11  8  1  0
 12  9  2  0
 13 10  1  0
 14 11  2  0
 15 12  1  0
 15 13  2  0
 15 14  1  0
M  END
>  <DRUGBANK_ID>  (1) 
DB16440

>  <COMMON_NAME>  (1) 
Ethyl methoxycinnamate

>  <CAS_NUMBER>  (1) 
24393-56-4

>  <UNII>  (1) 
SD418S06XD

>  <SYNONYMS>  (1) 
Ethyl (E)-4-methoxycinnamate; Ethyl (E)-p-methoxycinnamate; Ethyl methoxycinnamate; Ethyl trans-p-methoxycinnamate

$$$$
