
     RDKit          2D

 12 12  0  0  0  0  0  0  0  0999 V2000
    0.1842    1.8695    0.0000 C   0  0  0  0  0  0  0  0  0  0  0  0
    0.7145    1.2375    0.0000 C   0  0  0  0  0  0  0  0  0  0  0  0
    1.4289    0.8250    0.0000 C   0  0  0  0  0  0  0  0  0  0  0  0
    1.4289   -0.0000    0.0000 C   0  0  0  0  0  0  0  0  0  0  0  0
    0.7145   -0.4125    0.0000 C   0  0  0  0  0  0  0  0  0  0  0  0
    0.0000    0.0000    0.0000 C   0  0  0  0  0  0  0  0  0  0  0  0
    0.0000    0.8250    0.0000 N   0  0  0  0  0  0  0  0  0  0  0  0
   -0.7145    1.2375    0.0000 O   0  0  0  0  0  1  0  0  0  0  0  0
   -0.4372   -0.6996    0.0000 C   0  0  0  0  0  0  0  0  0  0  0  0
   -0.8245   -0.0288    0.0000 C   0  0  0  0  0  0  0  0  0  0  0  0
    2.1434   -0.4125    0.0000 O   0  0  0  0  0  0  0  0  0  0  0  0
    1.2448    1.8695    0.0000 C   0  0  0  0  0  0  0  0  0  0  0  0
  1  2  1  0
  2  3  1  0
  2  7  1  0
  2 12  1  0
  3  4  1  0
  4  5  1  0
  4 11  1  0
  5  6  1  0
  6  7  1  0
  6  9  1  0
  6 10  1  0
  7  8  1  0
M  RAD  1   8   2
M  END
>  <DRUGBANK_ID>  (1) 
DB12449

>  <COMMON_NAME>  (1) 
Tempol

>  <CAS_NUMBER>  (1) 
2226-96-2

>  <UNII>  (1) 
U78ZX2F65X

>  <SYNONYMS>  (1) 
1-PIPERIDINYLOXY,4-HYDROXY-2,2,6,6-TETRAMETHYL-; 2,2,6,6-TETRAMETHYL-4-HYDROXYPIPERIDINE 1-OXIDE RADICAL; 2,2,6,6-TETRAMETHYL-4-HYDROXYPIPERIDINOOXY; 2,2,6,6-TETRAMETHYL-4-HYDROXYPIPERIDINOOXY RADICAL; 4-HYDROXY-2,2,6,6-TETRAMETHYL-1-PIPERIDINYLOXY; 4-HYDROXY-2,2,6,6-TETRAMETHYL-PIPERIDIN-1-OXYL; 4-HYDROXY-2,2,6,6-TETRAMETHYLPIPERIDIN-1-YL)OXIDANYL; 4-Hydroxy-2,2,6,6-tetramethylpiperidine-N-oxyl; 4-HYDROXY-2,2,6,6-TETRAMETHYLPIPERIDINEY-1-OXYL; 4-HYDROXY-2,2,6,6-TETRAMETHYLPIPERIDINLYOXY; 4-HYDROXY-2,2,6,6-TETRAMETHYLPIPERIDINOOXY; 4-HYDROXY-2,2,6,6-TETRAMETHYLPIPERIDINOOXYL; 4-OXYPIPERIDOL

$$$$
