
     RDKit          2D

 11 10  0  0  0  0  0  0  0  0999 V2000
   -0.4125   -0.7144    0.0000 C   0  0  0  0  0  0  0  0  0  0  0  0
    0.8250    0.0000    0.0000 C   0  0  0  0  0  0  0  0  0  0  0  0
   -1.2375   -0.7144    0.0000 C   0  0  0  0  0  0  0  0  0  0  0  0
    1.2375    0.7144    0.0000 C   0  0  0  0  0  0  0  0  0  0  0  0
   -2.0625   -0.7144    0.0000 F   0  0  0  0  0  0  0  0  0  0  0  0
   -1.2375   -1.5394    0.0000 F   0  0  0  0  0  0  0  0  0  0  0  0
   -1.2375    0.1105    0.0000 F   0  0  0  0  0  0  0  0  0  0  0  0
    1.6500    1.4289    0.0000 F   0  0  0  0  0  0  0  0  0  0  0  0
    1.9519    0.3019    0.0000 F   0  0  0  0  0  0  0  0  0  0  0  0
    0.5230    1.1269    0.0000 F   0  0  0  0  0  0  0  0  0  0  0  0
    0.0000    0.0000    0.0000 O   0  0  0  0  0  0  0  0  0  0  0  0
  3  1  1  0
  4  2  1  0
  5  3  1  0
  6  3  1  0
  7  3  1  0
  8  4  1  0
  9  4  1  0
 10  4  1  0
 11  1  1  0
 11  2  1  0
M  END
>  <DRUGBANK_ID>  (1) 
DB08969

>  <COMMON_NAME>  (1) 
Flurothyl

>  <CAS_NUMBER>  (1) 
333-36-8

>  <UNII>  (1) 
9Z467FG2YK

>  <SYNONYMS>  (1) 
Flurothyl; Flurotyl

$$$$
