
     RDKit          2D

 37 37  0  0  0  0  0  0  0  0999 V2000
   -4.6467    1.0296    0.0000 C   0  0  0  0  0  0  0  0  0  0  0  0
   -3.9317    1.4414    0.0000 C   0  0  0  0  0  0  0  0  0  0  0  0
   -3.2169    1.0296    0.0000 C   0  0  0  0  0  0  0  0  0  0  0  0
   -2.5020    1.4414    0.0000 C   0  0  0  0  0  0  0  0  0  0  0  0
   -1.7872    1.0296    0.0000 C   0  0  0  0  0  0  0  0  0  0  0  0
   -1.0724    1.4413    0.0000 C   0  0  0  0  0  0  0  0  0  0  0  0
   -0.3574    1.0295    0.0000 C   0  0  0  0  0  0  0  0  0  0  0  0
    0.3572    1.4413    0.0000 C   0  0  0  0  0  0  0  0  0  0  0  0
    1.0675    1.0295    0.0000 C   0  0  0  0  0  0  0  0  0  0  0  0
    1.7823    1.4413    0.0000 C   0  0  0  0  0  0  0  0  0  0  0  0
    2.4971    1.0295    0.0000 C   0  0  0  0  0  0  0  0  0  0  0  0
    3.2120    1.4413    0.0000 C   0  0  0  0  0  0  0  0  0  0  0  0
    3.9269    1.0295    0.0000 C   0  0  0  0  0  0  0  0  0  0  0  0
    4.6418    1.4413    0.0000 C   0  0  0  0  0  0  0  0  0  0  0  0
    5.3519    1.0295    0.0000 C   0  0  0  0  0  0  0  0  0  0  0  0
    6.0668    1.4413    0.0000 C   0  0  0  0  0  0  0  0  0  0  0  0
   -5.3568    1.4414    0.0000 N   0  0  0  0  0  0  0  0  0  0  0  0
   -6.0668    1.0296    0.0000 C   0  0  0  0  0  0  0  0  0  0  0  0
   -5.3568    2.2699    0.0000 C   0  0  0  0  0  0  0  0  0  0  0  0
   -6.0668    1.8534    0.0000 C   0  0  0  0  0  0  0  0  0  0  0  0
    0.3572   -0.6178    0.0000 C   0  0  0  0  0  0  0  0  0  0  0  0
    1.0675   -1.0298    0.0000 C   0  0  0  0  0  0  0  0  0  0  0  0
    1.0675   -1.8581    0.0000 C   0  0  0  0  0  0  0  0  0  0  0  0
    0.3572   -2.2699    0.0000 C   0  0  0  0  0  0  0  0  0  0  0  0
   -0.3574   -1.8581    0.0000 C   0  0  0  0  0  0  0  0  0  0  0  0
   -1.0724   -2.2699    0.0000 C   0  0  0  0  0  0  0  0  0  0  0  0
   -1.7872   -1.8581    0.0000 C   0  0  0  0  0  0  0  0  0  0  0  0
   -1.7872   -1.0298    0.0000 C   0  0  0  0  0  0  0  0  0  0  0  0
   -1.0724   -0.6178    0.0000 C   0  0  0  0  0  0  0  0  0  0  0  0
   -0.3574   -1.0298    0.0000 C   0  0  0  0  0  0  0  0  0  0  0  0
   -2.5020   -2.2699    0.0000 O   0  0  0  0  0  0  0  0  0  0  0  0
   -3.2169   -1.8581    0.0000 C   0  0  0  0  0  0  0  0  0  0  0  0
    1.7823   -0.6178    0.0000 C   0  0  0  0  0  0  0  0  0  0  0  0
    2.4971   -1.0298    0.0000 C   0  0  0  0  0  0  0  0  0  0  0  0
    2.4971   -1.8581    0.0000 O   0  0  0  0  0  0  0  0  0  0  0  0
    3.2120   -0.6178    0.0000 O   0  0  0  0  0  0  0  0  0  0  0  0
    1.7823    0.2058    0.0000 C   0  0  0  0  0  0  0  0  0  0  0  0
  1 17  1  0
  1  2  1  0
  2  3  1  0
  3  4  1  0
  4  5  1  0
  5  6  1  0
  6  7  1  0
  7  8  1  0
  8  9  1  0
  9 10  1  0
 10 11  1  0
 11 12  1  0
 12 13  1  0
 13 14  1  0
 14 15  1  0
 15 16  1  0
 17 18  1  0
 17 19  1  0
 17 20  1  0
 21 22  2  0
 21 30  1  0
 22 23  1  0
 22 33  1  0
 23 24  2  0
 24 25  1  0
 25 26  1  0
 25 30  2  0
 26 27  2  0
 27 28  1  0
 27 31  1  0
 28 29  2  0
 29 30  1  0
 31 32  1  0
 33 37  1  6
 34 33  1  0
 34 35  2  0
 34 36  1  0
M  CHG  2  17   1  36  -1
M  END
>  <DRUGBANK_ID>  (1) 
DB15877

>  <COMMON_NAME>  (1) 
Cetyltrimethylammonium naproxenate

>  <CAS_NUMBER>  (1) 
102580-74-5

>  <UNII>  (1) 
5333CM4X3G

>  <SYNONYMS>  (1) 
Cetyl trimethylammonium naproxenate; Cetyltrimethylammonium naproxenate

$$$$
