
     RDKit          2D

  2  1  0  0  0  0  0  0  0  0999 V2000
    0.0000   -2.6202    0.0000 Zn  0  0  0  0  0  2  0  0  0  0  0  0
    0.8250   -2.6208    0.0000 O   0  0  0  0  0  0  0  0  0  0  0  0
  1  2  2  0
M  END
>  <DRUGBANK_ID>  (1) 
DB09321

>  <COMMON_NAME>  (1) 
Zinc oxide

>  <CAS_NUMBER>  (1) 
1314-13-2

>  <UNII>  (1) 
SOI2LOH54Z

>  <SYNONYMS>  (1) 
óxido de cinc; oxyde de zinc; Zinc (as oxide); Zinc (as zinc oxide); Zinc oxide; Zinc óxido; Zinc white; Zinci oxydum; Zincum oxydatum; Zinkoxid

$$$$
