
     RDKit          2D

 24 27  0  0  1  0  0  0  0  0999 V2000
    4.5404    2.5654    0.0000 C   0  0  0  0  0  0  0  0  0  0  0  0
   -2.0361    1.4372    0.0000 C   0  0  0  0  0  0  0  0  0  0  0  0
    3.7283    2.4202    0.0000 C   0  0  0  0  0  0  0  0  0  0  0  0
    3.4480    1.6442    0.0000 C   0  0  0  0  0  0  0  0  0  0  0  0
    2.6359    1.4990    0.0000 C   0  0  0  0  0  0  0  0  0  0  0  0
    0.5086    4.0219    0.0000 C   0  0  0  0  0  0  0  0  0  0  0  0
   -0.3035    3.8766    0.0000 C   0  0  0  0  0  0  0  0  0  0  0  0
   -2.0473    3.4619    0.0000 C   0  0  0  0  0  0  0  0  0  0  0  0
   -2.7301    2.9989    0.0000 C   0  0  0  0  0  0  0  0  0  0  0  0
   -0.3323    1.6941    0.0000 C   0  0  0  0  0  0  0  0  0  0  0  0
   -1.1444    1.5489    0.0000 C   0  0  0  0  0  0  0  0  0  0  0  0
    1.2920    1.9845    0.0000 C   0  0  0  0  0  0  0  0  0  0  0  0
    1.8526    3.5364    0.0000 C   0  0  0  0  0  0  0  0  0  0  0  0
    1.0404    3.3912    0.0000 C   0  0  0  0  0  0  0  0  0  0  0  0
    2.1041    2.1297    0.0000 C   0  0  0  0  0  0  0  0  0  0  0  0
   -0.0520    2.4700    0.0000 C   0  0  0  0  0  0  0  0  0  0  0  0
   -0.5838    3.1007    0.0000 C   0  0  0  0  0  0  0  0  0  0  0  0
    0.7601    2.6152    0.0000 C   0  0  0  0  0  0  0  0  0  0  0  0
   -1.3959    2.9555    0.0000 C   0  0  0  0  0  0  0  0  0  0  0  0
    2.3844    2.9057    0.0000 C   0  0  0  0  0  0  0  0  0  0  0  0
   -2.5008    2.2064    0.0000 C   0  0  0  0  0  0  0  0  0  0  0  0
   -1.6762    2.1796    0.0000 C   0  0  0  0  0  0  0  0  0  0  0  0
    3.1965    3.0509    0.0000 O   0  0  0  0  0  0  0  0  0  0  0  0
   -3.0071    1.5551    0.0000 O   0  0  0  0  0  0  0  0  0  0  0  0
  3  1  1  0
  4  3  1  0
  5  4  2  0
  7  6  1  0
  9  8  1  0
 11 10  1  0
 14  6  1  0
 14 13  2  0
 15  5  1  0
 15 12  1  0
 16 10  1  1
 17  7  1  6
 17 16  1  0
 18 12  2  0
 18 14  1  0
 18 16  1  0
 19  8  1  1
 19 17  1  0
 20 13  1  0
 20 15  2  0
 21  9  1  0
 21 24  1  1
 22  2  1  1
 22 11  1  0
 22 19  1  0
 22 21  1  0
 23 20  1  0
M  END
>  <DRUGBANK_ID>  (1) 
DB07678

>  <COMMON_NAME>  (1) 
(9ALPHA,13BETA,17BETA)-2-[(1Z)-BUT-1-EN-1-YL]ESTRA-1,3,5(10)-TRIENE-3,17-DIOL

$$$$
