
     RDKit          2D

 26 28  0  0  0  0  0  0  0  0999 V2000
    0.5157   -0.1855    0.0000 C   0  0  0  0  0  0  0  0  0  0  0  0
    0.5157    0.6394    0.0000 C   0  0  0  0  0  0  0  0  0  0  0  0
    1.2171    1.0520    0.0000 C   0  0  0  0  0  0  0  0  0  0  0  0
    1.9597    0.6394    0.0000 C   0  0  0  0  0  0  0  0  0  0  0  0
    1.9597   -0.1855    0.0000 C   0  0  0  0  0  0  0  0  0  0  0  0
    1.2171   -0.5981    0.0000 C   0  0  0  0  0  0  0  0  0  0  0  0
    2.6612    1.0520    0.0000 C   0  0  0  0  0  0  0  0  0  0  0  0
    3.3626    0.6394    0.0000 C   0  0  0  0  0  0  0  0  0  0  0  0
    4.0639    1.0520    0.0000 C   0  0  0  0  0  0  0  0  0  0  0  0
    4.7653    0.6394    0.0000 N   0  0  0  0  0  0  0  0  0  0  0  0
    4.0639    1.9185    0.0000 O   0  0  0  0  0  0  0  0  0  0  0  0
    5.4667    1.0520    0.0000 O   0  0  0  0  0  0  0  0  0  0  0  0
   -0.2268   -0.5981    0.0000 C   0  0  0  0  0  0  0  0  0  0  0  0
   -0.9283   -0.1855    0.0000 N   0  0  0  0  0  0  0  0  0  0  0  0
   -1.6296   -0.5981    0.0000 C   0  0  0  0  0  0  0  0  0  0  0  0
   -2.3310   -0.1855    0.0000 C   0  0  0  0  0  0  0  0  0  0  0  0
   -3.0323   -0.5981    0.0000 C   0  0  0  0  0  0  0  0  0  0  0  0
   -3.0323   -1.4233    0.0000 C   0  0  0  0  0  0  0  0  0  0  0  0
   -3.8164   -1.6709    0.0000 N   0  0  0  0  0  0  0  0  0  0  0  0
   -4.3115   -1.0108    0.0000 C   0  0  0  0  0  0  0  0  0  0  0  0
   -3.8164   -0.3505    0.0000 C   0  0  0  0  0  0  0  0  0  0  0  0
   -5.1367   -0.9283    0.0000 C   0  0  0  0  0  0  0  0  0  0  0  0
   -5.4667   -0.1443    0.0000 C   0  0  0  0  0  0  0  0  0  0  0  0
   -4.9717    0.5157    0.0000 C   0  0  0  0  0  0  0  0  0  0  0  0
   -4.1465    0.4331    0.0000 C   0  0  0  0  0  0  0  0  0  0  0  0
   -2.3722   -1.9185    0.0000 C   0  0  0  0  0  0  0  0  0  0  0  0
  1  2  2  0
  1  6  1  0
  1 13  1  0
  2  3  1  0
  3  4  2  0
  4  5  1  0
  4  7  1  0
  5  6  2  0
  7  8  2  0
  8  9  1  0
  9 10  1  0
  9 11  2  0
 10 12  1  0
 13 14  1  0
 14 15  1  0
 15 16  1  0
 16 17  1  0
 17 18  2  0
 17 21  1  0
 18 19  1  0
 18 26  1  0
 19 20  1  0
 20 21  2  0
 20 22  1  0
 21 25  1  0
 22 23  2  0
 23 24  1  0
 24 25  2  0
M  END
>  <DRUGBANK_ID>  (1) 
DB06603

>  <COMMON_NAME>  (1) 
Panobinostat

>  <CAS_NUMBER>  (1) 
404950-80-7

>  <UNII>  (1) 
9647FM7Y3Z

>  <SYNONYMS>  (1) 
(2E)-N-hydroxy-3-[4-({[2-(2-methyl-1H-indol-3-yl)ethyl]amino}methyl)phenyl]acrylamide; 2-PROPENAMIDE, N-HYDROXY-3-(4-(((2-(2-METHYL-1H-INDOL-3-YL)ETHYL)AMINO)METHYL)PHENYL)-, (2E)-; hydroxypropyl-B-cyclodextrin-panobinostat complex; Panobinostat; Panobinostatum

$$$$
