
     RDKit          2D

 14 15  0  0  1  0  0  0  0  0999 V2000
    3.3523    1.1104    0.0000 C   0  0  0  0  0  0  0  0  0  0  0  0
    3.3523    1.9354    0.0000 C   0  0  0  0  0  0  0  0  0  0  0  0
    2.6378    0.6979    0.0000 C   0  0  0  0  0  0  0  0  0  0  0  0
    2.6378    2.3479    0.0000 C   0  0  0  0  0  0  0  0  0  0  0  0
    0.8838    0.0709    0.0000 C   0  0  0  0  0  0  0  0  0  0  0  0
    0.6538    1.5229    0.0000 C   0  0  0  0  0  0  0  0  0  0  0  0
    1.1809   -1.3268    0.0000 C   0  0  0  0  0  0  0  0  0  0  0  0
    1.1387    0.8555    0.0000 C   0  0  0  0  0  0  0  0  0  0  0  0
    1.4358   -0.5422    0.0000 C   0  0  0  0  0  0  0  0  0  0  0  0
    1.9233    1.1104    0.0000 C   0  0  0  0  0  0  0  0  0  0  0  0
    1.9233    1.9354    0.0000 C   0  0  0  0  0  0  0  0  0  0  0  0
    2.2428   -0.3707    0.0000 N   0  0  0  0  0  0  0  0  0  0  0  0
    1.1387    2.1904    0.0000 N   0  0  0  0  0  0  0  0  0  0  0  0
    1.7329   -1.9399    0.0000 O   0  0  0  0  0  0  0  0  0  0  0  0
  2  1  2  0
  3  1  1  0
  4  2  1  0
  8  5  1  0
  8  6  2  0
  9  5  1  0
  9  7  1  0
  9 12  1  6
 10  3  2  0
 10  8  1  0
 11  4  2  0
 11 10  1  0
 13  6  1  0
 13 11  1  0
 14  7  1  0
M  END
>  <DRUGBANK_ID>  (1) 
DB04236

>  <SECONDARY_ACCESSION_NUMBERS>  (1) 
EXPT03091

>  <COMMON_NAME>  (1) 
2-Amino-3-(1h-Indol-3-Yl)-Propan-1-Ol

$$$$
