FLF
     RDKit          2D

 20 21  0  0  0  0  0  0  0  0999 V2000
   -1.7565    0.4221    0.0000 C   0  0  0  0  0  0  0  0  0  0  0  0
   -1.0421    1.6596    0.0000 O   0  0  0  0  0  0  0  0  0  0  0  0
   -2.4710    0.0096    0.0000 C   0  0  0  0  0  0  0  0  0  0  0  0
   -2.4710   -0.8154    0.0000 C   0  0  0  0  0  0  0  0  0  0  0  0
   -2.4710    1.6596    0.0000 O   0  0  0  0  0  0  0  0  0  0  0  0
   -1.7565   -1.2279    0.0000 C   0  0  0  0  0  0  0  0  0  0  0  0
   -1.0421   -0.8154    0.0000 C   0  0  0  0  0  0  0  0  0  0  0  0
   -1.0421    0.0096    0.0000 C   0  0  0  0  0  0  0  0  0  0  0  0
   -1.7565    1.2471    0.0000 C   0  0  0  0  0  0  0  0  0  0  0  0
   -0.3276    0.4221    0.0000 N   0  0  0  0  0  0  0  0  0  0  0  0
    0.3869    0.0096    0.0000 C   0  0  0  0  0  0  0  0  0  0  0  0
    1.1014    0.4221    0.0000 C   0  0  0  0  0  0  0  0  0  0  0  0
    1.8158    0.0096    0.0000 C   0  0  0  0  0  0  0  0  0  0  0  0
    1.8158   -0.8154    0.0000 C   0  0  0  0  0  0  0  0  0  0  0  0
    1.1014   -1.2279    0.0000 C   0  0  0  0  0  0  0  0  0  0  0  0
    0.3869   -0.8154    0.0000 C   0  0  0  0  0  0  0  0  0  0  0  0
    2.5303    0.4221    0.0000 C   0  0  0  0  0  0  0  0  0  0  0  0
    3.2448    0.8346    0.0000 F   0  0  0  0  0  0  0  0  0  0  0  0
    2.9428   -0.2923    0.0000 F   0  0  0  0  0  0  0  0  0  0  0  0
    2.1178    1.1366    0.0000 F   0  0  0  0  0  0  0  0  0  0  0  0
  1  3  2  0
  1  8  1  0
  1  9  1  0
  2  9  2  0
  3  4  1  0
  4  6  2  0
  5  9  1  0
  6  7  1  0
  7  8  2  0
  8 10  1  0
 10 11  1  0
 11 12  2  0
 11 16  1  0
 12 13  1  0
 13 14  2  0
 13 17  1  0
 14 15  1  0
 15 16  2  0
 17 18  1  0
 17 19  1  0
 17 20  1  0
M  END
>  <DRUGBANK_ID>  (1) 
DB02266

>  <SECONDARY_ACCESSION_NUMBERS>  (1) 
EXPT01442

>  <COMMON_NAME>  (1) 
Flufenamic acid

>  <CAS_NUMBER>  (1) 
530-78-9

>  <UNII>  (1) 
60GCX7Y6BH

>  <SYNONYMS>  (1) 
acide flufénamique; ácido flufenámico; Acidum flufenamicum; Flufenamic acid

$$$$
