
     RDKit          2D

 24 25  0  0  1  0  0  0  0  0999 V2000
   -0.1431   -0.4131    0.0000 C   0  0  0  0  0  0  0  0  0  0  0  0
    0.8131    0.6488    0.0000 C   0  0  0  0  0  0  0  0  0  0  0  0
    0.4700   -0.9651    0.0000 C   0  0  0  0  0  0  0  0  0  0  0  0
    1.4262    0.0968    0.0000 C   0  0  0  0  0  0  0  0  0  0  0  0
   -0.5846    0.9459    0.0000 C   0  0  0  0  0  0  0  0  0  0  0  0
   -3.7546   -0.6749    0.0000 C   0  0  0  0  0  0  0  0  0  0  0  0
   -3.4888    0.9459    0.0000 C   0  0  0  0  0  0  0  0  0  0  0  0
    0.0284    0.3939    0.0000 C   0  0  0  0  0  0  0  0  0  0  0  0
    1.2546   -0.7102    0.0000 C   0  0  0  0  0  0  0  0  0  0  0  0
   -2.9341   -0.7611    0.0000 C   0  0  0  0  0  0  0  0  0  0  0  0
   -1.3693    0.6910    0.0000 C   0  0  0  0  0  0  0  0  0  0  0  0
   -4.2395   -1.3423    0.0000 C   0  0  0  0  0  0  0  0  0  0  0  0
   -3.6603    1.7529    0.0000 C   0  0  0  0  0  0  0  0  0  0  0  0
   -2.4492   -0.0937    0.0000 C   0  0  0  0  0  0  0  0  0  0  0  0
   -2.0367    1.1759    0.0000 C   0  0  0  0  0  0  0  0  0  0  0  0
   -2.5986   -1.5148    0.0000 N   0  0  0  0  0  0  0  0  0  0  0  0
   -1.6242   -0.0937    0.0000 N   0  0  0  0  0  0  0  0  0  0  0  0
   -2.7041    0.6910    0.0000 N   0  0  0  0  0  0  0  0  0  0  0  0
    1.8677   -1.2622    0.0000 O   0  0  0  0  0  0  0  0  0  0  0  0
   -5.0600   -1.2561    0.0000 O   0  0  0  0  0  0  0  0  0  0  0  0
   -3.9040   -2.0960    0.0000 O   0  0  0  0  0  0  0  0  0  0  0  0
   -4.4449    2.0078    0.0000 O   0  0  0  0  0  0  0  0  0  0  0  0
   -3.0472    2.3049    0.0000 O   0  0  0  0  0  0  0  0  0  0  0  0
   -2.0367    2.0009    0.0000 O   0  0  0  0  0  0  0  0  0  0  0  0
  3  1  2  0
  4  2  1  0
  8  1  1  0
  8  2  2  0
  8  5  1  0
  9  3  1  0
  9  4  2  0
 10  6  1  0
 10 16  1  1
 11  5  2  0
 12  6  1  0
 13  7  1  0
 14 10  1  0
 15 11  1  0
 17 11  1  0
 17 14  2  0
 18  7  1  0
 18 14  1  0
 18 15  1  0
 19  9  1  0
 20 12  2  0
 21 12  1  0
 22 13  2  0
 23 13  1  0
 24 15  2  0
M  END
>  <DRUGBANK_ID>  (1) 
DB04686

>  <COMMON_NAME>  (1) 
CHROMOPHORE (ASP-TYR-GLY)

$$$$
