BCE
     RDKit          2D

 21 22  0  0  0  0  0  0  0  0999 V2000
    2.3227   -0.7595    0.0000 C   0  0  0  0  0  0  0  0  0  0  0  0
    3.0372   -1.1720    0.0000 C   0  0  0  0  0  0  0  0  0  0  0  0
    3.0372   -1.9970    0.0000 C   0  0  0  0  0  0  0  0  0  0  0  0
    2.3227   -2.4095    0.0000 C   0  0  0  0  0  0  0  0  0  0  0  0
    1.6083   -1.9970    0.0000 C   0  0  0  0  0  0  0  0  0  0  0  0
    1.6083   -1.1720    0.0000 C   0  0  0  0  0  0  0  0  0  0  0  0
    0.8938   -0.7595    0.0000 C   0  0  0  0  0  0  0  0  0  0  0  0
    0.1793   -1.1720    0.0000 C   0  0  0  0  0  0  0  0  0  0  0  0
   -0.5351   -0.7595    0.0000 C   0  0  0  0  0  0  0  0  0  0  0  0
    0.8938    0.0655    0.0000 C   0  0  0  0  0  0  0  0  0  0  0  0
    0.1793    0.4780    0.0000 C   0  0  0  0  0  0  0  0  0  0  0  0
   -0.5351    0.0655    0.0000 C   0  0  0  0  0  0  0  0  0  0  0  0
   -1.2496    0.4780    0.0000 N   0  0  0  0  0  0  0  0  0  0  0  0
   -1.2496    1.3030    0.0000 C   0  0  0  0  0  0  0  0  0  0  0  0
   -0.5351    1.7155    0.0000 O   0  0  0  0  0  0  0  0  0  0  0  0
   -1.9641    1.7155    0.0000 C   0  0  0  0  0  0  0  0  0  0  0  0
   -1.9641    2.5405    0.0000 C   0  0  0  0  0  0  0  0  0  0  0  0
   -1.9641    3.3655    0.0000 N   0  0  0  0  0  0  0  0  0  0  0  0
   -2.6785    1.3030    0.0000 C   0  0  0  0  0  0  0  0  0  0  0  0
   -3.3930    1.7155    0.0000 C   0  0  0  0  0  0  0  0  0  0  0  0
   -2.6785    0.4780    0.0000 O   0  0  0  0  0  0  0  0  0  0  0  0
  1  2  2  0
  1  6  1  0
  2  3  1  0
  3  4  2  0
  4  5  1  0
  5  6  2  0
  6  7  1  0
  7  8  2  0
  7 10  1  0
  8  9  1  0
  9 12  2  0
 10 11  2  0
 11 12  1  0
 12 13  1  0
 13 14  1  0
 14 15  2  0
 14 16  1  0
 16 17  1  0
 16 19  2  0
 17 18  3  0
 19 20  1  0
 19 21  1  0
M  END
>  <DRUGBANK_ID>  (1) 
DB07443

>  <COMMON_NAME>  (1) 
(2Z)-N-biphenyl-4-yl-2-cyano-3-hydroxybut-2-enamide

$$$$
