
     RDKit          2D

 32 36  0  0  0  0  0  0  0  0999 V2000
   -1.4573   -0.7640    0.0000 C   0  0  0  0  0  0  0  0  0  0  0  0
   -1.4573   -1.5846    0.0000 C   0  0  0  0  0  0  0  0  0  0  0  0
   -2.1648   -0.3395    0.0000 C   0  0  0  0  0  0  0  0  0  0  0  0
   -2.1648   -1.9808    0.0000 C   0  0  0  0  0  0  0  0  0  0  0  0
   -2.9004   -0.7640    0.0000 C   0  0  0  0  0  0  0  0  0  0  0  0
   -2.9004   -1.5846    0.0000 C   0  0  0  0  0  0  0  0  0  0  0  0
   -0.7215   -0.3395    0.0000 C   0  0  0  0  0  0  0  0  0  0  0  0
   -0.0141   -0.7640    0.0000 C   0  0  0  0  0  0  0  0  0  0  0  0
   -0.7215   -1.9808    0.0000 C   0  0  0  0  0  0  0  0  0  0  0  0
   -0.0141   -1.5846    0.0000 C   0  0  0  0  0  0  0  0  0  0  0  0
   -0.7215    0.5093    0.0000 C   0  0  0  0  0  0  0  0  0  0  0  0
   -0.0141    0.9054    0.0000 C   0  0  0  0  0  0  0  0  0  0  0  0
    0.6933   -0.3395    0.0000 C   0  0  0  0  0  0  0  0  0  0  0  0
    0.6933    0.5093    0.0000 C   0  0  0  0  0  0  0  0  0  0  0  0
    1.4856   -0.5942    0.0000 C   0  0  0  0  0  0  0  0  0  0  0  0
    1.9666    0.0848    0.0000 C   0  0  0  0  0  0  0  0  0  0  0  0
    1.4856    0.7640    0.0000 C   0  0  0  0  0  0  0  0  0  0  0  0
    2.7872    0.3395    0.0000 O   0  0  0  0  0  0  0  0  0  0  0  0
    2.7872    1.1601    0.0000 C   0  0  0  0  0  0  0  0  0  0  0  0
    1.9666    1.4148    0.0000 O   0  0  0  0  0  0  0  0  0  0  0  0
   -3.6079   -1.9808    0.0000 O   0  0  0  0  0  0  0  0  0  0  0  0
   -0.7215   -2.8297    0.0000 F   0  0  0  0  0  0  0  0  0  0  0  0
   -1.4573    0.0848    0.0000 C   0  0  0  0  0  0  0  0  0  0  0  0
   -0.7215   -1.1602    0.0000 F   0  0  0  0  0  0  0  0  0  0  0  0
   -1.4573    0.9054    0.0000 O   0  0  0  0  0  0  0  0  0  0  0  0
    0.6933    1.3299    0.0000 C   0  0  0  0  0  0  0  0  0  0  0  0
    1.4856    1.5846    0.0000 C   0  0  0  0  0  0  0  0  0  0  0  0
    2.1930    2.0090    0.0000 C   0  0  0  0  0  0  0  0  0  0  0  0
    0.7781    1.9807    0.0000 O   0  0  0  0  0  0  0  0  0  0  0  0
    2.1930    2.8297    0.0000 O   0  0  0  0  0  0  0  0  0  0  0  0
    3.1834    1.8676    0.0000 C   0  0  0  0  0  0  0  0  0  0  0  0
    3.6079    1.1601    0.0000 C   0  0  0  0  0  0  0  0  0  0  0  0
  1 23  1  1
  2  1  1  0
  3  1  1  0
  4  2  2  0
  5  3  2  0
  6  4  1  0
  6  5  1  0
  7  1  1  0
  7 24  1  6
  8  7  1  0
  9  2  1  0
  9 22  1  6
  8 10  1  6
 10  9  1  0
 11  7  1  0
 11 25  1  1
 12 11  1  0
 13  8  1  0
 14 12  1  0
 14 13  1  0
 14 26  1  1
 13 15  1  1
 16 15  1  6
 17 14  1  0
 17 16  1  0
 17 27  1  1
 18 16  1  0
 19 18  1  0
 20 17  1  0
 20 19  1  0
 21  6  2  0
 28 27  1  0
 29 27  2  0
 30 28  1  0
 31 19  1  0
 32 19  1  0
M  END
>  <DRUGBANK_ID>  (1) 
DB00591

>  <SECONDARY_ACCESSION_NUMBERS>  (1) 
APRD00977

>  <COMMON_NAME>  (1) 
Fluocinolone acetonide

>  <CAS_NUMBER>  (1) 
67-73-2

>  <UNII>  (1) 
0CD5FD6S2M

>  <SYNONYMS>  (1) 
6alpha-fluorotriamcinolone acetonide; 6alpha,9alpha-difluoro-16alpha-hydroxyprednisolone 16,17-acetonide; 6α-fluorotriamcinolone acetonide; 6α,9α-difluoro-16α-hydroxyprednisolone 16,17-acetonide; acétonide de fluocinolone; acetónido de fluocinolona; fluocinolon acetonid; fluocinolone 16,17-acetonide; Fluocinolone acetonide; fluocinoloni acetonidum

$$$$
