
     RDKit          2D

 26 27  0  0  0  0  0  0  0  0999 V2000
   -0.3572   -0.8249    0.0000 C   0  0  0  0  0  0  0  0  0  0  0  0
    0.3572   -1.2374    0.0000 C   0  0  0  0  0  0  0  0  0  0  0  0
    0.3572   -2.0624    0.0000 C   0  0  0  0  0  0  0  0  0  0  0  0
   -0.3572   -2.4749    0.0000 C   0  0  0  0  0  0  0  0  0  0  0  0
   -1.0716   -2.0624    0.0000 C   0  0  0  0  0  0  0  0  0  0  0  0
   -1.0716   -1.2374    0.0000 C   0  0  0  0  0  0  0  0  0  0  0  0
   -1.7861   -0.8249    0.0000 O   0  0  0  0  0  0  0  0  0  0  0  0
   -1.7861    0.0000    0.0000 C   0  0  0  0  0  0  0  0  0  0  0  0
   -1.0716    1.2375    0.0000 C   0  0  0  0  0  0  0  0  0  0  0  0
   -1.7861    1.6500    0.0000 C   0  0  0  0  0  0  0  0  0  0  0  0
   -2.5006    1.2375    0.0000 C   0  0  0  0  0  0  0  0  0  0  0  0
   -2.5006    0.4125    0.0000 C   0  0  0  0  0  0  0  0  0  0  0  0
   -1.0716    0.4125    0.0000 C   0  0  0  0  0  0  0  0  0  0  0  0
   -0.3572    0.0000    0.0000 Br  0  0  0  0  0  0  0  0  0  0  0  0
   -1.7861   -2.4749    0.0000 Br  0  0  0  0  0  0  0  0  0  0  0  0
    1.7861   -2.0624    0.0000 C   0  0  0  0  0  0  0  0  0  0  0  0
    2.5006   -2.4749    0.0000 C   0  0  0  0  0  0  0  0  0  0  0  0
    1.7861   -1.2374    0.0000 O   0  0  0  0  0  0  0  0  0  0  0  0
    3.2151   -2.0624    0.0000 C   0  0  0  0  0  0  0  0  0  0  0  0
    3.9296   -2.4749    0.0000 O   0  0  0  0  0  0  0  0  0  0  0  0
    3.2151   -1.2374    0.0000 O   0  0  0  0  0  0  0  0  0  0  0  0
   -1.7861    2.4750    0.0000 O   0  0  0  0  0  0  0  0  0  0  0  0
    1.0717   -2.4749    0.0000 N   0  0  0  0  0  0  0  0  0  0  0  0
   -3.2152    1.6500    0.0000 C   0  0  0  0  0  0  0  0  0  0  0  0
   -3.9296    1.2375    0.0000 C   0  0  0  0  0  0  0  0  0  0  0  0
   -3.2152    2.4750    0.0000 C   0  0  0  0  0  0  0  0  0  0  0  0
  1  2  2  0
  1  6  1  0
  1 14  1  0
  2  3  1  0
  3  4  2  0
  3 23  1  0
  4  5  1  0
  5  6  2  0
  5 15  1  0
  6  7  1  0
  7  8  1  0
  8 13  2  0
  9 10  2  0
  9 13  1  0
 10 11  1  0
 10 22  1  0
 11 12  2  0
 11 24  1  0
 12  8  1  0
 16 17  1  0
 16 18  2  0
 16 23  1  0
 17 19  1  0
 19 20  1  0
 19 21  2  0
 24 25  1  0
 24 26  1  0
M  END
>  <DRUGBANK_ID>  (1) 
DB05035

>  <COMMON_NAME>  (1) 
Eprotirome

>  <CAS_NUMBER>  (1) 
355129-15-6

>  <UNII>  (1) 
958AQ7B6R1

>  <SYNONYMS>  (1) 
Eprotirome

$$$$
