
     RDKit          2D

 16 16  0  0  0  0  0  0  0  0999 V2000
    0.0000    0.6187    0.0000 C   0  0  0  0  0  0  0  0  0  0  0  0
    0.0000   -0.2062    0.0000 C   0  0  0  0  0  0  0  0  0  0  0  0
   -0.7145   -0.6187    0.0000 C   0  0  0  0  0  0  0  0  0  0  0  0
   -1.4290   -0.2062    0.0000 C   0  0  0  0  0  0  0  0  0  0  0  0
   -1.4290    0.6187    0.0000 C   0  0  0  0  0  0  0  0  0  0  0  0
   -0.7145    1.0313    0.0000 C   0  0  0  0  0  0  0  0  0  0  0  0
   -2.1435   -0.6187    0.0000 O   0  0  0  0  0  0  0  0  0  0  0  0
   -2.1435    1.0313    0.0000 O   0  0  0  0  0  0  0  0  0  0  0  0
    0.7145    1.0313    0.0000 C   0  0  0  0  0  0  0  0  0  0  0  0
   -2.8581    0.6187    0.0000 C   0  0  0  0  0  0  0  0  0  0  0  0
    1.4290    0.6187    0.0000 C   0  0  0  0  0  0  0  0  0  0  0  0
    2.1435    1.0313    0.0000 C   0  0  0  0  0  0  0  0  0  0  0  0
    2.1435    1.8563    0.0000 O   0  0  0  0  0  0  0  0  0  0  0  0
    2.8581    0.6187    0.0000 O   0  0  0  0  0  0  0  0  0  0  0  0
   -0.7145   -1.4438    0.0000 O   0  0  0  0  0  0  0  0  0  0  0  0
    0.0000   -1.8563    0.0000 C   0  0  0  0  0  0  0  0  0  0  0  0
  1  9  1  0
  1  6  2  0
  2  1  1  0
  3  2  2  0
  3 15  1  0
  3  4  1  0
  4  7  1  0
  4  5  2  0
  5  8  1  0
  5  6  1  0
  8 10  1  0
  9 11  2  0
 11 12  1  0
 12 13  2  0
 12 14  1  0
 15 16  1  0
M  END
>  <DRUGBANK_ID>  (1) 
DB08587

>  <COMMON_NAME>  (1) 
Sinapic acid

>  <CAS_NUMBER>  (1) 
7362-37-0

>  <UNII>  (1) 
P0I60993EC

>  <SYNONYMS>  (1) 
(E)-3-(4-Hydroxy-3,5-dimethoxyphenyl)-2-propenoic acid; Sinapinate; Sinapinic acid; trans-sinapic acid

$$$$
