644073
     RDKit          2D

 34 40  0  0  1  0  0  0  0  0999 V2000
    4.3078   -2.2511    0.0000 O   0  0  0  0  0  0  0  0  0  0  0  0
    6.3944   -2.4225    0.0000 O   0  0  0  0  0  0  0  0  0  0  0  0
    7.2344   -0.1130    0.0000 O   0  0  0  0  0  0  0  0  0  0  0  0
    2.2396   -2.4225    0.0000 O   0  0  0  0  0  0  0  0  0  0  0  0
    5.1420    1.1756    0.0000 N   0  0  0  0  0  0  0  0  0  0  0  0
    5.1420   -0.2533    0.0000 C   0  0  0  0  0  0  0  0  0  0  0  0
    4.7295   -0.9678    0.0000 C   0  0  0  0  0  0  0  0  0  0  0  0
    5.9670   -1.6823    0.0000 C   0  0  0  0  0  0  0  0  0  0  0  0
    5.1420   -1.6823    0.0000 C   0  0  0  0  0  0  0  0  0  0  0  0
    6.3796   -0.9678    0.0000 C   0  0  0  0  0  0  0  0  0  0  0  0
    5.9670   -0.2533    0.0000 C   0  0  0  0  0  0  0  0  0  0  0  0
    4.7295    0.4612    0.0000 C   0  0  0  0  0  0  0  0  0  0  0  0
    5.7378   -0.6378    0.0000 C   0  0  0  0  0  0  0  0  0  0  0  0
    5.4262   -1.2611    0.0000 C   0  0  0  0  0  0  0  0  0  0  0  0
    4.3171   -0.2533    0.0000 C   0  0  0  0  0  0  0  0  0  0  0  0
    3.9045   -0.9678    0.0000 C   0  0  0  0  0  0  0  0  0  0  0  0
    3.9045    0.4612    0.0000 C   0  0  0  0  0  0  0  0  0  0  0  0
    7.2344   -0.9678    0.0000 C   0  0  0  0  0  0  0  0  0  0  0  0
    4.3078    1.3238    0.0000 C   0  0  0  0  0  0  0  0  0  0  0  0
    3.4920   -0.2533    0.0000 C   0  0  0  0  0  0  0  0  0  0  0  0
    3.4920   -1.6823    0.0000 C   0  0  0  0  0  0  0  0  0  0  0  0
    5.9170    1.5364    0.0000 C   0  0  0  0  0  0  0  0  0  0  0  0
    8.0892   -0.9678    0.0000 C   0  0  0  0  0  0  0  0  0  0  0  0
    5.9921    2.3878    0.0000 C   0  0  0  0  0  0  0  0  0  0  0  0
    7.2344   -1.8226    0.0000 C   0  0  0  0  0  0  0  0  0  0  0  0
    2.6670   -0.2533    0.0000 C   0  0  0  0  0  0  0  0  0  0  0  0
    2.6670   -1.6823    0.0000 C   0  0  0  0  0  0  0  0  0  0  0  0
    5.6313    3.1628    0.0000 C   0  0  0  0  0  0  0  0  0  0  0  0
    6.4829    3.0878    0.0000 C   0  0  0  0  0  0  0  0  0  0  0  0
    5.9670   -3.1628    0.0000 C   0  0  0  0  0  0  0  0  0  0  0  0
    2.2545   -0.9678    0.0000 C   0  0  0  0  0  0  0  0  0  0  0  0
    8.9440   -0.9678    0.0000 C   0  0  0  0  0  0  0  0  0  0  0  0
    8.0892   -1.8226    0.0000 C   0  0  0  0  0  0  0  0  0  0  0  0
    8.0892   -0.1130    0.0000 C   0  0  0  0  0  0  0  0  0  0  0  0
  1 21  1  0
  2 30  1  0
  4 27  1  0
  5 19  1  0
  5 22  1  0
  6  7  1  0
  6 11  1  1
  6 12  1  0
  6 13  1  0
  7  9  1  0
  7 15  1  1
  7 16  1  0
  8  2  1  6
  8  9  1  0
  8 10  1  0
  8 14  1  0
  9  1  1  6
 10 11  1  6
 10 18  1  0
 12  5  1  0
 12 17  1  1
 13 14  1  0
 15 19  1  0
 16 20  1  0
 16 21  2  0
 17 20  1  0
 18  3  1  0
 18 23  1  0
 18 25  1  1
 20 26  2  0
 21 27  1  0
 22 24  1  0
 23 32  1  0
 23 33  1  0
 23 34  1  0
 24 28  1  0
 24 29  1  0
 26 31  1  0
 27 31  2  0
 28 29  1  0
M  END
>  <DRUGBANK_ID>  (1) 
DB00921

>  <SECONDARY_ACCESSION_NUMBERS>  (1) 
APRD00670

>  <COMMON_NAME>  (1) 
Buprenorphine

>  <CAS_NUMBER>  (1) 
52485-79-7

>  <UNII>  (1) 
40D3SCR4GZ

>  <SYNONYMS>  (1) 
(−)-buprenorphine; 17-cyclopropylmethyl-4,5α-epoxy-7α-((S)-1-hydroxy-1,2,2-trimethylpropyl)-6-methoxy-6,14-endo-ethanomorphinan-3-ol; 2-(N-cyclopropylmethyl-4,5α-epoxy-3-hydroxy-6-methoxy-6,14-endo-ethanomorphinan-6α-yl)-3,3-dimethyl-2-butanol; 2-[3-cyclopropylmethyl-11-hydroxy-15-methoxy-(14R)-13-oxa-3-azahexacyclo[13.2.2.12,8.01,6.06,14.07,12]icosa-7,9,11-trien-16-yl]-3,3-dimethyl-2-butanol; 21-cyclopropyl-7α-[(S)-1-hydroxy-1,2,2-trimethylpropyl]-6,14-endo-ethano-6,7,8,14-tetrahydrooripavine; Buprenophine; Buprenorfina; Buprenorphine; Buprenorphinum

$$$$
