
     RDKit          2D

 42 47  0  0  0  0  0  0  0  0999 V2000
   -1.7078   -7.8139    0.0000 C   0  0  0  0  0  0  0  0  0  0  0  0
   -0.9008   -7.6424    0.0000 N   0  0  0  0  0  0  0  0  0  0  0  0
   -0.6459   -6.8577    0.0000 C   0  0  0  0  0  0  0  0  0  0  0  0
    0.1611   -6.6862    0.0000 C   0  0  0  0  0  0  0  0  0  0  0  0
    0.7132   -7.2993    0.0000 C   0  0  0  0  0  0  0  0  0  0  0  0
    0.4582   -8.0839    0.0000 C   0  0  0  0  0  0  0  0  0  0  0  0
   -0.3488   -8.2554    0.0000 C   0  0  0  0  0  0  0  0  0  0  0  0
    1.5201   -7.1278    0.0000 C   0  0  0  0  0  0  0  0  0  0  0  0
    2.0722   -7.7409    0.0000 C   0  0  0  0  0  0  0  0  0  0  0  0
    2.8791   -7.5693    0.0000 C   0  0  0  0  0  0  0  0  0  0  0  0
    3.1341   -6.7847    0.0000 C   0  0  0  0  0  0  0  0  0  0  0  0
    2.5820   -6.1716    0.0000 C   0  0  0  0  0  0  0  0  0  0  0  0
    1.7751   -6.3432    0.0000 C   0  0  0  0  0  0  0  0  0  0  0  0
    1.2230   -5.7301    0.0000 C   0  0  0  0  0  0  0  0  0  0  0  0
    1.4780   -4.9454    0.0000 C   0  0  0  0  0  0  0  0  0  0  0  0
    2.2626   -5.2004    0.0000 C   0  0  0  0  0  0  0  0  0  0  0  0
    0.6933   -4.6905    0.0000 C   0  0  0  0  0  0  0  0  0  0  0  0
    1.7329   -4.1608    0.0000 N   0  0  0  0  0  0  0  0  0  0  0  0
    1.1809   -3.5477    0.0000 C   0  0  0  0  0  0  0  0  0  0  0  0
    0.3739   -3.7192    0.0000 N   0  0  0  0  0  0  0  0  0  0  0  0
   -0.1781   -3.1062    0.0000 C   0  0  0  0  0  0  0  0  0  0  0  0
    0.0768   -2.3215    0.0000 N   0  0  0  0  0  0  0  0  0  0  0  0
    0.8838   -2.1500    0.0000 C   0  0  0  0  0  0  0  0  0  0  0  0
    1.4358   -2.7631    0.0000 N   0  0  0  0  0  0  0  0  0  0  0  0
    1.1387   -1.3654    0.0000 N   0  0  0  0  0  0  0  0  0  0  0  0
    0.6538   -0.6979    0.0000 C   0  0  0  0  0  0  0  0  0  0  0  0
    1.1387   -0.0305    0.0000 N   0  0  0  0  0  0  0  0  0  0  0  0
    1.9233   -0.2854    0.0000 C   0  0  0  0  0  0  0  0  0  0  0  0
    2.6378    0.1271    0.0000 C   0  0  0  0  0  0  0  0  0  0  0  0
    3.3523   -0.2854    0.0000 C   0  0  0  0  0  0  0  0  0  0  0  0
    3.3523   -1.1104    0.0000 C   0  0  0  0  0  0  0  0  0  0  0  0
    2.6378   -1.5229    0.0000 C   0  0  0  0  0  0  0  0  0  0  0  0
    1.9233   -1.1104    0.0000 C   0  0  0  0  0  0  0  0  0  0  0  0
   -0.1712   -0.6979    0.0000 C   0  0  0  0  0  0  0  0  0  0  0  0
   -0.5837    0.0165    0.0000 F   0  0  0  0  0  0  0  0  0  0  0  0
   -0.5837   -1.4124    0.0000 F   0  0  0  0  0  0  0  0  0  0  0  0
   -0.9851   -3.2777    0.0000 N   0  0  0  0  0  0  0  0  0  0  0  0
   -1.2400   -4.0623    0.0000 C   0  0  0  0  0  0  0  0  0  0  0  0
   -2.0470   -4.2338    0.0000 C   0  0  0  0  0  0  0  0  0  0  0  0
   -2.5990   -3.6207    0.0000 O   0  0  0  0  0  0  0  0  0  0  0  0
   -2.3441   -2.8361    0.0000 C   0  0  0  0  0  0  0  0  0  0  0  0
   -1.5371   -2.6646    0.0000 C   0  0  0  0  0  0  0  0  0  0  0  0
  1  2  1  0
  2  3  1  0
  2  7  1  0
  3  4  1  0
  4  5  1  0
  5  6  1  0
  5  8  1  0
  6  7  1  0
  8  9  2  0
  8 13  1  0
  9 10  1  0
 10 11  2  0
 11 12  1  0
 12 13  2  0
 13 14  1  0
 14 15  1  0
 15 16  1  0
 15 17  1  0
 15 18  1  0
 18 19  1  0
 19 20  2  0
 19 24  1  0
 20 21  1  0
 21 22  2  0
 21 37  1  0
 22 23  1  0
 23 24  2  0
 23 25  1  0
 25 26  1  0
 25 33  1  0
 26 27  2  0
 26 34  1  0
 27 28  1  0
 28 29  1  0
 28 33  2  0
 29 30  2  0
 30 31  1  0
 31 32  2  0
 32 33  1  0
 34 35  1  0
 34 36  1  0
 37 38  1  0
 37 42  1  0
 38 39  1  0
 39 40  1  0
 40 41  1  0
 41 42  1  0
M  END
>  <DRUGBANK_ID>  (1) 
DB18245

>  <COMMON_NAME>  (1) 
Zandelisib

>  <CAS_NUMBER>  (1) 
1401436-95-0

>  <UNII>  (1) 
8Z28M5SX0X

>  <SYNONYMS>  (1) 
1,3,5-triazin-2-amine, 4-(2-(difluoromethyl)-1h-benzimidazol-1-yl)-n-(1,1-dimethyl-2-(2-(1-methyl-4-piperidinyl)phenyl)ethyl)-6-(4-morpholinyl)-; 4-(2-(difluoromethyl)benzimidazol-1-yl)-n-(1,1-dimethyl-2-(2-(1-methyl-4-piperidyl)phenyl)ethyl)-6-morpholino-1,3,5-triazin-2-amine

$$$$
