
     RDKit          2D

 37 40  0  0  1  0  0  0  0  0999 V2000
   -2.8653    1.4266    0.0000 C   0  0  0  0  0  0  0  0  0  0  0  0
   -2.1514    1.8320    0.0000 C   0  0  0  0  0  0  0  0  0  0  0  0
   -1.4220    1.4259    0.0000 C   0  0  0  0  0  0  0  0  0  0  0  0
   -0.7179    1.8455    0.0000 C   0  0  0  0  0  0  0  0  0  0  0  0
    0.0046    1.4405    0.0000 C   0  0  0  0  0  0  0  0  0  0  0  0
    0.0046    0.6120    0.0000 C   0  0  0  0  0  0  0  0  0  0  0  0
    0.7271    0.2025    0.0000 C   0  0  0  0  0  0  0  0  0  0  0  0
    1.4404    0.6213    0.0000 C   0  0  0  0  0  0  0  0  0  0  0  0
    2.1583    0.2117    0.0000 C   0  0  0  0  0  0  0  0  0  0  0  0
    1.4404    1.4451    0.0000 C   0  0  0  0  0  0  0  0  0  0  0  0
    0.7271   -0.6213    0.0000 N   0  0  0  0  0  0  0  0  0  0  0  0
    0.0092   -1.0308    0.0000 C   0  0  0  0  0  0  0  0  0  0  0  0
    0.0092   -1.8546    0.0000 C   0  0  0  0  0  0  0  0  0  0  0  0
   -0.7133   -2.2642    0.0000 C   0  0  0  0  0  0  0  0  0  0  0  0
   -0.7133   -3.0879    0.0000 C   0  0  0  0  0  0  0  0  0  0  0  0
   -0.0046   -3.5066    0.0000 C   0  0  0  0  0  0  0  0  0  0  0  0
    0.7133   -3.0971    0.0000 C   0  0  0  0  0  0  0  0  0  0  0  0
    0.7133   -2.2687    0.0000 C   0  0  0  0  0  0  0  0  0  0  0  0
   -0.0046   -4.3305    0.0000 C   0  0  0  0  0  0  0  0  0  0  0  0
   -0.7133   -0.6120    0.0000 O   0  0  0  0  0  0  0  0  0  0  0  0
    1.4404   -1.0308    0.0000 C   0  0  0  0  0  0  0  0  0  0  0  0
    2.1537   -0.6120    0.0000 C   0  0  0  0  0  0  0  0  0  0  0  0
    2.8717   -1.0216    0.0000 C   0  0  0  0  0  0  0  0  0  0  0  0
    3.5849   -0.6119    0.0000 N   0  0  0  0  0  0  0  0  0  0  0  0
   -0.7041    0.1978    0.0000 O   0  0  0  0  0  0  0  0  0  0  0  0
   -1.4220    0.6028    0.0000 C   0  0  0  0  0  0  0  0  0  0  0  0
   -2.1494    0.1811    0.0000 C   0  0  0  0  0  0  0  0  0  0  0  0
   -2.8653    0.5911    0.0000 C   0  0  0  0  0  0  0  0  0  0  0  0
   -3.5849    0.1887    0.0000 Cl  0  0  0  0  0  0  0  0  0  0  0  0
    0.7086    1.8547    0.0000 C   0  0  0  0  0  0  0  0  0  0  0  0
    0.7086    2.6830    0.0000 C   0  0  0  0  0  0  0  0  0  0  0  0
    1.4175    3.0972    0.0000 C   0  0  0  0  0  0  0  0  0  0  0  0
    1.4175    3.9256    0.0000 C   0  0  0  0  0  0  0  0  0  0  0  0
    0.6949    4.3305    0.0000 C   0  0  0  0  0  0  0  0  0  0  0  0
   -0.0065    3.9117    0.0000 C   0  0  0  0  0  0  0  0  0  0  0  0
   -0.0065    3.0897    0.0000 C   0  0  0  0  0  0  0  0  0  0  0  0
   -0.7179    2.6692    0.0000 O   0  0  0  0  0  0  0  0  0  0  0  0
  1 28  2  0
  2  1  1  0
  3  2  2  0
  3  4  1  0
  4  5  1  0
  4 37  2  0
  5  6  2  0
  5 30  1  0
  6  7  1  0
  6 25  1  0
  7  8  1  1
  7 11  1  0
  8  9  1  0
  8 10  1  0
 11 12  1  0
 11 21  1  0
 12 13  1  0
 12 20  2  0
 13 14  2  0
 14 15  1  0
 15 16  2  0
 16 17  1  0
 16 19  1  0
 17 18  2  0
 18 13  1  0
 21 22  1  0
 22 23  1  0
 23 24  1  0
 25 26  1  0
 26  3  1  0
 27 26  2  0
 28 27  1  0
 28 29  1  0
 30 31  1  0
 31 36  1  0
 32 31  2  0
 33 32  1  0
 34 33  2  0
 35 34  1  0
 36 35  2  0
M  END
>  <DRUGBANK_ID>  (1) 
DB05546

>  <COMMON_NAME>  (1) 
SB-743921

>  <CAS_NUMBER>  (1) 
618430-39-0

>  <UNII>  (1) 
24DSZ1VN92

$$$$
