BR3
     RDKit          2D

 15 16  0  0  0  0  0  0  0  0999 V2000
   -3.0639    0.8999    0.0000 C   0  0  0  0  0  0  0  0  0  0  0  0
   -2.3494    0.4874    0.0000 C   0  0  0  0  0  0  0  0  0  0  0  0
   -1.6349    0.8999    0.0000 O   0  0  0  0  0  0  0  0  0  0  0  0
   -0.9204    0.4874    0.0000 C   0  0  0  0  0  0  0  0  0  0  0  0
   -0.2060    0.8999    0.0000 C   0  0  0  0  0  0  0  0  0  0  0  0
    0.5085    0.4874    0.0000 P   0  0  0  0  0  0  0  0  0  0  0  0
    1.2230    0.8999    0.0000 O   0  0  0  0  0  0  0  0  0  0  0  0
    0.5085   -0.3376    0.0000 O   0  0  0  0  0  0  0  0  0  0  0  0
   -0.9204   -0.3376    0.0000 C   0  0  0  0  0  0  0  0  0  0  0  0
   -1.6349   -0.7501    0.0000 C   0  0  0  0  0  0  0  0  0  0  0  0
   -2.3494   -0.3376    0.0000 C   0  0  0  0  0  0  0  0  0  0  0  0
   -3.0639   -0.7501    0.0000 C   0  0  0  0  0  0  0  0  0  0  0  0
   -3.7783   -0.3376    0.0000 C   0  0  0  0  0  0  0  0  0  0  0  0
   -3.7783    0.4874    0.0000 C   0  0  0  0  0  0  0  0  0  0  0  0
   -4.4928   -0.7501    0.0000 C   0  0  0  0  0  0  0  0  0  0  0  0
  1  2  2  0
  1 14  1  0
  2  3  1  0
  2 11  1  0
  3  4  1  0
  4  5  1  6
  4  9  1  0
  5  6  1  0
  6  7  1  1
  6  8  2  0
  9 10  1  0
 10 11  1  0
 11 12  2  0
 12 13  1  0
 13 14  2  0
 13 15  1  0
M  CHG  1   7  -1
M  END
>  <DRUGBANK_ID>  (1) 
DB07487

>  <COMMON_NAME>  (1) 
(6-METHYL-3,4-DIHYDRO-2H-CHROMEN-2-YL)METHYLPHOSPHINATE

$$$$
