
     RDKit          2D

  4  2  0  0  0  0  0  0  0  0999 V2000
    0.0295    0.3904    0.0000 Ca  0  0  0  0  0 15  0  0  0  0  0  0
    0.0000   -0.3903    0.0000 C   0  0  0  0  0  0  0  0  0  0  0  0
    0.8250   -0.3903    0.0000 N   0  0  0  0  0  0  0  0  0  0  0  0
   -0.8250   -0.3903    0.0000 N   0  0  0  0  0  0  0  0  0  0  0  0
  2  3  2  0
  2  4  2  0
M  CHG  3   1   2   3  -1   4  -1
M  END
>  <DRUGBANK_ID>  (1) 
DB09116

>  <COMMON_NAME>  (1) 
Calcium carbimide

>  <CAS_NUMBER>  (1) 
156-62-7

>  <UNII>  (1) 
ZLR270912W

>  <SYNONYMS>  (1) 
Calcium carbimide; calcium cyanamide; carbimida calcica; carbimide calcique; Cyanamide calcique; Cyanamide, calcium salt (1:1); Lime nitrogen; Lime-nitrogen; methanediimine, calcium salt (1:1); Nitrogen lime

$$$$
