
     RDKit          2D

 23 24  0  0  1  0  0  0  0  0999 V2000
    0.6078    2.0009    0.0000 C   0  0  0  0  0  0  0  0  0  0  0  0
    1.3222    2.4134    0.0000 C   0  0  0  0  0  0  0  0  0  0  0  0
    1.3222    3.2384    0.0000 C   0  0  0  0  0  0  0  0  0  0  0  0
    2.0367    3.6509    0.0000 C   0  0  0  0  0  0  0  0  0  0  0  0
    2.7512    3.2384    0.0000 C   0  0  0  0  0  0  0  0  0  0  0  0
    2.7512    2.4134    0.0000 C   0  0  0  0  0  0  0  0  0  0  0  0
    2.0367    2.0009    0.0000 O   0  0  0  0  0  0  0  0  0  0  0  0
    3.4656    2.0009    0.0000 O   0  0  0  0  0  0  0  0  0  0  0  0
    3.4656    1.1759    0.0000 C   0  0  0  0  0  0  0  0  0  0  0  0
    4.1331    0.6910    0.0000 C   0  0  0  0  0  0  0  0  0  0  0  0
    3.8781   -0.0937    0.0000 C   0  0  0  0  0  0  0  0  0  0  0  0
    3.0531   -0.0937    0.0000 O   0  0  0  0  0  0  0  0  0  0  0  0
    2.7982    0.6910    0.0000 C   0  0  0  0  0  0  0  0  0  0  0  0
    2.0136    0.9459    0.0000 O   0  0  0  0  0  0  0  0  0  0  0  0
    4.3631   -0.7611    0.0000 C   0  0  0  0  0  0  0  0  0  0  0  0
    4.0275   -1.5148    0.0000 C   0  0  0  0  0  0  0  0  0  0  0  0
    4.5124   -2.1822    0.0000 O   0  0  0  0  0  0  0  0  0  0  0  0
    5.1836   -0.6749    0.0000 O   0  0  0  0  0  0  0  0  0  0  0  0
    4.9177    0.9459    0.0000 O   0  0  0  0  0  0  0  0  0  0  0  0
    3.4656    3.6509    0.0000 O   0  0  0  0  0  0  0  0  0  0  0  0
    2.0367    4.4759    0.0000 O   0  0  0  0  0  0  0  0  0  0  0  0
    0.6078    3.6509    0.0000 O   0  0  0  0  0  0  0  0  0  0  0  0
    0.6078    1.1759    0.0000 O   0  0  0  0  0  0  0  0  0  0  0  0
  1 23  1  0
  2  1  1  6
  2  3  1  0
  2  7  1  0
  3  4  1  0
  3 22  1  1
  4  5  1  0
  4 21  1  6
  5  6  1  0
  5 20  1  1
  6  7  1  0
  6  8  1  1
  8  9  1  0
  9 10  2  0
  9 13  1  0
 10 11  1  0
 10 19  1  0
 11 12  1  1
 11 15  1  0
 12 13  1  0
 13 14  2  0
 15 16  1  0
 15 18  1  1
 16 17  1  0
M  END
>  <DRUGBANK_ID>  (1) 
DB11335

>  <COMMON_NAME>  (1) 
Ascorbyl glucoside

>  <CAS_NUMBER>  (1) 
129499-78-1

>  <UNII>  (1) 
2V52R0NHXW

>  <SYNONYMS>  (1) 
AA-2G; AA2G; Ascorbic acid 2-O-glucoside

$$$$
