1775
     RDKit          2D

 19 21  0  0  0  0  0  0  0  0999 V2000
    3.5022    1.7788    0.0000 O   0  0  0  0  0  0  0  0  0  0  0  0
    6.2311    0.7855    0.0000 O   0  0  0  0  0  0  0  0  0  0  0  0
    4.8988    0.1642    0.0000 N   0  0  0  0  0  0  0  0  0  0  0  0
    4.9453    1.4983    0.0000 N   0  0  0  0  0  0  0  0  0  0  0  0
    4.1235    0.4463    0.0000 C   0  0  0  0  0  0  0  0  0  0  0  0
    3.8414   -0.3289    0.0000 C   0  0  0  0  0  0  0  0  0  0  0  0
    3.2990    0.4751    0.0000 C   0  0  0  0  0  0  0  0  0  0  0  0
    4.1523    1.2708    0.0000 C   0  0  0  0  0  0  0  0  0  0  0  0
    5.4066    0.8143    0.0000 C   0  0  0  0  0  0  0  0  0  0  0  0
    3.1268   -0.7414    0.0000 C   0  0  0  0  0  0  0  0  0  0  0  0
    2.9117    1.2036    0.0000 C   0  0  0  0  0  0  0  0  0  0  0  0
    4.5558   -0.7414    0.0000 C   0  0  0  0  0  0  0  0  0  0  0  0
    2.8618   -0.2244    0.0000 C   0  0  0  0  0  0  0  0  0  0  0  0
    2.0872    1.2324    0.0000 C   0  0  0  0  0  0  0  0  0  0  0  0
    3.1268   -1.5664    0.0000 C   0  0  0  0  0  0  0  0  0  0  0  0
    4.5558   -1.5664    0.0000 C   0  0  0  0  0  0  0  0  0  0  0  0
    2.0373   -0.1957    0.0000 C   0  0  0  0  0  0  0  0  0  0  0  0
    1.6500    0.5327    0.0000 C   0  0  0  0  0  0  0  0  0  0  0  0
    3.8414   -1.9789    0.0000 C   0  0  0  0  0  0  0  0  0  0  0  0
  1  8  2  0
  2  9  2  0
  3  5  1  0
  3  9  1  0
  4  8  1  0
  4  9  1  0
  5  6  1  0
  5  7  1  0
  5  8  1  0
  6 10  2  0
  6 12  1  0
  7 11  2  0
  7 13  1  0
 10 15  1  0
 11 14  1  0
 12 16  2  0
 13 17  2  0
 14 18  2  0
 15 19  2  0
 16 19  1  0
 17 18  1  0
M  END
>  <DRUGBANK_ID>  (1) 
DB00252

>  <SECONDARY_ACCESSION_NUMBERS>  (1) 
APRD00241

>  <COMMON_NAME>  (1) 
Phenytoin

>  <CAS_NUMBER>  (1) 
57-41-0

>  <UNII>  (1) 
6158TKW0C5

>  <SYNONYMS>  (1) 
5,5-Diphenyl-imidazolidine-2,4-dione; 5,5-diphenylimidazolidine-2,4-dione; 5,5-diphenyltetrahydro-1H-2,4-imidazoledione	; 5,5-Diphenyltetrahydro-1H-2,4-imidazoledione; Diphenylhydantoin; Fenitoina; Phentytoin; Phenytoin; Phenytoine; Phenytoinum; PR-122 (redox-phenytoin); Redox-phenytoin

$$$$
