
     RDKit          2D

 22 17  0  0  0  0  0  0  0  0999 V2000
   -6.2031    0.3575    0.0000 C   0  0  0  0  0  0  0  0  0  0  0  0
   -5.3770    0.3575    0.0000 C   0  0  0  0  0  0  0  0  0  0  0  0
   -4.9654   -0.3575    0.0000 N   0  0  0  0  0  0  0  0  0  0  0  0
   -4.1422   -0.3575    0.0000 C   0  0  0  0  0  0  0  0  0  0  0  0
   -3.7306    0.3575    0.0000 C   0  0  0  0  0  0  0  0  0  0  0  0
   -2.9074    0.3575    0.0000 C   0  0  0  0  0  0  0  0  0  0  0  0
   -2.4958   -0.3575    0.0000 N   0  0  0  0  0  0  0  0  0  0  0  0
   -1.6726   -0.3575    0.0000 C   0  0  0  0  0  0  0  0  0  0  0  0
   -1.2610    0.3575    0.0000 C   0  0  0  0  0  0  0  0  0  0  0  0
   -0.4378    0.3575    0.0000 C   0  0  0  0  0  0  0  0  0  0  0  0
   -0.0261   -0.3575    0.0000 C   0  0  0  0  0  0  0  0  0  0  0  0
    0.7969   -0.3575    0.0000 N   0  0  0  0  0  0  0  0  0  0  0  0
    1.2085    0.3575    0.0000 C   0  0  0  0  0  0  0  0  0  0  0  0
    2.0318    0.3575    0.0000 C   0  0  0  0  0  0  0  0  0  0  0  0
    2.4433   -0.3575    0.0000 C   0  0  0  0  0  0  0  0  0  0  0  0
    3.2666   -0.3575    0.0000 N   0  0  0  0  0  0  0  0  0  0  0  0
    3.6782    0.3575    0.0000 C   0  0  0  0  0  0  0  0  0  0  0  0
    4.5013    0.3575    0.0000 C   0  0  0  0  0  0  0  0  0  0  0  0
    6.2031   -0.1679    0.0000 Cl  0  0  0  0  0  0  0  0  0  0  0  0
    6.2031   -0.1679    0.0000 Cl  0  0  0  0  0  0  0  0  0  0  0  0
    6.2031   -0.1679    0.0000 Cl  0  0  0  0  0  0  0  0  0  0  0  0
    6.2031   -0.1679    0.0000 Cl  0  0  0  0  0  0  0  0  0  0  0  0
  1  2  1  0
  2  3  1  0
  3  4  1  0
  4  5  1  0
  5  6  1  0
  6  7  1  0
  7  8  1  0
  8  9  1  0
  9 10  2  0
 10 11  1  0
 11 12  1  0
 12 13  1  0
 13 14  1  0
 14 15  1  0
 15 16  1  0
 16 17  1  0
 17 18  1  0
M  END
>  <DRUGBANK_ID>  (1) 
DB05722

>  <COMMON_NAME>  (1) 
CGC-11047

>  <CAS_NUMBER>  (1) 
206991-64-2

>  <UNII>  (1) 
HU43305R7O

$$$$
