
     RDKit          2D

 38 42  0  0  1  0  0  0  0  0999 V2000
    6.3494   -2.9062    0.0000 O   0  0  0  0  0  0  0  0  0  0  0  0
    4.7695   -0.5222    0.0000 O   0  0  0  0  0  0  0  0  0  0  0  0
    4.8823   -1.0984    0.0000 O   0  0  0  0  0  0  0  0  0  0  0  0
    1.6500    0.9800    0.0000 O   0  0  0  0  0  0  0  0  0  0  0  0
    5.8478   -1.5242    0.0000 O   0  0  0  0  0  0  0  0  0  0  0  0
    6.3993   -4.3755    0.0000 O   0  0  0  0  0  0  0  0  0  0  0  0
    4.7944    2.3731    0.0000 O   0  0  0  0  0  0  0  0  0  0  0  0
    3.3812   -0.3658    0.0000 N   0  0  0  0  0  0  0  0  0  0  0  0
    2.6379   -0.0079    0.0000 N   0  0  0  0  0  0  0  0  0  0  0  0
    4.2772   -2.3929    0.0000 N   0  0  0  0  0  0  0  0  0  0  0  0
    5.1124    0.9800    0.0000 N   0  0  0  0  0  0  0  0  0  0  0  0
    6.7211    1.3472    0.0000 N   0  0  0  0  0  0  0  0  0  0  0  0
    3.4587   -1.2217    0.0000 C   0  0  0  0  0  0  0  0  0  0  0  0
    2.7524   -1.7112    0.0000 C   0  0  0  0  0  0  0  0  0  0  0  0
    1.9781   -1.3384    0.0000 C   0  0  0  0  0  0  0  0  0  0  0  0
    1.9205   -0.4810    0.0000 C   0  0  0  0  0  0  0  0  0  0  0  0
    4.3081    0.7965    0.0000 C   0  0  0  0  0  0  0  0  0  0  0  0
    4.1245   -0.0079    0.0000 C   0  0  0  0  0  0  0  0  0  0  0  0
    3.7937    1.4415    0.0000 C   0  0  0  0  0  0  0  0  0  0  0  0
    4.2060   -1.5711    0.0000 C   0  0  0  0  0  0  0  0  0  0  0  0
    2.9687    1.4415    0.0000 C   0  0  0  0  0  0  0  0  0  0  0  0
    2.4543    0.7965    0.0000 C   0  0  0  0  0  0  0  0  0  0  0  0
    5.0246   -2.7423    0.0000 C   0  0  0  0  0  0  0  0  0  0  0  0
    5.7465   -2.3430    0.0000 C   0  0  0  0  0  0  0  0  0  0  0  0
    5.1813   -3.5523    0.0000 C   0  0  0  0  0  0  0  0  0  0  0  0
    6.0000   -3.6535    0.0000 C   0  0  0  0  0  0  0  0  0  0  0  0
    5.3556    1.7684    0.0000 C   0  0  0  0  0  0  0  0  0  0  0  0
    6.6076   -1.2025    0.0000 C   0  0  0  0  0  0  0  0  0  0  0  0
    6.1599    1.9520    0.0000 C   0  0  0  0  0  0  0  0  0  0  0  0
    6.4031    2.7403    0.0000 C   0  0  0  0  0  0  0  0  0  0  0  0
    7.2659   -1.6997    0.0000 C   0  0  0  0  0  0  0  0  0  0  0  0
    7.2074    2.9239    0.0000 C   0  0  0  0  0  0  0  0  0  0  0  0
    5.8090    3.3612    0.0000 C   0  0  0  0  0  0  0  0  0  0  0  0
    7.7686    2.3191    0.0000 C   0  0  0  0  0  0  0  0  0  0  0  0
    7.5254    1.5308    0.0000 C   0  0  0  0  0  0  0  0  0  0  0  0
    7.4733    3.7411    0.0000 C   0  0  0  0  0  0  0  0  0  0  0  0
    6.0559    4.1843    0.0000 C   0  0  0  0  0  0  0  0  0  0  0  0
    6.8938    4.3755    0.0000 C   0  0  0  0  0  0  0  0  0  0  0  0
  1 24  1  0
  1 26  1  0
  2 18  2  0
  3 20  2  0
  4 22  2  0
  5 28  1  0
  6 26  2  0
  7 27  2  0
  8  9  1  0
  8 13  1  0
  8 18  1  0
  9 16  1  0
  9 22  1  0
 10 20  1  0
 11 27  1  0
 12 29  2  0
 12 35  1  0
 13 14  1  0
 13 20  1  6
 14 15  1  0
 15 16  1  0
 17 11  1  6
 17 18  1  0
 17 19  1  0
 19 21  1  0
 21 22  1  0
 23 10  1  6
 23 24  1  0
 23 25  1  0
 24  5  1  6
 25 26  1  0
 27 29  1  0
 28 31  1  0
 29 30  1  0
 30 32  2  0
 30 33  1  0
 32 34  1  0
 32 36  1  0
 33 37  2  0
 34 35  2  0
 36 38  2  0
 37 38  1  0
M  END
>  <DRUGBANK_ID>  (1) 
DB04875

>  <COMMON_NAME>  (1) 
Pralnacasan

>  <CAS_NUMBER>  (1) 
192755-52-5

>  <UNII>  (1) 
N986NI319S

>  <SYNONYMS>  (1) 
Pralnacasan

$$$$
