
     RDKit          2D

 21 22  0  0  0  0  0  0  0  0999 V2000
    3.0789    0.9529    0.0000 S   0  0  0  0  0  0  0  0  0  0  0  0
    3.9038    0.9529    0.0000 O   0  0  0  0  0  0  0  0  0  0  0  0
    2.2539    0.9529    0.0000 O   0  0  0  0  0  0  0  0  0  0  0  0
    1.6500   -3.9971    0.0000 O   0  0  0  0  0  0  0  0  0  0  0  0
    3.0789   -3.9971    0.0000 O   0  0  0  0  0  0  0  0  0  0  0  0
    3.0789   -2.3471    0.0000 N   0  0  0  0  0  0  0  0  0  0  0  0
    3.0789    4.2528    0.0000 N   0  0  0  0  0  0  0  0  0  0  0  0
    3.0789    0.1279    0.0000 C   0  0  0  0  0  0  0  0  0  0  0  0
    3.0789    1.7778    0.0000 C   0  0  0  0  0  0  0  0  0  0  0  0
    2.3644   -0.2845    0.0000 C   0  0  0  0  0  0  0  0  0  0  0  0
    3.7933   -0.2845    0.0000 C   0  0  0  0  0  0  0  0  0  0  0  0
    3.0789   -1.5220    0.0000 C   0  0  0  0  0  0  0  0  0  0  0  0
    2.3644   -1.1096    0.0000 C   0  0  0  0  0  0  0  0  0  0  0  0
    3.7933   -1.1096    0.0000 C   0  0  0  0  0  0  0  0  0  0  0  0
    3.7933    2.1903    0.0000 C   0  0  0  0  0  0  0  0  0  0  0  0
    2.3644    2.1903    0.0000 C   0  0  0  0  0  0  0  0  0  0  0  0
    3.7933    3.0153    0.0000 C   0  0  0  0  0  0  0  0  0  0  0  0
    2.3644    3.0153    0.0000 C   0  0  0  0  0  0  0  0  0  0  0  0
    3.0789    3.4278    0.0000 C   0  0  0  0  0  0  0  0  0  0  0  0
    2.3644   -2.7596    0.0000 C   0  0  0  0  0  0  0  0  0  0  0  0
    2.3644   -3.5846    0.0000 C   0  0  0  0  0  0  0  0  0  0  0  0
  1  2  2  0
  1  3  2  0
  1  8  1  0
  1  9  1  0
  4 21  1  0
  5 21  2  0
  6 12  1  0
  6 20  1  0
  7 19  1  0
  8 10  2  0
  8 11  1  0
  9 15  2  0
  9 16  1  0
 10 13  1  0
 11 14  2  0
 12 13  2  0
 12 14  1  0
 15 17  1  0
 16 18  2  0
 17 19  2  0
 18 19  1  0
 20 21  1  0
M  END
>  <DRUGBANK_ID>  (1) 
DB08926

>  <COMMON_NAME>  (1) 
Acediasulfone

>  <CAS_NUMBER>  (1) 
80-03-5

>  <UNII>  (1) 
30YP2YHH8W

>  <SYNONYMS>  (1) 
Acediasulfone; Acediasulfonum

$$$$
