
     RDKit          2D

 27 30  0  0  0  0  0  0  0  0999 V2000
   -2.8579    6.9417    0.0000 O   0  0  0  0  0  0  0  0  0  0  0  0
   -2.8579    7.7667    0.0000 C   0  0  0  0  0  0  0  0  0  0  0  0
   -3.5724    8.1792    0.0000 C   0  0  0  0  0  0  0  0  0  0  0  0
   -4.2868    7.7667    0.0000 N   0  0  0  0  0  0  0  0  0  0  0  0
   -4.2868    6.9417    0.0000 C   0  0  0  0  0  0  0  0  0  0  0  0
   -5.0013    6.5292    0.0000 C   0  0  0  0  0  0  0  0  0  0  0  0
   -5.7158    6.9417    0.0000 O   0  0  0  0  0  0  0  0  0  0  0  0
   -5.7158    7.7667    0.0000 C   0  0  0  0  0  0  0  0  0  0  0  0
   -5.0013    8.1792    0.0000 C   0  0  0  0  0  0  0  0  0  0  0  0
   -2.1434    8.1792    0.0000 N   0  0  0  0  0  0  0  0  0  0  0  0
   -1.4289    7.7667    0.0000 C   0  0  0  0  0  0  0  0  0  0  0  0
   -0.7145    8.1792    0.0000 C   0  0  0  0  0  0  0  0  0  0  0  0
   -0.0000    7.7667    0.0000 C   0  0  0  0  0  0  0  0  0  0  0  0
   -0.0000    6.9417    0.0000 C   0  0  0  0  0  0  0  0  0  0  0  0
    0.7145    6.5292    0.0000 O   0  0  0  0  0  0  0  0  0  0  0  0
    0.7145    5.7042    0.0000 C   0  0  0  0  0  0  0  0  0  0  0  0
    1.4289    5.2917    0.0000 C   0  0  0  0  0  0  0  0  0  0  0  0
    1.4289    4.4667    0.0000 C   0  0  0  0  0  0  0  0  0  0  0  0
    0.7145    4.0542    0.0000 N   0  0  0  0  0  0  0  0  0  0  0  0
   -0.0000    4.4667    0.0000 C   0  0  0  0  0  0  0  0  0  0  0  0
   -0.0000    5.2917    0.0000 C   0  0  0  0  0  0  0  0  0  0  0  0
    0.7145    3.2292    0.0000 C   0  0  0  0  0  0  0  0  0  0  0  0
    1.2978    2.6459    0.0000 C   0  0  0  0  0  0  0  0  0  0  0  0
    0.7145    2.0625    0.0000 C   0  0  0  0  0  0  0  0  0  0  0  0
    0.1311    2.6459    0.0000 C   0  0  0  0  0  0  0  0  0  0  0  0
   -0.7145    6.5292    0.0000 C   0  0  0  0  0  0  0  0  0  0  0  0
   -1.4289    6.9417    0.0000 C   0  0  0  0  0  0  0  0  0  0  0  0
  1  2  2  0
  2  3  1  0
  2 10  1  0
  3  4  1  0
  4  5  1  0
  4  9  1  0
  5  6  1  0
  6  7  1  0
  7  8  1  0
  8  9  1  0
 10 11  1  0
 11 12  2  0
 11 27  1  0
 12 13  1  0
 13 14  2  0
 14 15  1  0
 14 26  1  0
 15 16  1  0
 16 17  1  0
 16 21  1  0
 17 18  1  0
 18 19  1  0
 19 20  1  0
 19 22  1  0
 20 21  1  0
 22 23  1  0
 22 25  1  0
 23 24  1  0
 24 25  1  0
 26 27  2  0
M  END
>  <DRUGBANK_ID>  (1) 
DB14835

>  <COMMON_NAME>  (1) 
SUVN-G3031

>  <CAS_NUMBER>  (1) 
1394808-82-2

>  <UNII>  (1) 
65V47O9NOP

$$$$
