FII
     RDKit          2D

 24 23  0  0  0  0  0  0  0  0999 V2000
   -3.4211    3.8711    0.0000 C   0  0  0  0  0  0  0  0  0  0  0  0
   -2.7066    3.4586    0.0000 C   0  0  0  0  0  0  0  0  0  0  0  0
   -1.9922    3.8711    0.0000 C   0  0  0  0  0  0  0  0  0  0  0  0
   -2.7066    2.6336    0.0000 C   0  0  0  0  0  0  0  0  0  0  0  0
   -1.9922    2.2211    0.0000 C   0  0  0  0  0  0  0  0  0  0  0  0
   -1.9922    1.3961    0.0000 C   0  0  0  0  0  0  0  0  0  0  0  0
   -1.2777    0.9836    0.0000 C   0  0  0  0  0  0  0  0  0  0  0  0
   -0.5632    1.3961    0.0000 C   0  0  0  0  0  0  0  0  0  0  0  0
   -1.2777    0.1586    0.0000 C   0  0  0  0  0  0  0  0  0  0  0  0
   -0.5632   -0.2539    0.0000 C   0  0  0  0  0  0  0  0  0  0  0  0
   -0.5632   -1.0789    0.0000 C   0  0  0  0  0  0  0  0  0  0  0  0
    0.1512   -1.4914    0.0000 C   0  0  0  0  0  0  0  0  0  0  0  0
    0.8657   -1.0789    0.0000 C   0  0  0  0  0  0  0  0  0  0  0  0
    0.1512   -2.3164    0.0000 C   0  0  0  0  0  0  0  0  0  0  0  0
    0.8657   -2.7289    0.0000 C   0  0  0  0  0  0  0  0  0  0  0  0
    1.5802   -2.3164    0.0000 O   0  0  0  0  0  0  0  0  0  0  0  0
    2.2947   -2.7289    0.0000 N   0  0  0  0  0  0  0  0  0  0  0  0
    3.0091   -2.3164    0.0000 C   0  0  0  0  0  0  0  0  0  0  0  0
    3.0091   -1.4914    0.0000 O   0  0  0  0  0  0  0  0  0  0  0  0
    3.7236   -2.7289    0.0000 C   0  0  0  0  0  0  0  0  0  0  0  0
    4.4381   -2.3164    0.0000 P   0  0  0  0  0  0  0  0  0  0  0  0
    5.1525   -1.9039    0.0000 O   0  0  0  0  0  0  0  0  0  0  0  0
    4.8506   -3.0309    0.0000 O   0  0  0  0  0  0  0  0  0  0  0  0
    4.0256   -1.6019    0.0000 O   0  0  0  0  0  0  0  0  0  0  0  0
  1  2  1  0
  2  3  1  0
  2  4  2  3
  4  5  1  0
  5  6  1  0
  6  7  1  0
  7  8  1  0
  7  9  2  0
  9 10  1  0
 10 11  1  0
 11 12  1  0
 12 13  1  0
 12 14  2  0
 14 15  1  0
 15 16  1  0
 16 17  1  0
 17 18  1  0
 18 19  2  0
 18 20  1  0
 20 21  1  0
 21 22  2  0
 21 23  1  0
 21 24  1  0
M  END
>  <DRUGBANK_ID>  (1) 
DB07771

>  <COMMON_NAME>  (1) 
[(3,7,11-TRIMETHYL-DODECA-2,6,10-TRIENYLOXYCARBAMOYL)-METHYL]-PHOSPHONIC ACID

$$$$
