575
     RDKit          2D

 14 15  0  0  0  0  0  0  0  0999 V2000
    4.5080   -0.3751    0.0000 Cl  0  0  0  0  0  0  0  0  0  0  0  0
    1.6500   -0.3751    0.0000 Cl  0  0  0  0  0  0  0  0  0  0  0  0
    3.8797    1.6829    0.0000 N   0  0  0  0  0  0  0  0  0  0  0  0
    3.0791    0.4499    0.0000 N   0  0  0  0  0  0  0  0  0  0  0  0
    4.5472    0.5269    0.0000 N   0  0  0  0  0  0  0  0  0  0  0  0
    4.6868    1.8544    0.0000 C   0  0  0  0  0  0  0  0  0  0  0  0
    5.0993    1.1399    0.0000 C   0  0  0  0  0  0  0  0  0  0  0  0
    3.7935    0.8624    0.0000 C   0  0  0  0  0  0  0  0  0  0  0  0
    3.0791   -0.3751    0.0000 C   0  0  0  0  0  0  0  0  0  0  0  0
    3.7935   -0.7876    0.0000 C   0  0  0  0  0  0  0  0  0  0  0  0
    2.3645   -0.7876    0.0000 C   0  0  0  0  0  0  0  0  0  0  0  0
    3.7935   -1.6127    0.0000 C   0  0  0  0  0  0  0  0  0  0  0  0
    2.3645   -1.6127    0.0000 C   0  0  0  0  0  0  0  0  0  0  0  0
    3.0791   -2.0252    0.0000 C   0  0  0  0  0  0  0  0  0  0  0  0
  1 10  1  0
  2 11  1  0
  3  6  1  0
  3  8  1  0
  4  8  1  0
  4  9  1  0
  5  7  1  0
  5  8  2  0
  6  7  1  0
  9 10  2  0
  9 11  1  0
 10 12  1  0
 11 13  2  0
 12 14  2  0
 13 14  1  0
M  END
>  <DRUGBANK_ID>  (1) 
DB00575

>  <SECONDARY_ACCESSION_NUMBERS>  (1) 
APRD00174; DB07566

>  <COMMON_NAME>  (1) 
Clonidine

>  <CAS_NUMBER>  (1) 
4205-90-7

>  <UNII>  (1) 
MN3L5RMN02

>  <SYNONYMS>  (1) 
2-((2,6-Dichlorophenyl)imino)imidazolidine; 2,6-Dichloro-N-2-imidazolidinylidenebenzenamine; Chlofazoline; Clonidin; Clonidina; Clonidine; Clonidinum

$$$$
