
     RDKit          2D

 11  9  0  0  0  0  0  0  0  0999 V2000
   -2.4782    0.4009    0.0000 C   0  0  0  0  0  0  0  0  0  0  0  0
   -1.7689   -0.0114    0.0000 N   0  0  0  0  0  0  0  0  0  0  0  0
   -1.0365    0.4148    0.0000 C   0  0  0  0  0  0  0  0  0  0  0  0
   -0.3273    0.0115    0.0000 C   0  0  0  0  0  0  0  0  0  0  0  0
   -0.3273   -0.8135    0.0000 C   0  0  0  0  0  0  0  0  0  0  0  0
    0.3911   -1.2259    0.0000 Hg  0  0  0  0  0  1  0  0  0  0  0  0
    0.3864    0.4427    0.0000 O   0  0  0  0  0  0  0  0  0  0  0  0
    1.1234    0.0255    0.0000 C   0  0  0  0  0  0  0  0  0  0  0  0
   -2.4782    1.2259    0.0000 O   0  0  0  0  0  0  0  0  0  0  0  0
   -3.1780   -0.0114    0.0000 N   0  0  0  0  0  0  0  0  0  0  0  0
    3.1780   -1.0603    0.0000 Cl  0  0  0  0  0  0  0  0  0  0  0  0
  2  1  1  0
  3  2  1  0
  4  3  1  0
  4  5  1  0
  6  5  1  0
  7  4  1  0
  8  7  1  0
  9  1  2  0
 10  1  1  0
M  CHG  2   6   1  11  -1
M  ISO  1   6 197
M  END
>  <DRUGBANK_ID>  (1) 
DB09406

>  <COMMON_NAME>  (1) 
Chlormerodrin Hg-197

>  <CAS_NUMBER>  (1) 
64461-80-9

>  <UNII>  (1) 
1D6EFC579A

>  <SYNONYMS>  (1) 
Chlormerodrin (197Hg); Chlormerodrin Hg 197; Chlormerodrin Hg-197; Chlormerodrin, Hg-197

$$$$
