
     RDKit          2D

 33 35  0  0  0  0  0  0  0  0999 V2000
    2.9371    0.4866    0.0000 C   0  0  0  0  0  0  0  0  0  0  0  0
    2.9371   -0.4521    0.0000 C   0  0  0  0  0  0  0  0  0  0  0  0
    2.2054    0.9042    0.0000 C   0  0  0  0  0  0  0  0  0  0  0  0
    3.6757    0.7489    0.0000 N   0  0  0  0  0  0  0  0  0  0  0  0
    2.1917   -0.8974    0.0000 N   0  0  0  0  0  0  0  0  0  0  0  0
    3.6895   -0.7109    0.0000 N   0  0  0  0  0  0  0  0  0  0  0  0
    1.4150    0.4487    0.0000 N   0  0  0  0  0  0  0  0  0  0  0  0
    2.2054    1.7498    0.0000 O   0  0  0  0  0  0  0  0  0  0  0  0
    4.2073    0.0483    0.0000 C   0  0  0  0  0  0  0  0  0  0  0  0
    1.4150   -0.4521    0.0000 C   0  0  0  0  0  0  0  0  0  0  0  0
    2.2054   -1.7360    0.0000 C   0  0  0  0  0  0  0  0  0  0  0  0
    0.6868    0.8524    0.0000 C   0  0  0  0  0  0  0  0  0  0  0  0
    5.0528    0.0517    0.0000 Cl  0  0  0  0  0  0  0  0  0  0  0  0
    0.6903   -0.8904    0.0000 O   0  0  0  0  0  0  0  0  0  0  0  0
   -2.9129   -0.8283    0.0000 C   0  0  0  0  0  0  0  0  0  0  0  0
   -2.1881   -1.2286    0.0000 C   0  0  0  0  0  0  0  0  0  0  0  0
   -3.6308   -1.2494    0.0000 C   0  0  0  0  0  0  0  0  0  0  0  0
   -2.9129    0.0102    0.0000 O   0  0  0  0  0  0  0  0  0  0  0  0
   -2.2123   -2.0501    0.0000 C   0  0  0  0  0  0  0  0  0  0  0  0
   -1.4668   -0.8283    0.0000 C   0  0  0  0  0  0  0  0  0  0  0  0
   -3.6308   -2.0915    0.0000 C   0  0  0  0  0  0  0  0  0  0  0  0
   -4.3314   -0.8490    0.0000 C   0  0  0  0  0  0  0  0  0  0  0  0
   -3.6308    0.4383    0.0000 C   0  0  0  0  0  0  0  0  0  0  0  0
   -1.4875   -2.4643    0.0000 C   0  0  0  0  0  0  0  0  0  0  0  0
   -0.7662   -1.2494    0.0000 C   0  0  0  0  0  0  0  0  0  0  0  0
   -4.3314   -2.4919    0.0000 C   0  0  0  0  0  0  0  0  0  0  0  0
   -5.0528   -1.2494    0.0000 C   0  0  0  0  0  0  0  0  0  0  0  0
   -3.6308    1.2528    0.0000 C   0  0  0  0  0  0  0  0  0  0  0  0
   -0.7662   -2.0639    0.0000 C   0  0  0  0  0  0  0  0  0  0  0  0
   -5.0528   -2.0915    0.0000 C   0  0  0  0  0  0  0  0  0  0  0  0
   -4.3314    1.6738    0.0000 N   0  0  0  0  0  0  0  0  0  0  0  0
   -4.3314    2.4919    0.0000 C   0  0  0  0  0  0  0  0  0  0  0  0
   -5.0528    1.2528    0.0000 C   0  0  0  0  0  0  0  0  0  0  0  0
  1  2  2  0
  1  3  1  0
  1  4  1  0
  2  5  1  0
  2  6  1  0
  3  7  1  0
  3  8  2  0
  4  9  2  0
  5 10  1  0
  5 11  1  0
  6  9  1  0
  7 12  1  0
  7 10  1  0
  9 13  1  0
 10 14  2  0
 15 16  1  0
 15 17  1  0
 15 18  1  0
 16 19  2  0
 16 20  1  0
 17 21  2  0
 17 22  1  0
 18 23  1  0
 19 24  1  0
 20 25  2  0
 21 26  1  0
 22 27  2  0
 23 28  1  0
 24 29  2  0
 25 29  1  0
 26 30  2  0
 27 30  1  0
 28 31  1  0
 31 32  1  0
 31 33  1  0
M  END
>  <DRUGBANK_ID>  (1) 
DB00985

>  <SECONDARY_ACCESSION_NUMBERS>  (1) 
APRD00924

>  <COMMON_NAME>  (1) 
Dimenhydrinate

>  <CAS_NUMBER>  (1) 
523-87-5

>  <UNII>  (1) 
JB937PER5C

>  <SYNONYMS>  (1) 
(O-benzhydryl(dimethylamino)ethanol) 8-chlorotheophyllinate; 8-chloro-1,3-dimethyl-3,7-dihydro-1H-purine-2,6-dione - 2-(diphenylmethoxy)-N,N-dimethylethanamine (1:1); Benzhydryl-β-dimethylaminoethylether 8-chlorotheophylline; Dimenhidrinato; Dimenhydrinate; Dimenhydrinatum; diphenhydramine 8-chlorotheophyllinate; diphenhydramine 8-chlorotheophylline; Diphenhydramine theoclate; N,N-dimethyl-2-diphenylmethoxyethylamine 8-chlorotheophyllinate; O-benzhydryldimethylaminoethanol 8-chlorotheophyllinate; β-dimethylaminoethyl benzhydryl ether 1,3-dimethyl-8-chloroxanthine

$$$$
