
     RDKit          2D

 11 12  0  0  0  0  0  0  0  0999 V2000
   -0.9884   -0.1278    0.0000 N   0  0  0  0  0  0  0  0  0  0  0  0
    1.2215    0.1234    0.0000 N   0  0  0  0  0  0  0  0  0  0  0  0
   -0.2738   -1.3655    0.0000 N   0  0  0  0  0  0  0  0  0  0  0  0
    1.2215   -1.2044    0.0000 N   0  0  0  0  0  0  0  0  0  0  0  0
   -0.2738    1.1098    0.0000 N   0  0  0  0  0  0  0  0  0  0  0  0
    0.4407   -0.1278    0.0000 C   0  0  0  0  0  0  0  0  0  0  0  0
   -0.2738    0.2847    0.0000 C   0  0  0  0  0  0  0  0  0  0  0  0
    0.4407   -0.9530    0.0000 C   0  0  0  0  0  0  0  0  0  0  0  0
   -0.9884   -0.9530    0.0000 C   0  0  0  0  0  0  0  0  0  0  0  0
   -1.7030    0.2847    0.0000 C   0  0  0  0  0  0  0  0  0  0  0  0
    1.7030   -0.5404    0.0000 C   0  0  0  0  0  0  0  0  0  0  0  0
  1  7  2  0
  1  9  1  0
  1 10  1  0
  2  6  1  0
  2 11  1  0
  3  8  1  0
  3  9  2  0
  4  8  1  0
  4 11  2  0
  5  7  1  0
  6  7  1  0
  6  8  2  0
M  CHG  1   1   1
M  END
>  <DRUGBANK_ID>  (1) 
DB03164

>  <SECONDARY_ACCESSION_NUMBERS>  (1) 
EXPT02082

>  <COMMON_NAME>  (1) 
6-amino-1-methyl-7H-purin-1-ium

>  <UNII>  (1) 
98K2TG3E3W

>  <SYNONYMS>  (1) 
6-amino-1-methylpurine

$$$$
