7BD
     RDKit          2D

 20 22  0  0  0  0  0  0  0  0999 V2000
   -1.5227   -0.0697    0.0000 C   0  0  0  0  0  0  0  0  0  0  0  0
   -0.8552    0.4152    0.0000 C   0  0  0  0  0  0  0  0  0  0  0  0
   -0.1878   -0.0697    0.0000 C   0  0  0  0  0  0  0  0  0  0  0  0
   -0.4427   -0.8543    0.0000 C   0  0  0  0  0  0  0  0  0  0  0  0
   -1.2677   -0.8543    0.0000 C   0  0  0  0  0  0  0  0  0  0  0  0
    0.1093   -1.4674    0.0000 C   0  0  0  0  0  0  0  0  0  0  0  0
   -1.8198   -1.4674    0.0000 C   0  0  0  0  0  0  0  0  0  0  0  0
   -2.3296    0.1018    0.0000 C   0  0  0  0  0  0  0  0  0  0  0  0
   -2.8817   -0.5113    0.0000 C   0  0  0  0  0  0  0  0  0  0  0  0
   -2.6267   -1.2959    0.0000 C   0  0  0  0  0  0  0  0  0  0  0  0
    0.5737    1.2402    0.0000 C   0  0  0  0  0  0  0  0  0  0  0  0
    1.2882    1.6527    0.0000 C   0  0  0  0  0  0  0  0  0  0  0  0
    2.0027    1.2402    0.0000 C   0  0  0  0  0  0  0  0  0  0  0  0
    0.6192    0.1018    0.0000 C   0  0  0  0  0  0  0  0  0  0  0  0
    1.1712   -0.5113    0.0000 C   0  0  0  0  0  0  0  0  0  0  0  0
    0.9163   -1.2959    0.0000 C   0  0  0  0  0  0  0  0  0  0  0  0
   -0.8552    1.2402    0.0000 N   0  0  0  0  0  0  0  0  0  0  0  0
   -0.1408    1.6527    0.0000 O   0  0  0  0  0  0  0  0  0  0  0  0
    2.7171    1.6527    0.0000 O   0  0  0  0  0  0  0  0  0  0  0  0
    2.0027    0.4152    0.0000 O   0  0  0  0  0  0  0  0  0  0  0  0
  1  5  2  0
  2  1  1  0
  2  3  1  0
  3  4  2  0
  4  6  1  0
  5  4  1  0
  5  7  1  0
  8  1  1  0
  8  9  2  0
  9 10  1  0
 10  7  2  0
 11 18  1  0
 12 11  1  0
 13 12  1  0
 14  3  1  0
 14 15  2  0
 15 16  1  0
 16  6  2  0
 17  2  2  3
 18 17  1  0
 19 13  1  0
 20 13  2  0
M  END
>  <DRUGBANK_ID>  (1) 
DB07240

>  <COMMON_NAME>  (1) 
3-[(9H-fluoren-9-ylideneamino)oxy]propanoic acid

$$$$
