
     RDKit          2D

 10  9  0  0  0  0  0  0  0  0999 V2000
    1.0717    0.2062    0.0000 C   0  0  0  0  0  0  0  0  0  0  0  0
    0.3572   -0.2062    0.0000 C   0  0  0  0  0  0  0  0  0  0  0  0
    1.7862   -0.2062    0.0000 O   0  0  0  0  0  0  0  0  0  0  0  0
   -1.0717   -0.2063    0.0000 C   0  0  0  0  0  0  0  0  0  0  0  0
   -1.7862    0.2061    0.0000 O   0  0  0  0  0  0  0  0  0  0  0  0
   -0.3572    0.2061    0.0000 C   0  0  0  0  0  0  0  0  0  0  0  0
    1.0717    1.0312    0.0000 O   0  0  0  0  0  0  0  0  0  0  0  0
   -1.0717   -1.0312    0.0000 O   0  0  0  0  0  0  0  0  0  0  0  0
   -0.3572    1.0312    0.0000 C   0  0  0  0  0  0  0  0  0  0  0  0
    0.3572   -1.0312    0.0000 N   0  0  0  0  0  0  0  0  0  0  0  0
  1  7  2  0
  1  3  1  0
  2  1  1  0
  2 10  1  1
  4  8  2  0
  4  5  1  0
  4  6  1  0
  6  2  1  0
  6  9  1  1
M  END
>  <DRUGBANK_ID>  (1) 
DB04538

>  <SECONDARY_ACCESSION_NUMBERS>  (1) 
EXPT00179

>  <COMMON_NAME>  (1) 
threo-3-methyl-L-aspartic acid

>  <CAS_NUMBER>  (1) 
6061-13-8

>  <UNII>  (1) 
X72YFG5KQE

>  <SYNONYMS>  (1) 
(3S)-3-methyl-L-aspartic acid; 2S,3S-3-methylaspartic acid; L-threo-3-Methylaspartate

$$$$
