
     RDKit          2D

 25 27  0  0  0  0  0  0  0  0999 V2000
   -0.8884    2.4046    0.0000 C   0  0  0  0  0  0  0  0  0  0  0  0
   -1.6029    1.9921    0.0000 N   0  0  0  0  0  0  0  0  0  0  0  0
   -0.8885    0.7546    0.0000 N   0  0  0  0  0  0  0  0  0  0  0  0
   -0.1740    1.1671    0.0000 C   0  0  0  0  0  0  0  0  0  0  0  0
   -0.1740    1.9921    0.0000 C   0  0  0  0  0  0  0  0  0  0  0  0
    0.6105    2.2470    0.0000 N   0  0  0  0  0  0  0  0  0  0  0  0
    1.0955    1.5795    0.0000 C   0  0  0  0  0  0  0  0  0  0  0  0
    0.6105    0.9121    0.0000 N   0  0  0  0  0  0  0  0  0  0  0  0
    0.8655    0.1273    0.0000 C   0  0  0  0  0  0  0  0  0  0  0  0
    0.3805   -0.5399    0.0000 O   0  0  0  0  0  0  0  0  0  0  0  0
    0.8654   -1.2074    0.0000 C   0  0  0  0  0  0  0  0  0  0  0  0
    1.6500   -0.9525    0.0000 C   0  0  0  0  0  0  0  0  0  0  0  0
    2.3175   -1.4375    0.0000 O   0  0  0  0  0  0  0  0  0  0  0  0
    1.6501   -0.1275    0.0000 C   0  0  0  0  0  0  0  0  0  0  0  0
    2.3175    0.3573    0.0000 O   0  0  0  0  0  0  0  0  0  0  0  0
   -0.2145   -1.9921    0.0000 O   0  0  0  0  0  0  0  0  0  0  0  0
   -0.9290   -3.2296    0.0000 O   0  0  0  0  0  0  0  0  0  0  0  0
   -0.9290   -2.4046    0.0000 P   0  0  0  0  0  0  0  0  0  0  0  0
   -0.9290   -1.5796    0.0000 O   0  0  0  0  0  0  0  0  0  0  0  0
   -1.6434   -1.9921    0.0000 O   0  0  0  0  0  0  0  0  0  0  0  0
    0.6104   -1.9921    0.0000 C   0  0  0  0  0  0  0  0  0  0  0  0
   -1.6030    1.1671    0.0000 C   0  0  0  0  0  0  0  0  0  0  0  0
   -2.3175    0.7546    0.0000 N   0  0  0  0  0  0  0  0  0  0  0  0
   -0.8884    3.2296    0.0000 O   0  0  0  0  0  0  0  0  0  0  0  0
    0.8654    3.0316    0.0000 C   0  0  0  0  0  0  0  0  0  0  0  0
  1  2  1  0
  1  5  1  0
  2 22  1  0
  3  4  1  0
  4  5  2  0
  4  8  1  0
  5  6  1  0
  6  7  2  0
  6 25  1  0
  7  8  1  0
  9  8  1  1
  9 10  1  0
  9 14  1  0
 10 11  1  0
 11 21  1  1
 11 12  1  0
 12 13  1  6
 12 14  1  0
 14 15  1  6
 16 18  1  0
 18 17  2  0
 18 20  1  0
 18 19  1  0
 21 16  1  0
 22  3  2  0
 22 23  1  0
 24  1  2  0
M  CHG  1   6   1
M  END
>  <DRUGBANK_ID>  (1) 
DB03593

>  <SECONDARY_ACCESSION_NUMBERS>  (1) 
EXPT01539

>  <COMMON_NAME>  (1) 
7-methyl-5'-guanylic acid

>  <UNII>  (1) 
M5SL28EU5R

>  <SYNONYMS>  (1) 
7-methylguanosine 5'-(dihydrogen phosphate); 7-methylguanosine 5'-phosphate

$$$$
