
     RDKit          2D

 13 13  0  0  0  0  0  0  0  0999 V2000
   -0.5302   -1.1659    0.0000 C   0  0  0  0  0  0  0  0  0  0  0  0
    0.7145    0.7037    0.0000 C   0  0  0  0  0  0  0  0  0  0  0  0
    0.0000    1.1162    0.0000 C   0  0  0  0  0  0  0  0  0  0  0  0
    0.7145   -0.1213    0.0000 C   0  0  0  0  0  0  0  0  0  0  0  0
   -0.7145    0.7037    0.0000 C   0  0  0  0  0  0  0  0  0  0  0  0
    0.0000   -0.5338    0.0000 C   0  0  0  0  0  0  0  0  0  0  0  0
   -1.4290    1.1162    0.0000 F   0  0  0  0  0  0  0  0  0  0  0  0
    0.5302   -1.1659    0.0000 F   0  0  0  0  0  0  0  0  0  0  0  0
   -0.2481   -1.9412    0.0000 O   0  0  0  0  0  0  0  0  0  0  0  0
    1.4290    1.1162    0.0000 O   0  0  0  0  0  0  0  0  0  0  0  0
    0.0000    1.9412    0.0000 O   0  0  0  0  0  0  0  0  0  0  0  0
    1.4290   -0.5338    0.0000 O   0  0  0  0  0  0  0  0  0  0  0  0
   -0.7145   -0.1213    0.0000 O   0  0  0  0  0  0  0  0  0  0  0  0
  2  3  1  0
  2  4  1  0
  2 10  1  1
  3  5  1  0
  3 11  1  1
  4  6  1  0
  4 12  1  6
  6  1  1  0
  6  8  1  1
  6 13  1  0
  7  5  1  0
  9  1  1  0
 13  5  1  0
M  END
>  <DRUGBANK_ID>  (1) 
DB03008

>  <SECONDARY_ACCESSION_NUMBERS>  (1) 
EXPT01670

>  <COMMON_NAME>  (1) 
5-fluoro-beta-L-gulosyl fluoride

$$$$
