
     RDKit          2D

 29 31  0  0  1  0  0  0  0  0999 V2000
   -5.3625    3.7934    0.0000 C   0  0  0  0  0  0  0  0  0  0  0  0
   -1.6500    0.8250    0.0000 C   0  0  0  0  0  0  0  0  0  0  0  0
   -1.6500    2.4750    0.0000 C   0  0  0  0  0  0  0  0  0  0  0  0
    2.4252    3.3611    0.0000 C   0  0  0  0  0  0  0  0  0  0  0  0
    1.5067    3.8914    0.0000 C   0  0  0  0  0  0  0  0  0  0  0  0
   -4.9500    3.0789    0.0000 C   0  0  0  0  0  0  0  0  0  0  0  0
   -4.1250    3.0789    0.0000 C   0  0  0  0  0  0  0  0  0  0  0  0
   -3.7125    2.3645    0.0000 C   0  0  0  0  0  0  0  0  0  0  0  0
   -2.8875    2.3645    0.0000 C   0  0  0  0  0  0  0  0  0  0  0  0
    3.3000    1.6500    0.0000 C   0  0  0  0  0  0  0  0  0  0  0  0
    2.8875    2.3645    0.0000 C   0  0  0  0  0  0  0  0  0  0  0  0
   -2.4750    1.6500    0.0000 C   0  0  0  0  0  0  0  0  0  0  0  0
    2.0625    0.9355    0.0000 C   0  0  0  0  0  0  0  0  0  0  0  0
   -0.4125    0.9355    0.0000 C   0  0  0  0  0  0  0  0  0  0  0  0
   -0.4125    2.3645    0.0000 C   0  0  0  0  0  0  0  0  0  0  0  0
    2.8875    0.9355    0.0000 C   0  0  0  0  0  0  0  0  0  0  0  0
   -0.8250    1.6500    0.0000 C   0  0  0  0  0  0  0  0  0  0  0  0
    1.6500    1.6500    0.0000 C   0  0  0  0  0  0  0  0  0  0  0  0
    2.0625    2.3645    0.0000 C   0  0  0  0  0  0  0  0  0  0  0  0
    0.4125    0.9355    0.0000 C   0  0  0  0  0  0  0  0  0  0  0  0
    0.4125    2.3645    0.0000 C   0  0  0  0  0  0  0  0  0  0  0  0
    0.8250    1.6500    0.0000 C   0  0  0  0  0  0  0  0  0  0  0  0
    3.3000    0.2211    0.0000 C   0  0  0  0  0  0  0  0  0  0  0  0
   -1.6500    1.6500    0.0000 C   0  0  0  0  0  0  0  0  0  0  0  0
    1.6500    3.0789    0.0000 C   0  0  0  0  0  0  0  0  0  0  0  0
    0.8250    0.2211    0.0000 O   0  0  0  0  0  0  0  0  0  0  0  0
    4.1250    0.2211    0.0000 O   0  0  0  0  0  0  0  0  0  0  0  0
    2.8875   -0.4934    0.0000 O   0  0  0  0  0  0  0  0  0  0  0  0
    0.8250    3.0789    0.0000 O   0  0  0  0  0  0  0  0  0  0  0  0
  6  1  1  0
  7  6  1  0
  8  7  1  0
  9  8  1  0
 11 10  1  0
 12  9  1  0
 16 10  2  0
 16 13  1  0
 17 14  2  0
 17 15  1  0
 18 13  1  1
 19 11  1  6
 19 18  1  0
 20 14  1  0
 21 15  2  0
 22 18  1  0
 22 20  2  0
 22 21  1  0
 23 16  1  0
 24  2  1  0
 24  3  1  0
 24 12  1  0
 24 17  1  0
 25  4  1  0
 25  5  1  0
 25 19  1  0
 26 20  1  0
 27 23  2  0
 28 23  1  0
 29 21  1  0
 29 25  1  0
M  END
>  <DRUGBANK_ID>  (1) 
DB12193

>  <COMMON_NAME>  (1) 
Lenabasum

>  <CAS_NUMBER>  (1) 
137945-48-3

>  <UNII>  (1) 
OGN7X90BT8

>  <SYNONYMS>  (1) 
(6aR,10aR)-1-hydroxy-6,6-dimethyl-3-(2-methyloctan-2-yl)-6a,7,10,10a-tetrahydrobenzo[c]chromene-9-carboxylic acid; Ajulemic acid; Anabasum; JBT-101; Lenabasum

$$$$
