INC
     RDKit          2D

 14 13  0  0  0  0  0  0  0  0999 V2000
    0.8193   -2.4236    0.0000 C   0  0  0  0  0  0  0  0  0  0  0  0
    0.8193   -1.5986    0.0000 C   0  0  0  0  0  0  0  0  0  0  0  0
    1.5338   -1.1861    0.0000 O   0  0  0  0  0  0  0  0  0  0  0  0
    0.1049   -1.1861    0.0000 N   0  0  0  0  0  0  0  0  0  0  0  0
   -0.6096   -1.5986    0.0000 O   0  0  0  0  0  0  0  0  0  0  0  0
    0.1049   -0.3611    0.0000 C   0  0  0  0  0  0  0  0  0  0  0  0
   -0.6096    0.0514    0.0000 C   0  0  0  0  0  0  0  0  0  0  0  0
   -0.6096    0.8764    0.0000 C   0  0  0  0  0  0  0  0  0  0  0  0
   -1.3241    1.2889    0.0000 C   0  0  0  0  0  0  0  0  0  0  0  0
    0.1049    1.2889    0.0000 C   0  0  0  0  0  0  0  0  0  0  0  0
    0.8193    0.0514    0.0000 C   0  0  0  0  0  0  0  0  0  0  0  0
    1.5338   -0.3611    0.0000 O   0  0  0  0  0  0  0  0  0  0  0  0
    0.8193    0.8764    0.0000 O   0  0  0  0  0  0  0  0  0  0  0  0
    1.5338    1.2889    0.0000 C   0  0  0  0  0  0  0  0  0  0  0  0
  1  2  1  0
  2  3  2  0
  2  4  1  0
  4  5  1  0
  6  4  1  0
  6  7  1  6
  6 11  1  0
  7  8  1  0
  8  9  1  0
  8 10  1  0
 11 12  2  0
 11 13  1  0
 13 14  1  0
M  END
>  <DRUGBANK_ID>  (1) 
DB07989

>  <COMMON_NAME>  (1) 
2-(ACETYL-HYDROXY-AMINO)-4-METHYL-PENTANOIC ACID METHYL ESTER

$$$$
