
     RDKit          2D

 11 10  0  0  1  0  0  0  0  0999 V2000
    2.3349   -1.1270    0.0000 C   0  0  0  0  0  0  0  0  0  0  0  0
   -1.2375   -0.7145    0.0000 C   0  0  0  0  0  0  0  0  0  0  0  0
    1.6204   -0.7145    0.0000 C   0  0  0  0  0  0  0  0  0  0  0  0
   -0.5230   -1.1270    0.0000 C   0  0  0  0  0  0  0  0  0  0  0  0
    0.9059   -1.1270    0.0000 C   0  0  0  0  0  0  0  0  0  0  0  0
    0.1914   -0.7145    0.0000 C   0  0  0  0  0  0  0  0  0  0  0  0
   -1.9520   -1.1270    0.0000 O   0  0  0  0  0  0  0  0  0  0  0  0
    1.6204    0.1105    0.0000 O   0  0  0  0  0  0  0  0  0  0  0  0
   -0.5230   -1.9520    0.0000 O   0  0  0  0  0  0  0  0  0  0  0  0
    0.9059   -1.9520    0.0000 O   0  0  0  0  0  0  0  0  0  0  0  0
    0.1914    0.1105    0.0000 O   0  0  0  0  0  0  0  0  0  0  0  0
  3  1  1  1
  3  8  1  0
  4  2  1  0
  4  9  1  6
  5  3  1  0
  5 10  1  1
  6  4  1  0
  6  5  1  0
  6 11  1  6
  7  2  1  0
M  END
>  <DRUGBANK_ID>  (1) 
DB03815

>  <SECONDARY_ACCESSION_NUMBERS>  (1) 
EXPT01465

>  <COMMON_NAME>  (1) 
Fucitol

>  <CAS_NUMBER>  (1) 
13074-06-1

>  <UNII>  (1) 
961570X3WO

>  <SYNONYMS>  (1) 
L-Fucitol

$$$$
