L03
     RDKit          2D

 14 15  0  0  0  0  0  0  0  0999 V2000
    1.4080    2.4789    0.0000 C   0  0  0  0  0  0  0  0  0  0  0  0
    0.6935    2.0664    0.0000 S   0  0  0  0  0  0  0  0  0  0  0  0
    0.6935    1.2414    0.0000 C   0  0  0  0  0  0  0  0  0  0  0  0
    1.3609    0.7564    0.0000 N   0  0  0  0  0  0  0  0  0  0  0  0
    1.1060   -0.0282    0.0000 N   0  0  0  0  0  0  0  0  0  0  0  0
    0.2810   -0.0282    0.0000 C   0  0  0  0  0  0  0  0  0  0  0  0
    0.0261    0.7564    0.0000 N   0  0  0  0  0  0  0  0  0  0  0  0
   -0.2039   -0.6956    0.0000 C   0  0  0  0  0  0  0  0  0  0  0  0
    0.1316   -1.4493    0.0000 C   0  0  0  0  0  0  0  0  0  0  0  0
   -0.3533   -2.1167    0.0000 C   0  0  0  0  0  0  0  0  0  0  0  0
   -1.1738   -2.0305    0.0000 C   0  0  0  0  0  0  0  0  0  0  0  0
   -1.6587   -2.6979    0.0000 Cl  0  0  0  0  0  0  0  0  0  0  0  0
   -1.5093   -1.2768    0.0000 C   0  0  0  0  0  0  0  0  0  0  0  0
   -1.0244   -0.6094    0.0000 C   0  0  0  0  0  0  0  0  0  0  0  0
  1  2  1  0
  2  3  1  0
  3  4  2  0
  3  7  1  0
  4  5  1  0
  5  6  2  0
  6  7  1  0
  6  8  1  0
  8  9  2  0
  8 14  1  0
  9 10  1  0
 10 11  2  0
 11 12  1  0
 11 13  1  0
 13 14  2  0
M  END
>  <DRUGBANK_ID>  (1) 
DB08062

>  <COMMON_NAME>  (1) 
3-(4-CHLOROPHENYL)-5-(METHYLTHIO)-4H-1,2,4-TRIAZOLE

$$$$
