
     RDKit          2D

 15 15  0  0  0  0  0  0  0  0999 V2000
   -1.7895    0.0000    0.0000 C   0  0  0  0  0  0  0  0  0  0  0  0
   -1.7895   -0.8250    0.0000 C   0  0  0  0  0  0  0  0  0  0  0  0
   -1.0470   -1.2374    0.0000 C   0  0  0  0  0  0  0  0  0  0  0  0
   -0.3458   -0.8250    0.0000 C   0  0  0  0  0  0  0  0  0  0  0  0
   -0.3458    0.0000    0.0000 C   0  0  0  0  0  0  0  0  0  0  0  0
   -1.0470    0.4125    0.0000 C   0  0  0  0  0  0  0  0  0  0  0  0
   -2.4908   -1.2374    0.0000 O   0  0  0  0  0  0  0  0  0  0  0  0
    0.3554    0.4125    0.0000 C   0  0  0  0  0  0  0  0  0  0  0  0
    1.0567    0.0000    0.0000 C   0  0  0  0  0  0  0  0  0  0  0  0
    1.7991    0.4125    0.0000 C   0  0  0  0  0  0  0  0  0  0  0  0
    2.5004    0.0000    0.0000 O   0  0  0  0  0  0  0  0  0  0  0  0
    1.7991    1.2374    0.0000 O   0  0  0  0  0  0  0  0  0  0  0  0
    0.3554    1.2374    0.0000 O   0  0  0  0  0  0  0  0  0  0  0  0
    1.0567   -0.8250    0.0000 N   0  0  0  0  0  0  0  0  0  0  0  0
   -2.5005    0.4184    0.0000 O   0  0  0  0  0  0  0  0  0  0  0  0
  1  2  2  0
  1 15  1  0
  2  3  1  0
  2  7  1  0
  3  4  2  0
  4  5  1  0
  5  8  1  0
  5  6  2  0
  6  1  1  0
  8  9  1  0
  8 13  1  1
  9 10  1  0
  9 14  1  1
 10 11  1  0
 10 12  2  0
M  END
>  <DRUGBANK_ID>  (1) 
DB06262

>  <COMMON_NAME>  (1) 
Droxidopa

>  <CAS_NUMBER>  (1) 
23651-95-8

>  <UNII>  (1) 
J7A92W69L7

>  <SYNONYMS>  (1) 
DOPS; Droxidopa; L-Dihydroxyphenylserine; L-DOPS; L-threo-dihydroxyphenylserine

$$$$
