
     RDKit          2D

 39 41  0  0  0  0  0  0  0  0999 V2000
   -0.7689    0.8884    0.0000 C   0  0  0  0  0  0  0  0  0  0  0  0
   -0.0545    1.3008    0.0000 C   0  0  0  0  0  0  0  0  0  0  0  0
    0.6599    0.8884    0.0000 P   0  0  0  0  0  0  0  0  0  0  0  0
    0.2475    0.1739    0.0000 O   0  0  0  0  0  0  0  0  0  0  0  0
    1.4262   -0.5066    0.0000 C   0  0  0  0  0  0  0  0  0  0  0  0
    1.4262   -1.3317    0.0000 O   0  0  0  0  0  0  0  0  0  0  0  0
    2.2016   -1.6139    0.0000 C   0  0  0  0  0  0  0  0  0  0  0  0
    2.3450   -2.4263    0.0000 C   0  0  0  0  0  0  0  0  0  0  0  0
    3.1202   -2.7085    0.0000 C   0  0  0  0  0  0  0  0  0  0  0  0
    2.8336   -1.0836    0.0000 O   0  0  0  0  0  0  0  0  0  0  0  0
    2.1408   -0.0942    0.0000 C   0  0  0  0  0  0  0  0  0  0  0  0
    2.8553   -0.5066    0.0000 C   0  0  0  0  0  0  0  0  0  0  0  0
    2.1408    0.7307    0.0000 C   0  0  0  0  0  0  0  0  0  0  0  0
    1.0725    1.6028    0.0000 C   0  0  0  0  0  0  0  0  0  0  0  0
    0.6599    2.3174    0.0000 C   0  0  0  0  0  0  0  0  0  0  0  0
   -0.1525    2.1740    0.0000 C   0  0  0  0  0  0  0  0  0  0  0  0
   -0.6827    2.8060    0.0000 C   0  0  0  0  0  0  0  0  0  0  0  0
   -1.4952    2.6627    0.0000 C   0  0  0  0  0  0  0  0  0  0  0  0
   -1.7774    1.8875    0.0000 C   0  0  0  0  0  0  0  0  0  0  0  0
   -2.5898    1.7442    0.0000 C   0  0  0  0  0  0  0  0  0  0  0  0
   -3.1202    2.3762    0.0000 C   0  0  0  0  0  0  0  0  0  0  0  0
   -2.8379    3.1516    0.0000 C   0  0  0  0  0  0  0  0  0  0  0  0
   -2.0255    3.2948    0.0000 C   0  0  0  0  0  0  0  0  0  0  0  0
    1.3744    0.4757    0.0000 O   0  0  0  0  0  0  0  0  0  0  0  0
   -1.4834    1.3008    0.0000 O   0  0  0  0  0  0  0  0  0  0  0  0
   -0.7689    0.0634    0.0000 N   0  0  0  0  0  0  0  0  0  0  0  0
   -0.1015   -0.4216    0.0000 C   0  0  0  0  0  0  0  0  0  0  0  0
   -0.3564   -1.2061    0.0000 C   0  0  0  0  0  0  0  0  0  0  0  0
    0.1285   -1.8736    0.0000 C   0  0  0  0  0  0  0  0  0  0  0  0
   -0.2071   -2.6273    0.0000 C   0  0  0  0  0  0  0  0  0  0  0  0
    0.2779   -3.2948    0.0000 C   0  0  0  0  0  0  0  0  0  0  0  0
    1.0983   -3.2085    0.0000 C   0  0  0  0  0  0  0  0  0  0  0  0
    1.4338   -2.4548    0.0000 C   0  0  0  0  0  0  0  0  0  0  0  0
    0.9490   -1.7874    0.0000 C   0  0  0  0  0  0  0  0  0  0  0  0
   -1.1814   -1.2061    0.0000 C   0  0  0  0  0  0  0  0  0  0  0  0
   -1.4363   -0.4216    0.0000 C   0  0  0  0  0  0  0  0  0  0  0  0
   -2.2211   -0.1666    0.0000 C   0  0  0  0  0  0  0  0  0  0  0  0
   -2.8340   -0.7186    0.0000 O   0  0  0  0  0  0  0  0  0  0  0  0
   -2.3925    0.6402    0.0000 O   0  0  0  0  0  0  0  0  0  0  0  0
  1  2  1  0
  1 25  2  0
  1 26  1  0
  2  3  1  0
  3  4  1  0
  3 14  1  0
  3 24  2  0
  5  4  1  1
  5  6  1  0
  5 11  1  0
  6  7  1  0
  7  8  1  0
  7 10  2  0
  8  9  1  0
 11 12  1  0
 11 13  1  0
 14 15  1  0
 15 16  1  0
 16 17  1  0
 17 18  1  0
 18 19  2  0
 18 23  1  0
 19 20  1  0
 20 21  2  0
 22 21  1  0
 23 22  2  0
 26 27  1  0
 26 36  1  0
 27 28  1  0
 28 29  1  6
 28 35  1  0
 29 30  1  0
 29 34  1  0
 30 31  1  0
 31 32  1  0
 33 32  1  0
 34 33  1  0
 36 35  1  0
 36 37  1  1
 37 38  1  0
 37 39  2  0
M  END
>  <DRUGBANK_ID>  (1) 
DB00492

>  <SECONDARY_ACCESSION_NUMBERS>  (1) 
APRD00526

>  <COMMON_NAME>  (1) 
Fosinopril

>  <CAS_NUMBER>  (1) 
98048-97-6

>  <UNII>  (1) 
R43D2573WO

>  <SYNONYMS>  (1) 
Fosenopril; Fosinopril

$$$$
