
     RDKit          2D

 12 11  0  0  0  0  0  0  0  0999 V2000
   -0.7144   -0.2615    0.0000 C   0  0  0  0  0  0  0  0  0  0  0  0
    0.0000    0.1509    0.0000 C   0  0  0  0  0  0  0  0  0  0  0  0
   -1.4289   -0.6740    0.0000 C   0  0  0  0  0  0  0  0  0  0  0  0
   -1.1269    0.4530    0.0000 C   0  0  0  0  0  0  0  0  0  0  0  0
   -0.3019   -0.9760    0.0000 Br  0  0  0  0  0  0  0  0  0  0  0  0
    0.7144   -0.2615    0.0000 N   0  0  0  0  0  0  0  0  0  0  0  0
    0.0000    0.9760    0.0000 O   0  0  0  0  0  0  0  0  0  0  0  0
   -2.1434   -0.2615    0.0000 C   0  0  0  0  0  0  0  0  0  0  0  0
   -1.9519    0.4530    0.0000 C   0  0  0  0  0  0  0  0  0  0  0  0
    1.4289    0.1509    0.0000 C   0  0  0  0  0  0  0  0  0  0  0  0
    2.1434   -0.2615    0.0000 N   0  0  0  0  0  0  0  0  0  0  0  0
    1.4289    0.9760    0.0000 O   0  0  0  0  0  0  0  0  0  0  0  0
  1  2  1  0
  1  3  1  0
  1  4  1  0
  1  5  1  0
  2  6  1  0
  2  7  2  0
  3  8  1  0
  4  9  1  0
  6 10  1  0
 10 11  1  0
 10 12  2  0
M  END
>  <DRUGBANK_ID>  (1) 
DB13817

>  <COMMON_NAME>  (1) 
Carbromal

>  <CAS_NUMBER>  (1) 
77-65-6

>  <UNII>  (1) 
0Y299JY9V3

>  <SYNONYMS>  (1) 
Carbromal; Carbromalum

$$$$
