
     RDKit          2D

 11 10  0  0  0  0  0  0  0  0999 V2000
   -1.4272   -0.2069    0.0000 C   0  0  0  0  0  0  0  0  0  0  0  0
   -0.7135   -0.6208    0.0000 C   0  0  0  0  0  0  0  0  0  0  0  0
    0.0000   -0.2069    0.0000 C   0  0  0  0  0  0  0  0  0  0  0  0
    0.7135   -0.6208    0.0000 C   0  0  0  0  0  0  0  0  0  0  0  0
    1.4275   -0.2069    0.0000 C   0  0  0  0  0  0  0  0  0  0  0  0
   -1.4272    0.6208    0.0000 O   0  0  0  0  0  0  0  0  0  0  0  0
   -2.1409   -0.6208    0.0000 O   0  0  0  0  0  0  0  0  0  0  0  0
    2.1409   -0.6208    0.0000 O   0  0  0  0  0  0  0  0  0  0  0  0
    1.4275    0.6064    0.0000 O   0  0  0  0  0  0  0  0  0  0  0  0
    0.4182    0.5118    0.0000 O   0  0  0  0  0  0  0  0  0  0  0  0
   -0.4067    0.5118    0.0000 C   0  0  0  0  0  0  0  0  0  0  0  0
  2  1  1  0
  3  2  1  0
  3 10  1  0
  3 11  1  0
  4  3  1  0
  5  4  1  0
  6  1  2  0
  7  1  1  0
  8  5  1  0
  9  5  2  0
M  END
>  <DRUGBANK_ID>  (1) 
DB04377

>  <SECONDARY_ACCESSION_NUMBERS>  (1) 
EXPT02109

>  <COMMON_NAME>  (1) 
Meglutol

>  <CAS_NUMBER>  (1) 
503-49-1

>  <UNII>  (1) 
CLA99KCD53

>  <SYNONYMS>  (1) 
3-hydroxy-3-methylglutaric acid; Dicrotalic acid; Meglutol

$$$$
