
     RDKit          2D

 15 16  0  0  0  0  0  0  0  0999 V2000
   -2.7740    1.4425    0.0000 N   0  0  0  0  0  0  0  0  0  0  0  0
   -2.0583    1.0263    0.0000 N   0  0  0  0  0  0  0  0  0  0  0  0
   -2.0583    0.2052    0.0000 C   0  0  0  0  0  0  0  0  0  0  0  0
   -1.3482   -0.2052    0.0000 C   0  0  0  0  0  0  0  0  0  0  0  0
   -0.6325    0.2052    0.0000 C   0  0  0  0  0  0  0  0  0  0  0  0
    0.0777   -0.2052    0.0000 C   0  0  0  0  0  0  0  0  0  0  0  0
    0.0777   -1.0319    0.0000 C   0  0  0  0  0  0  0  0  0  0  0  0
    0.7933   -1.4425    0.0000 C   0  0  0  0  0  0  0  0  0  0  0  0
    1.5090   -1.0319    0.0000 C   0  0  0  0  0  0  0  0  0  0  0  0
    1.5090   -0.2052    0.0000 C   0  0  0  0  0  0  0  0  0  0  0  0
    0.7933    0.2052    0.0000 C   0  0  0  0  0  0  0  0  0  0  0  0
    2.2913    0.0499    0.0000 O   0  0  0  0  0  0  0  0  0  0  0  0
    2.7740   -0.6213    0.0000 C   0  0  0  0  0  0  0  0  0  0  0  0
    2.2913   -1.2870    0.0000 O   0  0  0  0  0  0  0  0  0  0  0  0
   -2.7740   -0.2052    0.0000 C   0  0  0  0  0  0  0  0  0  0  0  0
  1  2  1  0
  2  3  1  0
  3  4  1  0
  3 15  1  0
  4  5  1  0
  5  6  1  0
  6  7  2  0
  6 11  1  0
  7  8  1  0
  8  9  2  0
  9 10  1  0
  9 14  1  0
 10 11  2  0
 10 12  1  0
 12 13  1  0
 13 14  1  0
M  END
>  <DRUGBANK_ID>  (1) 
DB09253

>  <COMMON_NAME>  (1) 
Safrazine

>  <CAS_NUMBER>  (1) 
33419-68-0

>  <UNII>  (1) 
F5G0P5378C

>  <SYNONYMS>  (1) 
Safra

$$$$
