
     RDKit          2D

 12 12  0  0  1  0  0  0  0  0999 V2000
    0.0000    0.0000    0.0000 O   0  0  0  0  0  0  0  0  0  0  0  0
   -0.8974   -1.9370    0.0000 O   0  0  0  0  0  0  0  0  0  0  0  0
    0.8974   -1.9370    0.0000 O   0  0  0  0  0  0  0  0  0  0  0  0
    0.6674   -0.4849    0.0000 C   0  0  0  0  0  0  0  0  0  0  0  0
    1.4521   -0.2300    0.0000 O   0  0  0  0  0  0  0  0  0  0  0  0
    0.4125   -1.2695    0.0000 C   0  0  0  0  0  0  0  0  0  0  0  0
   -0.4125   -1.2695    0.0000 C   0  0  0  0  0  0  0  0  0  0  0  0
   -2.8109   -0.0724    0.0000 O   0  0  0  0  0  0  0  0  0  0  0  0
   -2.0964   -0.4849    0.0000 C   0  0  0  0  0  0  0  0  0  0  0  0
   -1.3818   -0.0724    0.0000 C   0  0  0  0  0  0  0  0  0  0  0  0
   -1.3818    0.7526    0.0000 O   0  0  0  0  0  0  0  0  0  0  0  0
   -0.6674   -0.4849    0.0000 C   0  0  0  0  0  0  0  0  0  0  0  0
  1  4  1  0
  4  5  2  0
  4  6  1  0
  6  3  2  0
  6  7  1  0
  7  2  2  0
  8  9  1  0
  9 10  1  0
 10 11  1  6
 12  1  1  1
 12  7  1  0
 12 10  1  0
M  END
>  <DRUGBANK_ID>  (1) 
DB08830

>  <COMMON_NAME>  (1) 
Dehydroascorbic acid

>  <CAS_NUMBER>  (1) 
490-83-5

>  <UNII>  (1) 
Y2Z3ZTP9UM

>  <SYNONYMS>  (1) 
dehydro-L-ascorbic acid; DHAA; L-dehydroascorbate; L-dehydroascorbic acid; L-threo-2,3-hexodiulosonic acid, Î³-lactone; L-threo-hexo-2,3-diulosono-1,4-lactone; Oxidized ascorbic acid; Oxidized vitamin C

$$$$
