M2F
     RDKit          2D

 24 25  0  0  0  0  0  0  0  0999 V2000
    1.3416    1.9953    0.0000 O   0  0  0  0  0  0  0  0  0  0  0  0
    2.0561    1.5828    0.0000 N   0  0  0  0  0  0  0  0  0  0  0  0
    2.7706    1.9953    0.0000 O   0  0  0  0  0  0  0  0  0  0  0  0
    2.0561    0.7578    0.0000 C   0  0  0  0  0  0  0  0  0  0  0  0
    2.7706    0.3453    0.0000 C   0  0  0  0  0  0  0  0  0  0  0  0
    2.7706   -0.4797    0.0000 C   0  0  0  0  0  0  0  0  0  0  0  0
    3.4850   -0.8922    0.0000 N   0  0  0  0  0  0  0  0  0  0  0  0
    3.4850   -1.7172    0.0000 O   0  0  0  0  0  0  0  0  0  0  0  0
    4.1995   -0.4797    0.0000 O   0  0  0  0  0  0  0  0  0  0  0  0
    2.0561   -0.8922    0.0000 C   0  0  0  0  0  0  0  0  0  0  0  0
    1.3416   -0.4797    0.0000 C   0  0  0  0  0  0  0  0  0  0  0  0
    1.3416    0.3453    0.0000 C   0  0  0  0  0  0  0  0  0  0  0  0
    0.6272    0.7578    0.0000 O   0  0  0  0  0  0  0  0  0  0  0  0
   -0.0873    0.3453    0.0000 C   0  0  0  0  0  0  0  0  0  0  0  0
   -0.0873   -0.4797    0.0000 O   0  0  0  0  0  0  0  0  0  0  0  0
   -0.8018    0.7578    0.0000 C   0  0  0  0  0  0  0  0  0  0  0  0
   -0.8018    1.5828    0.0000 F   0  0  0  0  0  0  0  0  0  0  0  0
   -1.5163    0.3453    0.0000 C   0  0  0  0  0  0  0  0  0  0  0  0
   -2.2307    0.7578    0.0000 O   0  0  0  0  0  0  0  0  0  0  0  0
   -1.5163   -0.4797    0.0000 C   0  0  0  0  0  0  0  0  0  0  0  0
   -2.2307   -0.8922    0.0000 O   0  0  0  0  0  0  0  0  0  0  0  0
   -0.8018   -0.8922    0.0000 C   0  0  0  0  0  0  0  0  0  0  0  0
   -0.8018   -1.7172    0.0000 C   0  0  0  0  0  0  0  0  0  0  0  0
   -1.5163   -2.1297    0.0000 O   0  0  0  0  0  0  0  0  0  0  0  0
  1  2  1  0
  2  3  2  0
  2  4  1  0
  4  5  2  0
  4 12  1  0
  5  6  1  0
  6  7  1  0
  6 10  2  0
  7  8  1  0
  7  9  2  0
 10 11  1  0
 11 12  2  0
 12 13  1  0
 14 13  1  6
 14 15  1  0
 14 16  1  0
 15 22  1  0
 16 17  1  6
 16 18  1  0
 18 19  1  6
 18 20  1  0
 20 21  1  1
 20 22  1  0
 22 23  1  6
 23 24  1  0
M  CHG  4   1  -1   2   1   7   1   8  -1
M  END
>  <DRUGBANK_ID>  (1) 
DB08158

>  <COMMON_NAME>  (1) 
2,4-DINITROPHENYL 2-DEOXY-2-FLUORO-BETA-D-MANNOPYRANOSIDE

$$$$
