CIN
     RDKit          2D

 14 14  0  0  0  0  0  0  0  0999 V2000
    0.1663    0.2089    0.0000 C   0  0  0  0  0  0  0  0  0  0  0  0
    0.1663   -0.6161    0.0000 C   0  0  0  0  0  0  0  0  0  0  0  0
   -0.5482   -1.0286    0.0000 C   0  0  0  0  0  0  0  0  0  0  0  0
   -1.2626   -0.6161    0.0000 C   0  0  0  0  0  0  0  0  0  0  0  0
   -1.2626    0.2089    0.0000 C   0  0  0  0  0  0  0  0  0  0  0  0
   -0.5482    0.6214    0.0000 C   0  0  0  0  0  0  0  0  0  0  0  0
    0.8808    0.6214    0.0000 C   0  0  0  0  0  0  0  0  0  0  0  0
    1.5953    0.2089    0.0000 C   0  0  0  0  0  0  0  0  0  0  0  0
    2.3097    0.6214    0.0000 C   0  0  0  0  0  0  0  0  0  0  0  0
   -1.9771   -1.0286    0.0000 C   0  0  0  0  0  0  0  0  0  0  0  0
    3.0242    0.2089    0.0000 O   0  0  0  0  0  0  0  0  0  0  0  0
    2.3097    1.4464    0.0000 O   0  0  0  0  0  0  0  0  0  0  0  0
   -1.9771   -1.8536    0.0000 O   0  0  0  0  0  0  0  0  0  0  0  0
   -2.6916   -0.6161    0.0000 O   0  0  0  0  0  0  0  0  0  0  0  0
  1  2  2  0
  1  6  1  0
  1  7  1  0
  2  3  1  0
  3  4  2  0
  4  5  1  0
  4 10  1  0
  5  6  2  0
  7  8  2  0
  8  9  1  0
  9 11  2  0
  9 12  1  0
 10 13  2  0
 10 14  1  0
M  END
>  <DRUGBANK_ID>  (1) 
DB02126

>  <SECONDARY_ACCESSION_NUMBERS>  (1) 
EXPT00919

>  <COMMON_NAME>  (1) 
4-Carboxycinnamic Acid

$$$$
