5B3
     RDKit          2D

 24 26  0  0  0  0  0  0  0  0999 V2000
    1.9049    0.4802    0.0000 O   0  0  0  0  0  0  0  0  0  0  0  0
    0.0635    1.4158    0.0000 C   0  0  0  0  0  0  0  0  0  0  0  0
    1.0799   -0.9487    0.0000 O   0  0  0  0  0  0  0  0  0  0  0  0
    0.7780    1.0033    0.0000 C   0  0  0  0  0  0  0  0  0  0  0  0
    2.2069   -2.2967    0.0000 C   0  0  0  0  0  0  0  0  0  0  0  0
    2.2069   -0.6467    0.0000 N   0  0  0  0  0  0  0  0  0  0  0  0
    0.7780    0.1783    0.0000 C   0  0  0  0  0  0  0  0  0  0  0  0
    3.0319   -1.4717    0.0000 C   0  0  0  0  0  0  0  0  0  0  0  0
    1.3819   -1.4717    0.0000 C   0  0  0  0  0  0  0  0  0  0  0  0
    2.2069   -1.4717    0.0000 C   0  0  0  0  0  0  0  0  0  0  0  0
    1.4924   -0.2342    0.0000 S   0  0  0  0  0  0  0  0  0  0  0  0
    0.0635   -0.2342    0.0000 C   0  0  0  0  0  0  0  0  0  0  0  0
   -0.6510    0.1783    0.0000 C   0  0  0  0  0  0  0  0  0  0  0  0
   -0.6510    1.0033    0.0000 C   0  0  0  0  0  0  0  0  0  0  0  0
   -1.3655    1.4158    0.0000 C   0  0  0  0  0  0  0  0  0  0  0  0
   -2.0799    1.0033    0.0000 C   0  0  0  0  0  0  0  0  0  0  0  0
   -2.7944    1.4158    0.0000 C   0  0  0  0  0  0  0  0  0  0  0  0
   -3.5790    1.1608    0.0000 C   0  0  0  0  0  0  0  0  0  0  0  0
   -3.8340    0.3762    0.0000 N   0  0  0  0  0  0  0  0  0  0  0  0
   -4.0639    1.8283    0.0000 N   0  0  0  0  0  0  0  0  0  0  0  0
   -3.5790    2.4957    0.0000 N   0  0  0  0  0  0  0  0  0  0  0  0
   -2.7944    2.2408    0.0000 C   0  0  0  0  0  0  0  0  0  0  0  0
   -2.0799    2.6533    0.0000 C   0  0  0  0  0  0  0  0  0  0  0  0
   -1.3655    2.2408    0.0000 C   0  0  0  0  0  0  0  0  0  0  0  0
  1 11  2  0
  2  4  2  0
  2 14  1  0
  3 11  2  0
  4  7  1  0
  5 10  1  0
  6 10  1  0
  6 11  1  0
  7 11  1  0
  7 12  2  0
  8 10  1  0
  9 10  1  0
 12 13  1  0
 13 14  2  0
 14 15  1  0
 15 16  2  0
 15 24  1  0
 16 17  1  0
 17 18  1  0
 17 22  2  0
 18 19  1  0
 18 20  2  0
 20 21  1  0
 21 22  1  0
 22 23  1  0
 23 24  2  0
M  END
>  <DRUGBANK_ID>  (1) 
DB07162

>  <COMMON_NAME>  (1) 
4-(3-amino-1H-indazol-5-yl)-N-tert-butylbenzenesulfonamide

$$$$
