BP4
     RDKit          2D

 16 17  0  0  0  0  0  0  0  0999 V2000
    0.2745   -2.2010    0.0000 C   0  0  0  0  0  0  0  0  0  0  0  0
   -0.4400   -2.6135    0.0000 C   0  0  0  0  0  0  0  0  0  0  0  0
   -0.4400   -3.4385    0.0000 O   0  0  0  0  0  0  0  0  0  0  0  0
    0.2745    0.2740    0.0000 C   0  0  0  0  0  0  0  0  0  0  0  0
    0.9890   -0.1385    0.0000 C   0  0  0  0  0  0  0  0  0  0  0  0
    0.9890   -0.9635    0.0000 C   0  0  0  0  0  0  0  0  0  0  0  0
    0.2745   -1.3760    0.0000 C   0  0  0  0  0  0  0  0  0  0  0  0
   -0.4400   -0.9635    0.0000 C   0  0  0  0  0  0  0  0  0  0  0  0
   -0.4400   -0.1385    0.0000 C   0  0  0  0  0  0  0  0  0  0  0  0
    0.2745    2.7490    0.0000 C   0  0  0  0  0  0  0  0  0  0  0  0
    0.9890    1.5115    0.0000 C   0  0  0  0  0  0  0  0  0  0  0  0
    0.2745    1.0990    0.0000 C   0  0  0  0  0  0  0  0  0  0  0  0
    0.9890    2.3365    0.0000 C   0  0  0  0  0  0  0  0  0  0  0  0
   -0.4400    1.5115    0.0000 C   0  0  0  0  0  0  0  0  0  0  0  0
   -0.4400    2.3365    0.0000 C   0  0  0  0  0  0  0  0  0  0  0  0
   -1.1545   -2.2010    0.0000 O   0  0  0  0  0  0  0  0  0  0  0  0
  1  2  1  0
  1  7  1  0
  2  3  2  0
  2 16  1  0
  4  5  2  0
  4  9  1  0
  4 12  1  0
  5  6  1  0
  6  7  2  0
  7  8  1  0
  8  9  2  0
 10 13  2  0
 10 15  1  0
 11 12  2  0
 11 13  1  0
 12 14  1  0
 14 15  2  0
M  END
>  <DRUGBANK_ID>  (1) 
DB07477

>  <COMMON_NAME>  (1) 
Felbinac

>  <CAS_NUMBER>  (1) 
5728-52-9

>  <UNII>  (1) 
94WNJ5U8L7

>  <SYNONYMS>  (1) 
Felbinac

$$$$
