
     RDKit          2D

 25 27  0  0  1  0  0  0  0  0999 V2000
   -0.6284    1.5229    0.0000 C   0  0  0  0  0  0  0  0  0  0  0  0
   -0.1435    0.8555    0.0000 C   0  0  0  0  0  0  0  0  0  0  0  0
    1.3556   -0.1271    0.0000 C   0  0  0  0  0  0  0  0  0  0  0  0
    4.2135    3.1729    0.0000 C   0  0  0  0  0  0  0  0  0  0  0  0
    1.3556    0.6979    0.0000 C   0  0  0  0  0  0  0  0  0  0  0  0
    4.2135    2.3479    0.0000 C   0  0  0  0  0  0  0  0  0  0  0  0
    4.9279    1.9354    0.0000 C   0  0  0  0  0  0  0  0  0  0  0  0
    4.9279    1.1104    0.0000 C   0  0  0  0  0  0  0  0  0  0  0  0
    2.0701    1.9354    0.0000 C   0  0  0  0  0  0  0  0  0  0  0  0
    1.3556    2.3479    0.0000 C   0  0  0  0  0  0  0  0  0  0  0  0
    4.2135    0.6979    0.0000 C   0  0  0  0  0  0  0  0  0  0  0  0
    2.0701    1.1104    0.0000 C   0  0  0  0  0  0  0  0  0  0  0  0
    0.6411    1.9354    0.0000 C   0  0  0  0  0  0  0  0  0  0  0  0
    3.4990    1.1104    0.0000 C   0  0  0  0  0  0  0  0  0  0  0  0
   -0.1435    2.1904    0.0000 N   0  0  0  0  0  0  0  0  0  0  0  0
    0.6411    1.1104    0.0000 N   0  0  0  0  0  0  0  0  0  0  0  0
    0.6411   -0.5396    0.0000 O   0  0  0  0  0  0  0  0  0  0  0  0
    4.9279    3.5854    0.0000 O   0  0  0  0  0  0  0  0  0  0  0  0
    5.6424    2.3479    0.0000 O   0  0  0  0  0  0  0  0  0  0  0  0
    5.6424    0.6979    0.0000 O   0  0  0  0  0  0  0  0  0  0  0  0
    2.7845    2.3479    0.0000 O   0  0  0  0  0  0  0  0  0  0  0  0
    1.3556    3.1729    0.0000 O   0  0  0  0  0  0  0  0  0  0  0  0
    4.2135   -0.1271    0.0000 O   0  0  0  0  0  0  0  0  0  0  0  0
    3.4990    1.9354    0.0000 O   0  0  0  0  0  0  0  0  0  0  0  0
    2.7845    0.6979    0.0000 O   0  0  0  0  0  0  0  0  0  0  0  0
  2  1  2  0
  5  3  1  1
  6  4  1  6
  7  6  1  0
  7 19  1  1
  8  7  1  0
  8 20  1  6
  9 21  1  1
 10  9  1  0
 10 22  1  6
 11  8  1  0
 11 23  1  1
 12  5  1  0
 12  9  1  0
 12 25  1  6
 13 10  1  0
 14 11  1  0
 14 25  1  6
 15  1  1  0
 15 13  2  0
 16  2  1  0
 16  5  1  0
 16 13  1  0
 17  3  1  0
 18  4  1  0
 24  6  1  0
 24 14  1  0
M  END
>  <DRUGBANK_ID>  (1) 
DB02017

>  <SECONDARY_ACCESSION_NUMBERS>  (1) 
EXPT01837

>  <COMMON_NAME>  (1) 
Imidazole-Derived Cellobiose

$$$$
