
     RDKit          2D

 23 25  0  0  0  0  0  0  0  0999 V2000
   -3.5202    1.2813    0.0000 C   0  0  0  0  0  0  0  0  0  0  0  0
   -2.8057    0.8688    0.0000 N   0  0  0  0  0  0  0  0  0  0  0  0
   -2.8057    0.0438    0.0000 C   0  0  0  0  0  0  0  0  0  0  0  0
   -2.0913    1.2813    0.0000 C   0  0  0  0  0  0  0  0  0  0  0  0
   -1.3768    0.8688    0.0000 C   0  0  0  0  0  0  0  0  0  0  0  0
   -0.6623    1.2813    0.0000 C   0  0  0  0  0  0  0  0  0  0  0  0
    0.0521    0.8688    0.0000 C   0  0  0  0  0  0  0  0  0  0  0  0
    0.5824    0.2368    0.0000 C   0  0  0  0  0  0  0  0  0  0  0  0
    0.3003   -0.5385    0.0000 C   0  0  0  0  0  0  0  0  0  0  0  0
    0.8306   -1.1705    0.0000 C   0  0  0  0  0  0  0  0  0  0  0  0
    1.6430   -1.0272    0.0000 C   0  0  0  0  0  0  0  0  0  0  0  0
    1.9252   -0.2520    0.0000 C   0  0  0  0  0  0  0  0  0  0  0  0
    1.3949    0.3800    0.0000 C   0  0  0  0  0  0  0  0  0  0  0  0
    1.6771    1.1553    0.0000 S   0  0  0  0  0  0  0  0  0  0  0  0
    1.1468    1.7873    0.0000 C   0  0  0  0  0  0  0  0  0  0  0  0
    0.3343    1.6440    0.0000 C   0  0  0  0  0  0  0  0  0  0  0  0
   -0.1960    2.2760    0.0000 C   0  0  0  0  0  0  0  0  0  0  0  0
    0.0862    3.0512    0.0000 C   0  0  0  0  0  0  0  0  0  0  0  0
    0.8986    3.1945    0.0000 C   0  0  0  0  0  0  0  0  0  0  0  0
    1.4289    2.5625    0.0000 C   0  0  0  0  0  0  0  0  0  0  0  0
   -0.4441    3.6832    0.0000 O   0  0  0  0  0  0  0  0  0  0  0  0
   -0.1620    4.4585    0.0000 C   0  0  0  0  0  0  0  0  0  0  0  0
   -0.4782    0.2368    0.0000 O   0  0  0  0  0  0  0  0  0  0  0  0
  1  2  1  0
  2  3  1  0
  2  4  1  0
  4  5  1  0
  5  6  1  0
  6  7  1  0
  7  8  1  0
  7 16  1  0
  7 23  1  0
  8  9  1  0
  8 13  2  0
  9 10  2  0
 10 11  1  0
 11 12  2  0
 12 13  1  0
 13 14  1  0
 14 15  1  0
 15 16  2  0
 15 20  1  0
 16 17  1  0
 17 18  2  0
 18 19  1  0
 18 21  1  0
 19 20  2  0
 21 22  1  0
M  END
>  <DRUGBANK_ID>  (1) 
DB13822

>  <COMMON_NAME>  (1) 
Meprotixol

>  <CAS_NUMBER>  (1) 
4295-63-0

>  <UNII>  (1) 
2JXZ154Z0Q

>  <SYNONYMS>  (1) 
Meprotixol

$$$$
