MMG
     RDKit          2D

 24 27  0  0  0  0  0  0  0  0999 V2000
    1.9705   -0.3369    0.0000 C   0  0  0  0  0  0  0  0  0  0  0  0
    2.6850    0.9006    0.0000 C   0  0  0  0  0  0  0  0  0  0  0  0
   -2.0194   -0.3105    0.0000 C   0  0  0  0  0  0  0  0  0  0  0  0
   -0.6604   -0.7520    0.0000 C   0  0  0  0  0  0  0  0  0  0  0  0
   -2.2744   -1.0951    0.0000 C   0  0  0  0  0  0  0  0  0  0  0  0
    0.5416    0.4881    0.0000 C   0  0  0  0  0  0  0  0  0  0  0  0
    1.9705    0.4881    0.0000 C   0  0  0  0  0  0  0  0  0  0  0  0
   -1.7223   -1.7082    0.0000 C   0  0  0  0  0  0  0  0  0  0  0  0
   -0.1729    0.9006    0.0000 C   0  0  0  0  0  0  0  0  0  0  0  0
   -1.9773   -2.4928    0.0000 C   0  0  0  0  0  0  0  0  0  0  0  0
    3.3995   -0.3369    0.0000 C   0  0  0  0  0  0  0  0  0  0  0  0
    2.6850   -0.7494    0.0000 C   0  0  0  0  0  0  0  0  0  0  0  0
    3.3995    0.4881    0.0000 C   0  0  0  0  0  0  0  0  0  0  0  0
   -0.9154   -1.5366    0.0000 C   0  0  0  0  0  0  0  0  0  0  0  0
   -1.4424    1.3131    0.0000 C   0  0  0  0  0  0  0  0  0  0  0  0
    1.2560    1.7256    0.0000 C   0  0  0  0  0  0  0  0  0  0  0  0
   -1.2125   -0.1389    0.0000 C   0  0  0  0  0  0  0  0  0  0  0  0
    1.2560    0.9006    0.0000 C   0  0  0  0  0  0  0  0  0  0  0  0
   -0.9575    0.6457    0.0000 C   0  0  0  0  0  0  0  0  0  0  0  0
   -0.1729    1.7256    0.0000 C   0  0  0  0  0  0  0  0  0  0  0  0
   -0.9575    1.9806    0.0000 N   0  0  0  0  0  0  0  0  0  0  0  0
    0.5416    2.1381    0.0000 N   0  0  0  0  0  0  0  0  0  0  0  0
   -1.4252   -3.1059    0.0000 O   0  0  0  0  0  0  0  0  0  0  0  0
   -2.7843   -2.6643    0.0000 O   0  0  0  0  0  0  0  0  0  0  0  0
  1  7  2  0
  2  7  1  0
  4 17  2  0
  5  3  2  0
  6  9  2  0
  7 18  1  0
  8  5  1  0
  9 19  1  0
  9 20  1  0
 10  8  1  0
 10 24  1  0
 11 13  1  0
 11 12  2  0
 12  1  1  0
 13  2  2  0
 14  4  1  0
 14  8  2  0
 15 21  1  0
 16 22  1  0
 17  3  1  0
 17 19  1  0
 18  6  1  0
 18 16  2  0
 19 15  2  0
 20 21  1  0
 22 20  2  0
 23 10  2  0
M  END
>  <DRUGBANK_ID>  (1) 
DB08191

>  <COMMON_NAME>  (1) 
4-(5-phenyl-1H-pyrrolo[2,3-b]pyridin-3-yl)benzoic acid

$$$$
