
     RDKit          2D

 22 22  0  0  0  0  0  0  0  0999 V2000
   -4.6440   -1.6500    0.0000 C   0  0  0  0  0  0  0  0  0  0  0  0
   -4.6440   -0.8250    0.0000 N   0  0  0  0  0  0  0  0  0  0  0  0
   -5.3585   -0.4125    0.0000 C   0  0  0  0  0  0  0  0  0  0  0  0
   -3.9295   -0.4125    0.0000 C   0  0  0  0  0  0  0  0  0  0  0  0
   -3.9295    0.4125    0.0000 C   0  0  0  0  0  0  0  0  0  0  0  0
   -3.2151    0.8250    0.0000 C   0  0  0  0  0  0  0  0  0  0  0  0
   -2.5006    0.4125    0.0000 C   0  0  0  0  0  0  0  0  0  0  0  0
   -2.5006   -0.4125    0.0000 C   0  0  0  0  0  0  0  0  0  0  0  0
   -3.2151   -0.8250    0.0000 C   0  0  0  0  0  0  0  0  0  0  0  0
   -1.7861    0.8250    0.0000 C   0  0  0  0  0  0  0  0  0  0  0  0
   -1.7861    1.6500    0.0000 O   0  0  0  0  0  0  0  0  0  0  0  0
   -1.0717    0.4125    0.0000 N   0  0  0  0  0  0  0  0  0  0  0  0
   -0.3572    0.8250    0.0000 C   0  0  0  0  0  0  0  0  0  0  0  0
    0.3572    0.4125    0.0000 C   0  0  0  0  0  0  0  0  0  0  0  0
    1.0717    0.8250    0.0000 C   0  0  0  0  0  0  0  0  0  0  0  0
    1.7861    0.4125    0.0000 C   0  0  0  0  0  0  0  0  0  0  0  0
    2.5006    0.8250    0.0000 C   0  0  0  0  0  0  0  0  0  0  0  0
    3.2151    0.4125    0.0000 C   0  0  0  0  0  0  0  0  0  0  0  0
    3.9295    0.8250    0.0000 C   0  0  0  0  0  0  0  0  0  0  0  0
    3.9295    1.6500    0.0000 O   0  0  0  0  0  0  0  0  0  0  0  0
    4.6440    0.4125    0.0000 N   0  0  0  0  0  0  0  0  0  0  0  0
    5.3585    0.8250    0.0000 O   0  0  0  0  0  0  0  0  0  0  0  0
  1  2  1  0
  2  3  1  0
  2  4  1  0
  4  5  2  0
  5  6  1  0
  6  7  2  0
  7  8  1  0
  7 10  1  0
  8  9  2  0
  9  4  1  0
 10 11  2  0
 10 12  1  0
 12 13  1  0
 13 14  1  0
 14 15  1  0
 15 16  1  0
 16 17  1  0
 17 18  1  0
 18 19  1  0
 19 20  2  0
 19 21  1  0
 21 22  1  0
M  END
>  <DRUGBANK_ID>  (1) 
DB02565

>  <SECONDARY_ACCESSION_NUMBERS>  (1) 
EXPT00611

>  <COMMON_NAME>  (1) 
4-(dimethylamino)-N-[7-(hydroxyamino)-7-oxoheptyl]benzamide

>  <CAS_NUMBER>  (1) 
251456-60-7

>  <UNII>  (1) 
J8W4VF5ZEJ

>  <SYNONYMS>  (1) 
4-dimethylamino-N-(6-hydroxycarbamoylhexyl)benzamide; histone deacetylase inhibitor III; N-hydroxy-7-(4-dimethylaminobenzoyl)aminoheptanamide

$$$$
