7X6
     RDKit          2D

 29 32  0  0  0  0  0  0  0  0999 V2000
    5.8100    2.3118    0.0000 N   0  0  0  0  0  0  0  0  0  0  0  0
    5.8100    3.1368    0.0000 C   0  0  0  0  0  0  0  0  0  0  0  0
    5.0955    3.5493    0.0000 N   0  0  0  0  0  0  0  0  0  0  0  0
    5.0955    4.3743    0.0000 C   0  0  0  0  0  0  0  0  0  0  0  0
    5.8100    4.7868    0.0000 C   0  0  0  0  0  0  0  0  0  0  0  0
    6.5245    4.3743    0.0000 C   0  0  0  0  0  0  0  0  0  0  0  0
    7.2390    4.7868    0.0000 N   0  0  0  0  0  0  0  0  0  0  0  0
    7.2390    5.6118    0.0000 C   0  0  0  0  0  0  0  0  0  0  0  0
    6.5245    6.0243    0.0000 C   0  0  0  0  0  0  0  0  0  0  0  0
    5.7399    5.7694    0.0000 O   0  0  0  0  0  0  0  0  0  0  0  0
    5.2549    6.4368    0.0000 C   0  0  0  0  0  0  0  0  0  0  0  0
    5.7399    7.1043    0.0000 O   0  0  0  0  0  0  0  0  0  0  0  0
    6.5245    6.8493    0.0000 C   0  0  0  0  0  0  0  0  0  0  0  0
    7.2390    7.2618    0.0000 C   0  0  0  0  0  0  0  0  0  0  0  0
    7.9534    6.8493    0.0000 C   0  0  0  0  0  0  0  0  0  0  0  0
    7.9534    6.0243    0.0000 C   0  0  0  0  0  0  0  0  0  0  0  0
    8.6679    5.6118    0.0000 Cl  0  0  0  0  0  0  0  0  0  0  0  0
    6.5245    3.5493    0.0000 N   0  0  0  0  0  0  0  0  0  0  0  0
    5.8100   -0.9882    0.0000 C   0  0  0  0  0  0  0  0  0  0  0  0
    5.0955   -0.5757    0.0000 S   0  0  0  0  0  0  0  0  0  0  0  0
    4.6830   -1.2901    0.0000 O   0  0  0  0  0  0  0  0  0  0  0  0
    5.5080    0.1388    0.0000 O   0  0  0  0  0  0  0  0  0  0  0  0
    4.3811   -0.1632    0.0000 N   0  0  0  0  0  0  0  0  0  0  0  0
    4.3811    0.6618    0.0000 C   0  0  0  0  0  0  0  0  0  0  0  0
    3.6666    1.0743    0.0000 C   0  0  0  0  0  0  0  0  0  0  0  0
    3.6666    1.8993    0.0000 C   0  0  0  0  0  0  0  0  0  0  0  0
    4.3811    2.3118    0.0000 C   0  0  0  0  0  0  0  0  0  0  0  0
    5.0955    1.8993    0.0000 C   0  0  0  0  0  0  0  0  0  0  0  0
    5.0955    1.0743    0.0000 C   0  0  0  0  0  0  0  0  0  0  0  0
  1  2  1  0
  1 28  1  0
  2  3  2  0
  2 18  1  0
  3  4  1  0
  4  5  2  0
  5  6  1  0
  6  7  1  0
  6 18  2  0
  7  8  1  0
  8  9  2  0
  8 16  1  0
  9 10  1  0
  9 13  1  0
 10 11  1  0
 11 12  1  0
 12 13  1  0
 13 14  2  0
 14 15  1  0
 15 16  2  0
 16 17  1  0
 19 20  1  0
 20 21  2  0
 20 22  2  0
 20 23  1  0
 23 24  1  0
 24 25  2  0
 24 29  1  0
 25 26  1  0
 26 27  2  0
 27 28  1  0
 28 29  2  0
M  END
>  <DRUGBANK_ID>  (1) 
DB07254

>  <COMMON_NAME>  (1) 
N-[3-[[4-[(5-CHLORO-1,3-BENZODIOXOL-4-YL)AMINO]PYRIMIDIN-2-YL]AMINO]PHENYL]METHANESULFONAMIDE

$$$$
