
     RDKit          2D

 16 16  0  0  0  0  0  0  0  0999 V2000
   -0.7143    0.4081    0.0000 C   0  0  0  0  0  0  0  0  0  0  0  0
    0.0000    0.8207    0.0000 C   0  0  0  0  0  0  0  0  0  0  0  0
   -0.7143   -0.4080    0.0000 C   0  0  0  0  0  0  0  0  0  0  0  0
    0.7143    0.4081    0.0000 C   0  0  0  0  0  0  0  0  0  0  0  0
    0.0000    1.6479    0.0000 O   0  0  0  0  0  0  0  0  0  0  0  0
    0.0000   -0.8208    0.0000 C   0  0  0  0  0  0  0  0  0  0  0  0
    0.7143   -0.4080    0.0000 C   0  0  0  0  0  0  0  0  0  0  0  0
    0.0000   -1.6479    0.0000 C   0  0  0  0  0  0  0  0  0  0  0  0
   -1.4268    0.8207    0.0000 C   0  0  0  0  0  0  0  0  0  0  0  0
    1.4268    0.8207    0.0000 C   0  0  0  0  0  0  0  0  0  0  0  0
    1.0786    1.5723    0.0000 C   0  0  0  0  0  0  0  0  0  0  0  0
    1.9065    0.1433    0.0000 C   0  0  0  0  0  0  0  0  0  0  0  0
    2.1449    1.2343    0.0000 C   0  0  0  0  0  0  0  0  0  0  0  0
   -1.0786    1.5723    0.0000 C   0  0  0  0  0  0  0  0  0  0  0  0
   -2.1449    1.2343    0.0000 C   0  0  0  0  0  0  0  0  0  0  0  0
   -1.9065    0.1433    0.0000 C   0  0  0  0  0  0  0  0  0  0  0  0
  1  2  2  0
  1  9  1  0
  1  3  1  0
  2  5  1  0
  2  4  1  0
  3  6  2  0
  4 10  1  0
  4  7  2  0
  6  8  1  0
  6  7  1  0
  9 14  1  0
  9 15  1  0
  9 16  1  0
 10 11  1  0
 10 12  1  0
 10 13  1  0
M  END
>  <DRUGBANK_ID>  (1) 
DB16863

>  <COMMON_NAME>  (1) 
Butylated hydroxytoluene

>  <CAS_NUMBER>  (1) 
128-37-0

>  <UNII>  (1) 
1P9D0Z171K

>  <SYNONYMS>  (1) 
BHT; Butylhydroxytoluene

$$$$
