
     RDKit          2D

 21 23  0  0  0  0  0  0  0  0999 V2000
    0.4124    0.8662    0.0000 N   0  0  0  0  0  0  0  0  0  0  0  0
    1.1137    0.3712    0.0000 C   0  0  0  0  0  0  0  0  0  0  0  0
   -0.3712    0.6188    0.0000 C   0  0  0  0  0  0  0  0  0  0  0  0
    0.7012    1.6500    0.0000 C   0  0  0  0  0  0  0  0  0  0  0  0
    1.7738    0.8662    0.0000 C   0  0  0  0  0  0  0  0  0  0  0  0
    1.1962   -0.4949    0.0000 N   0  0  0  0  0  0  0  0  0  0  0  0
   -1.0725    1.1137    0.0000 O   0  0  0  0  0  0  0  0  0  0  0  0
   -0.6600   -0.2062    0.0000 C   0  0  0  0  0  0  0  0  0  0  0  0
    1.5262    1.6500    0.0000 N   0  0  0  0  0  0  0  0  0  0  0  0
    2.5162    0.5363    0.0000 C   0  0  0  0  0  0  0  0  0  0  0  0
    1.9388   -0.8250    0.0000 C   0  0  0  0  0  0  0  0  0  0  0  0
   -1.7325    0.6188    0.0000 C   0  0  0  0  0  0  0  0  0  0  0  0
   -1.4849   -0.2062    0.0000 C   0  0  0  0  0  0  0  0  0  0  0  0
    2.5988   -0.3299    0.0000 N   0  0  0  0  0  0  0  0  0  0  0  0
    3.1763    0.9900    0.0000 N   0  0  0  0  0  0  0  0  0  0  0  0
   -1.9388   -0.8662    0.0000 O   0  0  0  0  0  0  0  0  0  0  0  0
   -2.4337    1.0312    0.0000 C   0  0  0  0  0  0  0  0  0  0  0  0
   -3.1350    0.6188    0.0000 O   0  0  0  0  0  0  0  0  0  0  0  0
   -2.4337    0.2062    0.0000 C   0  0  0  0  0  0  0  0  0  0  0  0
   -3.1763   -0.2062    0.0000 C   0  0  0  0  0  0  0  0  0  0  0  0
    2.0213   -1.6500    0.0000 F   0  0  0  0  0  0  0  0  0  0  0  0
  1  2  1  0
  1  4  1  0
  2  5  2  0
  2  6  1  0
  3  1  1  1
  3  7  1  0
  3  8  1  0
  4  9  2  0
  5 10  1  0
  5  9  1  0
  6 11  2  0
  7 12  1  0
  8 13  1  0
 10 14  2  0
 10 15  1  0
 11 14  1  0
 11 21  1  0
 12 13  1  0
 12 17  1  1
 12 19  1  0
 13 16  1  6
 17 18  1  0
 19 20  3  0
M  END
>  <DRUGBANK_ID>  (1) 
DB15653

>  <COMMON_NAME>  (1) 
Islatravir

>  <CAS_NUMBER>  (1) 
865363-93-5

>  <UNII>  (1) 
QPQ082R25D

>  <SYNONYMS>  (1) 
4'-ethynyl-2-fluoro-2'-deoxyadenosine; Islatravir

$$$$
