
     RDKit          2D

 30 32  0  0  0  0  0  0  0  0999 V2000
   -3.5372   -0.4125    0.0000 C   0  0  0  0  0  0  0  0  0  0  0  0
   -4.2517   -0.8250    0.0000 C   0  0  0  0  0  0  0  0  0  0  0  0
   -4.2517   -1.6500    0.0000 C   0  0  0  0  0  0  0  0  0  0  0  0
   -3.5372   -2.0625    0.0000 C   0  0  0  0  0  0  0  0  0  0  0  0
   -2.8228   -1.6500    0.0000 C   0  0  0  0  0  0  0  0  0  0  0  0
   -2.8228   -0.8250    0.0000 C   0  0  0  0  0  0  0  0  0  0  0  0
   -2.1083   -0.4125    0.0000 C   0  0  0  0  0  0  0  0  0  0  0  0
   -1.3938   -0.8250    0.0000 C   0  0  0  0  0  0  0  0  0  0  0  0
    0.0350   -0.8250    0.0000 N   0  0  0  0  0  0  0  0  0  0  0  0
    2.9301    0.6906    0.0000 C   0  0  0  0  0  0  0  0  0  0  0  0
    2.1784   -0.4125    0.0000 N   0  0  0  0  0  0  0  0  0  0  0  0
    3.4751   -1.2962    0.0000 C   0  0  0  0  0  0  0  0  0  0  0  0
    4.2517   -1.0177    0.0000 C   0  0  0  0  0  0  0  0  0  0  0  0
    4.2269   -0.1931    0.0000 C   0  0  0  0  0  0  0  0  0  0  0  0
    2.9704   -0.6437    0.0000 C   0  0  0  0  0  0  0  0  0  0  0  0
    3.4349    0.0379    0.0000 C   0  0  0  0  0  0  0  0  0  0  0  0
    0.7495   -0.4125    0.0000 C   0  0  0  0  0  0  0  0  0  0  0  0
    0.7495    0.4125    0.0000 C   0  0  0  0  0  0  0  0  0  0  0  0
   -0.6794   -0.4125    0.0000 C   0  0  0  0  0  0  0  0  0  0  0  0
   -0.6794    0.4125    0.0000 C   0  0  0  0  0  0  0  0  0  0  0  0
   -1.3938    0.8250    0.0000 O   0  0  0  0  0  0  0  0  0  0  0  0
    0.0350    0.8250    0.0000 O   0  0  0  0  0  0  0  0  0  0  0  0
    0.0350    1.6500    0.0000 C   0  0  0  0  0  0  0  0  0  0  0  0
    2.1536    0.4120    0.0000 C   0  0  0  0  0  0  0  0  0  0  0  0
    0.9161    1.1266    0.0000 O   0  0  0  0  0  0  0  0  0  0  0  0
    1.7411    1.1266    0.0000 C   0  0  0  0  0  0  0  0  0  0  0  0
    2.1536    1.8410    0.0000 O   0  0  0  0  0  0  0  0  0  0  0  0
    1.4639   -0.8250    0.0000 C   0  0  0  0  0  0  0  0  0  0  0  0
    1.4639   -1.6500    0.0000 O   0  0  0  0  0  0  0  0  0  0  0  0
    0.7495    2.0625    0.0000 C   0  0  0  0  0  0  0  0  0  0  0  0
  1  2  2  0
  1  6  1  0
  2  3  1  0
  3  4  2  0
  4  5  1  0
  5  6  2  0
  6  7  1  0
  7  8  1  0
 19  8  1  1
  9 17  1  0
 10 24  1  0
 16 10  1  6
 11 15  1  0
 12 13  1  0
 13 14  1  0
 15 12  1  6
 16 15  1  0
 16 14  1  0
 17 28  1  0
 17 18  1  1
 19  9  1  0
 19 20  1  0
 20 22  1  0
 20 21  2  0
 22 23  1  0
 23 30  1  0
 24 11  1  0
 24 26  1  6
 26 25  2  0
 26 27  1  0
 28 11  1  0
 28 29  2  0
M  END
>  <DRUGBANK_ID>  (1) 
DB00178

>  <SECONDARY_ACCESSION_NUMBERS>  (1) 
APRD00009

>  <COMMON_NAME>  (1) 
Ramipril

>  <CAS_NUMBER>  (1) 
87333-19-5

>  <UNII>  (1) 
L35JN3I7SJ

>  <SYNONYMS>  (1) 
(2S-(1(R*(R*)),2alpha,3abeta,6abeta))-1-(2-((1-(Ethoxycarbonyl)-3-phenylpropyl)amino)-1-oxopropyl)octahydrocyclopenta(b)pyrrole-2-carboxylic acid; Ramipril; Ramiprilum

$$$$
