
     RDKit          2D

 27 29  0  0  0  0  0  0  0  0999 V2000
   -1.4609   -1.6363    0.0000 N   0  0  0  0  0  0  0  0  0  0  0  0
   -0.6763   -1.8913    0.0000 C   0  0  0  0  0  0  0  0  0  0  0  0
   -2.2859   -1.6363    0.0000 C   0  0  0  0  0  0  0  0  0  0  0  0
   -0.1913   -1.2238    0.0000 C   0  0  0  0  0  0  0  0  0  0  0  0
   -1.4609   -0.8113    0.0000 C   0  0  0  0  0  0  0  0  0  0  0  0
   -2.2859   -0.8113    0.0000 C   0  0  0  0  0  0  0  0  0  0  0  0
   -0.6763   -0.5564    0.0000 C   0  0  0  0  0  0  0  0  0  0  0  0
    2.8513    2.4741    0.0000 S   0  0  0  0  0  0  0  0  0  0  0  0
   -0.4213   -2.6759    0.0000 C   0  0  0  0  0  0  0  0  0  0  0  0
    2.4063   -0.0345    0.0000 N   0  0  0  0  0  0  0  0  0  0  0  0
    0.6336   -1.2238    0.0000 S   0  0  0  0  0  0  0  0  0  0  0  0
    2.7222    1.6593    0.0000 N   0  0  0  0  0  0  0  0  0  0  0  0
   -2.8692   -2.2197    0.0000 O   0  0  0  0  0  0  0  0  0  0  0  0
    2.9803    3.2890    0.0000 N   0  0  0  0  0  0  0  0  0  0  0  0
    2.0364    2.6032    0.0000 O   0  0  0  0  0  0  0  0  0  0  0  0
   -2.8692   -0.2280    0.0000 C   0  0  0  0  0  0  0  0  0  0  0  0
    0.3856   -2.8474    0.0000 O   0  0  0  0  0  0  0  0  0  0  0  0
    1.2169   -0.6405    0.0000 C   0  0  0  0  0  0  0  0  0  0  0  0
    3.6661    2.3451    0.0000 O   0  0  0  0  0  0  0  0  0  0  0  0
    1.8229    0.5488    0.0000 C   0  0  0  0  0  0  0  0  0  0  0  0
   -0.9734   -3.2890    0.0000 O   0  0  0  0  0  0  0  0  0  0  0  0
    1.9520    1.3637    0.0000 C   0  0  0  0  0  0  0  0  0  0  0  0
    1.0879    0.1743    0.0000 C   0  0  0  0  0  0  0  0  0  0  0  0
    2.0318   -0.7695    0.0000 C   0  0  0  0  0  0  0  0  0  0  0  0
   -0.4213    0.2281    0.0000 C   0  0  0  0  0  0  0  0  0  0  0  0
   -3.6661   -0.4415    0.0000 C   0  0  0  0  0  0  0  0  0  0  0  0
   -2.6557    0.5688    0.0000 O   0  0  0  0  0  0  0  0  0  0  0  0
  2  1  1  0
  3  1  1  0
  4  2  2  0
  4  7  1  0
  5  1  1  1
  6  3  1  6
  6 16  1  0
  6  5  1  0
  7  5  1  0
  7 25  1  1
  8 12  1  0
  9  2  1  0
 10 24  1  0
 10 20  1  0
 11  4  1  0
 12 22  1  0
 13  3  2  0
 14  8  1  0
 15  8  2  0
 16 26  1  1
 16 27  1  0
 17  9  1  0
 18 11  1  1
 19  8  2  0
 20 23  1  0
 20 22  1  1
 21  9  2  0
 23 18  1  0
 24 18  1  0
M  END
>  <DRUGBANK_ID>  (1) 
DB06211

>  <COMMON_NAME>  (1) 
Doripenem

>  <CAS_NUMBER>  (1) 
148016-81-3

>  <UNII>  (1) 
BHV525JOBH

>  <SYNONYMS>  (1) 
Doripenem

$$$$
