MSQ
     RDKit          2D

 23 25  0  0  0  0  0  0  0  0999 V2000
   -1.0567   -0.7320    0.0000 N   0  0  0  0  0  0  0  0  0  0  0  0
   -1.0567   -1.5570    0.0000 C   0  0  0  0  0  0  0  0  0  0  0  0
   -0.3423   -1.9695    0.0000 N   0  0  0  0  0  0  0  0  0  0  0  0
    0.3722   -1.5570    0.0000 C   0  0  0  0  0  0  0  0  0  0  0  0
    0.3722   -0.7320    0.0000 C   0  0  0  0  0  0  0  0  0  0  0  0
   -0.3423   -0.3195    0.0000 C   0  0  0  0  0  0  0  0  0  0  0  0
    1.0867   -1.9695    0.0000 C   0  0  0  0  0  0  0  0  0  0  0  0
    1.8012   -1.5570    0.0000 C   0  0  0  0  0  0  0  0  0  0  0  0
    1.8012   -0.7320    0.0000 C   0  0  0  0  0  0  0  0  0  0  0  0
    1.0867   -0.3195    0.0000 C   0  0  0  0  0  0  0  0  0  0  0  0
   -0.3423    0.5055    0.0000 N   0  0  0  0  0  0  0  0  0  0  0  0
   -1.0567    0.9180    0.0000 C   0  0  0  0  0  0  0  0  0  0  0  0
   -1.7712    0.5055    0.0000 C   0  0  0  0  0  0  0  0  0  0  0  0
   -2.4857    0.9180    0.0000 C   0  0  0  0  0  0  0  0  0  0  0  0
   -2.4857    1.7430    0.0000 C   0  0  0  0  0  0  0  0  0  0  0  0
   -1.7712    2.1555    0.0000 C   0  0  0  0  0  0  0  0  0  0  0  0
   -1.0567    1.7430    0.0000 C   0  0  0  0  0  0  0  0  0  0  0  0
   -3.2001    0.5055    0.0000 S   0  0  0  0  0  0  0  0  0  0  0  0
   -3.9146    0.9180    0.0000 C   0  0  0  0  0  0  0  0  0  0  0  0
    2.5156   -1.9695    0.0000 O   0  0  0  0  0  0  0  0  0  0  0  0
    3.2301   -1.5570    0.0000 C   0  0  0  0  0  0  0  0  0  0  0  0
    2.5156   -0.3195    0.0000 O   0  0  0  0  0  0  0  0  0  0  0  0
    2.5156    0.5055    0.0000 C   0  0  0  0  0  0  0  0  0  0  0  0
  1  2  2  0
  1  6  1  0
  2  3  1  0
  3  4  2  0
  4  5  1  0
  4  7  1  0
  5  6  2  0
  5 10  1  0
  6 11  1  0
  7  8  2  0
  8  9  1  0
  8 20  1  0
  9 10  2  0
  9 22  1  0
 11 12  1  0
 12 13  2  0
 12 17  1  0
 13 14  1  0
 14 15  2  0
 14 18  1  0
 15 16  1  0
 16 17  2  0
 18 19  1  0
 20 21  1  0
 22 23  1  0
M  END
>  <DRUGBANK_ID>  (1) 
DB02984

>  <SECONDARY_ACCESSION_NUMBERS>  (1) 
EXPT02240

>  <COMMON_NAME>  (1) 
4-[3-Methylsulfanylanilino]-6,7-Dimethoxyquinazoline

$$$$
