E4H
     RDKit          2D

 21 21  0  0  0  0  0  0  0  0999 V2000
    0.3291   -0.0919    0.0000 C   0  0  0  0  0  0  0  0  0  0  0  0
    0.7416    0.6226    0.0000 C   0  0  0  0  0  0  0  0  0  0  0  0
    1.5666    0.6226    0.0000 C   0  0  0  0  0  0  0  0  0  0  0  0
    1.9791   -0.0919    0.0000 C   0  0  0  0  0  0  0  0  0  0  0  0
    2.8041   -0.0919    0.0000 C   0  0  0  0  0  0  0  0  0  0  0  0
    1.5666   -0.8063    0.0000 C   0  0  0  0  0  0  0  0  0  0  0  0
    1.9791   -1.5208    0.0000 O   0  0  0  0  0  0  0  0  0  0  0  0
    0.7416   -0.8063    0.0000 C   0  0  0  0  0  0  0  0  0  0  0  0
    0.3291   -1.5208    0.0000 C   0  0  0  0  0  0  0  0  0  0  0  0
   -0.4959   -1.5208    0.0000 C   0  0  0  0  0  0  0  0  0  0  0  0
   -0.9084   -2.2353    0.0000 C   0  0  0  0  0  0  0  0  0  0  0  0
   -0.9084   -0.8063    0.0000 C   0  0  0  0  0  0  0  0  0  0  0  0
   -1.7334   -0.8063    0.0000 C   0  0  0  0  0  0  0  0  0  0  0  0
   -2.1459   -0.0919    0.0000 C   0  0  0  0  0  0  0  0  0  0  0  0
   -0.4959   -0.0919    0.0000 O   0  0  0  0  0  0  0  0  0  0  0  0
   -0.9084    0.6226    0.0000 C   0  0  0  0  0  0  0  0  0  0  0  0
   -1.7334    0.6226    0.0000 O   0  0  0  0  0  0  0  0  0  0  0  0
   -0.4959    1.3371    0.0000 C   0  0  0  0  0  0  0  0  0  0  0  0
   -0.9084    2.0515    0.0000 C   0  0  0  0  0  0  0  0  0  0  0  0
    0.3291    1.3371    0.0000 C   0  0  0  0  0  0  0  0  0  0  0  0
    0.7416    2.0515    0.0000 O   0  0  0  0  0  0  0  0  0  0  0  0
  2  1  1  6
  2  3  1  0
  2 20  1  0
  3  4  1  0
  4  5  1  1
  4  6  1  0
  6  7  2  0
  6  8  1  0
  8  9  2  0
  9 10  1  0
 10 11  1  1
 10 12  1  0
 12 13  1  1
 12 15  1  0
 13 14  1  0
 15 16  1  0
 16 17  2  0
 16 18  1  0
 18 19  1  6
 18 20  1  0
 20 21  1  1
M  END
>  <DRUGBANK_ID>  (1) 
DB07703

>  <COMMON_NAME>  (1) 
(3R,4S,5S,7R,9E,11R,12R)-12-ETHYL-4-HYDROXY-3,5,7,11-TETRAMETHYLOXACYCLODODEC-9-ENE-2,8-DIONE

$$$$
