
     RDKit          2D

 23 25  0  0  0  0  0  0  0  0999 V2000
    2.4482   -4.7933    0.0000 C   0  0  0  0  0  0  0  0  0  0  0  0
    1.7337   -4.3808    0.0000 C   0  0  0  0  0  0  0  0  0  0  0  0
    1.7337   -3.5558    0.0000 N   0  0  0  0  0  0  0  0  0  0  0  0
    1.0193   -3.1433    0.0000 C   0  0  0  0  0  0  0  0  0  0  0  0
    0.3048   -3.5558    0.0000 O   0  0  0  0  0  0  0  0  0  0  0  0
    1.0193   -2.3183    0.0000 C   0  0  0  0  0  0  0  0  0  0  0  0
    0.4359   -1.7349    0.0000 C   0  0  0  0  0  0  0  0  0  0  0  0
    1.0193   -1.1515    0.0000 C   0  0  0  0  0  0  0  0  0  0  0  0
    1.6026   -1.7349    0.0000 C   0  0  0  0  0  0  0  0  0  0  0  0
    0.5882   -0.4481    0.0000 F   0  0  0  0  0  0  0  0  0  0  0  0
    1.4503   -0.4481    0.0000 C   0  0  0  0  0  0  0  0  0  0  0  0
    1.0567    0.2769    0.0000 C   0  0  0  0  0  0  0  0  0  0  0  0
    1.4877    0.9803    0.0000 C   0  0  0  0  0  0  0  0  0  0  0  0
    2.3125    0.9587    0.0000 C   0  0  0  0  0  0  0  0  0  0  0  0
    2.7061    0.2337    0.0000 C   0  0  0  0  0  0  0  0  0  0  0  0
    2.2751   -0.4697    0.0000 C   0  0  0  0  0  0  0  0  0  0  0  0
    2.7435    1.6622    0.0000 C   0  0  0  0  0  0  0  0  0  0  0  0
    3.5682    1.6406    0.0000 N   0  0  0  0  0  0  0  0  0  0  0  0
    4.0705    2.2951    0.0000 C   0  0  0  0  0  0  0  0  0  0  0  0
    4.8481    2.0197    0.0000 C   0  0  0  0  0  0  0  0  0  0  0  0
    4.8266    1.1950    0.0000 C   0  0  0  0  0  0  0  0  0  0  0  0
    4.0355    0.9607    0.0000 C   0  0  0  0  0  0  0  0  0  0  0  0
    1.0941    1.7054    0.0000 F   0  0  0  0  0  0  0  0  0  0  0  0
  1  2  1  0
  2  3  1  0
  3  4  1  0
  4  5  2  0
  6  4  1  1
  6  7  1  0
  6  9  1  0
  7  8  1  0
  8  9  1  0
  8 10  1  6
  8 11  1  0
 11 12  2  0
 11 16  1  0
 12 13  1  0
 13 14  2  0
 13 23  1  0
 14 15  1  0
 14 17  1  0
 15 16  2  0
 17 18  1  0
 18 19  1  0
 18 22  1  0
 19 20  1  0
 20 21  1  0
 21 22  1  0
M  END
>  <DRUGBANK_ID>  (1) 
DB12201

>  <COMMON_NAME>  (1) 
PF-03654746

>  <CAS_NUMBER>  (1) 
935840-31-6

>  <UNII>  (1) 
G3QE979K1X

$$$$
