
     RDKit          2D

 20 22  0  0  0  0  0  0  0  0999 V2000
   -1.7712    1.4826    0.0000 C   0  0  0  0  0  0  0  0  0  0  0  0
   -1.0299    1.8956    0.0000 C   0  0  0  0  0  0  0  0  0  0  0  0
   -0.3701    1.4826    0.0000 C   0  0  0  0  0  0  0  0  0  0  0  0
   -0.4527    0.6587    0.0000 C   0  0  0  0  0  0  0  0  0  0  0  0
   -1.1125    0.2478    0.0000 C   0  0  0  0  0  0  0  0  0  0  0  0
   -1.7712    0.6587    0.0000 C   0  0  0  0  0  0  0  0  0  0  0  0
   -2.5136    0.2478    0.0000 O   0  0  0  0  0  0  0  0  0  0  0  0
    0.3711    1.8956    0.0000 C   0  0  0  0  0  0  0  0  0  0  0  0
    1.1124    1.4010    0.0000 C   0  0  0  0  0  0  0  0  0  0  0  0
    1.1124    0.5760    0.0000 C   0  0  0  0  0  0  0  0  0  0  0  0
    0.4527    0.1652    0.0000 C   0  0  0  0  0  0  0  0  0  0  0  0
    0.3711   -0.6587    0.0000 C   0  0  0  0  0  0  0  0  0  0  0  0
   -0.2875   -1.0706    0.0000 O   0  0  0  0  0  0  0  0  0  0  0  0
    1.8548    1.8130    0.0000 N   0  0  0  0  0  0  0  0  0  0  0  0
    2.5136    1.4010    0.0000 C   0  0  0  0  0  0  0  0  0  0  0  0
    2.5136    0.5760    0.0000 C   0  0  0  0  0  0  0  0  0  0  0  0
    1.8548    0.1652    0.0000 C   0  0  0  0  0  0  0  0  0  0  0  0
    1.8548   -0.6587    0.0000 C   0  0  0  0  0  0  0  0  0  0  0  0
    1.1124   -1.0706    0.0000 C   0  0  0  0  0  0  0  0  0  0  0  0
    1.1124   -1.8956    0.0000 O   0  0  0  0  0  0  0  0  0  0  0  0
  1  2  2  0
  1  6  1  0
  2  3  1  0
  3  4  2  0
  3  8  1  0
  4  5  1  0
  5  6  2  0
  6  7  1  0
  8  9  1  0
  9 10  1  0
  9 14  1  0
 10 11  2  0
 10 17  1  0
 11 12  1  0
 12 13  1  0
 12 19  2  0
 14 15  1  0
 15 16  1  0
 16 17  1  0
 17 18  2  0
 18 19  1  0
 19 20  1  0
M  END
>  <DRUGBANK_ID>  (1) 
DB12779

>  <COMMON_NAME>  (1) 
Higenamine

>  <CAS_NUMBER>  (1) 
5843-65-2

>  <UNII>  (1) 
TBV5O16GAP

$$$$
