
     RDKit          2D

 12 13  0  0  0  0  0  0  0  0999 V2000
    3.3523    1.9354    0.0000 C   0  0  0  0  0  0  0  0  0  0  0  0
    3.3523    1.1104    0.0000 C   0  0  0  0  0  0  0  0  0  0  0  0
    2.6378    0.6979    0.0000 C   0  0  0  0  0  0  0  0  0  0  0  0
    1.9233    1.1104    0.0000 C   0  0  0  0  0  0  0  0  0  0  0  0
    1.9233    1.9354    0.0000 C   0  0  0  0  0  0  0  0  0  0  0  0
    2.6378    2.3479    0.0000 C   0  0  0  0  0  0  0  0  0  0  0  0
    1.1387    2.1904    0.0000 C   0  0  0  0  0  0  0  0  0  0  0  0
    0.6538    1.5229    0.0000 N   0  0  0  0  0  0  0  0  0  0  0  0
    1.1387    0.8555    0.0000 S   0  0  0  0  0  0  0  0  0  0  0  0
    0.5314    0.2971    0.0000 O   0  0  0  0  0  0  0  0  0  0  0  0
    1.3018    0.0468    0.0000 O   0  0  0  0  0  0  0  0  0  0  0  0
    0.8838    2.9750    0.0000 Cl  0  0  0  0  0  0  0  0  0  0  0  0
  1  2  2  0
  1  6  1  0
  2  3  1  0
  3  4  2  0
  4  5  1  0
  4  9  1  0
  5  6  2  0
  5  7  1  0
  7  8  2  0
  7 12  1  0
  8  9  1  0
  9 10  2  0
  9 11  2  0
M  END
>  <DRUGBANK_ID>  (1) 
DB14628

>  <SECONDARY_ACCESSION_NUMBERS>  (1) 
DBSALT002237

>  <COMMON_NAME>  (1) 
Pseudosaccharin chloride

>  <CAS_NUMBER>  (1) 
567-19-1

>  <UNII>  (1) 
1AYD6UVV3F

>  <SYNONYMS>  (1) 
3-Chloro-psi-saccharin; 3-Chlorobenzo(d)isothiazole 1,1-dioxide

$$$$
