
     RDKit          2D

 26 28  0  0  1  0  0  0  0  0999 V2000
    6.2398   -1.7185    0.0000 C   0  0  0  0  0  0  0  0  0  0  0  0
    5.6877   -2.3316    0.0000 C   0  0  0  0  0  0  0  0  0  0  0  0
    5.0203   -2.8165    0.0000 C   0  0  0  0  0  0  0  0  0  0  0  0
    4.2357   -2.5616    0.0000 O   0  0  0  0  0  0  0  0  0  0  0  0
    5.2752   -3.6012    0.0000 N   0  0  0  0  0  0  0  0  0  0  0  0
    6.1002   -3.6012    0.0000 C   0  0  0  0  0  0  0  0  0  0  0  0
    6.5852   -4.2686    0.0000 O   0  0  0  0  0  0  0  0  0  0  0  0
    6.3552   -2.8165    0.0000 N   0  0  0  0  0  0  0  0  0  0  0  0
    5.1357   -1.7185    0.0000 C   0  0  0  0  0  0  0  0  0  0  0  0
    5.3907   -0.9339    0.0000 S   0  0  0  0  0  0  0  0  0  0  0  0
    6.1753   -1.1888    0.0000 O   0  0  0  0  0  0  0  0  0  0  0  0
    4.6060   -0.6790    0.0000 O   0  0  0  0  0  0  0  0  0  0  0  0
    5.6456   -0.1493    0.0000 N   0  0  0  0  0  0  0  0  0  0  0  0
    5.0936    0.4638    0.0000 C   0  0  0  0  0  0  0  0  0  0  0  0
    5.3485    1.2484    0.0000 C   0  0  0  0  0  0  0  0  0  0  0  0
    6.1555    1.4200    0.0000 C   0  0  0  0  0  0  0  0  0  0  0  0
    6.7075    0.8069    0.0000 C   0  0  0  0  0  0  0  0  0  0  0  0
    6.4526    0.0222    0.0000 C   0  0  0  0  0  0  0  0  0  0  0  0
    6.4104    2.2046    0.0000 O   0  0  0  0  0  0  0  0  0  0  0  0
    7.2174    2.3761    0.0000 C   0  0  0  0  0  0  0  0  0  0  0  0
    7.4723    3.1607    0.0000 C   0  0  0  0  0  0  0  0  0  0  0  0
    8.2793    3.3323    0.0000 C   0  0  0  0  0  0  0  0  0  0  0  0
    8.8313    2.7192    0.0000 C   0  0  0  0  0  0  0  0  0  0  0  0
    8.5764    1.9345    0.0000 C   0  0  0  0  0  0  0  0  0  0  0  0
    7.7694    1.7630    0.0000 N   0  0  0  0  0  0  0  0  0  0  0  0
    9.6383    2.8907    0.0000 Cl  0  0  0  0  0  0  0  0  0  0  0  0
  2  1  1  6
  2  3  1  0
  2  8  1  0
  2  9  1  0
  3  4  2  0
  3  5  1  0
  5  6  1  0
  6  7  2  0
  6  8  1  0
  9 10  1  0
 10 11  2  0
 10 12  2  0
 10 13  1  0
 13 14  1  0
 13 18  1  0
 14 15  1  0
 15 16  1  0
 16 17  1  0
 16 19  1  0
 17 18  1  0
 19 20  1  0
 20 21  2  0
 20 25  1  0
 21 22  1  0
 22 23  2  0
 23 24  1  0
 23 26  1  0
 24 25  2  0
M  END
>  <DRUGBANK_ID>  (1) 
DB11961

>  <COMMON_NAME>  (1) 
AZD-1236

>  <CAS_NUMBER>  (1) 
459814-89-2

>  <UNII>  (1) 
B4OQY51WZS

$$$$
