3EA
     RDKit          2D

 34 37  0  0  0  0  0  0  0  0999 V2000
   -2.4684   -2.3713    0.0000 C   0  0  0  0  0  0  0  0  0  0  0  0
   -2.4684   -1.5463    0.0000 C   0  0  0  0  0  0  0  0  0  0  0  0
   -3.1829   -1.1338    0.0000 C   0  0  0  0  0  0  0  0  0  0  0  0
   -3.1829   -0.3088    0.0000 C   0  0  0  0  0  0  0  0  0  0  0  0
   -3.8974    0.1037    0.0000 C   0  0  0  0  0  0  0  0  0  0  0  0
   -4.6820   -0.1512    0.0000 O   0  0  0  0  0  0  0  0  0  0  0  0
   -5.1669    0.5162    0.0000 N   0  0  0  0  0  0  0  0  0  0  0  0
   -4.6820    1.1836    0.0000 C   0  0  0  0  0  0  0  0  0  0  0  0
   -4.9369    1.9683    0.0000 C   0  0  0  0  0  0  0  0  0  0  0  0
   -5.1919    2.7529    0.0000 F   0  0  0  0  0  0  0  0  0  0  0  0
   -5.7215    1.7133    0.0000 F   0  0  0  0  0  0  0  0  0  0  0  0
   -4.1523    2.2232    0.0000 F   0  0  0  0  0  0  0  0  0  0  0  0
   -3.8974    0.9287    0.0000 C   0  0  0  0  0  0  0  0  0  0  0  0
   -3.1829    1.3412    0.0000 C   0  0  0  0  0  0  0  0  0  0  0  0
   -2.4684    0.9287    0.0000 C   0  0  0  0  0  0  0  0  0  0  0  0
   -2.4684    0.1037    0.0000 C   0  0  0  0  0  0  0  0  0  0  0  0
   -1.7540   -0.3088    0.0000 O   0  0  0  0  0  0  0  0  0  0  0  0
   -1.0395    0.1037    0.0000 C   0  0  0  0  0  0  0  0  0  0  0  0
   -0.3250   -0.3088    0.0000 C   0  0  0  0  0  0  0  0  0  0  0  0
    0.3895    0.1037    0.0000 C   0  0  0  0  0  0  0  0  0  0  0  0
    1.1039   -0.3088    0.0000 O   0  0  0  0  0  0  0  0  0  0  0  0
    1.8184    0.1037    0.0000 C   0  0  0  0  0  0  0  0  0  0  0  0
    1.8184    0.9287    0.0000 C   0  0  0  0  0  0  0  0  0  0  0  0
    2.5329   -0.3088    0.0000 C   0  0  0  0  0  0  0  0  0  0  0  0
    3.2473    0.1037    0.0000 C   0  0  0  0  0  0  0  0  0  0  0  0
    3.2473    0.9287    0.0000 C   0  0  0  0  0  0  0  0  0  0  0  0
    2.5329    1.3412    0.0000 C   0  0  0  0  0  0  0  0  0  0  0  0
    2.7044    2.1482    0.0000 C   0  0  0  0  0  0  0  0  0  0  0  0
    3.5249    2.2344    0.0000 C   0  0  0  0  0  0  0  0  0  0  0  0
    3.8604    1.4807    0.0000 N   0  0  0  0  0  0  0  0  0  0  0  0
    4.6674    1.3092    0.0000 C   0  0  0  0  0  0  0  0  0  0  0  0
    4.9223    0.5246    0.0000 C   0  0  0  0  0  0  0  0  0  0  0  0
    5.7293    0.3530    0.0000 O   0  0  0  0  0  0  0  0  0  0  0  0
    4.3703   -0.0885    0.0000 O   0  0  0  0  0  0  0  0  0  0  0  0
  1  2  1  0
  2  3  1  0
  3  4  1  0
  4  5  2  0
  4 16  1  0
  5  6  1  0
  5 13  1  0
  6  7  1  0
  7  8  2  0
  8  9  1  0
  8 13  1  0
  9 10  1  0
  9 11  1  0
  9 12  1  0
 13 14  2  0
 14 15  1  0
 15 16  2  0
 16 17  1  0
 17 18  1  0
 18 19  1  0
 19 20  1  0
 20 21  1  0
 21 22  1  0
 22 23  2  0
 22 24  1  0
 23 27  1  0
 24 25  2  0
 25 26  1  0
 26 27  2  0
 26 30  1  0
 27 28  1  0
 28 29  2  0
 29 30  1  0
 30 31  1  0
 31 32  1  0
 32 33  1  0
 32 34  2  0
M  END
>  <DRUGBANK_ID>  (1) 
DB07053

>  <COMMON_NAME>  (1) 
2-{5-[3-(7-PROPYL-3-TRIFLUOROMETHYLBENZO[D]ISOXAZOL-6-YLOXY)PROPOXY]INDOL-1-YL}ETHANOIC ACID

$$$$
