
     RDKit          2D

 12 12  0  0  0  0  0  0  0  0999 V2000
    0.3572   -0.4125    0.0000 C   0  0  0  0  0  0  0  0  0  0  0  0
   -0.3572   -0.8251    0.0000 C   0  0  0  0  0  0  0  0  0  0  0  0
   -1.0717   -0.4125    0.0000 C   0  0  0  0  0  0  0  0  0  0  0  0
   -1.0717    0.4125    0.0000 C   0  0  0  0  0  0  0  0  0  0  0  0
   -0.3572    0.8251    0.0000 C   0  0  0  0  0  0  0  0  0  0  0  0
   -0.3572    1.6501    0.0000 C   0  0  0  0  0  0  0  0  0  0  0  0
    1.0718   -0.8251    0.0000 O   0  0  0  0  0  0  0  0  0  0  0  0
   -0.3572   -1.6501    0.0000 O   0  0  0  0  0  0  0  0  0  0  0  0
   -1.7862   -0.8251    0.0000 O   0  0  0  0  0  0  0  0  0  0  0  0
   -1.7862    0.8251    0.0000 O   0  0  0  0  0  0  0  0  0  0  0  0
    0.3572    0.4125    0.0000 O   0  0  0  0  0  0  0  0  0  0  0  0
    1.7862   -0.4125    0.0000 C   0  0  0  0  0  0  0  0  0  0  0  0
  1  2  1  0
  1  7  1  1
  1 11  1  0
  2  3  1  0
  2  8  1  1
  3  4  1  0
  3  9  1  6
  4  5  1  0
  4 10  1  6
  5  6  1  6
  5 11  1  0
 12  7  1  0
M  END
>  <DRUGBANK_ID>  (1) 
DB03879

>  <SECONDARY_ACCESSION_NUMBERS>  (1) 
EXPT02163; EXPT02160; DB04091

>  <COMMON_NAME>  (1) 
alpha-L-methyl-fucose

>  <CAS_NUMBER>  (1) 
14687-15-1

>  <UNII>  (1) 
EZI2C7VVU0

>  <SYNONYMS>  (1) 
alpha-L-1-Methyl-fucose; Methyl alpha-L-fucopyranoside; Î±-L-Methyl-Fucose

$$$$
