3IL
     RDKit          2D

 15 16  0  0  0  0  0  0  0  0999 V2000
   -0.2404   -1.4754    0.0000 N   0  0  0  0  0  0  0  0  0  0  0  0
   -0.7254   -0.8079    0.0000 C   0  0  0  0  0  0  0  0  0  0  0  0
   -0.2404   -0.1405    0.0000 C   0  0  0  0  0  0  0  0  0  0  0  0
    1.2587    0.0171    0.0000 C   0  0  0  0  0  0  0  0  0  0  0  0
    1.9731   -0.3954    0.0000 C   0  0  0  0  0  0  0  0  0  0  0  0
    1.9731   -1.2204    0.0000 C   0  0  0  0  0  0  0  0  0  0  0  0
    1.2587   -1.6329    0.0000 C   0  0  0  0  0  0  0  0  0  0  0  0
    0.5442   -1.2204    0.0000 C   0  0  0  0  0  0  0  0  0  0  0  0
    0.5442   -0.3954    0.0000 C   0  0  0  0  0  0  0  0  0  0  0  0
   -1.5573    1.6003    0.0000 C   0  0  0  0  0  0  0  0  0  0  0  0
   -2.3642    1.7718    0.0000 O   0  0  0  0  0  0  0  0  0  0  0  0
   -1.0052    2.2134    0.0000 O   0  0  0  0  0  0  0  0  0  0  0  0
   -1.3023    0.8157    0.0000 C   0  0  0  0  0  0  0  0  0  0  0  0
   -1.8544    0.2026    0.0000 O   0  0  0  0  0  0  0  0  0  0  0  0
   -0.4954    0.6441    0.0000 C   0  0  0  0  0  0  0  0  0  0  0  0
  1  2  1  0
  1  8  1  0
  2  3  2  0
  3  9  1  0
  3 15  1  0
  4  5  1  0
  4  9  2  0
  5  6  2  0
  6  7  1  0
  7  8  2  0
  8  9  1  0
 10 11  1  0
 10 12  2  0
 10 13  1  0
 13 14  1  6
 13 15  1  0
M  END
>  <DRUGBANK_ID>  (1) 
DB07060

>  <COMMON_NAME>  (1) 
3-(INDOL-3-YL) LACTATE

>  <UNII>  (1) 
DJ9KH2U67F

$$$$
