F1J
     RDKit          2D

 20 21  0  0  0  0  0  0  0  0999 V2000
    1.4462    0.6337    0.0000 C   0  0  0  0  0  0  0  0  0  0  0  0
   -3.5551    0.2212    0.0000 C   0  0  0  0  0  0  0  0  0  0  0  0
   -2.8406    0.6337    0.0000 C   0  0  0  0  0  0  0  0  0  0  0  0
   -3.5551   -0.6038    0.0000 C   0  0  0  0  0  0  0  0  0  0  0  0
   -2.8406   -1.0163    0.0000 C   0  0  0  0  0  0  0  0  0  0  0  0
   -2.1261   -0.6038    0.0000 C   0  0  0  0  0  0  0  0  0  0  0  0
   -2.1261    0.2212    0.0000 C   0  0  0  0  0  0  0  0  0  0  0  0
   -1.4117    0.6337    0.0000 C   0  0  0  0  0  0  0  0  0  0  0  0
    0.0173    0.6337    0.0000 C   0  0  0  0  0  0  0  0  0  0  0  0
    0.7317    0.2212    0.0000 C   0  0  0  0  0  0  0  0  0  0  0  0
   -0.6972   -0.6038    0.0000 C   0  0  0  0  0  0  0  0  0  0  0  0
    0.0173   -1.0163    0.0000 C   0  0  0  0  0  0  0  0  0  0  0  0
    1.4462    1.4587    0.0000 O   0  0  0  0  0  0  0  0  0  0  0  0
    2.1607    0.2212    0.0000 N   0  0  0  0  0  0  0  0  0  0  0  0
    2.8752    0.6337    0.0000 C   0  0  0  0  0  0  0  0  0  0  0  0
    3.5896    0.2212    0.0000 C   0  0  0  0  0  0  0  0  0  0  0  0
    4.3041    0.6337    0.0000 S   0  0  0  0  0  0  0  0  0  0  0  0
    0.7317   -0.6038    0.0000 N   0  0  0  0  0  0  0  0  0  0  0  0
   -0.6972    0.2212    0.0000 N   0  0  0  0  0  0  0  0  0  0  0  0
   -4.2695   -1.0163    0.0000 F   0  0  0  0  0  0  0  0  0  0  0  0
  1 13  2  0
  1 14  1  0
  2  3  2  0
  2  4  1  0
  3  7  1  0
  4  5  2  0
  4 20  1  0
  5  6  1  0
  6  7  2  0
  7  8  1  0
  8 19  1  0
  9 10  1  0
  9 19  1  0
 10  1  1  1
 10 18  1  0
 11 12  1  0
 11 19  1  0
 12 18  1  0
 14 15  1  0
 15 16  1  0
 16 17  1  0
M  END
>  <DRUGBANK_ID>  (1) 
DB07736

>  <COMMON_NAME>  (1) 
(2S)-4-(4-fluorobenzyl)-N-(2-sulfanylethyl)piperazine-2-carboxamide

$$$$
