
     RDKit          2D

  6  6  0  0  0  0  0  0  0  0999 V2000
    0.0409   -0.8258    0.0000 C   0  0  0  0  0  0  0  0  0  0  0  0
    0.7022   -0.4125    0.0000 C   0  0  0  0  0  0  0  0  0  0  0  0
    0.7022    0.4125    0.0000 O   0  0  0  0  0  0  0  0  0  0  0  0
    0.0409    0.8258    0.0000 C   0  0  0  0  0  0  0  0  0  0  0  0
   -0.7022    0.4125    0.0000 C   0  0  0  0  0  0  0  0  0  0  0  0
   -0.7022   -0.4125    0.0000 N   0  0  0  0  0  0  0  0  0  0  0  0
  1  2  1  0
  1  6  1  0
  2  3  1  0
  3  4  1  0
  4  5  1  0
  5  6  1  0
M  END
>  <DRUGBANK_ID>  (1) 
DB13669

>  <COMMON_NAME>  (1) 
Morpholine

>  <CAS_NUMBER>  (1) 
110-91-8

>  <UNII>  (1) 
8B2ZCK305O

$$$$
