
     RDKit          2D

 12 13  0  0  1  0  0  0  0  0999 V2000
    1.1908    0.4125    0.0000 C   0  0  0  0  0  0  0  0  0  0  0  0
    0.0638    2.3645    0.0000 C   0  0  0  0  0  0  0  0  0  0  0  0
    1.9053    0.8250    0.0000 C   0  0  0  0  0  0  0  0  0  0  0  0
    0.4763    0.8250    0.0000 C   0  0  0  0  0  0  0  0  0  0  0  0
    1.9053    1.6500    0.0000 C   0  0  0  0  0  0  0  0  0  0  0  0
    1.1908    2.0625    0.0000 C   0  0  0  0  0  0  0  0  0  0  0  0
    0.4763    1.6500    0.0000 C   0  0  0  0  0  0  0  0  0  0  0  0
   -0.7612    2.3645    0.0000 O   0  0  0  0  0  0  0  0  0  0  0  0
    2.6197    0.4125    0.0000 O   0  0  0  0  0  0  0  0  0  0  0  0
    2.6197    2.0625    0.0000 O   0  0  0  0  0  0  0  0  0  0  0  0
    1.1908    2.8875    0.0000 O   0  0  0  0  0  0  0  0  0  0  0  0
   -0.2382    1.2375    0.0000 O   0  0  0  0  0  0  0  0  0  0  0  0
  3  1  1  0
  3  9  1  1
  4  1  1  1
  5  3  1  0
  5 10  1  6
  6  5  1  0
  6 11  1  1
  7  2  1  6
  7  4  1  0
  7  6  1  0
  8  2  1  0
 12  4  1  0
 12  7  1  0
M  END
>  <DRUGBANK_ID>  (1) 
DB02394

>  <SECONDARY_ACCESSION_NUMBERS>  (1) 
EXPT02443

>  <COMMON_NAME>  (1) 
Oxiranpseudoglucose

$$$$
