
     RDKit          2D

 40 42  0  0  1  0  0  0  0  0999 V2000
   -3.1109    2.0943    0.0000 C   0  0  0  0  0  0  0  0  0  0  0  0
   -3.9359    2.0943    0.0000 C   0  0  0  0  0  0  0  0  0  0  0  0
   -3.1109    3.5234    0.0000 O   0  0  0  0  0  0  0  0  0  0  0  0
   -2.6984    2.8089    0.0000 C   0  0  0  0  0  0  0  0  0  0  0  0
   -4.3484    2.8089    0.0000 C   0  0  0  0  0  0  0  0  0  0  0  0
   -3.9359    3.5234    0.0000 C   0  0  0  0  0  0  0  0  0  0  0  0
   -0.9759    4.7459    0.0000 C   0  0  0  0  0  0  0  0  0  0  0  0
   -0.9759    5.5709    0.0000 C   0  0  0  0  0  0  0  0  0  0  0  0
   -0.3084    4.2610    0.0000 O   0  0  0  0  0  0  0  0  0  0  0  0
   -0.5634    3.4763    0.0000 C   0  0  0  0  0  0  0  0  0  0  0  0
   -1.3884    3.4763    0.0000 C   0  0  0  0  0  0  0  0  0  0  0  0
   -0.0785    2.8089    0.0000 O   0  0  0  0  0  0  0  0  0  0  0  0
    1.9839    2.0944    0.0000 C   0  0  0  0  0  0  0  0  0  0  0  0
    2.3964    1.3800    0.0000 O   0  0  0  0  0  0  0  0  0  0  0  0
    0.7464    2.8089    0.0000 C   0  0  0  0  0  0  0  0  0  0  0  0
    1.9839    3.5234    0.0000 C   0  0  0  0  0  0  0  0  0  0  0  0
    2.3964    4.2378    0.0000 O   0  0  0  0  0  0  0  0  0  0  0  0
    1.1589    3.5234    0.0000 C   0  0  0  0  0  0  0  0  0  0  0  0
    2.3964    2.8089    0.0000 C   0  0  0  0  0  0  0  0  0  0  0  0
    1.1589    2.0944    0.0000 C   0  0  0  0  0  0  0  0  0  0  0  0
    0.7464    1.3799    0.0000 O   0  0  0  0  0  0  0  0  0  0  0  0
    0.7464    4.2378    0.0000 N   0  0  0  0  0  0  0  0  0  0  0  0
    0.7463    5.6667    0.0000 N   0  0  0  0  0  0  0  0  0  0  0  0
    1.1589    4.9523    0.0000 C   0  0  0  0  0  0  0  0  0  0  0  0
    1.9839    4.9523    0.0000 N   0  0  0  0  0  0  0  0  0  0  0  0
   -1.8734    2.8089    0.0000 O   0  0  0  0  0  0  0  0  0  0  0  0
   -5.1734    2.8088    0.0000 O   0  0  0  0  0  0  0  0  0  0  0  0
   -4.3484    1.3799    0.0000 O   0  0  0  0  0  0  0  0  0  0  0  0
   -4.3484    4.2378    0.0000 C   0  0  0  0  0  0  0  0  0  0  0  0
   -3.9359    4.9523    0.0000 O   0  0  0  0  0  0  0  0  0  0  0  0
   -3.1109    0.6654    0.0000 C   0  0  0  0  0  0  0  0  0  0  0  0
   -2.6984    1.3799    0.0000 N   0  0  0  0  0  0  0  0  0  0  0  0
    3.2213    2.8089    0.0000 N   0  0  0  0  0  0  0  0  0  0  0  0
    3.2213    1.3800    0.0000 N   0  0  0  0  0  0  0  0  0  0  0  0
    3.6339    2.0944    0.0000 C   0  0  0  0  0  0  0  0  0  0  0  0
    4.4589    2.0944    0.0000 N   0  0  0  0  0  0  0  0  0  0  0  0
   -2.3579    4.6735    0.0000 C   0  0  0  0  0  0  0  0  0  0  0  0
   -2.3579    5.4985    0.0000 O   0  0  0  0  0  0  0  0  0  0  0  0
   -1.6434    4.2610    0.0000 C   0  0  0  0  0  0  0  0  0  0  0  0
   -2.4402    4.0474    0.0000 O   0  0  0  0  0  0  0  0  0  0  0  0
  1 32  1  1
  1  4  1  0
  2  1  1  0
  2 28  1  6
  3  4  1  0
  3  6  1  0
  4 26  1  1
  5  2  1  0
  5 27  1  1
  6  5  1  0
  6 29  1  6
  7 39  1  0
  7  8  1  6
  9  7  1  0
  9 10  1  0
 10 12  1  1
 11 10  1  0
 11 26  1  6
 13 14  1  6
 15 12  1  6
 15 20  1  0
 16 18  1  0
 16 17  1  6
 18 15  1  0
 18 22  1  1
 19 13  1  0
 19 16  1  0
 19 33  1  1
 20 13  1  0
 20 21  1  1
 22 24  1  0
 24 23  1  0
 24 25  2  0
 29 30  1  0
 32 31  1  0
 34 35  1  0
 35 33  1  0
 35 36  2  0
 37 38  2  0
 39 11  1  0
 39 37  1  0
 39 40  1  6
M  END
>  <DRUGBANK_ID>  (1) 
DB01082

>  <SECONDARY_ACCESSION_NUMBERS>  (1) 
APRD00412

>  <COMMON_NAME>  (1) 
Streptomycin

>  <CAS_NUMBER>  (1) 
57-92-1

>  <UNII>  (1) 
Y45QSO73OB

>  <SYNONYMS>  (1) 
2,4-diguanidino-3,5,6-trihydroxycyclohexyl 5-deoxy-2-O-(2-deoxy-2-methylamino-alpha-L-glucopyranosyl)-3-C-formyl-beta-L-lyxopentanofuranoside; Estreptomicina; Streptomicina; Streptomycin; Streptomyzin

$$$$
