IAA
     RDKit          2D

 25 28  0  0  0  0  0  0  0  0999 V2000
    0.8057   -3.1512    0.0000 O   0  0  0  0  0  0  0  0  0  0  0  0
    1.0607   -2.3666    0.0000 C   0  0  0  0  0  0  0  0  0  0  0  0
    1.8676   -2.1951    0.0000 O   0  0  0  0  0  0  0  0  0  0  0  0
    0.5086   -1.7535    0.0000 C   0  0  0  0  0  0  0  0  0  0  0  0
    0.7636   -0.9689    0.0000 O   0  0  0  0  0  0  0  0  0  0  0  0
    0.2115   -0.3558    0.0000 N   0  0  0  0  0  0  0  0  0  0  0  0
    0.4665    0.4288    0.0000 C   0  0  0  0  0  0  0  0  0  0  0  0
   -0.0184    1.0962    0.0000 C   0  0  0  0  0  0  0  0  0  0  0  0
   -0.8434    1.0962    0.0000 C   0  0  0  0  0  0  0  0  0  0  0  0
   -1.3284    1.7637    0.0000 C   0  0  0  0  0  0  0  0  0  0  0  0
   -1.0734    2.5483    0.0000 O   0  0  0  0  0  0  0  0  0  0  0  0
   -2.1130    1.5087    0.0000 N   0  0  0  0  0  0  0  0  0  0  0  0
   -2.1130    0.6837    0.0000 C   0  0  0  0  0  0  0  0  0  0  0  0
   -2.7261    0.1317    0.0000 C   0  0  0  0  0  0  0  0  0  0  0  0
   -2.5546   -0.6753    0.0000 C   0  0  0  0  0  0  0  0  0  0  0  0
   -1.7699   -0.9302    0.0000 C   0  0  0  0  0  0  0  0  0  0  0  0
   -1.1568   -0.3782    0.0000 C   0  0  0  0  0  0  0  0  0  0  0  0
   -1.3284    0.4288    0.0000 C   0  0  0  0  0  0  0  0  0  0  0  0
    0.4665    1.7637    0.0000 N   0  0  0  0  0  0  0  0  0  0  0  0
    1.2511    1.5087    0.0000 C   0  0  0  0  0  0  0  0  0  0  0  0
    1.9656    1.9212    0.0000 C   0  0  0  0  0  0  0  0  0  0  0  0
    2.6800    1.5087    0.0000 C   0  0  0  0  0  0  0  0  0  0  0  0
    2.6800    0.6837    0.0000 C   0  0  0  0  0  0  0  0  0  0  0  0
    1.9656    0.2712    0.0000 C   0  0  0  0  0  0  0  0  0  0  0  0
    1.2511    0.6837    0.0000 C   0  0  0  0  0  0  0  0  0  0  0  0
  1  2  1  0
  2  3  2  0
  2  4  1  0
  4  5  1  0
  5  6  1  0
  6  7  2  0
  7  8  1  0
  7 25  1  0
  8  9  2  0
  8 19  1  0
  9 10  1  0
  9 18  1  0
 10 11  2  0
 10 12  1  0
 12 13  2  0
 13 14  1  0
 13 18  1  0
 14 15  1  0
 15 16  2  0
 16 17  1  0
 17 18  2  0
 19 20  2  0
 20 21  1  0
 20 25  1  0
 21 22  1  0
 22 23  2  0
 23 24  1  0
 24 25  2  0
M  END
>  <DRUGBANK_ID>  (1) 
DB07949

>  <COMMON_NAME>  (1) 
({[(3E)-2'-Oxo-2',7'-dihydro-2,3'-biindol-3(7H)-ylidene]amino}oxy)acetic acid

$$$$
