
     RDKit          2D

 24 27  0  0  0  0  0  0  0  0999 V2000
    0.6794   -1.5712    0.0000 C   0  0  0  0  0  0  0  0  0  0  0  0
   -0.0351   -1.9836    0.0000 C   0  0  0  0  0  0  0  0  0  0  0  0
   -0.7495   -1.5712    0.0000 C   0  0  0  0  0  0  0  0  0  0  0  0
   -1.4640   -1.9836    0.0000 C   0  0  0  0  0  0  0  0  0  0  0  0
   -2.1785   -0.7462    0.0000 C   0  0  0  0  0  0  0  0  0  0  0  0
   -1.4640   -0.3337    0.0000 C   0  0  0  0  0  0  0  0  0  0  0  0
   -0.7495   -0.7462    0.0000 C   0  0  0  0  0  0  0  0  0  0  0  0
    0.6794    0.9037    0.0000 C   0  0  0  0  0  0  0  0  0  0  0  0
    2.6634    0.0787    0.0000 C   0  0  0  0  0  0  0  0  0  0  0  0
    2.1785   -0.5886    0.0000 C   0  0  0  0  0  0  0  0  0  0  0  0
   -0.0351   -0.3337    0.0000 C   0  0  0  0  0  0  0  0  0  0  0  0
    1.3938   -0.3337    0.0000 C   0  0  0  0  0  0  0  0  0  0  0  0
    0.6794   -0.7462    0.0000 C   0  0  0  0  0  0  0  0  0  0  0  0
    1.3938    0.4912    0.0000 C   0  0  0  0  0  0  0  0  0  0  0  0
    2.1785    0.7462    0.0000 C   0  0  0  0  0  0  0  0  0  0  0  0
   -2.1785   -1.5712    0.0000 C   0  0  0  0  0  0  0  0  0  0  0  0
   -2.8930   -1.9837    0.0000 O   0  0  0  0  0  0  0  0  0  0  0  0
   -0.0351    0.4912    0.0000 C   0  0  0  0  0  0  0  0  0  0  0  0
    2.1785    1.5712    0.0000 C   0  0  0  0  0  0  0  0  0  0  0  0
    1.4640    1.9837    0.0000 O   0  0  0  0  0  0  0  0  0  0  0  0
    2.8930    1.1587    0.0000 O   0  0  0  0  0  0  0  0  0  0  0  0
   -0.7495    0.0787    0.0000 C   0  0  0  0  0  0  0  0  0  0  0  0
    1.3938    1.3162    0.0000 C   0  0  0  0  0  0  0  0  0  0  0  0
    2.8930    1.9837    0.0000 C   0  0  0  0  0  0  0  0  0  0  0  0
  1  2  1  0
  2  3  1  0
  3  4  2  0
  3  7  1  0
  4 16  1  0
  5  6  1  0
  6  7  1  0
  7 11  1  0
  7 22  1  1
  8 14  1  0
  9 10  1  0
 12 10  1  1
 11 18  1  1
 13  1  1  6
 13 11  1  0
 13 12  1  0
 14 15  1  0
 14 12  1  0
 14 23  1  1
 15  9  1  0
 15 21  1  6
 15 19  1  0
 16  5  1  0
 16 17  2  0
 18  8  1  0
 19 20  2  0
 19 24  1  0
M  END
>  <DRUGBANK_ID>  (1) 
DB14570

>  <COMMON_NAME>  (1) 
Hydroxyprogesterone

>  <CAS_NUMBER>  (1) 
68-96-2

>  <UNII>  (1) 
21807M87J2

>  <SYNONYMS>  (1) 
17-Hydroxypregn-4-en-3,20-dione; 17-hydroxyprogesterone; 17alpha-hydroxyprogesterone; 17Î±-hydroxyprogesterone; delta(4)-Pregnene-17alpha-ol-3,20-dione; Hidroxiprogesterona; Hydroxyprogesterone; Hydroxyprogesteronum; Pregn-4-ene-3,20-dione-17-ol

$$$$
