
     RDKit          2D

 31 36  0  0  0  0  0  0  0  0999 V2000
    0.6348   -0.8250    0.0000 C   0  0  0  0  0  0  0  0  0  0  0  0
   -0.0796   -0.4125    0.0000 C   0  0  0  0  0  0  0  0  0  0  0  0
    0.6348   -1.6500    0.0000 N   0  0  0  0  0  0  0  0  0  0  0  0
   -0.7942   -0.8250    0.0000 N   0  0  0  0  0  0  0  0  0  0  0  0
   -0.7942   -1.6500    0.0000 C   0  0  0  0  0  0  0  0  0  0  0  0
   -0.0796   -2.0625    0.0000 C   0  0  0  0  0  0  0  0  0  0  0  0
    1.4194   -0.5701    0.0000 N   0  0  0  0  0  0  0  0  0  0  0  0
    1.9043   -1.2374    0.0000 C   0  0  0  0  0  0  0  0  0  0  0  0
    1.4194   -1.9049    0.0000 C   0  0  0  0  0  0  0  0  0  0  0  0
   -0.0796    0.4125    0.0000 N   0  0  0  0  0  0  0  0  0  0  0  0
    0.6348    0.8250    0.0000 C   0  0  0  0  0  0  0  0  0  0  0  0
    0.6348    1.6500    0.0000 C   0  0  0  0  0  0  0  0  0  0  0  0
    1.3492    2.0625    0.0000 C   0  0  0  0  0  0  0  0  0  0  0  0
    2.0637    1.6500    0.0000 C   0  0  0  0  0  0  0  0  0  0  0  0
    2.0637    0.8250    0.0000 C   0  0  0  0  0  0  0  0  0  0  0  0
    1.3492    0.4125    0.0000 C   0  0  0  0  0  0  0  0  0  0  0  0
    2.7782    2.0625    0.0000 N   0  0  0  0  0  0  0  0  0  0  0  0
    2.7782    2.8875    0.0000 C   0  0  0  0  0  0  0  0  0  0  0  0
    3.4927    3.3000    0.0000 C   0  0  0  0  0  0  0  0  0  0  0  0
    4.2070    2.8875    0.0000 O   0  0  0  0  0  0  0  0  0  0  0  0
    4.2070    2.0625    0.0000 C   0  0  0  0  0  0  0  0  0  0  0  0
    3.4927    1.6500    0.0000 C   0  0  0  0  0  0  0  0  0  0  0  0
   -3.7222   -1.8076    0.0000 N   0  0  0  0  0  0  0  0  0  0  0  0
   -4.2070   -2.4749    0.0000 N   0  0  0  0  0  0  0  0  0  0  0  0
   -3.7222   -3.1424    0.0000 C   0  0  0  0  0  0  0  0  0  0  0  0
   -2.9376   -2.8875    0.0000 C   0  0  0  0  0  0  0  0  0  0  0  0
   -2.2231   -3.3000    0.0000 C   0  0  0  0  0  0  0  0  0  0  0  0
   -1.5086   -2.8875    0.0000 C   0  0  0  0  0  0  0  0  0  0  0  0
   -1.5086   -2.0625    0.0000 C   0  0  0  0  0  0  0  0  0  0  0  0
   -2.2231   -1.6500    0.0000 C   0  0  0  0  0  0  0  0  0  0  0  0
   -2.9376   -2.0625    0.0000 C   0  0  0  0  0  0  0  0  0  0  0  0
  1  2  1  0
  1  3  1  0
  2  4  2  0
  2 10  1  0
  3  6  1  0
  4  5  1  0
  5  6  2  0
  5 29  1  0
  7  8  1  0
  7  1  2  0
  8  9  2  0
  9  3  1  0
 10 11  1  0
 11 12  2  0
 11 16  1  0
 12 13  1  0
 13 14  2  0
 14 15  1  0
 14 17  1  0
 15 16  2  0
 17 18  1  0
 17 22  1  0
 18 19  1  0
 19 20  1  0
 20 21  1  0
 21 22  1  0
 23 24  1  0
 23 31  1  0
 24 25  2  0
 25 26  1  0
 26 27  1  0
 26 31  2  0
 27 28  2  0
 28 29  1  0
 29 30  2  0
 30 31  1  0
M  END
>  <DRUGBANK_ID>  (1) 
DB12121

>  <COMMON_NAME>  (1) 
Entospletinib

>  <CAS_NUMBER>  (1) 
1229208-44-9

>  <UNII>  (1) 
6I3O3W6O3B

>  <SYNONYMS>  (1) 
Entospletinib

$$$$
