
     RDKit          2D

 13 13  0  0  0  0  0  0  0  0999 V2000
   -2.1659    0.4216    0.0000 C   0  0  0  0  0  0  0  0  0  0  0  0
   -2.8749    0.0000    0.0000 C   0  0  0  0  0  0  0  0  0  0  0  0
   -1.4566    0.0000    0.0000 N   0  0  0  0  0  0  0  0  0  0  0  0
   -2.1659    1.2458    0.0000 N   0  0  0  0  0  0  0  0  0  0  0  0
   -0.7282    0.4216    0.0000 C   0  0  0  0  0  0  0  0  0  0  0  0
    0.0000    0.0000    0.0000 C   0  0  0  0  0  0  0  0  0  0  0  0
    0.7091    0.4216    0.0000 C   0  0  0  0  0  0  0  0  0  0  0  0
    0.0000   -0.8241    0.0000 C   0  0  0  0  0  0  0  0  0  0  0  0
    1.4375    0.0000    0.0000 C   0  0  0  0  0  0  0  0  0  0  0  0
    0.7091   -1.2458    0.0000 C   0  0  0  0  0  0  0  0  0  0  0  0
    1.4375   -0.8241    0.0000 C   0  0  0  0  0  0  0  0  0  0  0  0
    2.1466    0.4216    0.0000 C   0  0  0  0  0  0  0  0  0  0  0  0
    2.8749    0.0000    0.0000 N   0  0  0  0  0  0  0  0  0  0  0  0
  2  1  1  0
  3  1  1  0
  4  1  2  0
  5  3  1  0
  6  5  1  0
  7  6  2  0
  8  6  1  0
  9  7  1  0
 10  8  2  0
 11  9  2  0
 11 10  1  0
 12  9  1  0
 13 12  1  0
M  END
>  <DRUGBANK_ID>  (1) 
DB02044

>  <SECONDARY_ACCESSION_NUMBERS>  (1) 
EXPT00036

>  <COMMON_NAME>  (1) 
N-[3-(aminomethyl)benzyl]acetamidine

>  <UNII>  (1) 
M1VB8VP8OH

$$$$
