
     RDKit          2D

  8  8  0  0  0  0  0  0  0  0999 V2000
    0.0000    0.8251    0.0000 C   0  0  0  0  0  0  0  0  0  0  0  0
   -0.7145    0.4125    0.0000 C   0  0  0  0  0  0  0  0  0  0  0  0
   -0.7145   -0.4125    0.0000 C   0  0  0  0  0  0  0  0  0  0  0  0
    0.0000   -0.8251    0.0000 C   0  0  0  0  0  0  0  0  0  0  0  0
    0.7145   -0.4125    0.0000 C   0  0  0  0  0  0  0  0  0  0  0  0
    0.7145    0.4125    0.0000 C   0  0  0  0  0  0  0  0  0  0  0  0
    0.0000    1.6501    0.0000 N   0  0  0  0  0  0  0  0  0  0  0  0
    0.0000   -1.6501    0.0000 N   0  0  0  0  0  0  0  0  0  0  0  0
  1  2  2  0
  1  6  1  0
  1  7  1  0
  2  3  1  0
  3  4  2  0
  4  5  1  0
  4  8  1  0
  5  6  2  0
M  END
>  <DRUGBANK_ID>  (1) 
DB14141

>  <COMMON_NAME>  (1) 
p-Phenylenediamine

>  <CAS_NUMBER>  (1) 
106-50-3

>  <UNII>  (1) 
U770QIT64J

>  <SYNONYMS>  (1) 
1,4-Benzenediamine; 1,4-diaminobenzene; 1,4-phenylenediamine; 4-Aminoaniline; 4-phenylenediamine; p-Diaminobenzene; para-phenylenediamine; paraphenylene-diamine; PPD; pPDA

$$$$
