
     RDKit          2D

 26 28  0  0  0  0  0  0  0  0999 V2000
   -2.1434   -1.2375    0.0000 C   0  0  0  0  0  0  0  0  0  0  0  0
   -1.4289   -1.6500    0.0000 C   0  0  0  0  0  0  0  0  0  0  0  0
   -1.4289   -2.4750    0.0000 C   0  0  0  0  0  0  0  0  0  0  0  0
   -0.7145   -1.2375    0.0000 C   0  0  0  0  0  0  0  0  0  0  0  0
    0.0000   -1.6500    0.0000 C   0  0  0  0  0  0  0  0  0  0  0  0
    0.7145   -1.2375    0.0000 C   0  0  0  0  0  0  0  0  0  0  0  0
    0.7145   -0.4125    0.0000 C   0  0  0  0  0  0  0  0  0  0  0  0
    0.0000   -0.0000    0.0000 C   0  0  0  0  0  0  0  0  0  0  0  0
   -0.7145   -0.4125    0.0000 C   0  0  0  0  0  0  0  0  0  0  0  0
   -1.4289    0.0000    0.0000 C   0  0  0  0  0  0  0  0  0  0  0  0
   -2.1826   -0.3356    0.0000 C   0  0  0  0  0  0  0  0  0  0  0  0
   -2.7346    0.2775    0.0000 C   0  0  0  0  0  0  0  0  0  0  0  0
   -2.3221    0.9920    0.0000 N   0  0  0  0  0  0  0  0  0  0  0  0
   -1.5152    0.8205    0.0000 N   0  0  0  0  0  0  0  0  0  0  0  0
   -0.9021    1.3725    0.0000 C   0  0  0  0  0  0  0  0  0  0  0  0
    1.4289   -0.0000    0.0000 C   0  0  0  0  0  0  0  0  0  0  0  0
    1.4289    0.8250    0.0000 O   0  0  0  0  0  0  0  0  0  0  0  0
    2.1434   -0.4125    0.0000 N   0  0  0  0  0  0  0  0  0  0  0  0
    2.1434   -1.2375    0.0000 C   0  0  0  0  0  0  0  0  0  0  0  0
    2.8579   -1.6500    0.0000 O   0  0  0  0  0  0  0  0  0  0  0  0
    1.4289   -1.6500    0.0000 N   0  0  0  0  0  0  0  0  0  0  0  0
    2.8579   -0.0000    0.0000 N   0  0  0  0  0  0  0  0  0  0  0  0
    2.8579    0.8250    0.0000 S   0  0  0  0  0  0  0  0  0  0  0  0
    2.8579    1.6500    0.0000 O   0  0  0  0  0  0  0  0  0  0  0  0
    3.6829    0.8250    0.0000 O   0  0  0  0  0  0  0  0  0  0  0  0
    2.0329    0.8250    0.0000 C   0  0  0  0  0  0  0  0  0  0  0  0
  1  2  1  0
  2  3  1  0
  2  4  1  0
  4  5  2  0
  4  9  1  0
  5  6  1  0
  6  7  2  0
  6 21  1  0
  7  8  1  0
  7 16  1  0
  8  9  2  0
  9 10  1  0
 10 11  2  0
 10 14  1  0
 11 12  1  0
 12 13  2  0
 13 14  1  0
 14 15  1  0
 16 17  2  0
 16 18  1  0
 18 19  1  0
 18 22  1  0
 19 20  2  0
 19 21  1  0
 22 23  1  0
 23 24  2  0
 23 25  2  0
 23 26  1  0
M  END
>  <DRUGBANK_ID>  (1) 
DB12367

>  <COMMON_NAME>  (1) 
Selurampanel

>  <CAS_NUMBER>  (1) 
912574-69-7

>  <UNII>  (1) 
7WG1MR7DAR

>  <SYNONYMS>  (1) 
Selurampanel

$$$$
