1A2
     RDKit          2D

 30 33  0  0  0  0  0  0  0  0999 V2000
   -0.8874    1.5342    0.0000 C   0  0  0  0  0  0  0  0  0  0  0  0
   -1.5739   -0.8437    0.0000 C   0  0  0  0  0  0  0  0  0  0  0  0
   -0.7730   -0.6456    0.0000 N   0  0  0  0  0  0  0  0  0  0  0  0
   -3.2900    0.9397    0.0000 C   0  0  0  0  0  0  0  0  0  0  0  0
   -2.9467   -0.4474    0.0000 C   0  0  0  0  0  0  0  0  0  0  0  0
   -2.4891    1.1379    0.0000 C   0  0  0  0  0  0  0  0  0  0  0  0
   -3.5188    0.1471    0.0000 C   0  0  0  0  0  0  0  0  0  0  0  0
   -2.1459   -0.2492    0.0000 C   0  0  0  0  0  0  0  0  0  0  0  0
   -0.5442    0.1471    0.0000 C   0  0  0  0  0  0  0  0  0  0  0  0
   -1.1162    0.7416    0.0000 N   0  0  0  0  0  0  0  0  0  0  0  0
   -1.9171    0.5434    0.0000 C   0  0  0  0  0  0  0  0  0  0  0  0
   -3.1756   -1.2400    0.0000 F   0  0  0  0  0  0  0  0  0  0  0  0
   -2.2603    1.9305    0.0000 F   0  0  0  0  0  0  0  0  0  0  0  0
   -0.3154    0.9397    0.0000 C   0  0  0  0  0  0  0  0  0  0  0  0
    0.4855    1.1379    0.0000 C   0  0  0  0  0  0  0  0  0  0  0  0
    1.0575    0.5434    0.0000 N   0  0  0  0  0  0  0  0  0  0  0  0
    0.8287   -0.2492    0.0000 C   0  0  0  0  0  0  0  0  0  0  0  0
    0.0278   -0.4474    0.0000 C   0  0  0  0  0  0  0  0  0  0  0  0
    1.8584    0.7416    0.0000 C   0  0  0  0  0  0  0  0  0  0  0  0
    2.0872    1.5342    0.0000 O   0  0  0  0  0  0  0  0  0  0  0  0
   -1.8027   -1.6363    0.0000 N   0  0  0  0  0  0  0  0  0  0  0  0
    2.4304    0.1471    0.0000 C   0  0  0  0  0  0  0  0  0  0  0  0
    3.2312    0.3452    0.0000 C   0  0  0  0  0  0  0  0  0  0  0  0
    3.8033   -0.2492    0.0000 N   0  0  0  0  0  0  0  0  0  0  0  0
    3.5745   -1.0419    0.0000 C   0  0  0  0  0  0  0  0  0  0  0  0
    2.7736   -1.2400    0.0000 C   0  0  0  0  0  0  0  0  0  0  0  0
    2.2016   -0.6456    0.0000 C   0  0  0  0  0  0  0  0  0  0  0  0
    4.1465   -1.6363    0.0000 C   0  0  0  0  0  0  0  0  0  0  0  0
    4.7185   -2.2308    0.0000 N   0  0  0  0  0  0  0  0  0  0  0  0
   -1.4594    2.1287    0.0000 C   0  0  0  0  0  0  0  0  0  0  0  0
  1 10  1  0
  1 30  1  0
  2  3  2  0
  2  8  1  0
  2 21  1  0
  3  9  1  0
  4  6  1  0
  4  7  2  0
  5  7  1  0
  5  8  2  0
  5 12  1  0
  6 11  2  0
  6 13  1  0
  8 11  1  0
  9 10  1  0
  9 14  1  0
  9 18  1  0
 10 11  1  0
 14 15  1  0
 15 16  1  0
 16 17  1  0
 16 19  1  0
 17 18  1  0
 19 20  2  0
 19 22  1  0
 22 23  2  0
 22 27  1  0
 23 24  1  0
 24 25  2  0
 25 26  1  0
 25 28  1  0
 26 27  1  0
 28 29  3  0
M  END
>  <DRUGBANK_ID>  (1) 
DB06879

>  <COMMON_NAME>  (1) 
5-(4'-AMINO-1'-ETHYL-5',8'-DIFLUORO-1'H-SPIRO[PIPERIDINE-4,2'-QUINAZOLINE]-1-YLCARBONYL)PICOLINONITRILE

$$$$
