
     RDKit          2D

 30 33  0  0  0  0  0  0  0  0999 V2000
    1.7074    1.2451    0.0000 O   0  0  0  0  0  0  0  0  0  0  0  0
   -3.3744   -2.3249    0.0000 O   0  0  0  0  0  0  0  0  0  0  0  0
    1.0799    2.3249    0.0000 O   0  0  0  0  0  0  0  0  0  0  0  0
    0.9179   -0.6580    0.0000 C   0  0  0  0  0  0  0  0  0  0  0  0
    0.2497   -1.0697    0.0000 C   0  0  0  0  0  0  0  0  0  0  0  0
    0.9179    0.1585    0.0000 C   0  0  0  0  0  0  0  0  0  0  0  0
   -0.4994   -0.6580    0.0000 C   0  0  0  0  0  0  0  0  0  0  0  0
    1.7074    0.4083    0.0000 C   0  0  0  0  0  0  0  0  0  0  0  0
   -1.1945   -1.0697    0.0000 C   0  0  0  0  0  0  0  0  0  0  0  0
    1.7074   -0.9077    0.0000 C   0  0  0  0  0  0  0  0  0  0  0  0
    0.2497    0.5837    0.0000 C   0  0  0  0  0  0  0  0  0  0  0  0
   -0.4994    0.1585    0.0000 C   0  0  0  0  0  0  0  0  0  0  0  0
    0.2497   -1.8998    0.0000 C   0  0  0  0  0  0  0  0  0  0  0  0
    2.1866   -0.2329    0.0000 C   0  0  0  0  0  0  0  0  0  0  0  0
   -1.1945   -1.8998    0.0000 C   0  0  0  0  0  0  0  0  0  0  0  0
    0.9179    0.9954    0.0000 C   0  0  0  0  0  0  0  0  0  0  0  0
   -0.4994   -2.2980    0.0000 C   0  0  0  0  0  0  0  0  0  0  0  0
   -1.9167   -0.6580    0.0000 C   0  0  0  0  0  0  0  0  0  0  0  0
    2.5375    0.4083    0.0000 C   0  0  0  0  0  0  0  0  0  0  0  0
   -1.9167   -2.2980    0.0000 C   0  0  0  0  0  0  0  0  0  0  0  0
   -2.6320   -1.0697    0.0000 C   0  0  0  0  0  0  0  0  0  0  0  0
   -2.6320   -1.8998    0.0000 C   0  0  0  0  0  0  0  0  0  0  0  0
    1.0799    1.6163    0.0000 C   0  0  0  0  0  0  0  0  0  0  0  0
    3.3744    0.4083    0.0000 C   0  0  0  0  0  0  0  0  0  0  0  0
    0.4791    1.2451    0.0000 C   0  0  0  0  0  0  0  0  0  0  0  0
   -0.1484    1.6163    0.0000 C   0  0  0  0  0  0  0  0  0  0  0  0
   -0.7491    1.2451    0.0000 C   0  0  0  0  0  0  0  0  0  0  0  0
   -1.3498    1.6163    0.0000 C   0  0  0  0  0  0  0  0  0  0  0  0
   -1.9841    1.2451    0.0000 C   0  0  0  0  0  0  0  0  0  0  0  0
   -2.6118    1.6163    0.0000 C   0  0  0  0  0  0  0  0  0  0  0  0
  1 23  1  0
  2 22  2  0
  3 23  2  0
  4  5  1  0
  4  6  1  0
  4 10  1  1
  5  7  1  0
  5 13  1  6
  6  8  1  0
  6 11  1  0
  6 16  1  1
  7  9  1  0
  7 12  1  1
  8  1  1  0
  8 14  1  0
  8 19  1  6
  9 15  1  0
  9 18  1  6
 10 14  1  0
 11 12  1  0
 13 17  1  0
 15 17  1  0
 15 20  2  0
 18 21  1  0
 19 24  3  0
 20 22  1  0
 21 22  1  0
 23 25  1  0
 25 26  1  0
 26 27  1  0
 27 28  1  0
 28 29  1  0
 29 30  1  0
M  END
>  <DRUGBANK_ID>  (1) 
DB14678

>  <COMMON_NAME>  (1) 
Norethindrone enanthate

>  <CAS_NUMBER>  (1) 
3836-23-5

>  <UNII>  (1) 
HY3S2K0J0F

>  <SYNONYMS>  (1) 
Norethisterone enanthate; Norethisterone oenanthate

$$$$
