
     RDKit          2D

 33 34  0  0  1  0  0  0  0  0999 V2000
    1.2564    2.2948    0.0000 C   0  0  0  0  0  0  0  0  0  0  0  0
    1.2564    1.4698    0.0000 O   0  0  0  0  0  0  0  0  0  0  0  0
    1.9709    1.0573    0.0000 C   0  0  0  0  0  0  0  0  0  0  0  0
    1.9709    0.2323    0.0000 C   0  0  0  0  0  0  0  0  0  0  0  0
    1.2564   -0.1802    0.0000 C   0  0  0  0  0  0  0  0  0  0  0  0
    1.2564   -1.0052    0.0000 C   0  0  0  0  0  0  0  0  0  0  0  0
    1.9239   -1.4901    0.0000 C   0  0  0  0  0  0  0  0  0  0  0  0
    1.6689   -2.2748    0.0000 S   0  0  0  0  0  0  0  0  0  0  0  0
    0.8439   -2.2748    0.0000 C   0  0  0  0  0  0  0  0  0  0  0  0
    0.5890   -1.4901    0.0000 N   0  0  0  0  0  0  0  0  0  0  0  0
    0.3590   -2.9422    0.0000 C   0  0  0  0  0  0  0  0  0  0  0  0
    0.6139   -3.7268    0.0000 C   0  0  0  0  0  0  0  0  0  0  0  0
   -0.0535   -4.2117    0.0000 S   0  0  0  0  0  0  0  0  0  0  0  0
   -0.7209   -3.7268    0.0000 C   0  0  0  0  0  0  0  0  0  0  0  0
   -0.4660   -2.9422    0.0000 N   0  0  0  0  0  0  0  0  0  0  0  0
   -1.5056   -3.9818    0.0000 C   0  0  0  0  0  0  0  0  0  0  0  0
   -2.1187   -3.4297    0.0000 C   0  0  0  0  0  0  0  0  0  0  0  0
   -1.6771   -4.7887    0.0000 C   0  0  0  0  0  0  0  0  0  0  0  0
   -2.4617   -5.0437    0.0000 C   0  0  0  0  0  0  0  0  0  0  0  0
   -2.6332   -5.8506    0.0000 C   0  0  0  0  0  0  0  0  0  0  0  0
   -3.4179   -6.1056    0.0000 C   0  0  0  0  0  0  0  0  0  0  0  0
   -3.5894   -6.9126    0.0000 C   0  0  0  0  0  0  0  0  0  0  0  0
   -4.3740   -7.1675    0.0000 C   0  0  0  0  0  0  0  0  0  0  0  0
   -2.9763   -7.4646    0.0000 C   0  0  0  0  0  0  0  0  0  0  0  0
    2.6854    1.4698    0.0000 C   0  0  0  0  0  0  0  0  0  0  0  0
    2.6854    2.2948    0.0000 C   0  0  0  0  0  0  0  0  0  0  0  0
    3.3998    1.0573    0.0000 C   0  0  0  0  0  0  0  0  0  0  0  0
    3.3998    0.2323    0.0000 O   0  0  0  0  0  0  0  0  0  0  0  0
    4.1143   -0.1802    0.0000 C   0  0  0  0  0  0  0  0  0  0  0  0
    4.1143    1.4698    0.0000 C   0  0  0  0  0  0  0  0  0  0  0  0
    4.1143    2.2948    0.0000 C   0  0  0  0  0  0  0  0  0  0  0  0
    4.8288    2.7073    0.0000 N   0  0  0  0  0  0  0  0  0  0  0  0
    3.3998    2.7073    0.0000 O   0  0  0  0  0  0  0  0  0  0  0  0
  1  2  1  0
  3  2  1  0
  3  4  1  6
  3 25  1  0
  4  5  2  0
  5  6  1  0
  6  7  2  0
  6 10  1  0
  7  8  1  0
  8  9  1  0
  9 10  2  0
  9 11  1  0
 11 12  2  0
 11 15  1  0
 12 13  1  0
 13 14  1  0
 14 15  2  0
 14 16  1  0
 16 17  1  6
 16 18  1  0
 18 19  2  0
 19 20  1  0
 20 21  2  0
 21 22  1  0
 22 23  1  0
 22 24  1  0
 25 26  1  1
 25 27  1  0
 27 28  1  0
 27 30  2  0
 28 29  1  0
 30 31  1  0
 31 32  1  0
 31 33  2  0
M  END
>  <DRUGBANK_ID>  (1) 
DB04741

>  <COMMON_NAME>  (1) 
Myxothiazol

>  <CAS_NUMBER>  (1) 
76706-55-3

>  <UNII>  (1) 
6VY98BQ7NB

>  <SYNONYMS>  (1) 
(+)-myxothiazol; Myxothiazol A

$$$$
