
     RDKit          2D

 27 29  0  0  0  0  0  0  0  0999 V2000
   -2.5805    0.0016    0.0000 C   0  0  0  0  0  0  0  0  0  0  0  0
   -2.5816   -0.8258    0.0000 C   0  0  0  0  0  0  0  0  0  0  0  0
   -1.8668   -1.2386    0.0000 C   0  0  0  0  0  0  0  0  0  0  0  0
   -1.1504   -0.8253    0.0000 C   0  0  0  0  0  0  0  0  0  0  0  0
   -1.1531    0.0052    0.0000 C   0  0  0  0  0  0  0  0  0  0  0  0
   -1.8686    0.4144    0.0000 C   0  0  0  0  0  0  0  0  0  0  0  0
   -3.2950    0.4139    0.0000 N   0  0  0  0  0  0  0  0  0  0  0  0
   -4.0095    0.0013    0.0000 C   0  0  0  0  0  0  0  0  0  0  0  0
   -4.7241    0.4136    0.0000 C   0  0  0  0  0  0  0  0  0  0  0  0
   -5.4384    0.0009    0.0000 C   0  0  0  0  0  0  0  0  0  0  0  0
   -4.7243    1.2386    0.0000 N   0  0  0  0  0  0  0  0  0  0  0  0
   -4.0093   -0.8237    0.0000 O   0  0  0  0  0  0  0  0  0  0  0  0
   -0.4350   -1.2367    0.0000 S   0  0  0  0  0  0  0  0  0  0  0  0
    0.2787   -0.8230    0.0000 C   0  0  0  0  0  0  0  0  0  0  0  0
    0.9903   -1.2349    0.0000 C   0  0  0  0  0  0  0  0  0  0  0  0
    0.9828    0.4152    0.0000 C   0  0  0  0  0  0  0  0  0  0  0  0
    0.2723   -0.0001    0.0000 C   0  0  0  0  0  0  0  0  0  0  0  0
    1.7029    0.0040    0.0000 C   0  0  0  0  0  0  0  0  0  0  0  0
    1.7067   -0.8180    0.0000 C   0  0  0  0  0  0  0  0  0  0  0  0
    2.4895   -1.0685    0.0000 N   0  0  0  0  0  0  0  0  0  0  0  0
    2.9697   -0.4013    0.0000 C   0  0  0  0  0  0  0  0  0  0  0  0
    2.4836    0.2614    0.0000 N   0  0  0  0  0  0  0  0  0  0  0  0
    3.7948   -0.3976    0.0000 N   0  0  0  0  0  0  0  0  0  0  0  0
    4.2042    0.3188    0.0000 C   0  0  0  0  0  0  0  0  0  0  0  0
    5.0290    0.3225    0.0000 O   0  0  0  0  0  0  0  0  0  0  0  0
    5.4384    1.0389    0.0000 C   0  0  0  0  0  0  0  0  0  0  0  0
    3.7883    1.0314    0.0000 O   0  0  0  0  0  0  0  0  0  0  0  0
  1  7  1  0
  1  2  2  0
  2  3  1  0
  3  4  2  0
  4  5  1  0
  4 13  1  0
  5  6  2  0
  6  1  1  0
  7  8  1  0
  8  9  1  0
  8 12  2  0
  9 10  1  6
  9 11  1  0
 13 14  1  0
 14 15  2  0
 15 19  1  0
 16 17  2  0
 17 14  1  0
 18 16  1  0
 18 19  2  0
 19 20  1  0
 20 21  2  0
 21 22  1  0
 21 23  1  0
 22 18  1  0
 23 24  1  0
 24 25  1  0
 24 27  2  0
 25 26  1  0
M  END
>  <DRUGBANK_ID>  (1) 
DB05932

>  <COMMON_NAME>  (1) 
Denibulin

>  <CAS_NUMBER>  (1) 
284019-34-7

>  <UNII>  (1) 
K7037M241U

>  <SYNONYMS>  (1) 
Denibulin

$$$$
