
     RDKit          2D

 21 20  0  0  1  0  0  0  0  0999 V2000
    2.0625   -0.7145    0.0000 C   0  0  0  0  0  0  0  0  0  0  0  0
    5.6349   -0.3020    0.0000 C   0  0  0  0  0  0  0  0  0  0  0  0
    0.6336   -0.7145    0.0000 C   0  0  0  0  0  0  0  0  0  0  0  0
    2.7770   -0.3020    0.0000 C   0  0  0  0  0  0  0  0  0  0  0  0
    4.9204   -0.7145    0.0000 C   0  0  0  0  0  0  0  0  0  0  0  0
    3.4914   -0.7145    0.0000 C   0  0  0  0  0  0  0  0  0  0  0  0
    4.2059   -0.3020    0.0000 C   0  0  0  0  0  0  0  0  0  0  0  0
    1.3480   -0.3020    0.0000 N   0  0  0  0  0  0  0  0  0  0  0  0
    2.7770    0.5230    0.0000 O   0  0  0  0  0  0  0  0  0  0  0  0
    4.9204   -1.5395    0.0000 O   0  0  0  0  0  0  0  0  0  0  0  0
    3.4914   -1.5395    0.0000 O   0  0  0  0  0  0  0  0  0  0  0  0
    4.2059    0.5230    0.0000 O   0  0  0  0  0  0  0  0  0  0  0  0
   -0.7954    0.1105    0.0000 O   0  0  0  0  0  0  0  0  0  0  0  0
   -0.4934   -1.0164    0.0000 O   0  0  0  0  0  0  0  0  0  0  0  0
    0.3316    0.4125    0.0000 O   0  0  0  0  0  0  0  0  0  0  0  0
    7.7783    0.1105    0.0000 O   0  0  0  0  0  0  0  0  0  0  0  0
    7.4763   -1.0164    0.0000 O   0  0  0  0  0  0  0  0  0  0  0  0
    6.6513    0.4125    0.0000 O   0  0  0  0  0  0  0  0  0  0  0  0
    6.3493   -0.7145    0.0000 O   0  0  0  0  0  0  0  0  0  0  0  0
   -0.0809   -0.3020    0.0000 P   0  0  0  0  0  0  0  0  0  0  0  0
    7.0638   -0.3020    0.0000 P   0  0  0  0  0  0  0  0  0  0  0  0
  4  1  1  0
  4  9  1  1
  5  2  1  0
  5 10  1  1
  6  4  1  0
  6 11  1  6
  7  5  1  0
  7  6  1  0
  7 12  1  6
  8  1  1  0
  8  3  1  0
 19  2  1  0
 20  3  1  0
 20 13  1  0
 20 14  1  0
 20 15  2  0
 21 16  1  0
 21 17  1  0
 21 18  2  0
 21 19  1  0
M  END
>  <DRUGBANK_ID>  (1) 
DB02992

>  <SECONDARY_ACCESSION_NUMBERS>  (1) 
EXPT01682

>  <COMMON_NAME>  (1) 
1-Deoxy-6-O-Phosphono-1-[(Phosphonomethyl)Amino]-L-Threo-Hexitol

$$$$
