
     RDKit          2D

 38 40  0  0  0  0  0  0  0  0999 V2000
   -2.3214    1.0371    0.0000 C   0  0  0  0  0  0  0  0  0  0  0  0
   -3.0358    0.6246    0.0000 C   0  0  0  0  0  0  0  0  0  0  0  0
   -3.0358   -0.2004    0.0000 C   0  0  0  0  0  0  0  0  0  0  0  0
   -2.3214   -0.6129    0.0000 C   0  0  0  0  0  0  0  0  0  0  0  0
   -1.6069   -0.2004    0.0000 C   0  0  0  0  0  0  0  0  0  0  0  0
   -1.6069    0.6246    0.0000 C   0  0  0  0  0  0  0  0  0  0  0  0
   -2.3215    1.8621    0.0000 O   0  0  0  0  0  0  0  0  0  0  0  0
   -3.0359    2.2745    0.0000 C   0  0  0  0  0  0  0  0  0  0  0  0
   -0.8925   -0.6129    0.0000 N   0  0  0  0  0  0  0  0  0  0  0  0
   -0.1780    0.6245    0.0000 C   0  0  0  0  0  0  0  0  0  0  0  0
   -0.1780   -0.2004    0.0000 C   0  0  0  0  0  0  0  0  0  0  0  0
    0.5363   -0.6129    0.0000 C   0  0  0  0  0  0  0  0  0  0  0  0
    0.5364   -1.4379    0.0000 O   0  0  0  0  0  0  0  0  0  0  0  0
    1.2508   -0.2004    0.0000 N   0  0  0  0  0  0  0  0  0  0  0  0
    1.9183   -0.6853    0.0000 C   0  0  0  0  0  0  0  0  0  0  0  0
    1.9183   -1.5103    0.0000 C   0  0  0  0  0  0  0  0  0  0  0  0
    2.5313   -2.0623    0.0000 C   0  0  0  0  0  0  0  0  0  0  0  0
    2.3598   -2.8693    0.0000 C   0  0  0  0  0  0  0  0  0  0  0  0
    3.3160   -1.8074    0.0000 C   0  0  0  0  0  0  0  0  0  0  0  0
    2.6533   -0.3108    0.0000 C   0  0  0  0  0  0  0  0  0  0  0  0
    2.6965    0.5130    0.0000 O   0  0  0  0  0  0  0  0  0  0  0  0
    3.3452   -0.7601    0.0000 N   0  0  0  0  0  0  0  0  0  0  0  0
    4.0597   -0.3476    0.0000 C   0  0  0  0  0  0  0  0  0  0  0  0
    4.0597    0.4773    0.0000 C   0  0  0  0  0  0  0  0  0  0  0  0
    4.7742   -0.7601    0.0000 C   0  0  0  0  0  0  0  0  0  0  0  0
    4.7742   -1.5851    0.0000 O   0  0  0  0  0  0  0  0  0  0  0  0
    5.4886   -0.3476    0.0000 C   0  0  0  0  0  0  0  0  0  0  0  0
    4.6728    1.0293    0.0000 C   0  0  0  0  0  0  0  0  0  0  0  0
    5.4798    0.8579    0.0000 C   0  0  0  0  0  0  0  0  0  0  0  0
    5.8923    1.5723    0.0000 C   0  0  0  0  0  0  0  0  0  0  0  0
    5.3403    2.1854    0.0000 N   0  0  0  0  0  0  0  0  0  0  0  0
    4.5866    1.8498    0.0000 C   0  0  0  0  0  0  0  0  0  0  0  0
    3.8722    2.2624    0.0000 O   0  0  0  0  0  0  0  0  0  0  0  0
    6.2031   -0.7601    0.0000 O   0  0  0  0  0  0  0  0  0  0  0  0
    7.0281   -0.7601    0.0000 P   0  0  0  0  0  0  0  0  0  0  0  0
    7.0281    0.0648    0.0000 O   0  0  0  0  0  0  0  0  0  0  0  0
    7.8531   -0.7601    0.0000 O   0  0  0  0  0  0  0  0  0  0  0  0
    7.0281   -1.5851    0.0000 O   0  0  0  0  0  0  0  0  0  0  0  0
  1  2  2  0
  1  7  1  0
  2  3  1  0
  3  4  2  0
  4  5  1  0
  5  6  2  0
  6  1  1  0
  6 10  1  0
  7  8  1  0
  9 11  1  0
  9  5  1  0
 10 11  2  0
 11 12  1  0
 12 13  2  0
 12 14  1  0
 14 15  1  0
 15 16  1  6
 15 20  1  0
 16 17  1  0
 17 18  1  0
 17 19  1  0
 20 21  2  0
 20 22  1  0
 22 23  1  0
 23 24  1  1
 23 25  1  0
 28 24  1  1
 25 26  2  0
 25 27  1  0
 27 34  1  0
 28 29  1  0
 28 32  1  0
 29 30  1  0
 30 31  1  0
 31 32  1  0
 32 33  2  0
 34 35  1  0
 35 36  2  0
 35 37  1  0
 35 38  1  0
M  END
>  <DRUGBANK_ID>  (1) 
DB16514

>  <COMMON_NAME>  (1) 
PF-07304814

>  <UNII>  (1) 
XJ51YOB1SC

$$$$
