
     RDKit          2D

 27 30  0  0  0  0  0  0  0  0999 V2000
   -0.7071   -2.7664    0.0000 S   0  0  0  0  0  0  0  0  0  0  0  0
   -1.3746   -2.2816    0.0000 C   0  0  0  0  0  0  0  0  0  0  0  0
   -0.0398   -2.2816    0.0000 C   0  0  0  0  0  0  0  0  0  0  0  0
   -1.1197   -1.4968    0.0000 C   0  0  0  0  0  0  0  0  0  0  0  0
   -0.2946   -1.4969    0.0000 N   0  0  0  0  0  0  0  0  0  0  0  0
    2.7557   -1.6873    0.0000 C   0  0  0  0  0  0  0  0  0  0  0  0
    2.1427   -2.2394    0.0000 N   0  0  0  0  0  0  0  0  0  0  0  0
    2.5842   -0.8803    0.0000 C   0  0  0  0  0  0  0  0  0  0  0  0
    1.3579   -1.9844    0.0000 C   0  0  0  0  0  0  0  0  0  0  0  0
    1.7996   -0.6253    0.0000 C   0  0  0  0  0  0  0  0  0  0  0  0
    1.1864   -1.1774    0.0000 N   0  0  0  0  0  0  0  0  0  0  0  0
    0.7449   -2.5365    0.0000 N   0  0  0  0  0  0  0  0  0  0  0  0
   -1.5252   -0.7779    0.0000 C   0  0  0  0  0  0  0  0  0  0  0  0
   -1.5113    0.6509    0.0000 C   0  0  0  0  0  0  0  0  0  0  0  0
   -2.3363    0.6589    0.0000 C   0  0  0  0  0  0  0  0  0  0  0  0
   -1.1057   -0.0674    0.0000 C   0  0  0  0  0  0  0  0  0  0  0  0
   -2.7557   -0.0514    0.0000 C   0  0  0  0  0  0  0  0  0  0  0  0
   -2.3502   -0.7699    0.0000 C   0  0  0  0  0  0  0  0  0  0  0  0
   -0.2808   -0.0754    0.0000 O   0  0  0  0  0  0  0  0  0  0  0  0
    0.1386    0.6350    0.0000 C   0  0  0  0  0  0  0  0  0  0  0  0
    0.9774    2.0559    0.0000 C   0  0  0  0  0  0  0  0  0  0  0  0
    1.3829    1.3374    0.0000 C   0  0  0  0  0  0  0  0  0  0  0  0
    0.1524    2.0639    0.0000 C   0  0  0  0  0  0  0  0  0  0  0  0
    0.9636    0.6270    0.0000 C   0  0  0  0  0  0  0  0  0  0  0  0
   -0.2670    1.3534    0.0000 C   0  0  0  0  0  0  0  0  0  0  0  0
   -1.0919    1.3615    0.0000 C   0  0  0  0  0  0  0  0  0  0  0  0
    1.3968    2.7664    0.0000 C   0  0  0  0  0  0  0  0  0  0  0  0
  2  1  1  0
  3  1  1  0
  4  2  2  0
  4 13  1  0
  5  3  2  0
  5  4  1  0
  7  6  1  0
  8  6  1  0
  9  7  1  0
  9 12  2  3
 10  8  1  0
 11  9  1  0
 11 10  1  0
 12  3  1  0
 13 16  2  0
 15 14  2  0
 16 14  1  0
 16 19  1  0
 17 15  1  0
 18 17  2  0
 18 13  1  0
 19 20  1  0
 20 24  2  0
 20 25  1  0
 21 27  1  0
 22 21  2  0
 23 21  1  0
 24 22  1  0
 25 23  2  0
 25 26  1  0
M  END
>  <DRUGBANK_ID>  (1) 
DB06395

>  <COMMON_NAME>  (1) 
Abafungin

>  <CAS_NUMBER>  (1) 
129639-79-8

>  <UNII>  (1) 
11DI31LWXF

>  <SYNONYMS>  (1) 
Abafungin; Abafungina; Abafungine; Abafunginum

$$$$
