PG6
     RDKit          2D

 18 17  0  0  0  0  0  0  0  0999 V2000
   -6.0735   -0.1554    0.0000 C   0  0  0  0  0  0  0  0  0  0  0  0
   -5.3590    0.2571    0.0000 O   0  0  0  0  0  0  0  0  0  0  0  0
   -4.6444   -0.1554    0.0000 C   0  0  0  0  0  0  0  0  0  0  0  0
   -3.9299    0.2571    0.0000 C   0  0  0  0  0  0  0  0  0  0  0  0
   -3.2153   -0.1554    0.0000 O   0  0  0  0  0  0  0  0  0  0  0  0
   -2.5009    0.2571    0.0000 C   0  0  0  0  0  0  0  0  0  0  0  0
   -1.7863   -0.1554    0.0000 C   0  0  0  0  0  0  0  0  0  0  0  0
   -1.0718    0.2571    0.0000 O   0  0  0  0  0  0  0  0  0  0  0  0
   -0.3573   -0.1554    0.0000 C   0  0  0  0  0  0  0  0  0  0  0  0
    0.3572    0.2571    0.0000 C   0  0  0  0  0  0  0  0  0  0  0  0
    1.0718   -0.1554    0.0000 O   0  0  0  0  0  0  0  0  0  0  0  0
    1.7863    0.2571    0.0000 C   0  0  0  0  0  0  0  0  0  0  0  0
    2.5008   -0.1554    0.0000 C   0  0  0  0  0  0  0  0  0  0  0  0
    3.2153    0.2571    0.0000 O   0  0  0  0  0  0  0  0  0  0  0  0
    3.9299   -0.1554    0.0000 C   0  0  0  0  0  0  0  0  0  0  0  0
    4.6443    0.2571    0.0000 C   0  0  0  0  0  0  0  0  0  0  0  0
    5.3589   -0.1554    0.0000 O   0  0  0  0  0  0  0  0  0  0  0  0
    6.0735    0.2571    0.0000 C   0  0  0  0  0  0  0  0  0  0  0  0
  1  2  1  0
  2  3  1  0
  3  4  1  0
  4  5  1  0
  5  6  1  0
  6  7  1  0
  7  8  1  0
  8  9  1  0
  9 10  1  0
 10 11  1  0
 11 12  1  0
 12 13  1  0
 13 14  1  0
 14 15  1  0
 15 16  1  0
 16 17  1  0
 17 18  1  0
M  END
>  <DRUGBANK_ID>  (1) 
DB02580

>  <SECONDARY_ACCESSION_NUMBERS>  (1) 
EXPT02566

>  <COMMON_NAME>  (1) 
Pentaglyme

>  <CAS_NUMBER>  (1) 
1191-87-3

>  <SYNONYMS>  (1) 
pentaethyleneglycol dimethyl ether

$$$$
