U55
     RDKit          2D

 18 19  0  0  0  0  0  0  0  0999 V2000
    2.1371    1.4976    0.0000 N   0  0  0  0  0  0  0  0  0  0  0  0
    2.1371    0.6726    0.0000 C   0  0  0  0  0  0  0  0  0  0  0  0
    2.8515    0.2601    0.0000 N   0  0  0  0  0  0  0  0  0  0  0  0
    2.8515   -0.5649    0.0000 C   0  0  0  0  0  0  0  0  0  0  0  0
    2.1371   -0.9774    0.0000 N   0  0  0  0  0  0  0  0  0  0  0  0
    1.4226    0.2601    0.0000 C   0  0  0  0  0  0  0  0  0  0  0  0
    1.4226   -0.5649    0.0000 C   0  0  0  0  0  0  0  0  0  0  0  0
    0.7081   -0.9774    0.0000 N   0  0  0  0  0  0  0  0  0  0  0  0
   -0.0064   -0.5649    0.0000 C   0  0  0  0  0  0  0  0  0  0  0  0
   -0.7208   -0.9774    0.0000 C   0  0  0  0  0  0  0  0  0  0  0  0
   -1.4353   -0.5649    0.0000 C   0  0  0  0  0  0  0  0  0  0  0  0
   -0.0064    0.2601    0.0000 C   0  0  0  0  0  0  0  0  0  0  0  0
   -0.7208    0.6726    0.0000 C   0  0  0  0  0  0  0  0  0  0  0  0
   -1.4353    0.2601    0.0000 C   0  0  0  0  0  0  0  0  0  0  0  0
   -2.1498    0.6726    0.0000 S   0  0  0  0  0  0  0  0  0  0  0  0
   -2.8642    1.0851    0.0000 O   0  0  0  0  0  0  0  0  0  0  0  0
   -1.7373    1.3871    0.0000 O   0  0  0  0  0  0  0  0  0  0  0  0
   -2.5623   -0.0419    0.0000 N   0  0  0  0  0  0  0  0  0  0  0  0
  1  2  1  0
  2  3  2  0
  2  6  1  0
  3  4  1  0
  4  5  2  0
  5  7  1  0
  6  7  2  0
  7  8  1  0
  8  9  1  0
  9 10  2  0
  9 12  1  0
 10 11  1  0
 11 14  2  0
 12 13  2  0
 13 14  1  0
 14 15  1  0
 15 16  2  0
 15 17  2  0
 15 18  1  0
M  END
>  <DRUGBANK_ID>  (1) 
DB03307

>  <SECONDARY_ACCESSION_NUMBERS>  (1) 
EXPT03161

>  <COMMON_NAME>  (1) 
4-[(6-Amino-4-Pyrimidinyl)Amino]Benzenesulfonamide

$$$$
