5CB
     RDKit          2D

 32 35  0  0  0  0  0  0  0  0999 V2000
   -0.7960    0.1066    0.0000 O   0  0  0  0  0  0  0  0  0  0  0  0
    5.8698   -1.9912    0.0000 Cl  0  0  0  0  0  0  0  0  0  0  0  0
    1.9220    0.9897    0.0000 Cl  0  0  0  0  0  0  0  0  0  0  0  0
    5.1553   -3.2287    0.0000 C   0  0  0  0  0  0  0  0  0  0  0  0
    4.4408   -3.6412    0.0000 C   0  0  0  0  0  0  0  0  0  0  0  0
    5.1553   -2.4037    0.0000 C   0  0  0  0  0  0  0  0  0  0  0  0
    3.7264   -3.2287    0.0000 C   0  0  0  0  0  0  0  0  0  0  0  0
    4.4408   -1.9912    0.0000 C   0  0  0  0  0  0  0  0  0  0  0  0
    3.7264   -2.4037    0.0000 C   0  0  0  0  0  0  0  0  0  0  0  0
    2.9417   -3.4836    0.0000 S   0  0  0  0  0  0  0  0  0  0  0  0
    2.4568   -2.8162    0.0000 C   0  0  0  0  0  0  0  0  0  0  0  0
    2.9417   -2.1487    0.0000 C   0  0  0  0  0  0  0  0  0  0  0  0
    2.6868   -1.3641    0.0000 C   0  0  0  0  0  0  0  0  0  0  0  0
    1.8798   -1.1926    0.0000 N   0  0  0  0  0  0  0  0  0  0  0  0
    1.6249   -0.4080    0.0000 C   0  0  0  0  0  0  0  0  0  0  0  0
    0.8179   -0.2364    0.0000 C   0  0  0  0  0  0  0  0  0  0  0  0
    1.1150    1.1613    0.0000 C   0  0  0  0  0  0  0  0  0  0  0  0
    0.5630    0.5482    0.0000 N   0  0  0  0  0  0  0  0  0  0  0  0
    0.8601    1.9459    0.0000 C   0  0  0  0  0  0  0  0  0  0  0  0
   -0.2440    0.7197    0.0000 C   0  0  0  0  0  0  0  0  0  0  0  0
    0.0531    2.1174    0.0000 N   0  0  0  0  0  0  0  0  0  0  0  0
   -0.4989    1.5043    0.0000 C   0  0  0  0  0  0  0  0  0  0  0  0
   -1.3059    1.6759    0.0000 N   0  0  0  0  0  0  0  0  0  0  0  0
   -1.8579    1.0628    0.0000 C   0  0  0  0  0  0  0  0  0  0  0  0
   -2.6649    1.2343    0.0000 C   0  0  0  0  0  0  0  0  0  0  0  0
   -2.3678    2.6320    0.0000 C   0  0  0  0  0  0  0  0  0  0  0  0
   -2.9198    2.0189    0.0000 C   0  0  0  0  0  0  0  0  0  0  0  0
   -2.6228    3.4166    0.0000 C   0  0  0  0  0  0  0  0  0  0  0  0
   -3.7268    2.1904    0.0000 N   0  0  0  0  0  0  0  0  0  0  0  0
   -3.4297    3.5881    0.0000 C   0  0  0  0  0  0  0  0  0  0  0  0
   -3.9818    2.9751    0.0000 C   0  0  0  0  0  0  0  0  0  0  0  0
    2.1769    0.2051    0.0000 O   0  0  0  0  0  0  0  0  0  0  0  0
  2  6  1  0
  4  5  2  0
  4  6  1  0
  5  7  1  0
  6  8  2  0
  7  9  2  0
  7 10  1  0
  8  9  1  0
  9 12  1  0
 10 11  1  0
 11 12  2  0
 12 13  1  0
 13 14  1  0
 14 15  1  0
 15 16  1  0
 15 32  2  0
 16 18  1  0
 17  3  1  1
 17 18  1  0
 17 19  1  0
 18 20  1  0
 19 21  1  0
 20  1  1  1
 20 22  1  0
 21 22  2  0
 22 23  1  0
 23 24  1  0
 24 25  1  0
 25 27  1  0
 26 27  2  0
 26 28  1  0
 27 29  1  0
 28 30  2  0
 29 31  2  0
 30 31  1  0
M  END
>  <DRUGBANK_ID>  (1) 
DB07165

>  <COMMON_NAME>  (1) 
N-(5-CHLORO-BENZO[B]THIOPHEN-3-YLMETHYL)-2-[6-CHLORO-OXO-3-(2-PYRIDIN-2-YL-ETHYLAMINO)-2H-PYRAZIN-1-YL]-ACETAMIDE

$$$$
