
     RDKit          2D

 29 33  0  0  0  0  0  0  0  0999 V2000
    7.4321   -1.6486    0.0000 O   0  0  0  0  0  0  0  0  0  0  0  0
    8.7386   -2.3125    0.0000 O   0  0  0  0  0  0  0  0  0  0  0  0
    5.9370    0.9875    0.0000 N   0  0  0  0  0  0  0  0  0  0  0  0
    5.9370   -0.6625    0.0000 N   0  0  0  0  0  0  0  0  0  0  0  0
    7.4321   -2.9764    0.0000 N   0  0  0  0  0  0  0  0  0  0  0  0
    6.6515    0.5750    0.0000 C   0  0  0  0  0  0  0  0  0  0  0  0
    5.2224    0.5750    0.0000 C   0  0  0  0  0  0  0  0  0  0  0  0
    6.6515   -0.2500    0.0000 C   0  0  0  0  0  0  0  0  0  0  0  0
    5.2224   -0.2500    0.0000 C   0  0  0  0  0  0  0  0  0  0  0  0
    5.9370    1.8126    0.0000 C   0  0  0  0  0  0  0  0  0  0  0  0
    5.9370   -1.4875    0.0000 C   0  0  0  0  0  0  0  0  0  0  0  0
    5.2224    2.2251    0.0000 C   0  0  0  0  0  0  0  0  0  0  0  0
    6.6515   -1.9000    0.0000 C   0  0  0  0  0  0  0  0  0  0  0  0
    5.2224   -1.9000    0.0000 C   0  0  0  0  0  0  0  0  0  0  0  0
    6.6515   -2.7250    0.0000 C   0  0  0  0  0  0  0  0  0  0  0  0
    4.5080    1.8126    0.0000 C   0  0  0  0  0  0  0  0  0  0  0  0
    5.2224    3.0501    0.0000 C   0  0  0  0  0  0  0  0  0  0  0  0
    5.2224   -2.7250    0.0000 C   0  0  0  0  0  0  0  0  0  0  0  0
    5.9370   -3.1375    0.0000 C   0  0  0  0  0  0  0  0  0  0  0  0
    3.7935    2.2251    0.0000 C   0  0  0  0  0  0  0  0  0  0  0  0
    4.5080    3.4626    0.0000 C   0  0  0  0  0  0  0  0  0  0  0  0
    7.9136   -2.3125    0.0000 C   0  0  0  0  0  0  0  0  0  0  0  0
    3.7935    3.0501    0.0000 C   0  0  0  0  0  0  0  0  0  0  0  0
    3.0791    1.8126    0.0000 C   0  0  0  0  0  0  0  0  0  0  0  0
    3.0791    0.9875    0.0000 C   0  0  0  0  0  0  0  0  0  0  0  0
    2.3645    2.2251    0.0000 C   0  0  0  0  0  0  0  0  0  0  0  0
    2.3645    0.5750    0.0000 C   0  0  0  0  0  0  0  0  0  0  0  0
    1.6500    1.8126    0.0000 C   0  0  0  0  0  0  0  0  0  0  0  0
    1.6500    0.9875    0.0000 C   0  0  0  0  0  0  0  0  0  0  0  0
  1 13  1  0
  1 22  1  0
  2 22  2  0
  3  6  1  0
  3  7  1  0
  3 10  1  0
  4  8  1  0
  4  9  1  0
  4 11  1  0
  5 15  1  0
  5 22  1  0
  6  8  1  0
  7  9  1  0
 10 12  1  0
 11 13  2  0
 11 14  1  0
 12 16  2  0
 12 17  1  0
 13 15  1  0
 14 18  2  0
 15 19  2  0
 16 20  1  0
 17 21  2  0
 18 19  1  0
 20 23  2  0
 20 24  1  0
 21 23  1  0
 24 25  2  0
 24 26  1  0
 25 27  1  0
 26 28  2  0
 27 29  2  0
 28 29  1  0
M  END
>  <DRUGBANK_ID>  (1) 
DB04888

>  <COMMON_NAME>  (1) 
Bifeprunox

>  <CAS_NUMBER>  (1) 
350992-10-8

>  <UNII>  (1) 
AP69E83Z79

>  <SYNONYMS>  (1) 
Bifeprunox; Bifeprunoxum

$$$$
