
     RDKit          2D

 13 13  0  0  0  0  0  0  0  0999 V2000
   -0.3197    1.0417    0.0000 N   0  0  0  0  0  0  0  0  0  0  0  0
   -0.3197    0.2167    0.0000 C   0  0  0  0  0  0  0  0  0  0  0  0
    0.3947   -0.1957    0.0000 C   0  0  0  0  0  0  0  0  0  0  0  0
    0.3947   -1.0207    0.0000 C   0  0  0  0  0  0  0  0  0  0  0  0
   -0.3197   -1.4332    0.0000 C   0  0  0  0  0  0  0  0  0  0  0  0
   -1.0342   -1.0207    0.0000 C   0  0  0  0  0  0  0  0  0  0  0  0
   -1.0342   -0.1957    0.0000 C   0  0  0  0  0  0  0  0  0  0  0  0
   -0.3197   -2.2582    0.0000 C   0  0  0  0  0  0  0  0  0  0  0  0
   -1.0342   -2.6707    0.0000 O   0  0  0  0  0  0  0  0  0  0  0  0
    0.3947   -2.6707    0.0000 O   0  0  0  0  0  0  0  0  0  0  0  0
    0.3947    1.4542    0.0000 C   0  0  0  0  0  0  0  0  0  0  0  0
    0.3947    2.2792    0.0000 O   0  0  0  0  0  0  0  0  0  0  0  0
    1.1091    1.0417    0.0000 C   0  0  0  0  0  0  0  0  0  0  0  0
  1  2  1  0
  2  3  2  0
  2  7  1  0
  3  4  1  0
  4  5  2  0
  5  6  1  0
  5  8  1  0
  6  7  2  0
  8  9  1  0
  8 10  2  0
 11 12  2  0
 11  1  1  0
 13 11  1  0
M  END
>  <DRUGBANK_ID>  (1) 
DB04500

>  <SECONDARY_ACCESSION_NUMBERS>  (1) 
EXPT03145

>  <COMMON_NAME>  (1) 
Acedoben

>  <CAS_NUMBER>  (1) 
556-08-1

>  <UNII>  (1) 
04Z20NMK31

>  <SYNONYMS>  (1) 
4-(Acetylamino)benzoic acid; 4-acetamidobenzoic acid; 4-Acetylaminobenzoic acid; 4-Carboxyacetanilide; Acedoben; Acedobene; Acedobenum; N-Acetyl-p-aminobenzoic acid; N-Acetyl-PABA; p-Acetamidobenzoic acid; p-Acetoaminobenzoic acid; p-Acetylaminobenzoic acid; PAAB; Para acetamido benzoic acid

$$$$
