
     RDKit          2D

 28 31  0  0  0  0  0  0  0  0999 V2000
   -1.1578   -0.5230    0.0000 C   0  0  0  0  0  0  0  0  0  0  0  0
   -1.8722   -0.9356    0.0000 N   0  0  0  0  0  0  0  0  0  0  0  0
   -1.8722   -1.7607    0.0000 C   0  0  0  0  0  0  0  0  0  0  0  0
   -1.1578   -2.1732    0.0000 C   0  0  0  0  0  0  0  0  0  0  0  0
   -0.4433   -1.7607    0.0000 C   0  0  0  0  0  0  0  0  0  0  0  0
   -0.4433   -0.9356    0.0000 C   0  0  0  0  0  0  0  0  0  0  0  0
    0.3413   -2.0157    0.0000 N   0  0  0  0  0  0  0  0  0  0  0  0
    0.8263   -1.3482    0.0000 N   0  0  0  0  0  0  0  0  0  0  0  0
    0.3413   -0.6808    0.0000 C   0  0  0  0  0  0  0  0  0  0  0  0
    1.6513   -1.3482    0.0000 C   0  0  0  0  0  0  0  0  0  0  0  0
    3.3014   -1.3482    0.0000 C   0  0  0  0  0  0  0  0  0  0  0  0
    2.8889   -0.6336    0.0000 C   0  0  0  0  0  0  0  0  0  0  0  0
    2.0639   -0.6336    0.0000 C   0  0  0  0  0  0  0  0  0  0  0  0
    2.0639   -2.0627    0.0000 C   0  0  0  0  0  0  0  0  0  0  0  0
    2.8889   -2.0627    0.0000 C   0  0  0  0  0  0  0  0  0  0  0  0
   -1.1578    0.3019    0.0000 C   0  0  0  0  0  0  0  0  0  0  0  0
   -0.4433    0.7145    0.0000 C   0  0  0  0  0  0  0  0  0  0  0  0
   -0.4433    1.5396    0.0000 C   0  0  0  0  0  0  0  0  0  0  0  0
   -1.1578    1.9520    0.0000 C   0  0  0  0  0  0  0  0  0  0  0  0
   -1.8722    1.5396    0.0000 C   0  0  0  0  0  0  0  0  0  0  0  0
   -1.8722    0.7145    0.0000 C   0  0  0  0  0  0  0  0  0  0  0  0
   -2.5868    1.9520    0.0000 N   0  0  0  0  0  0  0  0  0  0  0  0
   -3.3014    1.5396    0.0000 C   0  0  0  0  0  0  0  0  0  0  0  0
   -2.5868    2.7771    0.0000 C   0  0  0  0  0  0  0  0  0  0  0  0
   -2.5868   -0.5231    0.0000 C   0  0  0  0  0  0  0  0  0  0  0  0
   -2.5868   -2.1732    0.0000 O   0  0  0  0  0  0  0  0  0  0  0  0
    0.5963    0.1038    0.0000 O   0  0  0  0  0  0  0  0  0  0  0  0
    1.6513   -2.7772    0.0000 Cl  0  0  0  0  0  0  0  0  0  0  0  0
  1  2  1  0
  1  6  2  0
  1 16  1  0
  2  3  1  0
  2 25  1  0
  3  4  1  0
  3 26  2  0
  4  5  2  0
  5  7  1  0
  6  5  1  0
  6  9  1  0
  7  8  1  0
  8  9  1  0
  8 10  1  0
  9 27  2  0
 10 14  1  0
 11 12  2  0
 11 15  1  0
 12 13  1  0
 13 10  2  0
 14 15  2  0
 14 28  1  0
 16 17  2  0
 16 21  1  0
 17 18  1  0
 18 19  2  0
 19 20  1  0
 20 21  2  0
 20 22  1  0
 22 23  1  0
 22 24  1  0
M  END
>  <DRUGBANK_ID>  (1) 
DB16869

>  <COMMON_NAME>  (1) 
Setanaxib

>  <CAS_NUMBER>  (1) 
1218942-37-0

>  <UNII>  (1) 
45II35329V

>  <SYNONYMS>  (1) 
2-(2-chlorophenyl)-4-[3-(dimethylamino)phenyl]-5-methyl-1H-pyrazolo[4,3-C]pyridine-3,6(2H,5H)-dione; Setanaxib

$$$$
