
     RDKit          2D

 10  9  0  0  1  0  0  0  0  0999 V2000
    0.6336   -0.7145    0.0000 C   0  0  0  0  0  0  0  0  0  0  0  0
    1.3480   -0.3020    0.0000 C   0  0  0  0  0  0  0  0  0  0  0  0
    2.0625   -0.7145    0.0000 C   0  0  0  0  0  0  0  0  0  0  0  0
    2.7770   -0.3020    0.0000 C   0  0  0  0  0  0  0  0  0  0  0  0
    4.9204   -0.7145    0.0000 C   0  0  0  0  0  0  0  0  0  0  0  0
    3.4914   -0.7145    0.0000 C   0  0  0  0  0  0  0  0  0  0  0  0
    4.2059   -0.3020    0.0000 C   0  0  0  0  0  0  0  0  0  0  0  0
    5.6349   -0.3020    0.0000 O   0  0  0  0  0  0  0  0  0  0  0  0
    3.4914   -1.5395    0.0000 O   0  0  0  0  0  0  0  0  0  0  0  0
    4.2059    0.5230    0.0000 O   0  0  0  0  0  0  0  0  0  0  0  0
  2  1  1  0
  3  2  1  0
  4  3  1  0
  6  4  1  0
  6  9  1  6
  7  5  1  0
  7  6  1  0
  7 10  1  6
  8  5  1  0
M  END
>  <DRUGBANK_ID>  (1) 
DB04079

>  <SECONDARY_ACCESSION_NUMBERS>  (1) 
EXPT01791

>  <COMMON_NAME>  (1) 
Heptane-1,2,3-Triol

$$$$
