
     RDKit          2D

  1  0  0  0  0  0  0  0  0  0999 V2000
    0.0000    0.0000    0.0000 Cr  0  0  0  0  0 15  0  0  0  0  0  0
M  END
>  <DRUGBANK_ID>  (1) 
DB11136

>  <COMMON_NAME>  (1) 
Chromium

>  <CAS_NUMBER>  (1) 
7440-47-3

>  <UNII>  (1) 
0R0008Q3JB

>  <SYNONYMS>  (1) 
Biochrome; Chrom; Chromium, elemental; Cromo; Dinakrome

$$$$
