FRC
     RDKit          2D

 25 27  0  0  0  0  0  0  0  0999 V2000
   -1.0318    2.1632    0.0000 C   0  0  0  0  0  0  0  0  0  0  0  0
   -1.3673    1.4095    0.0000 N   0  0  0  0  0  0  0  0  0  0  0  0
   -2.1878    1.4957    0.0000 C   0  0  0  0  0  0  0  0  0  0  0  0
   -2.3593    2.3027    0.0000 N   0  0  0  0  0  0  0  0  0  0  0  0
   -1.6448    2.7152    0.0000 C   0  0  0  0  0  0  0  0  0  0  0  0
   -1.5586    3.5357    0.0000 C   0  0  0  0  0  0  0  0  0  0  0  0
   -2.2261    4.0206    0.0000 O   0  0  0  0  0  0  0  0  0  0  0  0
   -0.8049    3.8713    0.0000 N   0  0  0  0  0  0  0  0  0  0  0  0
   -0.9548    0.6950    0.0000 C   0  0  0  0  0  0  0  0  0  0  0  0
   -1.3673   -0.0194    0.0000 C   0  0  0  0  0  0  0  0  0  0  0  0
   -0.9548   -0.7339    0.0000 O   0  0  0  0  0  0  0  0  0  0  0  0
   -0.1298    0.6950    0.0000 C   0  0  0  0  0  0  0  0  0  0  0  0
    0.2827   -0.0194    0.0000 C   0  0  0  0  0  0  0  0  0  0  0  0
   -2.1923   -0.0194    0.0000 C   0  0  0  0  0  0  0  0  0  0  0  0
    1.1077   -0.0194    0.0000 O   0  0  0  0  0  0  0  0  0  0  0  0
    2.3452   -3.5918    0.0000 C   0  0  0  0  0  0  0  0  0  0  0  0
    2.7577   -2.8773    0.0000 C   0  0  0  0  0  0  0  0  0  0  0  0
    2.3452   -2.1628    0.0000 C   0  0  0  0  0  0  0  0  0  0  0  0
    1.5202   -2.1628    0.0000 C   0  0  0  0  0  0  0  0  0  0  0  0
    1.1077   -2.8773    0.0000 C   0  0  0  0  0  0  0  0  0  0  0  0
    1.5202   -3.5918    0.0000 C   0  0  0  0  0  0  0  0  0  0  0  0
    2.7577   -1.4484    0.0000 C   0  0  0  0  0  0  0  0  0  0  0  0
    2.3452   -0.7339    0.0000 C   0  0  0  0  0  0  0  0  0  0  0  0
    1.5202   -0.7339    0.0000 C   0  0  0  0  0  0  0  0  0  0  0  0
    1.1077   -1.4484    0.0000 C   0  0  0  0  0  0  0  0  0  0  0  0
  1  2  1  0
  1  5  2  0
  2  3  1  0
  3  4  2  0
  4  5  1  0
  5  6  1  0
  6  7  2  0
  6  8  1  0
  9  2  1  0
  9 10  1  0
  9 12  1  6
 10 11  1  0
 10 14  1  1
 12 13  1  0
 13 15  1  0
 15 24  1  0
 16 17  2  0
 16 21  1  0
 17 18  1  0
 18 19  2  0
 18 22  1  0
 19 20  1  0
 19 25  1  0
 20 21  2  0
 22 23  2  0
 23 24  1  0
 24 25  2  0
M  END
>  <DRUGBANK_ID>  (1) 
DB07785

>  <COMMON_NAME>  (1) 
1-{(1R,2S)-2-HYDROXY-1-[2-(2-NAPHTHYLOXY)ETHYL]PROPYL}-1H-IMIDAZONE-4-CARBOXAMIDE

$$$$
