
     RDKit          2D

 13 13  0  0  0  0  0  0  0  0999 V2000
   -0.4391    0.3808    0.0000 C   0  0  0  0  0  0  0  0  0  0  0  0
   -0.4391   -0.4460    0.0000 C   0  0  0  0  0  0  0  0  0  0  0  0
    0.2778    0.7926    0.0000 O   0  0  0  0  0  0  0  0  0  0  0  0
   -1.1562    0.7959    0.0000 C   0  0  0  0  0  0  0  0  0  0  0  0
    0.2778   -0.8542    0.0000 C   0  0  0  0  0  0  0  0  0  0  0  0
   -1.1493   -0.8577    0.0000 O   0  0  0  0  0  0  0  0  0  0  0  0
    0.9880    0.3808    0.0000 C   0  0  0  0  0  0  0  0  0  0  0  0
   -1.8664    0.3842    0.0000 O   0  0  0  0  0  0  0  0  0  0  0  0
   -1.1527    1.6159    0.0000 O   0  0  0  0  0  0  0  0  0  0  0  0
    0.9880   -0.4460    0.0000 C   0  0  0  0  0  0  0  0  0  0  0  0
    0.2778   -1.6776    0.0000 O   0  0  0  0  0  0  0  0  0  0  0  0
    1.7016    0.7891    0.0000 O   0  0  0  0  0  0  0  0  0  0  0  0
    1.6982   -0.8577    0.0000 O   0  0  0  0  0  0  0  0  0  0  0  0
  1  2  1  0
  1  3  1  0
  1  4  1  1
  2  5  1  0
  2  6  1  1
  3  7  1  0
  4  8  1  0
  4  9  2  0
  5 10  1  0
  5 11  1  1
  7 12  1  6
  7 10  1  0
 10 13  1  6
M  END
>  <DRUGBANK_ID>  (1) 
DB03511

>  <SECONDARY_ACCESSION_NUMBERS>  (1) 
EXPT01661; DB03334

>  <COMMON_NAME>  (1) 
alpha-D-galacturonic acid

>  <CAS_NUMBER>  (1) 
6294-16-2

>  <UNII>  (1) 
CEP8I6411H

>  <SYNONYMS>  (1) 
alpha-D-galactopyranuronic acid; α-D-galactopyranuronic acid; α-D-galacturonic acid

$$$$
