
     RDKit          2D

 13 12  0  0  0  0  0  0  0  0999 V2000
    0.6592    1.4437    0.0000 Be  0  0  0  0  0  4  0  0  0  0  0  0
    0.6592    0.6187    0.0000 O   0  0  0  0  0  0  0  0  0  0  0  0
   -0.0552    0.2062    0.0000 C   0  0  0  0  0  0  0  0  0  0  0  0
   -0.7697    0.6187    0.0000 O   0  0  0  0  0  0  0  0  0  0  0  0
   -0.0552   -0.6187    0.0000 C   0  0  0  0  0  0  0  0  0  0  0  0
   -0.7697   -1.0312    0.0000 C   0  0  0  0  0  0  0  0  0  0  0  0
   -0.7697   -1.8562    0.0000 C   0  0  0  0  0  0  0  0  0  0  0  0
   -1.4842   -2.2687    0.0000 O   0  0  0  0  0  0  0  0  0  0  0  0
   -0.0552   -2.2687    0.0000 O   0  0  0  0  0  0  0  0  0  0  0  0
   -1.4842   -0.6187    0.0000 N   0  0  0  0  0  0  0  0  0  0  0  0
    0.6592    2.2687    0.0000 F   0  0  0  0  0  0  0  0  0  0  0  0
    1.4842    1.4437    0.0000 F   0  0  0  0  0  0  0  0  0  0  0  0
   -0.1657    1.4437    0.0000 F   0  0  0  0  0  0  0  0  0  0  0  0
  1  2  1  0
  1 11  1  0
  1 12  1  0
  1 13  1  0
  2  3  1  0
  3  4  2  0
  3  5  1  0
  6  5  1  0
  6  7  1  0
  6 10  1  1
  7  8  2  0
  7  9  1  0
M  CHG  1   1  -2
M  END
>  <DRUGBANK_ID>  (1) 
DB04156

>  <SECONDARY_ACCESSION_NUMBERS>  (1) 
EXPT00678

>  <COMMON_NAME>  (1) 
Aspartate beryllium trifluoride

$$$$
