
     RDKit          2D

 18 19  0  0  0  0  0  0  0  0999 V2000
   -0.5317   -1.1682    0.0000 O   0  0  0  0  0  0  0  0  0  0  0  0
    1.5846   -1.4195    0.0000 O   0  0  0  0  0  0  0  0  0  0  0  0
    1.0293   -2.6192    0.0000 O   0  0  0  0  0  0  0  0  0  0  0  0
   -1.5846   -2.5353    0.0000 O   0  0  0  0  0  0  0  0  0  0  0  0
   -1.2965    0.1414    0.0000 O   0  0  0  0  0  0  0  0  0  0  0  0
    0.1335    0.1414    0.0000 N   0  0  0  0  0  0  0  0  0  0  0  0
   -0.5787    1.3829    0.0000 N   0  0  0  0  0  0  0  0  0  0  0  0
    0.1335    2.6192    0.0000 N   0  0  0  0  0  0  0  0  0  0  0  0
    0.7988   -1.1682    0.0000 C   0  0  0  0  0  0  0  0  0  0  0  0
    0.5473   -1.9539    0.0000 C   0  0  0  0  0  0  0  0  0  0  0  0
    0.1335   -0.6810    0.0000 C   0  0  0  0  0  0  0  0  0  0  0  0
   -0.2802   -1.9539    0.0000 C   0  0  0  0  0  0  0  0  0  0  0  0
    1.2860   -0.4976    0.0000 C   0  0  0  0  0  0  0  0  0  0  0  0
   -0.7621   -2.6192    0.0000 C   0  0  0  0  0  0  0  0  0  0  0  0
    0.8460    0.5552    0.0000 C   0  0  0  0  0  0  0  0  0  0  0  0
   -0.5787    0.5552    0.0000 C   0  0  0  0  0  0  0  0  0  0  0  0
    0.8460    1.3829    0.0000 C   0  0  0  0  0  0  0  0  0  0  0  0
    0.1335    1.7916    0.0000 C   0  0  0  0  0  0  0  0  0  0  0  0
  1 11  1  0
  1 12  1  0
  4 14  1  0
  5 16  2  0
  6 15  1  0
  6 16  1  0
  7 16  1  0
  7 18  2  0
  8 18  1  0
  9  2  1  0
  9 10  1  0
  9 11  1  0
  9 13  1  1
 10  3  1  6
 10 12  1  0
 11  6  1  1
 12 14  1  1
 15 17  2  0
 17 18  1  0
M  END
>  <DRUGBANK_ID>  (1) 
DB13921

>  <COMMON_NAME>  (1) 
2'-C-methylcytidine

>  <CAS_NUMBER>  (1) 
20724-73-6

>  <UNII>  (1) 
27FS20C1D8

>  <SYNONYMS>  (1) 
2'-C-Mecytosin; 2'C-Me-C

$$$$
