DPT
     RDKit          2D

 16 18  0  0  0  0  0  0  0  0999 V2000
   -0.6095   -1.3124    0.0000 N   0  0  0  0  0  0  0  0  0  0  0  0
   -1.4345   -1.3124    0.0000 C   0  0  0  0  0  0  0  0  0  0  0  0
   -1.8470   -0.5980    0.0000 C   0  0  0  0  0  0  0  0  0  0  0  0
   -1.4345    0.1165    0.0000 C   0  0  0  0  0  0  0  0  0  0  0  0
   -0.6095    0.1165    0.0000 C   0  0  0  0  0  0  0  0  0  0  0  0
   -0.1970    0.8310    0.0000 C   0  0  0  0  0  0  0  0  0  0  0  0
    0.6280    0.8310    0.0000 C   0  0  0  0  0  0  0  0  0  0  0  0
    1.0405    0.1165    0.0000 C   0  0  0  0  0  0  0  0  0  0  0  0
    1.8655    0.1165    0.0000 C   0  0  0  0  0  0  0  0  0  0  0  0
    2.2780   -0.5980    0.0000 C   0  0  0  0  0  0  0  0  0  0  0  0
    1.8655   -1.3124    0.0000 C   0  0  0  0  0  0  0  0  0  0  0  0
    1.0405   -1.3124    0.0000 N   0  0  0  0  0  0  0  0  0  0  0  0
    0.6280   -0.5980    0.0000 C   0  0  0  0  0  0  0  0  0  0  0  0
   -0.1970   -0.5980    0.0000 C   0  0  0  0  0  0  0  0  0  0  0  0
   -1.8470    0.8310    0.0000 C   0  0  0  0  0  0  0  0  0  0  0  0
    2.2780    0.8310    0.0000 C   0  0  0  0  0  0  0  0  0  0  0  0
  1  2  2  0
  1 14  1  0
  2  3  1  0
  3  4  2  0
  4  5  1  0
  4 15  1  0
  5  6  1  0
  5 14  2  0
  6  7  2  0
  7  8  1  0
  8  9  1  0
  8 13  2  0
  9 10  2  0
  9 16  1  0
 10 11  1  0
 11 12  2  0
 12 13  1  0
 13 14  1  0
M  END
>  <DRUGBANK_ID>  (1) 
DB02586

>  <SECONDARY_ACCESSION_NUMBERS>  (1) 
EXPT01261

>  <COMMON_NAME>  (1) 
4,7-Dimethyl-[1,10]Phenanthroline

>  <CAS_NUMBER>  (1) 
3248-05-3

>  <UNII>  (1) 
P3YJ54Z8ZO

$$$$
