SCX
     RDKit          2D

 28 31  0  0  0  0  0  0  0  0999 V2000
   -1.7718    1.4215    0.0000 C   0  0  0  0  0  0  0  0  0  0  0  0
   -0.9872    1.1665    0.0000 C   0  0  0  0  0  0  0  0  0  0  0  0
   -0.9872    0.3415    0.0000 N   0  0  0  0  0  0  0  0  0  0  0  0
   -1.7718    0.0866    0.0000 N   0  0  0  0  0  0  0  0  0  0  0  0
   -2.2567    0.7540    0.0000 C   0  0  0  0  0  0  0  0  0  0  0  0
   -0.2727    1.5790    0.0000 N   0  0  0  0  0  0  0  0  0  0  0  0
    0.4418    1.1665    0.0000 C   0  0  0  0  0  0  0  0  0  0  0  0
    0.4418    0.3415    0.0000 C   0  0  0  0  0  0  0  0  0  0  0  0
   -0.2727   -0.0710    0.0000 C   0  0  0  0  0  0  0  0  0  0  0  0
   -0.2727   -0.8960    0.0000 N   0  0  0  0  0  0  0  0  0  0  0  0
    1.1562    1.5790    0.0000 C   0  0  0  0  0  0  0  0  0  0  0  0
    0.4418   -1.3085    0.0000 C   0  0  0  0  0  0  0  0  0  0  0  0
    0.4418   -2.1335    0.0000 C   0  0  0  0  0  0  0  0  0  0  0  0
    1.1562   -2.5460    0.0000 C   0  0  0  0  0  0  0  0  0  0  0  0
    1.1562   -3.3710    0.0000 N   0  0  0  0  0  0  0  0  0  0  0  0
    0.4418   -3.7835    0.0000 C   0  0  0  0  0  0  0  0  0  0  0  0
   -0.2727   -3.3710    0.0000 N   0  0  0  0  0  0  0  0  0  0  0  0
   -0.2727   -2.5460    0.0000 C   0  0  0  0  0  0  0  0  0  0  0  0
    1.1562    2.4040    0.0000 C   0  0  0  0  0  0  0  0  0  0  0  0
    1.8707    2.8165    0.0000 C   0  0  0  0  0  0  0  0  0  0  0  0
    2.5852    2.4040    0.0000 C   0  0  0  0  0  0  0  0  0  0  0  0
    2.5852    1.5790    0.0000 C   0  0  0  0  0  0  0  0  0  0  0  0
    1.8707    1.1665    0.0000 C   0  0  0  0  0  0  0  0  0  0  0  0
   -2.0267    2.2061    0.0000 C   0  0  0  0  0  0  0  0  0  0  0  0
    0.4418   -4.6085    0.0000 N   0  0  0  0  0  0  0  0  0  0  0  0
   -2.8337    2.3776    0.0000 C   0  0  0  0  0  0  0  0  0  0  0  0
    0.4418    2.8165    0.0000 F   0  0  0  0  0  0  0  0  0  0  0  0
    1.8707    0.3415    0.0000 F   0  0  0  0  0  0  0  0  0  0  0  0
  1  2  2  0
  1 24  1  0
  2  6  1  0
  3  9  1  0
  3  2  1  0
  4  5  2  0
  4  3  1  0
  5  1  1  0
  6  7  2  0
  7 11  1  0
  8  7  1  0
  9  8  2  0
 10 12  1  0
 10  9  1  0
 11 19  2  0
 13 14  2  0
 13 12  1  0
 15 14  1  0
 16 15  2  0
 17 16  1  0
 17 18  2  0
 18 13  1  0
 19 27  1  0
 19 20  1  0
 21 20  2  0
 22 21  1  0
 23 11  1  0
 23 22  2  0
 25 16  1  0
 26 24  1  0
 28 23  1  0
M  END
>  <DRUGBANK_ID>  (1) 
DB08538

>  <COMMON_NAME>  (1) 
N-((2-aminopyrimidin-5-yl)methyl)-5-(2,6-difluorophenyl)-3-ethylpyrazolo[1,5-a]pyrimidin-7-amine

$$$$
