
     RDKit          2D

  9  9  0  0  0  0  0  0  0  0999 V2000
    2.1434    1.2375    0.0000 N   0  0  0  0  0  0  0  0  0  0  0  0
    1.4289    0.8250    0.0000 C   0  0  0  0  0  0  0  0  0  0  0  0
    1.4289    0.0000    0.0000 C   0  0  0  0  0  0  0  0  0  0  0  0
    0.7145   -0.4125    0.0000 N   0  0  0  0  0  0  0  0  0  0  0  0
    0.0000    0.0000    0.0000 C   0  0  0  0  0  0  0  0  0  0  0  0
   -0.7145   -0.4125    0.0000 O   0  0  0  0  0  0  0  0  0  0  0  0
    0.0000    0.8250    0.0000 N   0  0  0  0  0  0  0  0  0  0  0  0
    0.7145    1.2375    0.0000 C   0  0  0  0  0  0  0  0  0  0  0  0
    0.7145    2.0625    0.0000 O   0  0  0  0  0  0  0  0  0  0  0  0
  1  2  1  0
  2  3  2  0
  2  8  1  0
  3  4  1  0
  4  5  1  0
  5  6  2  0
  5  7  1  0
  7  8  1  0
  8  9  2  0
M  END
>  <DRUGBANK_ID>  (1) 
DB03792

>  <SECONDARY_ACCESSION_NUMBERS>  (1) 
EXPT03241

>  <COMMON_NAME>  (1) 
5-Aminouracil

>  <CAS_NUMBER>  (1) 
932-52-5

>  <UNII>  (1) 
R2O7EKY9G9

>  <SYNONYMS>  (1) 
5-Amino-2,4-dihydroxypyrimidine; 5-aminopyrimidine-2,4(1H,3H)-dione

$$$$
