998
     RDKit          2D

 32 34  0  0  0  0  0  0  0  0999 V2000
    0.6950   -2.5507    0.0000 C   0  0  0  0  0  0  0  0  0  0  0  0
    1.5020   -2.3791    0.0000 C   0  0  0  0  0  0  0  0  0  0  0  0
    0.4400   -3.3353    0.0000 C   0  0  0  0  0  0  0  0  0  0  0  0
    0.1429   -1.9376    0.0000 C   0  0  0  0  0  0  0  0  0  0  0  0
    1.7569   -1.5945    0.0000 N   0  0  0  0  0  0  0  0  0  0  0  0
    2.0540   -2.9922    0.0000 C   0  0  0  0  0  0  0  0  0  0  0  0
    0.9921   -3.9484    0.0000 C   0  0  0  0  0  0  0  0  0  0  0  0
   -0.3669   -3.5068    0.0000 C   0  0  0  0  0  0  0  0  0  0  0  0
   -0.6640   -2.1091    0.0000 C   0  0  0  0  0  0  0  0  0  0  0  0
    1.2049   -0.9814    0.0000 C   0  0  0  0  0  0  0  0  0  0  0  0
    1.7990   -3.7769    0.0000 C   0  0  0  0  0  0  0  0  0  0  0  0
   -0.9190   -2.8937    0.0000 C   0  0  0  0  0  0  0  0  0  0  0  0
    1.4598   -0.1968    0.0000 C   0  0  0  0  0  0  0  0  0  0  0  0
    0.3979   -1.1530    0.0000 O   0  0  0  0  0  0  0  0  0  0  0  0
    0.9749    0.4706    0.0000 N   0  0  0  0  0  0  0  0  0  0  0  0
    2.2444    0.0581    0.0000 C   0  0  0  0  0  0  0  0  0  0  0  0
    0.1499    0.4706    0.0000 C   0  0  0  0  0  0  0  0  0  0  0  0
    1.4598    1.1381    0.0000 C   0  0  0  0  0  0  0  0  0  0  0  0
    2.2444    0.8831    0.0000 C   0  0  0  0  0  0  0  0  0  0  0  0
   -0.2626    1.1851    0.0000 C   0  0  0  0  0  0  0  0  0  0  0  0
   -0.2626   -0.2438    0.0000 O   0  0  0  0  0  0  0  0  0  0  0  0
   -1.0876    1.1851    0.0000 N   0  0  0  0  0  0  0  0  0  0  0  0
    0.1499    1.8996    0.0000 C   0  0  0  0  0  0  0  0  0  0  0  0
   -1.5001    1.8996    0.0000 C   0  0  0  0  0  0  0  0  0  0  0  0
    0.8643    1.4871    0.0000 C   0  0  0  0  0  0  0  0  0  0  0  0
   -0.5646    2.3121    0.0000 C   0  0  0  0  0  0  0  0  0  0  0  0
    0.5624    2.6140    0.0000 C   0  0  0  0  0  0  0  0  0  0  0  0
   -2.3251    1.8996    0.0000 C   0  0  0  0  0  0  0  0  0  0  0  0
   -1.0876    2.6140    0.0000 O   0  0  0  0  0  0  0  0  0  0  0  0
   -2.7376    2.6140    0.0000 N   0  0  0  0  0  0  0  0  0  0  0  0
   -2.7376    1.1851    0.0000 C   0  0  0  0  0  0  0  0  0  0  0  0
   -3.5626    2.6140    0.0000 C   0  0  0  0  0  0  0  0  0  0  0  0
  1  2  1  0
  1  3  1  0
  1  4  2  0
  2  5  1  6
  2  6  1  0
  3  7  1  0
  3  8  2  0
  4  9  1  0
  5 10  1  0
  6 11  1  0
  7 11  1  0
  8 12  1  0
  9 12  2  0
 10 14  2  0
 13 10  1  1
 13 15  1  0
 13 16  1  0
 15 17  1  0
 15 18  1  0
 16 19  1  0
 17 20  1  0
 17 21  2  0
 18 19  1  0
 20 22  1  1
 20 23  1  0
 22 24  1  0
 23 25  1  0
 23 26  1  0
 23 27  1  0
 24 28  1  0
 24 29  2  0
 28 30  1  0
 28 31  1  6
 30 32  1  0
M  END
>  <DRUGBANK_ID>  (1) 
DB02628

>  <SECONDARY_ACCESSION_NUMBERS>  (1) 
EXPT00351

>  <COMMON_NAME>  (1) 
1-[3,3-Dimethyl-2-(2-Methylamino-Propionylamino)-Butyryl]-Pyrrolidine-2-Carboxylic Acid(1,2,3,4-Tetrahydro-Naphthalen-1-Yl)-Amide

$$$$
