
     RDKit          2D

 21 24  0  0  0  0  0  0  0  0999 V2000
    0.0797   -1.5805    0.0000 C   0  0  0  0  0  0  0  0  0  0  0  0
    0.7941   -1.1680    0.0000 C   0  0  0  0  0  0  0  0  0  0  0  0
   -0.6347   -1.1680    0.0000 C   0  0  0  0  0  0  0  0  0  0  0  0
   -0.6347   -0.3429    0.0000 C   0  0  0  0  0  0  0  0  0  0  0  0
    0.0797    0.0694    0.0000 C   0  0  0  0  0  0  0  0  0  0  0  0
    0.7941   -0.3429    0.0000 C   0  0  0  0  0  0  0  0  0  0  0  0
    0.0797    0.8945    0.0000 C   0  0  0  0  0  0  0  0  0  0  0  0
    2.2933   -0.1853    0.0000 C   0  0  0  0  0  0  0  0  0  0  0  0
   -1.3492    0.0694    0.0000 C   0  0  0  0  0  0  0  0  0  0  0  0
    0.7941    1.3070    0.0000 C   0  0  0  0  0  0  0  0  0  0  0  0
    2.2933    1.1494    0.0000 C   0  0  0  0  0  0  0  0  0  0  0  0
    2.7782    0.4820    0.0000 C   0  0  0  0  0  0  0  0  0  0  0  0
   -1.3492   -1.5805    0.0000 C   0  0  0  0  0  0  0  0  0  0  0  0
   -2.0637   -0.3429    0.0000 C   0  0  0  0  0  0  0  0  0  0  0  0
    2.5482    1.9341    0.0000 O   0  0  0  0  0  0  0  0  0  0  0  0
   -2.0637   -1.1680    0.0000 C   0  0  0  0  0  0  0  0  0  0  0  0
   -2.7782   -1.5805    0.0000 O   0  0  0  0  0  0  0  0  0  0  0  0
   -0.6347    0.4820    0.0000 C   0  0  0  0  0  0  0  0  0  0  0  0
    1.5086    0.0694    0.0000 C   0  0  0  0  0  0  0  0  0  0  0  0
    1.5086    0.8945    0.0000 C   0  0  0  0  0  0  0  0  0  0  0  0
    1.5086    1.7195    0.0000 C   0  0  0  0  0  0  0  0  0  0  0  0
  3  1  1  1
  2  1  1  0
  3 13  1  0
  4  3  1  0
  4  9  1  0
  4 18  1  1
  5  4  1  0
  5  7  1  1
  5  6  1  0
  6  2  1  6
  6 19  1  0
  7 10  1  0
  8 12  1  0
  9 14  2  0
 11 15  2  0
 11 12  1  0
 13 16  1  0
 14 16  1  0
 16 17  2  0
 19  8  1  1
 19 20  1  0
 20 10  1  0
 20 11  1  0
 20 21  1  1
M  END
>  <DRUGBANK_ID>  (1) 
DB01451

>  <COMMON_NAME>  (1) 
1-Androstenedione

>  <CAS_NUMBER>  (1) 
571-40-4

>  <UNII>  (1) 
C1091EX356

>  <SYNONYMS>  (1) 
5alpha-androst-1-ene-3,17-dione

$$$$
