
     RDKit          2D

 28 29  0  0  0  0  0  0  0  0999 V2000
    1.1399   -2.2083    0.0000 P   0  0  0  0  0  0  0  0  0  0  0  0
    2.4453   -2.7894    0.0000 P   0  0  0  0  0  0  0  0  0  0  0  0
   -0.3954   -0.1749    0.0000 O   0  0  0  0  0  0  0  0  0  0  0  0
   -1.9604   -1.6271    0.0000 O   0  0  0  0  0  0  0  0  0  0  0  0
    0.6550   -1.5408    0.0000 O   0  0  0  0  0  0  0  0  0  0  0  0
   -2.4920    1.1349    0.0000 O   0  0  0  0  0  0  0  0  0  0  0  0
    1.6249   -2.8757    0.0000 O   0  0  0  0  0  0  0  0  0  0  0  0
   -3.1165   -0.7871    0.0000 O   0  0  0  0  0  0  0  0  0  0  0  0
    1.8073   -1.7234    0.0000 O   0  0  0  0  0  0  0  0  0  0  0  0
   -1.0629    3.6100    0.0000 O   0  0  0  0  0  0  0  0  0  0  0  0
    0.4724   -2.6932    0.0000 O   0  0  0  0  0  0  0  0  0  0  0  0
    2.5316   -3.6100    0.0000 O   0  0  0  0  0  0  0  0  0  0  0  0
    3.2658   -2.7032    0.0000 O   0  0  0  0  0  0  0  0  0  0  0  0
    2.3591   -1.9689    0.0000 O   0  0  0  0  0  0  0  0  0  0  0  0
   -1.0629    1.1349    0.0000 N   0  0  0  0  0  0  0  0  0  0  0  0
   -1.7774    2.3724    0.0000 N   0  0  0  0  0  0  0  0  0  0  0  0
   -1.4755   -0.9595    0.0000 C   0  0  0  0  0  0  0  0  0  0  0  0
   -0.6504   -0.9595    0.0000 C   0  0  0  0  0  0  0  0  0  0  0  0
   -1.7304   -0.1749    0.0000 C   0  0  0  0  0  0  0  0  0  0  0  0
   -1.0629    0.3099    0.0000 C   0  0  0  0  0  0  0  0  0  0  0  0
   -0.1654   -1.6271    0.0000 C   0  0  0  0  0  0  0  0  0  0  0  0
   -0.3484    1.5475    0.0000 C   0  0  0  0  0  0  0  0  0  0  0  0
   -1.7774    1.5475    0.0000 C   0  0  0  0  0  0  0  0  0  0  0  0
   -0.3484    2.3724    0.0000 C   0  0  0  0  0  0  0  0  0  0  0  0
   -2.7809   -1.5408    0.0000 C   0  0  0  0  0  0  0  0  0  0  0  0
   -1.0629    2.7850    0.0000 C   0  0  0  0  0  0  0  0  0  0  0  0
    0.3659    2.7850    0.0000 C   0  0  0  0  0  0  0  0  0  0  0  0
   -3.2658   -2.2083    0.0000 C   0  0  0  0  0  0  0  0  0  0  0  0
  1  5  1  0
  1  7  1  0
  1  9  1  0
  1 11  2  0
  2  7  1  0
  2 12  1  0
  2 13  1  0
  2 14  2  0
  3 18  1  0
  3 20  1  0
  4 25  1  0
  5 21  1  0
  6 23  2  0
  8 25  2  0
 10 26  2  0
 15 22  1  0
 15 23  1  0
 16 23  1  0
 16 26  1  0
 17  4  1  1
 17 18  1  0
 17 19  1  0
 18 21  1  6
 19 20  1  0
 20 15  1  6
 22 24  2  0
 24 26  1  0
 24 27  1  0
 25 28  1  0
M  END
>  <DRUGBANK_ID>  (1) 
DB02549

>  <SECONDARY_ACCESSION_NUMBERS>  (1) 
EXPT00591

>  <COMMON_NAME>  (1) 
3'-O-Acetylthymidine-5'-diphosphate

>  <SYNONYMS>  (1) 
3'-O-Acetylthymidine 5'-(trihydrogen diphosphate)

$$$$
