PSN
     RDKit          2D

 20 21  0  0  0  0  0  0  0  0999 V2000
   -2.2326   -0.9196    0.0000 C   0  0  0  0  0  0  0  0  0  0  0  0
   -2.9471   -0.5071    0.0000 C   0  0  0  0  0  0  0  0  0  0  0  0
   -2.9471    0.3179    0.0000 C   0  0  0  0  0  0  0  0  0  0  0  0
   -2.2326    0.7304    0.0000 C   0  0  0  0  0  0  0  0  0  0  0  0
   -1.5181    0.3179    0.0000 C   0  0  0  0  0  0  0  0  0  0  0  0
   -1.5181   -0.5071    0.0000 C   0  0  0  0  0  0  0  0  0  0  0  0
   -2.2326    1.5554    0.0000 C   0  0  0  0  0  0  0  0  0  0  0  0
   -0.8037    0.7304    0.0000 O   0  0  0  0  0  0  0  0  0  0  0  0
   -0.0892    0.3179    0.0000 P   0  0  0  0  0  0  0  0  0  0  0  0
    0.6253   -0.0946    0.0000 O   0  0  0  0  0  0  0  0  0  0  0  0
   -0.5017   -0.3966    0.0000 O   0  0  0  0  0  0  0  0  0  0  0  0
    1.3397    0.3179    0.0000 C   0  0  0  0  0  0  0  0  0  0  0  0
    2.0542   -0.0946    0.0000 C   0  0  0  0  0  0  0  0  0  0  0  0
    2.7687    0.3179    0.0000 C   0  0  0  0  0  0  0  0  0  0  0  0
    3.4831   -0.0946    0.0000 C   0  0  0  0  0  0  0  0  0  0  0  0
    3.4831   -0.9196    0.0000 C   0  0  0  0  0  0  0  0  0  0  0  0
    2.7687   -1.3321    0.0000 C   0  0  0  0  0  0  0  0  0  0  0  0
    2.0542   -0.9196    0.0000 C   0  0  0  0  0  0  0  0  0  0  0  0
    0.3233    1.0324    0.0000 O   0  0  0  0  0  0  0  0  0  0  0  0
   -1.5181    1.9679    0.0000 O   0  0  0  0  0  0  0  0  0  0  0  0
  1  2  2  0
  1  6  1  0
  2  3  1  0
  3  4  2  0
  4  5  1  0
  4  7  1  0
  5  6  2  0
  5  8  1  0
  7 20  2  0
  9  8  1  0
  9 10  1  0
  9 11  2  0
  9 19  1  0
 10 12  1  0
 12 13  1  0
 13 14  2  0
 13 18  1  0
 14 15  1  0
 15 16  2  0
 16 17  1  0
 17 18  2  0
M  END
>  <DRUGBANK_ID>  (1) 
DB03078

>  <SECONDARY_ACCESSION_NUMBERS>  (1) 
EXPT02673

>  <COMMON_NAME>  (1) 
PASBN

$$$$
