GK4
     RDKit          2D

 26 29  0  0  0  0  0  0  0  0999 V2000
   -1.2287    2.4110    0.0000 O   0  0  0  0  0  0  0  0  0  0  0  0
   -0.5143    1.9985    0.0000 C   0  0  0  0  0  0  0  0  0  0  0  0
    0.2002    2.4110    0.0000 N   0  0  0  0  0  0  0  0  0  0  0  0
    0.2002    3.2360    0.0000 C   0  0  0  0  0  0  0  0  0  0  0  0
    0.9147    3.6485    0.0000 C   0  0  0  0  0  0  0  0  0  0  0  0
    1.3272    4.3630    0.0000 C   0  0  0  0  0  0  0  0  0  0  0  0
    1.7397    3.6485    0.0000 C   0  0  0  0  0  0  0  0  0  0  0  0
   -0.5143    1.1735    0.0000 C   0  0  0  0  0  0  0  0  0  0  0  0
   -1.2287    0.7610    0.0000 C   0  0  0  0  0  0  0  0  0  0  0  0
   -1.2287   -0.0640    0.0000 C   0  0  0  0  0  0  0  0  0  0  0  0
    0.2002    0.7610    0.0000 C   0  0  0  0  0  0  0  0  0  0  0  0
    0.2002   -0.0640    0.0000 C   0  0  0  0  0  0  0  0  0  0  0  0
   -0.5143   -0.4765    0.0000 C   0  0  0  0  0  0  0  0  0  0  0  0
   -0.5143   -1.3015    0.0000 C   0  0  0  0  0  0  0  0  0  0  0  0
   -1.2287   -1.7140    0.0000 C   0  0  0  0  0  0  0  0  0  0  0  0
   -1.9432   -1.3015    0.0000 C   0  0  0  0  0  0  0  0  0  0  0  0
   -1.2287   -2.5390    0.0000 C   0  0  0  0  0  0  0  0  0  0  0  0
   -0.5143   -2.9515    0.0000 C   0  0  0  0  0  0  0  0  0  0  0  0
    0.2002   -1.7140    0.0000 C   0  0  0  0  0  0  0  0  0  0  0  0
    0.2002   -2.5390    0.0000 C   0  0  0  0  0  0  0  0  0  0  0  0
    0.9147   -2.9515    0.0000 C   0  0  0  0  0  0  0  0  0  0  0  0
    1.0009   -3.7720    0.0000 N   0  0  0  0  0  0  0  0  0  0  0  0
    1.8079   -3.9435    0.0000 N   0  0  0  0  0  0  0  0  0  0  0  0
    1.6683   -2.6159    0.0000 O   0  0  0  0  0  0  0  0  0  0  0  0
    2.2204   -3.2290    0.0000 C   0  0  0  0  0  0  0  0  0  0  0  0
    3.0409   -3.1428    0.0000 C   0  0  0  0  0  0  0  0  0  0  0  0
  2  1  2  0
  3  4  1  0
  3  2  1  0
  5  4  1  0
  6  7  1  0
  6  5  1  0
  7  5  1  0
  8  2  1  0
  8 11  1  0
  9  8  2  0
 10  9  1  0
 10 13  2  0
 12 11  2  0
 13 12  1  0
 14 13  1  0
 14 19  2  0
 15 17  2  0
 15 14  1  0
 16 15  1  0
 17 18  1  0
 18 20  2  0
 19 20  1  0
 20 21  1  0
 21 24  1  0
 21 22  2  0
 22 23  1  0
 24 25  1  0
 25 26  1  0
 25 23  2  0
M  END
>  <DRUGBANK_ID>  (1) 
DB07834

>  <COMMON_NAME>  (1) 
N-(cyclopropylmethyl)-2'-methyl-5'-(5-methyl-1,3,4-oxadiazol-2-yl)biphenyl-4-carboxamide

$$$$
