MHB
     RDKit          2D

 19 20  0  0  0  0  0  0  0  0999 V2000
    0.4739   -1.3993    0.0000 C   0  0  0  0  0  0  0  0  0  0  0  0
    1.1884   -1.8118    0.0000 C   0  0  0  0  0  0  0  0  0  0  0  0
    1.1884   -2.6368    0.0000 C   0  0  0  0  0  0  0  0  0  0  0  0
    0.4739   -3.0493    0.0000 C   0  0  0  0  0  0  0  0  0  0  0  0
   -0.2405   -2.6368    0.0000 C   0  0  0  0  0  0  0  0  0  0  0  0
   -0.2405   -1.8118    0.0000 C   0  0  0  0  0  0  0  0  0  0  0  0
   -0.2405    0.6632    0.0000 C   0  0  0  0  0  0  0  0  0  0  0  0
   -0.9550    1.0757    0.0000 C   0  0  0  0  0  0  0  0  0  0  0  0
   -0.9550    1.9007    0.0000 C   0  0  0  0  0  0  0  0  0  0  0  0
   -0.2405    2.3132    0.0000 C   0  0  0  0  0  0  0  0  0  0  0  0
    0.4739    1.9007    0.0000 C   0  0  0  0  0  0  0  0  0  0  0  0
    0.4739    1.0757    0.0000 C   0  0  0  0  0  0  0  0  0  0  0  0
    1.9029   -1.3993    0.0000 C   0  0  0  0  0  0  0  0  0  0  0  0
   -1.6695    2.3132    0.0000 C   0  0  0  0  0  0  0  0  0  0  0  0
    0.4739   -0.5743    0.0000 N   0  0  0  0  0  0  0  0  0  0  0  0
   -0.2405   -0.1618    0.0000 N   0  0  0  0  0  0  0  0  0  0  0  0
    2.6173   -1.8118    0.0000 O   0  0  0  0  0  0  0  0  0  0  0  0
    1.9029   -0.5743    0.0000 O   0  0  0  0  0  0  0  0  0  0  0  0
   -0.2405    3.1382    0.0000 O   0  0  0  0  0  0  0  0  0  0  0  0
  1  2  2  0
  1  6  1  0
  1 15  1  0
  2  3  1  0
  2 13  1  0
  3  4  2  0
  4  5  1  0
  5  6  2  0
  7  8  2  0
  7 12  1  0
  7 16  1  0
  8  9  1  0
  9 10  2  0
  9 14  1  0
 10 11  1  0
 10 19  1  0
 11 12  2  0
 13 17  2  0
 13 18  1  0
 15 16  2  0
M  END
>  <DRUGBANK_ID>  (1) 
DB08181

>  <COMMON_NAME>  (1) 
2-((3'-METHYL-4'-HYDROXYPHENYL)AZO)BENZOIC ACID

$$$$
