
     RDKit          2D

  8  7  0  0  0  0  0  0  0  0999 V2000
    1.0461    1.4289    0.0000 N   0  0  0  0  0  0  0  0  0  0  0  0
    1.7605    1.8414    0.0000 C   0  0  0  0  0  0  0  0  0  0  0  0
    2.4750    1.4289    0.0000 C   0  0  0  0  0  0  0  0  0  0  0  0
    3.1895    1.8414    0.0000 C   0  0  0  0  0  0  0  0  0  0  0  0
    3.9039    1.4289    0.0000 C   0  0  0  0  0  0  0  0  0  0  0  0
    4.6184    1.8414    0.0000 C   0  0  0  0  0  0  0  0  0  0  0  0
    5.3329    1.4289    0.0000 C   0  0  0  0  0  0  0  0  0  0  0  0
    6.0474    1.8414    0.0000 N   0  0  0  0  0  0  0  0  0  0  0  0
  1  2  1  0
  2  3  1  0
  3  4  1  0
  4  5  1  0
  5  6  1  0
  6  7  1  0
  7  8  1  0
M  END
>  <DRUGBANK_ID>  (1) 
DB03260

>  <SECONDARY_ACCESSION_NUMBERS>  (1) 
EXPT00049

>  <COMMON_NAME>  (1) 
Hexamethylene diamine

>  <CAS_NUMBER>  (1) 
124-09-4

>  <UNII>  (1) 
ZRA5J5B2QW

>  <SYNONYMS>  (1) 
1,6-diamino-n-hexane; 1,6-diaminohexane; 1,6-hexamethylenediamine; 1,6-hexanediamine; 1,6-hexylenediamine; diaminohexane; HEX-NH2; hexamethylene diamine; hexamethylenediamine; hexylenediamine; HMDA

$$$$
