
     RDKit          2D

 21 22  0  0  0  0  0  0  0  0999 V2000
    2.6127   -1.6228    0.0000 O   0  0  0  0  0  0  0  0  0  0  0  0
    2.6126   -0.7978    0.0000 C   0  0  0  0  0  0  0  0  0  0  0  0
    3.3271   -0.3853    0.0000 O   0  0  0  0  0  0  0  0  0  0  0  0
    1.8982   -0.3854    0.0000 C   0  0  0  0  0  0  0  0  0  0  0  0
    1.1837   -0.7979    0.0000 N   0  0  0  0  0  0  0  0  0  0  0  0
    1.8982    0.4395    0.0000 C   0  0  0  0  0  0  0  0  0  0  0  0
    2.6127    0.8520    0.0000 C   0  0  0  0  0  0  0  0  0  0  0  0
    2.6126    1.6770    0.0000 O   0  0  0  0  0  0  0  0  0  0  0  0
    3.3272    0.4396    0.0000 O   0  0  0  0  0  0  0  0  0  0  0  0
   -2.7752   -1.6770    0.0000 C   0  0  0  0  0  0  0  0  0  0  0  0
   -3.3272   -1.0640    0.0000 C   0  0  0  0  0  0  0  0  0  0  0  0
   -1.9682   -1.5055    0.0000 C   0  0  0  0  0  0  0  0  0  0  0  0
   -3.0722   -0.2793    0.0000 C   0  0  0  0  0  0  0  0  0  0  0  0
   -0.2451   -0.7979    0.0000 C   0  0  0  0  0  0  0  0  0  0  0  0
   -1.0458    0.4351    0.0000 C   0  0  0  0  0  0  0  0  0  0  0  0
   -0.9595   -0.3852    0.0000 C   0  0  0  0  0  0  0  0  0  0  0  0
   -1.7132   -0.7209    0.0000 C   0  0  0  0  0  0  0  0  0  0  0  0
   -2.2653   -0.1078    0.0000 C   0  0  0  0  0  0  0  0  0  0  0  0
    0.4693   -0.3854    0.0000 C   0  0  0  0  0  0  0  0  0  0  0  0
   -1.8528    0.6066    0.0000 N   0  0  0  0  0  0  0  0  0  0  0  0
    0.4693    0.4396    0.0000 O   0  0  0  0  0  0  0  0  0  0  0  0
  2  1  2  0
  3  2  1  0
  4  2  1  0
  4  5  1  0
  4  6  1  1
  7  6  1  0
  8  7  2  0
  9  7  1  0
 10 11  2  0
 10 12  1  0
 11 13  1  0
 12 17  2  0
 13 18  2  0
 14 16  1  0
 14 19  1  0
 15 16  2  0
 15 20  1  0
 16 17  1  0
 17 18  1  0
 18 20  1  0
 19  5  1  0
 19 21  2  0
M  END
>  <DRUGBANK_ID>  (1) 
DB07951

>  <COMMON_NAME>  (1) 
N-(indole-3-acetyl)-L-aspartic acid

>  <CAS_NUMBER>  (1) 
2456-73-7

>  <UNII>  (1) 
5V1L30W0M7

>  <SYNONYMS>  (1) 
IAASP; N-(indol-3-ylacetyl)-L-aspartic acid; N-(indol-3-ylacetyl)aspartic acid; N-(indole-3-acetyl)aspartic acid

$$$$
