
     RDKit          2D

 10 11  0  0  0  0  0  0  0  0999 V2000
    3.3237    1.0799    0.0000 C   0  0  0  0  0  0  0  0  0  0  0  0
    0.7846    1.0799    0.0000 C   0  0  0  0  0  0  0  0  0  0  0  0
    2.8388    1.7474    0.0000 C   0  0  0  0  0  0  0  0  0  0  0  0
    1.2695    0.4125    0.0000 C   0  0  0  0  0  0  0  0  0  0  0  0
    2.0542    1.4924    0.0000 C   0  0  0  0  0  0  0  0  0  0  0  0
    2.0542    0.6674    0.0000 C   0  0  0  0  0  0  0  0  0  0  0  0
    3.0937    2.5320    0.0000 O   0  0  0  0  0  0  0  0  0  0  0  0
    1.0146   -0.3721    0.0000 O   0  0  0  0  0  0  0  0  0  0  0  0
    2.8388    0.4125    0.0000 O   0  0  0  0  0  0  0  0  0  0  0  0
    1.2695    1.7474    0.0000 O   0  0  0  0  0  0  0  0  0  0  0  0
  3  1  1  0
  3  7  1  6
  4  2  1  0
  4  8  1  1
  5  3  1  0
  6  4  1  0
  6  5  1  0
  9  1  1  0
  6  9  1  6
 10  2  1  0
  5 10  1  6
M  END
>  <DRUGBANK_ID>  (1) 
DB09401

>  <SECONDARY_ACCESSION_NUMBERS>  (1) 
DB05707

>  <COMMON_NAME>  (1) 
Isosorbide

>  <CAS_NUMBER>  (1) 
652-67-5

>  <UNII>  (1) 
WXR179L51S

>  <SYNONYMS>  (1) 
Isosorbide

$$$$
