
     RDKit          2D

 35 37  0  0  0  0  0  0  0  0999 V2000
   -0.7145   -2.8875    0.0000 C   0  0  0  0  0  0  0  0  0  0  0  0
   -0.7145   -3.7125    0.0000 N   0  0  0  0  0  0  0  0  0  0  0  0
    0.0000   -4.1250    0.0000 C   0  0  0  0  0  0  0  0  0  0  0  0
    0.7145   -3.7125    0.0000 O   0  0  0  0  0  0  0  0  0  0  0  0
    0.0000   -4.9500    0.0000 C   0  0  0  0  0  0  0  0  0  0  0  0
    0.7145   -5.3625    0.0000 C   0  0  0  0  0  0  0  0  0  0  0  0
    0.7145   -6.1875    0.0000 C   0  0  0  0  0  0  0  0  0  0  0  0
    0.0000   -6.6000    0.0000 C   0  0  0  0  0  0  0  0  0  0  0  0
   -0.7145   -6.1875    0.0000 C   0  0  0  0  0  0  0  0  0  0  0  0
   -0.7145   -5.3625    0.0000 C   0  0  0  0  0  0  0  0  0  0  0  0
    0.0000   -7.4250    0.0000 N   0  0  0  0  0  0  0  0  0  0  0  0
   -0.7145   -7.8375    0.0000 C   0  0  0  0  0  0  0  0  0  0  0  0
   -1.4289   -7.4250    0.0000 N   0  0  0  0  0  0  0  0  0  0  0  0
   -2.1434   -7.8375    0.0000 C   0  0  0  0  0  0  0  0  0  0  0  0
   -2.1434   -8.6625    0.0000 C   0  0  0  0  0  0  0  0  0  0  0  0
   -1.4289   -9.0750    0.0000 C   0  0  0  0  0  0  0  0  0  0  0  0
   -0.7145   -8.6625    0.0000 N   0  0  0  0  0  0  0  0  0  0  0  0
   -1.4289   -9.9000    0.0000 N   0  0  0  0  0  0  0  0  0  0  0  0
   -0.7145  -10.3125    0.0000 C   0  0  0  0  0  0  0  0  0  0  0  0
   -0.7145  -11.1375    0.0000 C   0  0  0  0  0  0  0  0  0  0  0  0
   -0.0000  -11.5500    0.0000 C   0  0  0  0  0  0  0  0  0  0  0  0
   -0.0000  -12.3750    0.0000 N   0  0  0  0  0  0  0  0  0  0  0  0
   -0.7145  -12.7875    0.0000 C   0  0  0  0  0  0  0  0  0  0  0  0
   -1.4289  -12.3750    0.0000 C   0  0  0  0  0  0  0  0  0  0  0  0
   -1.4289  -11.5500    0.0000 N   0  0  0  0  0  0  0  0  0  0  0  0
    0.7145  -11.1375    0.0000 N   0  0  0  0  0  0  0  0  0  0  0  0
    1.4289  -11.5500    0.0000 C   0  0  0  0  0  0  0  0  0  0  0  0
    0.7145  -10.3125    0.0000 S   0  0  0  0  0  0  0  0  0  0  0  0
    0.7145   -9.4875    0.0000 O   0  0  0  0  0  0  0  0  0  0  0  0
    1.5395  -10.3125    0.0000 O   0  0  0  0  0  0  0  0  0  0  0  0
   -0.1105  -10.3125    0.0000 C   0  0  0  0  0  0  0  0  0  0  0  0
   -2.8579   -9.0750    0.0000 C   0  0  0  0  0  0  0  0  0  0  0  0
   -3.5724   -9.4875    0.0000 F   0  0  0  0  0  0  0  0  0  0  0  0
   -2.4454   -9.7895    0.0000 F   0  0  0  0  0  0  0  0  0  0  0  0
   -3.2704   -8.3605    0.0000 F   0  0  0  0  0  0  0  0  0  0  0  0
  1  2  1  0
  2  3  1  0
  3  4  2  0
  3  5  1  0
  5  6  2  0
  5 10  1  0
  6  7  1  0
  7  8  2  0
  8  9  1  0
  8 11  1  0
  9 10  2  0
 11 12  1  0
 12 13  2  0
 12 17  1  0
 13 14  1  0
 14 15  2  0
 15 16  1  0
 15 32  1  0
 16 17  2  0
 16 18  1  0
 18 19  1  0
 19 20  1  0
 20 21  2  0
 20 25  1  0
 21 22  1  0
 21 26  1  0
 22 23  2  0
 23 24  1  0
 24 25  2  0
 26 27  1  0
 26 28  1  0
 28 29  2  0
 28 30  2  0
 28 31  1  0
 32 33  1  0
 32 34  1  0
 32 35  1  0
M  END
>  <DRUGBANK_ID>  (1) 
DB12282

>  <COMMON_NAME>  (1) 
Defactinib

>  <CAS_NUMBER>  (1) 
1073154-85-4

>  <UNII>  (1) 
53O87HA2QU

>  <SYNONYMS>  (1) 
Defactinib; N-methyl-4-[[4-[[3-[methyl(methylsulfonyl)amino]pyrazin-2-yl]methylamino]-5-(trifluoromethyl)pyrimidin-2-yl]amino]benzamide

$$$$
