
     RDKit          2D

 21 22  0  0  0  0  0  0  0  0999 V2000
   -1.3889   -3.6626    0.0000 O   0  0  0  0  0  0  0  0  0  0  0  0
   -0.9041   -2.9952    0.0000 P   0  0  0  0  0  0  0  0  0  0  0  0
   -1.5715   -2.5103    0.0000 O   0  0  0  0  0  0  0  0  0  0  0  0
   -0.2366   -3.4801    0.0000 O   0  0  0  0  0  0  0  0  0  0  0  0
   -0.4192   -2.3278    0.0000 O   0  0  0  0  0  0  0  0  0  0  0  0
   -0.7547   -1.5741    0.0000 C   0  0  0  0  0  0  0  0  0  0  0  0
   -0.2698   -0.9067    0.0000 C   0  0  0  0  0  0  0  0  0  0  0  0
    0.5551   -0.9067    0.0000 C   0  0  0  0  0  0  0  0  0  0  0  0
    1.0400   -1.5741    0.0000 F   0  0  0  0  0  0  0  0  0  0  0  0
    0.8100   -0.1221    0.0000 C   0  0  0  0  0  0  0  0  0  0  0  0
    0.1426    0.3627    0.0000 C   0  0  0  0  0  0  0  0  0  0  0  0
    0.1426    1.1876    0.0000 N   0  0  0  0  0  0  0  0  0  0  0  0
    0.8571    1.6002    0.0000 C   0  0  0  0  0  0  0  0  0  0  0  0
    0.8571    2.4251    0.0000 C   0  0  0  0  0  0  0  0  0  0  0  0
    1.5715    2.8377    0.0000 C   0  0  0  0  0  0  0  0  0  0  0  0
    0.1426    2.8376    0.0000 C   0  0  0  0  0  0  0  0  0  0  0  0
    0.1426    3.6626    0.0000 O   0  0  0  0  0  0  0  0  0  0  0  0
   -0.5718    2.4251    0.0000 N   0  0  0  0  0  0  0  0  0  0  0  0
   -0.5717    1.6002    0.0000 C   0  0  0  0  0  0  0  0  0  0  0  0
   -1.2862    1.1876    0.0000 O   0  0  0  0  0  0  0  0  0  0  0  0
   -0.5247   -0.1221    0.0000 O   0  0  0  0  0  0  0  0  0  0  0  0
  1  2  1  0
  2  3  2  0
  2  4  1  0
  2  5  1  0
  5  6  1  0
  7  6  1  1
  7  8  1  0
  8  9  1  6
  8 10  1  0
 10 11  1  0
 11 12  1  1
 12 13  1  0
 13 14  2  0
 14 15  1  0
 14 16  1  0
 16 17  2  0
 18 16  1  0
 18 19  1  0
 19 20  2  0
 19 12  1  0
 21 11  1  0
 21  7  1  0
M  END
>  <DRUGBANK_ID>  (1) 
DB03195

>  <SECONDARY_ACCESSION_NUMBERS>  (1) 
EXPT01414

>  <COMMON_NAME>  (1) 
3'-Fluoro-3'-deoxythymidine 5'-monophosphate

>  <CAS_NUMBER>  (1) 
25520-83-6

>  <UNII>  (1) 
K6W0IAP44B

>  <SYNONYMS>  (1) 
3'-Deoxy-3'-fluorothymidine monophosphate; 3'-Fluoro-3'-deoxythymidine 5'-monophosphate; 3'-Fluoro-3'-deoxythymidine 5'-phosphate; 5'-Thymidylic acid, 3'-deoxy-3'-fluoro-

$$$$
