
     RDKit          2D

 30 31  0  0  0  0  0  0  0  0999 V2000
   -0.3572    2.4750    0.0000 C   0  0  0  0  0  0  0  0  0  0  0  0
   -0.3572    1.6500    0.0000 C   0  0  0  0  0  0  0  0  0  0  0  0
   -1.0717    1.2374    0.0000 C   0  0  0  0  0  0  0  0  0  0  0  0
   -1.0717    0.4124    0.0000 C   0  0  0  0  0  0  0  0  0  0  0  0
   -1.7861    0.0000    0.0000 C   0  0  0  0  0  0  0  0  0  0  0  0
   -1.7861   -0.8250    0.0000 C   0  0  0  0  0  0  0  0  0  0  0  0
   -1.0717    2.8875    0.0000 O   0  0  0  0  0  0  0  0  0  0  0  0
    0.3572    2.8875    0.0000 O   0  0  0  0  0  0  0  0  0  0  0  0
   -3.2151   -0.8250    0.0000 C   0  0  0  0  0  0  0  0  0  0  0  0
   -2.5006   -1.2375    0.0000 C   0  0  0  0  0  0  0  0  0  0  0  0
   -2.5006   -2.0625    0.0000 C   0  0  0  0  0  0  0  0  0  0  0  0
   -3.2151   -2.4750    0.0000 C   0  0  0  0  0  0  0  0  0  0  0  0
   -3.9295   -2.0625    0.0000 C   0  0  0  0  0  0  0  0  0  0  0  0
   -3.9295   -1.2375    0.0000 N   0  0  0  0  0  0  0  0  0  0  0  0
   -1.0717   -1.2375    0.0000 C   0  0  0  0  0  0  0  0  0  0  0  0
   -0.3572   -0.8250    0.0000 C   0  0  0  0  0  0  0  0  0  0  0  0
    0.3572   -1.2375    0.0000 C   0  0  0  0  0  0  0  0  0  0  0  0
    0.3572   -2.0625    0.0000 C   0  0  0  0  0  0  0  0  0  0  0  0
   -0.3572   -2.4750    0.0000 C   0  0  0  0  0  0  0  0  0  0  0  0
   -1.0717   -2.0625    0.0000 C   0  0  0  0  0  0  0  0  0  0  0  0
    1.0717   -0.8250    0.0000 N   0  0  0  0  0  0  0  0  0  0  0  0
    1.7861   -1.2375    0.0000 C   0  0  0  0  0  0  0  0  0  0  0  0
    2.5006   -0.8250    0.0000 N   0  0  0  0  0  0  0  0  0  0  0  0
    3.2151   -1.2374    0.0000 C   0  0  0  0  0  0  0  0  0  0  0  0
    2.8026   -1.9519    0.0000 C   0  0  0  0  0  0  0  0  0  0  0  0
    3.6276   -0.5230    0.0000 C   0  0  0  0  0  0  0  0  0  0  0  0
    3.9295   -1.6499    0.0000 C   0  0  0  0  0  0  0  0  0  0  0  0
    1.7861   -2.0625    0.0000 N   0  0  0  0  0  0  0  0  0  0  0  0
    2.5006   -2.4750    0.0000 C   0  0  0  0  0  0  0  0  0  0  0  0
    3.2151   -2.8875    0.0000 N   0  0  0  0  0  0  0  0  0  0  0  0
  1  2  1  0
  1  7  2  0
  1  8  1  0
  2  3  1  0
  3  4  1  0
  4  5  1  0
  5  6  2  0
  6 10  1  0
  6 15  1  0
  9 10  2  0
  9 14  1  0
 10 11  1  0
 11 12  2  0
 12 13  1  0
 13 14  2  0
 15 16  2  0
 15 20  1  0
 16 17  1  0
 17 18  2  0
 17 21  1  0
 18 19  1  0
 19 20  2  0
 21 22  2  0
 22 23  1  0
 22 28  1  0
 23 24  1  0
 24 25  1  0
 24 26  1  0
 24 27  1  0
 28 29  1  0
 29 30  3  0
M  END
>  <DRUGBANK_ID>  (1) 
DB12204

>  <COMMON_NAME>  (1) 
Terbogrel

>  <CAS_NUMBER>  (1) 
149979-74-8

>  <UNII>  (1) 
5Z4KWQ5OGN

>  <SYNONYMS>  (1) 
Terbogrel; Terbogrelum

$$$$
