
     RDKit          2D

  8  8  0  0  0  0  0  0  0  0999 V2000
    4.6717  -11.9736    0.0000 C   0  0  0  0  0  0  0  0  0  0  0  0
    4.4159  -12.7649    0.0000 C   0  0  0  0  0  0  0  0  0  0  0  0
    4.0013  -11.4864    0.0000 N   0  0  0  0  0  0  0  0  0  0  0  0
    3.5832  -12.7649    0.0000 N   0  0  0  0  0  0  0  0  0  0  0  0
    3.3275  -11.9736    0.0000 C   0  0  0  0  0  0  0  0  0  0  0  0
    5.1273  -13.1730    0.0000 C   0  0  0  0  0  0  0  0  0  0  0  0
    5.8413  -12.7597    0.0000 C   0  0  0  0  0  0  0  0  0  0  0  0
    6.5553  -13.1689    0.0000 N   0  0  0  0  0  0  0  0  0  0  0  0
  1  2  2  0
  1  3  1  0
  2  4  1  0
  2  6  1  0
  3  5  1  0
  4  5  2  0
  6  7  1  0
  7  8  1  0
M  END
>  <DRUGBANK_ID>  (1) 
DB05381

>  <SECONDARY_ACCESSION_NUMBERS>  (1) 
APRD01015; DB05891; DB11320; DB00667

>  <COMMON_NAME>  (1) 
Histamine

>  <CAS_NUMBER>  (1) 
51-45-6

>  <UNII>  (1) 
820484N8I3

>  <SYNONYMS>  (1) 
1H-Imidazole-4-ethanamine; 2-(4-imidazolyl)ethylamine; 4-imidazoleethylamine; 5-imidazoleethylamine; beta-aminoethylglyoxaline; beta-aminoethylimidazole

$$$$
