
     RDKit          2D

 25 26  0  0  0  0  0  0  0  0999 V2000
    2.2071   -1.1678    0.0000 C   0  0  0  0  0  0  0  0  0  0  0  0
    2.2170   -0.3364    0.0000 C   0  0  0  0  0  0  0  0  0  0  0  0
    2.9296    0.0692    0.0000 C   0  0  0  0  0  0  0  0  0  0  0  0
    3.6423   -0.3464    0.0000 C   0  0  0  0  0  0  0  0  0  0  0  0
    3.7314   -1.1678    0.0000 C   0  0  0  0  0  0  0  0  0  0  0  0
    4.5329   -1.3460    0.0000 S   0  0  0  0  0  0  0  0  0  0  0  0
    4.9487   -0.6333    0.0000 C   0  0  0  0  0  0  0  0  0  0  0  0
    4.4043   -0.0099    0.0000 C   0  0  0  0  0  0  0  0  0  0  0  0
    1.5043    0.0791    0.0000 N   0  0  0  0  0  0  0  0  0  0  0  0
    0.7819   -0.3364    0.0000 C   0  0  0  0  0  0  0  0  0  0  0  0
    0.7819   -1.1579    0.0000 O   0  0  0  0  0  0  0  0  0  0  0  0
    0.0692    0.0791    0.0000 N   0  0  0  0  0  0  0  0  0  0  0  0
   -0.6433   -0.3265    0.0000 C   0  0  0  0  0  0  0  0  0  0  0  0
   -1.3658    0.0890    0.0000 C   0  0  0  0  0  0  0  0  0  0  0  0
   -1.3560    0.9205    0.0000 N   0  0  0  0  0  0  0  0  0  0  0  0
   -2.0685    1.3361    0.0000 C   0  0  0  0  0  0  0  0  0  0  0  0
   -0.6433    1.3262    0.0000 C   0  0  0  0  0  0  0  0  0  0  0  0
   -2.0784   -0.3167    0.0000 C   0  0  0  0  0  0  0  0  0  0  0  0
   -2.7910    0.0990    0.0000 C   0  0  0  0  0  0  0  0  0  0  0  0
   -3.5037   -0.3167    0.0000 C   0  0  0  0  0  0  0  0  0  0  0  0
   -4.2162    0.0890    0.0000 C   0  0  0  0  0  0  0  0  0  0  0  0
   -4.2262    0.9303    0.0000 C   0  0  0  0  0  0  0  0  0  0  0  0
   -3.5136    1.3460    0.0000 C   0  0  0  0  0  0  0  0  0  0  0  0
   -2.7812    0.9105    0.0000 C   0  0  0  0  0  0  0  0  0  0  0  0
   -4.9487    1.3460    0.0000 O   0  0  0  0  0  0  0  0  0  0  0  0
  2  1  1  6
  2  3  1  0
  2  9  1  0
  3  4  1  0
  4  5  2  0
  4  8  1  0
  5  6  1  0
  6  7  1  0
  7  8  2  0
  9 10  1  0
 10 11  2  0
 10 12  1  0
 12 13  1  0
 14 13  1  6
 14 15  1  0
 14 18  1  0
 15 16  1  0
 15 17  1  0
 18 19  1  0
 19 20  2  0
 19 24  1  0
 20 21  1  0
 21 22  2  0
 22 23  1  0
 22 25  1  0
 23 24  2  0
M  END
>  <DRUGBANK_ID>  (1) 
DB14030

>  <COMMON_NAME>  (1) 
PZM21

>  <CAS_NUMBER>  (1) 
1997387-43-5

>  <UNII>  (1) 
M8GB23F27E

$$$$
