INK
     RDKit          2D

 16 16  0  0  0  0  0  0  0  0999 V2000
   -2.1279    0.0737    0.0000 P   0  0  0  0  0  0  0  0  0  0  0  0
   -2.8423   -0.3388    0.0000 Cl  0  0  0  0  0  0  0  0  0  0  0  0
   -1.7153   -0.6408    0.0000 C   0  0  0  0  0  0  0  0  0  0  0  0
   -2.5404    0.7882    0.0000 O   0  0  0  0  0  0  0  0  0  0  0  0
   -1.4133    0.4862    0.0000 O   0  0  0  0  0  0  0  0  0  0  0  0
   -0.6988    0.0737    0.0000 C   0  0  0  0  0  0  0  0  0  0  0  0
   -0.6988   -0.7514    0.0000 C   0  0  0  0  0  0  0  0  0  0  0  0
    0.0157   -1.1639    0.0000 C   0  0  0  0  0  0  0  0  0  0  0  0
    0.0157    0.4862    0.0000 C   0  0  0  0  0  0  0  0  0  0  0  0
    0.7303    0.0737    0.0000 O   0  0  0  0  0  0  0  0  0  0  0  0
    2.1593    1.7238    0.0000 C   0  0  0  0  0  0  0  0  0  0  0  0
    2.8738    1.3113    0.0000 C   0  0  0  0  0  0  0  0  0  0  0  0
    2.8738    0.4862    0.0000 C   0  0  0  0  0  0  0  0  0  0  0  0
    2.1593    0.0737    0.0000 C   0  0  0  0  0  0  0  0  0  0  0  0
    1.4448    0.4862    0.0000 C   0  0  0  0  0  0  0  0  0  0  0  0
    1.4448    1.3113    0.0000 C   0  0  0  0  0  0  0  0  0  0  0  0
  1  2  1  0
  1  3  1  1
  1  4  2  0
  1  5  1  0
  6  5  1  0
  6  7  1  1
  6  9  1  0
  7  8  1  0
  9 10  1  0
 10 15  1  0
 11 12  2  0
 11 16  1  0
 12 13  1  0
 13 14  2  0
 14 15  1  0
 15 16  2  0
M  END
>  <DRUGBANK_ID>  (1) 
DB07990

>  <COMMON_NAME>  (1) 
(RP,SP)-O-(2R)-(1-PHENOXYBUT-2-YL)-METHYLPHOSPHONIC ACID CHLORIDE

$$$$
