
     RDKit          2D

 26 28  0  0  0  0  0  0  0  0999 V2000
   -1.7862    1.8562    0.0000 O   0  0  0  0  0  0  0  0  0  0  0  0
   -0.3571   -0.6187    0.0000 N   0  0  0  0  0  0  0  0  0  0  0  0
   -0.3571    1.8562    0.0000 N   0  0  0  0  0  0  0  0  0  0  0  0
   -0.3571    1.0312    0.0000 C   0  0  0  0  0  0  0  0  0  0  0  0
    0.3572    0.6187    0.0000 C   0  0  0  0  0  0  0  0  0  0  0  0
   -1.0717    0.6187    0.0000 C   0  0  0  0  0  0  0  0  0  0  0  0
    0.3572   -0.2062    0.0000 C   0  0  0  0  0  0  0  0  0  0  0  0
   -1.0717   -0.2062    0.0000 C   0  0  0  0  0  0  0  0  0  0  0  0
   -0.3571   -1.4437    0.0000 C   0  0  0  0  0  0  0  0  0  0  0  0
   -1.0717   -1.8562    0.0000 C   0  0  0  0  0  0  0  0  0  0  0  0
    0.3572    2.2687    0.0000 C   0  0  0  0  0  0  0  0  0  0  0  0
   -1.0717    2.2687    0.0000 C   0  0  0  0  0  0  0  0  0  0  0  0
   -1.0717    3.0938    0.0000 C   0  0  0  0  0  0  0  0  0  0  0  0
   -1.0717   -2.6813    0.0000 C   0  0  0  0  0  0  0  0  0  0  0  0
    0.3572    3.0938    0.0000 C   0  0  0  0  0  0  0  0  0  0  0  0
    1.0717    1.8562    0.0000 C   0  0  0  0  0  0  0  0  0  0  0  0
   -1.7862    3.5063    0.0000 C   0  0  0  0  0  0  0  0  0  0  0  0
   -0.3571   -3.0938    0.0000 C   0  0  0  0  0  0  0  0  0  0  0  0
   -1.7862   -3.0938    0.0000 C   0  0  0  0  0  0  0  0  0  0  0  0
    1.0717    3.5063    0.0000 C   0  0  0  0  0  0  0  0  0  0  0  0
    1.7862    2.2687    0.0000 C   0  0  0  0  0  0  0  0  0  0  0  0
   -1.7862    4.3313    0.0000 C   0  0  0  0  0  0  0  0  0  0  0  0
    1.7862    3.0938    0.0000 C   0  0  0  0  0  0  0  0  0  0  0  0
   -0.3571   -3.9188    0.0000 C   0  0  0  0  0  0  0  0  0  0  0  0
   -1.7862   -3.9188    0.0000 C   0  0  0  0  0  0  0  0  0  0  0  0
   -1.0717   -4.3313    0.0000 C   0  0  0  0  0  0  0  0  0  0  0  0
  1 12  2  0
  2  7  1  0
  2  8  1  0
  2  9  1  0
  3  4  1  0
  3 11  1  0
  3 12  1  0
  4  5  1  0
  4  6  1  0
  5  7  1  0
  6  8  1  0
  9 10  1  0
 10 14  1  0
 11 15  2  0
 11 16  1  0
 12 13  1  0
 13 17  1  0
 14 18  2  0
 14 19  1  0
 15 20  1  0
 16 21  2  0
 17 22  1  0
 18 24  1  0
 19 25  2  0
 20 23  2  0
 21 23  1  0
 24 26  2  0
 25 26  1  0
M  END
>  <DRUGBANK_ID>  (1) 
DB09173

>  <COMMON_NAME>  (1) 
Butyrfentanyl

>  <CAS_NUMBER>  (1) 
1169-70-6

>  <UNII>  (1) 
07V1H7R6ZN

>  <SYNONYMS>  (1) 
Butyr-fentanyl; Butyrylfentanyl

$$$$
