995
     RDKit          2D

 30 30  0  0  0  0  0  0  0  0999 V2000
   -2.3244    1.8421    0.0000 C   0  0  0  0  0  0  0  0  0  0  0  0
   -1.9119    1.1276    0.0000 C   0  0  0  0  0  0  0  0  0  0  0  0
   -3.1494    1.8421    0.0000 C   0  0  0  0  0  0  0  0  0  0  0  0
   -1.9119    2.5565    0.0000 O   0  0  0  0  0  0  0  0  0  0  0  0
   -3.6343    1.1746    0.0000 S   0  0  0  0  0  0  0  0  0  0  0  0
   -4.4190    1.4296    0.0000 C   0  0  0  0  0  0  0  0  0  0  0  0
   -4.4190    2.2546    0.0000 C   0  0  0  0  0  0  0  0  0  0  0  0
   -3.6343    2.5095    0.0000 N   0  0  0  0  0  0  0  0  0  0  0  0
   -2.3244    0.4131    0.0000 C   0  0  0  0  0  0  0  0  0  0  0  0
   -1.9119   -0.3013    0.0000 C   0  0  0  0  0  0  0  0  0  0  0  0
   -1.0869    1.1276    0.0000 N   0  0  0  0  0  0  0  0  0  0  0  0
   -0.6744    0.4131    0.0000 C   0  0  0  0  0  0  0  0  0  0  0  0
    0.1506    0.4131    0.0000 C   0  0  0  0  0  0  0  0  0  0  0  0
    0.5631    1.1276    0.0000 C   0  0  0  0  0  0  0  0  0  0  0  0
    1.3881    1.1276    0.0000 C   0  0  0  0  0  0  0  0  0  0  0  0
    0.1506    1.8421    0.0000 C   0  0  0  0  0  0  0  0  0  0  0  0
    0.5631   -0.3013    0.0000 N   0  0  0  0  0  0  0  0  0  0  0  0
    1.3881   -0.3013    0.0000 C   0  0  0  0  0  0  0  0  0  0  0  0
    1.8006   -1.0158    0.0000 C   0  0  0  0  0  0  0  0  0  0  0  0
    2.6256   -1.0158    0.0000 C   0  0  0  0  0  0  0  0  0  0  0  0
    3.0381   -1.7303    0.0000 C   0  0  0  0  0  0  0  0  0  0  0  0
    3.8631   -1.7303    0.0000 C   0  0  0  0  0  0  0  0  0  0  0  0
    2.6256   -2.4448    0.0000 C   0  0  0  0  0  0  0  0  0  0  0  0
    1.8006    0.4131    0.0000 O   0  0  0  0  0  0  0  0  0  0  0  0
   -1.0869   -0.3013    0.0000 O   0  0  0  0  0  0  0  0  0  0  0  0
   -2.3244   -1.0158    0.0000 C   0  0  0  0  0  0  0  0  0  0  0  0
   -1.9119   -1.7303    0.0000 N   0  0  0  0  0  0  0  0  0  0  0  0
   -2.3244   -2.4448    0.0000 C   0  0  0  0  0  0  0  0  0  0  0  0
   -1.9119   -3.1592    0.0000 N   0  0  0  0  0  0  0  0  0  0  0  0
   -3.1494   -2.4448    0.0000 N   0  0  0  0  0  0  0  0  0  0  0  0
  1  2  1  0
  1  3  1  0
  1  4  2  0
  2  9  1  1
  2 11  1  0
  3  5  1  0
  3  8  2  0
  5  6  1  0
  6  7  2  0
  7  8  1  0
  9 10  1  0
 10 26  1  0
 11 12  1  0
 12 13  1  0
 12 25  2  0
 13 14  1  0
 13 17  1  6
 14 15  1  0
 14 16  1  0
 17 18  1  0
 18 19  1  0
 18 24  2  0
 19 20  1  0
 20 21  1  0
 21 22  1  0
 21 23  1  0
 26 27  1  0
 27 28  1  0
 28 29  1  0
 28 30  1  0
M  END
>  <DRUGBANK_ID>  (1) 
DB07299

>  <COMMON_NAME>  (1) 
4-METHYL-PENTANOIC ACID {1-[4-GUANIDINO-1-(THIAZOLE-2-CARBONYL)-BUTYLCARBAMOYL]-2-METHYL-PROPYL}-AMIDE

$$$$
