Y15
     RDKit          2D

 33 35  0  0  0  0  0  0  0  0999 V2000
   -2.6462    0.6479    0.0000 C   0  0  0  0  0  0  0  0  0  0  0  0
   -3.1765    1.9748    0.0000 C   0  0  0  0  0  0  0  0  0  0  0  0
   -3.8247    2.4851    0.0000 C   0  0  0  0  0  0  0  0  0  0  0  0
   -4.7087    1.3624    0.0000 C   0  0  0  0  0  0  0  0  0  0  0  0
   -4.0605    0.8520    0.0000 C   0  0  0  0  0  0  0  0  0  0  0  0
   -2.7640   -0.1687    0.0000 O   0  0  0  0  0  0  0  0  0  0  0  0
   -4.5908    2.1789    0.0000 O   0  0  0  0  0  0  0  0  0  0  0  0
   -3.2944    1.1582    0.0000 N   0  0  0  0  0  0  0  0  0  0  0  0
   -1.8801    0.9541    0.0000 N   0  0  0  0  0  0  0  0  0  0  0  0
   -1.2319    0.4438    0.0000 C   0  0  0  0  0  0  0  0  0  0  0  0
   -1.3497   -0.3728    0.0000 C   0  0  0  0  0  0  0  0  0  0  0  0
   -0.7015   -0.8831    0.0000 C   0  0  0  0  0  0  0  0  0  0  0  0
   -0.8194   -1.6997    0.0000 C   0  0  0  0  0  0  0  0  0  0  0  0
   -0.1712   -2.2100    0.0000 C   0  0  0  0  0  0  0  0  0  0  0  0
    0.5949   -1.9038    0.0000 C   0  0  0  0  0  0  0  0  0  0  0  0
    0.7128   -1.0873    0.0000 C   0  0  0  0  0  0  0  0  0  0  0  0
    0.0645   -0.5769    0.0000 C   0  0  0  0  0  0  0  0  0  0  0  0
   -0.4658    0.7500    0.0000 C   0  0  0  0  0  0  0  0  0  0  0  0
   -0.3480    1.5665    0.0000 O   0  0  0  0  0  0  0  0  0  0  0  0
    1.7145    0.8520    0.0000 C   0  0  0  0  0  0  0  0  0  0  0  0
    0.6423    1.3119    0.0000 C   0  0  0  0  0  0  0  0  0  0  0  0
    0.1824    0.2396    0.0000 N   0  0  0  0  0  0  0  0  0  0  0  0
    2.3628    0.3417    0.0000 O   0  0  0  0  0  0  0  0  0  0  0  0
    3.1288    0.6479    0.0000 C   0  0  0  0  0  0  0  0  0  0  0  0
    3.7770    0.1375    0.0000 C   0  0  0  0  0  0  0  0  0  0  0  0
    4.5431    0.4438    0.0000 C   0  0  0  0  0  0  0  0  0  0  0  0
    5.1913   -0.0666    0.0000 C   0  0  0  0  0  0  0  0  0  0  0  0
    5.0735   -0.8831    0.0000 C   0  0  0  0  0  0  0  0  0  0  0  0
    4.3074   -1.1893    0.0000 C   0  0  0  0  0  0  0  0  0  0  0  0
    3.6592   -0.6790    0.0000 C   0  0  0  0  0  0  0  0  0  0  0  0
    1.2547   -0.2203    0.0000 C   0  0  0  0  0  0  0  0  0  0  0  0
    1.5609   -0.9863    0.0000 N   0  0  0  0  0  0  0  0  0  0  0  0
    0.9485    0.5458    0.0000 C   0  0  0  0  0  0  0  0  0  0  0  0
  1  6  2  0
  3  2  1  0
  4  7  1  0
  4  5  1  0
  5  8  1  0
  7  3  1  0
  8  2  1  0
  8  1  1  0
  9  1  1  0
 10  9  1  0
 10 18  1  0
 10 11  1  6
 12 11  1  0
 12 17  1  0
 13 12  1  0
 14 13  1  0
 14 15  1  0
 15 16  1  0
 16 17  1  0
 18 22  1  0
 19 18  2  0
 20 23  1  0
 23 24  1  0
 24 25  1  0
 25 26  2  0
 26 27  1  0
 28 27  2  0
 29 28  1  0
 30 25  1  0
 30 29  2  0
 31 32  3  0
 33 21  1  6
 33 22  1  0
 33 31  1  0
 33 20  1  0
M  END
>  <DRUGBANK_ID>  (1) 
DB08755

>  <COMMON_NAME>  (1) 
N-[(1S)-2-{[(1R)-2-(benzyloxy)-1-cyano-1-methylethyl]amino}-1-(cyclohexylmethyl)-2-oxoethyl]morpholine-4-carboxamide

$$$$
