7X4
     RDKit          2D

 28 31  0  0  0  0  0  0  0  0999 V2000
    6.3798    3.0210    0.0000 C   0  0  0  0  0  0  0  0  0  0  0  0
    5.6654    3.4335    0.0000 N   0  0  0  0  0  0  0  0  0  0  0  0
    5.6654    4.2585    0.0000 C   0  0  0  0  0  0  0  0  0  0  0  0
    6.3798    4.6710    0.0000 C   0  0  0  0  0  0  0  0  0  0  0  0
    7.0943    4.2585    0.0000 C   0  0  0  0  0  0  0  0  0  0  0  0
    7.8088    4.6710    0.0000 N   0  0  0  0  0  0  0  0  0  0  0  0
    7.8088    5.4960    0.0000 C   0  0  0  0  0  0  0  0  0  0  0  0
    7.0943    5.9085    0.0000 C   0  0  0  0  0  0  0  0  0  0  0  0
    6.3097    5.6535    0.0000 O   0  0  0  0  0  0  0  0  0  0  0  0
    5.8248    6.3210    0.0000 C   0  0  0  0  0  0  0  0  0  0  0  0
    6.3097    6.9884    0.0000 O   0  0  0  0  0  0  0  0  0  0  0  0
    7.0943    6.7335    0.0000 C   0  0  0  0  0  0  0  0  0  0  0  0
    7.8088    7.1460    0.0000 C   0  0  0  0  0  0  0  0  0  0  0  0
    8.5233    6.7335    0.0000 C   0  0  0  0  0  0  0  0  0  0  0  0
    8.5233    5.9085    0.0000 C   0  0  0  0  0  0  0  0  0  0  0  0
    9.2377    5.4960    0.0000 Cl  0  0  0  0  0  0  0  0  0  0  0  0
    7.0943    3.4335    0.0000 N   0  0  0  0  0  0  0  0  0  0  0  0
    4.9509   -1.1040    0.0000 N   0  0  0  0  0  0  0  0  0  0  0  0
    4.9509   -0.2790    0.0000 S   0  0  0  0  0  0  0  0  0  0  0  0
    4.1259   -0.2790    0.0000 O   0  0  0  0  0  0  0  0  0  0  0  0
    5.7759   -0.2790    0.0000 O   0  0  0  0  0  0  0  0  0  0  0  0
    4.9509    0.5460    0.0000 C   0  0  0  0  0  0  0  0  0  0  0  0
    4.2364    0.9585    0.0000 C   0  0  0  0  0  0  0  0  0  0  0  0
    4.2364    1.7835    0.0000 C   0  0  0  0  0  0  0  0  0  0  0  0
    4.9509    2.1960    0.0000 C   0  0  0  0  0  0  0  0  0  0  0  0
    5.6654    1.7835    0.0000 C   0  0  0  0  0  0  0  0  0  0  0  0
    6.3798    2.1960    0.0000 N   0  0  0  0  0  0  0  0  0  0  0  0
    5.6654    0.9585    0.0000 C   0  0  0  0  0  0  0  0  0  0  0  0
  1  2  2  0
  1 17  1  0
  1 27  1  0
  2  3  1  0
  3  4  2  0
  4  5  1  0
  5  6  1  0
  5 17  2  0
  6  7  1  0
  7  8  2  0
  7 15  1  0
  8  9  1  0
  8 12  1  0
  9 10  1  0
 10 11  1  0
 11 12  1  0
 12 13  2  0
 13 14  1  0
 14 15  2  0
 15 16  1  0
 18 19  1  0
 19 20  2  0
 19 21  2  0
 19 22  1  0
 22 23  2  0
 22 28  1  0
 23 24  1  0
 24 25  2  0
 25 26  1  0
 26 27  1  0
 26 28  2  0
M  END
>  <DRUGBANK_ID>  (1) 
DB07252

>  <COMMON_NAME>  (1) 
3-({4-[(5-chloro-1,3-benzodioxol-4-yl)amino]pyrimidin-2-yl}amino)benzenesulfonamide

$$$$
