
     RDKit          2D

 21 22  0  0  0  0  0  0  0  0999 V2000
   -1.4563    3.4134    0.0000 O   0  0  0  0  0  0  0  0  0  0  0  0
   -1.4563    2.5883    0.0000 P   0  0  0  0  0  0  0  0  0  0  0  0
   -2.2813    2.5883    0.0000 O   0  0  0  0  0  0  0  0  0  0  0  0
   -0.6313    2.5883    0.0000 O   0  0  0  0  0  0  0  0  0  0  0  0
   -1.4563    1.7634    0.0000 O   0  0  0  0  0  0  0  0  0  0  0  0
   -0.7419    1.3508    0.0000 C   0  0  0  0  0  0  0  0  0  0  0  0
   -0.7419    0.5258    0.0000 C   0  0  0  0  0  0  0  0  0  0  0  0
   -0.0744    0.0408    0.0000 O   0  0  0  0  0  0  0  0  0  0  0  0
   -1.4093    0.0408    0.0000 C   0  0  0  0  0  0  0  0  0  0  0  0
   -2.1939    0.2958    0.0000 O   0  0  0  0  0  0  0  0  0  0  0  0
   -1.1544   -0.7437    0.0000 C   0  0  0  0  0  0  0  0  0  0  0  0
   -0.3294   -0.7437    0.0000 C   0  0  0  0  0  0  0  0  0  0  0  0
    0.1554   -1.4111    0.0000 N   0  0  0  0  0  0  0  0  0  0  0  0
   -0.1800   -2.1648    0.0000 C   0  0  0  0  0  0  0  0  0  0  0  0
   -1.0005   -2.2510    0.0000 O   0  0  0  0  0  0  0  0  0  0  0  0
    0.3048   -2.8322    0.0000 N   0  0  0  0  0  0  0  0  0  0  0  0
    1.1253   -2.7460    0.0000 C   0  0  0  0  0  0  0  0  0  0  0  0
    1.6102   -3.4134    0.0000 O   0  0  0  0  0  0  0  0  0  0  0  0
    1.4608   -1.9923    0.0000 C   0  0  0  0  0  0  0  0  0  0  0  0
    0.9759   -1.3249    0.0000 C   0  0  0  0  0  0  0  0  0  0  0  0
    2.2813   -1.9061    0.0000 Br  0  0  0  0  0  0  0  0  0  0  0  0
  1  2  2  0
  3  2  1  0
  4  2  1  0
  5  2  1  0
  6  5  1  0
  7  6  1  1
  7  8  1  0
  9  7  1  0
  9 10  1  6
 11  9  1  0
 12  8  1  0
 12 11  1  0
 12 13  1  1
 14 13  1  0
 14 15  2  0
 14 16  1  0
 17 16  1  0
 17 18  2  0
 17 19  1  0
 19 20  2  0
 20 13  1  0
 21 19  1  0
M  END
>  <DRUGBANK_ID>  (1) 
DB01903

>  <SECONDARY_ACCESSION_NUMBERS>  (1) 
EXPT00758

>  <COMMON_NAME>  (1) 
5-Bromo-2'-deoxyuridine 5'-(dihydrogen phosphate)

>  <CAS_NUMBER>  (1) 
51432-32-7

$$$$
