IFB
     RDKit          2D

 24 25  0  0  0  0  0  0  0  0999 V2000
   -5.2039    0.2088    0.0000 O   0  0  0  0  0  0  0  0  0  0  0  0
   -4.4894    0.6213    0.0000 C   0  0  0  0  0  0  0  0  0  0  0  0
   -4.4894    1.4463    0.0000 O   0  0  0  0  0  0  0  0  0  0  0  0
   -3.7750    0.2088    0.0000 C   0  0  0  0  0  0  0  0  0  0  0  0
   -3.0605    0.6213    0.0000 C   0  0  0  0  0  0  0  0  0  0  0  0
   -2.3460    0.2088    0.0000 N   0  0  0  0  0  0  0  0  0  0  0  0
   -1.6316    0.6213    0.0000 C   0  0  0  0  0  0  0  0  0  0  0  0
   -1.6316    1.4463    0.0000 O   0  0  0  0  0  0  0  0  0  0  0  0
   -0.9171    0.2088    0.0000 C   0  0  0  0  0  0  0  0  0  0  0  0
   -0.2026    0.6213    0.0000 C   0  0  0  0  0  0  0  0  0  0  0  0
   -0.9171   -0.6162    0.0000 C   0  0  0  0  0  0  0  0  0  0  0  0
   -1.6316   -1.0287    0.0000 O   0  0  0  0  0  0  0  0  0  0  0  0
   -0.2026   -1.0287    0.0000 C   0  0  0  0  0  0  0  0  0  0  0  0
   -0.2026   -1.8537    0.0000 I   0  0  0  0  0  0  0  0  0  0  0  0
    0.5119   -0.6162    0.0000 C   0  0  0  0  0  0  0  0  0  0  0  0
    0.5119    0.2088    0.0000 C   0  0  0  0  0  0  0  0  0  0  0  0
    1.2263    0.6213    0.0000 C   0  0  0  0  0  0  0  0  0  0  0  0
    1.2263    1.4463    0.0000 C   0  0  0  0  0  0  0  0  0  0  0  0
    0.5119    1.8588    0.0000 F   0  0  0  0  0  0  0  0  0  0  0  0
    1.9408    0.2088    0.0000 C   0  0  0  0  0  0  0  0  0  0  0  0
    2.6553    0.6213    0.0000 C   0  0  0  0  0  0  0  0  0  0  0  0
    2.6553    1.4463    0.0000 C   0  0  0  0  0  0  0  0  0  0  0  0
    3.3697    1.8588    0.0000 F   0  0  0  0  0  0  0  0  0  0  0  0
    1.9408    1.8588    0.0000 C   0  0  0  0  0  0  0  0  0  0  0  0
  1  2  2  0
  2  4  1  0
  2  3  1  0
  4  5  1  0
  5  6  1  0
  6  7  1  0
  7  9  1  0
  7  8  2  0
  9 10  2  0
  9 11  1  0
 10 16  1  0
 11 13  2  0
 11 12  1  0
 13 15  1  0
 13 14  1  0
 15 16  2  0
 16 17  1  0
 17 18  2  0
 17 20  1  0
 18 24  1  0
 18 19  1  0
 20 21  2  0
 21 22  1  0
 22 23  1  0
 22 24  2  0
M  END
>  <DRUGBANK_ID>  (1) 
DB07963

>  <COMMON_NAME>  (1) 
N-[(2',4'-DIFLUORO-4-HYDROXY-5-IODOBIPHENYL-3-YL)CARBONYL]-BETA-ALANINE

$$$$
