
     RDKit          2D

 36 43  0  0  0  0  0  0  0  0999 V2000
   -1.4197    3.2053    0.0000 O   0  0  0  0  0  0  0  0  0  0  0  0
   -0.6373    2.9434    0.0000 C   0  0  0  0  0  0  0  0  0  0  0  0
    0.0343    3.4223    0.0000 N   0  0  0  0  0  0  0  0  0  0  0  0
    0.6974    2.9315    0.0000 C   0  0  0  0  0  0  0  0  0  0  0  0
    1.4843    3.1795    0.0000 O   0  0  0  0  0  0  0  0  0  0  0  0
    0.4355    2.1492    0.0000 C   0  0  0  0  0  0  0  0  0  0  0  0
    0.8815    1.4387    0.0000 C   0  0  0  0  0  0  0  0  0  0  0  0
    1.7069    1.2118    0.0000 C   0  0  0  0  0  0  0  0  0  0  0  0
    1.7589    0.3884    0.0000 C   0  0  0  0  0  0  0  0  0  0  0  0
    2.4979    0.0217    0.0000 C   0  0  0  0  0  0  0  0  0  0  0  0
    3.1850    0.4784    0.0000 C   0  0  0  0  0  0  0  0  0  0  0  0
    3.1330    1.3018    0.0000 C   0  0  0  0  0  0  0  0  0  0  0  0
    2.3940    1.6685    0.0000 C   0  0  0  0  0  0  0  0  0  0  0  0
    0.9574    0.0649    0.0000 N   0  0  0  0  0  0  0  0  0  0  0  0
    0.4266    0.7424    0.0000 C   0  0  0  0  0  0  0  0  0  0  0  0
   -0.4183    0.7074    0.0000 C   0  0  0  0  0  0  0  0  0  0  0  0
   -0.9442    0.0070    0.0000 N   0  0  0  0  0  0  0  0  0  0  0  0
   -1.7622    0.3679    0.0000 C   0  0  0  0  0  0  0  0  0  0  0  0
   -1.6854    1.1893    0.0000 C   0  0  0  0  0  0  0  0  0  0  0  0
   -2.3584    1.6665    0.0000 C   0  0  0  0  0  0  0  0  0  0  0  0
   -3.1082    1.3223    0.0000 C   0  0  0  0  0  0  0  0  0  0  0  0
   -3.1850    0.5009    0.0000 C   0  0  0  0  0  0  0  0  0  0  0  0
   -2.5120    0.0237    0.0000 C   0  0  0  0  0  0  0  0  0  0  0  0
   -0.8558    1.4219    0.0000 C   0  0  0  0  0  0  0  0  0  0  0  0
   -0.3894    2.1565    0.0000 C   0  0  0  0  0  0  0  0  0  0  0  0
   -0.6976   -0.8972    0.0000 C   0  0  0  0  0  0  0  0  0  0  0  0
    0.0538   -0.8128    0.0000 O   0  0  0  0  0  0  0  0  0  0  0  0
    0.7974   -0.8312    0.0000 C   0  0  0  0  0  0  0  0  0  0  0  0
    0.8338   -1.7269    0.0000 C   0  0  0  0  0  0  0  0  0  0  0  0
    0.1504   -2.2359    0.0000 C   0  0  0  0  0  0  0  0  0  0  0  0
    0.2061   -3.0590    0.0000 N   0  0  0  0  0  0  0  0  0  0  0  0
    0.9468   -3.4223    0.0000 C   0  0  0  0  0  0  0  0  0  0  0  0
   -0.6036   -1.8191    0.0000 C   0  0  0  0  0  0  0  0  0  0  0  0
   -1.2920   -2.2738    0.0000 O   0  0  0  0  0  0  0  0  0  0  0  0
   -1.2425   -3.0973    0.0000 C   0  0  0  0  0  0  0  0  0  0  0  0
   -1.5088   -1.0480    0.0000 C   0  0  0  0  0  0  0  0  0  0  0  0
  2  1  1  1
  2  3  1  0
  4  3  1  0
  4  5  2  0
  6  4  1  0
  7  6  2  0
  8  7  1  0
  9  8  2  0
  9 14  1  0
 10  9  1  0
 10 11  2  0
 11 12  1  0
 12 13  2  0
 13  8  1  0
 15  7  1  0
 15 14  1  0
 16 15  2  0
 16 17  1  0
 18 17  1  0
 19 18  2  0
 19 20  1  0
 20 21  2  0
 21 22  1  0
 22 23  2  0
 23 18  1  0
 24 16  1  0
 24 19  1  0
 25  2  1  0
 25  6  1  0
 25 24  2  0
 26 17  1  0
 26 27  1  0
 26 33  1  0
 26 36  1  6
 28 14  1  0
 28 27  1  0
 28 29  1  1
 30 29  1  0
 30 31  1  1
 32 31  1  0
 33 30  1  0
 33 34  1  1
 35 34  1  0
M  END
>  <DRUGBANK_ID>  (1) 
DB01933

>  <SECONDARY_ACCESSION_NUMBERS>  (1) 
EXPT03167

>  <COMMON_NAME>  (1) 
7-Hydroxystaurosporine

>  <CAS_NUMBER>  (1) 
112953-11-4

>  <UNII>  (1) 
7BU5H4V94A

$$$$
