
     RDKit          2D

 34 38  0  0  0  0  0  0  0  0999 V2000
   -4.2889   -0.2942    0.0000 C   0  0  0  0  0  0  0  0  0  0  0  0
   -4.2889   -1.1236    0.0000 C   0  0  0  0  0  0  0  0  0  0  0  0
   -3.5717   -1.5322    0.0000 C   0  0  0  0  0  0  0  0  0  0  0  0
   -2.8608   -1.1199    0.0000 C   0  0  0  0  0  0  0  0  0  0  0  0
   -2.8608   -0.2938    0.0000 C   0  0  0  0  0  0  0  0  0  0  0  0
   -3.5735    0.1185    0.0000 C   0  0  0  0  0  0  0  0  0  0  0  0
   -2.1473    0.1175    0.0000 C   0  0  0  0  0  0  0  0  0  0  0  0
   -1.4315   -0.2954    0.0000 N   0  0  0  0  0  0  0  0  0  0  0  0
   -1.4296   -1.1174    0.0000 C   0  0  0  0  0  0  0  0  0  0  0  0
   -2.1422   -1.5345    0.0000 N   0  0  0  0  0  0  0  0  0  0  0  0
   -0.7146   -1.5302    0.0000 C   0  0  0  0  0  0  0  0  0  0  0  0
    0.0004   -1.1175    0.0000 C   0  0  0  0  0  0  0  0  0  0  0  0
    0.7129   -1.5298    0.0000 C   0  0  0  0  0  0  0  0  0  0  0  0
    0.7129   -2.3557    0.0000 C   0  0  0  0  0  0  0  0  0  0  0  0
    0.0022   -2.7678    0.0000 C   0  0  0  0  0  0  0  0  0  0  0  0
   -0.7146   -2.3594    0.0000 C   0  0  0  0  0  0  0  0  0  0  0  0
    1.4280   -1.1169    0.0000 O   0  0  0  0  0  0  0  0  0  0  0  0
    1.4280   -0.2911    0.0000 C   0  0  0  0  0  0  0  0  0  0  0  0
    2.1433    0.1219    0.0000 C   0  0  0  0  0  0  0  0  0  0  0  0
    2.1433    0.9478    0.0000 O   0  0  0  0  0  0  0  0  0  0  0  0
    2.8585   -0.2911    0.0000 N   0  0  0  0  0  0  0  0  0  0  0  0
    3.5737    0.1219    0.0000 C   0  0  0  0  0  0  0  0  0  0  0  0
    4.2889   -0.2911    0.0000 C   0  0  0  0  0  0  0  0  0  0  0  0
    3.5737    0.9478    0.0000 C   0  0  0  0  0  0  0  0  0  0  0  0
   -2.1473    0.9438    0.0000 N   0  0  0  0  0  0  0  0  0  0  0  0
   -1.5594    1.4338    0.0000 C   0  0  0  0  0  0  0  0  0  0  0  0
   -1.6895    2.1878    0.0000 C   0  0  0  0  0  0  0  0  0  0  0  0
   -1.1030    2.6756    0.0000 C   0  0  0  0  0  0  0  0  0  0  0  0
   -0.3848    2.4114    0.0000 C   0  0  0  0  0  0  0  0  0  0  0  0
   -0.2536    1.6614    0.0000 C   0  0  0  0  0  0  0  0  0  0  0  0
   -0.8382    1.1683    0.0000 C   0  0  0  0  0  0  0  0  0  0  0  0
    0.5002    1.5543    0.0000 C   0  0  0  0  0  0  0  0  0  0  0  0
    0.8348    2.2382    0.0000 N   0  0  0  0  0  0  0  0  0  0  0  0
    0.2880    2.7678    0.0000 N   0  0  0  0  0  0  0  0  0  0  0  0
  1  2  2  0
  2  3  1  0
  3  4  2  0
  4  5  1  0
  4 10  1  0
  5  6  2  0
  5  7  1  0
  6  1  1  0
  7 25  1  0
  8  7  2  0
  9  8  1  0
  9 11  1  0
 10  9  2  0
 11 16  1  0
 12 11  2  0
 13 12  1  0
 13 17  1  0
 14 13  2  0
 15 14  1  0
 16 15  2  0
 17 18  1  0
 18 19  1  0
 19 20  2  0
 19 21  1  0
 21 22  1  0
 22 23  1  0
 22 24  1  0
 25 26  1  0
 26 31  1  0
 27 26  2  0
 28 27  1  0
 29 28  2  0
 29 34  1  0
 30 29  1  0
 30 32  1  0
 31 30  2  0
 32 33  2  0
 33 34  1  0
M  END
>  <DRUGBANK_ID>  (1) 
DB16703

>  <COMMON_NAME>  (1) 
Belumosudil

>  <CAS_NUMBER>  (1) 
911417-87-3

>  <UNII>  (1) 
834YJF89WO

>  <SYNONYMS>  (1) 
Belumosudil

$$$$
