
     RDKit          2D

 25 27  0  0  0  0  0  0  0  0999 V2000
    1.1256    0.6202    0.0000 C   0  0  0  0  0  0  0  0  0  0  0  0
    1.1256   -0.2048    0.0000 N   0  0  0  0  0  0  0  0  0  0  0  0
    1.8403   -0.6173    0.0000 C   0  0  0  0  0  0  0  0  0  0  0  0
    2.5549   -0.2048    0.0000 C   0  0  0  0  0  0  0  0  0  0  0  0
    2.5549    0.6202    0.0000 C   0  0  0  0  0  0  0  0  0  0  0  0
    1.8403    1.0328    0.0000 S   0  0  0  0  0  0  0  0  0  0  0  0
    0.3005    0.6202    0.0000 C   0  0  0  0  0  0  0  0  0  0  0  0
    0.3005   -0.2048    0.0000 C   0  0  0  0  0  0  0  0  0  0  0  0
   -0.4138    1.0328    0.0000 N   0  0  0  0  0  0  0  0  0  0  0  0
   -1.1285    0.6202    0.0000 C   0  0  0  0  0  0  0  0  0  0  0  0
   -1.1285   -0.2048    0.0000 O   0  0  0  0  0  0  0  0  0  0  0  0
   -0.4138   -0.6173    0.0000 O   0  0  0  0  0  0  0  0  0  0  0  0
   -1.8430    1.0328    0.0000 C   0  0  0  0  0  0  0  0  0  0  0  0
    3.2804   -0.6238    0.0000 O   0  0  0  0  0  0  0  0  0  0  0  0
    1.8403   -1.4423    0.0000 C   0  0  0  0  0  0  0  0  0  0  0  0
    1.1157   -1.8606    0.0000 O   0  0  0  0  0  0  0  0  0  0  0  0
    2.5448   -1.8491    0.0000 O   0  0  0  0  0  0  0  0  0  0  0  0
   -2.5691    0.6134    0.0000 C   0  0  0  0  0  0  0  0  0  0  0  0
   -3.2829    1.0254    0.0000 C   0  0  0  0  0  0  0  0  0  0  0  0
   -3.9966    0.6134    0.0000 C   0  0  0  0  0  0  0  0  0  0  0  0
   -3.9966   -0.2105    0.0000 C   0  0  0  0  0  0  0  0  0  0  0  0
   -3.2829   -0.6227    0.0000 C   0  0  0  0  0  0  0  0  0  0  0  0
   -2.5691   -0.2105    0.0000 C   0  0  0  0  0  0  0  0  0  0  0  0
   -1.8430    1.8606    0.0000 N   0  0  0  0  0  0  0  0  0  0  0  0
    3.9966   -0.2104    0.0000 C   0  0  0  0  0  0  0  0  0  0  0  0
  1  2  1  0
  1  6  1  1
  1  7  1  0
  2  3  1  0
  2  8  1  0
  3  4  2  0
  3 15  1  0
  4  5  1  0
  4 14  1  0
  5  6  1  0
  7  8  1  0
  7  9  1  1
  8 12  2  0
  9 10  1  0
 10 11  2  0
 10 13  1  0
 13 18  1  0
 13 24  1  1
 14 25  1  0
 15 16  2  0
 15 17  1  0
 18 19  1  0
 18 23  2  0
 19 20  1  0
 20 21  2  0
 21 22  1  0
 22 23  1  0
M  END
>  <DRUGBANK_ID>  (1) 
DB11367

>  <COMMON_NAME>  (1) 
Cefroxadine

>  <CAS_NUMBER>  (1) 
51762-05-1

>  <UNII>  (1) 
B908C4MV2R

>  <SYNONYMS>  (1) 
Cefroxadine; cefroxadino

$$$$
