
     RDKit          2D

 23 25  0  0  0  0  0  0  0  0999 V2000
    0.3187    3.4131    0.0000 S   0  0  0  0  0  0  0  0  0  0  0  0
    0.5638   -2.7494    0.0000 S   0  0  0  0  0  0  0  0  0  0  0  0
   -0.3486   -0.3720    0.0000 O   0  0  0  0  0  0  0  0  0  0  0  0
    1.1438    3.4131    0.0000 O   0  0  0  0  0  0  0  0  0  0  0  0
   -0.5062    3.4131    0.0000 O   0  0  0  0  0  0  0  0  0  0  0  0
   -1.4762   -3.3785    0.0000 O   0  0  0  0  0  0  0  0  0  0  0  0
    0.3187    4.2382    0.0000 N   0  0  0  0  0  0  0  0  0  0  0  0
   -0.1036   -3.9056    0.0000 N   0  0  0  0  0  0  0  0  0  0  0  0
    1.3646   -3.9824    0.0000 N   0  0  0  0  0  0  0  0  0  0  0  0
    0.3187    0.9380    0.0000 C   0  0  0  0  0  0  0  0  0  0  0  0
    0.3187    0.1129    0.0000 C   0  0  0  0  0  0  0  0  0  0  0  0
    0.3187    2.5881    0.0000 C   0  0  0  0  0  0  0  0  0  0  0  0
    1.0332    1.3505    0.0000 C   0  0  0  0  0  0  0  0  0  0  0  0
   -0.3957    1.3505    0.0000 C   0  0  0  0  0  0  0  0  0  0  0  0
   -0.0937   -1.1566    0.0000 C   0  0  0  0  0  0  0  0  0  0  0  0
    1.0332    2.1756    0.0000 C   0  0  0  0  0  0  0  0  0  0  0  0
   -0.3957    2.1756    0.0000 C   0  0  0  0  0  0  0  0  0  0  0  0
    0.9862   -0.3720    0.0000 C   0  0  0  0  0  0  0  0  0  0  0  0
    0.7313   -1.1566    0.0000 C   0  0  0  0  0  0  0  0  0  0  0  0
   -0.5786   -1.8241    0.0000 C   0  0  0  0  0  0  0  0  0  0  0  0
   -0.2431   -2.5778    0.0000 C   0  0  0  0  0  0  0  0  0  0  0  0
   -0.6556   -3.2923    0.0000 C   0  0  0  0  0  0  0  0  0  0  0  0
    0.6500   -3.5699    0.0000 C   0  0  0  0  0  0  0  0  0  0  0  0
  1  4  2  0
  1  5  2  0
  1  7  1  0
  1 12  1  0
  2 21  1  0
  2 23  1  0
  3 11  1  0
  3 15  1  0
  6 22  2  0
  8 22  1  0
  8 23  1  0
  9 23  2  0
 10 11  1  0
 10 13  2  0
 10 14  1  0
 11 18  2  0
 12 16  2  0
 12 17  1  0
 13 16  1  0
 14 17  2  0
 15 19  2  0
 15 20  1  0
 18 19  1  0
 20 21  2  0
 21 22  1  0
M  END
>  <DRUGBANK_ID>  (1) 
DB07534

>  <COMMON_NAME>  (1) 
4-{5-[(Z)-(2-Imino-4-Oxo-1,3-Thiazolidin-5-Ylidene)methyl]furan-2-Yl}benzenesulfonamide

$$$$
