SNR
     RDKit          2D

 15 16  0  0  0  0  0  0  0  0999 V2000
   -2.2438    0.6106    0.0000 C   0  0  0  0  0  0  0  0  0  0  0  0
   -2.3301   -0.2098    0.0000 N   0  0  0  0  0  0  0  0  0  0  0  0
   -1.5764   -0.5454    0.0000 C   0  0  0  0  0  0  0  0  0  0  0  0
   -1.0244    0.0677    0.0000 C   0  0  0  0  0  0  0  0  0  0  0  0
   -1.4369    0.7822    0.0000 N   0  0  0  0  0  0  0  0  0  0  0  0
   -0.2707   -0.2679    0.0000 C   0  0  0  0  0  0  0  0  0  0  0  0
   -0.3569   -1.0884    0.0000 S   0  0  0  0  0  0  0  0  0  0  0  0
   -1.1639   -1.2599    0.0000 C   0  0  0  0  0  0  0  0  0  0  0  0
   -2.8569    1.1627    0.0000 O   0  0  0  0  0  0  0  0  0  0  0  0
    0.4438    0.1446    0.0000 C   0  0  0  0  0  0  0  0  0  0  0  0
    1.1583   -0.2679    0.0000 C   0  0  0  0  0  0  0  0  0  0  0  0
    1.8727    0.1446    0.0000 C   0  0  0  0  0  0  0  0  0  0  0  0
    2.5872   -0.2679    0.0000 C   0  0  0  0  0  0  0  0  0  0  0  0
    3.3017    0.1446    0.0000 O   0  0  0  0  0  0  0  0  0  0  0  0
    2.5872   -1.0929    0.0000 O   0  0  0  0  0  0  0  0  0  0  0  0
  1  2  1  0
  1  5  1  0
  1  9  2  0
  2  3  1  0
  3  4  1  0
  3  8  1  6
  4  5  1  6
  4  6  1  0
  6  7  1  0
  6 10  1  6
  7  8  1  0
 10 11  1  0
 11 12  1  0
 12 13  1  0
 13 14  1  0
 13 15  2  0
M  END
>  <DRUGBANK_ID>  (1) 
DB02674

>  <SECONDARY_ACCESSION_NUMBERS>  (1) 
EXPT02932

>  <COMMON_NAME>  (1) 
4-(2-Oxo-Hexahydro-Thieno[3,4-D]Imidazol-4-Yl)-Butyricacid

$$$$
