1514
     RDKit          2D

 24 28  0  0  1  0  0  0  0  0999 V2000
    7.8449   -1.4339    0.0000 O   0  0  0  0  0  0  0  0  0  0  0  0
    1.5935    0.9073    0.0000 O   0  0  0  0  0  0  0  0  0  0  0  0
    2.0779    0.2394    0.0000 N   0  0  0  0  0  0  0  0  0  0  0  0
    2.0779    1.5752    0.0000 N   0  0  0  0  0  0  0  0  0  0  0  0
    6.4023    0.1051    0.0000 C   0  0  0  0  0  0  0  0  0  0  0  0
    6.4087   -0.7248    0.0000 C   0  0  0  0  0  0  0  0  0  0  0  0
    5.6773    0.5090    0.0000 C   0  0  0  0  0  0  0  0  0  0  0  0
    4.9873    0.1106    0.0000 C   0  0  0  0  0  0  0  0  0  0  0  0
    4.2973    0.5090    0.0000 C   0  0  0  0  0  0  0  0  0  0  0  0
    7.1959   -0.9716    0.0000 C   0  0  0  0  0  0  0  0  0  0  0  0
    5.6900   -1.1398    0.0000 C   0  0  0  0  0  0  0  0  0  0  0  0
    4.9745   -0.7192    0.0000 C   0  0  0  0  0  0  0  0  0  0  0  0
    4.2973    1.3057    0.0000 C   0  0  0  0  0  0  0  0  0  0  0  0
    7.1856    0.3640    0.0000 C   0  0  0  0  0  0  0  0  0  0  0  0
    5.6773    1.3057    0.0000 C   0  0  0  0  0  0  0  0  0  0  0  0
    7.6752   -0.3001    0.0000 C   0  0  0  0  0  0  0  0  0  0  0  0
    4.9873    1.7041    0.0000 C   0  0  0  0  0  0  0  0  0  0  0  0
    3.5850    0.0830    0.0000 C   0  0  0  0  0  0  0  0  0  0  0  0
    6.4149   -1.5215    0.0000 C   0  0  0  0  0  0  0  0  0  0  0  0
    4.2973   -0.2878    0.0000 C   0  0  0  0  0  0  0  0  0  0  0  0
    3.5850    1.7316    0.0000 C   0  0  0  0  0  0  0  0  0  0  0  0
    6.9569   -1.7316    0.0000 C   0  0  0  0  0  0  0  0  0  0  0  0
    2.8631    0.4923    0.0000 C   0  0  0  0  0  0  0  0  0  0  0  0
    2.8631    1.3223    0.0000 C   0  0  0  0  0  0  0  0  0  0  0  0
  2  3  1  0
  2  4  1  0
  3 23  2  0
  4 24  2  0
  5  6  1  0
  5  7  1  0
  5 14  1  6
  6 10  1  0
  6 11  1  0
  6 19  1  6
  7  8  1  0
  7 15  1  1
  8  9  1  0
  8 12  1  6
  9 13  1  0
  9 18  1  0
  9 20  1  6
 10  1  1  0
 10 16  1  0
 10 22  1  1
 11 12  1  0
 13 17  1  6
 13 21  1  0
 14 16  1  0
 15 17  1  0
 18 23  1  0
 21 24  1  0
 23 24  1  0
M  END
>  <DRUGBANK_ID>  (1) 
DB01514

>  <COMMON_NAME>  (1) 
Furazabol

>  <CAS_NUMBER>  (1) 
1239-29-8

>  <UNII>  (1) 
2W07HSP5PX

>  <SYNONYMS>  (1) 
Furazabol

$$$$
