51-83-2
     RDKit          2D

 10  9  0  0  0  0  0  0  0  0999 V2000
    0.6554   -0.6098    0.0000 C   0  0  0  0  0  0  0  0  0  0  0  0
    1.3699   -0.1973    0.0000 N   0  0  0  0  0  0  0  0  0  0  0  0
    2.0845    0.2151    0.0000 C   0  0  0  0  0  0  0  0  0  0  0  0
    0.9574    0.5171    0.0000 C   0  0  0  0  0  0  0  0  0  0  0  0
    1.7824   -0.9119    0.0000 C   0  0  0  0  0  0  0  0  0  0  0  0
   -0.0590   -0.1973    0.0000 C   0  0  0  0  0  0  0  0  0  0  0  0
   -0.7736   -0.6098    0.0000 O   0  0  0  0  0  0  0  0  0  0  0  0
   -1.4880   -0.1973    0.0000 C   0  0  0  0  0  0  0  0  0  0  0  0
   -2.2026   -0.6098    0.0000 N   0  0  0  0  0  0  0  0  0  0  0  0
   -1.4880    0.6276    0.0000 O   0  0  0  0  0  0  0  0  0  0  0  0
  1  2  1  0
  1  6  1  0
  2  3  1  0
  2  4  1  0
  2  5  1  0
  6  7  1  0
  7  8  1  0
  8  9  1  0
  8 10  2  0
M  CHG  1   2   1
M  END
>  <DRUGBANK_ID>  (1) 
DB00411

>  <SECONDARY_ACCESSION_NUMBERS>  (1) 
APRD00845; DB02487

>  <COMMON_NAME>  (1) 
Carbamoylcholine

>  <CAS_NUMBER>  (1) 
462-58-8

>  <UNII>  (1) 
54Z8M50D6Q

>  <SYNONYMS>  (1) 
Carbacholine; carbacol; Carbamylcholine; Choline carbamate

$$$$
