
     RDKit          2D

 15 16  0  0  0  0  0  0  0  0999 V2000
   -0.5242    0.5115    0.0000 C   0  0  0  0  0  0  0  0  0  0  0  0
   -0.5242   -0.3134    0.0000 C   0  0  0  0  0  0  0  0  0  0  0  0
   -1.3492    0.5115    0.0000 C   0  0  0  0  0  0  0  0  0  0  0  0
    0.1902    0.9240    0.0000 C   0  0  0  0  0  0  0  0  0  0  0  0
   -1.3492   -0.3134    0.0000 C   0  0  0  0  0  0  0  0  0  0  0  0
    0.1902   -0.7260    0.0000 C   0  0  0  0  0  0  0  0  0  0  0  0
   -1.3492    1.3365    0.0000 C   0  0  0  0  0  0  0  0  0  0  0  0
   -2.1742    0.5115    0.0000 C   0  0  0  0  0  0  0  0  0  0  0  0
    0.9047    0.5115    0.0000 C   0  0  0  0  0  0  0  0  0  0  0  0
    0.9047   -0.3134    0.0000 C   0  0  0  0  0  0  0  0  0  0  0  0
    0.1902   -1.5510    0.0000 C   0  0  0  0  0  0  0  0  0  0  0  0
    1.6893    0.7664    0.0000 C   0  0  0  0  0  0  0  0  0  0  0  0
    1.6893   -0.5684    0.0000 C   0  0  0  0  0  0  0  0  0  0  0  0
    2.1742    0.0990    0.0000 C   0  0  0  0  0  0  0  0  0  0  0  0
    1.9442    1.5510    0.0000 C   0  0  0  0  0  0  0  0  0  0  0  0
  1  2  1  0
  1  3  1  0
  1  4  1  6
  2  5  1  1
  2  6  1  0
  3  7  1  0
  3  8  1  0
  3  5  1  0
  4  9  1  0
  6 10  1  0
  6 11  2  0
  9 12  1  0
 10 13  1  0
 12 14  2  0
 12 15  1  0
 13 14  1  0
M  END
>  <DRUGBANK_ID>  (1) 
DB16854

>  <COMMON_NAME>  (1) 
Caryophyllene

>  <CAS_NUMBER>  (1) 
87-44-5

>  <UNII>  (1) 
NRY8I0KNIR

>  <SYNONYMS>  (1) 
Beta-Caryophyllene; Î²-Caryophyllene

$$$$
