
     RDKit          2D

 32 36  0  0  0  0  0  0  0  0999 V2000
   -2.9900   -7.8139    0.0000 C   0  0  0  0  0  0  0  0  0  0  0  0
   -2.7351   -7.0293    0.0000 O   0  0  0  0  0  0  0  0  0  0  0  0
   -1.9281   -6.8577    0.0000 C   0  0  0  0  0  0  0  0  0  0  0  0
   -1.6731   -6.0731    0.0000 C   0  0  0  0  0  0  0  0  0  0  0  0
   -0.8662   -5.9016    0.0000 C   0  0  0  0  0  0  0  0  0  0  0  0
   -0.3141   -6.5147    0.0000 C   0  0  0  0  0  0  0  0  0  0  0  0
   -0.5691   -7.2993    0.0000 C   0  0  0  0  0  0  0  0  0  0  0  0
   -1.3760   -7.4708    0.0000 C   0  0  0  0  0  0  0  0  0  0  0  0
   -1.6310   -8.2554    0.0000 Cl  0  0  0  0  0  0  0  0  0  0  0  0
   -0.6112   -5.1170    0.0000 N   0  0  0  0  0  0  0  0  0  0  0  0
   -1.1633   -4.5039    0.0000 C   0  0  0  0  0  0  0  0  0  0  0  0
   -0.9083   -3.7192    0.0000 C   0  0  0  0  0  0  0  0  0  0  0  0
   -0.1014   -3.5477    0.0000 N   0  0  0  0  0  0  0  0  0  0  0  0
    0.4507   -4.1608    0.0000 C   0  0  0  0  0  0  0  0  0  0  0  0
    0.1957   -4.9454    0.0000 C   0  0  0  0  0  0  0  0  0  0  0  0
    0.1536   -2.7631    0.0000 C   0  0  0  0  0  0  0  0  0  0  0  0
    0.9606   -2.5916    0.0000 O   0  0  0  0  0  0  0  0  0  0  0  0
   -0.3984   -2.1500    0.0000 C   0  0  0  0  0  0  0  0  0  0  0  0
   -0.1435   -1.3654    0.0000 N   0  0  0  0  0  0  0  0  0  0  0  0
    0.6411   -1.1104    0.0000 C   0  0  0  0  0  0  0  0  0  0  0  0
    0.6411   -0.2854    0.0000 C   0  0  0  0  0  0  0  0  0  0  0  0
    1.3556    0.1271    0.0000 C   0  0  0  0  0  0  0  0  0  0  0  0
    2.0701   -0.2854    0.0000 C   0  0  0  0  0  0  0  0  0  0  0  0
    2.0701   -1.1104    0.0000 C   0  0  0  0  0  0  0  0  0  0  0  0
    1.3556   -1.5229    0.0000 N   0  0  0  0  0  0  0  0  0  0  0  0
   -0.1435   -0.0305    0.0000 C   0  0  0  0  0  0  0  0  0  0  0  0
   -0.6284   -0.6979    0.0000 N   0  0  0  0  0  0  0  0  0  0  0  0
   -0.3984    0.7541    0.0000 C   0  0  0  0  0  0  0  0  0  0  0  0
   -1.1831    1.0091    0.0000 N   0  0  0  0  0  0  0  0  0  0  0  0
   -1.1831    1.8341    0.0000 C   0  0  0  0  0  0  0  0  0  0  0  0
   -0.3984    2.0890    0.0000 C   0  0  0  0  0  0  0  0  0  0  0  0
    0.0865    1.4216    0.0000 N   0  0  0  0  0  0  0  0  0  0  0  0
  1  2  1  0
  2  3  1  0
  3  4  2  0
  3  8  1  0
  4  5  1  0
  5  6  2  0
  5 10  1  0
  6  7  1  0
  7  8  2  0
  8  9  1  0
 10 11  1  0
 10 15  1  0
 11 12  1  0
 12 13  1  0
 13 14  1  0
 13 16  1  0
 14 15  1  0
 16 17  2  0
 16 18  1  0
 18 19  1  0
 19 20  1  0
 19 27  1  0
 20 21  1  0
 20 25  2  0
 21 22  2  0
 21 26  1  0
 22 23  1  0
 23 24  2  0
 24 25  1  0
 26 27  2  0
 26 28  1  0
 28 29  1  0
 28 32  2  0
 29 30  1  0
 30 31  2  0
 31 32  1  0
M  END
>  <DRUGBANK_ID>  (1) 
DB12963

>  <COMMON_NAME>  (1) 
CCX-354

>  <CAS_NUMBER>  (1) 
1010073-75-2

>  <UNII>  (1) 
22PQS5K5TY

$$$$
