
     RDKit          2D

 17 19  0  0  1  0  0  0  0  0999 V2000
    3.2789    2.0625    0.0000 N   0  0  0  0  0  0  0  0  0  0  0  0
    3.2789    1.2375    0.0000 C   0  0  0  0  0  0  0  0  0  0  0  0
    3.9934    0.8250    0.0000 N   0  0  0  0  0  0  0  0  0  0  0  0
    3.9934    0.0000    0.0000 C   0  0  0  0  0  0  0  0  0  0  0  0
    3.2789   -0.4125    0.0000 N   0  0  0  0  0  0  0  0  0  0  0  0
    2.5645    0.0000    0.0000 C   0  0  0  0  0  0  0  0  0  0  0  0
    2.5645    0.8250    0.0000 C   0  0  0  0  0  0  0  0  0  0  0  0
    1.7798    1.0799    0.0000 N   0  0  0  0  0  0  0  0  0  0  0  0
    1.2949    0.4125    0.0000 C   0  0  0  0  0  0  0  0  0  0  0  0
    1.7798   -0.2549    0.0000 N   0  0  0  0  0  0  0  0  0  0  0  0
    1.5249   -1.0396    0.0000 C   0  0  0  0  0  0  0  0  0  0  0  0
    2.0098   -1.7070    0.0000 C   0  0  0  0  0  0  0  0  0  0  0  0
    1.5249   -2.3744    0.0000 C   0  0  0  0  0  0  0  0  0  0  0  0
    0.7403   -2.1195    0.0000 C   0  0  0  0  0  0  0  0  0  0  0  0
    0.0728   -2.6044    0.0000 O   0  0  0  0  0  0  0  0  0  0  0  0
    0.7403   -1.2945    0.0000 C   0  0  0  0  0  0  0  0  0  0  0  0
    0.0728   -0.8096    0.0000 O   0  0  0  0  0  0  0  0  0  0  0  0
  1  2  1  0
  2  3  2  0
  2  7  1  0
  3  4  1  0
  4  5  2  0
  5  6  1  0
  6  7  2  0
  6 10  1  0
  7  8  1  0
  8  9  2  0
  9 10  1  0
 11 10  1  6
 11 12  1  0
 11 16  1  0
 12 13  2  0
 13 14  1  0
 14 15  1  6
 14 16  1  0
 16 17  1  1
M  END
>  <DRUGBANK_ID>  (1) 
DB03216

>  <SECONDARY_ACCESSION_NUMBERS>  (1) 
EXPT00427

>  <COMMON_NAME>  (1) 
(1'R,2'S)-9-(2-Hydroxy-3'-Keto-Cyclopenten-1-yl)Adenine

$$$$
