
     RDKit          2D

 26 28  0  0  1  0  0  0  0  0999 V2000
   -1.4232    1.3660    0.0000 C   0  0  0  0  0  0  0  0  0  0  0  0
    3.3523    1.1104    0.0000 C   0  0  0  0  0  0  0  0  0  0  0  0
    3.3523    1.9354    0.0000 C   0  0  0  0  0  0  0  0  0  0  0  0
    2.6378    0.6979    0.0000 C   0  0  0  0  0  0  0  0  0  0  0  0
    0.8838    2.9750    0.0000 C   0  0  0  0  0  0  0  0  0  0  0  0
    0.6538    1.5229    0.0000 C   0  0  0  0  0  0  0  0  0  0  0  0
   -1.6313    4.4271    0.0000 C   0  0  0  0  0  0  0  0  0  0  0  0
   -2.0907    1.8510    0.0000 C   0  0  0  0  0  0  0  0  0  0  0  0
    1.1387    2.1904    0.0000 C   0  0  0  0  0  0  0  0  0  0  0  0
    2.6378    2.3479    0.0000 C   0  0  0  0  0  0  0  0  0  0  0  0
    1.9233    1.1104    0.0000 C   0  0  0  0  0  0  0  0  0  0  0  0
    0.0768    3.1465    0.0000 C   0  0  0  0  0  0  0  0  0  0  0  0
   -1.3763    5.2117    0.0000 C   0  0  0  0  0  0  0  0  0  0  0  0
    1.9233    1.9354    0.0000 C   0  0  0  0  0  0  0  0  0  0  0  0
   -2.0044    2.6714    0.0000 C   0  0  0  0  0  0  0  0  0  0  0  0
   -1.2508    3.0070    0.0000 C   0  0  0  0  0  0  0  0  0  0  0  0
   -0.2587    3.9002    0.0000 C   0  0  0  0  0  0  0  0  0  0  0  0
    2.6378    3.1729    0.0000 F   0  0  0  0  0  0  0  0  0  0  0  0
   -2.6719    3.1564    0.0000 N   0  0  0  0  0  0  0  0  0  0  0  0
    1.1387    0.8555    0.0000 N   0  0  0  0  0  0  0  0  0  0  0  0
   -0.5363    2.5945    0.0000 N   0  0  0  0  0  0  0  0  0  0  0  0
   -1.0792    3.8140    0.0000 N   0  0  0  0  0  0  0  0  0  0  0  0
   -2.8443    1.5154    0.0000 O   0  0  0  0  0  0  0  0  0  0  0  0
   -1.9284    5.8248    0.0000 O   0  0  0  0  0  0  0  0  0  0  0  0
   -0.5693    5.3832    0.0000 O   0  0  0  0  0  0  0  0  0  0  0  0
    0.1538    4.6147    0.0000 O   0  0  0  0  0  0  0  0  0  0  0  0
  3  2  2  0
  4  2  1  0
  8  1  1  6
  8 23  1  0
  9  5  1  0
  9  6  2  0
 10  3  1  0
 11  4  2  0
 12  5  1  0
 13  7  1  0
 14  9  1  0
 14 10  2  0
 14 11  1  0
 15  8  1  0
 15 19  1  6
 16 15  1  0
 17 12  2  0
 18 10  1  0
 20  6  1  0
 20 11  1  0
 21 12  1  0
 21 16  2  0
 22  7  1  0
 22 16  1  0
 22 17  1  0
 24 13  2  0
 25 13  1  0
 26 17  1  0
M  END
>  <DRUGBANK_ID>  (1) 
DB01674

>  <SECONDARY_ACCESSION_NUMBERS>  (1) 
EXPT00211

>  <COMMON_NAME>  (1) 
[2-(1-Amino-2-Hydroxy-Propyl)-4-(4-Fluoro-1h-Indol-3-Ylmethyl)-5-Hydroxy-Imidazol-1-Yl]-Acetic Acid

$$$$
