
     RDKit          2D

 23 25  0  0  0  0  0  0  0  0999 V2000
   -2.1435   -0.4125    0.0000 C   0  0  0  0  0  0  0  0  0  0  0  0
   -2.8579   -0.8251    0.0000 C   0  0  0  0  0  0  0  0  0  0  0  0
   -2.8579   -1.6500    0.0000 C   0  0  0  0  0  0  0  0  0  0  0  0
   -2.1435   -2.0625    0.0000 C   0  0  0  0  0  0  0  0  0  0  0  0
   -1.4289   -0.8251    0.0000 C   0  0  0  0  0  0  0  0  0  0  0  0
   -1.4289   -1.6500    0.0000 C   0  0  0  0  0  0  0  0  0  0  0  0
    0.0000   -0.8251    0.0000 C   0  0  0  0  0  0  0  0  0  0  0  0
    1.4289   -0.8251    0.0000 C   0  0  0  0  0  0  0  0  0  0  0  0
    2.8579   -0.8251    0.0000 C   0  0  0  0  0  0  0  0  0  0  0  0
    0.7145   -0.4125    0.0000 C   0  0  0  0  0  0  0  0  0  0  0  0
    0.7145    0.4125    0.0000 C   0  0  0  0  0  0  0  0  0  0  0  0
    0.7145    2.0625    0.0000 C   0  0  0  0  0  0  0  0  0  0  0  0
    0.0000    1.6499    0.0000 C   0  0  0  0  0  0  0  0  0  0  0  0
    0.0000    0.8250    0.0000 C   0  0  0  0  0  0  0  0  0  0  0  0
    1.4289    0.8250    0.0000 C   0  0  0  0  0  0  0  0  0  0  0  0
    1.4289    1.6499    0.0000 C   0  0  0  0  0  0  0  0  0  0  0  0
   -0.7145   -0.4125    0.0000 C   0  0  0  0  0  0  0  0  0  0  0  0
   -0.7145    0.4125    0.0000 O   0  0  0  0  0  0  0  0  0  0  0  0
   -0.7145   -2.0625    0.0000 O   0  0  0  0  0  0  0  0  0  0  0  0
    0.0000   -1.6500    0.0000 C   0  0  0  0  0  0  0  0  0  0  0  0
    0.7145   -2.0625    0.0000 O   0  0  0  0  0  0  0  0  0  0  0  0
    2.1435   -0.4125    0.0000 C   0  0  0  0  0  0  0  0  0  0  0  0
    2.1435    0.4125    0.0000 O   0  0  0  0  0  0  0  0  0  0  0  0
  1  2  2  0
  1  5  1  0
  2  3  1  0
  3  4  2  0
  4  6  1  0
  6  5  2  0
  6 19  1  0
  7 10  1  0
  8 22  1  0
 10  8  1  1
 10 11  1  0
 11 15  1  0
 12 13  2  0
 12 16  1  0
 13 14  1  0
 14 11  2  0
 15 16  2  0
 17  5  1  0
 17  7  2  0
 17 18  1  0
 19 20  1  0
 20  7  1  0
 20 21  2  0
 22  9  1  0
 22 23  2  0
M  END
>  <DRUGBANK_ID>  (1) 
DB08496

>  <COMMON_NAME>  (1) 
(R)-warfarin

>  <CAS_NUMBER>  (1) 
40281-89-8

>  <UNII>  (1) 
09CC5J5C8A

>  <SYNONYMS>  (1) 
(+)-warfarin; (R)-4-Hydroxy-3-(3-oxo-1-phenylbutyl)-2-benzopyrone; (R)-4-Hydroxy-3-(3-oxo-1-phenylbutyl)-2H-1-benzopyran-2-one; 4-hydroxy-3-[(1R)-3-oxo-1-phenylbutyl]-2H-chromen-2-one; R-warfarin; R,R-Warfarin alcohol

$$$$
