
     RDKit          2D

 13 12  0  0  1  0  0  0  0  0999 V2000
   19.3189   -4.4276    0.0000 P   0  0  0  0  0  0  0  0  0  0  0  0
   18.6044   -4.0151    0.0000 O   0  0  0  0  0  0  0  0  0  0  0  0
   17.1754   -3.1900    0.0000 O   0  0  0  0  0  0  0  0  0  0  0  0
   15.0319   -4.4276    0.0000 O   0  0  0  0  0  0  0  0  0  0  0  0
   15.7464   -3.1900    0.0000 O   0  0  0  0  0  0  0  0  0  0  0  0
   20.0334   -4.8401    0.0000 O   0  0  0  0  0  0  0  0  0  0  0  0
   19.7314   -3.7131    0.0000 O   0  0  0  0  0  0  0  0  0  0  0  0
   18.9064   -5.1420    0.0000 O   0  0  0  0  0  0  0  0  0  0  0  0
   16.4609   -5.2526    0.0000 N   0  0  0  0  0  0  0  0  0  0  0  0
   17.1754   -4.0151    0.0000 C   0  0  0  0  0  0  0  0  0  0  0  0
   16.4609   -4.4276    0.0000 C   0  0  0  0  0  0  0  0  0  0  0  0
   17.8898   -4.4276    0.0000 C   0  0  0  0  0  0  0  0  0  0  0  0
   15.7464   -4.0151    0.0000 C   0  0  0  0  0  0  0  0  0  0  0  0
  1  2  1  0
  1  6  1  0
  1  7  1  0
  1  8  2  0
  2 12  1  0
  4 13  1  0
  5 13  2  0
 10  3  1  6
 10 11  1  0
 10 12  1  0
 11  9  1  6
 11 13  1  0
M  END
>  <DRUGBANK_ID>  (1) 
DB02609

>  <SECONDARY_ACCESSION_NUMBERS>  (1) 
EXPT00231

>  <COMMON_NAME>  (1) 
4-Hydroxy-L-Threonine-5-Monophosphate

$$$$
