TF3
     RDKit          2D

 25 26  0  0  0  0  0  0  0  0999 V2000
    0.2814   -0.3225    0.0000 C   0  0  0  0  0  0  0  0  0  0  0  0
    0.9958    0.0900    0.0000 C   0  0  0  0  0  0  0  0  0  0  0  0
    0.2814   -1.1475    0.0000 C   0  0  0  0  0  0  0  0  0  0  0  0
   -0.4331    0.0900    0.0000 O   0  0  0  0  0  0  0  0  0  0  0  0
    1.7103   -0.3225    0.0000 C   0  0  0  0  0  0  0  0  0  0  0  0
    0.9958    0.9150    0.0000 Cl  0  0  0  0  0  0  0  0  0  0  0  0
    0.9958   -1.5600    0.0000 C   0  0  0  0  0  0  0  0  0  0  0  0
   -1.1476   -0.3225    0.0000 C   0  0  0  0  0  0  0  0  0  0  0  0
    1.7103   -1.1475    0.0000 C   0  0  0  0  0  0  0  0  0  0  0  0
   -1.8620    0.0900    0.0000 C   0  0  0  0  0  0  0  0  0  0  0  0
    2.4248   -1.5600    0.0000 C   0  0  0  0  0  0  0  0  0  0  0  0
   -2.5765   -0.3225    0.0000 C   0  0  0  0  0  0  0  0  0  0  0  0
   -1.8620    0.9150    0.0000 C   0  0  0  0  0  0  0  0  0  0  0  0
    3.1392   -1.1475    0.0000 C   0  0  0  0  0  0  0  0  0  0  0  0
   -3.2910    0.0900    0.0000 C   0  0  0  0  0  0  0  0  0  0  0  0
   -2.5765    1.3275    0.0000 C   0  0  0  0  0  0  0  0  0  0  0  0
    3.8537   -1.5600    0.0000 N   0  0  0  0  0  0  0  0  0  0  0  0
    3.1392   -0.3225    0.0000 O   0  0  0  0  0  0  0  0  0  0  0  0
   -3.2910    0.9150    0.0000 C   0  0  0  0  0  0  0  0  0  0  0  0
    4.5682   -1.1475    0.0000 C   0  0  0  0  0  0  0  0  0  0  0  0
   -4.0055    1.3275    0.0000 C   0  0  0  0  0  0  0  0  0  0  0  0
    5.2827   -1.5600    0.0000 C   0  0  0  0  0  0  0  0  0  0  0  0
   -4.0055    2.1525    0.0000 C   0  0  0  0  0  0  0  0  0  0  0  0
   -4.7199    0.9150    0.0000 C   0  0  0  0  0  0  0  0  0  0  0  0
    5.9971   -1.1475    0.0000 N   0  0  0  0  0  0  0  0  0  0  0  0
  1  2  2  0
  1  3  1  0
  1  4  1  0
  2  5  1  0
  2  6  1  0
  3  7  2  0
  4  8  1  0
  5  9  2  0
  7  9  1  0
  8 10  1  0
  9 11  1  0
 10 12  2  0
 10 13  1  0
 11 14  1  0
 12 15  1  0
 13 16  2  0
 14 17  1  0
 14 18  2  0
 15 19  2  0
 16 19  1  0
 17 20  1  0
 19 21  1  0
 20 22  1  0
 21 23  1  0
 21 24  1  0
 22 25  1  0
M  END
>  <DRUGBANK_ID>  (1) 
DB08610

>  <COMMON_NAME>  (1) 
N-(2-AMINOETHYL)-2-{3-CHLORO-4-[(4-ISOPROPYLBENZYL)OXY]PHENYL} ACETAMIDE

$$$$
