
     RDKit          2D

 21 22  0  0  0  0  0  0  0  0999 V2000
    0.4415    0.3254    0.0000 C   0  0  0  0  0  0  0  0  0  0  0  0
    0.8540    1.0399    0.0000 C   0  0  0  0  0  0  0  0  0  0  0  0
    0.4415    1.7543    0.0000 O   0  0  0  0  0  0  0  0  0  0  0  0
    1.6790    1.0399    0.0000 C   0  0  0  0  0  0  0  0  0  0  0  0
    2.0915    1.7543    0.0000 O   0  0  0  0  0  0  0  0  0  0  0  0
    2.0915    0.3254    0.0000 C   0  0  0  0  0  0  0  0  0  0  0  0
    2.9165    0.3254    0.0000 O   0  0  0  0  0  0  0  0  0  0  0  0
    1.6790   -0.3890    0.0000 C   0  0  0  0  0  0  0  0  0  0  0  0
    2.0915   -1.1035    0.0000 C   0  0  0  0  0  0  0  0  0  0  0  0
    1.6790   -1.8179    0.0000 O   0  0  0  0  0  0  0  0  0  0  0  0
    0.8540   -0.3890    0.0000 O   0  0  0  0  0  0  0  0  0  0  0  0
   -0.0433   -0.3419    0.0000 N   0  0  0  0  0  0  0  0  0  0  0  0
   -0.8280   -0.0870    0.0000 C   0  0  0  0  0  0  0  0  0  0  0  0
   -1.4954   -0.5719    0.0000 O   0  0  0  0  0  0  0  0  0  0  0  0
   -0.8280    0.7379    0.0000 N   0  0  0  0  0  0  0  0  0  0  0  0
   -0.0433    0.9928    0.0000 C   0  0  0  0  0  0  0  0  0  0  0  0
   -0.0433    1.8178    0.0000 O   0  0  0  0  0  0  0  0  0  0  0  0
   -1.4954    1.2228    0.0000 N   0  0  0  0  0  0  0  0  0  0  0  0
   -2.2491    0.8873    0.0000 C   0  0  0  0  0  0  0  0  0  0  0  0
   -2.3353    0.0668    0.0000 O   0  0  0  0  0  0  0  0  0  0  0  0
   -2.9165    1.3722    0.0000 C   0  0  0  0  0  0  0  0  0  0  0  0
  1  2  1  0
  1 11  1  0
  1 12  1  1
  1 16  1  0
  2  3  1  6
  2  4  1  0
  4  5  1  1
  4  6  1  0
  6  7  1  6
  6  8  1  0
  8  9  1  1
  8 11  1  0
  9 10  1  0
 13 12  1  0
 13 14  2  0
 13 15  1  0
 15 18  1  0
 16 15  1  0
 16 17  2  0
 19 18  1  0
 19 20  2  0
 21 19  1  0
M  END
>  <DRUGBANK_ID>  (1) 
DB03835

>  <SECONDARY_ACCESSION_NUMBERS>  (1) 
EXPT01602

>  <COMMON_NAME>  (1) 
N-[(5S,7R,8S,9S,10R)-8,9,10-Trihydroxy-7-(hydroxymethyl)-2,4-dioxo-6-oxa-1,3-diazaspiro[4.5]dec-3-yl]acetamide

$$$$
