
     RDKit          2D

 26 28  0  0  0  0  0  0  0  0999 V2000
    0.7144    0.4125    0.0000 C   0  0  0  0  0  0  0  0  0  0  0  0
    0.7144   -0.4125    0.0000 C   0  0  0  0  0  0  0  0  0  0  0  0
    0.0000   -0.8250    0.0000 C   0  0  0  0  0  0  0  0  0  0  0  0
   -0.7145   -0.4125    0.0000 C   0  0  0  0  0  0  0  0  0  0  0  0
   -0.7145    0.4125    0.0000 C   0  0  0  0  0  0  0  0  0  0  0  0
    0.0000    0.8250    0.0000 N   0  0  0  0  0  0  0  0  0  0  0  0
   -1.4289    0.8250    0.0000 N   0  0  0  0  0  0  0  0  0  0  0  0
   -1.4289    1.6500    0.0000 C   0  0  0  0  0  0  0  0  0  0  0  0
   -2.1434    2.8875    0.0000 C   0  0  0  0  0  0  0  0  0  0  0  0
   -2.1434    2.0625    0.0000 C   0  0  0  0  0  0  0  0  0  0  0  0
   -0.7145    2.0625    0.0000 C   0  0  0  0  0  0  0  0  0  0  0  0
   -0.7145    2.8875    0.0000 C   0  0  0  0  0  0  0  0  0  0  0  0
   -1.4289    3.3000    0.0000 C   0  0  0  0  0  0  0  0  0  0  0  0
    1.4289   -0.8250    0.0000 C   0  0  0  0  0  0  0  0  0  0  0  0
    2.1433   -0.4125    0.0000 O   0  0  0  0  0  0  0  0  0  0  0  0
    1.4289   -1.6500    0.0000 O   0  0  0  0  0  0  0  0  0  0  0  0
    2.8578   -0.8250    0.0000 C   0  0  0  0  0  0  0  0  0  0  0  0
    3.5723   -0.4125    0.0000 C   0  0  0  0  0  0  0  0  0  0  0  0
   -1.4289   -0.8250    0.0000 N   0  0  0  0  0  0  0  0  0  0  0  0
   -1.4289   -1.6500    0.0000 C   0  0  0  0  0  0  0  0  0  0  0  0
   -2.1434   -2.0625    0.0000 C   0  0  0  0  0  0  0  0  0  0  0  0
   -2.1434   -2.8874    0.0000 C   0  0  0  0  0  0  0  0  0  0  0  0
   -2.8579   -3.3000    0.0000 C   0  0  0  0  0  0  0  0  0  0  0  0
   -3.5723   -2.8874    0.0000 C   0  0  0  0  0  0  0  0  0  0  0  0
   -3.5723   -2.0625    0.0000 C   0  0  0  0  0  0  0  0  0  0  0  0
   -2.8579   -1.6500    0.0000 C   0  0  0  0  0  0  0  0  0  0  0  0
  1  2  2  0
  1  6  1  0
  2  3  1  0
  2 14  1  0
  3  4  2  0
  4  5  1  0
  4 19  1  0
  5  6  2  0
  5  7  1  0
  7  8  1  0
  8 11  1  0
  9 10  1  0
  9 13  1  0
 10  8  1  0
 11 12  1  0
 12 13  1  0
 14 15  1  0
 14 16  2  0
 15 17  1  0
 17 18  1  0
 19 20  1  0
 20 21  1  0
 21 22  2  0
 21 26  1  0
 22 23  1  0
 23 24  2  0
 24 25  1  0
 25 26  2  0
M  END
>  <DRUGBANK_ID>  (1) 
DB16745

>  <COMMON_NAME>  (1) 
PXT 3003

>  <CAS_NUMBER>  (1) 
1467047-91-1

$$$$
