
     RDKit          2D

  5  3  0  0  0  0  0  0  0  0999 V2000
   -1.0731   -1.4860    0.0000 Fe  0  0  0  0  0 15  0  0  0  0  0  0
   -0.3299    1.4860    0.0000 O   0  0  0  0  0  0  0  0  0  0  0  0
    1.0731    1.4860    0.0000 O   0  0  0  0  0  0  0  0  0  0  0  0
    0.3299    1.0731    0.0000 C   0  0  0  0  0  0  0  0  0  0  0  0
    0.3299    0.2481    0.0000 O   0  0  0  0  0  0  0  0  0  0  0  0
  2  4  2  0
  3  4  1  0
  4  5  1  0
M  CHG  3   1   2   3  -1   5  -1
M  END
>  <DRUGBANK_ID>  (1) 
DB13698

>  <COMMON_NAME>  (1) 
Ferrous carbonate

>  <CAS_NUMBER>  (1) 
563-71-3

>  <UNII>  (1) 
MZ3Q72U52O

$$$$
