
     RDKit          2D

 43 47  0  0  1  0  0  0  0  0999 V2000
   -1.5884   -6.2260    0.0000 O   0  0  0  0  0  0  0  0  0  0  0  0
   -0.8739   -6.6385    0.0000 C   0  0  0  0  0  0  0  0  0  0  0  0
   -0.1595   -7.0510    0.0000 C   0  0  0  0  0  0  0  0  0  0  0  0
   -0.1595   -7.8760    0.0000 N   0  0  0  0  0  0  0  0  0  0  0  0
    0.5080   -8.3609    0.0000 C   0  0  0  0  0  0  0  0  0  0  0  0
    0.2530   -9.1455    0.0000 N   0  0  0  0  0  0  0  0  0  0  0  0
   -0.5720   -9.1455    0.0000 N   0  0  0  0  0  0  0  0  0  0  0  0
   -0.8269   -8.3609    0.0000 N   0  0  0  0  0  0  0  0  0  0  0  0
   -0.4614   -5.9240    0.0000 C   0  0  0  0  0  0  0  0  0  0  0  0
   -0.8739   -5.2095    0.0000 C   0  0  0  0  0  0  0  0  0  0  0  0
   -0.4614   -4.4951    0.0000 C   0  0  0  0  0  0  0  0  0  0  0  0
    0.3636   -4.4951    0.0000 C   0  0  0  0  0  0  0  0  0  0  0  0
    0.7761   -3.7806    0.0000 F   0  0  0  0  0  0  0  0  0  0  0  0
    0.7761   -5.2095    0.0000 C   0  0  0  0  0  0  0  0  0  0  0  0
    0.3636   -5.9240    0.0000 C   0  0  0  0  0  0  0  0  0  0  0  0
    0.7761   -6.6385    0.0000 F   0  0  0  0  0  0  0  0  0  0  0  0
   -1.2864   -7.3529    0.0000 C   0  0  0  0  0  0  0  0  0  0  0  0
   -2.0009   -6.9404    0.0000 F   0  0  0  0  0  0  0  0  0  0  0  0
   -0.5720   -7.7654    0.0000 F   0  0  0  0  0  0  0  0  0  0  0  0
   -1.6989   -8.0674    0.0000 C   0  0  0  0  0  0  0  0  0  0  0  0
   -1.2864   -8.7819    0.0000 C   0  0  0  0  0  0  0  0  0  0  0  0
   -1.6989   -9.4964    0.0000 C   0  0  0  0  0  0  0  0  0  0  0  0
   -2.5239   -9.4964    0.0000 C   0  0  0  0  0  0  0  0  0  0  0  0
   -2.9364   -8.7819    0.0000 C   0  0  0  0  0  0  0  0  0  0  0  0
   -2.5239   -8.0674    0.0000 N   0  0  0  0  0  0  0  0  0  0  0  0
   -2.9364  -10.2108    0.0000 C   0  0  0  0  0  0  0  0  0  0  0  0
   -3.3489  -10.9253    0.0000 C   0  0  0  0  0  0  0  0  0  0  0  0
   -3.7614  -11.6398    0.0000 C   0  0  0  0  0  0  0  0  0  0  0  0
   -3.3489  -12.3542    0.0000 C   0  0  0  0  0  0  0  0  0  0  0  0
   -3.7614  -13.0687    0.0000 C   0  0  0  0  0  0  0  0  0  0  0  0
   -4.5864  -13.0687    0.0000 C   0  0  0  0  0  0  0  0  0  0  0  0
   -4.9989  -13.7832    0.0000 O   0  0  0  0  0  0  0  0  0  0  0  0
   -4.5864  -14.4977    0.0000 C   0  0  0  0  0  0  0  0  0  0  0  0
   -4.9989  -15.2121    0.0000 C   0  0  0  0  0  0  0  0  0  0  0  0
   -4.5864  -15.9266    0.0000 C   0  0  0  0  0  0  0  0  0  0  0  0
   -4.9989  -16.6411    0.0000 C   0  0  0  0  0  0  0  0  0  0  0  0
   -5.8239  -16.6411    0.0000 C   0  0  0  0  0  0  0  0  0  0  0  0
   -6.2364  -15.9266    0.0000 C   0  0  0  0  0  0  0  0  0  0  0  0
   -5.8239  -15.2121    0.0000 C   0  0  0  0  0  0  0  0  0  0  0  0
   -6.2364  -17.3555    0.0000 C   0  0  0  0  0  0  0  0  0  0  0  0
   -6.6489  -18.0700    0.0000 N   0  0  0  0  0  0  0  0  0  0  0  0
   -4.9989  -12.3542    0.0000 C   0  0  0  0  0  0  0  0  0  0  0  0
   -4.5864  -11.6398    0.0000 C   0  0  0  0  0  0  0  0  0  0  0  0
  2  1  1  6
  2  3  1  0
  2  9  1  0
  2 17  1  0
  3  4  1  0
  4  5  1  0
  4  8  1  0
  5  6  2  0
  6  7  1  0
  7  8  2  0
  9 10  2  0
  9 15  1  0
 10 11  1  0
 11 12  2  0
 12 13  1  0
 12 14  1  0
 14 15  2  0
 15 16  1  0
 17 18  1  0
 17 19  1  0
 17 20  1  0
 20 21  2  0
 20 25  1  0
 21 22  1  0
 22 23  2  0
 23 24  1  0
 23 26  1  0
 24 25  2  0
 26 27  3  0
 27 28  1  0
 28 29  2  0
 28 43  1  0
 29 30  1  0
 30 31  2  0
 31 32  1  0
 31 42  1  0
 32 33  1  0
 33 34  1  0
 34 35  2  0
 34 39  1  0
 35 36  1  0
 36 37  2  0
 37 38  1  0
 37 40  1  0
 38 39  2  0
 40 41  3  0
 42 43  2  0
M  END
>  <DRUGBANK_ID>  (1) 
DB17757

>  <COMMON_NAME>  (1) 
VT-1598

>  <CAS_NUMBER>  (1) 
2089320-99-8

>  <UNII>  (1) 
AV9K9X720D

>  <SYNONYMS>  (1) 
4-((4-(2-(6-((2r)-2-(2,4-difluorophenyl)-1,1-difluoro-2-hydroxy-3-(1h-tetrazol-1-yl)propyl)-3-pyridinyl)ethynyl)phenoxy)methyl)benzonitrile; Benzonitrile, 4-((4-(2-(6-((2r)-2-(2,4-difluorophenyl)-1,1-difluoro-2-hydroxy-3-(1h-tetrazol-1-yl)propyl)-3-pyridinyl)ethynyl)phenoxy)methyl)-

$$$$
