
     RDKit          2D

 31 34  0  0  1  0  0  0  0  0999 V2000
    9.6312  -19.4894    0.0000 C   0  0  0  0  0  0  0  0  0  0  0  0
    9.6312  -20.3145    0.0000 C   0  0  0  0  0  0  0  0  0  0  0  0
   10.3457  -20.7269    0.0000 C   0  0  0  0  0  0  0  0  0  0  0  0
   11.0603  -20.3145    0.0000 C   0  0  0  0  0  0  0  0  0  0  0  0
   11.0603  -19.4894    0.0000 C   0  0  0  0  0  0  0  0  0  0  0  0
   10.3457  -19.0769    0.0000 C   0  0  0  0  0  0  0  0  0  0  0  0
   11.7747  -20.7269    0.0000 C   0  0  0  0  0  0  0  0  0  0  0  0
   12.4893  -20.3145    0.0000 C   0  0  0  0  0  0  0  0  0  0  0  0
   12.4893  -19.4894    0.0000 C   0  0  0  0  0  0  0  0  0  0  0  0
   11.7747  -19.0769    0.0000 C   0  0  0  0  0  0  0  0  0  0  0  0
   13.2038  -19.0769    0.0000 C   0  0  0  0  0  0  0  0  0  0  0  0
   13.2038  -18.2518    0.0000 C   0  0  0  0  0  0  0  0  0  0  0  0
   12.4893  -17.8393    0.0000 C   0  0  0  0  0  0  0  0  0  0  0  0
   11.7747  -18.2518    0.0000 C   0  0  0  0  0  0  0  0  0  0  0  0
   13.9885  -19.3318    0.0000 C   0  0  0  0  0  0  0  0  0  0  0  0
   14.4734  -18.6643    0.0000 C   0  0  0  0  0  0  0  0  0  0  0  0
   13.9885  -17.9969    0.0000 C   0  0  0  0  0  0  0  0  0  0  0  0
   14.2425  -17.2149    0.0000 C   0  0  0  0  0  0  0  0  0  0  0  0
   15.0468  -17.0439    0.0000 C   0  0  0  0  0  0  0  0  0  0  0  0
   13.6924  -16.6038    0.0000 C   0  0  0  0  0  0  0  0  0  0  0  0
   15.5970  -17.6549    0.0000 C   0  0  0  0  0  0  0  0  0  0  0  0
   16.4012  -17.4840    0.0000 C   0  0  0  0  0  0  0  0  0  0  0  0
   16.9514  -18.0950    0.0000 C   0  0  0  0  0  0  0  0  0  0  0  0
   16.6973  -18.8770    0.0000 C   0  0  0  0  0  0  0  0  0  0  0  0
   17.7557  -17.9241    0.0000 C   0  0  0  0  0  0  0  0  0  0  0  0
   13.2898  -17.4341    0.0000 C   0  0  0  0  0  0  0  0  0  0  0  0
   11.0603  -18.6672    0.0000 C   0  0  0  0  0  0  0  0  0  0  0  0
   13.2898  -19.8946    0.0000 C   0  0  0  0  0  0  0  0  0  0  0  0
    8.9192  -20.7256    0.0000 O   0  0  0  0  0  0  0  0  0  0  0  0
   10.3457  -21.5492    0.0000 C   0  0  0  0  0  0  0  0  0  0  0  0
    9.6337  -21.1381    0.0000 C   0  0  0  0  0  0  0  0  0  0  0  0
  1  2  1  0
  2  3  1  0
  2 29  1  1
  3  4  1  0
  3 30  1  0
  3 31  1  0
  4  5  1  0
  4  7  1  1
  5  6  1  0
  5 27  1  1
  6  1  1  0
  7  8  1  0
  8  9  1  0
  9 10  2  0
  9 11  1  0
 10  5  1  0
 11 12  1  0
 11 15  1  0
 11 28  1  6
 12 13  1  0
 12 26  1  1
 13 14  1  0
 14 10  1  0
 15 16  1  0
 17 16  1  1
 17 12  1  0
 17 18  1  0
 18 19  1  0
 18 20  1  6
 19 21  1  0
 21 22  1  0
 22 23  2  3
 23 24  1  0
 23 25  1  0
M  END
>  <DRUGBANK_ID>  (1) 
DB03696

>  <SECONDARY_ACCESSION_NUMBERS>  (1) 
EXPT02002

>  <COMMON_NAME>  (1) 
Lanosterol

>  <CAS_NUMBER>  (1) 
79-63-0

>  <UNII>  (1) 
1J05Z83K3M

$$$$
