PCQ
     RDKit          2D

 18 19  0  0  0  0  0  0  0  0999 V2000
    1.4289   -2.0263    0.0000 Cl  0  0  0  0  0  0  0  0  0  0  0  0
   -1.4289   -2.0262    0.0000 Cl  0  0  0  0  0  0  0  0  0  0  0  0
    0.0000   -2.8513    0.0000 O   0  0  0  0  0  0  0  0  0  0  0  0
    0.0000   -0.3762    0.0000 C   0  0  0  0  0  0  0  0  0  0  0  0
    0.7145   -0.7888    0.0000 C   0  0  0  0  0  0  0  0  0  0  0  0
    0.7145   -1.6138    0.0000 C   0  0  0  0  0  0  0  0  0  0  0  0
    0.0000   -2.0263    0.0000 C   0  0  0  0  0  0  0  0  0  0  0  0
   -0.7145   -1.6137    0.0000 C   0  0  0  0  0  0  0  0  0  0  0  0
   -0.7145   -0.7887    0.0000 C   0  0  0  0  0  0  0  0  0  0  0  0
   -1.4289    2.0988    0.0000 Cl  0  0  0  0  0  0  0  0  0  0  0  0
    1.4289    2.0987    0.0000 Cl  0  0  0  0  0  0  0  0  0  0  0  0
    0.0000    2.9238    0.0000 O   0  0  0  0  0  0  0  0  0  0  0  0
    0.0000    0.4488    0.0000 C   0  0  0  0  0  0  0  0  0  0  0  0
   -0.7145    0.8613    0.0000 C   0  0  0  0  0  0  0  0  0  0  0  0
   -0.7145    1.6863    0.0000 C   0  0  0  0  0  0  0  0  0  0  0  0
    0.0000    2.0988    0.0000 C   0  0  0  0  0  0  0  0  0  0  0  0
    0.7145    1.6863    0.0000 C   0  0  0  0  0  0  0  0  0  0  0  0
    0.7145    0.8613    0.0000 C   0  0  0  0  0  0  0  0  0  0  0  0
  1  6  1  0
  2  8  1  0
  3  7  1  0
  4  5  2  0
  4  9  1  0
  4 13  1  0
  5  6  1  0
  6  7  2  0
  7  8  1  0
  8  9  2  0
 10 15  1  0
 11 17  1  0
 12 16  1  0
 13 14  2  0
 13 18  1  0
 14 15  1  0
 15 16  2  0
 16 17  1  0
 17 18  2  0
M  END
>  <DRUGBANK_ID>  (1) 
DB03346

>  <SECONDARY_ACCESSION_NUMBERS>  (1) 
EXPT02524

>  <COMMON_NAME>  (1) 
3,3',5,5'-tetrachlorobiphenyl-4,4'-diol

>  <CAS_NUMBER>  (1) 
13049-13-3

>  <UNII>  (1) 
OHS8K6J04I

>  <SYNONYMS>  (1) 
3,3',5,5'-Tetrachloro-4,4'-biphenyldiol

$$$$
