
     RDKit          2D

 36 41  0  0  1  0  0  0  0  0999 V2000
   -1.2654    4.6668    0.0000 O   0  0  0  0  0  0  0  0  0  0  0  0
   -0.5510    4.2543    0.0000 C   0  0  0  0  0  0  0  0  0  0  0  0
    0.1635    4.6668    0.0000 O   0  0  0  0  0  0  0  0  0  0  0  0
   -0.5510    3.4293    0.0000 C   0  0  0  0  0  0  0  0  0  0  0  0
    0.1635    3.0168    0.0000 C   0  0  0  0  0  0  0  0  0  0  0  0
    0.1635    2.1918    0.0000 C   0  0  0  0  0  0  0  0  0  0  0  0
   -0.5510    1.7793    0.0000 C   0  0  0  0  0  0  0  0  0  0  0  0
   -0.5510    0.9543    0.0000 C   0  0  0  0  0  0  0  0  0  0  0  0
    0.1635    0.5418    0.0000 N   0  0  0  0  0  0  0  0  0  0  0  0
    0.1635   -0.2832    0.0000 C   0  0  0  0  0  0  0  0  0  0  0  0
    0.8780   -0.6957    0.0000 C   0  0  0  0  0  0  0  0  0  0  0  0
    0.6717    0.1293    0.0000 C   0  0  0  0  0  0  0  0  0  0  0  0
    0.8780    0.9543    0.0000 C   0  0  0  0  0  0  0  0  0  0  0  0
    1.5925    0.5418    0.0000 C   0  0  0  0  0  0  0  0  0  0  0  0
    1.5925   -0.2832    0.0000 N   0  0  0  0  0  0  0  0  0  0  0  0
    2.3069   -0.6957    0.0000 C   0  0  0  0  0  0  0  0  0  0  0  0
    2.3069   -1.5207    0.0000 C   0  0  0  0  0  0  0  0  0  0  0  0
    3.0214   -1.9332    0.0000 C   0  0  0  0  0  0  0  0  0  0  0  0
    3.0214   -2.7582    0.0000 C   0  0  0  0  0  0  0  0  0  0  0  0
    2.3069   -3.1707    0.0000 C   0  0  0  0  0  0  0  0  0  0  0  0
    2.3069   -3.9957    0.0000 O   0  0  0  0  0  0  0  0  0  0  0  0
    1.5925   -4.4082    0.0000 C   0  0  0  0  0  0  0  0  0  0  0  0
    1.5925   -5.2332    0.0000 C   0  0  0  0  0  0  0  0  0  0  0  0
    0.8780   -5.6457    0.0000 C   0  0  0  0  0  0  0  0  0  0  0  0
    0.1635   -5.2332    0.0000 C   0  0  0  0  0  0  0  0  0  0  0  0
    0.1635   -4.4082    0.0000 C   0  0  0  0  0  0  0  0  0  0  0  0
    0.8780   -3.9957    0.0000 C   0  0  0  0  0  0  0  0  0  0  0  0
   -0.5510   -5.6457    0.0000 C   0  0  0  0  0  0  0  0  0  0  0  0
   -0.6372   -6.4662    0.0000 N   0  0  0  0  0  0  0  0  0  0  0  0
   -1.4442   -6.6377    0.0000 C   0  0  0  0  0  0  0  0  0  0  0  0
   -1.8567   -5.9233    0.0000 C   0  0  0  0  0  0  0  0  0  0  0  0
   -1.3046   -5.3102    0.0000 O   0  0  0  0  0  0  0  0  0  0  0  0
    1.5925   -2.7582    0.0000 C   0  0  0  0  0  0  0  0  0  0  0  0
    1.5925   -1.9332    0.0000 C   0  0  0  0  0  0  0  0  0  0  0  0
   -1.2654    2.1918    0.0000 C   0  0  0  0  0  0  0  0  0  0  0  0
   -1.2654    3.0168    0.0000 C   0  0  0  0  0  0  0  0  0  0  0  0
  1  2  1  0
  2  3  2  0
  2  4  1  0
  4  5  2  0
  4 36  1  0
  5  6  1  0
  6  7  2  0
  7  8  1  0
  7 35  1  0
  8  9  1  0
  9 10  1  0
 11 10  1  6
 11 12  1  0
 11 15  1  0
 13 12  1  0
 13  9  1  0
 13 14  1  6
 14 15  1  0
 15 16  1  0
 16 17  1  0
 17 18  2  0
 17 34  1  0
 18 19  1  0
 19 20  2  0
 20 21  1  0
 20 33  1  0
 21 22  1  0
 22 23  2  0
 22 27  1  0
 23 24  1  0
 24 25  2  0
 25 26  1  0
 25 28  1  0
 26 27  2  0
 28 29  2  0
 28 32  1  0
 29 30  1  0
 30 31  2  0
 31 32  1  0
 33 34  2  0
 35 36  2  0
M  END
>  <DRUGBANK_ID>  (1) 
DB15385

>  <COMMON_NAME>  (1) 
Acebilustat

>  <CAS_NUMBER>  (1) 
943764-99-6

>  <UNII>  (1) 
J64RI4D29U

>  <SYNONYMS>  (1) 
Acebilustat

$$$$
