
     RDKit          2D

 15 14  0  0  0  0  0  0  0  0999 V2000
    0.8245    0.3009    0.0000 C   0  0  0  0  0  0  0  0  0  0  0  0
    1.2368    1.0157    0.0000 C   0  0  0  0  0  0  0  0  0  0  0  0
    0.0000    0.3009    0.0000 C   0  0  0  0  0  0  0  0  0  0  0  0
   -1.2369    1.0157    0.0000 N   0  0  0  0  0  0  0  0  0  0  0  0
    0.0000   -1.1283    0.0000 C   0  0  0  0  0  0  0  0  0  0  0  0
   -0.4123   -0.4137    0.0000 O   0  0  0  0  0  0  0  0  0  0  0  0
    0.8245    1.7303    0.0000 O   0  0  0  0  0  0  0  0  0  0  0  0
    2.0614    1.0157    0.0000 O   0  0  0  0  0  0  0  0  0  0  0  0
   -0.4123   -1.8402    0.0000 O   0  0  0  0  0  0  0  0  0  0  0  0
   -0.4123    1.0157    0.0000 C   0  0  0  0  0  0  0  0  0  0  0  0
   -1.2369    0.1910    0.0000 C   0  0  0  0  0  0  0  0  0  0  0  0
   -1.2369    1.8402    0.0000 C   0  0  0  0  0  0  0  0  0  0  0  0
   -2.0614    1.0157    0.0000 C   0  0  0  0  0  0  0  0  0  0  0  0
    0.8245   -1.1283    0.0000 C   0  0  0  0  0  0  0  0  0  0  0  0
    1.2368   -0.4137    0.0000 C   0  0  0  0  0  0  0  0  0  0  0  0
  2  1  1  0
  3  1  1  1
  3  6  1  0
  4 10  1  0
  5  6  1  0
  7  2  2  0
  8  2  1  0
  9  5  2  0
 10  3  1  0
 11  4  1  0
 12  4  1  0
 13  4  1  0
 14  5  1  0
 15 14  1  0
M  CHG  2   4   1   8  -1
M  END
>  <DRUGBANK_ID>  (1) 
DB15980

>  <COMMON_NAME>  (1) 
Levocarnitine propionate

>  <CAS_NUMBER>  (1) 
20064-19-1

>  <UNII>  (1) 
0HU2UI27HF

>  <SYNONYMS>  (1) 
L-Carnitine propionate; Propionyl-L-carnitine

$$$$
