[NO NAME]
     RDKit          2D

 32 35  0  0  1  0  0  0  0  0999 V2000
   -0.7145    0.4125    0.0000 C   0  0  0  0  0  0  0  0  0  0  0  0
   -0.7145   -0.4125    0.0000 C   0  0  0  0  0  0  0  0  0  0  0  0
    0.7145   -0.4125    0.0000 C   0  0  0  0  0  0  0  0  0  0  0  0
    0.0000   -0.8250    0.0000 C   0  0  0  0  0  0  0  0  0  0  0  0
    0.0000    0.8250    0.0000 C   0  0  0  0  0  0  0  0  0  0  0  0
    0.7145    0.4125    0.0000 C   0  0  0  0  0  0  0  0  0  0  0  0
    2.6985    1.2374    0.0000 C   0  0  0  0  0  0  0  0  0  0  0  0
    2.2134    0.5699    0.0000 C   0  0  0  0  0  0  0  0  0  0  0  0
    3.5235    1.2374    0.0000 C   0  0  0  0  0  0  0  0  0  0  0  0
    0.0000    1.6500    0.0000 C   0  0  0  0  0  0  0  0  0  0  0  0
   -0.7145    2.0625    0.0000 O   0  0  0  0  0  0  0  0  0  0  0  0
   -1.4290    0.8250    0.0000 C   0  0  0  0  0  0  0  0  0  0  0  0
   -1.4290   -0.8250    0.0000 C   0  0  0  0  0  0  0  0  0  0  0  0
   -2.1434    0.4125    0.0000 C   0  0  0  0  0  0  0  0  0  0  0  0
   -2.1434   -0.4125    0.0000 C   0  0  0  0  0  0  0  0  0  0  0  0
   -2.8579   -0.8250    0.0000 O   0  0  0  0  0  0  0  0  0  0  0  0
    0.0000    0.0000    0.0000 Cl  0  0  0  0  0  0  0  0  0  0  0  0
    1.4289    1.6500    0.0000 C   0  0  0  0  0  0  0  0  0  0  0  0
    1.4289    2.4749    0.0000 C   0  0  0  0  0  0  0  0  0  0  0  0
    1.4289    0.8250    0.0000 C   0  0  0  0  0  0  0  0  0  0  0  0
   -0.7145    1.2374    0.0000 C   0  0  0  0  0  0  0  0  0  0  0  0
    0.7145    2.0625    0.0000 C   0  0  0  0  0  0  0  0  0  0  0  0
    3.6424    1.9049    0.0000 C   0  0  0  0  0  0  0  0  0  0  0  0
    2.9280    2.3174    0.0000 C   0  0  0  0  0  0  0  0  0  0  0  0
    2.9280    3.1424    0.0000 O   0  0  0  0  0  0  0  0  0  0  0  0
    4.3569    2.3174    0.0000 O   0  0  0  0  0  0  0  0  0  0  0  0
    0.0001    3.3000    0.0000 C   0  0  0  0  0  0  0  0  0  0  0  0
    2.2134    1.9049    0.0000 C   0  0  0  0  0  0  0  0  0  0  0  0
    2.2134    2.8875    0.0000 O   0  0  0  0  0  0  0  0  0  0  0  0
    1.4289    3.3000    0.0000 C   0  0  0  0  0  0  0  0  0  0  0  0
    1.4289    4.1250    0.0000 O   0  0  0  0  0  0  0  0  0  0  0  0
    0.7145    2.8875    0.0000 C   0  0  0  0  0  0  0  0  0  0  0  0
  1 12  1  0
  1 21  1  1
  1  2  1  0
  2 13  2  0
  3  4  1  0
  4  2  1  0
  5  1  1  0
  5 10  1  0
  5 17  1  6
  6  5  1  0
  6  3  1  6
  7  8  1  0
  7  9  1  1
 10 22  1  0
 10 11  1  1
 12 14  2  0
 13 15  1  0
 14 15  1  0
 15 16  2  0
 18 28  1  0
 18 22  1  0
 18 19  1  1
 20  6  1  0
 20  8  1  1
 20 18  1  0
 23 26  1  0
 24 23  1  0
 24 25  2  0
 28  7  1  0
 28 24  1  0
 28 29  1  6
 29 30  1  0
 30 32  1  0
 30 31  2  0
 32 27  1  0
M  END
>  <DRUGBANK_ID>  (1) 
DB14221

>  <COMMON_NAME>  (1) 
Beclomethasone 17-monopropionate

>  <CAS_NUMBER>  (1) 
5534-18-9

>  <UNII>  (1) 
5BGA9FD55H

>  <SYNONYMS>  (1) 
17-BMP; Beclomethasone 17-propionate; Beclomethasone-17-monopropionate

$$$$
