
     RDKit          2D

 22 23  0  0  0  0  0  0  0  0999 V2000
   -5.0013    2.8875    0.0000 F   0  0  0  0  0  0  0  0  0  0  0  0
   -4.2868    3.3000    0.0000 C   0  0  0  0  0  0  0  0  0  0  0  0
   -3.8743    2.5855    0.0000 F   0  0  0  0  0  0  0  0  0  0  0  0
   -4.6993    4.0145    0.0000 F   0  0  0  0  0  0  0  0  0  0  0  0
   -3.5724    3.7125    0.0000 O   0  0  0  0  0  0  0  0  0  0  0  0
   -2.8579    3.3000    0.0000 C   0  0  0  0  0  0  0  0  0  0  0  0
   -2.1434    3.7125    0.0000 C   0  0  0  0  0  0  0  0  0  0  0  0
   -1.4289    3.3000    0.0000 C   0  0  0  0  0  0  0  0  0  0  0  0
   -1.4289    2.4750    0.0000 C   0  0  0  0  0  0  0  0  0  0  0  0
   -0.7145    2.0625    0.0000 N   0  0  0  0  0  0  0  0  0  0  0  0
    0.0000    2.4750    0.0000 C   0  0  0  0  0  0  0  0  0  0  0  0
    0.0000    3.3000    0.0000 N   0  0  0  0  0  0  0  0  0  0  0  0
    0.7145    2.0625    0.0000 N   0  0  0  0  0  0  0  0  0  0  0  0
    1.4289    2.4750    0.0000 C   0  0  0  0  0  0  0  0  0  0  0  0
    1.4289    3.3000    0.0000 N   0  0  0  0  0  0  0  0  0  0  0  0
    2.1434    2.0625    0.0000 N   0  0  0  0  0  0  0  0  0  0  0  0
    2.8971    2.3981    0.0000 C   0  0  0  0  0  0  0  0  0  0  0  0
    3.4491    1.7850    0.0000 C   0  0  0  0  0  0  0  0  0  0  0  0
    3.0366    1.0705    0.0000 C   0  0  0  0  0  0  0  0  0  0  0  0
    2.2296    1.2420    0.0000 C   0  0  0  0  0  0  0  0  0  0  0  0
   -2.1434    2.0625    0.0000 C   0  0  0  0  0  0  0  0  0  0  0  0
   -2.8579    2.4750    0.0000 C   0  0  0  0  0  0  0  0  0  0  0  0
  1  2  1  0
  2  3  1  0
  2  4  1  0
  2  5  1  0
  5  6  1  0
  6  7  2  0
  6 22  1  0
  7  8  1  0
  8  9  2  0
  9 10  1  0
  9 21  1  0
 10 11  1  0
 11 12  2  0
 11 13  1  0
 13 14  1  0
 14 15  2  0
 14 16  1  0
 16 17  1  0
 16 20  1  0
 17 18  1  0
 18 19  1  0
 19 20  1  0
 21 22  2  0
M  END
>  <DRUGBANK_ID>  (1) 
DB17121

>  <COMMON_NAME>  (1) 
IM-156 free base

>  <CAS_NUMBER>  (1) 
1422365-93-2

>  <UNII>  (1) 
4G3BUV6ZSK

>  <SYNONYMS>  (1) 
1-pyrrolidinecarboximidamide, n-(imino((4-(trifluoromethoxy)phenyl)amino)methyl)-; Hl-156a free base; Hl156a free base; Im156 free base; N-(imino((4-(trifluoromethoxy)phenyl)amino)methyl)-1-pyrrolidinecarboximidamide

$$$$
