
     RDKit          2D

 15 15  0  0  1  0  0  0  0  0999 V2000
   -1.2957    0.8929    0.0000 C   0  0  0  0  0  0  0  0  0  0  0  0
    0.1333    0.8929    0.0000 C   0  0  0  0  0  0  0  0  0  0  0  0
   -0.5812    2.1304    0.0000 C   0  0  0  0  0  0  0  0  0  0  0  0
    1.0307    5.3049    0.0000 C   0  0  0  0  0  0  0  0  0  0  0  0
    0.8007    3.8528    0.0000 C   0  0  0  0  0  0  0  0  0  0  0  0
   -0.5812    1.3054    0.0000 C   0  0  0  0  0  0  0  0  0  0  0  0
    0.5458    4.6374    0.0000 C   0  0  0  0  0  0  0  0  0  0  0  0
    0.1333    2.5429    0.0000 C   0  0  0  0  0  0  0  0  0  0  0  0
    0.8477    2.1304    0.0000 C   0  0  0  0  0  0  0  0  0  0  0  0
    0.6951    6.0586    0.0000 N   0  0  0  0  0  0  0  0  0  0  0  0
   -0.2792    4.6374    0.0000 N   0  0  0  0  0  0  0  0  0  0  0  0
   -0.5342    3.8528    0.0000 N   0  0  0  0  0  0  0  0  0  0  0  0
    0.1333    3.3679    0.0000 N   0  0  0  0  0  0  0  0  0  0  0  0
    1.5622    2.5429    0.0000 O   0  0  0  0  0  0  0  0  0  0  0  0
    0.8477    1.3054    0.0000 O   0  0  0  0  0  0  0  0  0  0  0  0
  6  1  1  0
  6  2  1  0
  6  3  1  0
  7  4  1  0
  7  5  2  0
  8  3  1  6
  8 13  1  0
  9  8  1  0
 10  4  1  0
 11  7  1  0
 12 11  2  0
 13  5  1  0
 13 12  1  0
 14  9  2  0
 15  9  1  0
M  END
>  <DRUGBANK_ID>  (1) 
DB03244

>  <SECONDARY_ACCESSION_NUMBERS>  (1) 
EXPT03000

>  <COMMON_NAME>  (1) 
(S)-2-[4-(Aminomethyl)-1h-1,2,3-Triazol-1-Yl]-4-Methylpentanoic Acid

$$$$
