
     RDKit          2D

 19 18  0  0  0  0  0  0  0  0999 V2000
    1.0648   -0.4283    0.0000 C   0  0  0  0  0  0  0  0  0  0  0  0
    0.3492   -0.8378    0.0000 C   0  0  0  0  0  0  0  0  0  0  0  0
    1.0648    0.4042    0.0000 C   0  0  0  0  0  0  0  0  0  0  0  0
    1.7840   -0.8378    0.0000 C   0  0  0  0  0  0  0  0  0  0  0  0
    0.8790   -1.4021    0.0000 O   0  0  0  0  0  0  0  0  0  0  0  0
   -0.3596   -0.4318    0.0000 C   0  0  0  0  0  0  0  0  0  0  0  0
    1.7771    0.8206    0.0000 C   0  0  0  0  0  0  0  0  0  0  0  0
    1.7875   -1.6670    0.0000 O   0  0  0  0  0  0  0  0  0  0  0  0
    2.4997   -0.4180    0.0000 O   0  0  0  0  0  0  0  0  0  0  0  0
   -1.0718   -0.8413    0.0000 O   0  0  0  0  0  0  0  0  0  0  0  0
   -0.3596    0.3973    0.0000 O   0  0  0  0  0  0  0  0  0  0  0  0
    1.7771    1.6532    0.0000 O   0  0  0  0  0  0  0  0  0  0  0  0
    2.4997    0.4076    0.0000 O   0  0  0  0  0  0  0  0  0  0  0  0
    2.5066   -2.0765    0.0000 C   0  0  0  0  0  0  0  0  0  0  0  0
   -1.7909   -0.4386    0.0000 C   0  0  0  0  0  0  0  0  0  0  0  0
    2.4962    2.0627    0.0000 C   0  0  0  0  0  0  0  0  0  0  0  0
    2.5066   -2.8988    0.0000 C   0  0  0  0  0  0  0  0  0  0  0  0
   -2.5066   -0.8413    0.0000 C   0  0  0  0  0  0  0  0  0  0  0  0
    2.4859    2.8988    0.0000 C   0  0  0  0  0  0  0  0  0  0  0  0
  1  2  1  0
  1  3  1  0
  1  4  1  0
  1  5  1  0
  2  6  1  0
  3  7  1  0
  4  8  1  0
  4  9  2  0
  6 10  1  0
  6 11  2  0
  7 12  1  0
  7 13  2  0
  8 14  1  0
 10 15  1  0
 12 16  1  0
 14 17  1  0
 15 18  1  0
 16 19  1  0
M  END
>  <DRUGBANK_ID>  (1) 
DB16827

>  <COMMON_NAME>  (1) 
Triethyl citrate

>  <CAS_NUMBER>  (1) 
77-93-0

>  <UNII>  (1) 
8Z96QXD6UM

>  <SYNONYMS>  (1) 
Citric acid ethyl ester; Citric acid triethyl ester

$$$$
