
     RDKit          2D

 33 37  0  0  0  0  0  0  0  0999 V2000
    2.4292   -1.4815    0.0000 C   0  0  0  0  0  0  0  0  0  0  0  0
    2.2577   -0.6746    0.0000 C   0  0  0  0  0  0  0  0  0  0  0  0
    1.4730   -0.4196    0.0000 C   0  0  0  0  0  0  0  0  0  0  0  0
    2.8708   -0.1225    0.0000 C   0  0  0  0  0  0  0  0  0  0  0  0
    2.7845    0.6979    0.0000 C   0  0  0  0  0  0  0  0  0  0  0  0
    3.5382    1.0335    0.0000 N   0  0  0  0  0  0  0  0  0  0  0  0
    4.0902    0.4204    0.0000 C   0  0  0  0  0  0  0  0  0  0  0  0
    4.9152    0.4204    0.0000 C   0  0  0  0  0  0  0  0  0  0  0  0
    5.3277   -0.2941    0.0000 C   0  0  0  0  0  0  0  0  0  0  0  0
    4.9152   -1.0085    0.0000 C   0  0  0  0  0  0  0  0  0  0  0  0
    4.0902   -1.0085    0.0000 C   0  0  0  0  0  0  0  0  0  0  0  0
    3.6777   -0.2941    0.0000 C   0  0  0  0  0  0  0  0  0  0  0  0
    5.3277   -1.7230    0.0000 C   0  0  0  0  0  0  0  0  0  0  0  0
    6.1527   -1.7230    0.0000 C   0  0  0  0  0  0  0  0  0  0  0  0
    6.5652   -2.4375    0.0000 C   0  0  0  0  0  0  0  0  0  0  0  0
    6.1527   -3.1519    0.0000 N   0  0  0  0  0  0  0  0  0  0  0  0
    6.5652   -3.8664    0.0000 C   0  0  0  0  0  0  0  0  0  0  0  0
    6.1527   -4.5809    0.0000 C   0  0  0  0  0  0  0  0  0  0  0  0
    6.5652   -5.2954    0.0000 N   0  0  0  0  0  0  0  0  0  0  0  0
    5.3277   -4.5809    0.0000 O   0  0  0  0  0  0  0  0  0  0  0  0
    5.3277   -3.1519    0.0000 C   0  0  0  0  0  0  0  0  0  0  0  0
    4.9152   -2.4375    0.0000 C   0  0  0  0  0  0  0  0  0  0  0  0
    2.0701    1.1104    0.0000 C   0  0  0  0  0  0  0  0  0  0  0  0
    1.3556    0.6979    0.0000 C   0  0  0  0  0  0  0  0  0  0  0  0
    0.6411    1.1104    0.0000 N   0  0  0  0  0  0  0  0  0  0  0  0
   -0.1435    0.8555    0.0000 N   0  0  0  0  0  0  0  0  0  0  0  0
   -0.6284    1.5229    0.0000 C   0  0  0  0  0  0  0  0  0  0  0  0
   -0.1435    2.1904    0.0000 N   0  0  0  0  0  0  0  0  0  0  0  0
    0.6411    1.9354    0.0000 C   0  0  0  0  0  0  0  0  0  0  0  0
    1.3556    2.3479    0.0000 C   0  0  0  0  0  0  0  0  0  0  0  0
    1.3556    3.1729    0.0000 C   0  0  0  0  0  0  0  0  0  0  0  0
    2.0701    1.9354    0.0000 C   0  0  0  0  0  0  0  0  0  0  0  0
    2.7845    2.3479    0.0000 C   0  0  0  0  0  0  0  0  0  0  0  0
  1  2  1  0
  2  3  1  0
  2  4  1  0
  4  5  2  0
  4 12  1  0
  5  6  1  0
  5 23  1  0
  6  7  1  0
  7  8  1  0
  7 12  2  0
  8  9  2  0
  9 10  1  0
 10 11  2  0
 10 13  1  0
 11 12  1  0
 13 14  1  0
 13 22  1  0
 14 15  1  0
 15 16  1  0
 16 17  1  0
 16 21  1  0
 17 18  1  0
 18 19  1  0
 18 20  2  0
 21 22  1  0
 23 24  2  0
 23 32  1  0
 24 25  1  0
 25 26  1  0
 25 29  1  0
 26 27  2  0
 27 28  1  0
 28 29  2  0
 29 30  1  0
 30 31  1  0
 30 32  2  0
 32 33  1  0
M  END
>  <DRUGBANK_ID>  (1) 
DB16580

>  <COMMON_NAME>  (1) 
Afimetoran

>  <CAS_NUMBER>  (1) 
2171019-55-7

>  <UNII>  (1) 
LXP7MZL0VF

>  <SYNONYMS>  (1) 
Afimetoran; BMS-986256

$$$$
