
     RDKit          2D

  7  6  0  0  0  0  0  0  0  0999 V2000
    0.4125    0.2062    0.0000 C   0  0  0  0  0  0  0  0  0  0  0  0
    1.1270   -0.2062    0.0000 O   0  0  0  0  0  0  0  0  0  0  0  0
    0.4125    1.0313    0.0000 O   0  0  0  0  0  0  0  0  0  0  0  0
   -0.3019   -0.2062    0.0000 C   0  0  0  0  0  0  0  0  0  0  0  0
   -0.3019   -1.0313    0.0000 N   0  0  0  0  0  0  0  0  0  0  0  0
   -1.1270   -0.2062    0.0000 C   0  0  0  0  0  0  0  0  0  0  0  0
   -0.7145    0.5082    0.0000 C   0  0  0  0  0  0  0  0  0  0  0  0
  1  3  2  0
  1  2  1  0
  4  1  1  0
  4  5  1  0
  6  4  1  0
  7  4  1  0
M  END
>  <DRUGBANK_ID>  (1) 
DB02952

>  <SECONDARY_ACCESSION_NUMBERS>  (1) 
EXPT00471

>  <COMMON_NAME>  (1) 
2-aminoisobutyric acid

>  <CAS_NUMBER>  (1) 
62-57-7

>  <UNII>  (1) 
1E7ZW41IQU

>  <SYNONYMS>  (1) 
2-Amino-2-methylpropanoic acid; 2-aminoisobutyric acid; alpha-Aminoisobutyric acid; alpha-Methylalanine; α-aminoisobutanoic acid; α-aminoisobutyric acid; α-methylalanine; α,α-dimethylglycine

$$$$
