B78
     RDKit          2D

 17 18  0  0  0  0  0  0  0  0999 V2000
   -1.0636    0.8282    0.0000 C   0  0  0  0  0  0  0  0  0  0  0  0
   -1.0636    0.0032    0.0000 C   0  0  0  0  0  0  0  0  0  0  0  0
   -0.3491   -0.4093    0.0000 C   0  0  0  0  0  0  0  0  0  0  0  0
   -0.3491   -1.2343    0.0000 C   0  0  0  0  0  0  0  0  0  0  0  0
   -1.0636   -1.6468    0.0000 C   0  0  0  0  0  0  0  0  0  0  0  0
   -1.7781   -1.2343    0.0000 C   0  0  0  0  0  0  0  0  0  0  0  0
   -1.7781   -0.4093    0.0000 C   0  0  0  0  0  0  0  0  0  0  0  0
   -1.0636   -2.4718    0.0000 O   0  0  0  0  0  0  0  0  0  0  0  0
   -1.7781   -2.8843    0.0000 C   0  0  0  0  0  0  0  0  0  0  0  0
    0.3654    0.0032    0.0000 O   0  0  0  0  0  0  0  0  0  0  0  0
    0.3654    0.8282    0.0000 C   0  0  0  0  0  0  0  0  0  0  0  0
    1.0798    1.2407    0.0000 C   0  0  0  0  0  0  0  0  0  0  0  0
    1.0798    2.0657    0.0000 C   0  0  0  0  0  0  0  0  0  0  0  0
    1.7943    2.4782    0.0000 C   0  0  0  0  0  0  0  0  0  0  0  0
    2.5088    2.0657    0.0000 N   0  0  0  0  0  0  0  0  0  0  0  0
    2.5088    1.2407    0.0000 C   0  0  0  0  0  0  0  0  0  0  0  0
    1.7943    0.8282    0.0000 C   0  0  0  0  0  0  0  0  0  0  0  0
  1  2  1  0
  2  3  2  0
  2  7  1  0
  3  4  1  0
  3 10  1  0
  4  5  2  0
  5  6  1  0
  5  8  1  0
  6  7  2  0
  8  9  1  0
 10 11  1  0
 11 12  1  0
 12 13  2  0
 12 17  1  0
 13 14  1  0
 14 15  2  0
 15 16  1  0
 16 17  2  0
M  END
>  <DRUGBANK_ID>  (1) 
DB07428

>  <COMMON_NAME>  (1) 
4-[(5-methoxy-2-methylphenoxy)methyl]pyridine

$$$$
