BYM
     RDKit          2D

 19 21  0  0  0  0  0  0  0  0999 V2000
    1.9220   -1.1693    0.0000 C   0  0  0  0  0  0  0  0  0  0  0  0
    0.8421   -1.9539    0.0000 C   0  0  0  0  0  0  0  0  0  0  0  0
   -0.8888    0.5531    0.0000 C   0  0  0  0  0  0  0  0  0  0  0  0
   -0.8888    1.3781    0.0000 C   0  0  0  0  0  0  0  0  0  0  0  0
   -0.1743    0.1406    0.0000 C   0  0  0  0  0  0  0  0  0  0  0  0
   -0.1743    1.7906    0.0000 C   0  0  0  0  0  0  0  0  0  0  0  0
   -2.1584    0.9656    0.0000 C   0  0  0  0  0  0  0  0  0  0  0  0
    0.5401    0.5531    0.0000 C   0  0  0  0  0  0  0  0  0  0  0  0
    0.5401    1.3781    0.0000 C   0  0  0  0  0  0  0  0  0  0  0  0
    1.6671   -1.9539    0.0000 N   0  0  0  0  0  0  0  0  0  0  0  0
    0.5872   -1.1693    0.0000 S   0  0  0  0  0  0  0  0  0  0  0  0
    1.2546   -0.6844    0.0000 C   0  0  0  0  0  0  0  0  0  0  0  0
    0.3572   -2.6213    0.0000 O   0  0  0  0  0  0  0  0  0  0  0  0
    2.7067   -0.9143    0.0000 O   0  0  0  0  0  0  0  0  0  0  0  0
   -1.6734    0.2982    0.0000 O   0  0  0  0  0  0  0  0  0  0  0  0
   -1.6734    1.6331    0.0000 O   0  0  0  0  0  0  0  0  0  0  0  0
   -2.8771    0.5607    0.0000 F   0  0  0  0  0  0  0  0  0  0  0  0
    1.2546    0.1406    0.0000 C   0  0  0  0  0  0  0  0  0  0  0  0
   -2.8771    1.3706    0.0000 F   0  0  0  0  0  0  0  0  0  0  0  0
  1 10  1  0
  1 12  1  0
  1 14  2  0
  2 10  1  0
  2 11  1  0
  2 13  2  0
  3  4  1  0
  3  5  2  0
  3 15  1  0
  4  6  2  0
  4 16  1  0
  5  8  1  0
  6  9  1  0
  7 15  1  0
  7 16  1  0
  7 17  1  0
  7 19  1  0
  8  9  2  0
  8 18  1  0
 11 12  1  0
 12 18  2  0
M  END
>  <DRUGBANK_ID>  (1) 
DB07503

>  <COMMON_NAME>  (1) 
(5E)-5-[(2,2-DIFLUORO-1,3-BENZODIOXOL-5-YL)METHYLENE]-1,3-THIAZOLIDINE-2,4-DIONE

$$$$
