
     RDKit          2D

 11 10  0  0  0  0  0  0  0  0999 V2000
   -2.1434    0.2062    0.0000 C   0  0  0  0  0  0  0  0  0  0  0  0
   -1.4289   -1.0312    0.0000 C   0  0  0  0  0  0  0  0  0  0  0  0
    2.1434    0.2062    0.0000 C   0  0  0  0  0  0  0  0  0  0  0  0
    1.4289   -1.0312    0.0000 C   0  0  0  0  0  0  0  0  0  0  0  0
   -0.7144    0.2062    0.0000 C   0  0  0  0  0  0  0  0  0  0  0  0
    0.7144    0.2062    0.0000 C   0  0  0  0  0  0  0  0  0  0  0  0
   -1.4289   -0.2062    0.0000 N   0  0  0  0  0  0  0  0  0  0  0  0
    1.4289   -0.2062    0.0000 N   0  0  0  0  0  0  0  0  0  0  0  0
   -0.7144    1.0312    0.0000 S   0  0  0  0  0  0  0  0  0  0  0  0
    0.7144    1.0312    0.0000 S   0  0  0  0  0  0  0  0  0  0  0  0
    0.0000   -0.2062    0.0000 S   0  0  0  0  0  0  0  0  0  0  0  0
  7  1  1  0
  7  2  1  0
  7  5  1  0
  8  3  1  0
  8  4  1  0
  8  6  1  0
  9  5  2  0
 10  6  2  0
 11  5  1  0
 11  6  1  0
M  END
>  <DRUGBANK_ID>  (1) 
DB14178

>  <COMMON_NAME>  (1) 
Tetramethylthiuram monosulfide

>  <CAS_NUMBER>  (1) 
97-74-5

>  <UNII>  (1) 
01W430XXSQ

>  <SYNONYMS>  (1) 
Bis(dimethylthiocarbamoyl) sulfide; TMTM; TMTMS

$$$$
