
     RDKit          2D

  5  0  0  0  0  0  0  0  0  0999 V2000
   -2.3571    0.8250    0.0000 O   0  0  0  0  0  0  0  0  0  0  0  0
    0.0000    0.8250    0.0000 O   0  0  0  0  0  0  0  0  0  0  0  0
    2.3571    0.8250    0.0000 O   0  0  0  0  0  0  0  0  0  0  0  0
   -2.3571   -0.8250    0.0000 O   0  0  0  0  0  0  0  0  0  0  0  0
    0.5892   -0.8250    0.0000 Tc  0  0  0  0  0 15  0  0  0  0  0  0
M  CHG  1   5  -1
M  ISO  1   5  98
M  END
>  <DRUGBANK_ID>  (1) 
DB09314

>  <SECONDARY_ACCESSION_NUMBERS>  (1) 
DB13043

>  <COMMON_NAME>  (1) 
Technetium Tc-99m pertechnetate

>  <CAS_NUMBER>  (1) 
23288-61-1

>  <UNII>  (1) 
PPP8783IQ1

>  <SYNONYMS>  (1) 
(99Tc)pertechnetate; CPERT; GPERT; Pertechnetate-99Tc; Technetium (99mTc) Pertechnetate; Technetium Tc 99m Pertechnetate

$$$$
