
     RDKit          2D

  3  2  0  0  0  0  0  0  0  0999 V2000
    0.0000    0.2063    0.0000 Zr  0  0  0  0  0  4  0  0  0  0  0  0
   -0.7144   -0.2063    0.0000 O   0  0  0  0  0  0  0  0  0  0  0  0
    0.7144   -0.2063    0.0000 O   0  0  0  0  0  0  0  0  0  0  0  0
  1  2  2  0
  1  3  2  0
M  END
>  <DRUGBANK_ID>  (1) 
DB16552

>  <COMMON_NAME>  (1) 
Zirconium dioxide

>  <CAS_NUMBER>  (1) 
1314-23-4

>  <UNII>  (1) 
S38N85C5G0

>  <SYNONYMS>  (1) 
Zirconia; Zirconium oxide; ZrO2

$$$$
