
     RDKit          2D

 12 11  0  0  1  0  0  0  0  0999 V2000
    4.6184    2.6664    0.0000 N   0  0  0  0  0  0  0  0  0  0  0  0
    4.6184    1.8414    0.0000 C   0  0  0  0  0  0  0  0  0  0  0  0
    3.9039    1.4289    0.0000 C   0  0  0  0  0  0  0  0  0  0  0  0
    3.1895    1.8414    0.0000 O   0  0  0  0  0  0  0  0  0  0  0  0
    2.4750    1.4289    0.0000 V   0  0  0  0  0  5  0  0  0  0  0  0
    1.6545    1.5152    0.0000 O   0  0  0  0  0  0  0  0  0  0  0  0
    2.3035    2.2359    0.0000 O   0  0  0  0  0  0  0  0  0  0  0  0
    2.1394    0.6753    0.0000 O   0  0  0  0  0  0  0  0  0  0  0  0
    3.0881    0.8769    0.0000 O   0  0  0  0  0  0  0  0  0  0  0  0
    5.3329    1.4289    0.0000 C   0  0  0  0  0  0  0  0  0  0  0  0
    6.0474    1.8414    0.0000 O   0  0  0  0  0  0  0  0  0  0  0  0
    5.3329    0.6039    0.0000 O   0  0  0  0  0  0  0  0  0  0  0  0
  2  1  1  6
  2  3  1  0
  2 10  1  0
  3  4  1  0
  4  5  1  0
  5  6  1  0
  5  7  1  0
  5  8  1  0
  5  9  1  0
 10 11  1  0
 10 12  2  0
M  CHG  3   7  -1   8  -1   9  -1
M  END
>  <DRUGBANK_ID>  (1) 
DB04031

>  <SECONDARY_ACCESSION_NUMBERS>  (1) 
EXPT02982

>  <COMMON_NAME>  (1) 
Serine vanadate

$$$$
