
     RDKit          2D

 22 25  0  0  0  0  0  0  0  0999 V2000
    2.1784   -0.3823    0.0000 C   0  0  0  0  0  0  0  0  0  0  0  0
    0.6793   -1.3649    0.0000 C   0  0  0  0  0  0  0  0  0  0  0  0
    0.6793    1.1099    0.0000 C   0  0  0  0  0  0  0  0  0  0  0  0
    2.6634    0.2850    0.0000 C   0  0  0  0  0  0  0  0  0  0  0  0
   -0.0350    0.6975    0.0000 C   0  0  0  0  0  0  0  0  0  0  0  0
   -1.4640   -0.1274    0.0000 C   0  0  0  0  0  0  0  0  0  0  0  0
   -1.4640   -1.7774    0.0000 C   0  0  0  0  0  0  0  0  0  0  0  0
    0.6793   -0.5399    0.0000 C   0  0  0  0  0  0  0  0  0  0  0  0
   -0.0350   -0.1274    0.0000 C   0  0  0  0  0  0  0  0  0  0  0  0
    1.3937    0.6975    0.0000 C   0  0  0  0  0  0  0  0  0  0  0  0
    1.3937    1.5224    0.0000 C   0  0  0  0  0  0  0  0  0  0  0  0
    1.3937   -0.1274    0.0000 C   0  0  0  0  0  0  0  0  0  0  0  0
   -0.7495   -0.5399    0.0000 C   0  0  0  0  0  0  0  0  0  0  0  0
   -2.1785   -0.5399    0.0000 C   0  0  0  0  0  0  0  0  0  0  0  0
   -2.1785   -1.3649    0.0000 C   0  0  0  0  0  0  0  0  0  0  0  0
   -2.8929   -1.7774    0.0000 O   0  0  0  0  0  0  0  0  0  0  0  0
   -0.7495   -1.3649    0.0000 C   0  0  0  0  0  0  0  0  0  0  0  0
   -0.0350   -1.7774    0.0000 C   0  0  0  0  0  0  0  0  0  0  0  0
    2.1784    0.9524    0.0000 C   0  0  0  0  0  0  0  0  0  0  0  0
    2.1784    1.7774    0.0000 O   0  0  0  0  0  0  0  0  0  0  0  0
    1.3938   -1.7774    0.0000 C   0  0  0  0  0  0  0  0  0  0  0  0
    2.8929    1.3649    0.0000 C   0  0  0  0  0  0  0  0  0  0  0  0
  2 18  1  0
  2 21  1  6
  3  5  1  0
  4  1  1  0
  6 14  1  0
  7 15  1  0
  8  9  1  0
  8  2  1  6
  9 13  1  0
  9  5  1  1
 10 19  1  0
 10  3  1  0
 10 11  1  1
 12  8  1  0
 12 10  1  0
 12  1  1  1
 13 17  1  0
 13  6  1  6
 14 15  1  0
 15 16  2  0
 17  7  2  0
 18 17  1  0
 19  4  1  0
 19 20  1  0
 19 22  1  6
M  END
>  <DRUGBANK_ID>  (1) 
DB11429

>  <COMMON_NAME>  (1) 
Mibolerone

>  <CAS_NUMBER>  (1) 
3704-09-4

>  <UNII>  (1) 
9OGY4BOR8D

>  <SYNONYMS>  (1) 
(7α,17β)-17-hydroxy-7,17-dimethylestr-4-en-3-one; 17-beta-Hydroxy-7-alpha,17-dimethylestr-4-en-3-one; 7α-17α-dimethyl-19-nortestosterone; Mibolerona; Mibolerone; Miboleronum

$$$$
