
     RDKit          2D

 19 18  0  0  0  0  0  0  0  0999 V2000
   -3.8739    0.6764    0.0000 N   0  0  0  0  0  0  0  0  0  0  0  0
   -4.2743    1.3977    0.0000 C   0  0  0  0  0  0  0  0  0  0  0  0
   -3.8739   -0.1484    0.0000 C   0  0  0  0  0  0  0  0  0  0  0  0
   -3.1802   -0.5728    0.0000 C   0  0  0  0  0  0  0  0  0  0  0  0
   -2.4589   -0.1723    0.0000 O   0  0  0  0  0  0  0  0  0  0  0  0
   -3.1802   -1.3977    0.0000 O   0  0  0  0  0  0  0  0  0  0  0  0
   -4.6987    0.6764    0.0000 C   0  0  0  0  0  0  0  0  0  0  0  0
   -3.1526    1.0769    0.0000 C   0  0  0  0  0  0  0  0  0  0  0  0
   -2.4450    0.6525    0.0000 C   0  0  0  0  0  0  0  0  0  0  0  0
   -1.7237    1.0529    0.0000 C   0  0  0  0  0  0  0  0  0  0  0  0
   -1.0163    0.6285    0.0000 C   0  0  0  0  0  0  0  0  0  0  0  0
   -0.2950    1.0290    0.0000 C   0  0  0  0  0  0  0  0  0  0  0  0
    0.4124    0.6046    0.0000 C   0  0  0  0  0  0  0  0  0  0  0  0
    1.1336    1.0051    0.0000 C   0  0  0  0  0  0  0  0  0  0  0  0
    1.8412    0.5807    0.0000 C   0  0  0  0  0  0  0  0  0  0  0  0
    2.5625    0.9812    0.0000 C   0  0  0  0  0  0  0  0  0  0  0  0
    3.2699    0.5568    0.0000 C   0  0  0  0  0  0  0  0  0  0  0  0
    3.9912    0.9572    0.0000 C   0  0  0  0  0  0  0  0  0  0  0  0
    4.6987    0.5328    0.0000 C   0  0  0  0  0  0  0  0  0  0  0  0
  2  1  1  0
  3  1  1  0
  3  4  1  0
  4  5  1  0
  4  6  2  0
  7  1  1  0
  8  1  1  0
  9  8  1  0
 10  9  1  0
 11 10  1  0
 12 11  1  0
 13 12  1  0
 14 13  1  0
 15 14  1  0
 16 15  1  0
 17 16  1  0
 18 17  1  0
 19 18  1  0
M  CHG  2   1   1   5  -1
M  END
>  <DRUGBANK_ID>  (1) 
DB07631

>  <COMMON_NAME>  (1) 
Lauryldimethylbetaine

>  <CAS_NUMBER>  (1) 
683-10-3

>  <UNII>  (1) 
Y4P927Q133

>  <SYNONYMS>  (1) 
Dodecylbetaine; Lauryl dimethyl glycine; Lauryl-N-betaine; Laurylbetain

$$$$
