
     RDKit          2D

 26 28  0  0  0  0  0  0  0  0999 V2000
   -0.1712   -0.6979    0.0000 C   0  0  0  0  0  0  0  0  0  0  0  0
    0.6538   -0.6979    0.0000 C   0  0  0  0  0  0  0  0  0  0  0  0
    1.1387   -0.0305    0.0000 C   0  0  0  0  0  0  0  0  0  0  0  0
    1.9233   -0.2854    0.0000 C   0  0  0  0  0  0  0  0  0  0  0  0
    2.6378    0.1271    0.0000 C   0  0  0  0  0  0  0  0  0  0  0  0
    3.3523   -0.2854    0.0000 C   0  0  0  0  0  0  0  0  0  0  0  0
    3.3523   -1.1104    0.0000 C   0  0  0  0  0  0  0  0  0  0  0  0
    2.6378   -1.5229    0.0000 C   0  0  0  0  0  0  0  0  0  0  0  0
    1.9233   -1.1104    0.0000 C   0  0  0  0  0  0  0  0  0  0  0  0
    1.1387   -1.3654    0.0000 C   0  0  0  0  0  0  0  0  0  0  0  0
    0.8838   -2.1500    0.0000 C   0  0  0  0  0  0  0  0  0  0  0  0
    1.4358   -2.7631    0.0000 C   0  0  0  0  0  0  0  0  0  0  0  0
    2.2428   -2.5916    0.0000 C   0  0  0  0  0  0  0  0  0  0  0  0
    2.7948   -3.2047    0.0000 C   0  0  0  0  0  0  0  0  0  0  0  0
    2.5399   -3.9893    0.0000 C   0  0  0  0  0  0  0  0  0  0  0  0
    1.7329   -4.1608    0.0000 C   0  0  0  0  0  0  0  0  0  0  0  0
    1.1809   -3.5477    0.0000 C   0  0  0  0  0  0  0  0  0  0  0  0
    3.0919   -4.6024    0.0000 S   0  0  0  0  0  0  0  0  0  0  0  0
    3.6439   -5.2155    0.0000 O   0  0  0  0  0  0  0  0  0  0  0  0
    3.7050   -4.0503    0.0000 O   0  0  0  0  0  0  0  0  0  0  0  0
    2.4788   -5.1544    0.0000 C   0  0  0  0  0  0  0  0  0  0  0  0
    4.0668    0.1271    0.0000 F   0  0  0  0  0  0  0  0  0  0  0  0
    0.8838    0.7541    0.0000 C   0  0  0  0  0  0  0  0  0  0  0  0
    0.0768    0.9256    0.0000 C   0  0  0  0  0  0  0  0  0  0  0  0
   -0.4752    0.3126    0.0000 O   0  0  0  0  0  0  0  0  0  0  0  0
   -0.1781    1.7103    0.0000 O   0  0  0  0  0  0  0  0  0  0  0  0
  1  2  1  0
  2  3  2  0
  2 10  1  0
  3  4  1  0
  3 23  1  0
  4  5  2  0
  4  9  1  0
  5  6  1  0
  6  7  2  0
  6 22  1  0
  7  8  1  0
  8  9  2  0
  9 10  1  0
 10 11  2  0
 11 12  1  0
 12 13  2  0
 12 17  1  0
 13 14  1  0
 14 15  2  0
 15 16  1  0
 15 18  1  0
 16 17  2  0
 18 19  2  0
 18 20  2  0
 18 21  1  0
 23 24  1  0
 24 25  2  0
 24 26  1  0
M  END
>  <DRUGBANK_ID>  (1) 
DB06246

>  <COMMON_NAME>  (1) 
Exisulind

>  <CAS_NUMBER>  (1) 
59973-80-7

>  <UNII>  (1) 
K619IIG2R9

>  <SYNONYMS>  (1) 
5-Fluoro-2-methyl-1-((Z)-p-(methylsulfonyl)benzylidene)indene-3-acetic acid; cis-5-Fluoro-2-methyl-1-(p-methylsulfonylbenzylidenyl)indene-3-acetic acid; Exisulind; Sulindac sulfone

$$$$
