F2B
     RDKit          2D

 22 23  0  0  0  0  0  0  0  0999 V2000
    0.6131   -0.6922    0.0000 C   0  0  0  0  0  0  0  0  0  0  0  0
    1.3275   -1.1047    0.0000 C   0  0  0  0  0  0  0  0  0  0  0  0
    1.3275   -1.9297    0.0000 C   0  0  0  0  0  0  0  0  0  0  0  0
    0.6131   -2.3422    0.0000 C   0  0  0  0  0  0  0  0  0  0  0  0
   -0.1014   -1.9297    0.0000 C   0  0  0  0  0  0  0  0  0  0  0  0
   -0.1014   -1.1047    0.0000 C   0  0  0  0  0  0  0  0  0  0  0  0
   -0.8159   -0.6922    0.0000 C   0  0  0  0  0  0  0  0  0  0  0  0
   -1.5303   -1.1047    0.0000 O   0  0  0  0  0  0  0  0  0  0  0  0
   -0.8159    0.1328    0.0000 N   0  0  0  0  0  0  0  0  0  0  0  0
   -1.5303    0.5453    0.0000 C   0  0  0  0  0  0  0  0  0  0  0  0
    2.0420   -2.3422    0.0000 S   0  0  0  0  0  0  0  0  0  0  0  0
    2.7565   -2.7547    0.0000 N   0  0  0  0  0  0  0  0  0  0  0  0
    2.4545   -1.6278    0.0000 O   0  0  0  0  0  0  0  0  0  0  0  0
    1.6295   -3.0567    0.0000 O   0  0  0  0  0  0  0  0  0  0  0  0
   -1.5303    1.3703    0.0000 C   0  0  0  0  0  0  0  0  0  0  0  0
   -2.2448    1.7828    0.0000 C   0  0  0  0  0  0  0  0  0  0  0  0
   -2.2448    2.6078    0.0000 C   0  0  0  0  0  0  0  0  0  0  0  0
   -1.5303    3.0203    0.0000 C   0  0  0  0  0  0  0  0  0  0  0  0
   -0.8159    2.6078    0.0000 C   0  0  0  0  0  0  0  0  0  0  0  0
   -0.8159    1.7828    0.0000 C   0  0  0  0  0  0  0  0  0  0  0  0
   -0.1014    3.0203    0.0000 F   0  0  0  0  0  0  0  0  0  0  0  0
   -0.1014    1.3703    0.0000 F   0  0  0  0  0  0  0  0  0  0  0  0
  1  2  2  0
  1  6  1  0
  2  3  1  0
  3  4  2  0
  3 11  1  0
  4  5  1  0
  5  6  2  0
  6  7  1  0
  7  8  2  0
  7  9  1  0
  9 10  1  0
 10 15  1  0
 11 12  1  0
 11 13  2  0
 11 14  2  0
 15 16  2  0
 15 20  1  0
 16 17  1  0
 17 18  2  0
 18 19  1  0
 19 20  2  0
 19 21  1  0
 20 22  1  0
M  END
>  <DRUGBANK_ID>  (1) 
DB07742

>  <COMMON_NAME>  (1) 
N-(2,3-DIFLUORO-BENZYL)-4-SULFAMOYL-BENZAMIDE

>  <UNII>  (1) 
T4Y7SN7BXW

$$$$
