27U
     RDKit          2D

 28 30  0  0  0  0  0  0  0  0999 V2000
    2.6785   -1.1538    0.0000 C   0  0  0  0  0  0  0  0  0  0  0  0
    1.8938   -1.4088    0.0000 C   0  0  0  0  0  0  0  0  0  0  0  0
    1.2807   -0.8568    0.0000 C   0  0  0  0  0  0  0  0  0  0  0  0
    1.4523   -0.0498    0.0000 O   0  0  0  0  0  0  0  0  0  0  0  0
    0.4961   -1.1117    0.0000 N   0  0  0  0  0  0  0  0  0  0  0  0
    0.2412   -1.8963    0.0000 C   0  0  0  0  0  0  0  0  0  0  0  0
   -0.5838   -1.8963    0.0000 C   0  0  0  0  0  0  0  0  0  0  0  0
   -0.8388   -1.1117    0.0000 C   0  0  0  0  0  0  0  0  0  0  0  0
   -0.1713   -0.6268    0.0000 C   0  0  0  0  0  0  0  0  0  0  0  0
   -0.1713    0.1982    0.0000 C   0  0  0  0  0  0  0  0  0  0  0  0
   -0.8858    0.6107    0.0000 N   0  0  0  0  0  0  0  0  0  0  0  0
   -0.8858    1.4357    0.0000 C   0  0  0  0  0  0  0  0  0  0  0  0
   -1.6003    1.8482    0.0000 C   0  0  0  0  0  0  0  0  0  0  0  0
   -2.3147    1.4357    0.0000 C   0  0  0  0  0  0  0  0  0  0  0  0
   -3.0292    1.8482    0.0000 C   0  0  0  0  0  0  0  0  0  0  0  0
   -3.0292    2.6732    0.0000 C   0  0  0  0  0  0  0  0  0  0  0  0
   -2.3147    3.0857    0.0000 C   0  0  0  0  0  0  0  0  0  0  0  0
   -1.6003    2.6732    0.0000 C   0  0  0  0  0  0  0  0  0  0  0  0
   -3.7437    3.0857    0.0000 C   0  0  0  0  0  0  0  0  0  0  0  0
   -3.7437    3.9107    0.0000 N   0  0  0  0  0  0  0  0  0  0  0  0
   -4.4581    2.6732    0.0000 N   0  0  0  0  0  0  0  0  0  0  0  0
    0.5431    0.6107    0.0000 O   0  0  0  0  0  0  0  0  0  0  0  0
    3.2915   -1.7059    0.0000 C   0  0  0  0  0  0  0  0  0  0  0  0
    4.0762   -1.4509    0.0000 C   0  0  0  0  0  0  0  0  0  0  0  0
    4.6893   -2.0030    0.0000 C   0  0  0  0  0  0  0  0  0  0  0  0
    4.5177   -2.8099    0.0000 C   0  0  0  0  0  0  0  0  0  0  0  0
    3.7331   -3.0649    0.0000 C   0  0  0  0  0  0  0  0  0  0  0  0
    3.1200   -2.5129    0.0000 C   0  0  0  0  0  0  0  0  0  0  0  0
  1  2  1  0
  1 23  1  0
  2  3  1  0
  3  4  2  0
  3  5  1  0
  5  6  1  0
  5  9  1  0
  6  7  1  0
  7  8  1  0
  8  9  1  0
  9 10  1  1
 10 11  1  0
 10 22  2  0
 11 12  1  0
 12 13  1  0
 13 14  2  0
 13 18  1  0
 14 15  1  0
 15 16  2  0
 16 17  1  0
 16 19  1  0
 17 18  2  0
 19 20  2  0
 19 21  1  0
 23 24  2  0
 23 28  1  0
 24 25  1  0
 25 26  2  0
 26 27  1  0
 27 28  2  0
M  END
>  <DRUGBANK_ID>  (1) 
DB06942

>  <COMMON_NAME>  (1) 
N-(4-carbamimidoylbenzyl)-1-(3-phenylpropanoyl)-L-prolinamide

$$$$
