
     RDKit          2D

 23 25  0  0  0  0  0  0  0  0999 V2000
    2.1658    1.0313    0.0000 C   0  0  0  0  0  0  0  0  0  0  0  0
    1.4232    1.4438    0.0000 C   0  0  0  0  0  0  0  0  0  0  0  0
    0.7219    1.0313    0.0000 C   0  0  0  0  0  0  0  0  0  0  0  0
    0.0206    1.4438    0.0000 C   0  0  0  0  0  0  0  0  0  0  0  0
    0.7219    0.2062    0.0000 C   0  0  0  0  0  0  0  0  0  0  0  0
   -0.7219    1.0313    0.0000 C   0  0  0  0  0  0  0  0  0  0  0  0
    0.0206   -0.2062    0.0000 C   0  0  0  0  0  0  0  0  0  0  0  0
   -0.7219    0.2062    0.0000 C   0  0  0  0  0  0  0  0  0  0  0  0
   -1.4232   -0.2062    0.0000 O   0  0  0  0  0  0  0  0  0  0  0  0
   -2.1658    0.2062    0.0000 C   0  0  0  0  0  0  0  0  0  0  0  0
   -2.8672   -0.2062    0.0000 C   0  0  0  0  0  0  0  0  0  0  0  0
   -3.5685    0.2062    0.0000 C   0  0  0  0  0  0  0  0  0  0  0  0
   -4.2698   -0.2062    0.0000 C   0  0  0  0  0  0  0  0  0  0  0  0
   -4.2698   -1.0313    0.0000 C   0  0  0  0  0  0  0  0  0  0  0  0
   -3.5685   -1.4438    0.0000 C   0  0  0  0  0  0  0  0  0  0  0  0
   -2.8672   -1.0313    0.0000 C   0  0  0  0  0  0  0  0  0  0  0  0
   -2.8672    0.6187    0.0000 C   0  0  0  0  0  0  0  0  0  0  0  0
    2.1623    0.2062    0.0000 C   0  0  0  0  0  0  0  0  0  0  0  0
    2.9460   -0.0520    0.0000 N   0  0  0  0  0  0  0  0  0  0  0  0
    3.4338    0.6134    0.0000 C   0  0  0  0  0  0  0  0  0  0  0  0
    2.9517    1.2829    0.0000 S   0  0  0  0  0  0  0  0  0  0  0  0
    4.2698    0.6098    0.0000 O   0  0  0  0  0  0  0  0  0  0  0  0
    1.4951   -0.2741    0.0000 O   0  0  0  0  0  0  0  0  0  0  0  0
  1  2  1  0
  1 18  1  0
  1 21  1  0
  2  3  1  0
  3  4  2  0
  3  5  1  0
  4  6  1  0
  5  7  2  0
  6  8  2  0
  7  8  1  0
  8  9  1  0
  9 10  1  0
 10 11  1  0
 11 12  1  0
 11 16  1  0
 11 17  1  0
 12 13  1  0
 13 14  1  0
 14 15  1  0
 15 16  1  0
 18 19  1  0
 18 23  2  0
 19 20  1  0
 20 21  1  0
 20 22  2  0
M  END
>  <DRUGBANK_ID>  (1) 
DB09201

>  <COMMON_NAME>  (1) 
Ciglitazone

>  <CAS_NUMBER>  (1) 
74772-77-3

>  <UNII>  (1) 
U8QXS1WU8G

>  <SYNONYMS>  (1) 
ciglitazona; Ciglitazone

$$$$
