
     RDKit          2D

 37 40  0  0  0  0  0  0  0  0999 V2000
    1.4842   -1.5947    0.0000 O   0  0  0  0  0  0  0  0  0  0  0  0
    2.1987   -2.0072    0.0000 C   0  0  0  0  0  0  0  0  0  0  0  0
    2.9131   -1.5947    0.0000 C   0  0  0  0  0  0  0  0  0  0  0  0
    3.6275   -2.0072    0.0000 N   0  0  0  0  0  0  0  0  0  0  0  0
    4.3421   -1.5947    0.0000 C   0  0  0  0  0  0  0  0  0  0  0  0
    5.0565   -2.0072    0.0000 C   0  0  0  0  0  0  0  0  0  0  0  0
    5.7710   -1.5947    0.0000 C   0  0  0  0  0  0  0  0  0  0  0  0
    4.3421   -0.7696    0.0000 O   0  0  0  0  0  0  0  0  0  0  0  0
    3.6275   -2.8322    0.0000 C   0  0  0  0  0  0  0  0  0  0  0  0
    1.4842   -0.7696    0.0000 C   0  0  0  0  0  0  0  0  0  0  0  0
    0.7697   -0.3572    0.0000 C   0  0  0  0  0  0  0  0  0  0  0  0
    0.7697    0.4677    0.0000 N   0  0  0  0  0  0  0  0  0  0  0  0
    1.4842    0.8802    0.0000 C   0  0  0  0  0  0  0  0  0  0  0  0
    2.1987    0.4677    0.0000 N   0  0  0  0  0  0  0  0  0  0  0  0
    2.1987   -0.3572    0.0000 C   0  0  0  0  0  0  0  0  0  0  0  0
    2.9131   -0.7696    0.0000 N   0  0  0  0  0  0  0  0  0  0  0  0
    0.0553   -0.7696    0.0000 C   0  0  0  0  0  0  0  0  0  0  0  0
   -0.6591   -0.3572    0.0000 C   0  0  0  0  0  0  0  0  0  0  0  0
   -0.6591    0.4677    0.0000 C   0  0  0  0  0  0  0  0  0  0  0  0
   -1.3736   -0.7696    0.0000 C   0  0  0  0  0  0  0  0  0  0  0  0
   -2.0881   -0.3572    0.0000 N   0  0  0  0  0  0  0  0  0  0  0  0
   -2.0881    0.4677    0.0000 C   0  0  0  0  0  0  0  0  0  0  0  0
   -1.3736    0.8802    0.0000 O   0  0  0  0  0  0  0  0  0  0  0  0
   -2.8026    0.8802    0.0000 C   0  0  0  0  0  0  0  0  0  0  0  0
   -2.8026    1.7052    0.0000 C   0  0  0  0  0  0  0  0  0  0  0  0
   -2.0882    2.1177    0.0000 F   0  0  0  0  0  0  0  0  0  0  0  0
   -3.5171    2.1176    0.0000 C   0  0  0  0  0  0  0  0  0  0  0  0
   -4.2314    1.7052    0.0000 C   0  0  0  0  0  0  0  0  0  0  0  0
   -4.2314    0.8802    0.0000 C   0  0  0  0  0  0  0  0  0  0  0  0
   -3.5171    0.4677    0.0000 C   0  0  0  0  0  0  0  0  0  0  0  0
   -4.9460    2.1176    0.0000 C   0  0  0  0  0  0  0  0  0  0  0  0
   -5.7710    2.1176    0.0000 C   0  0  0  0  0  0  0  0  0  0  0  0
   -5.3585    2.8321    0.0000 C   0  0  0  0  0  0  0  0  0  0  0  0
   -1.3736   -1.5947    0.0000 C   0  0  0  0  0  0  0  0  0  0  0  0
   -0.6591   -2.0072    0.0000 C   0  0  0  0  0  0  0  0  0  0  0  0
    0.0553   -1.5947    0.0000 C   0  0  0  0  0  0  0  0  0  0  0  0
   -0.6591   -2.8322    0.0000 F   0  0  0  0  0  0  0  0  0  0  0  0
  1  2  1  0
  1 10  1  0
  2  3  1  0
  3  4  1  0
  4  5  1  0
  4  9  1  0
  5  6  1  0
  5  8  2  0
  6  7  2  0
 10 11  2  0
 10 15  1  0
 11 12  1  0
 11 17  1  0
 12 13  2  0
 14 13  1  0
 15 14  2  0
 15 16  1  0
 17 18  2  0
 17 36  1  0
 18 19  1  0
 18 20  1  0
 20 21  1  0
 20 34  2  0
 21 22  1  0
 22 23  2  0
 22 24  1  0
 24 25  2  0
 24 30  1  0
 25 26  1  0
 25 27  1  0
 27 28  2  0
 28 31  1  0
 29 28  1  0
 30 29  2  0
 31 32  1  0
 31 33  1  0
 32 33  1  0
 35 34  1  0
 35 37  1  0
 36 35  2  0
M  END
>  <DRUGBANK_ID>  (1) 
DB16852

>  <COMMON_NAME>  (1) 
Remibrutinib

>  <CAS_NUMBER>  (1) 
1787294-07-8

>  <UNII>  (1) 
I7MVZ8HDNU

>  <SYNONYMS>  (1) 
Remibrutinib

$$$$
