
     RDKit          2D

 23 24  0  0  1  0  0  0  0  0999 V2000
    2.5006   -0.4125    0.0000 C   0  0  0  0  0  0  0  0  0  0  0  0
    1.7861   -3.3000    0.0000 C   0  0  0  0  0  0  0  0  0  0  0  0
    2.5006   -2.8875    0.0000 C   0  0  0  0  0  0  0  0  0  0  0  0
    1.0717   -2.8875    0.0000 C   0  0  0  0  0  0  0  0  0  0  0  0
    2.5006   -2.0625    0.0000 C   0  0  0  0  0  0  0  0  0  0  0  0
    1.0717   -2.0625    0.0000 C   0  0  0  0  0  0  0  0  0  0  0  0
   -0.3572    2.8875    0.0000 C   0  0  0  0  0  0  0  0  0  0  0  0
   -1.0717    3.3000    0.0000 C   0  0  0  0  0  0  0  0  0  0  0  0
    0.3572    1.6500    0.0000 C   0  0  0  0  0  0  0  0  0  0  0  0
   -1.0717    1.6500    0.0000 C   0  0  0  0  0  0  0  0  0  0  0  0
   -0.3572    0.4125    0.0000 C   0  0  0  0  0  0  0  0  0  0  0  0
    1.7861   -0.8250    0.0000 C   0  0  0  0  0  0  0  0  0  0  0  0
   -0.3572    2.0625    0.0000 C   0  0  0  0  0  0  0  0  0  0  0  0
    1.7861   -1.6500    0.0000 C   0  0  0  0  0  0  0  0  0  0  0  0
    0.3572    0.8250    0.0000 C   0  0  0  0  0  0  0  0  0  0  0  0
   -1.7861    2.8875    0.0000 C   0  0  0  0  0  0  0  0  0  0  0  0
   -1.7861    2.0625    0.0000 C   0  0  0  0  0  0  0  0  0  0  0  0
    1.0717    0.4125    0.0000 C   0  0  0  0  0  0  0  0  0  0  0  0
   -1.0717    0.0000    0.0000 N   0  0  0  0  0  0  0  0  0  0  0  0
    1.0717   -0.4125    0.0000 N   0  0  0  0  0  0  0  0  0  0  0  0
   -2.5006    3.3000    0.0000 O   0  0  0  0  0  0  0  0  0  0  0  0
   -2.5006    1.6500    0.0000 O   0  0  0  0  0  0  0  0  0  0  0  0
    1.7861    0.8250    0.0000 O   0  0  0  0  0  0  0  0  0  0  0  0
  3  2  2  0
  4  2  1  0
  5  3  1  0
  6  4  2  0
  8  7  2  0
 12  1  1  1
 12 14  1  0
 12 20  1  0
 13  7  1  0
 13  9  1  0
 13 10  2  0
 14  5  2  0
 14  6  1  0
 15  9  2  0
 15 11  1  0
 16  8  1  0
 17 10  1  0
 17 16  2  0
 18 15  1  0
 18 23  1  0
 19 11  3  0
 20 18  2  3
 21 16  1  0
 22 17  1  0
M  END
>  <DRUGBANK_ID>  (1) 
DB16763

>  <COMMON_NAME>  (1) 
Tyrphostin AG 835

>  <CAS_NUMBER>  (1) 
133550-37-5

>  <SYNONYMS>  (1) 
Tyrphostin Ag-835; Tyrphostin B44, (+) enantiomer; Tyrphostin B50

$$$$
