
     RDKit          2D

 31 30  0  0  1  0  0  0  0  0999 V2000
   -4.8395   -2.4454    0.0000 C   0  0  0  0  0  0  0  0  0  0  0  0
    8.7355   -2.0329    0.0000 C   0  0  0  0  0  0  0  0  0  0  0  0
   -4.1250   -2.8579    0.0000 C   0  0  0  0  0  0  0  0  0  0  0  0
    8.0210   -2.4454    0.0000 C   0  0  0  0  0  0  0  0  0  0  0  0
   -3.4105   -2.4454    0.0000 C   0  0  0  0  0  0  0  0  0  0  0  0
    7.3065   -2.0329    0.0000 C   0  0  0  0  0  0  0  0  0  0  0  0
   -2.6961   -2.8579    0.0000 C   0  0  0  0  0  0  0  0  0  0  0  0
    6.5921   -2.4454    0.0000 C   0  0  0  0  0  0  0  0  0  0  0  0
   -1.9816   -2.4454    0.0000 C   0  0  0  0  0  0  0  0  0  0  0  0
   -1.2671   -2.8579    0.0000 C   0  0  0  0  0  0  0  0  0  0  0  0
    5.8776   -2.0329    0.0000 C   0  0  0  0  0  0  0  0  0  0  0  0
   -0.5526   -2.4454    0.0000 C   0  0  0  0  0  0  0  0  0  0  0  0
    5.1631   -2.4454    0.0000 C   0  0  0  0  0  0  0  0  0  0  0  0
    0.9572    0.3316    0.0000 C   0  0  0  0  0  0  0  0  0  0  0  0
    0.1618   -2.8579    0.0000 C   0  0  0  0  0  0  0  0  0  0  0  0
    1.7822    0.3316    0.0000 C   0  0  0  0  0  0  0  0  0  0  0  0
    4.4487   -2.0329    0.0000 C   0  0  0  0  0  0  0  0  0  0  0  0
    1.5908   -2.8579    0.0000 C   0  0  0  0  0  0  0  0  0  0  0  0
    2.3052   -1.6204    0.0000 C   0  0  0  0  0  0  0  0  0  0  0  0
    2.3052   -2.4454    0.0000 C   0  0  0  0  0  0  0  0  0  0  0  0
    0.5447    1.0461    0.0000 N   0  0  0  0  0  0  0  0  0  0  0  0
    4.1467   -3.1599    0.0000 O   0  0  0  0  0  0  0  0  0  0  0  0
    3.3217   -1.7309    0.0000 O   0  0  0  0  0  0  0  0  0  0  0  0
    3.8447   -0.3829    0.0000 O   0  0  0  0  0  0  0  0  0  0  0  0
    3.0197    0.4421    0.0000 O   0  0  0  0  0  0  0  0  0  0  0  0
    0.8763   -2.4454    0.0000 O   0  0  0  0  0  0  0  0  0  0  0  0
    2.1947   -0.3829    0.0000 O   0  0  0  0  0  0  0  0  0  0  0  0
    3.0197   -1.2079    0.0000 O   0  0  0  0  0  0  0  0  0  0  0  0
    3.0197   -2.8579    0.0000 O   0  0  0  0  0  0  0  0  0  0  0  0
    3.7342   -2.4454    0.0000 P   0  0  0  0  0  0  0  0  0  0  0  0
    3.0197   -0.3829    0.0000 P   0  0  0  0  0  0  0  0  0  0  0  0
  3  1  1  0
  4  2  1  0
  5  3  1  0
  6  4  1  0
  7  5  1  0
  8  6  1  0
  9  7  1  0
 10  9  1  0
 11  8  1  0
 12 10  1  0
 13 11  1  0
 15 12  1  0
 16 14  1  0
 17 13  1  0
 20 18  1  6
 20 19  1  0
 20 29  1  0
 21 14  1  0
 26 15  1  0
 26 18  1  0
 27 16  1  0
 28 19  1  0
 30 17  1  0
 30 22  1  0
 30 23  2  0
 30 29  1  0
 31 24  1  0
 31 25  2  0
 31 27  1  0
 31 28  1  0
M  END
>  <DRUGBANK_ID>  (1) 
DB03565

>  <SECONDARY_ACCESSION_NUMBERS>  (1) 
EXPT01580

>  <COMMON_NAME>  (1) 
1-O-Octyl-2-Heptylphosphonyl-Sn-Glycero-3-Phosphoethanolamine

$$$$
