
     RDKit          2D

 33 35  0  0  1  0  0  0  0  0999 V2000
    1.8904   -2.1437    0.0000 C   0  0  0  0  0  0  0  0  0  0  0  0
    1.8904   -1.3187    0.0000 C   0  0  0  0  0  0  0  0  0  0  0  0
    1.1759   -0.9062    0.0000 C   0  0  0  0  0  0  0  0  0  0  0  0
    1.1759   -0.0812    0.0000 O   0  0  0  0  0  0  0  0  0  0  0  0
    0.4614   -1.3187    0.0000 N   0  0  0  0  0  0  0  0  0  0  0  0
   -0.2530   -0.9062    0.0000 C   0  0  0  0  0  0  0  0  0  0  0  0
   -0.9347   -1.3709    0.0000 C   0  0  0  0  0  0  0  0  0  0  0  0
   -0.7511   -2.1752    0.0000 C   0  0  0  0  0  0  0  0  0  0  0  0
   -1.3559   -2.7364    0.0000 C   0  0  0  0  0  0  0  0  0  0  0  0
   -2.1442   -2.4932    0.0000 C   0  0  0  0  0  0  0  0  0  0  0  0
   -2.3278   -1.6889    0.0000 C   0  0  0  0  0  0  0  0  0  0  0  0
   -1.7230   -1.1278    0.0000 C   0  0  0  0  0  0  0  0  0  0  0  0
   -2.0244   -0.3598    0.0000 C   0  0  0  0  0  0  0  0  0  0  0  0
   -2.8494   -0.3598    0.0000 C   0  0  0  0  0  0  0  0  0  0  0  0
   -3.2619    0.3547    0.0000 C   0  0  0  0  0  0  0  0  0  0  0  0
   -2.8494    1.0692    0.0000 C   0  0  0  0  0  0  0  0  0  0  0  0
   -2.0244    1.0692    0.0000 N   0  0  0  0  0  0  0  0  0  0  0  0
   -1.6119    0.3547    0.0000 C   0  0  0  0  0  0  0  0  0  0  0  0
   -0.7962    0.4776    0.0000 N   0  0  0  0  0  0  0  0  0  0  0  0
   -0.1914   -0.0835    0.0000 C   0  0  0  0  0  0  0  0  0  0  0  0
    0.5766    0.2179    0.0000 O   0  0  0  0  0  0  0  0  0  0  0  0
   -0.5530    1.2660    0.0000 C   0  0  0  0  0  0  0  0  0  0  0  0
   -1.1141    1.8708    0.0000 C   0  0  0  0  0  0  0  0  0  0  0  0
   -0.8710    2.6591    0.0000 O   0  0  0  0  0  0  0  0  0  0  0  0
    2.6048   -0.9062    0.0000 N   0  0  0  0  0  0  0  0  0  0  0  0
    3.3193   -1.3187    0.0000 C   0  0  0  0  0  0  0  0  0  0  0  0
    3.3193   -2.1437    0.0000 O   0  0  0  0  0  0  0  0  0  0  0  0
    4.0338   -0.9062    0.0000 C   0  0  0  0  0  0  0  0  0  0  0  0
    4.7483   -1.3187    0.0000 C   0  0  0  0  0  0  0  0  0  0  0  0
    5.4627   -0.9062    0.0000 C   0  0  0  0  0  0  0  0  0  0  0  0
    6.1772   -0.4937    0.0000 F   0  0  0  0  0  0  0  0  0  0  0  0
    5.8752   -1.6207    0.0000 F   0  0  0  0  0  0  0  0  0  0  0  0
    5.0502   -0.1917    0.0000 F   0  0  0  0  0  0  0  0  0  0  0  0
  2  1  1  1
  2  3  1  0
  2 25  1  0
  3  4  2  0
  3  5  1  0
  6  5  1  1
  6  7  1  0
  6 20  1  0
  7  8  2  0
  7 12  1  0
  8  9  1  0
  9 10  2  0
 10 11  1  0
 11 12  2  0
 12 13  1  0
 13 14  2  0
 13 18  1  0
 14 15  1  0
 15 16  2  0
 16 17  1  0
 17 18  2  0
 18 19  1  0
 19 20  1  0
 19 22  1  0
 20 21  2  0
 22 23  1  0
 23 24  1  0
 25 26  1  0
 26 27  2  0
 26 28  1  0
 28 29  1  0
 29 30  1  0
 30 31  1  0
 30 32  1  0
 30 33  1  0
M  END
>  <DRUGBANK_ID>  (1) 
DB12050

>  <COMMON_NAME>  (1) 
LY-3039478

>  <CAS_NUMBER>  (1) 
1421438-81-4

>  <UNII>  (1) 
923X28214S

$$$$
