U16
     RDKit          2D

 30 30  0  0  0  0  0  0  0  0999 V2000
   -0.8765    1.3108    0.0000 O   0  0  0  0  0  0  0  0  0  0  0  0
   -0.6784    0.5100    0.0000 C   0  0  0  0  0  0  0  0  0  0  0  0
   -1.2728   -0.0621    0.0000 C   0  0  0  0  0  0  0  0  0  0  0  0
   -2.0655    0.1668    0.0000 C   0  0  0  0  0  0  0  0  0  0  0  0
   -2.6599   -0.4053    0.0000 C   0  0  0  0  0  0  0  0  0  0  0  0
   -2.4618   -1.2061    0.0000 C   0  0  0  0  0  0  0  0  0  0  0  0
   -3.0563   -1.7782    0.0000 C   0  0  0  0  0  0  0  0  0  0  0  0
   -3.8489   -1.5494    0.0000 C   0  0  0  0  0  0  0  0  0  0  0  0
   -4.4434   -2.1214    0.0000 C   0  0  0  0  0  0  0  0  0  0  0  0
   -5.2360   -1.8926    0.0000 C   0  0  0  0  0  0  0  0  0  0  0  0
   -4.2452   -2.9222    0.0000 C   0  0  0  0  0  0  0  0  0  0  0  0
   -4.0471   -0.7485    0.0000 C   0  0  0  0  0  0  0  0  0  0  0  0
   -3.4526   -0.1765    0.0000 C   0  0  0  0  0  0  0  0  0  0  0  0
   -2.2636    0.9676    0.0000 N   0  0  0  0  0  0  0  0  0  0  0  0
   -1.0747   -0.8629    0.0000 O   0  0  0  0  0  0  0  0  0  0  0  0
    0.1143    0.2812    0.0000 N   0  0  0  0  0  0  0  0  0  0  0  0
    0.7087    0.8532    0.0000 C   0  0  0  0  0  0  0  0  0  0  0  0
    0.5106    1.6540    0.0000 C   0  0  0  0  0  0  0  0  0  0  0  0
    1.5014    0.6244    0.0000 C   0  0  0  0  0  0  0  0  0  0  0  0
    1.6995   -0.1765    0.0000 O   0  0  0  0  0  0  0  0  0  0  0  0
    2.0959    1.1964    0.0000 N   0  0  0  0  0  0  0  0  0  0  0  0
    2.8885    0.9676    0.0000 C   0  0  0  0  0  0  0  0  0  0  0  0
    3.4830    1.5396    0.0000 C   0  0  0  0  0  0  0  0  0  0  0  0
    4.2756    1.3108    0.0000 C   0  0  0  0  0  0  0  0  0  0  0  0
    4.8701    1.8829    0.0000 C   0  0  0  0  0  0  0  0  0  0  0  0
    4.4738    0.5100    0.0000 C   0  0  0  0  0  0  0  0  0  0  0  0
    3.0867    0.1668    0.0000 C   0  0  0  0  0  0  0  0  0  0  0  0
    2.4922   -0.4053    0.0000 O   0  0  0  0  0  0  0  0  0  0  0  0
    3.8793   -0.0621    0.0000 O   0  0  0  0  0  0  0  0  0  0  0  0
    4.0774   -0.8629    0.0000 C   0  0  0  0  0  0  0  0  0  0  0  0
  1  2  2  0
  2  3  1  0
  2 16  1  0
  3  4  1  0
  3 15  1  1
  4  5  1  0
  4 14  1  1
  5  6  2  0
  5 13  1  0
  6  7  1  0
  7  8  2  0
  8  9  1  0
  8 12  1  0
  9 10  1  0
  9 11  1  0
 12 13  2  0
 16 17  1  0
 17 18  1  1
 17 19  1  0
 19 20  2  0
 19 21  1  0
 22 21  1  0
 22 23  1  6
 22 27  1  0
 23 24  1  0
 24 25  1  0
 24 26  1  0
 27 28  2  0
 27 29  1  0
 29 30  1  0
M  END
>  <DRUGBANK_ID>  (1) 
DB08670

>  <COMMON_NAME>  (1) 
METHYL N-[(2S,3R)-3-AMINO-2-HYDROXY-3-(4-ISOPROPYLPHENYL)PROPANOYL]-D-ALANYL-D-LEUCINATE

$$$$
