D23
     RDKit          2D

 26 28  0  0  0  0  0  0  0  0999 V2000
   -2.8316   -0.8865    0.0000 C   0  0  0  0  0  0  0  0  0  0  0  0
   -3.5460   -0.4740    0.0000 C   0  0  0  0  0  0  0  0  0  0  0  0
   -3.5460    0.3510    0.0000 C   0  0  0  0  0  0  0  0  0  0  0  0
   -2.8316    0.7635    0.0000 C   0  0  0  0  0  0  0  0  0  0  0  0
   -2.1171    0.3510    0.0000 C   0  0  0  0  0  0  0  0  0  0  0  0
   -2.1171   -0.4740    0.0000 C   0  0  0  0  0  0  0  0  0  0  0  0
   -4.2605   -0.8865    0.0000 N   0  0  0  0  0  0  0  0  0  0  0  0
   -1.4026   -0.8865    0.0000 C   0  0  0  0  0  0  0  0  0  0  0  0
   -1.4026   -1.7115    0.0000 C   0  0  0  0  0  0  0  0  0  0  0  0
   -0.6882   -2.1240    0.0000 C   0  0  0  0  0  0  0  0  0  0  0  0
    0.0263   -1.7115    0.0000 C   0  0  0  0  0  0  0  0  0  0  0  0
    0.0263   -0.8865    0.0000 C   0  0  0  0  0  0  0  0  0  0  0  0
   -0.6882   -0.4740    0.0000 C   0  0  0  0  0  0  0  0  0  0  0  0
    0.7408   -2.1240    0.0000 N   0  0  0  0  0  0  0  0  0  0  0  0
    1.4553   -1.7115    0.0000 C   0  0  0  0  0  0  0  0  0  0  0  0
    1.4553   -0.8865    0.0000 N   0  0  0  0  0  0  0  0  0  0  0  0
    0.7408   -0.4740    0.0000 C   0  0  0  0  0  0  0  0  0  0  0  0
    0.7408    0.3510    0.0000 N   0  0  0  0  0  0  0  0  0  0  0  0
    1.4553    0.7635    0.0000 C   0  0  0  0  0  0  0  0  0  0  0  0
    1.8678    0.0490    0.0000 C   0  0  0  0  0  0  0  0  0  0  0  0
    1.0428    1.4780    0.0000 C   0  0  0  0  0  0  0  0  0  0  0  0
    2.1697    1.1760    0.0000 C   0  0  0  0  0  0  0  0  0  0  0  0
    2.1697   -2.1240    0.0000 C   0  0  0  0  0  0  0  0  0  0  0  0
    2.8842   -2.5365    0.0000 F   0  0  0  0  0  0  0  0  0  0  0  0
    1.7572   -2.8385    0.0000 F   0  0  0  0  0  0  0  0  0  0  0  0
    2.5822   -1.4095    0.0000 F   0  0  0  0  0  0  0  0  0  0  0  0
  1  2  2  0
  1  6  1  0
  2  3  1  0
  2  7  1  0
  3  4  2  0
  4  5  1  0
  5  6  2  0
  6  8  1  0
  8  9  2  0
  8 13  1  0
  9 10  1  0
 10 11  2  0
 11 12  1  0
 11 14  1  0
 12 13  2  0
 12 17  1  0
 14 15  2  0
 15 16  1  0
 15 23  1  0
 16 17  2  0
 17 18  1  0
 18 19  1  0
 19 20  1  0
 19 21  1  0
 19 22  1  0
 23 24  1  0
 23 25  1  0
 23 26  1  0
M  END
>  <DRUGBANK_ID>  (1) 
DB07612

>  <COMMON_NAME>  (1) 
6-(3-AMINOPHENYL)-N-(TERT-BUTYL)-2-(TRIFLUOROMETHYL)QUINAZOLIN-4-AMINE

$$$$
