SBA
     RDKit          2D

 29 29  0  0  0  0  0  0  0  0999 V2000
   -4.8848    1.2976    0.0000 C   0  0  0  0  0  0  0  0  0  0  0  0
   -4.1704    0.8851    0.0000 C   0  0  0  0  0  0  0  0  0  0  0  0
   -4.1704    0.0601    0.0000 C   0  0  0  0  0  0  0  0  0  0  0  0
   -4.8848   -0.3524    0.0000 C   0  0  0  0  0  0  0  0  0  0  0  0
   -5.5993    0.0601    0.0000 C   0  0  0  0  0  0  0  0  0  0  0  0
   -5.5993    0.8851    0.0000 C   0  0  0  0  0  0  0  0  0  0  0  0
   -3.4559   -0.3524    0.0000 C   0  0  0  0  0  0  0  0  0  0  0  0
   -2.7414    0.0601    0.0000 O   0  0  0  0  0  0  0  0  0  0  0  0
   -2.0269   -0.3524    0.0000 C   0  0  0  0  0  0  0  0  0  0  0  0
   -2.0269   -1.1774    0.0000 O   0  0  0  0  0  0  0  0  0  0  0  0
   -1.3125    0.0601    0.0000 N   0  0  0  0  0  0  0  0  0  0  0  0
   -0.5980   -0.3524    0.0000 C   0  0  0  0  0  0  0  0  0  0  0  0
    0.1165    0.0601    0.0000 C   0  0  0  0  0  0  0  0  0  0  0  0
    0.8309   -0.3524    0.0000 N   0  0  0  0  0  0  0  0  0  0  0  0
    1.5454    0.0601    0.0000 C   0  0  0  0  0  0  0  0  0  0  0  0
    2.2599   -0.3524    0.0000 C   0  0  0  0  0  0  0  0  0  0  0  0
    1.5454    0.8851    0.0000 C   0  0  0  0  0  0  0  0  0  0  0  0
    2.2599    1.2976    0.0000 C   0  0  0  0  0  0  0  0  0  0  0  0
    2.2599    2.1226    0.0000 C   0  0  0  0  0  0  0  0  0  0  0  0
    2.9743    0.8851    0.0000 C   0  0  0  0  0  0  0  0  0  0  0  0
   -0.5980   -1.1774    0.0000 C   0  0  0  0  0  0  0  0  0  0  0  0
    0.1165   -1.5899    0.0000 C   0  0  0  0  0  0  0  0  0  0  0  0
    0.8309   -1.1774    0.0000 C   0  0  0  0  0  0  0  0  0  0  0  0
    0.1165   -2.4149    0.0000 C   0  0  0  0  0  0  0  0  0  0  0  0
    0.1165    0.8851    0.0000 O   0  0  0  0  0  0  0  0  0  0  0  0
    2.2599   -1.1774    0.0000 O   0  0  0  0  0  0  0  0  0  0  0  0
    2.9743    0.0601    0.0000 C   0  0  0  0  0  0  0  0  0  0  0  0
    3.6888   -0.3524    0.0000 O   0  0  0  0  0  0  0  0  0  0  0  0
    4.4033    0.0601    0.0000 C   0  0  0  0  0  0  0  0  0  0  0  0
  1  2  2  0
  1  6  1  0
  2  3  1  0
  3  4  2  0
  3  7  1  0
  4  5  1  0
  5  6  2  0
  7  8  1  0
  8  9  1  0
  9 10  2  0
  9 11  1  0
 12 11  1  0
 12 13  1  0
 12 21  1  6
 13 14  1  0
 13 25  2  0
 15 14  1  0
 15 16  1  0
 15 17  1  1
 16 26  1  1
 16 27  1  0
 17 18  1  0
 18 19  1  0
 18 20  1  0
 21 22  1  0
 22 23  1  0
 22 24  1  0
 27 28  1  0
 28 29  1  0
M  END
>  <DRUGBANK_ID>  (1) 
DB08526

>  <COMMON_NAME>  (1) 
CARBOBENZYLOXY-(L)-LEUCINYL-(L)LEUCINYL METHOXYMETHYLKETONE

$$$$
