PE7
     RDKit          2D

 22 21  0  0  0  0  0  0  0  0999 V2000
   -7.5842   -0.1964    0.0000 S   0  0  0  0  0  0  0  0  0  0  0  0
   -6.8697    0.2161    0.0000 C   0  0  0  0  0  0  0  0  0  0  0  0
   -6.1552   -0.1964    0.0000 C   0  0  0  0  0  0  0  0  0  0  0  0
   -5.4406    0.2161    0.0000 O   0  0  0  0  0  0  0  0  0  0  0  0
   -4.7261   -0.1964    0.0000 C   0  0  0  0  0  0  0  0  0  0  0  0
   -4.0116    0.2161    0.0000 C   0  0  0  0  0  0  0  0  0  0  0  0
   -3.2970   -0.1964    0.0000 O   0  0  0  0  0  0  0  0  0  0  0  0
   -2.5825    0.2161    0.0000 C   0  0  0  0  0  0  0  0  0  0  0  0
   -1.8680   -0.1964    0.0000 C   0  0  0  0  0  0  0  0  0  0  0  0
   -1.1535    0.2161    0.0000 O   0  0  0  0  0  0  0  0  0  0  0  0
   -0.4389   -0.1964    0.0000 C   0  0  0  0  0  0  0  0  0  0  0  0
    0.2756    0.2161    0.0000 C   0  0  0  0  0  0  0  0  0  0  0  0
    0.9901   -0.1964    0.0000 O   0  0  0  0  0  0  0  0  0  0  0  0
    1.7046    0.2161    0.0000 C   0  0  0  0  0  0  0  0  0  0  0  0
    2.4192   -0.1964    0.0000 C   0  0  0  0  0  0  0  0  0  0  0  0
    3.1336    0.2161    0.0000 O   0  0  0  0  0  0  0  0  0  0  0  0
    3.8482   -0.1964    0.0000 C   0  0  0  0  0  0  0  0  0  0  0  0
    4.5627    0.2161    0.0000 C   0  0  0  0  0  0  0  0  0  0  0  0
    5.2773   -0.1964    0.0000 O   0  0  0  0  0  0  0  0  0  0  0  0
    5.9917    0.2161    0.0000 C   0  0  0  0  0  0  0  0  0  0  0  0
    6.7063   -0.1964    0.0000 C   0  0  0  0  0  0  0  0  0  0  0  0
    7.4209    0.2161    0.0000 O   0  0  0  0  0  0  0  0  0  0  0  0
  1  2  1  0
  2  3  1  0
  3  4  1  0
  4  5  1  0
  5  6  1  0
  6  7  1  0
  7  8  1  0
  8  9  1  0
  9 10  1  0
 10 11  1  0
 11 12  1  0
 12 13  1  0
 13 14  1  0
 14 15  1  0
 15 16  1  0
 16 17  1  0
 17 18  1  0
 18 19  1  0
 19 20  1  0
 20 21  1  0
 21 22  1  0
M  END
>  <DRUGBANK_ID>  (1) 
DB02404

>  <SECONDARY_ACCESSION_NUMBERS>  (1) 
EXPT02540

>  <COMMON_NAME>  (1) 
1-Deoxy-1-Thio-Heptaethylene Glycol

$$$$
