
     RDKit          2D

 21 23  0  0  1  0  0  0  0  0999 V2000
   -1.6277   -0.0004    0.0000 C   0  0  0  0  0  0  0  0  0  0  0  0
   -2.3422    0.4120    0.0000 C   0  0  0  0  0  0  0  0  0  0  0  0
   -3.0567   -0.0004    0.0000 C   0  0  0  0  0  0  0  0  0  0  0  0
   -3.0567   -0.8255    0.0000 C   0  0  0  0  0  0  0  0  0  0  0  0
   -2.3422   -1.2380    0.0000 C   0  0  0  0  0  0  0  0  0  0  0  0
   -1.6277   -0.8255    0.0000 C   0  0  0  0  0  0  0  0  0  0  0  0
   -0.9132    0.4120    0.0000 C   0  0  0  0  0  0  0  0  0  0  0  0
   -0.1988   -0.0004    0.0000 C   0  0  0  0  0  0  0  0  0  0  0  0
   -0.1988   -0.8255    0.0000 C   0  0  0  0  0  0  0  0  0  0  0  0
   -0.9133   -1.2380    0.0000 C   0  0  0  0  0  0  0  0  0  0  0  0
    1.3113    0.0583    0.0000 N   0  0  0  0  0  0  0  0  0  0  0  0
    2.0479   -1.2086    0.0000 C   0  0  0  0  0  0  0  0  0  0  0  0
    0.8988   -2.2103    0.0000 C   0  0  0  0  0  0  0  0  0  0  0  0
    0.5156   -1.2380    0.0000 C   0  0  0  0  0  0  0  0  0  0  0  0
   -1.3146   -1.9588    0.0000 C   0  0  0  0  0  0  0  0  0  0  0  0
    1.7087    0.7814    0.0000 C   0  0  0  0  0  0  0  0  0  0  0  0
    2.5337    0.7814    0.0000 C   0  0  0  0  0  0  0  0  0  0  0  0
    2.9462    1.4959    0.0000 C   0  0  0  0  0  0  0  0  0  0  0  0
    3.7712    1.4959    0.0000 C   0  0  0  0  0  0  0  0  0  0  0  0
    2.5337    2.2103    0.0000 C   0  0  0  0  0  0  0  0  0  0  0  0
   -3.7712   -1.2380    0.0000 O   0  0  0  0  0  0  0  0  0  0  0  0
  1  2  2  0
  1  7  1  0
  2  3  1  0
  3  4  2  0
  4  5  1  0
  4 21  1  0
  5  6  2  0
  6  1  1  0
  7  8  1  0
  8  9  1  0
  8 11  1  0
  9 10  1  0
  9 14  1  0
 10  6  1  0
 10 13  1  0
 10 15  1  0
 11 16  1  0
 12 11  1  0
 13 12  1  0
 16 17  1  0
 17 18  2  3
 18 19  1  0
 18 20  1  0
M  END
>  <DRUGBANK_ID>  (1) 
DB00652

>  <SECONDARY_ACCESSION_NUMBERS>  (1) 
APRD01173

>  <COMMON_NAME>  (1) 
Pentazocine

>  <CAS_NUMBER>  (1) 
359-83-1

>  <UNII>  (1) 
RP4A60D26L

>  <SYNONYMS>  (1) 
Pentazocin; Pentazocina; Pentazocine; Pentazocinum

$$$$
