
     RDKit          2D

 39 42  0  0  0  0  0  0  0  0999 V2000
   -3.7175   -1.6790    0.0000 C   0  0  0  0  0  0  0  0  0  0  0  0
   -2.4659    2.7908    0.0000 C   0  0  0  0  0  0  0  0  0  0  0  0
    0.7884   -2.8773    0.0000 C   0  0  0  0  0  0  0  0  0  0  0  0
    0.7323    2.8490    0.0000 C   0  0  0  0  0  0  0  0  0  0  0  0
    2.0090   -1.6351    0.0000 C   0  0  0  0  0  0  0  0  0  0  0  0
    1.9835    1.6091    0.0000 C   0  0  0  0  0  0  0  0  0  0  0  0
    2.3027   -2.4060    0.0000 C   0  0  0  0  0  0  0  0  0  0  0  0
    2.2812    2.3785    0.0000 C   0  0  0  0  0  0  0  0  0  0  0  0
   -2.3432   -2.0912    0.0000 C   0  0  0  0  0  0  0  0  0  0  0  0
   -2.9006    1.3881    0.0000 C   0  0  0  0  0  0  0  0  0  0  0  0
   -2.9171   -0.0760    0.0000 C   0  0  0  0  0  0  0  0  0  0  0  0
   -0.8501   -2.0782    0.0000 C   0  0  0  0  0  0  0  0  0  0  0  0
   -0.8566    2.0208    0.0000 C   0  0  0  0  0  0  0  0  0  0  0  0
    1.1814   -0.0109    0.0000 C   0  0  0  0  0  0  0  0  0  0  0  0
   -2.9043   -1.5398    0.0000 C   0  0  0  0  0  0  0  0  0  0  0  0
   -2.3201    1.9788    0.0000 C   0  0  0  0  0  0  0  0  0  0  0  0
    0.6431   -2.0652    0.0000 C   0  0  0  0  0  0  0  0  0  0  0  0
    0.6073    2.0336    0.0000 C   0  0  0  0  0  0  0  0  0  0  0  0
   -2.5431    0.6886    0.0000 C   0  0  0  0  0  0  0  0  0  0  0  0
   -1.5856   -1.6747    0.0000 C   0  0  0  0  0  0  0  0  0  0  0  0
    1.1945   -1.5040    0.0000 C   0  0  0  0  0  0  0  0  0  0  0  0
    1.1684    1.4822    0.0000 C   0  0  0  0  0  0  0  0  0  0  0  0
   -2.5303   -0.7753    0.0000 C   0  0  0  0  0  0  0  0  0  0  0  0
   -1.5852    1.6339    0.0000 C   0  0  0  0  0  0  0  0  0  0  0  0
   -0.1507   -1.6915    0.0000 C   0  0  0  0  0  0  0  0  0  0  0  0
   -0.1506    1.6464    0.0000 C   0  0  0  0  0  0  0  0  0  0  0  0
    0.8070   -0.7169    0.0000 C   0  0  0  0  0  0  0  0  0  0  0  0
    0.7652    0.7174    0.0000 C   0  0  0  0  0  0  0  0  0  0  0  0
    3.1172   -2.5371    0.0000 C   0  0  0  0  0  0  0  0  0  0  0  0
    3.0964    2.5055    0.0000 C   0  0  0  0  0  0  0  0  0  0  0  0
   -1.7093   -0.9145    0.0000 N   0  0  0  0  0  0  0  0  0  0  0  0
   -1.7539    0.8418    0.0000 N   0  0  0  0  0  0  0  0  0  0  0  0
   -0.0112   -0.8997    0.0000 N   0  0  0  0  0  0  0  0  0  0  0  0
    0.0030    0.8279    0.0000 N   0  0  0  0  0  0  0  0  0  0  0  0
    3.6380   -1.8972    0.0000 O   0  0  0  0  0  0  0  0  0  0  0  0
    3.4110   -3.3080    0.0000 O   0  0  0  0  0  0  0  0  0  0  0  0
    3.3940    3.2749    0.0000 O   0  0  0  0  0  0  0  0  0  0  0  0
    3.6139    1.8630    0.0000 O   0  0  0  0  0  0  0  0  0  0  0  0
    5.9952    0.0000    0.0000 Co  0  0  0  0  0 15  0  0  0  0  0  0
  7  5  1  0
  8  6  1  0
 15  1  1  0
 15  9  2  0
 16  2  1  0
 16 10  1  0
 17  3  1  0
 18  4  1  0
 19 10  2  0
 19 11  1  0
 20  9  1  0
 20 12  1  0
 21  5  1  0
 21 17  2  0
 22  6  1  0
 22 18  2  0
 23 11  2  0
 23 15  1  0
 24 13  1  0
 24 16  2  0
 25 12  2  0
 25 17  1  0
 26 13  2  0
 26 18  1  0
 27 14  2  0
 27 21  1  0
 28 14  1  0
 28 22  1  0
 29  7  1  0
 30  8  1  0
 31 20  2  0
 31 23  1  0
 32 19  1  0
 32 24  1  0
 33 25  1  0
 33 27  1  0
 34 26  1  0
 34 28  2  0
 35 29  2  0
 36 29  1  0
 37 30  2  0
 38 30  1  0
M  CHG  3  32  -1  36  -1  39   7
M  END
>  <DRUGBANK_ID>  (1) 
DB02173

>  <SECONDARY_ACCESSION_NUMBERS>  (1) 
EXPT01165

>  <COMMON_NAME>  (1) 
Co(III)-(Deuteroporphyrin IX)

$$$$
