
     RDKit          2D

 28 30  0  0  1  0  0  0  0  0999 V2000
    0.0915   -0.2689    0.0000 O   0  0  0  0  0  0  0  0  0  0  0  0
    0.8059    0.1434    0.0000 C   0  0  0  0  0  0  0  0  0  0  0  0
    0.8059    0.9685    0.0000 N   0  0  0  0  0  0  0  0  0  0  0  0
    1.5204    1.3810    0.0000 C   0  0  0  0  0  0  0  0  0  0  0  0
    1.5204    2.2060    0.0000 C   0  0  0  0  0  0  0  0  0  0  0  0
    2.2349    2.6185    0.0000 F   0  0  0  0  0  0  0  0  0  0  0  0
    1.5204    3.0310    0.0000 F   0  0  0  0  0  0  0  0  0  0  0  0
    0.8059    2.6185    0.0000 F   0  0  0  0  0  0  0  0  0  0  0  0
    2.2349    0.9685    0.0000 C   0  0  0  0  0  0  0  0  0  0  0  0
    2.2349    0.1435    0.0000 C   0  0  0  0  0  0  0  0  0  0  0  0
    1.5204   -0.2689    0.0000 C   0  0  0  0  0  0  0  0  0  0  0  0
    2.9494   -0.2689    0.0000 C   0  0  0  0  0  0  0  0  0  0  0  0
    3.6638    0.1435    0.0000 N   0  0  0  0  0  0  0  0  0  0  0  0
   -0.6230    0.1434    0.0000 C   0  0  0  0  0  0  0  0  0  0  0  0
   -1.3374   -0.2689    0.0000 C   0  0  0  0  0  0  0  0  0  0  0  0
   -2.0519    0.1434    0.0000 C   0  0  0  0  0  0  0  0  0  0  0  0
   -2.7664   -0.2689    0.0000 C   0  0  0  0  0  0  0  0  0  0  0  0
   -3.4808    0.1434    0.0000 O   0  0  0  0  0  0  0  0  0  0  0  0
   -2.7664   -1.0939    0.0000 N   0  0  0  0  0  0  0  0  0  0  0  0
   -2.0988   -1.5789    0.0000 C   0  0  0  0  0  0  0  0  0  0  0  0
   -2.3538   -2.3635    0.0000 C   0  0  0  0  0  0  0  0  0  0  0  0
   -3.1789   -2.3635    0.0000 C   0  0  0  0  0  0  0  0  0  0  0  0
   -3.4337   -1.5789    0.0000 C   0  0  0  0  0  0  0  0  0  0  0  0
   -3.6638   -3.0310    0.0000 O   0  0  0  0  0  0  0  0  0  0  0  0
   -1.8690   -3.0310    0.0000 F   0  0  0  0  0  0  0  0  0  0  0  0
   -2.0519    0.9685    0.0000 C   0  0  0  0  0  0  0  0  0  0  0  0
   -1.3374    1.3810    0.0000 C   0  0  0  0  0  0  0  0  0  0  0  0
   -0.6230    0.9685    0.0000 C   0  0  0  0  0  0  0  0  0  0  0  0
  1  2  1  0
  1 14  1  0
  2  3  2  0
  2 11  1  0
  3  4  1  0
  4  5  1  0
  4  9  2  0
  5  6  1  0
  5  7  1  0
  5  8  1  0
 10  9  1  0
 10 12  1  0
 11 10  2  0
 12 13  1  0
 14 15  2  0
 14 28  1  0
 15 16  1  0
 16 17  1  0
 16 26  2  0
 17 18  2  0
 17 19  1  0
 19 20  1  0
 19 23  1  0
 20 21  1  0
 21 22  1  0
 21 25  1  1
 22 24  1  6
 23 22  1  0
 27 26  1  0
 28 27  2  0
M  END
>  <DRUGBANK_ID>  (1) 
DB16735

>  <COMMON_NAME>  (1) 
PAT-1251

>  <CAS_NUMBER>  (1) 
2098884-52-5

>  <UNII>  (1) 
Y3HMF6G24B

$$$$
