
     RDKit          2D

 19 22  0  0  0  0  0  0  0  0999 V2000
    0.0169    0.2684    0.0000 N   0  0  0  0  0  0  0  0  0  0  0  0
    0.8150    0.0653    0.0000 C   0  0  0  0  0  0  0  0  0  0  0  0
    1.1488   -0.7038    0.0000 C   0  0  0  0  0  0  0  0  0  0  0  0
    0.7521   -1.4149    0.0000 N   0  0  0  0  0  0  0  0  0  0  0  0
   -0.6360   -0.2345    0.0000 C   0  0  0  0  0  0  0  0  0  0  0  0
   -0.6505   -1.0666    0.0000 C   0  0  0  0  0  0  0  0  0  0  0  0
   -0.0120   -1.5890    0.0000 C   0  0  0  0  0  0  0  0  0  0  0  0
   -0.2007    1.0715    0.0000 C   0  0  0  0  0  0  0  0  0  0  0  0
    1.4051    0.6506    0.0000 C   0  0  0  0  0  0  0  0  0  0  0  0
    1.1730    1.4342    0.0000 N   0  0  0  0  0  0  0  0  0  0  0  0
    1.3374   -2.0243    0.0000 C   0  0  0  0  0  0  0  0  0  0  0  0
    1.9711   -0.8344    0.0000 C   0  0  0  0  0  0  0  0  0  0  0  0
    2.0726   -1.6567    0.0000 C   0  0  0  0  0  0  0  0  0  0  0  0
    0.3652    1.6519    0.0000 C   0  0  0  0  0  0  0  0  0  0  0  0
   -1.3664   -1.4729    0.0000 C   0  0  0  0  0  0  0  0  0  0  0  0
   -1.3374    0.1814    0.0000 C   0  0  0  0  0  0  0  0  0  0  0  0
    1.7389    2.0243    0.0000 C   0  0  0  0  0  0  0  0  0  0  0  0
   -2.0726   -1.0375    0.0000 C   0  0  0  0  0  0  0  0  0  0  0  0
   -2.0582   -0.2200    0.0000 C   0  0  0  0  0  0  0  0  0  0  0  0
  2  1  1  0
  3  2  1  0
  4  3  1  0
  4  7  1  0
  5  1  1  0
  6  5  2  0
  7  6  1  0
  8  1  1  0
  9  2  1  0
 10  9  1  0
 10 14  1  0
 11  4  1  0
 11 13  2  0
 12  3  2  0
 13 12  1  0
 14  8  1  0
 15  6  1  0
 16  5  1  0
 17 10  1  0
 18 15  2  0
 19 16  2  0
 19 18  1  0
M  END
>  <DRUGBANK_ID>  (1) 
DB09305

>  <COMMON_NAME>  (1) 
Aptazapine

>  <CAS_NUMBER>  (1) 
71576-40-4

>  <UNII>  (1) 
240J927J1R

>  <SYNONYMS>  (1) 
Aptazapine

$$$$
