
     RDKit          2D

  5  5  0  0  0  0  0  0  0  0999 V2000
    0.4136    0.6319    0.0000 C   0  0  0  0  0  0  0  0  0  0  0  0
   -0.4117    0.6319    0.0000 C   0  0  0  0  0  0  0  0  0  0  0  0
    0.6671   -0.1434    0.0000 C   0  0  0  0  0  0  0  0  0  0  0  0
   -0.6671   -0.1526    0.0000 C   0  0  0  0  0  0  0  0  0  0  0  0
    0.0027   -0.6319    0.0000 N   0  0  0  0  0  0  0  0  0  0  0  0
  1  2  1  0
  1  3  1  0
  2  4  1  0
  3  5  1  0
  4  5  1  0
M  END
>  <DRUGBANK_ID>  (1) 
DB16858

>  <COMMON_NAME>  (1) 
Pyrrolidine

>  <CAS_NUMBER>  (1) 
123-75-1

>  <UNII>  (1) 
LJU5627FYV

>  <SYNONYMS>  (1) 
1-Azacyclopentane; Azacyclopentane; Azolidine; Butylenimine

$$$$
