
     RDKit          2D

 36 41  0  0  0  0  0  0  0  0999 V2000
   -5.5944   -1.2375    0.0000 C   0  0  0  0  0  0  0  0  0  0  0  0
   -5.5944   -2.0625    0.0000 O   0  0  0  0  0  0  0  0  0  0  0  0
   -4.8800   -2.4750    0.0000 C   0  0  0  0  0  0  0  0  0  0  0  0
   -4.1654   -2.0625    0.0000 C   0  0  0  0  0  0  0  0  0  0  0  0
   -4.1654   -1.2375    0.0000 N   0  0  0  0  0  0  0  0  0  0  0  0
   -4.8800   -0.8250    0.0000 C   0  0  0  0  0  0  0  0  0  0  0  0
   -3.4400   -0.8185    0.0000 C   0  0  0  0  0  0  0  0  0  0  0  0
   -2.7297   -1.2285    0.0000 C   0  0  0  0  0  0  0  0  0  0  0  0
   -2.0154   -0.8159    0.0000 C   0  0  0  0  0  0  0  0  0  0  0  0
   -2.0154    0.0090    0.0000 N   0  0  0  0  0  0  0  0  0  0  0  0
   -2.7256    0.4189    0.0000 C   0  0  0  0  0  0  0  0  0  0  0  0
   -3.4400    0.0064    0.0000 C   0  0  0  0  0  0  0  0  0  0  0  0
   -1.2976    0.4235    0.0000 C   0  0  0  0  0  0  0  0  0  0  0  0
   -0.5834    0.0112    0.0000 C   0  0  0  0  0  0  0  0  0  0  0  0
    0.1309    0.4239    0.0000 C   0  0  0  0  0  0  0  0  0  0  0  0
    0.1308    1.2489    0.0000 C   0  0  0  0  0  0  0  0  0  0  0  0
   -0.5833    1.6611    0.0000 C   0  0  0  0  0  0  0  0  0  0  0  0
   -1.2977    1.2485    0.0000 C   0  0  0  0  0  0  0  0  0  0  0  0
   -2.0123    1.6609    0.0000 C   0  0  0  0  0  0  0  0  0  0  0  0
   -2.7264    1.2485    0.0000 C   0  0  0  0  0  0  0  0  0  0  0  0
    0.8454    0.0115    0.0000 C   0  0  0  0  0  0  0  0  0  0  0  0
    1.5598    0.4240    0.0000 C   0  0  0  0  0  0  0  0  0  0  0  0
    1.5597    1.2490    0.0000 C   0  0  0  0  0  0  0  0  0  0  0  0
    0.8452    1.6615    0.0000 C   0  0  0  0  0  0  0  0  0  0  0  0
    2.3445    0.1692    0.0000 N   0  0  0  0  0  0  0  0  0  0  0  0
    2.8293    0.8367    0.0000 C   0  0  0  0  0  0  0  0  0  0  0  0
    2.3442    1.5041    0.0000 C   0  0  0  0  0  0  0  0  0  0  0  0
    3.6498    0.9230    0.0000 C   0  0  0  0  0  0  0  0  0  0  0  0
    3.9852    1.6768    0.0000 C   0  0  0  0  0  0  0  0  0  0  0  0
    3.5002    2.3442    0.0000 C   0  0  0  0  0  0  0  0  0  0  0  0
    2.6797    2.2578    0.0000 C   0  0  0  0  0  0  0  0  0  0  0  0
    4.7974    1.7624    0.0000 C   0  0  0  0  0  0  0  0  0  0  0  0
    5.5944    1.8521    0.0000 N   0  0  0  0  0  0  0  0  0  0  0  0
    0.8450    2.4750    0.0000 O   0  0  0  0  0  0  0  0  0  0  0  0
    1.2449   -0.7191    0.0000 C   0  0  0  0  0  0  0  0  0  0  0  0
    0.4092   -0.7032    0.0000 C   0  0  0  0  0  0  0  0  0  0  0  0
  1  2  1  0
  1  6  1  0
  2  3  1  0
  3  4  1  0
  4  5  1  0
  5  6  1  0
  5  7  1  0
  7  8  1  0
  7 12  1  0
  8  9  1  0
  9 10  1  0
 10 11  1  0
 10 13  1  0
 11 12  1  0
 13 14  2  0
 13 18  1  0
 14 15  1  0
 15 16  2  0
 15 21  1  0
 16 17  1  0
 16 24  1  0
 17 18  2  0
 18 19  1  0
 19 20  1  0
 21 22  1  0
 21 35  1  0
 21 36  1  0
 22 23  2  0
 22 25  1  0
 23 24  1  0
 23 27  1  0
 24 34  2  0
 25 26  1  0
 26 27  2  0
 26 28  1  0
 27 31  1  0
 28 29  2  0
 29 30  1  0
 29 32  1  0
 30 31  2  0
 32 33  3  0
M  END
>  <DRUGBANK_ID>  (1) 
DB11363

>  <COMMON_NAME>  (1) 
Alectinib

>  <CAS_NUMBER>  (1) 
1256580-46-7

>  <UNII>  (1) 
LIJ4CT1Z3Y

>  <SYNONYMS>  (1) 
9-ethyl-6,6-dimethyl-8-[4-(morpholin-4-yl)piperidin-1-yl]-11-oxo-6,11-dihydro-5H-benzo[b]carbazole-3-carbonitrile; Alectinib

$$$$
