1010
     RDKit          2D

 12 12  0  0  0  0  0  0  0  0999 V2000
    1.6500   -1.6005    0.0000 O   0  0  0  0  0  0  0  0  0  0  0  0
    3.0791    0.8745    0.0000 N   0  0  0  0  0  0  0  0  0  0  0  0
    3.0791    1.6995    0.0000 C   0  0  0  0  0  0  0  0  0  0  0  0
    3.0791    0.0495    0.0000 C   0  0  0  0  0  0  0  0  0  0  0  0
    3.9041    0.8745    0.0000 C   0  0  0  0  0  0  0  0  0  0  0  0
    2.2540    0.8745    0.0000 C   0  0  0  0  0  0  0  0  0  0  0  0
    3.7935    2.1120    0.0000 C   0  0  0  0  0  0  0  0  0  0  0  0
    2.3645   -0.3630    0.0000 C   0  0  0  0  0  0  0  0  0  0  0  0
    3.7935   -0.3630    0.0000 C   0  0  0  0  0  0  0  0  0  0  0  0
    2.3645   -1.1880    0.0000 C   0  0  0  0  0  0  0  0  0  0  0  0
    3.7935   -1.1880    0.0000 C   0  0  0  0  0  0  0  0  0  0  0  0
    3.0791   -1.6005    0.0000 C   0  0  0  0  0  0  0  0  0  0  0  0
  1 10  1  0
  2  3  1  0
  2  4  1  0
  2  5  1  0
  2  6  1  0
  3  7  1  0
  4  8  2  0
  4  9  1  0
  8 10  1  0
  9 11  2  0
 10 12  2  0
 11 12  1  0
M  CHG  1   2   1
M  END
>  <DRUGBANK_ID>  (1) 
DB01010

>  <SECONDARY_ACCESSION_NUMBERS>  (1) 
APRD00944

>  <COMMON_NAME>  (1) 
Edrophonium

>  <CAS_NUMBER>  (1) 
312-48-1

>  <UNII>  (1) 
70FP3JLY7N

>  <SYNONYMS>  (1) 
(3-hydroxyphenyl)dimethylethylammonium; 3-hydroxy-N,N-dimethyl-N-ethylanilinium; Edrophonium cation; Edrophonium ion; Ethyl-(3-hydroxy-phenyl)-dimethyl-ammonium; N-ethyl-3-hydroxy-N,N-dimethylanilinium; N-ethyl-3-hydroxy-N,N-dimethylbenzenaminium

$$$$
