
     RDKit          2D

 29 33  0  0  0  0  0  0  0  0999 V2000
    0.7738    0.8333    0.0000 C   0  0  0  0  0  0  0  0  0  0  0  0
    0.7738    1.6905    0.0000 C   0  0  0  0  0  0  0  0  0  0  0  0
    1.5530    1.9242    0.0000 N   0  0  0  0  0  0  0  0  0  0  0  0
    1.5530    0.5996    0.0000 N   0  0  0  0  0  0  0  0  0  0  0  0
    2.0465    1.2749    0.0000 C   0  0  0  0  0  0  0  0  0  0  0  0
    0.0466    0.4437    0.0000 N   0  0  0  0  0  0  0  0  0  0  0  0
   -0.6287    1.6905    0.0000 N   0  0  0  0  0  0  0  0  0  0  0  0
   -0.6287    0.8333    0.0000 C   0  0  0  0  0  0  0  0  0  0  0  0
    0.0466    2.0801    0.0000 C   0  0  0  0  0  0  0  0  0  0  0  0
   -1.3206   -0.4071    0.0000 C   0  0  0  0  0  0  0  0  0  0  0  0
   -0.6015   -0.8115    0.0000 C   0  0  0  0  0  0  0  0  0  0  0  0
   -0.5921   -1.6366    0.0000 C   0  0  0  0  0  0  0  0  0  0  0  0
   -1.3019   -2.0572    0.0000 C   0  0  0  0  0  0  0  0  0  0  0  0
   -2.0211   -1.6528    0.0000 C   0  0  0  0  0  0  0  0  0  0  0  0
   -2.0305   -0.8279    0.0000 C   0  0  0  0  0  0  0  0  0  0  0  0
   -1.3301    0.4177    0.0000 N   0  0  0  0  0  0  0  0  0  0  0  0
    0.0466    2.9112    0.0000 N   0  0  0  0  0  0  0  0  0  0  0  0
   -0.6511    3.3140    0.0000 C   0  0  0  0  0  0  0  0  0  0  0  0
   -1.3488    2.9112    0.0000 C   0  0  0  0  0  0  0  0  0  0  0  0
   -2.0465    3.3140    0.0000 C   0  0  0  0  0  0  0  0  0  0  0  0
   -2.0465    4.1197    0.0000 C   0  0  0  0  0  0  0  0  0  0  0  0
   -1.3488    4.5225    0.0000 C   0  0  0  0  0  0  0  0  0  0  0  0
   -0.6511    4.1197    0.0000 C   0  0  0  0  0  0  0  0  0  0  0  0
   -1.2926   -2.8724    0.0000 N   0  0  0  0  0  0  0  0  0  0  0  0
   -1.2926   -4.5225    0.0000 O   0  0  0  0  0  0  0  0  0  0  0  0
   -0.5781   -3.2849    0.0000 C   0  0  0  0  0  0  0  0  0  0  0  0
   -2.0072   -3.2849    0.0000 C   0  0  0  0  0  0  0  0  0  0  0  0
   -0.5781   -4.1100    0.0000 C   0  0  0  0  0  0  0  0  0  0  0  0
   -2.0072   -4.1100    0.0000 C   0  0  0  0  0  0  0  0  0  0  0  0
  2  1  2  0
  3  2  1  0
  4  1  1  0
  5  3  2  0
  5  4  1  0
  6  1  1  0
  8  6  2  0
  8  7  1  0
  9  2  1  0
  9  7  2  0
 11 10  2  0
 12 11  1  0
 13 12  2  0
 13 24  1  0
 14 13  1  0
 15 10  1  0
 15 14  2  0
 16  8  1  0
 16 10  1  0
 17  9  1  0
 18 17  1  0
 19 18  1  0
 20 19  1  0
 21 20  1  0
 22 21  1  0
 23 18  1  0
 23 22  1  0
 26 24  1  0
 27 24  1  0
 28 25  1  0
 28 26  1  0
 29 25  1  0
 29 27  1  0
M  END
>  <DRUGBANK_ID>  (1) 
DB07340

>  <COMMON_NAME>  (1) 
Reversine

>  <CAS_NUMBER>  (1) 
656820-32-5

>  <UNII>  (1) 
Z499CLJ023

>  <SYNONYMS>  (1) 
2-(4-morpholinoanilino)-6-cyclohexylaminopurine

$$$$
