
     RDKit          2D

 26 25  0  0  0  0  0  0  0  0999 V2000
   -5.0324    0.0134    0.0000 C   0  0  0  0  0  0  0  0  0  0  0  0
   -4.3136    0.4109    0.0000 C   0  0  0  0  0  0  0  0  0  0  0  0
   -5.7603    0.4109    0.0000 C   0  0  0  0  0  0  0  0  0  0  0  0
   -5.0324   -0.8216    0.0000 C   0  0  0  0  0  0  0  0  0  0  0  0
   -3.5990    0.0134    0.0000 O   0  0  0  0  0  0  0  0  0  0  0  0
   -4.3136    1.2324    0.0000 O   0  0  0  0  0  0  0  0  0  0  0  0
   -6.4658    0.0224    0.0000 C   0  0  0  0  0  0  0  0  0  0  0  0
   -5.7603   -1.2324    0.0000 C   0  0  0  0  0  0  0  0  0  0  0  0
   -2.8757    0.4109    0.0000 C   0  0  0  0  0  0  0  0  0  0  0  0
   -7.2250    0.4198    0.0000 C   0  0  0  0  0  0  0  0  0  0  0  0
   -2.1656    0.0224    0.0000 C   0  0  0  0  0  0  0  0  0  0  0  0
   -7.9485    0.0224    0.0000 C   0  0  0  0  0  0  0  0  0  0  0  0
   -1.4378    0.4198    0.0000 C   0  0  0  0  0  0  0  0  0  0  0  0
   -0.7010    0.0224    0.0000 C   0  0  0  0  0  0  0  0  0  0  0  0
    0.0000    0.4198    0.0000 C   0  0  0  0  0  0  0  0  0  0  0  0
    0.7189    0.0268    0.0000 C   0  0  0  0  0  0  0  0  0  0  0  0
    1.4424    0.4599    0.0000 C   0  0  0  0  0  0  0  0  0  0  0  0
    2.1702    0.0714    0.0000 C   0  0  0  0  0  0  0  0  0  0  0  0
    2.8981    0.4778    0.0000 C   0  0  0  0  0  0  0  0  0  0  0  0
    3.6304    0.0803    0.0000 C   0  0  0  0  0  0  0  0  0  0  0  0
    4.3360    0.4778    0.0000 C   0  0  0  0  0  0  0  0  0  0  0  0
    5.0817    0.0937    0.0000 C   0  0  0  0  0  0  0  0  0  0  0  0
    5.7917    0.4956    0.0000 C   0  0  0  0  0  0  0  0  0  0  0  0
    6.5196    0.1116    0.0000 C   0  0  0  0  0  0  0  0  0  0  0  0
    7.2294    0.5269    0.0000 C   0  0  0  0  0  0  0  0  0  0  0  0
    7.9485    0.1429    0.0000 C   0  0  0  0  0  0  0  0  0  0  0  0
  1  2  1  0
  1  3  1  0
  1  4  1  0
  2  5  1  0
  2  6  2  0
  3  7  1  0
  4  8  1  0
  5  9  1  0
  7 10  1  0
  9 11  1  0
 10 12  1  0
 11 13  1  0
 13 14  1  0
 14 15  1  0
 15 16  1  0
 16 17  1  0
 17 18  1  0
 18 19  1  0
 19 20  1  0
 20 21  1  0
 21 22  1  0
 22 23  1  0
 23 24  1  0
 24 25  1  0
 25 26  1  0
M  END
>  <DRUGBANK_ID>  (1) 
DB11349

>  <COMMON_NAME>  (1) 
Cetyl ethylhexanoate

>  <CAS_NUMBER>  (1) 
59130-69-7

>  <UNII>  (1) 
134647WMX4

>  <SYNONYMS>  (1) 
Cetyl 2-ethylhexanoate; Hexadecyl 2-ethylhexanoate; Perceline oil

$$$$
