PVB
     RDKit          2D

 30 32  0  0  0  0  0  0  0  0999 V2000
    0.1173    0.0363    0.0000 N   0  0  0  0  0  0  0  0  0  0  0  0
   -2.3512   -1.8283    0.0000 C   0  0  0  0  0  0  0  0  0  0  0  0
   -2.0962   -1.0437    0.0000 N   0  0  0  0  0  0  0  0  0  0  0  0
   -1.3116   -0.7887    0.0000 C   0  0  0  0  0  0  0  0  0  0  0  0
   -0.5971   -1.2012    0.0000 N   0  0  0  0  0  0  0  0  0  0  0  0
    0.1173   -0.7887    0.0000 C   0  0  0  0  0  0  0  0  0  0  0  0
   -0.5971    0.4488    0.0000 C   0  0  0  0  0  0  0  0  0  0  0  0
   -1.3116    0.0363    0.0000 C   0  0  0  0  0  0  0  0  0  0  0  0
   -2.0962    0.2912    0.0000 N   0  0  0  0  0  0  0  0  0  0  0  0
   -2.5811   -0.3762    0.0000 C   0  0  0  0  0  0  0  0  0  0  0  0
   -0.5971    1.2738    0.0000 N   0  0  0  0  0  0  0  0  0  0  0  0
   -1.3116    1.6863    0.0000 C   0  0  0  0  0  0  0  0  0  0  0  0
   -2.0261    1.2738    0.0000 C   0  0  0  0  0  0  0  0  0  0  0  0
   -2.7405    1.6863    0.0000 C   0  0  0  0  0  0  0  0  0  0  0  0
   -2.7405    2.5113    0.0000 C   0  0  0  0  0  0  0  0  0  0  0  0
   -2.0261    2.9238    0.0000 C   0  0  0  0  0  0  0  0  0  0  0  0
   -2.0261    3.7488    0.0000 Cl  0  0  0  0  0  0  0  0  0  0  0  0
   -1.3116    2.5113    0.0000 C   0  0  0  0  0  0  0  0  0  0  0  0
   -3.4550    2.9238    0.0000 C   0  0  0  0  0  0  0  0  0  0  0  0
   -3.4550    3.7488    0.0000 O   0  0  0  0  0  0  0  0  0  0  0  0
   -4.1695    2.5113    0.0000 O   0  0  0  0  0  0  0  0  0  0  0  0
    0.8318   -1.2012    0.0000 N   0  0  0  0  0  0  0  0  0  0  0  0
    1.5463   -0.7887    0.0000 C   0  0  0  0  0  0  0  0  0  0  0  0
    2.2608   -1.2012    0.0000 C   0  0  0  0  0  0  0  0  0  0  0  0
    2.9752   -0.7887    0.0000 C   0  0  0  0  0  0  0  0  0  0  0  0
    2.2608   -2.0262    0.0000 C   0  0  0  0  0  0  0  0  0  0  0  0
    1.5463    0.0363    0.0000 C   0  0  0  0  0  0  0  0  0  0  0  0
    2.2608    0.4488    0.0000 O   0  0  0  0  0  0  0  0  0  0  0  0
   -3.1581   -1.9998    0.0000 C   0  0  0  0  0  0  0  0  0  0  0  0
   -1.7991   -2.4414    0.0000 C   0  0  0  0  0  0  0  0  0  0  0  0
  1  6  2  0
  1  7  1  0
  2  3  1  0
  2 29  1  0
  2 30  1  0
  3  4  1  0
  3 10  1  0
  4  5  2  0
  4  8  1  0
  5  6  1  0
  6 22  1  0
  7  8  2  0
  7 11  1  0
  8  9  1  0
  9 10  2  0
 11 12  1  0
 12 13  2  0
 12 18  1  0
 13 14  1  0
 14 15  2  0
 15 16  1  0
 15 19  1  0
 16 17  1  0
 16 18  2  0
 19 20  1  0
 19 21  2  0
 23 22  1  0
 23 24  1  0
 23 27  1  1
 24 25  1  0
 24 26  1  0
 27 28  1  0
M  END
>  <DRUGBANK_ID>  (1) 
DB02733

>  <SECONDARY_ACCESSION_NUMBERS>  (1) 
EXPT02705

>  <COMMON_NAME>  (1) 
Purvalanol

$$$$
