
     RDKit          2D

 22 24  0  0  0  0  0  0  0  0999 V2000
    3.6710    0.9480    0.0000 C   0  0  0  0  0  0  0  0  0  0  0  0
    2.9383    1.3272    0.0000 C   0  0  0  0  0  0  0  0  0  0  0  0
    2.2312    0.9378    0.0000 C   0  0  0  0  0  0  0  0  0  0  0  0
    2.2363    0.1845    0.0000 C   0  0  0  0  0  0  0  0  0  0  0  0
    1.5138   -0.1998    0.0000 C   0  0  0  0  0  0  0  0  0  0  0  0
    1.5138   -0.9530    0.0000 C   0  0  0  0  0  0  0  0  0  0  0  0
    0.7861   -1.3272    0.0000 O   0  0  0  0  0  0  0  0  0  0  0  0
    0.7912    0.1794    0.0000 C   0  0  0  0  0  0  0  0  0  0  0  0
    0.7912    0.9378    0.0000 O   0  0  0  0  0  0  0  0  0  0  0  0
    0.0739   -0.1998    0.0000 O   0  0  0  0  0  0  0  0  0  0  0  0
   -0.7613   -0.2049    0.0000 C   0  0  0  0  0  0  0  0  0  0  0  0
   -1.1816    0.5995    0.0000 C   0  0  0  0  0  0  0  0  0  0  0  0
   -2.1397    0.7841    0.0000 C   0  0  0  0  0  0  0  0  0  0  0  0
   -2.9032    0.2306    0.0000 C   0  0  0  0  0  0  0  0  0  0  0  0
   -2.9032   -0.6557    0.0000 C   0  0  0  0  0  0  0  0  0  0  0  0
   -2.1295   -1.2142    0.0000 C   0  0  0  0  0  0  0  0  0  0  0  0
   -1.1764   -1.0042    0.0000 C   0  0  0  0  0  0  0  0  0  0  0  0
   -1.5455   -0.2305    0.0000 N   0  0  0  0  0  0  0  0  0  0  0  0
   -3.3388   -0.2202    0.0000 C   0  0  0  0  0  0  0  0  0  0  0  0
   -3.6710    0.6739    0.0000 O   0  0  0  0  0  0  0  0  0  0  0  0
    2.9639   -0.1844    0.0000 C   0  0  0  0  0  0  0  0  0  0  0  0
    3.6710    0.1948    0.0000 C   0  0  0  0  0  0  0  0  0  0  0  0
  1 22  2  0
  2  1  1  0
  2  3  2  0
  3  4  1  0
  4  5  1  0
  5  6  1  1
  5  8  1  0
  7  6  1  0
  8 10  1  0
  9  8  2  0
 11 10  1  1
 11 12  1  0
 13 12  1  1
 13 18  1  0
 14 13  1  0
 14 20  1  6
 15 14  1  0
 16 15  1  1
 16 18  1  0
 17 16  1  0
 17 11  1  0
 19 18  1  0
 21  4  2  0
 22 21  1  0
M  END
>  <DRUGBANK_ID>  (1) 
DB11785

>  <COMMON_NAME>  (1) 
Anisodamine

>  <CAS_NUMBER>  (1) 
55869-99-3

>  <UNII>  (1) 
01343Q8EL8

$$$$
