
     RDKit          2D

 34 38  0  0  0  0  0  0  0  0999 V2000
    0.7145   -8.6625    0.0000 C   0  0  0  0  0  0  0  0  0  0  0  0
    0.0000   -8.2500    0.0000 O   0  0  0  0  0  0  0  0  0  0  0  0
    0.0000   -7.4250    0.0000 C   0  0  0  0  0  0  0  0  0  0  0  0
   -0.7145   -7.0125    0.0000 C   0  0  0  0  0  0  0  0  0  0  0  0
   -0.7145   -6.1875    0.0000 C   0  0  0  0  0  0  0  0  0  0  0  0
    0.0000   -5.7750    0.0000 C   0  0  0  0  0  0  0  0  0  0  0  0
    0.7145   -6.1875    0.0000 C   0  0  0  0  0  0  0  0  0  0  0  0
    0.7145   -7.0125    0.0000 C   0  0  0  0  0  0  0  0  0  0  0  0
    0.0000   -4.9500    0.0000 S   0  0  0  0  0  0  0  0  0  0  0  0
    0.8250   -4.9500    0.0000 O   0  0  0  0  0  0  0  0  0  0  0  0
   -0.8250   -4.9500    0.0000 O   0  0  0  0  0  0  0  0  0  0  0  0
    0.0000   -4.1250    0.0000 N   0  0  0  0  0  0  0  0  0  0  0  0
    0.7145   -3.7125    0.0000 C   0  0  0  0  0  0  0  0  0  0  0  0
    0.7145   -2.8875    0.0000 C   0  0  0  0  0  0  0  0  0  0  0  0
    1.4289   -2.4750    0.0000 C   0  0  0  0  0  0  0  0  0  0  0  0
    2.1434   -2.8875    0.0000 C   0  0  0  0  0  0  0  0  0  0  0  0
    2.8579   -2.4750    0.0000 O   0  0  0  0  0  0  0  0  0  0  0  0
    2.1434   -3.7125    0.0000 C   0  0  0  0  0  0  0  0  0  0  0  0
    2.8579   -4.1250    0.0000 C   0  0  0  0  0  0  0  0  0  0  0  0
    2.8579   -4.9500    0.0000 C   0  0  0  0  0  0  0  0  0  0  0  0
    2.1434   -5.3625    0.0000 C   0  0  0  0  0  0  0  0  0  0  0  0
    1.4289   -4.9500    0.0000 C   0  0  0  0  0  0  0  0  0  0  0  0
    1.4289   -4.1250    0.0000 C   0  0  0  0  0  0  0  0  0  0  0  0
    1.4289   -1.6500    0.0000 C   0  0  0  0  0  0  0  0  0  0  0  0
    0.7145   -1.2375    0.0000 C   0  0  0  0  0  0  0  0  0  0  0  0
    0.0000   -1.6500    0.0000 O   0  0  0  0  0  0  0  0  0  0  0  0
    0.7145   -0.4125    0.0000 C   0  0  0  0  0  0  0  0  0  0  0  0
    1.4289    0.0000    0.0000 C   0  0  0  0  0  0  0  0  0  0  0  0
    2.1434   -0.4125    0.0000 C   0  0  0  0  0  0  0  0  0  0  0  0
    2.8579    0.0000    0.0000 C   0  0  0  0  0  0  0  0  0  0  0  0
    3.5724   -0.4125    0.0000 C   0  0  0  0  0  0  0  0  0  0  0  0
    3.5724   -1.2375    0.0000 C   0  0  0  0  0  0  0  0  0  0  0  0
    2.8579   -1.6500    0.0000 C   0  0  0  0  0  0  0  0  0  0  0  0
    2.1434   -1.2375    0.0000 C   0  0  0  0  0  0  0  0  0  0  0  0
  1  2  1  0
  2  3  1  0
  3  4  2  0
  3  8  1  0
  4  5  1  0
  5  6  2  0
  6  7  1  0
  6  9  1  0
  7  8  2  0
  9 10  2  0
  9 11  2  0
  9 12  1  0
 12 13  1  0
 13 14  2  0
 13 23  1  0
 14 15  1  0
 15 16  2  0
 15 24  1  0
 16 17  1  0
 16 18  1  0
 18 19  1  0
 18 23  2  0
 19 20  2  0
 20 21  1  0
 21 22  2  0
 22 23  1  0
 24 25  2  0
 24 34  1  0
 25 26  1  0
 25 27  1  0
 27 28  2  0
 28 29  1  0
 29 30  1  0
 29 34  2  0
 30 31  2  0
 31 32  1  0
 32 33  2  0
 33 34  1  0
M  END
>  <DRUGBANK_ID>  (1) 
DB17578

>  <COMMON_NAME>  (1) 
TTI-101

>  <CAS_NUMBER>  (1) 
432001-19-9

>  <UNII>  (1) 
KZ3DLD11RQ

>  <SYNONYMS>  (1) 
Benzenesulfonamide, n-(1',2-dihydroxy(1,2'-binaphthalen)-4'-yl)-4-methoxy-; Stat3 inhibitor c188-9; Stat3 inhibitor tti-101

$$$$
