
     RDKit          2D

 11 11  0  0  0  0  0  0  0  0999 V2000
   -1.4290   -1.2376    0.0000 F   0  0  0  0  0  0  0  0  0  0  0  0
    0.0000   -1.2376    0.0000 O   0  0  0  0  0  0  0  0  0  0  0  0
    0.0000    1.2376    0.0000 O   0  0  0  0  0  0  0  0  0  0  0  0
   -1.4290    0.4124    0.0000 O   0  0  0  0  0  0  0  0  0  0  0  0
    1.4290    0.4124    0.0000 O   0  0  0  0  0  0  0  0  0  0  0  0
    1.4290   -1.2376    0.0000 O   0  0  0  0  0  0  0  0  0  0  0  0
    0.0000    0.4124    0.0000 C   0  0  0  0  0  0  0  0  0  0  0  0
   -0.7144    0.0000    0.0000 C   0  0  0  0  0  0  0  0  0  0  0  0
    0.7145    0.0000    0.0000 C   0  0  0  0  0  0  0  0  0  0  0  0
   -0.7144   -0.8250    0.0000 C   0  0  0  0  0  0  0  0  0  0  0  0
    0.7145   -0.8250    0.0000 C   0  0  0  0  0  0  0  0  0  0  0  0
 10  1  1  6
  2 10  1  0
  2 11  1  0
  6 11  1  0
  7  3  1  6
  7  8  1  0
  7  9  1  0
  8  4  1  1
  8 10  1  0
  9  5  1  1
  9 11  1  0
M  CHG  1   6  -1
M  END
>  <DRUGBANK_ID>  (1) 
DB03586

>  <SECONDARY_ACCESSION_NUMBERS>  (1) 
EXPT03266

>  <COMMON_NAME>  (1) 
(3R,4R,5S,6R)-6-Fluoro-3,4,5-trihydroxytetrahydro-2H-pyran-2-olate

$$$$
