
     RDKit          2D

 36 39  0  0  0  0  0  0  0  0999 V2000
    3.5724   -6.1875    0.0000 C   0  0  0  0  0  0  0  0  0  0  0  0
    3.5724   -5.3625    0.0000 C   0  0  0  0  0  0  0  0  0  0  0  0
    5.0013   -3.7125    0.0000 C   0  0  0  0  0  0  0  0  0  0  0  0
    3.5724   -3.7125    0.0000 C   0  0  0  0  0  0  0  0  0  0  0  0
    5.0013   -6.1875    0.0000 C   0  0  0  0  0  0  0  0  0  0  0  0
    5.7158   -4.9500    0.0000 C   0  0  0  0  0  0  0  0  0  0  0  0
    2.8080  -10.5031    0.0000 C   0  0  0  0  0  0  0  0  0  0  0  0
    5.0013   -2.8875    0.0000 C   0  0  0  0  0  0  0  0  0  0  0  0
    3.5724   -2.8875    0.0000 C   0  0  0  0  0  0  0  0  0  0  0  0
    5.7158   -6.6000    0.0000 C   0  0  0  0  0  0  0  0  0  0  0  0
    6.4302   -5.3625    0.0000 C   0  0  0  0  0  0  0  0  0  0  0  0
    3.1953  -11.2315    0.0000 C   0  0  0  0  0  0  0  0  0  0  0  0
    3.5724   -8.6625    0.0000 C   0  0  0  0  0  0  0  0  0  0  0  0
    2.1434   -8.6625    0.0000 C   0  0  0  0  0  0  0  0  0  0  0  0
    2.8579   -6.6000    0.0000 C   0  0  0  0  0  0  0  0  0  0  0  0
    3.5724   -7.8375    0.0000 C   0  0  0  0  0  0  0  0  0  0  0  0
    2.1434   -7.8375    0.0000 C   0  0  0  0  0  0  0  0  0  0  0  0
    4.0697   -9.8322    0.0000 C   0  0  0  0  0  0  0  0  0  0  0  0
    4.2868   -4.1250    0.0000 C   0  0  0  0  0  0  0  0  0  0  0  0
    5.0013   -5.3625    0.0000 C   0  0  0  0  0  0  0  0  0  0  0  0
    3.2452   -9.8034    0.0000 C   0  0  0  0  0  0  0  0  0  0  0  0
    4.2868   -2.4750    0.0000 C   0  0  0  0  0  0  0  0  0  0  0  0
    6.4302   -6.1875    0.0000 C   0  0  0  0  0  0  0  0  0  0  0  0
    4.2868   -4.9500    0.0000 C   0  0  0  0  0  0  0  0  0  0  0  0
    4.4570  -10.5607    0.0000 C   0  0  0  0  0  0  0  0  0  0  0  0
    4.0198  -11.2603    0.0000 C   0  0  0  0  0  0  0  0  0  0  0  0
    2.8579   -9.0750    0.0000 C   0  0  0  0  0  0  0  0  0  0  0  0
    5.2815  -10.5894    0.0000 C   0  0  0  0  0  0  0  0  0  0  0  0
    4.4071  -11.9887    0.0000 Cl  0  0  0  0  0  0  0  0  0  0  0  0
    4.2868   -1.6500    0.0000 F   0  0  0  0  0  0  0  0  0  0  0  0
    7.1447   -6.6000    0.0000 F   0  0  0  0  0  0  0  0  0  0  0  0
    6.1060  -10.6182    0.0000 F   0  0  0  0  0  0  0  0  0  0  0  0
    5.2527  -11.4139    0.0000 F   0  0  0  0  0  0  0  0  0  0  0  0
    5.3103   -9.7650    0.0000 F   0  0  0  0  0  0  0  0  0  0  0  0
    2.8579   -7.4250    0.0000 N   0  0  0  0  0  0  0  0  0  0  0  0
    2.4706   -9.8034    0.0000 O   0  0  0  0  0  0  0  0  0  0  0  0
  2  1  1  0
  8  3  2  0
  9  4  1  0
 10  5  2  0
 11  6  1  0
 12  7  2  0
 15  1  1  0
 16 13  1  0
 17 14  1  0
 19  3  1  0
 19  4  2  0
 20  5  1  0
 20  6  2  0
 21  7  1  0
 21 18  2  0
 22  8  1  0
 22  9  2  0
 23 10  1  0
 23 11  2  0
 24  2  1  0
 24 19  1  0
 24 20  1  0
 25 18  1  0
 26 12  1  0
 26 25  2  0
 27 13  1  0
 27 14  1  0
 27 21  1  0
 28 25  1  0
 29 26  1  0
 30 22  1  0
 31 23  1  0
 32 28  1  0
 33 28  1  0
 34 28  1  0
 35 15  1  0
 35 16  1  0
 35 17  1  0
 36 27  1  0
M  END
>  <DRUGBANK_ID>  (1) 
DB13791

>  <COMMON_NAME>  (1) 
Penfluridol

>  <CAS_NUMBER>  (1) 
26864-56-2

>  <UNII>  (1) 
25TLU22Q8H

>  <SYNONYMS>  (1) 
Penfluridol

$$$$
