
     RDKit          2D

 21 22  0  0  0  0  0  0  0  0999 V2000
    1.1038    0.0789    0.0000 N   0  0  0  0  0  0  0  0  0  0  0  0
   -1.0489   -0.3931    0.0000 C   0  0  0  0  0  0  0  0  0  0  0  0
   -1.0270   -1.2237    0.0000 C   0  0  0  0  0  0  0  0  0  0  0  0
   -0.2947   -1.6200    0.0000 C   0  0  0  0  0  0  0  0  0  0  0  0
    0.3935   -1.1863    0.0000 C   0  0  0  0  0  0  0  0  0  0  0  0
    0.3935   -0.3552    0.0000 C   0  0  0  0  0  0  0  0  0  0  0  0
   -0.3379    0.0192    0.0000 C   0  0  0  0  0  0  0  0  0  0  0  0
   -0.3598    0.8497    0.0000 O   0  0  0  0  0  0  0  0  0  0  0  0
   -1.1139    1.2453    0.0000 C   0  0  0  0  0  0  0  0  0  0  0  0
   -1.7373   -1.6580    0.0000 N   0  0  0  0  0  0  0  0  0  0  0  0
    1.8285   -0.3153    0.0000 S   0  0  0  0  0  0  0  0  0  0  0  0
    2.5429    0.0971    0.0000 C   0  0  0  0  0  0  0  0  0  0  0  0
    1.4159   -1.0299    0.0000 O   0  0  0  0  0  0  0  0  0  0  0  0
    2.2409   -1.0299    0.0000 O   0  0  0  0  0  0  0  0  0  0  0  0
   -1.8284    2.4828    0.0000 C   0  0  0  0  0  0  0  0  0  0  0  0
   -2.5429    2.0703    0.0000 C   0  0  0  0  0  0  0  0  0  0  0  0
   -2.5429    1.2453    0.0000 C   0  0  0  0  0  0  0  0  0  0  0  0
   -1.8284    0.8327    0.0000 C   0  0  0  0  0  0  0  0  0  0  0  0
   -1.1139    2.0703    0.0000 C   0  0  0  0  0  0  0  0  0  0  0  0
   -1.7165   -2.4828    0.0000 O   0  0  0  0  0  0  0  0  0  0  0  0
   -2.4619   -1.2637    0.0000 O   0  0  0  0  0  0  0  0  0  0  0  0
  1 11  1  0
  3  2  2  0
  4  3  1  0
  5  4  2  0
  6  1  1  0
  6  5  1  0
  7  2  1  0
  7  6  2  0
  8  7  1  0
  9  8  1  0
  9 19  1  0
 10  3  1  0
 10 20  2  0
 10 21  1  0
 11 12  1  0
 11 13  2  0
 14 11  2  0
 15 16  1  0
 15 19  1  0
 16 17  1  0
 17 18  1  0
 18  9  1  0
M  CHG  2  10   1  21  -1
M  END
>  <DRUGBANK_ID>  (1) 
DB14060

>  <COMMON_NAME>  (1) 
NS-398

>  <CAS_NUMBER>  (1) 
123653-11-2

>  <UNII>  (1) 
9SP55KM2KS

>  <SYNONYMS>  (1) 
N-(2-Cyclohexyloxy-4-nitrophenyl)methanesulfonamide

$$$$
