311
     RDKit          2D

 24 26  0  0  0  0  0  0  0  0999 V2000
    1.7969    0.0488    0.0000 C   0  0  0  0  0  0  0  0  0  0  0  0
   -3.2044    1.2863    0.0000 C   0  0  0  0  0  0  0  0  0  0  0  0
   -0.3466   -0.3637    0.0000 C   0  0  0  0  0  0  0  0  0  0  0  0
   -1.7755   -0.3637    0.0000 C   0  0  0  0  0  0  0  0  0  0  0  0
   -2.4900    0.0488    0.0000 C   0  0  0  0  0  0  0  0  0  0  0  0
    0.3679    0.0488    0.0000 C   0  0  0  0  0  0  0  0  0  0  0  0
    2.5113   -0.3637    0.0000 C   0  0  0  0  0  0  0  0  0  0  0  0
    2.5113   -1.1887    0.0000 C   0  0  0  0  0  0  0  0  0  0  0  0
    1.0824   -1.1887    0.0000 C   0  0  0  0  0  0  0  0  0  0  0  0
   -4.6334    1.2863    0.0000 C   0  0  0  0  0  0  0  0  0  0  0  0
    2.9485    0.3359    0.0000 C   0  0  0  0  0  0  0  0  0  0  0  0
    3.3358   -0.3349    0.0000 C   0  0  0  0  0  0  0  0  0  0  0  0
   -1.0610   -1.6012    0.0000 C   0  0  0  0  0  0  0  0  0  0  0  0
   -1.7755   -1.1887    0.0000 C   0  0  0  0  0  0  0  0  0  0  0  0
   -0.3466   -1.1887    0.0000 C   0  0  0  0  0  0  0  0  0  0  0  0
   -3.9189    0.0488    0.0000 C   0  0  0  0  0  0  0  0  0  0  0  0
   -3.2044   -0.3637    0.0000 C   0  0  0  0  0  0  0  0  0  0  0  0
   -2.4900    0.8738    0.0000 C   0  0  0  0  0  0  0  0  0  0  0  0
    1.7969   -1.6012    0.0000 C   0  0  0  0  0  0  0  0  0  0  0  0
   -3.9189    0.8738    0.0000 C   0  0  0  0  0  0  0  0  0  0  0  0
   -1.0610    0.0488    0.0000 N   0  0  0  0  0  0  0  0  0  0  0  0
    1.0824   -0.3637    0.0000 N   0  0  0  0  0  0  0  0  0  0  0  0
    0.3679    0.8738    0.0000 O   0  0  0  0  0  0  0  0  0  0  0  0
   -3.2044    2.1113    0.0000 F   0  0  0  0  0  0  0  0  0  0  0  0
  1  7  1  0
  1 22  1  0
  2 18  2  0
  2 20  1  0
  2 24  1  0
  3  6  1  0
  3 15  2  0
  3 21  1  0
  4  5  1  0
  4 14  1  0
  4 21  2  0
  5 17  2  0
  5 18  1  0
  6 22  1  0
  6 23  2  0
  7  8  1  0
  7 11  1  0
  7 12  1  0
  8 19  1  0
  9 19  1  0
  9 22  1  0
 10 20  1  0
 13 14  2  0
 13 15  1  0
 16 17  1  0
 16 20  2  0
M  END
>  <DRUGBANK_ID>  (1) 
DB06992

>  <COMMON_NAME>  (1) 
(3,3-dimethylpiperidin-1-yl)(6-(3-fluoro-4-methylphenyl)pyridin-2-yl)methanone

$$$$
