
     RDKit          2D

 14 14  0  0  0  0  0  0  0  0999 V2000
   -0.7109   -0.8210    0.0000 C   0  0  0  0  0  0  0  0  0  0  0  0
    0.0017   -1.2308    0.0000 N   0  0  0  0  0  0  0  0  0  0  0  0
   -0.7109    0.0156    0.0000 N   0  0  0  0  0  0  0  0  0  0  0  0
   -1.4402   -1.2299    0.0000 N   0  0  0  0  0  0  0  0  0  0  0  0
    0.7205   -0.8213    0.0000 C   0  0  0  0  0  0  0  0  0  0  0  0
   -0.0060    0.4223    0.0000 C   0  0  0  0  0  0  0  0  0  0  0  0
   -2.1489   -0.8134    0.0000 C   0  0  0  0  0  0  0  0  0  0  0  0
    0.7165    0.0052    0.0000 N   0  0  0  0  0  0  0  0  0  0  0  0
    1.4292   -1.2413    0.0000 N   0  0  0  0  0  0  0  0  0  0  0  0
    0.0037    1.2413    0.0000 Cl  0  0  0  0  0  0  0  0  0  0  0  0
   -2.8679   -1.2262    0.0000 C   0  0  0  0  0  0  0  0  0  0  0  0
   -2.1528    0.0097    0.0000 C   0  0  0  0  0  0  0  0  0  0  0  0
    2.1480   -0.8320    0.0000 C   0  0  0  0  0  0  0  0  0  0  0  0
    2.8679   -1.2351    0.0000 C   0  0  0  0  0  0  0  0  0  0  0  0
  1  2  2  0
  1  3  1  0
  1  4  1  0
  2  5  1  0
  3  6  2  0
  4  7  1  0
  5  8  2  0
  5  9  1  0
  6 10  1  0
  6  8  1  0
  7 11  1  0
  7 12  1  0
  9 13  1  0
 13 14  1  0
M  END
>  <DRUGBANK_ID>  (1) 
DB07392

>  <COMMON_NAME>  (1) 
Atrazine

>  <CAS_NUMBER>  (1) 
1912-24-9

>  <UNII>  (1) 
QJA9M5H4IM

$$$$
