
     RDKit          2D

 34 37  0  0  1  0  0  0  0  0999 V2000
   -1.6862   -3.6175    0.0000 C   0  0  0  0  0  0  0  0  0  0  0  0
   -1.2737   -2.9031    0.0000 C   0  0  0  0  0  0  0  0  0  0  0  0
   -0.4667   -3.0746    0.0000 C   0  0  0  0  0  0  0  0  0  0  0  0
   -0.3805   -3.8951    0.0000 C   0  0  0  0  0  0  0  0  0  0  0  0
    0.3340   -4.3076    0.0000 O   0  0  0  0  0  0  0  0  0  0  0  0
    1.0484   -3.8951    0.0000 C   0  0  0  0  0  0  0  0  0  0  0  0
    1.0484   -3.0701    0.0000 O   0  0  0  0  0  0  0  0  0  0  0  0
    1.7629   -4.3076    0.0000 C   0  0  0  0  0  0  0  0  0  0  0  0
    2.4774   -3.8951    0.0000 C   0  0  0  0  0  0  0  0  0  0  0  0
    3.1918   -4.3076    0.0000 C   0  0  0  0  0  0  0  0  0  0  0  0
    3.9063   -3.8951    0.0000 C   0  0  0  0  0  0  0  0  0  0  0  0
    4.6208   -4.3076    0.0000 C   0  0  0  0  0  0  0  0  0  0  0  0
    5.3353   -3.8951    0.0000 C   0  0  0  0  0  0  0  0  0  0  0  0
    6.0497   -4.3076    0.0000 C   0  0  0  0  0  0  0  0  0  0  0  0
    6.7642   -3.8951    0.0000 C   0  0  0  0  0  0  0  0  0  0  0  0
    7.4787   -4.3076    0.0000 C   0  0  0  0  0  0  0  0  0  0  0  0
    8.1931   -3.8951    0.0000 C   0  0  0  0  0  0  0  0  0  0  0  0
   -1.1342   -4.2306    0.0000 C   0  0  0  0  0  0  0  0  0  0  0  0
   -0.5211   -4.7827    0.0000 C   0  0  0  0  0  0  0  0  0  0  0  0
   -1.3891   -5.0152    0.0000 C   0  0  0  0  0  0  0  0  0  0  0  0
   -2.1961   -5.1868    0.0000 C   0  0  0  0  0  0  0  0  0  0  0  0
   -2.4510   -5.9714    0.0000 C   0  0  0  0  0  0  0  0  0  0  0  0
   -2.7481   -4.5737    0.0000 C   0  0  0  0  0  0  0  0  0  0  0  0
   -3.5551   -4.7452    0.0000 C   0  0  0  0  0  0  0  0  0  0  0  0
   -3.8100   -5.5298    0.0000 C   0  0  0  0  0  0  0  0  0  0  0  0
   -4.6170   -5.7014    0.0000 C   0  0  0  0  0  0  0  0  0  0  0  0
   -5.1690   -5.0883    0.0000 C   0  0  0  0  0  0  0  0  0  0  0  0
   -5.9760   -5.2598    0.0000 O   0  0  0  0  0  0  0  0  0  0  0  0
   -4.9141   -4.3036    0.0000 C   0  0  0  0  0  0  0  0  0  0  0  0
   -4.1071   -4.1321    0.0000 C   0  0  0  0  0  0  0  0  0  0  0  0
   -3.8522   -3.3475    0.0000 C   0  0  0  0  0  0  0  0  0  0  0  0
   -3.0452   -3.1760    0.0000 C   0  0  0  0  0  0  0  0  0  0  0  0
   -2.7903   -2.3913    0.0000 C   0  0  0  0  0  0  0  0  0  0  0  0
   -2.4932   -3.7891    0.0000 C   0  0  0  0  0  0  0  0  0  0  0  0
  1  2  1  6
  1 18  1  0
  2  3  1  0
  4  3  1  0
  4  5  1  6
  5  6  1  0
  6  7  2  0
  6  8  1  0
  8  9  1  0
  9 10  1  0
 10 11  1  0
 11 12  1  0
 12 13  1  0
 13 14  1  0
 14 15  1  0
 15 16  1  0
 16 17  1  0
 18  4  1  0
 18 19  1  6
 18 20  1  0
 21 20  1  0
 21 22  1  6
 23 21  1  6
 23 24  1  0
 23 34  1  0
 24 25  1  1
 24 30  1  0
 25 26  1  0
 26 27  1  0
 27 28  2  0
 27 29  1  0
 29 30  2  0
 30 31  1  0
 32 31  1  0
 32 33  1  1
 34 32  1  1
 34  1  1  0
M  END
>  <DRUGBANK_ID>  (1) 
DB16141

>  <COMMON_NAME>  (1) 
Dimethandrolone Undecanoate

>  <CAS_NUMBER>  (1) 
366472-45-9

>  <UNII>  (1) 
VMT7Z23GLM

$$$$
