BDB
     RDKit          2D

 18 19  0  0  0  0  0  0  0  0999 V2000
    0.0137    2.8924    0.0000 B   0  0  0  0  0  0  0  0  0  0  0  0
   -0.7008    3.3049    0.0000 O   0  0  0  0  0  0  0  0  0  0  0  0
    0.7282    3.3049    0.0000 O   0  0  0  0  0  0  0  0  0  0  0  0
    0.0137    2.0674    0.0000 C   0  0  0  0  0  0  0  0  0  0  0  0
    0.7282    1.6549    0.0000 C   0  0  0  0  0  0  0  0  0  0  0  0
    0.7282    0.8299    0.0000 C   0  0  0  0  0  0  0  0  0  0  0  0
    0.0137    0.4174    0.0000 C   0  0  0  0  0  0  0  0  0  0  0  0
   -0.7008    0.8299    0.0000 C   0  0  0  0  0  0  0  0  0  0  0  0
   -0.7008    1.6549    0.0000 C   0  0  0  0  0  0  0  0  0  0  0  0
    0.0137   -0.4076    0.0000 C   0  0  0  0  0  0  0  0  0  0  0  0
    0.7282   -0.8201    0.0000 C   0  0  0  0  0  0  0  0  0  0  0  0
    0.7282   -1.6451    0.0000 C   0  0  0  0  0  0  0  0  0  0  0  0
    0.0137   -2.0576    0.0000 C   0  0  0  0  0  0  0  0  0  0  0  0
   -0.7008   -1.6451    0.0000 C   0  0  0  0  0  0  0  0  0  0  0  0
   -0.7008   -0.8201    0.0000 C   0  0  0  0  0  0  0  0  0  0  0  0
    0.0137   -2.8826    0.0000 B   0  0  0  0  0  0  0  0  0  0  0  0
    0.7282   -3.2951    0.0000 O   0  0  0  0  0  0  0  0  0  0  0  0
   -0.7008   -3.2951    0.0000 O   0  0  0  0  0  0  0  0  0  0  0  0
  1  2  1  0
  1  3  1  0
  1  4  1  0
  4  5  2  0
  4  9  1  0
  5  6  1  0
  6  7  2  0
  7  8  1  0
  7 10  1  0
  8  9  2  0
 10 11  2  0
 10 15  1  0
 11 12  1  0
 12 13  2  0
 13 14  1  0
 13 16  1  0
 14 15  2  0
 16 17  1  0
 16 18  1  0
M  END
>  <DRUGBANK_ID>  (1) 
DB02627

>  <SECONDARY_ACCESSION_NUMBERS>  (1) 
EXPT00647

>  <COMMON_NAME>  (1) 
4,4'-Biphenyldiboronic Acid

>  <UNII>  (1) 
OS4M710QCG

$$$$
