
     RDKit          2D

 10  9  0  0  1  0  0  0  0  0999 V2000
   26.8621  -12.7411    0.0000 O   0  0  0  0  0  0  0  0  0  0  0  0
   26.1477  -11.5036    0.0000 O   0  0  0  0  0  0  0  0  0  0  0  0
   25.4332  -15.2161    0.0000 O   0  0  0  0  0  0  0  0  0  0  0  0
   24.7187  -12.3286    0.0000 N   0  0  0  0  0  0  0  0  0  0  0  0
   24.0042  -15.2161    0.0000 N   0  0  0  0  0  0  0  0  0  0  0  0
   25.4332  -12.7411    0.0000 C   0  0  0  0  0  0  0  0  0  0  0  0
   25.4332  -13.5661    0.0000 C   0  0  0  0  0  0  0  0  0  0  0  0
   24.7187  -13.9786    0.0000 C   0  0  0  0  0  0  0  0  0  0  0  0
   26.1477  -12.3286    0.0000 C   0  0  0  0  0  0  0  0  0  0  0  0
   24.7187  -14.8036    0.0000 C   0  0  0  0  0  0  0  0  0  0  0  0
  1  9  1  0
  2  9  2  0
  3 10  2  0
  5 10  1  0
  6  4  1  1
  6  7  1  0
  6  9  1  0
  7  8  1  0
  8 10  1  0
M  END
>  <DRUGBANK_ID>  (1) 
DB02174

>  <SECONDARY_ACCESSION_NUMBERS>  (1) 
EXPT01181

>  <COMMON_NAME>  (1) 
D-Glutamine

>  <CAS_NUMBER>  (1) 
5959-95-5

>  <UNII>  (1) 
63HB36CA2Y

>  <SYNONYMS>  (1) 
(2R)-2-amino-4-carbamoylbutanoic acid; (2R)-2,5-diamino-5-oxopentanoic acid; (R)-2,5-diamino-5-oxopentanoic acid; D-2-Aminoglutaramic acid; D-Glutamin; D-Glutamins√§ure-5-amid

$$$$
