
     RDKit          2D

 12 12  0  0  0  0  0  0  0  0999 V2000
   -0.2062    0.0000    0.0000 C   0  0  0  0  0  0  0  0  0  0  0  0
   -0.6187   -0.7144    0.0000 C   0  0  0  0  0  0  0  0  0  0  0  0
   -1.4437   -0.7144    0.0000 C   0  0  0  0  0  0  0  0  0  0  0  0
   -1.8562    0.0000    0.0000 C   0  0  0  0  0  0  0  0  0  0  0  0
   -1.4437    0.7145    0.0000 C   0  0  0  0  0  0  0  0  0  0  0  0
   -0.6187    0.7145    0.0000 C   0  0  0  0  0  0  0  0  0  0  0  0
    0.6187   -0.8250    0.0000 O   0  0  0  0  0  0  0  0  0  0  0  0
    0.6187    0.0000    0.0000 C   0  0  0  0  0  0  0  0  0  0  0  0
    1.4437    0.0000    0.0000 C   0  0  0  0  0  0  0  0  0  0  0  0
    1.8562   -0.7144    0.0000 O   0  0  0  0  0  0  0  0  0  0  0  0
    1.8562    0.7145    0.0000 O   0  0  0  0  0  0  0  0  0  0  0  0
    0.6187    0.8250    0.0000 C   0  0  0  0  0  0  0  0  0  0  0  0
  1  2  2  0
  1  6  1  0
  1  8  1  0
  2  3  1  0
  3  4  2  0
  4  5  1  0
  5  6  2  0
  8  7  1  0
  8  9  1  0
  9 10  1  0
  9 11  2  0
  8 12  1  6
M  END
>  <DRUGBANK_ID>  (1) 
DB07381

>  <SECONDARY_ACCESSION_NUMBERS>  (1) 
DB03954

>  <COMMON_NAME>  (1) 
(S)-atrolactic acid

>  <CAS_NUMBER>  (1) 
13113-71-8

>  <UNII>  (1) 
22Y6G519RU

>  <SYNONYMS>  (1) 
(S)-(+)-Atrolactic acid; (S)-2-Hydroxy-2-phenylpropanoic acid; (S)-2-Phenyllactic acid; (S)-atrolactic acid

$$$$
