
     RDKit          2D

 29 32  0  0  1  0  0  0  0  0999 V2000
   -3.8574    1.7947    0.0000 C   0  0  0  0  0  0  0  0  0  0  0  0
    2.6232    0.6018    0.0000 C   0  0  0  0  0  0  0  0  0  0  0  0
    0.1073    0.1997    0.0000 C   0  0  0  0  0  0  0  0  0  0  0  0
    2.6520    2.7844    0.0000 C   0  0  0  0  0  0  0  0  0  0  0  0
    1.8399    2.6391    0.0000 C   0  0  0  0  0  0  0  0  0  0  0  0
    4.2475    0.8922    0.0000 C   0  0  0  0  0  0  0  0  0  0  0  0
    0.0962    2.2244    0.0000 C   0  0  0  0  0  0  0  0  0  0  0  0
    3.4354    0.7470    0.0000 C   0  0  0  0  0  0  0  0  0  0  0  0
   -0.5867    1.7614    0.0000 C   0  0  0  0  0  0  0  0  0  0  0  0
    3.9960    2.2989    0.0000 C   0  0  0  0  0  0  0  0  0  0  0  0
    0.9990    0.3114    0.0000 C   0  0  0  0  0  0  0  0  0  0  0  0
   -1.7013    1.4544    0.0000 C   0  0  0  0  0  0  0  0  0  0  0  0
   -3.0453    1.9399    0.0000 C   0  0  0  0  0  0  0  0  0  0  0  0
    3.1838    2.1537    0.0000 C   0  0  0  0  0  0  0  0  0  0  0  0
    4.5278    1.6682    0.0000 C   0  0  0  0  0  0  0  0  0  0  0  0
    1.5596    1.8632    0.0000 C   0  0  0  0  0  0  0  0  0  0  0  0
    0.7475    1.7180    0.0000 C   0  0  0  0  0  0  0  0  0  0  0  0
    1.8111    0.4566    0.0000 C   0  0  0  0  0  0  0  0  0  0  0  0
   -1.1695    0.8237    0.0000 C   0  0  0  0  0  0  0  0  0  0  0  0
    2.0914    1.2325    0.0000 C   0  0  0  0  0  0  0  0  0  0  0  0
    2.9035    1.3777    0.0000 C   0  0  0  0  0  0  0  0  0  0  0  0
    0.4672    0.9421    0.0000 C   0  0  0  0  0  0  0  0  0  0  0  0
   -0.3574    0.9689    0.0000 C   0  0  0  0  0  0  0  0  0  0  0  0
   -2.7650    2.7158    0.0000 O   0  0  0  0  0  0  0  0  0  0  0  0
    5.3399    1.8134    0.0000 O   0  0  0  0  0  0  0  0  0  0  0  0
    2.3429   -0.1741    0.0000 O   0  0  0  0  0  0  0  0  0  0  0  0
   -1.4498    0.0477    0.0000 O   0  0  0  0  0  0  0  0  0  0  0  0
   -0.2978    0.1460    0.0000 O   0  0  0  0  0  0  0  0  0  0  0  0
   -2.5134    1.3092    0.0000 O   0  0  0  0  0  0  0  0  0  0  0  0
  5  4  1  0
  8  6  2  0
  9  7  1  0
 13  1  1  0
 14  4  1  0
 14 10  2  0
 15  6  1  0
 15 10  1  0
 16  5  1  6
 17  7  1  1
 17 16  1  0
 18 11  1  0
 18 26  1  1
 19 12  1  0
 20 16  1  0
 20 18  1  1
 21  2  1  1
 21  8  1  0
 21 14  1  0
 21 20  1  0
 22  3  1  1
 22 11  1  0
 22 17  1  0
 23  9  1  0
 23 19  1  0
 23 22  1  0
 23 28  1  6
 24 13  2  0
 25 15  2  0
 27 19  2  0
 29 12  1  0
 29 13  1  0
M  END
>  <DRUGBANK_ID>  (1) 
DB15566

>  <SECONDARY_ACCESSION_NUMBERS>  (1) 
DBSALT000254

>  <COMMON_NAME>  (1) 
Prednisolone acetate

>  <CAS_NUMBER>  (1) 
52-21-1

>  <UNII>  (1) 
8B2807733D

>  <SYNONYMS>  (1) 
Prednisolone acetate

$$$$
