AFB
     RDKit          2D

 20 21  0  0  0  0  0  0  0  0999 V2000
   -2.2885   -0.5103    0.0000 O   0  0  0  0  0  0  0  0  0  0  0  0
   -1.4873   -0.7069    0.0000 C   0  0  0  0  0  0  0  0  0  0  0  0
   -0.8572   -0.1743    0.0000 C   0  0  0  0  0  0  0  0  0  0  0  0
   -1.1754   -1.4707    0.0000 C   0  0  0  0  0  0  0  0  0  0  0  0
   -0.3527   -1.4101    0.0000 C   0  0  0  0  0  0  0  0  0  0  0  0
   -0.1560   -0.6089    0.0000 C   0  0  0  0  0  0  0  0  0  0  0  0
    0.6362   -0.3786    0.0000 C   0  0  0  0  0  0  0  0  0  0  0  0
    0.8329    0.4226    0.0000 C   0  0  0  0  0  0  0  0  0  0  0  0
    1.6251    0.6529    0.0000 C   0  0  0  0  0  0  0  0  0  0  0  0
    2.3033    0.0570    0.0000 C   0  0  0  0  0  0  0  0  0  0  0  0
    3.1279    0.0313    0.0000 C   0  0  0  0  0  0  0  0  0  0  0  0
    3.3582   -0.7610    0.0000 C   0  0  0  0  0  0  0  0  0  0  0  0
    4.1345   -1.0403    0.0000 C   0  0  0  0  0  0  0  0  0  0  0  0
    2.6759   -1.2248    0.0000 O   0  0  0  0  0  0  0  0  0  0  0  0
    2.4229   -2.0914    0.0000 C   0  0  0  0  0  0  0  0  0  0  0  0
    3.0059   -2.6751    0.0000 O   0  0  0  0  0  0  0  0  0  0  0  0
    1.6306   -2.3217    0.0000 C   0  0  0  0  0  0  0  0  0  0  0  0
    1.0351   -1.7508    0.0000 C   0  0  0  0  0  0  0  0  0  0  0  0
    0.2429   -1.9811    0.0000 C   0  0  0  0  0  0  0  0  0  0  0  0
    0.0462   -2.7823    0.0000 O   0  0  0  0  0  0  0  0  0  0  0  0
  2  1  1  1
  2  3  1  0
  2  4  1  0
  6  3  1  1
  5  4  1  6
  5  6  1  0
  5 19  1  0
  6  7  1  0
  7  8  2  0
  8  9  1  0
  9 10  1  0
 10 11  1  0
 11 12  1  0
 12 13  1  6
 12 14  1  0
 14 15  1  0
 15 16  2  0
 15 17  1  0
 17 18  2  0
 18 19  1  0
 19 20  1  1
M  END
>  <DRUGBANK_ID>  (1) 
DB07348

>  <COMMON_NAME>  (1) 
Brefeldin A

>  <CAS_NUMBER>  (1) 
20350-15-6

>  <UNII>  (1) 
XG0D35F9K6

>  <SYNONYMS>  (1) 
(+)-brefeldin A; Ascotoxin; Cyanein; Decumbin; Nectrolide; Synergisidin

$$$$
