
     RDKit          2D

 30 33  0  0  1  0  0  0  0  0999 V2000
    3.8759    3.5926    0.0000 C   0  0  0  0  0  0  0  0  0  0  0  0
    3.0913    3.8475    0.0000 O   0  0  0  0  0  0  0  0  0  0  0  0
    2.4782    3.2955    0.0000 C   0  0  0  0  0  0  0  0  0  0  0  0
    1.6712    3.4670    0.0000 N   0  0  0  0  0  0  0  0  0  0  0  0
    1.2587    2.7525    0.0000 N   0  0  0  0  0  0  0  0  0  0  0  0
    0.4383    2.6663    0.0000 C   0  0  0  0  0  0  0  0  0  0  0  0
    1.8108    2.1394    0.0000 C   0  0  0  0  0  0  0  0  0  0  0  0
    2.5645    2.4750    0.0000 C   0  0  0  0  0  0  0  0  0  0  0  0
    3.2789    2.0625    0.0000 N   0  0  0  0  0  0  0  0  0  0  0  0
    3.2789    1.2375    0.0000 C   0  0  0  0  0  0  0  0  0  0  0  0
    3.9934    0.8250    0.0000 N   0  0  0  0  0  0  0  0  0  0  0  0
    3.9934    0.0000    0.0000 C   0  0  0  0  0  0  0  0  0  0  0  0
    3.2789   -0.4125    0.0000 N   0  0  0  0  0  0  0  0  0  0  0  0
    2.5645    0.0000    0.0000 C   0  0  0  0  0  0  0  0  0  0  0  0
    2.5645    0.8250    0.0000 C   0  0  0  0  0  0  0  0  0  0  0  0
    1.7798    1.0799    0.0000 N   0  0  0  0  0  0  0  0  0  0  0  0
    1.2949    0.4125    0.0000 C   0  0  0  0  0  0  0  0  0  0  0  0
    1.7798   -0.2549    0.0000 N   0  0  0  0  0  0  0  0  0  0  0  0
    1.5249   -1.0396    0.0000 C   0  0  0  0  0  0  0  0  0  0  0  0
    4.7079   -0.4125    0.0000 N   0  0  0  0  0  0  0  0  0  0  0  0
    5.4615   -0.0769    0.0000 C   0  0  0  0  0  0  0  0  0  0  0  0
    6.0136   -0.6900    0.0000 C   0  0  0  0  0  0  0  0  0  0  0  0
    6.8341   -0.6038    0.0000 F   0  0  0  0  0  0  0  0  0  0  0  0
    5.6011   -1.4045    0.0000 C   0  0  0  0  0  0  0  0  0  0  0  0
    4.7941   -1.2330    0.0000 C   0  0  0  0  0  0  0  0  0  0  0  0
    5.9366   -2.1582    0.0000 N   0  0  0  0  0  0  0  0  0  0  0  0
    6.7571   -2.2444    0.0000 C   0  0  0  0  0  0  0  0  0  0  0  0
    7.2420   -1.5770    0.0000 O   0  0  0  0  0  0  0  0  0  0  0  0
    7.0927   -2.9981    0.0000 C   0  0  0  0  0  0  0  0  0  0  0  0
    7.9132   -3.0843    0.0000 C   0  0  0  0  0  0  0  0  0  0  0  0
  1  2  1  0
  2  3  1  0
  3  4  2  0
  3  8  1  0
  4  5  1  0
  5  6  1  0
  5  7  1  0
  7  8  2  0
  8  9  1  0
  9 10  1  0
 10 11  2  0
 10 15  1  0
 11 12  1  0
 12 13  2  0
 12 20  1  0
 13 14  1  0
 14 15  2  0
 14 18  1  0
 15 16  1  0
 16 17  2  0
 17 18  1  0
 18 19  1  0
 20 21  1  0
 20 25  1  0
 22 21  1  0
 22 23  1  1
 22 24  1  0
 24 25  1  0
 24 26  1  6
 26 27  1  0
 27 28  2  0
 27 29  1  0
 29 30  2  0
M  END
>  <DRUGBANK_ID>  (1) 
DB16228

>  <COMMON_NAME>  (1) 
Mavelertinib

>  <CAS_NUMBER>  (1) 
1776112-90-3

>  <UNII>  (1) 
YXX2180047

>  <SYNONYMS>  (1) 
Egfr t790m inhibitor pf-06747775; Mavelertinib

$$$$
