
     RDKit          2D

 20 20  0  0  0  0  0  0  0  0999 V2000
   -1.4436    0.7146    0.0000 C   0  0  0  0  0  0  0  0  0  0  0  0
   -2.2686    0.7146    0.0000 N   0  0  0  0  0  0  0  0  0  0  0  0
   -1.0310    1.4290    0.0000 C   0  0  0  0  0  0  0  0  0  0  0  0
   -1.0311    0.0001    0.0000 N   0  0  0  0  0  0  0  0  0  0  0  0
   -2.6811    0.0002    0.0000 C   0  0  0  0  0  0  0  0  0  0  0  0
   -2.6810    1.4291    0.0000 C   0  0  0  0  0  0  0  0  0  0  0  0
   -0.2060    1.4290    0.0000 C   0  0  0  0  0  0  0  0  0  0  0  0
   -0.2061    0.0000    0.0000 N   0  0  0  0  0  0  0  0  0  0  0  0
   -3.5061    0.0002    0.0000 C   0  0  0  0  0  0  0  0  0  0  0  0
   -3.5060    1.4291    0.0000 C   0  0  0  0  0  0  0  0  0  0  0  0
    0.2063    0.7145    0.0000 C   0  0  0  0  0  0  0  0  0  0  0  0
   -3.9187   -0.7141    0.0000 C   0  0  0  0  0  0  0  0  0  0  0  0
   -3.9186    0.7147    0.0000 O   0  0  0  0  0  0  0  0  0  0  0  0
    1.0313    0.7144    0.0000 N   0  0  0  0  0  0  0  0  0  0  0  0
    1.4438    0.0000    0.0000 N   0  0  0  0  0  0  0  0  0  0  0  0
    2.2688   -0.0001    0.0000 C   0  0  0  0  0  0  0  0  0  0  0  0
    2.6812   -0.7146    0.0000 O   0  0  0  0  0  0  0  0  0  0  0  0
    2.6813    0.7143    0.0000 O   0  0  0  0  0  0  0  0  0  0  0  0
    3.5062   -0.7146    0.0000 C   0  0  0  0  0  0  0  0  0  0  0  0
    3.9187   -1.4291    0.0000 C   0  0  0  0  0  0  0  0  0  0  0  0
  1  2  1  0
  1  3  2  0
  1  4  1  0
  2  5  1  0
  2  6  1  0
  3  7  1  0
  4  8  2  0
  5  9  1  0
  6 10  1  0
  7 11  2  0
  8 11  1  0
  9 12  1  0
  9 13  1  0
 11 14  1  0
 14 15  1  0
 15 16  1  0
 16 17  1  0
 16 18  2  0
 17 19  1  0
 19 20  1  0
M  END
>  <DRUGBANK_ID>  (1) 
DB13452

>  <COMMON_NAME>  (1) 
Cadralazine

>  <CAS_NUMBER>  (1) 
64241-34-5

>  <UNII>  (1) 
8T96I3U713

>  <SYNONYMS>  (1) 
Cadralazina; Cadralazine; Cadralazinum

$$$$
