
     RDKit          2D

 18 18  0  0  0  0  0  0  0  0999 V2000
    0.0000    4.9500    0.0000 C   0  0  0  0  0  0  0  0  0  0  0  0
    1.2375    4.0145    0.0000 C   0  0  0  0  0  0  0  0  0  0  0  0
   -0.8250    3.3000    0.0000 C   0  0  0  0  0  0  0  0  0  0  0  0
    0.0000    4.1250    0.0000 C   0  0  0  0  0  0  0  0  0  0  0  0
    0.8250    3.3000    0.0000 C   0  0  0  0  0  0  0  0  0  0  0  0
    0.7145   -0.4125    0.0000 C   0  0  0  0  0  0  0  0  0  0  0  0
    1.4289    0.0000    0.0000 C   0  0  0  0  0  0  0  0  0  0  0  0
   -0.0000    0.0000    0.0000 C   0  0  0  0  0  0  0  0  0  0  0  0
    1.4289    0.8250    0.0000 C   0  0  0  0  0  0  0  0  0  0  0  0
    0.0000    0.8250    0.0000 C   0  0  0  0  0  0  0  0  0  0  0  0
    0.7145    1.2375    0.0000 C   0  0  0  0  0  0  0  0  0  0  0  0
   -0.7145    1.2375    0.0000 C   0  0  0  0  0  0  0  0  0  0  0  0
    0.7145    2.0625    0.0000 C   0  0  0  0  0  0  0  0  0  0  0  0
    0.0000    3.3000    0.0000 C   0  0  0  0  0  0  0  0  0  0  0  0
   -0.7145    2.0625    0.0000 O   0  0  0  0  0  0  0  0  0  0  0  0
   -1.4289    0.8250    0.0000 O   0  0  0  0  0  0  0  0  0  0  0  0
    1.4289    2.4750    0.0000 O   0  0  0  0  0  0  0  0  0  0  0  0
    0.0000    2.4750    0.0000 O   0  0  0  0  0  0  0  0  0  0  0  0
  4  1  3  0
  5  2  1  0
  7  6  2  0
  8  6  1  0
  9  7  1  0
 10  8  2  0
 11  9  2  0
 11 10  1  0
 12 10  1  0
 13 11  1  0
 14  3  1  0
 14  4  1  0
 14  5  1  0
 15 12  2  0
 16 12  1  0
 17 13  2  0
 18 13  1  0
 18 14  1  0
M  END
>  <DRUGBANK_ID>  (1) 
DB11449

>  <COMMON_NAME>  (1) 
Phthalofyne

>  <CAS_NUMBER>  (1) 
131-67-9

>  <UNII>  (1) 
TA9XO4D05J

>  <SYNONYMS>  (1) 
Ftalofino; Ftalofyne; Ftalofynum; Phthalofyne

$$$$
