
     RDKit          2D

 16 16  0  0  0  0  0  0  0  0999 V2000
   -1.4290    2.4752    0.0000 C   0  0  0  0  0  0  0  0  0  0  0  0
   -1.4290    1.6501    0.0000 O   0  0  0  0  0  0  0  0  0  0  0  0
   -0.7145    1.2376    0.0000 P   0  0  0  0  0  0  0  0  0  0  0  0
   -1.1270    0.5230    0.0000 S   0  0  0  0  0  0  0  0  0  0  0  0
   -0.3019    1.9520    0.0000 O   0  0  0  0  0  0  0  0  0  0  0  0
    0.5230    1.9520    0.0000 C   0  0  0  0  0  0  0  0  0  0  0  0
    0.0000    0.8251    0.0000 O   0  0  0  0  0  0  0  0  0  0  0  0
    0.0000    0.0000    0.0000 C   0  0  0  0  0  0  0  0  0  0  0  0
    0.7145   -0.4125    0.0000 C   0  0  0  0  0  0  0  0  0  0  0  0
    0.7145   -1.2376    0.0000 C   0  0  0  0  0  0  0  0  0  0  0  0
    0.0000   -1.6501    0.0000 C   0  0  0  0  0  0  0  0  0  0  0  0
   -0.7145   -1.2376    0.0000 C   0  0  0  0  0  0  0  0  0  0  0  0
   -0.7145   -0.4125    0.0000 C   0  0  0  0  0  0  0  0  0  0  0  0
   -1.4290    0.0000    0.0000 Cl  0  0  0  0  0  0  0  0  0  0  0  0
    0.0000   -2.4752    0.0000 Cl  0  0  0  0  0  0  0  0  0  0  0  0
    1.4290   -1.6501    0.0000 Cl  0  0  0  0  0  0  0  0  0  0  0  0
  1  2  1  0
  2  3  1  0
  3  4  2  0
  3  5  1  0
  3  7  1  0
  5  6  1  0
  7  8  1  0
  8  9  2  0
  8 13  1  0
  9 10  1  0
 10 11  2  0
 10 16  1  0
 11 12  1  0
 11 15  1  0
 12 13  2  0
 13 14  1  0
M  END
>  <DRUGBANK_ID>  (1) 
DB11456

>  <COMMON_NAME>  (1) 
Ronnel

>  <CAS_NUMBER>  (1) 
299-84-3

>  <UNII>  (1) 
89RAG7SB3B

>  <SYNONYMS>  (1) 
Fenchlorphos; Fenclofos; Fenclofosum; Ronnel

$$$$
