BOS
     RDKit          2D

 20 21  0  0  0  0  0  0  0  0999 V2000
   -0.0372    3.8255    0.0000 N   0  0  0  0  0  0  0  0  0  0  0  0
   -0.0372    3.0005    0.0000 S   0  0  0  0  0  0  0  0  0  0  0  0
   -0.8622    3.0005    0.0000 O   0  0  0  0  0  0  0  0  0  0  0  0
    0.7878    3.0005    0.0000 O   0  0  0  0  0  0  0  0  0  0  0  0
   -0.0372    2.1755    0.0000 C   0  0  0  0  0  0  0  0  0  0  0  0
    0.6772    1.7630    0.0000 C   0  0  0  0  0  0  0  0  0  0  0  0
    0.6772    0.9380    0.0000 C   0  0  0  0  0  0  0  0  0  0  0  0
   -0.0372    0.5255    0.0000 C   0  0  0  0  0  0  0  0  0  0  0  0
   -0.7517    0.9380    0.0000 C   0  0  0  0  0  0  0  0  0  0  0  0
   -0.7517    1.7630    0.0000 C   0  0  0  0  0  0  0  0  0  0  0  0
   -0.0372   -0.2995    0.0000 N   0  0  0  0  0  0  0  0  0  0  0  0
    0.6772   -0.7120    0.0000 C   0  0  0  0  0  0  0  0  0  0  0  0
    1.3917   -0.2995    0.0000 O   0  0  0  0  0  0  0  0  0  0  0  0
    0.6772   -1.5370    0.0000 C   0  0  0  0  0  0  0  0  0  0  0  0
    1.3917   -1.9495    0.0000 C   0  0  0  0  0  0  0  0  0  0  0  0
    1.3917   -2.7745    0.0000 C   0  0  0  0  0  0  0  0  0  0  0  0
    0.6772   -3.1870    0.0000 C   0  0  0  0  0  0  0  0  0  0  0  0
   -0.0372   -2.7745    0.0000 C   0  0  0  0  0  0  0  0  0  0  0  0
   -0.0372   -1.9495    0.0000 C   0  0  0  0  0  0  0  0  0  0  0  0
   -0.7517   -1.5370    0.0000 S   0  0  0  0  0  0  0  0  0  0  0  0
  1  2  1  0
  2  3  2  0
  2  4  2  0
  2  5  1  0
  5  6  2  0
  5 10  1  0
  6  7  1  0
  7  8  2  0
  8  9  1  0
  8 11  1  0
  9 10  2  0
 11 12  1  0
 12 13  2  0
 12 14  1  0
 14 15  2  0
 14 19  1  0
 15 16  1  0
 16 17  2  0
 17 18  1  0
 18 19  2  0
 19 20  1  0
M  END
>  <DRUGBANK_ID>  (1) 
DB07476

>  <COMMON_NAME>  (1) 
N-[4-(AMINOSULFONYL)PHENYL]-2-MERCAPTOBENZAMIDE

$$$$
