
     RDKit          2D

 16 15  0  0  0  0  0  0  0  0999 V2000
    0.0000   -0.8250    0.0000 H   0  0  0  0  0  0  0  0  0  0  0  0
    0.8250   -0.8250    0.0000 C   0  0  0  0  0  0  0  0  0  0  0  0
    0.8250   -1.6500    0.0000 H   0  0  0  0  0  0  0  0  0  0  0  0
    1.6500   -0.8250    0.0000 H   0  0  0  0  0  0  0  0  0  0  0  0
    0.8250    0.0000    0.0000 N   0  0  0  0  0  0  0  0  0  0  0  0
    0.8250    0.8250    0.0000 C   0  0  0  0  0  0  0  0  0  0  0  0
    1.5395    1.2375    0.0000 C   0  0  0  0  0  0  0  0  0  0  0  0
    1.5395    2.0625    0.0000 O   0  0  0  0  0  0  0  0  0  0  0  0
    1.6500   -0.0000    0.0000 C   0  0  0  0  0  0  0  0  0  0  0  0
    2.4122   -0.3157    0.0000 H   0  0  0  0  0  0  0  0  0  0  0  0
    2.2334    0.5834    0.0000 H   0  0  0  0  0  0  0  0  0  0  0  0
    1.3343    0.7622    0.0000 H   0  0  0  0  0  0  0  0  0  0  0  0
    0.0000    0.0000    0.0000 C   0  0  0  0  0  0  0  0  0  0  0  0
    0.3157    0.7622    0.0000 H   0  0  0  0  0  0  0  0  0  0  0  0
   -0.5834    0.5834    0.0000 H   0  0  0  0  0  0  0  0  0  0  0  0
   -0.7622   -0.3157    0.0000 H   0  0  0  0  0  0  0  0  0  0  0  0
  1  2  1  0
  2  3  1  0
  2  4  1  0
  2  5  1  0
  5  6  1  0
  5  9  1  0
  5 13  1  0
  6  7  1  0
  7  8  1  0
  9 10  1  0
  9 11  1  0
  9 12  1  0
 13 14  1  0
 13 15  1  0
 13 16  1  0
M  ISO  8   1   2   3   2   4   2  10   2  11   2  12   2  14   2  15   2
M  CHG  1   5   1
M  ISO  1  16   2
M  END
>  <DRUGBANK_ID>  (1) 
DB12628

>  <COMMON_NAME>  (1) 
Methyl-D9-choline

>  <CAS_NUMBER>  (1) 
50673-41-1

>  <UNII>  (1) 
Y1HDI47S6K

$$$$
