
     RDKit          2D

 35 38  0  0  1  0  0  0  0  0999 V2000
    0.4631    3.3652    0.0000 C   0  0  0  0  0  0  0  0  0  0  0  0
    0.3769    2.5447    0.0000 C   0  0  0  0  0  0  0  0  0  0  0  0
   -0.3768    2.2092    0.0000 O   0  0  0  0  0  0  0  0  0  0  0  0
   -0.4630    1.3887    0.0000 C   0  0  0  0  0  0  0  0  0  0  0  0
   -1.1775    0.9762    0.0000 C   0  0  0  0  0  0  0  0  0  0  0  0
   -1.0060    0.1692    0.0000 C   0  0  0  0  0  0  0  0  0  0  0  0
   -0.1855    0.0830    0.0000 C   0  0  0  0  0  0  0  0  0  0  0  0
    0.1501    0.8366    0.0000 O   0  0  0  0  0  0  0  0  0  0  0  0
    0.2270   -0.6315    0.0000 C   0  0  0  0  0  0  0  0  0  0  0  0
   -0.1855   -1.3460    0.0000 C   0  0  0  0  0  0  0  0  0  0  0  0
   -1.0105   -1.3460    0.0000 O   0  0  0  0  0  0  0  0  0  0  0  0
   -1.4230   -2.0605    0.0000 C   0  0  0  0  0  0  0  0  0  0  0  0
   -1.0105   -2.7749    0.0000 C   0  0  0  0  0  0  0  0  0  0  0  0
   -0.1855   -2.7749    0.0000 C   0  0  0  0  0  0  0  0  0  0  0  0
    0.2270   -3.4894    0.0000 C   0  0  0  0  0  0  0  0  0  0  0  0
   -0.1855   -4.2039    0.0000 C   0  0  0  0  0  0  0  0  0  0  0  0
   -1.0105   -4.2039    0.0000 C   0  0  0  0  0  0  0  0  0  0  0  0
   -1.4230   -3.4894    0.0000 C   0  0  0  0  0  0  0  0  0  0  0  0
    1.0520   -0.6315    0.0000 O   0  0  0  0  0  0  0  0  0  0  0  0
    1.4645   -1.3460    0.0000 C   0  0  0  0  0  0  0  0  0  0  0  0
    2.2895   -1.3460    0.0000 C   0  0  0  0  0  0  0  0  0  0  0  0
    2.7020   -0.6315    0.0000 C   0  0  0  0  0  0  0  0  0  0  0  0
    3.5270   -0.6315    0.0000 C   0  0  0  0  0  0  0  0  0  0  0  0
    3.9395   -1.3460    0.0000 C   0  0  0  0  0  0  0  0  0  0  0  0
    3.5270   -2.0605    0.0000 C   0  0  0  0  0  0  0  0  0  0  0  0
    2.7020   -2.0605    0.0000 C   0  0  0  0  0  0  0  0  0  0  0  0
   -1.5580   -0.4439    0.0000 O   0  0  0  0  0  0  0  0  0  0  0  0
   -2.3650   -0.2724    0.0000 C   0  0  0  0  0  0  0  0  0  0  0  0
   -2.9170   -0.8855    0.0000 C   0  0  0  0  0  0  0  0  0  0  0  0
   -2.6621   -1.6701    0.0000 C   0  0  0  0  0  0  0  0  0  0  0  0
   -3.2141   -2.2832    0.0000 C   0  0  0  0  0  0  0  0  0  0  0  0
   -4.0211   -2.1117    0.0000 C   0  0  0  0  0  0  0  0  0  0  0  0
   -4.2760   -1.3270    0.0000 C   0  0  0  0  0  0  0  0  0  0  0  0
   -3.7240   -0.7139    0.0000 C   0  0  0  0  0  0  0  0  0  0  0  0
   -1.9312    1.3117    0.0000 O   0  0  0  0  0  0  0  0  0  0  0  0
  1  2  1  0
  2  3  1  0
  3  4  1  0
  4  5  1  0
  4  8  1  0
  5  6  1  0
  5 35  1  1
  6  7  1  0
  6 27  1  6
  7  8  1  6
  7  9  1  0
  9 10  1  6
  9 19  1  0
 10 11  1  0
 11 12  1  0
 12 13  1  0
 13 14  2  0
 13 18  1  0
 14 15  1  0
 15 16  2  0
 16 17  1  0
 17 18  2  0
 19 20  1  0
 20 21  1  0
 21 22  2  0
 21 26  1  0
 22 23  1  0
 23 24  2  0
 24 25  1  0
 25 26  2  0
 27 28  1  0
 28 29  1  0
 29 30  2  0
 29 34  1  0
 30 31  1  0
 31 32  2  0
 32 33  1  0
 33 34  2  0
M  END
>  <DRUGBANK_ID>  (1) 
DB13227

>  <COMMON_NAME>  (1) 
Tribenoside

>  <CAS_NUMBER>  (1) 
10310-32-4

>  <UNII>  (1) 
Z7N0Y673NU

>  <SYNONYMS>  (1) 
TBGF; Tribenoside; Tribenosido; Tribenosidum

$$$$
