MHR
     RDKit          2D

 20 22  0  0  0  0  0  0  0  0999 V2000
    1.8017   -1.4868    0.0000 C   0  0  0  0  0  0  0  0  0  0  0  0
    1.8017   -2.3118    0.0000 C   0  0  0  0  0  0  0  0  0  0  0  0
    1.0873   -1.0743    0.0000 C   0  0  0  0  0  0  0  0  0  0  0  0
   -0.6668   -0.4472    0.0000 C   0  0  0  0  0  0  0  0  0  0  0  0
    0.1824    1.5636    0.0000 N   0  0  0  0  0  0  0  0  0  0  0  0
   -0.3697    0.9505    0.0000 C   0  0  0  0  0  0  0  0  0  0  0  0
   -1.1766    1.1220    0.0000 N   0  0  0  0  0  0  0  0  0  0  0  0
   -1.7287    0.5090    0.0000 C   0  0  0  0  0  0  0  0  0  0  0  0
   -1.4737   -0.2757    0.0000 C   0  0  0  0  0  0  0  0  0  0  0  0
   -0.1147    0.1659    0.0000 N   0  0  0  0  0  0  0  0  0  0  0  0
   -0.4118   -1.2318    0.0000 C   0  0  0  0  0  0  0  0  0  0  0  0
   -0.8968   -1.8993    0.0000 C   0  0  0  0  0  0  0  0  0  0  0  0
   -0.4118   -2.5667    0.0000 N   0  0  0  0  0  0  0  0  0  0  0  0
    0.3728   -2.3118    0.0000 C   0  0  0  0  0  0  0  0  0  0  0  0
    1.0873   -2.7243    0.0000 N   0  0  0  0  0  0  0  0  0  0  0  0
    0.3728   -1.4868    0.0000 C   0  0  0  0  0  0  0  0  0  0  0  0
    1.0873   -0.2493    0.0000 O   0  0  0  0  0  0  0  0  0  0  0  0
    0.3728    0.1632    0.0000 C   0  0  0  0  0  0  0  0  0  0  0  0
    0.3728    0.9882    0.0000 C   0  0  0  0  0  0  0  0  0  0  0  0
    1.0873    1.4007    0.0000 C   0  0  0  0  0  0  0  0  0  0  0  0
  1  2  2  0
  1  3  1  0
  2 15  1  0
  3 16  2  0
  3 17  1  0
  4  9  1  0
  4 10  2  0
  4 11  1  0
  5  6  1  0
  6  7  2  0
  6 10  1  0
  7  8  1  0
  8  9  2  0
 11 12  2  0
 11 16  1  0
 12 13  1  0
 13 14  1  0
 14 15  2  0
 14 16  1  0
 17 18  1  0
 18 19  1  0
 19 20  1  0
M  END
>  <DRUGBANK_ID>  (1) 
DB08182

>  <COMMON_NAME>  (1) 
4-(4-propoxy-1H-pyrrolo[2,3-b]pyridin-3-yl)pyrimidin-2-amine

>  <UNII>  (1) 
7A6FRA2U0Z

$$$$
