864
     RDKit          2D

 31 32  0  0  0  0  0  0  0  0999 V2000
    1.6736   -0.1724    0.0000 C   0  0  0  0  0  0  0  0  0  0  0  0
    1.7414    0.6499    0.0000 C   0  0  0  0  0  0  0  0  0  0  0  0
    2.3518   -0.6422    0.0000 C   0  0  0  0  0  0  0  0  0  0  0  0
    2.2839   -1.4644    0.0000 C   0  0  0  0  0  0  0  0  0  0  0  0
    2.9621   -1.9342    0.0000 C   0  0  0  0  0  0  0  0  0  0  0  0
    3.7080   -1.5819    0.0000 C   0  0  0  0  0  0  0  0  0  0  0  0
    3.7759   -0.7596    0.0000 C   0  0  0  0  0  0  0  0  0  0  0  0
    3.0977   -0.2898    0.0000 C   0  0  0  0  0  0  0  0  0  0  0  0
    4.5218   -0.4073    0.0000 C   0  0  0  0  0  0  0  0  0  0  0  0
    5.2000   -0.8771    0.0000 N   0  0  0  0  0  0  0  0  0  0  0  0
    2.4874    1.0022    0.0000 O   0  0  0  0  0  0  0  0  0  0  0  0
    1.0633    1.1197    0.0000 O   0  0  0  0  0  0  0  0  0  0  0  0
    0.9276   -0.5247    0.0000 C   0  0  0  0  0  0  0  0  0  0  0  0
    0.2495   -0.0549    0.0000 P   0  0  0  0  0  0  0  0  0  0  0  0
   -0.4286    0.4149    0.0000 C   0  0  0  0  0  0  0  0  0  0  0  0
   -0.3608    1.2371    0.0000 C   0  0  0  0  0  0  0  0  0  0  0  0
   -1.0390    1.7070    0.0000 C   0  0  0  0  0  0  0  0  0  0  0  0
    0.3851    1.5895    0.0000 C   0  0  0  0  0  0  0  0  0  0  0  0
   -1.1746    0.0626    0.0000 N   0  0  0  0  0  0  0  0  0  0  0  0
   -1.8528    0.5324    0.0000 C   0  0  0  0  0  0  0  0  0  0  0  0
   -1.7849    1.3546    0.0000 O   0  0  0  0  0  0  0  0  0  0  0  0
   -2.5987    0.1800    0.0000 O   0  0  0  0  0  0  0  0  0  0  0  0
   -3.2769    0.6499    0.0000 C   0  0  0  0  0  0  0  0  0  0  0  0
    0.7193    0.6233    0.0000 O   0  0  0  0  0  0  0  0  0  0  0  0
   -0.2203   -0.7330    0.0000 O   0  0  0  0  0  0  0  0  0  0  0  0
   -4.0228    0.2975    0.0000 C   0  0  0  0  0  0  0  0  0  0  0  0
   -4.7010    0.7673    0.0000 C   0  0  0  0  0  0  0  0  0  0  0  0
   -5.4469    0.4149    0.0000 C   0  0  0  0  0  0  0  0  0  0  0  0
   -5.5147   -0.4073    0.0000 C   0  0  0  0  0  0  0  0  0  0  0  0
   -4.8366   -0.8771    0.0000 C   0  0  0  0  0  0  0  0  0  0  0  0
   -4.0906   -0.5247    0.0000 C   0  0  0  0  0  0  0  0  0  0  0  0
  1  3  1  0
  1 13  1  6
  1  2  1  0
  2 12  2  0
  2 11  1  0
  3  8  1  0
  3  4  2  0
  4  5  1  0
  5  6  2  0
  6  7  1  0
  7  9  1  0
  7  8  2  0
  9 10  1  0
 14 13  1  0
 14 24  2  0
 14 15  1  0
 14 25  1  0
 15 16  1  0
 15 19  1  1
 16 17  1  0
 16 18  1  0
 19 20  1  0
 20 21  2  0
 20 22  1  0
 22 23  1  0
 23 26  1  0
 26 31  1  0
 26 27  2  0
 27 28  1  0
 28 29  2  0
 29 30  1  0
 30 31  2  0
M  END
>  <DRUGBANK_ID>  (1) 
DB07269

>  <COMMON_NAME>  (1) 
(2S)-2-[3-(AMINOMETHYL)PHENYL]-3-[(R)-[(1R)-1-{[(BENZYLOXY)CARBONYL]AMINO}-2-METHYLPROPYL](HYDROXY)PHOSPHORYL]PROPANOIC ACID

$$$$
