
     RDKit          2D

 22 24  0  0  1  0  0  0  0  0999 V2000
   -0.1013    3.6619    0.0000 C   0  0  0  0  0  0  0  0  0  0  0  0
   -0.4542    4.4076    0.0000 N   0  0  0  0  0  0  0  0  0  0  0  0
   -0.1914    5.3262    0.0000 C   0  0  0  0  0  0  0  0  0  0  0  0
   -1.0072    5.2032    0.0000 C   0  0  0  0  0  0  0  0  0  0  0  0
   -1.4197    4.4887    0.0000 C   0  0  0  0  0  0  0  0  0  0  0  0
   -1.1183    3.7208    0.0000 C   0  0  0  0  0  0  0  0  0  0  0  0
   -0.3299    3.4776    0.0000 C   0  0  0  0  0  0  0  0  0  0  0  0
    0.3517    3.9423    0.0000 C   0  0  0  0  0  0  0  0  0  0  0  0
    0.4134    4.7650    0.0000 C   0  0  0  0  0  0  0  0  0  0  0  0
    1.0662    3.5298    0.0000 O   0  0  0  0  0  0  0  0  0  0  0  0
    1.0662    2.7048    0.0000 C   0  0  0  0  0  0  0  0  0  0  0  0
    0.3517    2.2923    0.0000 O   0  0  0  0  0  0  0  0  0  0  0  0
    1.7807    2.2923    0.0000 C   0  0  0  0  0  0  0  0  0  0  0  0
    2.4951    2.7048    0.0000 C   0  0  0  0  0  0  0  0  0  0  0  0
    3.2096    2.2923    0.0000 O   0  0  0  0  0  0  0  0  0  0  0  0
    1.7807    1.4673    0.0000 C   0  0  0  0  0  0  0  0  0  0  0  0
    2.4951    1.0548    0.0000 C   0  0  0  0  0  0  0  0  0  0  0  0
    2.4951    0.2298    0.0000 C   0  0  0  0  0  0  0  0  0  0  0  0
    1.7807   -0.1827    0.0000 C   0  0  0  0  0  0  0  0  0  0  0  0
    1.0662    0.2298    0.0000 C   0  0  0  0  0  0  0  0  0  0  0  0
    1.0662    1.0548    0.0000 C   0  0  0  0  0  0  0  0  0  0  0  0
    0.3681    4.4749    0.0000 C   0  0  0  0  0  0  0  0  0  0  0  0
  1  2  1  0
  2  3  1  0
  2  6  1  0
  2 22  1  0
  3  4  1  6
  3  9  1  0
  4  5  1  0
  6  5  1  6
  6  7  1  0
  7  8  1  0
  8  9  1  0
  8 10  1  6
 10 11  1  0
 11 12  2  0
 11 13  1  0
 13 14  1  0
 13 16  1  0
 14 15  1  0
 16 17  2  0
 16 21  1  0
 17 18  1  0
 18 19  2  0
 19 20  1  0
 20 21  2  0
M  CHG  1   2   1
M  END
>  <DRUGBANK_ID>  (1) 
DB13833

>  <COMMON_NAME>  (1) 
Methylatropine

>  <CAS_NUMBER>  (1) 
31610-87-4

>  <UNII>  (1) 
80719I460H

>  <SYNONYMS>  (1) 
Methylatropinium

$$$$
