
     RDKit          2D

 36 39  0  0  1  0  0  0  0  0999 V2000
    0.1067    2.4134    0.0000 C   0  0  0  0  0  0  0  0  0  0  0  0
   -0.6078    2.0009    0.0000 N   0  0  0  0  0  0  0  0  0  0  0  0
   -1.3222    2.4134    0.0000 C   0  0  0  0  0  0  0  0  0  0  0  0
   -0.6078    1.1759    0.0000 C   0  0  0  0  0  0  0  0  0  0  0  0
    0.1067    0.7634    0.0000 O   0  0  0  0  0  0  0  0  0  0  0  0
   -1.3222    0.7634    0.0000 C   0  0  0  0  0  0  0  0  0  0  0  0
   -1.3222   -0.0616    0.0000 C   0  0  0  0  0  0  0  0  0  0  0  0
   -2.0367   -0.4741    0.0000 C   0  0  0  0  0  0  0  0  0  0  0  0
   -2.0367   -1.2991    0.0000 N   0  0  0  0  0  0  0  0  0  0  0  0
   -2.7512   -1.7116    0.0000 C   0  0  0  0  0  0  0  0  0  0  0  0
   -3.4656   -1.2991    0.0000 O   0  0  0  0  0  0  0  0  0  0  0  0
   -2.7512   -2.5366    0.0000 C   0  0  0  0  0  0  0  0  0  0  0  0
   -2.0837   -3.0215    0.0000 C   0  0  0  0  0  0  0  0  0  0  0  0
   -2.3387   -3.8062    0.0000 C   0  0  0  0  0  0  0  0  0  0  0  0
   -3.1637   -3.8062    0.0000 C   0  0  0  0  0  0  0  0  0  0  0  0
   -3.6486   -4.4736    0.0000 O   0  0  0  0  0  0  0  0  0  0  0  0
   -3.4186   -3.0215    0.0000 N   0  0  0  0  0  0  0  0  0  0  0  0
   -4.2032   -2.7666    0.0000 C   0  0  0  0  0  0  0  0  0  0  0  0
   -4.8163   -3.3186    0.0000 C   0  0  0  0  0  0  0  0  0  0  0  0
   -5.6010   -3.0637    0.0000 C   0  0  0  0  0  0  0  0  0  0  0  0
   -5.7725   -2.2567    0.0000 N   0  0  0  0  0  0  0  0  0  0  0  0
   -6.5571   -2.0018    0.0000 C   0  0  0  0  0  0  0  0  0  0  0  0
   -7.1702   -2.5538    0.0000 C   0  0  0  0  0  0  0  0  0  0  0  0
   -6.9987   -3.3608    0.0000 C   0  0  0  0  0  0  0  0  0  0  0  0
   -7.6118   -3.9128    0.0000 C   0  0  0  0  0  0  0  0  0  0  0  0
   -8.3964   -3.6579    0.0000 C   0  0  0  0  0  0  0  0  0  0  0  0
   -9.0095   -4.2099    0.0000 Cl  0  0  0  0  0  0  0  0  0  0  0  0
   -8.5679   -2.8509    0.0000 C   0  0  0  0  0  0  0  0  0  0  0  0
   -9.3525   -2.5960    0.0000 C   0  0  0  0  0  0  0  0  0  0  0  0
   -7.9548   -2.2989    0.0000 C   0  0  0  0  0  0  0  0  0  0  0  0
   -5.1594   -1.7047    0.0000 C   0  0  0  0  0  0  0  0  0  0  0  0
   -4.3748   -1.9596    0.0000 C   0  0  0  0  0  0  0  0  0  0  0  0
   -2.7512   -0.0616    0.0000 N   0  0  0  0  0  0  0  0  0  0  0  0
   -2.7512    0.7634    0.0000 C   0  0  0  0  0  0  0  0  0  0  0  0
   -3.4656    1.1759    0.0000 C   0  0  0  0  0  0  0  0  0  0  0  0
   -2.0367    1.1759    0.0000 C   0  0  0  0  0  0  0  0  0  0  0  0
  1  2  1  0
  2  3  1  0
  2  4  1  0
  4  5  2  0
  4  6  1  0
  6  7  2  0
  6 36  1  0
  7  8  1  0
  8  9  1  0
  8 33  2  0
  9 10  1  0
 10 11  2  0
 12 10  1  1
 12 13  1  0
 12 17  1  0
 13 14  1  0
 14 15  1  0
 15 16  2  0
 15 17  1  0
 17 18  1  0
 18 19  1  0
 18 32  1  0
 19 20  1  0
 20 21  1  0
 21 22  1  0
 21 31  1  0
 22 23  1  0
 23 24  2  0
 23 30  1  0
 24 25  1  0
 25 26  2  0
 26 27  1  0
 26 28  1  0
 28 29  1  0
 28 30  2  0
 31 32  1  0
 33 34  1  0
 34 35  1  0
 34 36  2  0
M  END
>  <DRUGBANK_ID>  (1) 
DB15269

>  <COMMON_NAME>  (1) 
ALK-4290

>  <CAS_NUMBER>  (1) 
1251528-23-0

>  <UNII>  (1) 
R0T9LLR4TN

$$$$
