
     RDKit          2D

 15 14  0  0  0  0  0  0  0  0999 V2000
   -1.0612   -0.2729    0.0000 C   0  0  0  0  0  0  0  0  0  0  0  0
   -1.7834    0.1198    0.0000 C   0  0  0  0  0  0  0  0  0  0  0  0
   -0.3579    0.1582    0.0000 C   0  0  0  0  0  0  0  0  0  0  0  0
   -1.0466   -1.0250    0.0000 O   0  0  0  0  0  0  0  0  0  0  0  0
   -2.5122    0.5158    0.0000 C   0  0  0  0  0  0  0  0  0  0  0  0
   -2.1863   -0.6024    0.0000 C   0  0  0  0  0  0  0  0  0  0  0  0
   -1.3941    0.8419    0.0000 C   0  0  0  0  0  0  0  0  0  0  0  0
    0.3642   -0.2446    0.0000 N   0  0  0  0  0  0  0  0  0  0  0  0
   -0.3663    0.9891    0.0000 O   0  0  0  0  0  0  0  0  0  0  0  0
   -3.2087    0.0812    0.0000 O   0  0  0  0  0  0  0  0  0  0  0  0
    1.0609    0.1796    0.0000 C   0  0  0  0  0  0  0  0  0  0  0  0
    1.7831   -0.2198    0.0000 C   0  0  0  0  0  0  0  0  0  0  0  0
    2.4866    0.1942    0.0000 C   0  0  0  0  0  0  0  0  0  0  0  0
    3.2087   -0.2052    0.0000 O   0  0  0  0  0  0  0  0  0  0  0  0
    2.4782    1.0250    0.0000 O   0  0  0  0  0  0  0  0  0  0  0  0
  1  2  1  0
  1  3  1  0
  1  4  1  6
  2  5  1  0
  2  6  1  0
  2  7  1  0
  3  8  1  0
  3  9  2  0
  5 10  1  0
  8 11  1  0
 11 12  1  0
 12 13  1  0
 13 14  1  0
 13 15  2  0
M  END
>  <DRUGBANK_ID>  (1) 
DB01783

>  <SECONDARY_ACCESSION_NUMBERS>  (1) 
EXPT02501

>  <COMMON_NAME>  (1) 
Pantothenic acid

>  <CAS_NUMBER>  (1) 
79-83-4

>  <UNII>  (1) 
19F5HK2737

>  <SYNONYMS>  (1) 
(+)-Pantothenic acid; D-pantothenic acid; Pantothenate; Vitamin B5

$$$$
