
     RDKit          2D

 12 12  0  0  0  0  0  0  0  0999 V2000
    0.7145   -0.4125    0.0000 C   0  0  0  0  0  0  0  0  0  0  0  0
    0.0000   -0.8250    0.0000 C   0  0  0  0  0  0  0  0  0  0  0  0
    0.7145    0.4125    0.0000 C   0  0  0  0  0  0  0  0  0  0  0  0
   -0.7145   -0.4125    0.0000 C   0  0  0  0  0  0  0  0  0  0  0  0
    0.0000    0.8250    0.0000 C   0  0  0  0  0  0  0  0  0  0  0  0
   -0.7145    0.4125    0.0000 C   0  0  0  0  0  0  0  0  0  0  0  0
    1.4289    0.8250    0.0000 O   0  0  0  0  0  0  0  0  0  0  0  0
    1.4289   -0.8250    0.0000 O   0  0  0  0  0  0  0  0  0  0  0  0
    0.0000   -1.6500    0.0000 O   0  0  0  0  0  0  0  0  0  0  0  0
   -1.4289   -0.8250    0.0000 O   0  0  0  0  0  0  0  0  0  0  0  0
   -1.4289    0.8250    0.0000 O   0  0  0  0  0  0  0  0  0  0  0  0
    0.0000    1.6500    0.0000 O   0  0  0  0  0  0  0  0  0  0  0  0
  1  8  1  1
  2  1  1  0
  2  9  1  6
  3  1  1  0
  3  7  1  6
  4  2  1  0
  4 10  1  1
  5  3  1  0
  5 12  1  1
  6  4  1  0
  6  5  1  0
  6 11  1  6
M  END
>  <DRUGBANK_ID>  (1) 
DB03106

>  <SECONDARY_ACCESSION_NUMBERS>  (1) 
EXPT01892; DB05987; DB11931

>  <COMMON_NAME>  (1) 
scyllo-inositol

>  <CAS_NUMBER>  (1) 
488-59-5

>  <UNII>  (1) 
1VS4X81277

>  <SYNONYMS>  (1) 
1,3,5/2,4,6-cyclohexanehexol; Cocositol; Quercinitol; Scyllitol

$$$$
