JNK
     RDKit          2D

 31 34  0  0  0  0  0  0  0  0999 V2000
   -1.4971    1.3510    0.0000 C   0  0  0  0  0  0  0  0  0  0  0  0
   -1.4971    0.5260    0.0000 C   0  0  0  0  0  0  0  0  0  0  0  0
   -2.2116    1.7635    0.0000 C   0  0  0  0  0  0  0  0  0  0  0  0
   -0.7826    1.7635    0.0000 C   0  0  0  0  0  0  0  0  0  0  0  0
   -0.7826    0.1135    0.0000 C   0  0  0  0  0  0  0  0  0  0  0  0
   -2.2116    0.1135    0.0000 C   0  0  0  0  0  0  0  0  0  0  0  0
   -2.2116    2.5885    0.0000 C   0  0  0  0  0  0  0  0  0  0  0  0
   -0.7826    2.5885    0.0000 C   0  0  0  0  0  0  0  0  0  0  0  0
   -0.7826   -0.7115    0.0000 C   0  0  0  0  0  0  0  0  0  0  0  0
   -2.2116   -0.7115    0.0000 C   0  0  0  0  0  0  0  0  0  0  0  0
   -2.9260    3.0010    0.0000 N   0  0  0  0  0  0  0  0  0  0  0  0
   -1.4971    3.0010    0.0000 N   0  0  0  0  0  0  0  0  0  0  0  0
   -0.0681   -1.1240    0.0000 N   0  0  0  0  0  0  0  0  0  0  0  0
   -1.4971   -1.1240    0.0000 N   0  0  0  0  0  0  0  0  0  0  0  0
   -2.9260    3.8260    0.0000 C   0  0  0  0  0  0  0  0  0  0  0  0
   -0.0681   -1.9490    0.0000 C   0  0  0  0  0  0  0  0  0  0  0  0
   -3.6405    4.2385    0.0000 C   0  0  0  0  0  0  0  0  0  0  0  0
   -2.2116    4.2385    0.0000 C   0  0  0  0  0  0  0  0  0  0  0  0
    0.6463   -2.3615    0.0000 C   0  0  0  0  0  0  0  0  0  0  0  0
   -0.7826   -2.3615    0.0000 O   0  0  0  0  0  0  0  0  0  0  0  0
   -3.6405    5.0635    0.0000 C   0  0  0  0  0  0  0  0  0  0  0  0
   -2.2116    5.0635    0.0000 C   0  0  0  0  0  0  0  0  0  0  0  0
    1.3608   -1.9490    0.0000 C   0  0  0  0  0  0  0  0  0  0  0  0
    0.6463   -3.1865    0.0000 C   0  0  0  0  0  0  0  0  0  0  0  0
   -2.9260    5.4760    0.0000 C   0  0  0  0  0  0  0  0  0  0  0  0
    2.0753   -2.3615    0.0000 C   0  0  0  0  0  0  0  0  0  0  0  0
    1.3608   -3.5990    0.0000 C   0  0  0  0  0  0  0  0  0  0  0  0
    2.0753   -3.1865    0.0000 C   0  0  0  0  0  0  0  0  0  0  0  0
    2.7897   -3.5990    0.0000 O   0  0  0  0  0  0  0  0  0  0  0  0
    2.7897   -4.4240    0.0000 C   0  0  0  0  0  0  0  0  0  0  0  0
   -2.9260    6.3010    0.0000 F   0  0  0  0  0  0  0  0  0  0  0  0
  1  2  1  0
  1  3  2  0
  1  4  1  0
  2  5  2  0
  2  6  1  0
  3  7  1  0
  4  8  2  0
  5  9  1  0
  6 10  2  0
  7 11  1  0
  7 12  2  0
  8 12  1  0
  9 13  1  0
  9 14  2  0
 10 14  1  0
 11 15  1  0
 13 16  1  0
 15 17  2  0
 15 18  1  0
 16 20  2  0
 17 21  1  0
 18 22  2  0
 19 16  1  1
 19 23  1  0
 19 24  1  0
 21 25  2  0
 22 25  1  0
 23 26  1  0
 24 27  1  0
 25 31  1  0
 26 28  1  0
 27 28  1  0
 28 29  1  6
 29 30  1  0
M  END
>  <DRUGBANK_ID>  (1) 
DB08025

>  <COMMON_NAME>  (1) 
N-{2'-[(4-FLUOROPHENYL)AMINO]-4,4'-BIPYRIDIN-2-YL}-4-METHOXYCYCLOHEXANECARBOXAMIDE

$$$$
