
     RDKit          2D

 22 25  0  0  0  0  0  0  0  0999 V2000
   -2.2508    1.9252    0.0000 N   0  0  0  0  0  0  0  0  0  0  0  0
   -2.2508    1.1003    0.0000 C   0  0  0  0  0  0  0  0  0  0  0  0
   -0.8216    1.9252    0.0000 C   0  0  0  0  0  0  0  0  0  0  0  0
   -0.8216    1.1003    0.0000 C   0  0  0  0  0  0  0  0  0  0  0  0
   -1.5362    2.3377    0.0000 C   0  0  0  0  0  0  0  0  0  0  0  0
   -1.5362    0.6877    0.0000 N   0  0  0  0  0  0  0  0  0  0  0  0
    0.2177    0.0606    0.0000 C   0  0  0  0  0  0  0  0  0  0  0  0
   -0.2671   -0.6067    0.0000 O   0  0  0  0  0  0  0  0  0  0  0  0
    0.2177   -1.2741    0.0000 C   0  0  0  0  0  0  0  0  0  0  0  0
    1.0023   -1.0192    0.0000 C   0  0  0  0  0  0  0  0  0  0  0  0
    1.0023   -0.1942    0.0000 C   0  0  0  0  0  0  0  0  0  0  0  0
    1.6698    0.2905    0.0000 O   0  0  0  0  0  0  0  0  0  0  0  0
    1.6153   -1.5710    0.0000 O   0  0  0  0  0  0  0  0  0  0  0  0
    0.0462   -2.0811    0.0000 C   0  0  0  0  0  0  0  0  0  0  0  0
    0.6592   -2.6331    0.0000 O   0  0  0  0  0  0  0  0  0  0  0  0
    2.2508   -2.5498    0.0000 O   0  0  0  0  0  0  0  0  0  0  0  0
    1.4439   -2.3783    0.0000 P   0  0  0  0  0  0  0  0  0  0  0  0
    1.6989   -3.1627    0.0000 S   0  0  0  0  0  0  0  0  0  0  0  0
   -0.0372    0.8455    0.0000 N   0  0  0  0  0  0  0  0  0  0  0  0
    0.4478    1.5127    0.0000 C   0  0  0  0  0  0  0  0  0  0  0  0
   -0.0372    2.1801    0.0000 N   0  0  0  0  0  0  0  0  0  0  0  0
   -1.5362    3.1627    0.0000 N   0  0  0  0  0  0  0  0  0  0  0  0
  1  2  2  0
  3 21  1  0
  3  4  1  0
  3  5  2  0
  4 19  1  0
  4  6  2  0
  5  1  1  0
  6  2  1  0
  7 19  1  1
  7 11  1  0
  8  7  1  0
  9  8  1  0
  9 14  1  1
  9 10  1  0
 10 13  1  6
 10 11  1  0
 11 12  1  6
 13 17  1  0
 15 14  1  0
 17 15  1  0
 17 16  2  0
 17 18  1  0
 20 19  1  0
 21 20  2  0
 22  5  1  0
M  END
>  <DRUGBANK_ID>  (1) 
DB01790

>  <SECONDARY_ACCESSION_NUMBERS>  (1) 
EXPT02808; EXPT02940

>  <COMMON_NAME>  (1) 
(Rp)-cAMPS

>  <SYNONYMS>  (1) 
(Rp)-adenosine-3',5'-cyclic monophosphorothioate; adenosine-3',5'-cyclic monophosphorothioate, Rp-isomer; Rp-cAMPS

$$$$
