
     RDKit          2D

 13 12  0  0  0  0  0  0  0  0999 V2000
    1.0717    0.2062    0.0000 C   0  0  0  0  0  0  0  0  0  0  0  0
    1.7861   -0.2062    0.0000 C   0  0  0  0  0  0  0  0  0  0  0  0
    2.5006    0.2062    0.0000 C   0  0  0  0  0  0  0  0  0  0  0  0
    0.3572   -0.2062    0.0000 C   0  0  0  0  0  0  0  0  0  0  0  0
   -0.3572    0.2062    0.0000 C   0  0  0  0  0  0  0  0  0  0  0  0
   -1.0716   -0.2062    0.0000 N   0  0  0  0  0  0  0  0  0  0  0  0
   -1.7861    0.2062    0.0000 C   0  0  0  0  0  0  0  0  0  0  0  0
   -2.5006   -0.2062    0.0000 N   0  0  0  0  0  0  0  0  0  0  0  0
    3.2151   -0.2062    0.0000 O   0  0  0  0  0  0  0  0  0  0  0  0
    1.7861   -1.0312    0.0000 N   0  0  0  0  0  0  0  0  0  0  0  0
    2.5006    1.0312    0.0000 O   0  0  0  0  0  0  0  0  0  0  0  0
   -1.7861    1.0312    0.0000 N   0  0  0  0  0  0  0  0  0  0  0  0
   -3.2151    0.2062    0.0000 O   0  0  0  0  0  0  0  0  0  0  0  0
  1  4  1  0
  2  1  1  0
  2 10  1  1
  2  3  1  0
  3 11  2  0
  3  9  1  0
  4  5  1  0
  5  6  1  0
  6  7  1  0
  7 12  2  0
  7  8  1  0
  8 13  1  0
M  END
>  <DRUGBANK_ID>  (1) 
DB03144

>  <SECONDARY_ACCESSION_NUMBERS>  (1) 
EXPT01692

>  <COMMON_NAME>  (1) 
N(5)-[(hydroxyamino)(imino)methyl]-L-ornithine

>  <UNII>  (1) 
J2FGL272NZ

>  <SYNONYMS>  (1) 
N-omega-hydroxy-L-arginine

$$$$
