CAT
     RDKit          2D

 16 15  0  0  0  0  0  0  0  0999 V2000
    2.7877   -0.2976    0.0000 C   0  0  0  0  0  0  0  0  0  0  0  0
    2.0732    0.1149    0.0000 C   0  0  0  0  0  0  0  0  0  0  0  0
    1.3587   -0.2976    0.0000 C   0  0  0  0  0  0  0  0  0  0  0  0
    0.6441    0.1149    0.0000 C   0  0  0  0  0  0  0  0  0  0  0  0
   -0.0704   -0.2976    0.0000 C   0  0  0  0  0  0  0  0  0  0  0  0
   -0.7850    0.1149    0.0000 C   0  0  0  0  0  0  0  0  0  0  0  0
   -1.4994   -0.2976    0.0000 C   0  0  0  0  0  0  0  0  0  0  0  0
   -2.2140    0.1149    0.0000 C   0  0  0  0  0  0  0  0  0  0  0  0
   -2.9285   -0.2976    0.0000 C   0  0  0  0  0  0  0  0  0  0  0  0
   -3.6430    0.1149    0.0000 C   0  0  0  0  0  0  0  0  0  0  0  0
   -4.3575   -0.2976    0.0000 C   0  0  0  0  0  0  0  0  0  0  0  0
   -5.0721    0.1149    0.0000 C   0  0  0  0  0  0  0  0  0  0  0  0
    4.2167    0.5274    0.0000 C   0  0  0  0  0  0  0  0  0  0  0  0
    3.9148   -0.5996    0.0000 C   0  0  0  0  0  0  0  0  0  0  0  0
    3.0897    0.8294    0.0000 C   0  0  0  0  0  0  0  0  0  0  0  0
    3.5023    0.1149    0.0000 N   0  0  0  0  0  0  0  0  0  0  0  0
  1  2  1  0
  1 16  1  0
  2  3  1  0
  3  4  1  0
  4  5  1  0
  5  6  1  0
  6  7  1  0
  7  8  1  0
  8  9  1  0
  9 10  1  0
 10 11  1  0
 11 12  1  0
 13 16  1  0
 14 16  1  0
 15 16  1  0
M  CHG  1  16   1
M  END
>  <DRUGBANK_ID>  (1) 
DB02779

>  <SECONDARY_ACCESSION_NUMBERS>  (1) 
EXPT00833

>  <COMMON_NAME>  (1) 
Dodecyltrimethylammonium

>  <CAS_NUMBER>  (1) 
10182-91-9

>  <UNII>  (1) 
GT3793XV5S

>  <SYNONYMS>  (1) 
Dodecane-trimethylamine; Dodecyl-trimethyl-azanium; Dodecyltrimethylammonium ion; laurtrimonium; laurtrimonium cation; laurtrimonium ion; n-Dodecyltrimethylammonium; N,N,N-Trimethyl-1-dodecanaminium

$$$$
