
     RDKit          2D

 18 19  0  0  0  0  0  0  0  0999 V2000
    3.5008   -1.0712    0.0000 C   0  0  0  0  0  0  0  0  0  0  0  0
    2.6746   -1.0712    0.0000 O   0  0  0  0  0  0  0  0  0  0  0  0
    2.2685   -0.3570    0.0000 C   0  0  0  0  0  0  0  0  0  0  0  0
    2.6746    0.3570    0.0000 C   0  0  0  0  0  0  0  0  0  0  0  0
    2.2685    1.0712    0.0000 C   0  0  0  0  0  0  0  0  0  0  0  0
    1.4423    1.0712    0.0000 C   0  0  0  0  0  0  0  0  0  0  0  0
    1.0292    0.3570    0.0000 C   0  0  0  0  0  0  0  0  0  0  0  0
    0.2030    0.3570    0.0000 C   0  0  0  0  0  0  0  0  0  0  0  0
   -0.2030   -0.3570    0.0000 N   0  0  0  0  0  0  0  0  0  0  0  0
   -1.0292   -0.3570    0.0000 C   0  0  0  0  0  0  0  0  0  0  0  0
   -1.4424    0.3570    0.0000 C   0  0  0  0  0  0  0  0  0  0  0  0
   -2.2685    0.3570    0.0000 C   0  0  0  0  0  0  0  0  0  0  0  0
   -2.6746   -0.3570    0.0000 C   0  0  0  0  0  0  0  0  0  0  0  0
   -3.5008   -0.3570    0.0000 C   0  0  0  0  0  0  0  0  0  0  0  0
   -2.2685   -1.0712    0.0000 C   0  0  0  0  0  0  0  0  0  0  0  0
   -1.4424   -1.0712    0.0000 C   0  0  0  0  0  0  0  0  0  0  0  0
    1.4423   -0.3570    0.0000 C   0  0  0  0  0  0  0  0  0  0  0  0
    1.0292   -1.0712    0.0000 O   0  0  0  0  0  0  0  0  0  0  0  0
  1  2  1  0
  2  3  1  0
  3  4  2  0
  3 17  1  0
  4  5  1  0
  5  6  2  0
  6  7  1  0
  7  8  1  0
  7 17  2  0
  8  9  2  0
  9 10  1  0
 10 11  2  0
 10 16  1  0
 11 12  1  0
 12 13  2  0
 13 14  1  0
 13 15  1  0
 15 16  2  0
 17 18  1  0
M  END
>  <DRUGBANK_ID>  (1) 
DB13869

>  <COMMON_NAME>  (1) 
2-Methoxy-6-{(E)-[(4-methylphenyl)imino]methyl}phenol

>  <CAS_NUMBER>  (1) 
20772-64-9

>  <SYNONYMS>  (1) 
2-Methoxy-6-[[(4-methylphenyl)imino]methyl]phenol; TIMBD

$$$$
