
     RDKit          2D

 16 16  0  0  0  0  0  0  0  0999 V2000
    1.4289    0.2062    0.0000 O   0  0  0  0  0  0  0  0  0  0  0  0
    0.7145   -1.0312    0.0000 O   0  0  0  0  0  0  0  0  0  0  0  0
    1.4289    1.0312    0.0000 O   0  0  0  0  0  0  0  0  0  0  0  0
    1.4289    2.6813    0.0000 O   0  0  0  0  0  0  0  0  0  0  0  0
    0.0000    1.0312    0.0000 N   0  0  0  0  0  0  0  0  0  0  0  0
    0.7145    2.2687    0.0000 N   0  0  0  0  0  0  0  0  0  0  0  0
    0.0000    0.2062    0.0000 C   0  0  0  0  0  0  0  0  0  0  0  0
   -0.7145   -0.2062    0.0000 C   0  0  0  0  0  0  0  0  0  0  0  0
   -0.7145   -1.0312    0.0000 C   0  0  0  0  0  0  0  0  0  0  0  0
    0.7145   -0.2062    0.0000 C   0  0  0  0  0  0  0  0  0  0  0  0
    0.0000   -1.4437    0.0000 C   0  0  0  0  0  0  0  0  0  0  0  0
   -1.4289   -1.4437    0.0000 C   0  0  0  0  0  0  0  0  0  0  0  0
    0.0000   -2.2687    0.0000 C   0  0  0  0  0  0  0  0  0  0  0  0
   -1.4289   -2.2687    0.0000 C   0  0  0  0  0  0  0  0  0  0  0  0
    0.7145    1.4437    0.0000 C   0  0  0  0  0  0  0  0  0  0  0  0
   -0.7145   -2.6813    0.0000 C   0  0  0  0  0  0  0  0  0  0  0  0
  1 10  1  0
  2 10  2  0
  3 15  2  0
  4  6  1  0
  5 15  1  0
  6 15  1  0
  7  5  1  0
  7  8  1  6
  7 10  1  0
  8  9  1  0
  9 11  2  0
  9 12  1  0
 11 13  1  0
 12 14  2  0
 13 16  2  0
 14 16  1  0
M  END
>  <DRUGBANK_ID>  (1) 
DB02652

>  <SECONDARY_ACCESSION_NUMBERS>  (1) 
EXPT02026

>  <COMMON_NAME>  (1) 
L-[(N-Hydroxyamino)Carbonyl]Phenylalanine

$$$$
