
     RDKit          2D

 15 14  0  0  1  0  0  0  0  0999 V2000
    8.3013    1.0164    0.0000 C   0  0  0  0  0  0  0  0  0  0  0  0
    6.1579    2.2539    0.0000 C   0  0  0  0  0  0  0  0  0  0  0  0
    3.3000    1.4289    0.0000 C   0  0  0  0  0  0  0  0  0  0  0  0
    7.5868    1.4289    0.0000 C   0  0  0  0  0  0  0  0  0  0  0  0
    6.1579    1.4289    0.0000 C   0  0  0  0  0  0  0  0  0  0  0  0
    4.0145    1.0164    0.0000 C   0  0  0  0  0  0  0  0  0  0  0  0
    5.4434    1.0164    0.0000 C   0  0  0  0  0  0  0  0  0  0  0  0
    4.7289    1.4289    0.0000 C   0  0  0  0  0  0  0  0  0  0  0  0
    6.8724    1.0164    0.0000 N   0  0  0  0  0  0  0  0  0  0  0  0
    6.8724    2.6664    0.0000 O   0  0  0  0  0  0  0  0  0  0  0  0
    2.5855    1.0164    0.0000 O   0  0  0  0  0  0  0  0  0  0  0  0
    7.5868    2.2539    0.0000 O   0  0  0  0  0  0  0  0  0  0  0  0
    4.0145    0.1914    0.0000 O   0  0  0  0  0  0  0  0  0  0  0  0
    5.4434    0.1914    0.0000 O   0  0  0  0  0  0  0  0  0  0  0  0
    4.7289    2.2539    0.0000 O   0  0  0  0  0  0  0  0  0  0  0  0
  4  1  1  1
  4 12  1  0
  5  2  1  1
  5  9  1  0
  6  3  1  0
  6 13  1  6
  7  5  1  0
  7 14  1  1
  8  6  1  0
  8  7  1  0
  8 15  1  1
  9  4  1  0
 10  2  1  0
 11  3  1  0
M  END
>  <DRUGBANK_ID>  (1) 
DB02787

>  <SECONDARY_ACCESSION_NUMBERS>  (1) 
EXPT02197

>  <COMMON_NAME>  (1) 
N-Acetylmannosaminitol

$$$$
