
     RDKit          2D

 33 33  0  0  1  0  0  0  0  0999 V2000
   10.7879    5.4274    0.0000 Cl  0  0  0  0  0  0  0  0  0  0  0  0
    7.9804    5.4616    0.0000 O   0  0  0  0  0  0  0  0  0  0  0  0
    8.6949    9.1742    0.0000 O   0  0  0  0  0  0  0  0  0  0  0  0
    0.4430    5.4274    0.0000 O   0  0  0  0  0  0  0  0  0  0  0  0
    4.4080    4.2241    0.0000 N   0  0  0  0  0  0  0  0  0  0  0  0
    6.5514    5.4616    0.0000 N   0  0  0  0  0  0  0  0  0  0  0  0
    7.2659    9.1742    0.0000 N   0  0  0  0  0  0  0  0  0  0  0  0
    5.1225    4.6366    0.0000 C   0  0  0  0  0  0  0  0  0  0  0  0
    5.8369    4.2241    0.0000 C   0  0  0  0  0  0  0  0  0  0  0  0
    5.1225    5.4616    0.0000 C   0  0  0  0  0  0  0  0  0  0  0  0
    6.5514    4.6366    0.0000 C   0  0  0  0  0  0  0  0  0  0  0  0
    5.8369    5.8741    0.0000 C   0  0  0  0  0  0  0  0  0  0  0  0
    4.4080    3.3991    0.0000 C   0  0  0  0  0  0  0  0  0  0  0  0
    3.6934    4.6366    0.0000 C   0  0  0  0  0  0  0  0  0  0  0  0
    7.2659    5.8741    0.0000 C   0  0  0  0  0  0  0  0  0  0  0  0
    3.6934    2.9866    0.0000 C   0  0  0  0  0  0  0  0  0  0  0  0
    7.2659    6.6991    0.0000 C   0  0  0  0  0  0  0  0  0  0  0  0
    3.6934    2.1615    0.0000 C   0  0  0  0  0  0  0  0  0  0  0  0
    6.5514    7.1117    0.0000 C   0  0  0  0  0  0  0  0  0  0  0  0
    7.9804    7.1117    0.0000 C   0  0  0  0  0  0  0  0  0  0  0  0
    6.5514    7.9367    0.0000 C   0  0  0  0  0  0  0  0  0  0  0  0
    7.9804    7.9367    0.0000 C   0  0  0  0  0  0  0  0  0  0  0  0
    7.2659    8.3492    0.0000 C   0  0  0  0  0  0  0  0  0  0  0  0
    2.9790    1.7490    0.0000 C   0  0  0  0  0  0  0  0  0  0  0  0
    4.4080    1.7490    0.0000 C   0  0  0  0  0  0  0  0  0  0  0  0
    5.8369    8.3492    0.0000 C   0  0  0  0  0  0  0  0  0  0  0  0
    8.6949    8.3492    0.0000 C   0  0  0  0  0  0  0  0  0  0  0  0
    2.9790    0.9240    0.0000 C   0  0  0  0  0  0  0  0  0  0  0  0
    4.4080    0.9240    0.0000 C   0  0  0  0  0  0  0  0  0  0  0  0
    3.6934    0.5115    0.0000 C   0  0  0  0  0  0  0  0  0  0  0  0
    7.9804    9.5867    0.0000 C   0  0  0  0  0  0  0  0  0  0  0  0
    7.9804   10.4117    0.0000 C   0  0  0  0  0  0  0  0  0  0  0  0
    8.6949   10.8242    0.0000 C   0  0  0  0  0  0  0  0  0  0  0  0
  2 15  2  0
  3 31  2  0
  5  8  1  0
  5 13  1  0
  5 14  1  0
  6 11  1  0
  6 12  1  0
  6 15  1  0
  7 23  1  0
  7 31  1  0
  8  9  1  0
  8 10  1  0
  9 11  1  0
 10 12  1  0
 13 16  1  0
 15 17  1  0
 16 18  1  0
 17 19  2  0
 17 20  1  0
 18 24  2  0
 18 25  1  0
 19 21  1  0
 20 22  2  0
 21 23  2  0
 21 26  1  0
 22 23  1  0
 22 27  1  0
 24 28  1  0
 25 29  2  0
 28 30  2  0
 29 30  1  0
 31 32  1  0
 32 33  1  0
M  END
>  <DRUGBANK_ID>  (1) 
DB05461

>  <COMMON_NAME>  (1) 
OPC-28326

>  <UNII>  (1) 
FR0M0E7AZM

$$$$
