
     RDKit          2D

 31 33  0  0  1  0  0  0  0  0999 V2000
   -2.3119   -5.4102    0.0000 C   0  0  0  0  0  0  0  0  0  0  0  0
   -0.5683   -1.4940    0.0000 C   0  0  0  0  0  0  0  0  0  0  0  0
    3.3523    1.1104    0.0000 C   0  0  0  0  0  0  0  0  0  0  0  0
    0.6538    1.5229    0.0000 C   0  0  0  0  0  0  0  0  0  0  0  0
   -2.3981   -4.5897    0.0000 C   0  0  0  0  0  0  0  0  0  0  0  0
    0.0992   -1.0091    0.0000 C   0  0  0  0  0  0  0  0  0  0  0  0
   -2.9793   -5.8951    0.0000 C   0  0  0  0  0  0  0  0  0  0  0  0
    1.9233    1.9354    0.0000 C   0  0  0  0  0  0  0  0  0  0  0  0
    0.8838   -1.2640    0.0000 C   0  0  0  0  0  0  0  0  0  0  0  0
    1.3687   -0.5966    0.0000 C   0  0  0  0  0  0  0  0  0  0  0  0
    2.6378    2.3479    0.0000 C   0  0  0  0  0  0  0  0  0  0  0  0
    1.9233    1.1104    0.0000 C   0  0  0  0  0  0  0  0  0  0  0  0
    0.8838    0.0709    0.0000 C   0  0  0  0  0  0  0  0  0  0  0  0
   -1.7307   -4.1048    0.0000 C   0  0  0  0  0  0  0  0  0  0  0  0
   -3.1518   -4.2542    0.0000 N   0  0  0  0  0  0  0  0  0  0  0  0
    2.6378    3.1729    0.0000 N   0  0  0  0  0  0  0  0  0  0  0  0
    3.3523    1.9354    0.0000 N   0  0  0  0  0  0  0  0  0  0  0  0
    2.6378    0.6979    0.0000 N   0  0  0  0  0  0  0  0  0  0  0  0
    1.1387    2.1904    0.0000 N   0  0  0  0  0  0  0  0  0  0  0  0
    1.1387    0.8555    0.0000 N   0  0  0  0  0  0  0  0  0  0  0  0
   -2.8931   -6.7156    0.0000 O   0  0  0  0  0  0  0  0  0  0  0  0
   -3.7330   -5.5596    0.0000 O   0  0  0  0  0  0  0  0  0  0  0  0
    1.1387   -2.0486    0.0000 O   0  0  0  0  0  0  0  0  0  0  0  0
    2.1937   -0.5966    0.0000 O   0  0  0  0  0  0  0  0  0  0  0  0
   -0.9770   -4.4403    0.0000 O   0  0  0  0  0  0  0  0  0  0  0  0
   -1.6344   -2.1319    0.0000 O   0  0  0  0  0  0  0  0  0  0  0  0
   -0.6646   -3.4668    0.0000 O   0  0  0  0  0  0  0  0  0  0  0  0
   -0.4820   -2.3145    0.0000 O   0  0  0  0  0  0  0  0  0  0  0  0
    0.0992   -0.1841    0.0000 O   0  0  0  0  0  0  0  0  0  0  0  0
   -1.8169   -3.2843    0.0000 O   0  0  0  0  0  0  0  0  0  0  0  0
   -1.1495   -2.7994    0.0000 P   0  0  0  0  0  0  0  0  0  0  0  0
  5  1  1  0
  5 15  1  6
  6  2  1  1
  7  1  1  0
  9  6  1  0
  9 23  1  6
 10  9  1  0
 10 24  1  6
 11  8  2  0
 12  8  1  0
 13 10  1  0
 13 20  1  1
 14  5  1  0
 16 11  1  0
 17  3  2  0
 17 11  1  0
 18  3  1  0
 18 12  2  0
 19  4  2  0
 19  8  1  0
 20  4  1  0
 20 12  1  0
 21  7  2  0
 22  7  1  0
 25 14  2  0
 28  2  1  0
 29  6  1  0
 29 13  1  0
 30 14  1  0
 31 26  1  0
 31 27  2  0
 31 28  1  0
 31 30  1  0
M  END
>  <DRUGBANK_ID>  (1) 
DB01895

>  <SECONDARY_ACCESSION_NUMBERS>  (1) 
EXPT00511

>  <COMMON_NAME>  (1) 
Aspartyl-Adenosine-5'-Monophosphate

$$$$
