
     RDKit          2D

 16 15  0  0  0  0  0  0  0  0999 V2000
   -2.5006   -0.2062    0.0000 P   0  0  0  0  0  0  0  0  0  0  0  0
    0.3572   -1.0312    0.0000 O   0  0  0  0  0  0  0  0  0  0  0  0
   -0.3572    1.0312    0.0000 O   0  0  0  0  0  0  0  0  0  0  0  0
   -1.7862    0.2062    0.0000 O   0  0  0  0  0  0  0  0  0  0  0  0
    1.0717    1.0312    0.0000 O   0  0  0  0  0  0  0  0  0  0  0  0
    1.7862   -1.0312    0.0000 O   0  0  0  0  0  0  0  0  0  0  0  0
   -3.2152   -0.6187    0.0000 O   0  0  0  0  0  0  0  0  0  0  0  0
   -2.9131    0.5082    0.0000 O   0  0  0  0  0  0  0  0  0  0  0  0
   -2.0881   -0.9207    0.0000 O   0  0  0  0  0  0  0  0  0  0  0  0
    3.2152   -0.2062    0.0000 O   0  0  0  0  0  0  0  0  0  0  0  0
    2.5006    0.2062    0.0000 N   0  0  0  0  0  0  0  0  0  0  0  0
    0.3572   -0.2062    0.0000 C   0  0  0  0  0  0  0  0  0  0  0  0
   -0.3572    0.2062    0.0000 C   0  0  0  0  0  0  0  0  0  0  0  0
    1.0717    0.2062    0.0000 C   0  0  0  0  0  0  0  0  0  0  0  0
   -1.0717   -0.2062    0.0000 C   0  0  0  0  0  0  0  0  0  0  0  0
    1.7862   -0.2062    0.0000 C   0  0  0  0  0  0  0  0  0  0  0  0
  1  4  1  0
  1  7  1  0
  1  8  1  0
  1  9  2  0
  4 15  1  0
  6 16  2  0
 10 11  1  0
 11 16  1  0
 12  2  1  6
 12 13  1  0
 12 14  1  0
 13  3  1  1
 13 15  1  0
 14  5  1  6
 14 16  1  0
M  END
>  <DRUGBANK_ID>  (1) 
DB02093

>  <SECONDARY_ACCESSION_NUMBERS>  (1) 
EXPT02496

>  <COMMON_NAME>  (1) 
5-phospho-D-arabinohydroxamic acid

>  <SYNONYMS>  (1) 
(2R,3R,4S)-2,3,4-Trihydroxy-5-(hydroxyamino)-5-oxopentyl dihydrogen phosphate

$$$$
