
     RDKit          2D

 39 41  0  0  0  0  0  0  0  0999 V2000
   -4.9947   -0.6174    0.0000 O   0  0  0  0  0  0  0  0  0  0  0  0
   -4.2788   -0.2040    0.0000 C   0  0  0  0  0  0  0  0  0  0  0  0
   -5.7129   -0.2040    0.0000 C   0  0  0  0  0  0  0  0  0  0  0  0
   -5.7140    0.6226    0.0000 O   0  0  0  0  0  0  0  0  0  0  0  0
   -6.4282   -0.6183    0.0000 C   0  0  0  0  0  0  0  0  0  0  0  0
   -3.5642   -0.6220    0.0000 C   0  0  0  0  0  0  0  0  0  0  0  0
   -3.5693    1.0313    0.0000 C   0  0  0  0  0  0  0  0  0  0  0  0
   -4.2818    0.6163    0.0000 C   0  0  0  0  0  0  0  0  0  0  0  0
   -4.9994    1.0269    0.0000 C   0  0  0  0  0  0  0  0  0  0  0  0
   -3.5722    1.8580    0.0000 C   0  0  0  0  0  0  0  0  0  0  0  0
   -3.5668   -1.4487    0.0000 C   0  0  0  0  0  0  0  0  0  0  0  0
   -2.8483    0.6182    0.0000 C   0  0  0  0  0  0  0  0  0  0  0  0
   -2.8485   -0.2080    0.0000 C   0  0  0  0  0  0  0  0  0  0  0  0
   -2.1371   -0.6192    0.0000 C   0  0  0  0  0  0  0  0  0  0  0  0
   -1.4207   -0.2084    0.0000 C   0  0  0  0  0  0  0  0  0  0  0  0
   -1.4205    0.6178    0.0000 C   0  0  0  0  0  0  0  0  0  0  0  0
   -2.1366    1.0333    0.0000 O   0  0  0  0  0  0  0  0  0  0  0  0
   -0.7067    1.0276    0.0000 C   0  0  0  0  0  0  0  0  0  0  0  0
    0.0072    0.6143    0.0000 C   0  0  0  0  0  0  0  0  0  0  0  0
    0.7211    1.0234    0.0000 C   0  0  0  0  0  0  0  0  0  0  0  0
    1.4351    0.6101    0.0000 C   0  0  0  0  0  0  0  0  0  0  0  0
    2.1491    1.0193    0.0000 C   0  0  0  0  0  0  0  0  0  0  0  0
    2.8631    0.6060    0.0000 C   0  0  0  0  0  0  0  0  0  0  0  0
    3.5770    1.0151    0.0000 C   0  0  0  0  0  0  0  0  0  0  0  0
    4.2910    0.6017    0.0000 C   0  0  0  0  0  0  0  0  0  0  0  0
    5.0050    1.0109    0.0000 C   0  0  0  0  0  0  0  0  0  0  0  0
    5.7190    0.5975    0.0000 C   0  0  0  0  0  0  0  0  0  0  0  0
    6.4330    1.0068    0.0000 C   0  0  0  0  0  0  0  0  0  0  0  0
    7.1469    0.5934    0.0000 C   0  0  0  0  0  0  0  0  0  0  0  0
    7.8609    1.0026    0.0000 C   0  0  0  0  0  0  0  0  0  0  0  0
   -0.7067    0.2051    0.0000 C   0  0  0  0  0  0  0  0  0  0  0  0
    1.4333   -0.2165    0.0000 C   0  0  0  0  0  0  0  0  0  0  0  0
    4.2892   -0.2249    0.0000 C   0  0  0  0  0  0  0  0  0  0  0  0
    7.1451   -0.2332    0.0000 C   0  0  0  0  0  0  0  0  0  0  0  0
   -7.1445   -0.2055    0.0000 C   0  0  0  0  0  0  0  0  0  0  0  0
   -7.8578   -0.6164    0.0000 C   0  0  0  0  0  0  0  0  0  0  0  0
   -7.8609   -1.4434    0.0000 C   0  0  0  0  0  0  0  0  0  0  0  0
   -7.1446   -1.8580    0.0000 N   0  0  0  0  0  0  0  0  0  0  0  0
   -6.4250   -1.4456    0.0000 C   0  0  0  0  0  0  0  0  0  0  0  0
  1  3  1  0
  1  2  1  0
  2  6  2  0
  3  5  1  0
  3  4  2  0
  5 35  2  0
  5 39  1  0
  6 11  1  0
  6 13  1  0
  7 10  1  0
  7  8  2  0
  8  9  1  0
  8  2  1  0
 12 13  2  0
 12  7  1  0
 12 17  1  0
 13 14  1  0
 14 15  1  0
 15 16  1  0
 16 31  1  1
 16 17  1  0
 16 18  1  0
 18 19  1  0
 19 20  1  0
 20 21  1  0
 21 22  1  0
 21 32  1  1
 22 23  1  0
 23 24  1  0
 24 25  1  0
 25 26  1  0
 25 33  1  1
 26 27  1  0
 27 28  1  0
 28 29  1  0
 29 30  1  0
 29 34  1  0
 35 36  1  0
 36 37  2  0
 37 38  1  0
 38 39  2  0
M  END
>  <DRUGBANK_ID>  (1) 
DB15921

>  <COMMON_NAME>  (1) 
Tocopheryl nicotinate

>  <CAS_NUMBER>  (1) 
43119-47-7

>  <UNII>  (1) 
WI1J5UCY5C

>  <SYNONYMS>  (1) 
Alpha-tocopheryl nicotinate; Tocoferil nicotinate; Tocopherol nicotinate; Vitamin E nicotinate; Vitamin E nicotinic acid ester

$$$$
