
     RDKit          2D

 31 34  0  0  0  0  0  0  0  0999 V2000
   -1.0900   -1.3902    0.0000 Cl  0  0  0  0  0  0  0  0  0  0  0  0
   -1.0900   -3.0411    0.0000 F   0  0  0  0  0  0  0  0  0  0  0  0
   -1.8009    0.6714    0.0000 O   0  0  0  0  0  0  0  0  0  0  0  0
    0.3476    2.1959    0.0000 O   0  0  0  0  0  0  0  0  0  0  0  0
   -3.9495   -2.2117    0.0000 O   0  0  0  0  0  0  0  0  0  0  0  0
    2.5040    1.7693    0.0000 O   0  0  0  0  0  0  0  0  0  0  0  0
    3.1911    3.0411    0.0000 O   0  0  0  0  0  0  0  0  0  0  0  0
   -0.3712   -0.9794    0.0000 C   0  0  0  0  0  0  0  0  0  0  0  0
   -1.0900   -0.5608    0.0000 C   0  0  0  0  0  0  0  0  0  0  0  0
    0.3396   -0.5608    0.0000 C   0  0  0  0  0  0  0  0  0  0  0  0
    0.3396    0.2606    0.0000 C   0  0  0  0  0  0  0  0  0  0  0  0
   -1.8009   -0.9794    0.0000 C   0  0  0  0  0  0  0  0  0  0  0  0
   -1.0900    0.2606    0.0000 C   0  0  0  0  0  0  0  0  0  0  0  0
    1.0584    0.6714    0.0000 C   0  0  0  0  0  0  0  0  0  0  0  0
   -0.3712    0.6714    0.0000 C   0  0  0  0  0  0  0  0  0  0  0  0
   -0.3712   -1.8009    0.0000 C   0  0  0  0  0  0  0  0  0  0  0  0
   -1.8009   -1.8009    0.0000 C   0  0  0  0  0  0  0  0  0  0  0  0
    1.7693   -0.5608    0.0000 C   0  0  0  0  0  0  0  0  0  0  0  0
    1.7693    0.2606    0.0000 C   0  0  0  0  0  0  0  0  0  0  0  0
   -1.0900   -2.2117    0.0000 C   0  0  0  0  0  0  0  0  0  0  0  0
   -2.5197   -0.5608    0.0000 C   0  0  0  0  0  0  0  0  0  0  0  0
    0.3001    1.0900    0.0000 C   0  0  0  0  0  0  0  0  0  0  0  0
    1.0584    1.7851    0.0000 C   0  0  0  0  0  0  0  0  0  0  0  0
   -1.8009   -0.1500    0.0000 C   0  0  0  0  0  0  0  0  0  0  0  0
   -2.5197   -2.2117    0.0000 C   0  0  0  0  0  0  0  0  0  0  0  0
   -3.2306   -0.9794    0.0000 C   0  0  0  0  0  0  0  0  0  0  0  0
   -3.2306   -1.8009    0.0000 C   0  0  0  0  0  0  0  0  0  0  0  0
    2.4882    0.6793    0.0000 C   0  0  0  0  0  0  0  0  0  0  0  0
    1.7772    2.1880    0.0000 C   0  0  0  0  0  0  0  0  0  0  0  0
    3.2306    2.1880    0.0000 C   0  0  0  0  0  0  0  0  0  0  0  0
    3.9495    1.7693    0.0000 C   0  0  0  0  0  0  0  0  0  0  0  0
  4 23  2  0
  5 27  2  0
  6 29  1  0
  6 30  1  0
  7 30  2  0
  8  9  1  0
  8 10  1  0
  8 16  1  6
  9  1  1  6
  9 12  1  0
  9 13  1  0
 10 11  1  0
 10 18  1  1
 11 14  1  0
 11 15  1  0
 11 22  1  1
 12 17  1  0
 12 21  1  0
 12 24  1  1
 13  3  1  1
 13 15  1  0
 14 19  1  0
 14 23  1  1
 16 20  1  0
 17 20  1  0
 17 25  2  0
 18 19  1  0
 19 28  1  6
 20  2  1  6
 21 26  2  0
 23 29  1  0
 25 27  1  0
 26 27  1  0
 30 31  1  0
M  END
>  <DRUGBANK_ID>  (1) 
DB14652

>  <SECONDARY_ACCESSION_NUMBERS>  (1) 
DBSALT000939

>  <COMMON_NAME>  (1) 
Clocortolone acetate

>  <CAS_NUMBER>  (1) 
4258-85-9

>  <UNII>  (1) 
85061HTR8T

>  <SYNONYMS>  (1) 
Clocortolone acetate

$$$$
