AVE
     RDKit          2D

 29 30  0  0  0  0  0  0  0  0999 V2000
   -3.9145    1.0795    0.0000 C   0  0  0  0  0  0  0  0  0  0  0  0
   -3.2000    1.4920    0.0000 C   0  0  0  0  0  0  0  0  0  0  0  0
   -2.4855    1.0795    0.0000 C   0  0  0  0  0  0  0  0  0  0  0  0
   -1.7711   -0.1580    0.0000 C   0  0  0  0  0  0  0  0  0  0  0  0
   -0.3421   -0.1580    0.0000 C   0  0  0  0  0  0  0  0  0  0  0  0
    1.0868   -0.1580    0.0000 C   0  0  0  0  0  0  0  0  0  0  0  0
    1.0868   -0.9830    0.0000 C   0  0  0  0  0  0  0  0  0  0  0  0
    2.5158   -0.1580    0.0000 C   0  0  0  0  0  0  0  0  0  0  0  0
    1.8013    0.2545    0.0000 C   0  0  0  0  0  0  0  0  0  0  0  0
    3.2302   -1.3955    0.0000 C   0  0  0  0  0  0  0  0  0  0  0  0
   -1.7711   -0.9830    0.0000 O   0  0  0  0  0  0  0  0  0  0  0  0
    1.0868    1.4920    0.0000 C   0  0  0  0  0  0  0  0  0  0  0  0
   -3.2000   -0.9830    0.0000 Cl  0  0  0  0  0  0  0  0  0  0  0  0
   -3.2000   -0.1580    0.0000 C   0  0  0  0  0  0  0  0  0  0  0  0
   -3.9145    0.2545    0.0000 C   0  0  0  0  0  0  0  0  0  0  0  0
   -4.6289    1.4920    0.0000 F   0  0  0  0  0  0  0  0  0  0  0  0
   -3.2000    2.3170    0.0000 F   0  0  0  0  0  0  0  0  0  0  0  0
   -2.4855    0.2545    0.0000 C   0  0  0  0  0  0  0  0  0  0  0  0
   -1.0566    0.2545    0.0000 N   0  0  0  0  0  0  0  0  0  0  0  0
   -0.3421   -0.9830    0.0000 O   0  0  0  0  0  0  0  0  0  0  0  0
    0.3724    0.2545    0.0000 N   0  0  0  0  0  0  0  0  0  0  0  0
    1.8013   -1.3955    0.0000 C   0  0  0  0  0  0  0  0  0  0  0  0
    2.5158   -0.9830    0.0000 C   0  0  0  0  0  0  0  0  0  0  0  0
    3.9447   -0.9830    0.0000 O   0  0  0  0  0  0  0  0  0  0  0  0
    3.2302   -2.2205    0.0000 O   0  0  0  0  0  0  0  0  0  0  0  0
    1.8013    1.0795    0.0000 O   0  0  0  0  0  0  0  0  0  0  0  0
    1.4993    2.2064    0.0000 F   0  0  0  0  0  0  0  0  0  0  0  0
    0.6743    0.7775    0.0000 F   0  0  0  0  0  0  0  0  0  0  0  0
    0.3724    1.9045    0.0000 F   0  0  0  0  0  0  0  0  0  0  0  0
  1  2  2  0
  1 15  1  0
  2  3  1  0
  3 18  2  0
  4 11  2  0
  5 21  1  0
  6  9  1  0
  7  6  2  0
  7 22  1  0
  9  8  2  0
  9 26  1  0
 10 24  1  0
 12 29  1  0
 12 27  1  0
 14 13  1  0
 14 15  2  0
 14 18  1  0
 16  1  1  0
 17  2  1  0
 18  4  1  0
 19  4  1  0
 19  5  1  0
 20  5  2  0
 21  6  1  0
 22 23  2  0
 23  8  1  0
 23 10  1  0
 25 10  2  0
 26 12  1  0
 28 12  1  0
M  END
>  <DRUGBANK_ID>  (1) 
DB07395

>  <COMMON_NAME>  (1) 
4-[3-(2-Chloro-4,5-difluoro-benzoyl)ureido]-3-trifluoromethoxybenzoic acid

$$$$
