
     RDKit          2D

 41 45  0  0  1  0  0  0  0  0999 V2000
   -2.8422    1.1237    0.0000 C   0  0  0  0  0  0  0  0  0  0  0  0
   -2.0886    1.4593    0.0000 C   0  0  0  0  0  0  0  0  0  0  0  0
   -1.4211    0.9744    0.0000 O   0  0  0  0  0  0  0  0  0  0  0  0
   -0.6674    1.3099    0.0000 C   0  0  0  0  0  0  0  0  0  0  0  0
   -0.5812    2.1304    0.0000 O   0  0  0  0  0  0  0  0  0  0  0  0
    0.0000    0.8250    0.0000 C   0  0  0  0  0  0  0  0  0  0  0  0
    0.7846    1.0799    0.0000 C   0  0  0  0  0  0  0  0  0  0  0  0
    1.2695    0.4125    0.0000 C   0  0  0  0  0  0  0  0  0  0  0  0
    0.7846   -0.2549    0.0000 C   0  0  0  0  0  0  0  0  0  0  0  0
   -0.0000    0.0000    0.0000 N   0  0  0  0  0  0  0  0  0  0  0  0
    1.6820    1.1270    0.0000 C   0  0  0  0  0  0  0  0  0  0  0  0
    2.5070    1.1270    0.0000 C   0  0  0  0  0  0  0  0  0  0  0  0
    2.9195    0.4125    0.0000 N   0  0  0  0  0  0  0  0  0  0  0  0
    2.5070   -0.3020    0.0000 C   0  0  0  0  0  0  0  0  0  0  0  0
    1.6820   -0.3020    0.0000 C   0  0  0  0  0  0  0  0  0  0  0  0
    3.7445    0.4125    0.0000 C   0  0  0  0  0  0  0  0  0  0  0  0
    4.1570    1.1270    0.0000 C   0  0  0  0  0  0  0  0  0  0  0  0
    4.9820    1.1270    0.0000 C   0  0  0  0  0  0  0  0  0  0  0  0
    5.3945    1.8414    0.0000 O   0  0  0  0  0  0  0  0  0  0  0  0
    6.2195    1.8414    0.0000 C   0  0  0  0  0  0  0  0  0  0  0  0
    6.6320    2.5559    0.0000 C   0  0  0  0  0  0  0  0  0  0  0  0
    7.4570    2.5559    0.0000 C   0  0  0  0  0  0  0  0  0  0  0  0
    7.8695    3.2704    0.0000 C   0  0  0  0  0  0  0  0  0  0  0  0
    7.4570    3.9849    0.0000 C   0  0  0  0  0  0  0  0  0  0  0  0
    7.8695    4.6993    0.0000 Cl  0  0  0  0  0  0  0  0  0  0  0  0
    6.6320    3.9849    0.0000 C   0  0  0  0  0  0  0  0  0  0  0  0
    6.2195    3.2704    0.0000 C   0  0  0  0  0  0  0  0  0  0  0  0
    5.3945    3.2704    0.0000 C   0  0  0  0  0  0  0  0  0  0  0  0
    4.9820    2.5559    0.0000 C   0  0  0  0  0  0  0  0  0  0  0  0
    4.1570    2.5559    0.0000 C   0  0  0  0  0  0  0  0  0  0  0  0
    3.7445    3.2704    0.0000 C   0  0  0  0  0  0  0  0  0  0  0  0
    4.1570    3.9849    0.0000 C   0  0  0  0  0  0  0  0  0  0  0  0
    4.9820    3.9849    0.0000 C   0  0  0  0  0  0  0  0  0  0  0  0
    6.6320    1.1270    0.0000 C   0  0  0  0  0  0  0  0  0  0  0  0
    7.0445    0.4125    0.0000 F   0  0  0  0  0  0  0  0  0  0  0  0
    7.3465    1.5395    0.0000 F   0  0  0  0  0  0  0  0  0  0  0  0
    5.9176    0.7145    0.0000 F   0  0  0  0  0  0  0  0  0  0  0  0
    5.3945    0.4125    0.0000 N   0  0  0  0  0  0  0  0  0  0  0  0
    4.9820   -0.3020    0.0000 C   0  0  0  0  0  0  0  0  0  0  0  0
    5.3945   -1.0164    0.0000 N   0  0  0  0  0  0  0  0  0  0  0  0
    4.1570   -0.3020    0.0000 N   0  0  0  0  0  0  0  0  0  0  0  0
  1  2  1  0
  2  3  1  0
  3  4  1  0
  4  5  2  0
  6  4  1  6
  6  7  1  0
  6 10  1  0
  7  8  1  0
  8  9  1  0
  8 11  1  0
  8 15  1  0
  9 10  1  0
 11 12  1  0
 12 13  1  0
 13 14  1  0
 13 16  1  0
 14 15  1  0
 16 17  2  0
 16 41  1  0
 17 18  1  0
 18 19  1  0
 18 38  2  0
 20 19  1  6
 20 21  1  0
 20 34  1  0
 21 22  2  0
 21 27  1  0
 22 23  1  0
 23 24  2  0
 24 25  1  0
 24 26  1  0
 26 27  2  0
 27 28  1  0
 28 29  2  0
 28 33  1  0
 29 30  1  0
 30 31  2  0
 31 32  1  0
 32 33  2  0
 34 35  1  0
 34 36  1  0
 34 37  1  0
 38 39  1  0
 39 40  1  0
 39 41  2  0
M  END
>  <DRUGBANK_ID>  (1) 
DB18479

>  <COMMON_NAME>  (1) 
Rodatristat ethyl

>  <CAS_NUMBER>  (1) 
1673571-51-1

>  <UNII>  (1) 
507FY6OL37

>  <SYNONYMS>  (1) 
2,8-diazaspiro(4.5)decane-3-carboxylic acid, 8-(2-amino-6-((1r)-1-(5-chloro(1,1'-biphenyl)-2-yl)-2,2,2-trifluoroethoxy)-4-pyrimidinyl)-, ethyl ester, (3s)-; Ethyl (3s)-8-(2-amino-6-((1r)-1-(5-chloro(1,1'-biphenyl)-2-yl)-2,2,2-trifluoroethoxy)pyrimidin-4-yl)-2,8-diazaspiro(4.5)decane-3-carboxylate

$$$$
