2ED
     RDKit          2D

 24 23  0  0  0  0  0  0  0  0999 V2000
   -7.3828   -0.3524    0.0000 O   0  0  0  0  0  0  0  0  0  0  0  0
   -4.5247    1.2977    0.0000 O   0  0  0  0  0  0  0  0  0  0  0  0
   -4.5247   -1.1775    0.0000 O   0  0  0  0  0  0  0  0  0  0  0  0
   -5.2393    0.0601    0.0000 C   0  0  0  0  0  0  0  0  0  0  0  0
   -4.5247   -0.3524    0.0000 C   0  0  0  0  0  0  0  0  0  0  0  0
   -3.8103    0.0601    0.0000 C   0  0  0  0  0  0  0  0  0  0  0  0
   -3.0957   -0.3524    0.0000 C   0  0  0  0  0  0  0  0  0  0  0  0
   -2.3812    0.0601    0.0000 C   0  0  0  0  0  0  0  0  0  0  0  0
   -1.6667   -0.3524    0.0000 C   0  0  0  0  0  0  0  0  0  0  0  0
   -6.6683    0.0601    0.0000 C   0  0  0  0  0  0  0  0  0  0  0  0
   -6.6683    0.8852    0.0000 C   0  0  0  0  0  0  0  0  0  0  0  0
   -5.9538   -0.3524    0.0000 N   0  0  0  0  0  0  0  0  0  0  0  0
   -5.2393    0.8852    0.0000 C   0  0  0  0  0  0  0  0  0  0  0  0
   -0.9522    0.0601    0.0000 C   0  0  0  0  0  0  0  0  0  0  0  0
   -0.2376   -0.3524    0.0000 C   0  0  0  0  0  0  0  0  0  0  0  0
    0.4769    0.0601    0.0000 C   0  0  0  0  0  0  0  0  0  0  0  0
    1.1914   -0.3524    0.0000 C   0  0  0  0  0  0  0  0  0  0  0  0
    1.9059    0.0601    0.0000 C   0  0  0  0  0  0  0  0  0  0  0  0
    2.6205   -0.3524    0.0000 C   0  0  0  0  0  0  0  0  0  0  0  0
    3.3349    0.0601    0.0000 C   0  0  0  0  0  0  0  0  0  0  0  0
    4.0495   -0.3524    0.0000 C   0  0  0  0  0  0  0  0  0  0  0  0
    4.7641    0.0601    0.0000 C   0  0  0  0  0  0  0  0  0  0  0  0
    5.4786   -0.3524    0.0000 C   0  0  0  0  0  0  0  0  0  0  0  0
    6.1931    0.0601    0.0000 C   0  0  0  0  0  0  0  0  0  0  0  0
  1 10  2  0
  2 13  1  0
  4  5  1  0
  4 12  1  0
  4 13  1  6
  5  3  1  1
  5  6  1  0
  6  7  2  0
  7  8  1  0
  8  9  1  0
  9 14  1  0
 10 11  1  0
 10 12  1  0
 14 15  1  0
 15 16  1  0
 16 17  1  0
 17 18  1  0
 18 19  1  0
 19 20  1  0
 20 21  1  0
 21 22  1  0
 22 23  1  0
 23 24  1  0
M  END
>  <DRUGBANK_ID>  (1) 
DB06960

>  <COMMON_NAME>  (1) 
N-[(1R,2R,3E)-2-hydroxy-1-(hydroxymethyl)heptadec-3-en-1-yl]acetamide

$$$$
