1ZN
     RDKit          2D

 24 24  0  0  0  0  0  0  0  0999 V2000
   -1.3959    0.0111    0.0000 C   0  0  0  0  0  0  0  0  0  0  0  0
   -1.3959   -0.8139    0.0000 O   0  0  0  0  0  0  0  0  0  0  0  0
   -0.6815   -1.2264    0.0000 C   0  0  0  0  0  0  0  0  0  0  0  0
   -0.6815   -2.0514    0.0000 C   0  0  0  0  0  0  0  0  0  0  0  0
   -1.3959   -2.4639    0.0000 C   0  0  0  0  0  0  0  0  0  0  0  0
   -1.3959   -3.2889    0.0000 C   0  0  0  0  0  0  0  0  0  0  0  0
   -2.1104   -3.7014    0.0000 C   0  0  0  0  0  0  0  0  0  0  0  0
   -2.8249   -3.2889    0.0000 C   0  0  0  0  0  0  0  0  0  0  0  0
   -2.8249   -2.4639    0.0000 C   0  0  0  0  0  0  0  0  0  0  0  0
   -2.1104   -2.0514    0.0000 C   0  0  0  0  0  0  0  0  0  0  0  0
    0.0330   -0.8139    0.0000 C   0  0  0  0  0  0  0  0  0  0  0  0
    0.7475   -1.2264    0.0000 C   0  0  0  0  0  0  0  0  0  0  0  0
    0.0330    0.0111    0.0000 C   0  0  0  0  0  0  0  0  0  0  0  0
    0.7475    0.4236    0.0000 C   0  0  0  0  0  0  0  0  0  0  0  0
    1.4619    0.0111    0.0000 C   0  0  0  0  0  0  0  0  0  0  0  0
    0.7475    1.2486    0.0000 C   0  0  0  0  0  0  0  0  0  0  0  0
    1.4619    1.6611    0.0000 C   0  0  0  0  0  0  0  0  0  0  0  0
    1.4619    2.4861    0.0000 C   0  0  0  0  0  0  0  0  0  0  0  0
    2.1764    2.8986    0.0000 N   0  0  0  0  0  0  0  0  0  0  0  0
    0.7475    2.8986    0.0000 C   0  0  0  0  0  0  0  0  0  0  0  0
    0.0330    2.4861    0.0000 C   0  0  0  0  0  0  0  0  0  0  0  0
    0.7475    3.7236    0.0000 C   0  0  0  0  0  0  0  0  0  0  0  0
    0.0330    4.1361    0.0000 O   0  0  0  0  0  0  0  0  0  0  0  0
    1.4619    4.1361    0.0000 O   0  0  0  0  0  0  0  0  0  0  0  0
  1  2  1  0
  3  2  1  0
  3  4  1  6
  3 11  1  0
  4  5  1  0
  5  6  2  0
  5 10  1  0
  6  7  1  0
  7  8  2  0
  8  9  1  0
  9 10  2  0
 11 12  1  6
 11 13  1  0
 13 14  2  0
 14 15  1  0
 14 16  1  0
 16 17  2  0
 17 18  1  0
 18 19  1  1
 18 20  1  0
 20 21  1  6
 20 22  1  0
 22 23  1  0
 22 24  2  0
M  END
>  <DRUGBANK_ID>  (1) 
DB06905

>  <COMMON_NAME>  (1) 
(2S,3S,4E,6E,8S,9S)-3-amino-9-methoxy-2,6,8-trimethyl-10-phenyldeca-4,6-dienoic acid

>  <UNII>  (1) 
VKL2NS279Z

$$$$
