
     RDKit          2D

 34 35  0  0  0  0  0  0  0  0999 V2000
   -1.7125    1.8278    0.0000 C   0  0  0  0  0  0  0  0  0  0  0  0
   -1.7155    2.6528    0.0000 C   0  0  0  0  0  0  0  0  0  0  0  0
   -2.5010    2.9049    0.0000 S   0  0  0  0  0  0  0  0  0  0  0  0
   -2.9836    2.2358    0.0000 C   0  0  0  0  0  0  0  0  0  0  0  0
   -2.4962    1.5702    0.0000 N   0  0  0  0  0  0  0  0  0  0  0  0
    2.6862    0.5843    0.0000 C   0  0  0  0  0  0  0  0  0  0  0  0
    1.8613    0.5872    0.0000 C   0  0  0  0  0  0  0  0  0  0  0  0
    1.8562   -0.8382    0.0000 C   0  0  0  0  0  0  0  0  0  0  0  0
    2.6812   -0.8411    0.0000 C   0  0  0  0  0  0  0  0  0  0  0  0
    3.0985   -0.1276    0.0000 C   0  0  0  0  0  0  0  0  0  0  0  0
    0.4416   -0.8440    0.0000 C   0  0  0  0  0  0  0  0  0  0  0  0
    0.4386   -1.6690    0.0000 C   0  0  0  0  0  0  0  0  0  0  0  0
    1.1477   -2.0817    0.0000 C   0  0  0  0  0  0  0  0  0  0  0  0
    1.8642   -1.6740    0.0000 C   0  0  0  0  0  0  0  0  0  0  0  0
    0.4386    1.4122    0.0000 C   0  0  0  0  0  0  0  0  0  0  0  0
    0.4386    0.5872    0.0000 C   0  0  0  0  0  0  0  0  0  0  0  0
    1.8635    1.4122    0.0000 C   0  0  0  0  0  0  0  0  0  0  0  0
    1.1467    1.8262    0.0000 O   0  0  0  0  0  0  0  0  0  0  0  0
   -0.3846    0.5873    0.0000 C   0  0  0  0  0  0  0  0  0  0  0  0
   -0.8004   -0.1280    0.0000 C   0  0  0  0  0  0  0  0  0  0  0  0
   -0.3865   -0.8451    0.0000 C   0  0  0  0  0  0  0  0  0  0  0  0
    2.5754    1.8262    0.0000 O   0  0  0  0  0  0  0  0  0  0  0  0
   -0.2784    1.8262    0.0000 C   0  0  0  0  0  0  0  0  0  0  0  0
   -0.2784    2.6511    0.0000 C   0  0  0  0  0  0  0  0  0  0  0  0
   -0.9955    1.4152    0.0000 C   0  0  0  0  0  0  0  0  0  0  0  0
   -1.6280   -0.1239    0.0000 C   0  0  0  0  0  0  0  0  0  0  0  0
    1.1442   -2.9049    0.0000 C   0  0  0  0  0  0  0  0  0  0  0  0
    2.5784   -2.0829    0.0000 O   0  0  0  0  0  0  0  0  0  0  0  0
    1.2695   -0.2522    0.0000 C   0  0  0  0  0  0  0  0  0  0  0  0
    3.0914   -1.5553    0.0000 O   0  0  0  0  0  0  0  0  0  0  0  0
    3.8115    0.2870    0.0000 C   0  0  0  0  0  0  0  0  0  0  0  0
    3.8115   -0.5379    0.0000 C   0  0  0  0  0  0  0  0  0  0  0  0
    3.0972    1.3015    0.0000 O   0  0  0  0  0  0  0  0  0  0  0  0
   -3.8115    2.2401    0.0000 C   0  0  0  0  0  0  0  0  0  0  0  0
  1  2  2  0
  2  3  1  0
  3  4  1  0
  4  5  2  0
  4 34  1  0
  5  1  1  0
  6  7  1  0
  6 10  1  0
  6 33  1  6
  7 17  1  0
  8  9  1  0
  8 29  1  1
  9 10  1  0
  9 30  2  0
 10 31  1  0
 10 32  1  0
 11 12  2  0
 12 13  1  0
 13 14  1  0
 13 27  1  1
 14  8  1  0
 14 28  1  1
 15 23  1  1
 15 16  1  0
 15 18  1  0
 16 19  1  0
 17 18  1  0
 17 22  2  0
 19 20  2  0
 20 21  1  0
 20 26  1  0
 21 11  1  0
 23 24  1  0
 23 25  2  0
 25  1  1  0
M  END
>  <DRUGBANK_ID>  (1) 
DB05903

>  <COMMON_NAME>  (1) 
KOS-1584

>  <CAS_NUMBER>  (1) 
350493-61-7

>  <UNII>  (1) 
82481G197K

>  <SYNONYMS>  (1) 
(E)-9,10-Dehydroepothilone D; (E)-9,10-Didehydroepothilone D

$$$$
