
     RDKit          2D

  1  0  0  0  0  0  0  0  0  0999 V2000
    0.0000    0.0000    0.0000 Co  0  0  0  0  0 15  0  0  0  0  0  0
M  CHG  1   1   2
M  END
>  <DRUGBANK_ID>  (1) 
DB14205

>  <COMMON_NAME>  (1) 
Cobaltous cation

>  <CAS_NUMBER>  (1) 
22541-53-3

>  <UNII>  (1) 
AI1MR454XG

>  <SYNONYMS>  (1) 
Cobalt cation (Co2+); Cobalt, ion (Co2+); Cobalt(2+); Cobalt(II) cation; Cobalt(II) ion; Cobaltous ion

$$$$
