IS2
     RDKit          2D

 15 15  0  0  0  0  0  0  0  0999 V2000
    1.2541    0.4213    0.0000 C   0  0  0  0  0  0  0  0  0  0  0  0
    1.2541   -0.4037    0.0000 C   0  0  0  0  0  0  0  0  0  0  0  0
    0.5397   -0.8162    0.0000 C   0  0  0  0  0  0  0  0  0  0  0  0
   -0.1748   -0.4037    0.0000 C   0  0  0  0  0  0  0  0  0  0  0  0
   -0.1748    0.4213    0.0000 C   0  0  0  0  0  0  0  0  0  0  0  0
    0.5397    0.8338    0.0000 C   0  0  0  0  0  0  0  0  0  0  0  0
   -0.8893   -0.8162    0.0000 N   0  0  0  0  0  0  0  0  0  0  0  0
   -1.6037   -0.4037    0.0000 C   0  0  0  0  0  0  0  0  0  0  0  0
   -1.6037    0.4213    0.0000 O   0  0  0  0  0  0  0  0  0  0  0  0
   -2.3182   -0.8162    0.0000 P   0  0  0  0  0  0  0  0  0  0  0  0
   -3.0327   -1.2287    0.0000 O   0  0  0  0  0  0  0  0  0  0  0  0
   -1.9057   -1.5307    0.0000 O   0  0  0  0  0  0  0  0  0  0  0  0
   -2.7307   -0.1017    0.0000 O   0  0  0  0  0  0  0  0  0  0  0  0
    1.9686    0.8338    0.0000 C   0  0  0  0  0  0  0  0  0  0  0  0
    1.9686    1.6588    0.0000 C   0  0  0  0  0  0  0  0  0  0  0  0
  1  2  2  0
  1  6  1  0
  1 14  1  0
  2  3  1  0
  3  4  2  0
  4  5  1  0
  4  7  1  0
  5  6  2  0
  7  8  1  0
  8  9  2  0
  8 10  1  0
 10 11  1  0
 10 12  1  0
 10 13  2  0
 14 15  1  0
M  END
>  <DRUGBANK_ID>  (1) 
DB03628

>  <SECONDARY_ACCESSION_NUMBERS>  (1) 
EXPT01930

>  <COMMON_NAME>  (1) 
ISO24

>  <UNII>  (1) 
MM7HGA3EJM

$$$$
