STX
     RDKit          2D

 14 14  0  0  0  0  0  0  0  0999 V2000
    0.6225   -2.5515    0.0000 N   0  0  0  0  0  0  0  0  0  0  0  0
    0.1376   -1.8841    0.0000 C   0  0  0  0  0  0  0  0  0  0  0  0
    0.4732   -1.1304    0.0000 C   0  0  0  0  0  0  0  0  0  0  0  0
    1.2937   -1.0442    0.0000 O   0  0  0  0  0  0  0  0  0  0  0  0
    0.2870   -3.3052    0.0000 C   0  0  0  0  0  0  0  0  0  0  0  0
   -0.0117   -0.4629    0.0000 C   0  0  0  0  0  0  0  0  0  0  0  0
   -0.8367   -0.4629    0.0000 N   0  0  0  0  0  0  0  0  0  0  0  0
   -1.0917    0.3217    0.0000 N   0  0  0  0  0  0  0  0  0  0  0  0
   -0.4242    0.8066    0.0000 C   0  0  0  0  0  0  0  0  0  0  0  0
    0.2432    0.3217    0.0000 O   0  0  0  0  0  0  0  0  0  0  0  0
   -0.4242    1.6316    0.0000 C   0  0  0  0  0  0  0  0  0  0  0  0
   -0.4242    2.4566    0.0000 C   0  0  0  0  0  0  0  0  0  0  0  0
    0.4008    1.6316    0.0000 C   0  0  0  0  0  0  0  0  0  0  0  0
   -1.2492    1.6316    0.0000 C   0  0  0  0  0  0  0  0  0  0  0  0
  1  2  1  0
  1  5  1  0
  2  3  1  0
  3  4  2  0
  3  6  1  0
  6  7  2  0
  6 10  1  0
  7  8  1  0
  8  9  2  0
  9 10  1  0
  9 11  1  0
 11 12  1  0
 11 13  1  0
 11 14  1  0
M  END
>  <DRUGBANK_ID>  (1) 
DB08576

>  <COMMON_NAME>  (1) 
1-(5-TERT-BUTYL-1,3,4-OXADIAZOL-2-YL)-2-(METHYLAMINO)ETHANONE

$$$$
