AHC
     RDKit          2D

 12 12  0  0  0  0  0  0  0  0999 V2000
    0.8281    1.1296    0.0000 C   0  0  0  0  0  0  0  0  0  0  0  0
    1.5426    1.5421    0.0000 C   0  0  0  0  0  0  0  0  0  0  0  0
    1.5426    2.3671    0.0000 O   0  0  0  0  0  0  0  0  0  0  0  0
    2.2570    1.1296    0.0000 O   0  0  0  0  0  0  0  0  0  0  0  0
    0.8281    0.3046    0.0000 C   0  0  0  0  0  0  0  0  0  0  0  0
    0.1136   -0.1079    0.0000 C   0  0  0  0  0  0  0  0  0  0  0  0
    0.1136   -0.9329    0.0000 C   0  0  0  0  0  0  0  0  0  0  0  0
   -0.6008    0.3046    0.0000 C   0  0  0  0  0  0  0  0  0  0  0  0
   -0.6008   -1.3454    0.0000 C   0  0  0  0  0  0  0  0  0  0  0  0
   -1.3153   -0.1079    0.0000 C   0  0  0  0  0  0  0  0  0  0  0  0
   -1.3153   -0.9329    0.0000 C   0  0  0  0  0  0  0  0  0  0  0  0
   -2.0298   -1.3454    0.0000 N   0  0  0  0  0  0  0  0  0  0  0  0
  1  2  1  0
  1  5  1  0
  2  3  2  0
  2  4  1  0
  5  6  1  0
  6  7  2  0
  6  8  1  0
  7  9  1  0
  8 10  2  0
  9 11  2  0
 10 11  1  0
 11 12  1  0
M  END
>  <DRUGBANK_ID>  (1) 
DB03210

>  <SECONDARY_ACCESSION_NUMBERS>  (1) 
EXPT00463

>  <COMMON_NAME>  (1) 
4-Aminohydrocinnamic Acid

>  <UNII>  (1) 
00J8IS9IQI

$$$$
