
     RDKit          2D

 30 31  0  0  0  0  0  0  0  0999 V2000
    0.7020   -1.4511    0.0000 C   0  0  0  0  0  0  0  0  0  0  0  0
   -0.0117   -1.0373    0.0000 C   0  0  0  0  0  0  0  0  0  0  0  0
    0.6987   -2.2751    0.0000 C   0  0  0  0  0  0  0  0  0  0  0  0
    1.4158   -1.0407    0.0000 C   0  0  0  0  0  0  0  0  0  0  0  0
   -0.0117   -0.2132    0.0000 O   0  0  0  0  0  0  0  0  0  0  0  0
   -0.7288   -1.4511    0.0000 C   0  0  0  0  0  0  0  0  0  0  0  0
    1.4089   -2.6922    0.0000 C   0  0  0  0  0  0  0  0  0  0  0  0
   -0.0117   -2.6888    0.0000 C   0  0  0  0  0  0  0  0  0  0  0  0
    1.4191   -0.2166    0.0000 C   0  0  0  0  0  0  0  0  0  0  0  0
    2.1295   -1.4580    0.0000 C   0  0  0  0  0  0  0  0  0  0  0  0
   -0.7254    0.2005    0.0000 C   0  0  0  0  0  0  0  0  0  0  0  0
   -0.7288   -2.2751    0.0000 C   0  0  0  0  0  0  0  0  0  0  0  0
    2.1260   -2.2820    0.0000 C   0  0  0  0  0  0  0  0  0  0  0  0
   -1.4391   -0.2132    0.0000 C   0  0  0  0  0  0  0  0  0  0  0  0
   -0.7218    1.0245    0.0000 O   0  0  0  0  0  0  0  0  0  0  0  0
   -1.4426   -2.6888    0.0000 C   0  0  0  0  0  0  0  0  0  0  0  0
   -2.1529    0.2005    0.0000 C   0  0  0  0  0  0  0  0  0  0  0  0
   -1.4391   -1.0373    0.0000 C   0  0  0  0  0  0  0  0  0  0  0  0
   -2.8666   -0.2098    0.0000 C   0  0  0  0  0  0  0  0  0  0  0  0
    2.8351   -1.0552    0.0000 C   0  0  0  0  0  0  0  0  0  0  0  0
    2.1491    0.2072    0.0000 C   0  0  0  0  0  0  0  0  0  0  0  0
    2.1511    1.0335    0.0000 C   0  0  0  0  0  0  0  0  0  0  0  0
    0.0088    2.2778    0.0000 C   0  0  0  0  0  0  0  0  0  0  0  0
    0.7255    2.6890    0.0000 C   0  0  0  0  0  0  0  0  0  0  0  0
    1.4387    2.2746    0.0000 C   0  0  0  0  0  0  0  0  0  0  0  0
    1.4366    1.4484    0.0000 C   0  0  0  0  0  0  0  0  0  0  0  0
    2.1599    2.6885    0.0000 O   0  0  0  0  0  0  0  0  0  0  0  0
   -0.7046    2.6922    0.0000 O   0  0  0  0  0  0  0  0  0  0  0  0
    0.0065    1.4528    0.0000 O   0  0  0  0  0  0  0  0  0  0  0  0
    2.8666    1.4442    0.0000 O   0  0  0  0  0  0  0  0  0  0  0  0
  1  2  1  0
  1  3  1  6
  1  4  1  0
  2  5  1  6
  2  6  1  0
  3  7  1  0
  3  8  2  0
  4  9  1  1
  4 10  1  0
  5 11  1  0
  6 12  1  0
  7 13  2  0
  8 12  1  0
  9 21  1  0
 10 13  1  0
 10 20  1  1
 11 14  1  0
 11 15  2  0
 12 16  1  6
 14 17  1  0
 14 18  1  1
 17 19  1  0
 22 21  1  0
 22 26  1  0
 22 30  1  6
 23 24  1  0
 23 28  1  0
 23 29  2  0
 24 25  1  0
 25 26  1  0
 25 27  1  6
M  END
>  <DRUGBANK_ID>  (1) 
DB03785

>  <SECONDARY_ACCESSION_NUMBERS>  (1) 
EXPT02067

>  <COMMON_NAME>  (1) 
Mevinolinic acid

>  <CAS_NUMBER>  (1) 
75225-51-3

>  <UNII>  (1) 
5CLV35Y90C

>  <SYNONYMS>  (1) 
Lovastatin acid

$$$$
