
     RDKit          2D

  9 10  0  0  0  0  0  0  0  0999 V2000
    3.3523    1.1104    0.0000 C   0  0  0  0  0  0  0  0  0  0  0  0
    3.3523    1.9354    0.0000 C   0  0  0  0  0  0  0  0  0  0  0  0
    2.6378    0.6979    0.0000 C   0  0  0  0  0  0  0  0  0  0  0  0
    2.6378    2.3479    0.0000 C   0  0  0  0  0  0  0  0  0  0  0  0
    0.6538    1.5229    0.0000 C   0  0  0  0  0  0  0  0  0  0  0  0
    1.9233    1.1104    0.0000 C   0  0  0  0  0  0  0  0  0  0  0  0
    1.9233    1.9354    0.0000 C   0  0  0  0  0  0  0  0  0  0  0  0
    1.1387    0.8555    0.0000 N   0  0  0  0  0  0  0  0  0  0  0  0
    1.1387    2.1904    0.0000 N   0  0  0  0  0  0  0  0  0  0  0  0
  2  1  2  0
  3  1  1  0
  4  2  1  0
  6  3  2  0
  7  4  2  0
  7  6  1  0
  8  5  2  0
  8  6  1  0
  9  5  1  0
  9  7  1  0
M  END
>  <DRUGBANK_ID>  (1) 
DB02962

>  <SECONDARY_ACCESSION_NUMBERS>  (1) 
EXPT00791

>  <COMMON_NAME>  (1) 
Benzimidazole

>  <CAS_NUMBER>  (1) 
51-17-2

>  <UNII>  (1) 
E24GX49LD8

$$$$
