
     RDKit          2D

 22 24  0  0  0  0  0  0  0  0999 V2000
   -0.8497   -0.3346    0.0000 C   0  0  0  0  0  0  0  0  0  0  0  0
   -1.2505    0.3578    0.0000 C   0  0  0  0  0  0  0  0  0  0  0  0
   -0.0480   -0.3346    0.0000 N   0  0  0  0  0  0  0  0  0  0  0  0
   -1.2638   -1.0568    0.0000 C   0  0  0  0  0  0  0  0  0  0  0  0
   -0.8630    1.0766    0.0000 C   0  0  0  0  0  0  0  0  0  0  0  0
   -2.0888    0.3578    0.0000 C   0  0  0  0  0  0  0  0  0  0  0  0
    0.3130    0.4040    0.0000 C   0  0  0  0  0  0  0  0  0  0  0  0
    0.3229   -1.0735    0.0000 C   0  0  0  0  0  0  0  0  0  0  0  0
   -2.0888   -1.0568    0.0000 C   0  0  0  0  0  0  0  0  0  0  0  0
   -0.8497   -1.7758    0.0000 C   0  0  0  0  0  0  0  0  0  0  0  0
   -1.2638    1.7790    0.0000 C   0  0  0  0  0  0  0  0  0  0  0  0
   -2.4996    1.0700    0.0000 C   0  0  0  0  0  0  0  0  0  0  0  0
    1.1181    0.5764    0.0000 C   0  0  0  0  0  0  0  0  0  0  0  0
    1.1181   -1.2656    0.0000 C   0  0  0  0  0  0  0  0  0  0  0  0
   -2.4996   -1.7758    0.0000 C   0  0  0  0  0  0  0  0  0  0  0  0
   -1.2638   -2.4848    0.0000 C   0  0  0  0  0  0  0  0  0  0  0  0
   -2.0888    1.7790    0.0000 C   0  0  0  0  0  0  0  0  0  0  0  0
    1.7641    0.0595    0.0000 N   0  0  0  0  0  0  0  0  0  0  0  0
    1.7641   -0.7488    0.0000 C   0  0  0  0  0  0  0  0  0  0  0  0
   -2.0888   -2.4980    0.0000 C   0  0  0  0  0  0  0  0  0  0  0  0
   -2.4996    2.4980    0.0000 Cl  0  0  0  0  0  0  0  0  0  0  0  0
    2.4996    0.4339    0.0000 C   0  0  0  0  0  0  0  0  0  0  0  0
  1  2  1  0
  1  3  1  0
  1  4  1  0
  2  5  2  0
  2  6  1  0
  3  7  1  0
  3  8  1  0
  4  9  2  0
  4 10  1  0
  5 11  1  0
  6 12  2  0
  7 13  1  0
  8 14  1  0
  9 15  1  0
 10 16  2  0
 11 17  2  0
 12 17  1  0
 13 18  1  0
 14 19  1  0
 15 20  2  0
 16 20  1  0
 17 21  1  0
 18 22  1  0
 18 19  1  0
M  END
>  <DRUGBANK_ID>  (1) 
DB15979

>  <COMMON_NAME>  (1) 
Homochlorcyclizine

>  <CAS_NUMBER>  (1) 
848-53-3

>  <UNII>  (1) 
N5MVC31W2N

>  <SYNONYMS>  (1) 
Homochlorcyclizine; Homochlorcyclizinum; Homoclorociclizina

$$$$
