Indole.mol
     RDKit          2D

  9 10  0  0  0  0  0  0  0  0999 V2000
   -0.8643   -0.6674    0.0000 N   0  0  0  0  0  0  0  0  0  0  0  0
   -1.3492    0.0000    0.0000 C   0  0  0  0  0  0  0  0  0  0  0  0
   -0.8643    0.6674    0.0000 C   0  0  0  0  0  0  0  0  0  0  0  0
   -0.0797    0.4125    0.0000 C   0  0  0  0  0  0  0  0  0  0  0  0
    0.6348    0.8250    0.0000 C   0  0  0  0  0  0  0  0  0  0  0  0
    1.3492    0.4125    0.0000 C   0  0  0  0  0  0  0  0  0  0  0  0
    1.3492   -0.4125    0.0000 C   0  0  0  0  0  0  0  0  0  0  0  0
    0.6348   -0.8250    0.0000 C   0  0  0  0  0  0  0  0  0  0  0  0
   -0.0797   -0.4125    0.0000 C   0  0  0  0  0  0  0  0  0  0  0  0
  1  2  1  0
  1  9  1  0
  2  3  2  0
  3  4  1  0
  4  5  1  0
  4  9  2  0
  5  6  2  0
  6  7  1  0
  7  8  2  0
  8  9  1  0
M  END
>  <DRUGBANK_ID>  (1) 
DB04532

>  <SECONDARY_ACCESSION_NUMBERS>  (1) 
EXPT01882

>  <COMMON_NAME>  (1) 
Indole

>  <CAS_NUMBER>  (1) 
120-72-9

>  <UNII>  (1) 
8724FJW4M5

$$$$
