
     RDKit          2D

 11 11  0  0  1  0  0  0  0  0999 V2000
    1.4289    0.8250    0.0000 C   0  0  0  0  0  0  0  0  0  0  0  0
    0.0000    0.0000    0.0000 C   0  0  0  0  0  0  0  0  0  0  0  0
    0.7145    1.2375    0.0000 C   0  0  0  0  0  0  0  0  0  0  0  0
    0.0000    0.8250    0.0000 C   0  0  0  0  0  0  0  0  0  0  0  0
    1.4289   -0.0000    0.0000 C   0  0  0  0  0  0  0  0  0  0  0  0
    2.1434   -0.4125    0.0000 C   0  0  0  0  0  0  0  0  0  0  0  0
    0.7145    2.0625    0.0000 O   0  0  0  0  0  0  0  0  0  0  0  0
   -0.7145    1.2375    0.0000 O   0  0  0  0  0  0  0  0  0  0  0  0
    2.8579   -0.0000    0.0000 O   0  0  0  0  0  0  0  0  0  0  0  0
    2.1434   -1.2375    0.0000 O   0  0  0  0  0  0  0  0  0  0  0  0
    0.7145   -0.4125    0.0000 O   0  0  0  0  0  0  0  0  0  0  0  0
  3  1  1  0
  3  7  1  1
  4  2  1  0
  4  3  1  0
  4  8  1  6
  5  1  2  0
  6  5  1  0
  9  6  2  0
 10  6  1  0
 11  2  1  0
 11  5  1  0
M  END
>  <DRUGBANK_ID>  (1) 
DB03284

>  <SECONDARY_ACCESSION_NUMBERS>  (1) 
EXPT01544

>  <COMMON_NAME>  (1) 
2,6-Anhydro-3-Deoxy-D-Erythro-Hex-2-Enonic Acid

$$$$
