I40
     RDKit          2D

 23 26  0  0  0  0  0  0  0  0999 V2000
    0.9577    2.0686    0.0000 C   0  0  0  0  0  0  0  0  0  0  0  0
    1.6722    1.6561    0.0000 C   0  0  0  0  0  0  0  0  0  0  0  0
    1.6722    0.8311    0.0000 C   0  0  0  0  0  0  0  0  0  0  0  0
    0.9577    0.4186    0.0000 C   0  0  0  0  0  0  0  0  0  0  0  0
   -0.4712    0.4186    0.0000 C   0  0  0  0  0  0  0  0  0  0  0  0
   -1.9001    0.4186    0.0000 C   0  0  0  0  0  0  0  0  0  0  0  0
   -2.6146    0.8311    0.0000 C   0  0  0  0  0  0  0  0  0  0  0  0
   -2.6146    1.6561    0.0000 C   0  0  0  0  0  0  0  0  0  0  0  0
   -1.9001    2.0686    0.0000 C   0  0  0  0  0  0  0  0  0  0  0  0
   -0.4712    2.0686    0.0000 N   0  0  0  0  0  0  0  0  0  0  0  0
    0.2433    1.6561    0.0000 C   0  0  0  0  0  0  0  0  0  0  0  0
    0.2433    0.8311    0.0000 C   0  0  0  0  0  0  0  0  0  0  0  0
   -1.1857    0.8311    0.0000 C   0  0  0  0  0  0  0  0  0  0  0  0
   -1.1857    1.6561    0.0000 C   0  0  0  0  0  0  0  0  0  0  0  0
   -0.4712   -0.4064    0.0000 N   0  0  0  0  0  0  0  0  0  0  0  0
    1.6722   -3.2939    0.0000 I   0  0  0  0  0  0  0  0  0  0  0  0
    0.2433   -0.8189    0.0000 C   0  0  0  0  0  0  0  0  0  0  0  0
    0.2433   -1.6439    0.0000 C   0  0  0  0  0  0  0  0  0  0  0  0
    0.9577   -2.0564    0.0000 C   0  0  0  0  0  0  0  0  0  0  0  0
    0.9577   -2.8814    0.0000 C   0  0  0  0  0  0  0  0  0  0  0  0
    0.2433   -3.2939    0.0000 C   0  0  0  0  0  0  0  0  0  0  0  0
   -0.4712   -2.8814    0.0000 C   0  0  0  0  0  0  0  0  0  0  0  0
   -0.4712   -2.0564    0.0000 C   0  0  0  0  0  0  0  0  0  0  0  0
  1  2  1  0
  1 11  1  0
  2  3  1  0
  3  4  1  0
  4 12  1  0
  5 12  2  0
  5 13  1  0
  5 15  1  0
  6  7  1  0
  6 13  2  0
  7  8  2  0
  8  9  1  0
  9 14  2  0
 10 11  2  0
 10 14  1  0
 11 12  1  0
 13 14  1  0
 15 17  1  0
 16 20  1  0
 17 18  1  0
 18 19  2  0
 18 23  1  0
 19 20  1  0
 20 21  2  0
 21 22  1  0
 22 23  2  0
M  END
>  <DRUGBANK_ID>  (1) 
DB07940

>  <COMMON_NAME>  (1) 
9-(3-IODOBENZYLAMINO)-1,2,3,4-TETRAHYDROACRIDINE

$$$$
