
     RDKit          2D

  1  0  0  0  0  0  0  0  0  0999 V2000
    0.4125    0.0000    0.0000 O   0  0  0  0  0  0  0  0  0  0  0  0
M  CHG  1   1  -1
M  END
>  <DRUGBANK_ID>  (1) 
DB14522

>  <COMMON_NAME>  (1) 
Hydroxide ion

>  <CAS_NUMBER>  (1) 
14280-30-9

>  <UNII>  (1) 
9159UV381P

>  <SYNONYMS>  (1) 
Hydroxide; Oxidanide

$$$$
