
     RDKit          2D

  2  1  0  0  0  0  0  0  0  0999 V2000
    0.4125    0.0000    0.0000 O   0  0  0  0  0  0  0  0  0  0  0  0
   -0.4125    0.0000    0.0000 C   0  0  0  0  0  0  0  0  0  0  0  0
  2  1  3  0
M  CHG  2   1   1   2  -1
M  END
>  <DRUGBANK_ID>  (1) 
DB11588

>  <COMMON_NAME>  (1) 
Carbon monoxide

>  <CAS_NUMBER>  (1) 
630-08-0

>  <UNII>  (1) 
7U1EE4V452

>  <SYNONYMS>  (1) 
Carbon monoxide; carbon(II) oxide; Carboneum oxygenisatum; CO

$$$$
