
     RDKit          2D

 33 35  0  0  1  0  0  0  0  0999 V2000
    6.5937   -1.7826    0.0000 C   0  0  0  0  0  0  0  0  0  0  0  0
    6.5937   -0.9576    0.0000 C   0  0  0  0  0  0  0  0  0  0  0  0
    5.8792   -0.5451    0.0000 C   0  0  0  0  0  0  0  0  0  0  0  0
    5.1647   -0.9576    0.0000 C   0  0  0  0  0  0  0  0  0  0  0  0
    4.4502   -0.5451    0.0000 C   0  0  0  0  0  0  0  0  0  0  0  0
    3.7358   -0.9576    0.0000 O   0  0  0  0  0  0  0  0  0  0  0  0
    3.0213   -0.5451    0.0000 C   0  0  0  0  0  0  0  0  0  0  0  0
    2.3068   -0.9576    0.0000 C   0  0  0  0  0  0  0  0  0  0  0  0
    1.5924   -0.5451    0.0000 C   0  0  0  0  0  0  0  0  0  0  0  0
    1.5924    0.2799    0.0000 C   0  0  0  0  0  0  0  0  0  0  0  0
    2.3068    0.6924    0.0000 C   0  0  0  0  0  0  0  0  0  0  0  0
    3.0213    0.2799    0.0000 C   0  0  0  0  0  0  0  0  0  0  0  0
    3.7358    0.6924    0.0000 C   0  0  0  0  0  0  0  0  0  0  0  0
    3.7358    1.5174    0.0000 N   0  0  0  0  0  0  0  0  0  0  0  0
    3.0683    2.0023    0.0000 C   0  0  0  0  0  0  0  0  0  0  0  0
    2.2837    1.7474    0.0000 C   0  0  0  0  0  0  0  0  0  0  0  0
    3.3233    2.7869    0.0000 C   0  0  0  0  0  0  0  0  0  0  0  0
    4.1483    2.7869    0.0000 N   0  0  0  0  0  0  0  0  0  0  0  0
    4.4032    2.0023    0.0000 C   0  0  0  0  0  0  0  0  0  0  0  0
    5.1878    1.7474    0.0000 C   0  0  0  0  0  0  0  0  0  0  0  0
    5.8009    2.2994    0.0000 C   0  0  0  0  0  0  0  0  0  0  0  0
    6.5856    2.0445    0.0000 C   0  0  0  0  0  0  0  0  0  0  0  0
    6.7571    1.2375    0.0000 C   0  0  0  0  0  0  0  0  0  0  0  0
    6.1440    0.6855    0.0000 C   0  0  0  0  0  0  0  0  0  0  0  0
    5.3594    0.9404    0.0000 C   0  0  0  0  0  0  0  0  0  0  0  0
    7.5417    0.9826    0.0000 C   0  0  0  0  0  0  0  0  0  0  0  0
    8.3263    0.7276    0.0000 F   0  0  0  0  0  0  0  0  0  0  0  0
    7.7966    1.7672    0.0000 F   0  0  0  0  0  0  0  0  0  0  0  0
    7.2868    0.1979    0.0000 F   0  0  0  0  0  0  0  0  0  0  0  0
    7.3081   -0.5451    0.0000 C   0  0  0  0  0  0  0  0  0  0  0  0
    8.0226   -0.9576    0.0000 C   0  0  0  0  0  0  0  0  0  0  0  0
    8.7371   -0.5451    0.0000 O   0  0  0  0  0  0  0  0  0  0  0  0
    8.0226   -1.7826    0.0000 O   0  0  0  0  0  0  0  0  0  0  0  0
  2  1  1  6
  2  3  1  0
  2 30  1  0
  3  4  1  0
  4  5  1  0
  5  6  1  0
  6  7  1  0
  7  8  2  0
  7 12  1  0
  8  9  1  0
  9 10  2  0
 10 11  1  0
 11 12  2  0
 12 13  1  0
 13 14  1  0
 14 15  1  0
 14 19  1  0
 15 16  1  0
 15 17  2  0
 17 18  1  0
 18 19  2  0
 19 20  1  0
 20 21  2  0
 20 25  1  0
 21 22  1  0
 22 23  2  0
 23 24  1  0
 23 26  1  0
 24 25  2  0
 26 27  1  0
 26 28  1  0
 26 29  1  0
 30 31  1  0
 31 32  1  0
 31 33  2  0
M  END
>  <DRUGBANK_ID>  (1) 
DB16906

>  <COMMON_NAME>  (1) 
Bocidelpar

>  <CAS_NUMBER>  (1) 
2095128-20-2

>  <UNII>  (1) 
FKO8A7AD54

>  <SYNONYMS>  (1) 
Hexanoic acid, 3-methyl-6-(2-((5-methyl-2-(4-(trifluoromethyl)phenyl)-1h-imidazol-1-yl)methyl)phenoxy)-, (3r)-

$$$$
