
     RDKit          2D

 21 23  0  0  0  0  0  0  0  0999 V2000
   -3.0937    0.3082    0.0000 C   0  0  0  0  0  0  0  0  0  0  0  0
    3.0937   -1.8351    0.0000 C   0  0  0  0  0  0  0  0  0  0  0  0
    2.2189    1.3048    0.0000 C   0  0  0  0  0  0  0  0  0  0  0  0
    1.3004    1.8351    0.0000 C   0  0  0  0  0  0  0  0  0  0  0  0
   -2.2687    0.3082    0.0000 C   0  0  0  0  0  0  0  0  0  0  0  0
   -1.8562   -0.4062    0.0000 C   0  0  0  0  0  0  0  0  0  0  0  0
    3.0937   -0.4062    0.0000 C   0  0  0  0  0  0  0  0  0  0  0  0
    2.6812    0.3082    0.0000 C   0  0  0  0  0  0  0  0  0  0  0  0
    1.8562   -1.1207    0.0000 C   0  0  0  0  0  0  0  0  0  0  0  0
   -0.6187   -1.1207    0.0000 C   0  0  0  0  0  0  0  0  0  0  0  0
   -0.6187    0.3082    0.0000 C   0  0  0  0  0  0  0  0  0  0  0  0
    2.6812   -1.1207    0.0000 C   0  0  0  0  0  0  0  0  0  0  0  0
   -1.0312   -0.4062    0.0000 C   0  0  0  0  0  0  0  0  0  0  0  0
    1.4437   -0.4062    0.0000 C   0  0  0  0  0  0  0  0  0  0  0  0
    1.8562    0.3082    0.0000 C   0  0  0  0  0  0  0  0  0  0  0  0
    0.2062   -1.1207    0.0000 C   0  0  0  0  0  0  0  0  0  0  0  0
    0.2062    0.3082    0.0000 C   0  0  0  0  0  0  0  0  0  0  0  0
    0.6187   -0.4062    0.0000 C   0  0  0  0  0  0  0  0  0  0  0  0
    1.4437    1.0227    0.0000 C   0  0  0  0  0  0  0  0  0  0  0  0
    0.6187   -1.8351    0.0000 O   0  0  0  0  0  0  0  0  0  0  0  0
    0.6187    1.0227    0.0000 O   0  0  0  0  0  0  0  0  0  0  0  0
  5  1  1  0
  6  5  1  0
  8  7  2  0
 12  2  1  0
 12  7  1  0
 12  9  2  0
 13  6  1  0
 13 10  2  0
 13 11  1  0
 14  9  1  0
 15  8  1  0
 15 14  2  0
 16 10  1  0
 17 11  2  0
 18 14  1  0
 18 16  2  0
 18 17  1  0
 19  3  1  0
 19  4  1  0
 19 15  1  0
 20 16  1  0
 21 17  1  0
 21 19  1  0
M  END
>  <DRUGBANK_ID>  (1) 
DB14736

>  <COMMON_NAME>  (1) 
Cannabivarin

>  <CAS_NUMBER>  (1) 
33745-21-0

>  <UNII>  (1) 
MHH8UW410N

>  <SYNONYMS>  (1) 
Cannabivarol; CBV

$$$$
