TQT
     RDKit          2D

 22 25  0  0  0  0  0  0  0  0999 V2000
    0.7637    2.8031    0.0000 C   0  0  0  0  0  0  0  0  0  0  0  0
   -0.5954    2.3616    0.0000 C   0  0  0  0  0  0  0  0  0  0  0  0
   -0.3404    1.5769    0.0000 C   0  0  0  0  0  0  0  0  0  0  0  0
   -0.6375    0.1792    0.0000 C   0  0  0  0  0  0  0  0  0  0  0  0
    0.1695    0.0077    0.0000 C   0  0  0  0  0  0  0  0  0  0  0  0
    0.4666    1.4054    0.0000 C   0  0  0  0  0  0  0  0  0  0  0  0
   -1.1895   -0.4339    0.0000 C   0  0  0  0  0  0  0  0  0  0  0  0
   -1.4195   -1.8859    0.0000 C   0  0  0  0  0  0  0  0  0  0  0  0
   -0.1500   -1.4734    0.0000 C   0  0  0  0  0  0  0  0  0  0  0  0
    0.5645   -1.0609    0.0000 C   0  0  0  0  0  0  0  0  0  0  0  0
    1.2790   -1.4734    0.0000 C   0  0  0  0  0  0  0  0  0  0  0  0
    1.2790   -2.2984    0.0000 C   0  0  0  0  0  0  0  0  0  0  0  0
    0.5645   -2.7109    0.0000 C   0  0  0  0  0  0  0  0  0  0  0  0
   -0.1500   -2.2984    0.0000 C   0  0  0  0  0  0  0  0  0  0  0  0
   -0.9346   -2.5534    0.0000 C   0  0  0  0  0  0  0  0  0  0  0  0
    1.0186    2.0185    0.0000 N   0  0  0  0  0  0  0  0  0  0  0  0
    1.3157    3.4162    0.0000 N   0  0  0  0  0  0  0  0  0  0  0  0
   -0.0433    2.9747    0.0000 N   0  0  0  0  0  0  0  0  0  0  0  0
   -1.4023    2.5331    0.0000 N   0  0  0  0  0  0  0  0  0  0  0  0
   -0.8924    0.9638    0.0000 C   0  0  0  0  0  0  0  0  0  0  0  0
    0.7215    0.6208    0.0000 C   0  0  0  0  0  0  0  0  0  0  0  0
   -0.9346   -1.2185    0.0000 N   0  0  0  0  0  0  0  0  0  0  0  0
  1 16  1  0
  1 17  1  6
  1 18  1  0
  2  3  1  0
  2 18  1  0
  2 19  1  6
  3  6  1  0
  3 20  1  1
  4  5  1  0
  4  7  1  6
  4 20  1  0
  5 21  1  0
  6 16  1  0
  6 21  1  1
  7 22  1  0
  8 15  1  0
  8 22  1  0
  9 10  1  1
  9 14  1  0
  9 22  1  0
 10 11  1  0
 11 12  1  0
 12 13  1  0
 14 13  1  6
 14 15  1  0
M  END
>  <DRUGBANK_ID>  (1) 
DB02559

>  <SECONDARY_ACCESSION_NUMBERS>  (1) 
EXPT03103

>  <COMMON_NAME>  (1) 
6-(Octahydro-1h-Indol-1-Ylmethyl)Decahydroquinazoline-2,4-Diamine

$$$$
