
     RDKit          2D

 20 21  0  0  0  0  0  0  0  0999 V2000
    0.3572    0.4124    0.0000 O   0  0  0  0  0  0  0  0  0  0  0  0
   -0.3571    1.6500    0.0000 C   0  0  0  0  0  0  0  0  0  0  0  0
   -0.3571    0.8249    0.0000 C   0  0  0  0  0  0  0  0  0  0  0  0
   -1.0717    2.0625    0.0000 C   0  0  0  0  0  0  0  0  0  0  0  0
   -1.0717    0.4124    0.0000 C   0  0  0  0  0  0  0  0  0  0  0  0
   -1.7862    1.6500    0.0000 C   0  0  0  0  0  0  0  0  0  0  0  0
   -1.7862    0.8249    0.0000 C   0  0  0  0  0  0  0  0  0  0  0  0
    0.3573    2.0625    0.0000 O   0  0  0  0  0  0  0  0  0  0  0  0
   -1.0717   -0.4125    0.0000 C   0  0  0  0  0  0  0  0  0  0  0  0
   -0.3571   -0.8250    0.0000 C   0  0  0  0  0  0  0  0  0  0  0  0
   -0.3571   -1.6500    0.0000 C   0  0  0  0  0  0  0  0  0  0  0  0
   -1.0717   -2.0625    0.0000 N   0  0  0  0  0  0  0  0  0  0  0  0
   -1.7862   -0.8250    0.0000 N   0  0  0  0  0  0  0  0  0  0  0  0
   -1.7862   -1.6500    0.0000 C   0  0  0  0  0  0  0  0  0  0  0  0
   -2.5007   -2.0625    0.0000 S   0  0  0  0  0  0  0  0  0  0  0  0
    0.3572   -0.4125    0.0000 C   0  0  0  0  0  0  0  0  0  0  0  0
    1.0716   -0.8250    0.0000 O   0  0  0  0  0  0  0  0  0  0  0  0
    1.7860   -0.4125    0.0000 C   0  0  0  0  0  0  0  0  0  0  0  0
    2.5007   -0.8250    0.0000 C   0  0  0  0  0  0  0  0  0  0  0  0
    0.3573   -2.0625    0.0000 C   0  0  0  0  0  0  0  0  0  0  0  0
  2  8  1  0
  3  2  2  0
  4  2  1  0
  5  3  1  0
  6  4  2  0
  7  5  2  0
  7  6  1  0
  9  5  1  1
  9 10  1  0
 10 16  1  0
 11 10  2  0
 11 20  1  0
 12 11  1  0
 13  9  1  0
 14 12  1  0
 14 13  1  0
 14 15  2  0
 16  1  2  0
 16 17  1  0
 17 18  1  0
 18 19  1  0
M  END
>  <DRUGBANK_ID>  (1) 
DB04331

>  <SECONDARY_ACCESSION_NUMBERS>  (1) 
EXPT02296

>  <COMMON_NAME>  (1) 
Monastrol

>  <CAS_NUMBER>  (1) 
254753-54-3

>  <UNII>  (1) 
6BSM97YZ8G

>  <SYNONYMS>  (1) 
(+)-Monastrol; (4S)-Monastrol; (S)-monastrol

$$$$
