
     RDKit          2D

 12 13  0  0  0  0  0  0  0  0999 V2000
    0.2184    0.4075    0.0000 C   0  0  0  0  0  0  0  0  0  0  0  0
    0.5997   -0.3838    0.0000 C   0  0  0  0  0  0  0  0  0  0  0  0
    0.2184   -1.2466    0.0000 C   0  0  0  0  0  0  0  0  0  0  0  0
   -0.4918   -0.8320    0.0000 C   0  0  0  0  0  0  0  0  0  0  0  0
   -0.4918   -0.0118    0.0000 C   0  0  0  0  0  0  0  0  0  0  0  0
   -1.2212    0.4075    0.0000 O   0  0  0  0  0  0  0  0  0  0  0  0
   -1.3960   -1.0767    0.0000 Br  0  0  0  0  0  0  0  0  0  0  0  0
    0.9289   -0.8320    0.0000 C   0  0  0  0  0  0  0  0  0  0  0  0
    0.9289   -0.0118    0.0000 C   0  0  0  0  0  0  0  0  0  0  0  0
    1.3960   -0.1120    0.0000 C   0  0  0  0  0  0  0  0  0  0  0  0
    1.3960   -0.6555    0.0000 C   0  0  0  0  0  0  0  0  0  0  0  0
    0.2184    1.2466    0.0000 C   0  0  0  0  0  0  0  0  0  0  0  0
  1  2  1  0
  1 12  1  1
  3  2  1  0
  3  4  1  0
  4  5  1  0
  4  7  1  6
  5  1  1  0
  6  5  2  0
  3  8  1  6
  8  9  1  0
  9  1  1  0
 10  2  1  0
 11  2  1  0
M  END
>  <DRUGBANK_ID>  (1) 
DB15915

>  <COMMON_NAME>  (1) 
Camphor monobromide

>  <CAS_NUMBER>  (1) 
76-29-9

>  <UNII>  (1) 
NAY429URSN

>  <SYNONYMS>  (1) 
3-Bromo-d-camphor; 3-Bromocamphor; Camphor bromide; Camphor, monobromated

$$$$
