
     RDKit          2D

 23 24  0  0  0  0  0  0  0  0999 V2000
   -0.3648   -1.9924    0.0000 N   0  0  0  0  0  0  0  0  0  0  0  0
    0.0891   -2.6815    0.0000 N   0  0  0  0  0  0  0  0  0  0  0  0
    0.5429   -3.3704    0.0000 N   0  0  0  0  0  0  0  0  0  0  0  0
    1.6622    1.2578    0.0000 N   0  0  0  0  0  0  0  0  0  0  0  0
    1.0691    1.6137    0.0000 C   0  0  0  0  0  0  0  0  0  0  0  0
    2.2630    1.6137    0.0000 C   0  0  0  0  0  0  0  0  0  0  0  0
    1.0691    2.3141    0.0000 N   0  0  0  0  0  0  0  0  0  0  0  0
    0.3419    1.1977    0.0000 O   0  0  0  0  0  0  0  0  0  0  0  0
    2.2630    2.3141    0.0000 C   0  0  0  0  0  0  0  0  0  0  0  0
    1.6622    2.6700    0.0000 C   0  0  0  0  0  0  0  0  0  0  0  0
    2.8339    2.6641    0.0000 C   0  0  0  0  0  0  0  0  0  0  0  0
    1.6584    3.3704    0.0000 O   0  0  0  0  0  0  0  0  0  0  0  0
    1.6570   -0.3843    0.0000 C   0  0  0  0  0  0  0  0  0  0  0  0
    0.6933   -0.0187    0.0000 O   0  0  0  0  0  0  0  0  0  0  0  0
    1.2789   -1.2933    0.0000 C   0  0  0  0  0  0  0  0  0  0  0  0
   -0.2865   -0.5507    0.0000 C   0  0  0  0  0  0  0  0  0  0  0  0
    0.0732   -1.2933    0.0000 C   0  0  0  0  0  0  0  0  0  0  0  0
   -0.8720   -0.0723    0.0000 C   0  0  0  0  0  0  0  0  0  0  0  0
   -1.6965   -0.0423    0.0000 O   0  0  0  0  0  0  0  0  0  0  0  0
   -2.1349   -0.7413    0.0000 P   0  0  0  0  0  0  0  0  0  0  0  0
   -1.4358   -1.1797    0.0000 O   0  0  0  0  0  0  0  0  0  0  0  0
   -2.5731   -1.4404    0.0000 O   0  0  0  0  0  0  0  0  0  0  0  0
   -2.8339   -0.3030    0.0000 O   0  0  0  0  0  0  0  0  0  0  0  0
  1  2  2  0
  2  3  2  0
  4  5  1  0
  4  6  1  0
  5  7  1  0
  5  8  2  0
  6  9  2  0
  7 10  1  0
  9 11  1  0
  9 10  1  0
 10 12  2  0
 13  4  1  1
 13 14  1  0
 13 15  1  0
 14 16  1  0
 15 17  1  0
 16 18  1  1
 16 17  1  0
 17  1  1  6
 18 19  1  0
 19 20  1  0
 20 21  1  0
 20 22  1  0
 20 23  2  0
M  CHG  2   2   1   3  -1
M  END
>  <DRUGBANK_ID>  (1) 
DB03666

>  <SECONDARY_ACCESSION_NUMBERS>  (1) 
EXPT00583

>  <COMMON_NAME>  (1) 
Zidovudine monophosphate

>  <CAS_NUMBER>  (1) 
29706-85-2

>  <UNII>  (1) 
97YMU05VPJ

>  <SYNONYMS>  (1) 
3'-Azido-2',3'-deoxythymidine 5'-monophosphate; 3'-Azido-3'-deoxythymidine 5'-phosphate; AZTMP; Zdv 5'-monophosphate; ZDVMP; Zidovudine 5'-monophosphate

$$$$
