
     RDKit          2D

 31 32  0  0  0  0  0  0  0  0999 V2000
   -0.0383    0.7466    0.0000 S   0  0  0  0  0  0  0  0  0  0  0  0
   -2.1818    2.8091    0.0000 P   0  0  0  0  0  0  0  0  0  0  0  0
   -2.1818    1.9840    0.0000 O   0  0  0  0  0  0  0  0  0  0  0  0
    0.6761    0.3341    0.0000 O   0  0  0  0  0  0  0  0  0  0  0  0
   -0.7529    1.9840    0.0000 O   0  0  0  0  0  0  0  0  0  0  0  0
   -2.1818    3.6341    0.0000 O   0  0  0  0  0  0  0  0  0  0  0  0
   -3.0067    2.8091    0.0000 O   0  0  0  0  0  0  0  0  0  0  0  0
   -1.3567    2.8091    0.0000 O   0  0  0  0  0  0  0  0  0  0  0  0
   -0.0383   -0.9034    0.0000 N   0  0  0  0  0  0  0  0  0  0  0  0
    1.3905   -3.3784    0.0000 N   0  0  0  0  0  0  0  0  0  0  0  0
    2.1051   -2.1409    0.0000 N   0  0  0  0  0  0  0  0  0  0  0  0
   -0.0383   -3.3784    0.0000 N   0  0  0  0  0  0  0  0  0  0  0  0
   -0.7529   -0.4908    0.0000 C   0  0  0  0  0  0  0  0  0  0  0  0
   -0.0383   -1.7283    0.0000 C   0  0  0  0  0  0  0  0  0  0  0  0
   -0.7529    0.3341    0.0000 C   0  0  0  0  0  0  0  0  0  0  0  0
   -1.4673    0.7466    0.0000 C   0  0  0  0  0  0  0  0  0  0  0  0
    0.6761   -2.1409    0.0000 C   0  0  0  0  0  0  0  0  0  0  0  0
   -1.4673    1.5716    0.0000 C   0  0  0  0  0  0  0  0  0  0  0  0
   -1.4673   -0.9034    0.0000 C   0  0  0  0  0  0  0  0  0  0  0  0
    0.6761   -2.9658    0.0000 C   0  0  0  0  0  0  0  0  0  0  0  0
    0.6761   -0.4908    0.0000 C   0  0  0  0  0  0  0  0  0  0  0  0
    1.3905   -1.7283    0.0000 C   0  0  0  0  0  0  0  0  0  0  0  0
   -0.0383    1.5716    0.0000 C   0  0  0  0  0  0  0  0  0  0  0  0
    2.1051   -2.9658    0.0000 C   0  0  0  0  0  0  0  0  0  0  0  0
    0.6761    1.9840    0.0000 C   0  0  0  0  0  0  0  0  0  0  0  0
    2.8195   -3.3784    0.0000 C   0  0  0  0  0  0  0  0  0  0  0  0
    1.3905    1.5716    0.0000 C   0  0  0  0  0  0  0  0  0  0  0  0
    0.6761    2.8091    0.0000 C   0  0  0  0  0  0  0  0  0  0  0  0
    2.1051    1.9840    0.0000 C   0  0  0  0  0  0  0  0  0  0  0  0
    1.3905    3.2216    0.0000 C   0  0  0  0  0  0  0  0  0  0  0  0
    2.1051    2.8091    0.0000 C   0  0  0  0  0  0  0  0  0  0  0  0
  1 15  1  0
  1 23  1  0
  2  3  1  0
  2  6  1  0
  2  7  1  0
  2  8  2  0
  3 18  1  0
  4 21  2  0
  5 23  2  0
  9 13  1  0
  9 14  1  0
  9 21  1  0
 10 20  2  0
 10 24  1  0
 11 22  1  0
 11 24  2  0
 12 20  1  0
 13 15  2  0
 13 19  1  0
 14 17  1  0
 15 16  1  0
 16 18  1  0
 17 20  1  0
 17 22  2  0
 23 25  1  0
 24 26  1  0
 25 27  2  0
 25 28  1  0
 27 29  1  0
 28 30  2  0
 29 31  2  0
 30 31  1  0
M  END
>  <DRUGBANK_ID>  (1) 
DB11748

>  <COMMON_NAME>  (1) 
Benfotiamine

>  <CAS_NUMBER>  (1) 
22457-89-2

>  <UNII>  (1) 
Y92OUS2H9B

>  <SYNONYMS>  (1) 
Benfotiamina; Benfotiamine; Benphothiamine; Benzoylthiamine monophosphate; S-benzoylthiamine monophosphate

$$$$
