
     RDKit          2D

  5  4  0  0  0  0  0  0  0  0999 V2000
    0.0000    0.8250    0.0000 O   0  0  0  0  0  0  0  0  0  0  0  0
   -0.0000   -0.8250    0.0000 O   0  0  0  0  0  0  0  0  0  0  0  0
   -0.8250    0.0000    0.0000 O   0  0  0  0  0  0  0  0  0  0  0  0
    0.8250    0.0000    0.0000 S   0  0  0  0  0  0  0  0  0  0  0  0
    0.0000    0.0000    0.0000 S   0  0  0  0  0  0  0  0  0  0  0  0
  5  1  1  0
  5  2  1  0
  5  3  2  0
  5  4  2  0
M  END
>  <DRUGBANK_ID>  (1) 
DB09499

>  <COMMON_NAME>  (1) 
Thiosulfuric acid

>  <CAS_NUMBER>  (1) 
13686-28-7

>  <UNII>  (1) 
7K79Y2EKKP

>  <SYNONYMS>  (1) 
Monosulfanemonosulfonic acid; Sulfurothioic S-acid

$$$$
