TRR
     RDKit          2D

 21 22  0  0  0  0  0  0  0  0999 V2000
    2.0947    0.7105    0.0000 N   0  0  0  0  0  0  0  0  0  0  0  0
    2.8092    0.2980    0.0000 C   0  0  0  0  0  0  0  0  0  0  0  0
    3.5237    0.7105    0.0000 N   0  0  0  0  0  0  0  0  0  0  0  0
    2.8092   -0.5270    0.0000 N   0  0  0  0  0  0  0  0  0  0  0  0
    2.0947   -0.9395    0.0000 C   0  0  0  0  0  0  0  0  0  0  0  0
    2.0947   -1.7645    0.0000 N   0  0  0  0  0  0  0  0  0  0  0  0
    1.3802   -0.5270    0.0000 C   0  0  0  0  0  0  0  0  0  0  0  0
    1.3802    0.2980    0.0000 C   0  0  0  0  0  0  0  0  0  0  0  0
    0.6658   -0.9395    0.0000 C   0  0  0  0  0  0  0  0  0  0  0  0
   -0.0487   -0.5270    0.0000 C   0  0  0  0  0  0  0  0  0  0  0  0
   -0.7632   -0.9395    0.0000 C   0  0  0  0  0  0  0  0  0  0  0  0
   -1.4776   -0.5270    0.0000 C   0  0  0  0  0  0  0  0  0  0  0  0
   -1.4776    0.2980    0.0000 C   0  0  0  0  0  0  0  0  0  0  0  0
   -0.7632    0.7105    0.0000 C   0  0  0  0  0  0  0  0  0  0  0  0
   -0.0487    0.2980    0.0000 C   0  0  0  0  0  0  0  0  0  0  0  0
   -2.1921   -0.9395    0.0000 O   0  0  0  0  0  0  0  0  0  0  0  0
   -2.1921    0.7105    0.0000 O   0  0  0  0  0  0  0  0  0  0  0  0
   -0.7632    1.5355    0.0000 O   0  0  0  0  0  0  0  0  0  0  0  0
   -2.9066   -0.5270    0.0000 C   0  0  0  0  0  0  0  0  0  0  0  0
   -2.9066    0.2980    0.0000 C   0  0  0  0  0  0  0  0  0  0  0  0
   -0.0487    1.9480    0.0000 C   0  0  0  0  0  0  0  0  0  0  0  0
  1  2  2  0
  1  8  1  0
  2  3  1  0
  2  4  1  0
  4  5  2  0
  5  6  1  0
  5  7  1  0
  7  8  2  0
  7  9  1  0
  9 10  1  0
 10 11  2  0
 10 15  1  0
 11 12  1  0
 12 13  2  0
 12 16  1  0
 13 14  1  0
 13 17  1  0
 14 15  2  0
 14 18  1  0
 16 19  1  0
 17 20  1  0
 18 21  1  0
M  CHG  1   1   1
M  END
>  <DRUGBANK_ID>  (1) 
DB03125

>  <SECONDARY_ACCESSION_NUMBERS>  (1) 
EXPT03114

>  <COMMON_NAME>  (1) 
2,4-Diamino-5-(3,4,5-Trimethoxy-Benzyl)-Pyrimidin-1-Ium

$$$$
