
     RDKit          2D

 16 16  0  0  1  0  0  0  0  0999 V2000
    2.1434    1.2375    0.0000 C   0  0  0  0  0  0  0  0  0  0  0  0
    1.4289    0.8250    0.0000 C   0  0  0  0  0  0  0  0  0  0  0  0
    0.7145    1.2375    0.0000 C   0  0  0  0  0  0  0  0  0  0  0  0
    0.0000    0.0000    0.0000 C   0  0  0  0  0  0  0  0  0  0  0  0
    0.0000    0.8250    0.0000 C   0  0  0  0  0  0  0  0  0  0  0  0
    0.7145   -0.4125    0.0000 C   0  0  0  0  0  0  0  0  0  0  0  0
    2.8579    0.8250    0.0000 O   0  0  0  0  0  0  0  0  0  0  0  0
    0.7145    2.0625    0.0000 O   0  0  0  0  0  0  0  0  0  0  0  0
   -0.7145   -0.4125    0.0000 O   0  0  0  0  0  0  0  0  0  0  0  0
    0.7145   -1.2375    0.0000 O   0  0  0  0  0  0  0  0  0  0  0  0
   -2.1434    0.4125    0.0000 O   0  0  0  0  0  0  0  0  0  0  0  0
   -1.8414    1.5395    0.0000 O   0  0  0  0  0  0  0  0  0  0  0  0
   -1.0164    0.1105    0.0000 O   0  0  0  0  0  0  0  0  0  0  0  0
    1.4289   -0.0000    0.0000 O   0  0  0  0  0  0  0  0  0  0  0  0
   -0.7145    1.2375    0.0000 O   0  0  0  0  0  0  0  0  0  0  0  0
   -1.4289    0.8250    0.0000 S   0  0  0  0  0  0  0  0  0  0  0  0
  2  1  1  1
  3  2  1  0
  3  8  1  1
  4  9  1  6
  5  3  1  0
  5  4  1  0
  5 15  1  1
  6  4  1  0
  6 10  1  1
  7  1  1  0
 14  2  1  0
 14  6  1  0
 16 11  1  0
 16 12  2  0
 16 13  2  0
 16 15  1  0
M  END
>  <DRUGBANK_ID>  (1) 
DB01818

>  <SECONDARY_ACCESSION_NUMBERS>  (1) 
EXPT02894

>  <COMMON_NAME>  (1) 
O3-Sulfonylgalactose

$$$$
