
     RDKit          2D

 23 25  0  0  0  0  0  0  0  0999 V2000
   -1.3885    4.1950    0.0000 C   0  0  0  0  0  0  0  0  0  0  0  0
    3.5614    5.6240    0.0000 C   0  0  0  0  0  0  0  0  0  0  0  0
   -4.2760    4.9095    0.0000 C   0  0  0  0  0  0  0  0  0  0  0  0
    3.1489    6.3385    0.0000 C   0  0  0  0  0  0  0  0  0  0  0  0
    3.1489    4.9096    0.0000 C   0  0  0  0  0  0  0  0  0  0  0  0
    0.6739    7.7674    0.0000 C   0  0  0  0  0  0  0  0  0  0  0  0
   -0.1510    7.7674    0.0000 C   0  0  0  0  0  0  0  0  0  0  0  0
   -3.8635    4.1950    0.0000 C   0  0  0  0  0  0  0  0  0  0  0  0
   -3.8635    5.6239    0.0000 C   0  0  0  0  0  0  0  0  0  0  0  0
    2.3240    6.3385    0.0000 C   0  0  0  0  0  0  0  0  0  0  0  0
    2.3240    4.9096    0.0000 C   0  0  0  0  0  0  0  0  0  0  0  0
    1.0864    7.0530    0.0000 C   0  0  0  0  0  0  0  0  0  0  0  0
   -0.5635    7.0530    0.0000 C   0  0  0  0  0  0  0  0  0  0  0  0
   -3.0384    4.1950    0.0000 C   0  0  0  0  0  0  0  0  0  0  0  0
   -3.0384    5.6239    0.0000 C   0  0  0  0  0  0  0  0  0  0  0  0
    1.0865    5.6240    0.0000 C   0  0  0  0  0  0  0  0  0  0  0  0
   -1.3885    5.6240    0.0000 C   0  0  0  0  0  0  0  0  0  0  0  0
   -1.8010    4.9095    0.0000 C   0  0  0  0  0  0  0  0  0  0  0  0
    1.9114    5.6240    0.0000 C   0  0  0  0  0  0  0  0  0  0  0  0
    0.6739    6.3384    0.0000 C   0  0  0  0  0  0  0  0  0  0  0  0
   -0.1510    6.3384    0.0000 C   0  0  0  0  0  0  0  0  0  0  0  0
   -2.6260    4.9095    0.0000 N   0  0  0  0  0  0  0  0  0  0  0  0
   -0.5635    5.6240    0.0000 O   0  0  0  0  0  0  0  0  0  0  0  0
  4  2  2  0
  5  2  1  0
  7  6  2  0
  8  3  1  0
  9  3  1  0
 10  4  1  0
 11  5  2  0
 12  6  1  0
 13  7  1  0
 14  8  1  0
 15  9  1  0
 18  1  1  0
 18 17  1  0
 19 10  2  0
 19 11  1  0
 19 16  1  0
 20 12  2  0
 20 16  1  0
 21 13  2  0
 21 20  1  0
 22 14  1  0
 22 15  1  0
 22 18  1  0
 23 17  1  0
 23 21  1  0
M  END
>  <DRUGBANK_ID>  (1) 
DB13309

>  <COMMON_NAME>  (1) 
Benproperine

>  <CAS_NUMBER>  (1) 
2156-27-6

>  <UNII>  (1) 
3AA6IZ48YK

>  <SYNONYMS>  (1) 
Bemproperina; Benproperine; Benproperinum

$$$$
