4833
     RDKit          2D

 19 21  0  0  0  0  0  0  0  0999 V2000
    4.5079   -1.0455    0.0000 O   0  0  0  0  0  0  0  0  0  0  0  0
    3.7934    0.1920    0.0000 N   0  0  0  0  0  0  0  0  0  0  0  0
    4.5079    1.4295    0.0000 N   0  0  0  0  0  0  0  0  0  0  0  0
    3.0790   -0.2205    0.0000 C   0  0  0  0  0  0  0  0  0  0  0  0
    3.7934    1.0170    0.0000 C   0  0  0  0  0  0  0  0  0  0  0  0
    5.2223    0.1920    0.0000 C   0  0  0  0  0  0  0  0  0  0  0  0
    4.5079   -0.2205    0.0000 C   0  0  0  0  0  0  0  0  0  0  0  0
    2.3645    0.1920    0.0000 C   0  0  0  0  0  0  0  0  0  0  0  0
    5.2223    1.0170    0.0000 C   0  0  0  0  0  0  0  0  0  0  0  0
    3.0790   -1.0455    0.0000 C   0  0  0  0  0  0  0  0  0  0  0  0
    5.9599   -0.2492    0.0000 C   0  0  0  0  0  0  0  0  0  0  0  0
    3.0790    1.4295    0.0000 C   0  0  0  0  0  0  0  0  0  0  0  0
    1.6500   -0.2205    0.0000 C   0  0  0  0  0  0  0  0  0  0  0  0
    5.9599    1.4580    0.0000 C   0  0  0  0  0  0  0  0  0  0  0  0
    2.3645    1.0170    0.0000 C   0  0  0  0  0  0  0  0  0  0  0  0
    2.3645   -1.4580    0.0000 C   0  0  0  0  0  0  0  0  0  0  0  0
    1.6500   -1.0455    0.0000 C   0  0  0  0  0  0  0  0  0  0  0  0
    6.7073    0.1748    0.0000 C   0  0  0  0  0  0  0  0  0  0  0  0
    6.7073    1.0341    0.0000 C   0  0  0  0  0  0  0  0  0  0  0  0
  1  7  2  0
  2  4  1  0
  2  5  1  0
  2  7  1  0
  3  5  2  0
  3  9  1  0
  4  8  2  0
  4 10  1  0
  5 12  1  0
  6  7  1  0
  6  9  2  0
  6 11  1  0
  8 13  1  0
  8 15  1  0
  9 14  1  0
 10 16  2  0
 11 18  2  0
 13 17  2  0
 14 19  2  0
 16 17  1  0
 18 19  1  0
M  END
>  <DRUGBANK_ID>  (1) 
DB04833

>  <COMMON_NAME>  (1) 
Methaqualone

>  <CAS_NUMBER>  (1) 
72-44-6

>  <UNII>  (1) 
7ZKH8MQW6T

>  <SYNONYMS>  (1) 
metacualona; Methaqualone

$$$$
