NNN
     RDKit          2D

 26 28  0  0  0  0  0  0  0  0999 V2000
    2.1433   -2.9028    0.0000 O   0  0  0  0  0  0  0  0  0  0  0  0
    2.1433   -2.0778    0.0000 C   0  0  0  0  0  0  0  0  0  0  0  0
    1.4288   -1.6653    0.0000 C   0  0  0  0  0  0  0  0  0  0  0  0
    0.7143   -2.0778    0.0000 C   0  0  0  0  0  0  0  0  0  0  0  0
   -0.0001   -1.6653    0.0000 C   0  0  0  0  0  0  0  0  0  0  0  0
    1.4288   -0.8403    0.0000 N   0  0  0  0  0  0  0  0  0  0  0  0
    0.7143   -0.4278    0.0000 C   0  0  0  0  0  0  0  0  0  0  0  0
    0.7143    0.3972    0.0000 N   0  0  0  0  0  0  0  0  0  0  0  0
   -0.0001    0.8097    0.0000 C   0  0  0  0  0  0  0  0  0  0  0  0
   -0.7146    0.3972    0.0000 N   0  0  0  0  0  0  0  0  0  0  0  0
   -1.4992    0.6521    0.0000 N   0  0  0  0  0  0  0  0  0  0  0  0
   -1.9841   -0.0153    0.0000 C   0  0  0  0  0  0  0  0  0  0  0  0
   -1.4992   -0.6828    0.0000 C   0  0  0  0  0  0  0  0  0  0  0  0
   -1.7542   -1.4674    0.0000 C   0  0  0  0  0  0  0  0  0  0  0  0
   -1.2021   -2.0805    0.0000 C   0  0  0  0  0  0  0  0  0  0  0  0
   -2.5611   -1.6389    0.0000 C   0  0  0  0  0  0  0  0  0  0  0  0
   -0.7146   -0.4278    0.0000 C   0  0  0  0  0  0  0  0  0  0  0  0
   -0.0001   -0.8403    0.0000 N   0  0  0  0  0  0  0  0  0  0  0  0
   -0.0001    1.6347    0.0000 N   0  0  0  0  0  0  0  0  0  0  0  0
    0.7143    2.0472    0.0000 C   0  0  0  0  0  0  0  0  0  0  0  0
    0.7143    2.8722    0.0000 C   0  0  0  0  0  0  0  0  0  0  0  0
    1.4288    3.2847    0.0000 C   0  0  0  0  0  0  0  0  0  0  0  0
    1.4288    4.1097    0.0000 C   0  0  0  0  0  0  0  0  0  0  0  0
    0.7143    4.5222    0.0000 C   0  0  0  0  0  0  0  0  0  0  0  0
   -0.0001    4.1097    0.0000 C   0  0  0  0  0  0  0  0  0  0  0  0
   -0.0001    3.2847    0.0000 C   0  0  0  0  0  0  0  0  0  0  0  0
  1  2  1  0
  3  2  1  1
  3  4  1  0
  3  6  1  0
  4  5  1  0
  7  6  1  0
  7 18  2  0
  8  7  1  0
  9  8  2  0
  9 10  1  0
 10 17  1  0
 11 10  1  0
 11 12  2  0
 12 13  1  0
 13 17  2  0
 13 14  1  0
 14 15  1  0
 16 14  1  0
 17 18  1  0
 19  9  1  0
 19 20  1  0
 21 20  1  0
 21 26  1  0
 22 21  2  0
 23 22  1  0
 23 24  2  0
 24 25  1  0
 25 26  2  0
M  END
>  <DRUGBANK_ID>  (1) 
DB08285

>  <COMMON_NAME>  (1) 
(2R)-2-{[4-(benzylamino)-8-(1-methylethyl)pyrazolo[1,5-a][1,3,5]triazin-2-yl]amino}butan-1-ol

$$$$
