
     RDKit          2D

 27 28  0  0  0  0  0  0  0  0999 V2000
    0.0000    0.6187    0.0000 P   0  0  0  0  0  0  0  0  0  0  0  0
    0.8249    0.6187    0.0000 O   0  0  0  0  0  0  0  0  0  0  0  0
   -0.8250    0.6187    0.0000 O   0  0  0  0  0  0  0  0  0  0  0  0
   -1.4289    0.6187    0.0000 O   0  0  0  0  0  0  0  0  0  0  0  0
   -2.1433   -0.6187    0.0000 O   0  0  0  0  0  0  0  0  0  0  0  0
   -2.1433   -3.0937    0.0000 N   0  0  0  0  0  0  0  0  0  0  0  0
   -2.8579   -4.3312    0.0000 N   0  0  0  0  0  0  0  0  0  0  0  0
   -1.4289   -4.3312    0.0000 N   0  0  0  0  0  0  0  0  0  0  0  0
    0.0000   -0.2062    0.0000 C   0  0  0  0  0  0  0  0  0  0  0  0
    0.0000    1.4437    0.0000 C   0  0  0  0  0  0  0  0  0  0  0  0
   -0.7144   -0.6187    0.0000 C   0  0  0  0  0  0  0  0  0  0  0  0
    0.7144    1.8562    0.0000 C   0  0  0  0  0  0  0  0  0  0  0  0
    0.7144    2.6812    0.0000 C   0  0  0  0  0  0  0  0  0  0  0  0
   -0.7144   -1.4437    0.0000 C   0  0  0  0  0  0  0  0  0  0  0  0
   -1.4289   -0.2062    0.0000 C   0  0  0  0  0  0  0  0  0  0  0  0
    1.4289    3.0937    0.0000 C   0  0  0  0  0  0  0  0  0  0  0  0
   -1.4289   -1.8562    0.0000 C   0  0  0  0  0  0  0  0  0  0  0  0
    0.0000   -1.8562    0.0000 C   0  0  0  0  0  0  0  0  0  0  0  0
   -1.4289   -2.6812    0.0000 C   0  0  0  0  0  0  0  0  0  0  0  0
    0.0000   -2.6812    0.0000 C   0  0  0  0  0  0  0  0  0  0  0  0
    2.1433    2.6812    0.0000 C   0  0  0  0  0  0  0  0  0  0  0  0
    1.4289    3.9187    0.0000 C   0  0  0  0  0  0  0  0  0  0  0  0
   -0.7144   -3.0937    0.0000 C   0  0  0  0  0  0  0  0  0  0  0  0
    2.8578    3.0937    0.0000 C   0  0  0  0  0  0  0  0  0  0  0  0
    2.1433    4.3312    0.0000 C   0  0  0  0  0  0  0  0  0  0  0  0
    2.8578    3.9187    0.0000 C   0  0  0  0  0  0  0  0  0  0  0  0
   -2.1433   -3.9187    0.0000 C   0  0  0  0  0  0  0  0  0  0  0  0
  1  2  1  0
  1  3  2  0
  1  9  1  0
  1 10  1  0
  4 15  1  0
  5 15  2  0
  6 19  1  0
  6 27  2  3
  7 27  1  0
  8 27  1  0
 10 12  1  0
 11  9  1  0
 11 14  1  0
 11 15  1  0
 12 13  1  0
 13 16  1  0
 14 17  2  0
 14 18  1  0
 16 21  2  0
 16 22  1  0
 17 19  1  0
 18 20  2  0
 19 23  2  0
 20 23  1  0
 21 24  1  0
 22 25  2  0
 24 26  2  0
 25 26  1  0
M  END
>  <DRUGBANK_ID>  (1) 
DB07182

>  <COMMON_NAME>  (1) 
(2S)-2-(3-Carbamimidamidophenyl)-3-[hydroxy(3-phenylpropyl)phosphoryl]propanoic acid

$$$$
