
     RDKit          2D

 16 17  0  0  0  0  0  0  0  0999 V2000
   -1.4498   -0.6891    0.0000 C   0  0  0  0  0  0  0  0  0  0  0  0
   -1.4509   -1.5124    0.0000 C   0  0  0  0  0  0  0  0  0  0  0  0
   -0.7403   -1.9253    0.0000 C   0  0  0  0  0  0  0  0  0  0  0  0
   -0.7421   -0.2804    0.0000 C   0  0  0  0  0  0  0  0  0  0  0  0
    0.7610   -1.7722    0.0000 N   0  0  0  0  0  0  0  0  0  0  0  0
   -0.0308   -0.6855    0.0000 C   0  0  0  0  0  0  0  0  0  0  0  0
   -0.0291   -1.5160    0.0000 C   0  0  0  0  0  0  0  0  0  0  0  0
    0.7583   -0.4300    0.0000 C   0  0  0  0  0  0  0  0  0  0  0  0
    1.2517   -1.1027    0.0000 C   0  0  0  0  0  0  0  0  0  0  0  0
   -2.1641   -0.2760    0.0000 O   0  0  0  0  0  0  0  0  0  0  0  0
   -2.8790   -0.6881    0.0000 C   0  0  0  0  0  0  0  0  0  0  0  0
    1.0118    0.3550    0.0000 C   0  0  0  0  0  0  0  0  0  0  0  0
    1.8186    0.5280    0.0000 C   0  0  0  0  0  0  0  0  0  0  0  0
    2.0722    1.3131    0.0000 N   0  0  0  0  0  0  0  0  0  0  0  0
    2.8790    1.4861    0.0000 C   0  0  0  0  0  0  0  0  0  0  0  0
    1.5191    1.9253    0.0000 C   0  0  0  0  0  0  0  0  0  0  0  0
  1 10  1  0
  1  2  2  0
  2  3  1  0
  3  7  2  0
  4  1  1  0
  5  9  1  0
  6  7  1  0
  6  4  2  0
  7  5  1  0
  8 12  1  0
  8  6  1  0
  8  9  2  0
 10 11  1  0
 12 13  1  0
 13 14  1  0
 14 15  1  0
 14 16  1  0
M  END
>  <DRUGBANK_ID>  (1) 
DB14010

>  <COMMON_NAME>  (1) 
5-methoxy-N,N-dimethyltryptamine

>  <CAS_NUMBER>  (1) 
1019-45-0

>  <UNII>  (1) 
X0MKX3GWU9

>  <SYNONYMS>  (1) 
3-(2-dimethylaminoethyl)-5-methoxyindole; 3-[2-(N,N-Dimethylamino)ethyl]-5-methoxy-indole; 5-MeO-DMT; 5-methoxy-N,N-dimethyl-1H-indole-3-ethanamine; MeODMT; Methoxybufotenin; N,N-dimethyl-5-methoxytryptamine; O-methylbufotenine

$$$$
