
     RDKit          2D

 32 34  0  0  0  0  0  0  0  0999 V2000
    2.1130    0.0000    0.0000 S   0  0  0  0  0  0  0  0  0  0  0  0
    2.1130    2.4750    0.0000 S   0  0  0  0  0  0  0  0  0  0  0  0
    2.9380    0.0000    0.0000 O   0  0  0  0  0  0  0  0  0  0  0  0
    1.2880    0.0000    0.0000 O   0  0  0  0  0  0  0  0  0  0  0  0
    0.6840    0.0000    0.0000 O   0  0  0  0  0  0  0  0  0  0  0  0
   -1.4593    2.0625    0.0000 O   0  0  0  0  0  0  0  0  0  0  0  0
   -2.1738    0.8250    0.0000 O   0  0  0  0  0  0  0  0  0  0  0  0
    2.1130    0.8250    0.0000 N   0  0  0  0  0  0  0  0  0  0  0  0
   -0.0304    1.2375    0.0000 N   0  0  0  0  0  0  0  0  0  0  0  0
    1.3985    1.2375    0.0000 C   0  0  0  0  0  0  0  0  0  0  0  0
    2.8274    1.2375    0.0000 C   0  0  0  0  0  0  0  0  0  0  0  0
    1.3985    2.0625    0.0000 C   0  0  0  0  0  0  0  0  0  0  0  0
    2.8274    2.0625    0.0000 C   0  0  0  0  0  0  0  0  0  0  0  0
    0.6840    0.8250    0.0000 C   0  0  0  0  0  0  0  0  0  0  0  0
    2.1130   -0.8250    0.0000 C   0  0  0  0  0  0  0  0  0  0  0  0
   -0.7448    0.8250    0.0000 C   0  0  0  0  0  0  0  0  0  0  0  0
   -0.7448    0.0000    0.0000 C   0  0  0  0  0  0  0  0  0  0  0  0
    1.3985   -1.2375    0.0000 C   0  0  0  0  0  0  0  0  0  0  0  0
    2.8274   -1.2375    0.0000 C   0  0  0  0  0  0  0  0  0  0  0  0
   -1.4593    1.2375    0.0000 C   0  0  0  0  0  0  0  0  0  0  0  0
   -1.4593   -0.4125    0.0000 C   0  0  0  0  0  0  0  0  0  0  0  0
    1.3985   -2.0625    0.0000 C   0  0  0  0  0  0  0  0  0  0  0  0
    2.8274   -2.0625    0.0000 C   0  0  0  0  0  0  0  0  0  0  0  0
    2.1130   -2.4750    0.0000 C   0  0  0  0  0  0  0  0  0  0  0  0
   -2.1738    0.0000    0.0000 C   0  0  0  0  0  0  0  0  0  0  0  0
   -1.4593   -1.2375    0.0000 C   0  0  0  0  0  0  0  0  0  0  0  0
    2.1130   -3.3000    0.0000 C   0  0  0  0  0  0  0  0  0  0  0  0
   -2.8882   -0.4125    0.0000 C   0  0  0  0  0  0  0  0  0  0  0  0
   -2.1738   -1.6500    0.0000 C   0  0  0  0  0  0  0  0  0  0  0  0
   -2.1738    2.4750    0.0000 C   0  0  0  0  0  0  0  0  0  0  0  0
   -2.8882   -1.2375    0.0000 C   0  0  0  0  0  0  0  0  0  0  0  0
   -2.1738    3.3000    0.0000 C   0  0  0  0  0  0  0  0  0  0  0  0
  1  3  2  0
  1  4  2  0
  1  8  1  0
  1 15  1  0
  2 12  1  0
  2 13  1  0
  5 14  2  0
  6 20  1  0
  6 30  1  0
  7 20  2  0
  8 10  1  0
  8 11  1  0
  9 14  1  0
 10 12  1  0
 10 14  1  6
 11 13  1  0
 15 18  2  0
 15 19  1  0
 16  9  1  0
 16 17  1  1
 16 20  1  0
 17 21  1  0
 18 22  1  0
 19 23  2  0
 21 25  2  0
 21 26  1  0
 22 24  2  0
 23 24  1  0
 24 27  1  0
 25 28  1  0
 26 29  2  0
 28 31  2  0
 29 31  1  0
 30 32  1  0
M  END
>  <DRUGBANK_ID>  (1) 
DB01712

>  <SECONDARY_ACCESSION_NUMBERS>  (1) 
EXPT02976

>  <COMMON_NAME>  (1) 
(3R)-4-(p-toluenesulfonyl)-1,4-thiazane-3-carboxylicacid-L-phenylalanine ethyl ester

$$$$
