
     RDKit          2D

 24 23  0  0  0  0  0  0  0  0999 V2000
   -0.4125   -3.5723    0.0000 C   0  0  0  0  0  0  0  0  0  0  0  0
   -0.8250   -2.8578    0.0000 C   0  0  0  0  0  0  0  0  0  0  0  0
   -0.4125   -2.1434    0.0000 C   0  0  0  0  0  0  0  0  0  0  0  0
   -0.8250   -1.4289    0.0000 C   0  0  0  0  0  0  0  0  0  0  0  0
   -1.6500   -1.4289    0.0000 C   0  0  0  0  0  0  0  0  0  0  0  0
   -2.0625   -0.7144    0.0000 C   0  0  0  0  0  0  0  0  0  0  0  0
   -1.6500    0.0000    0.0000 C   0  0  0  0  0  0  0  0  0  0  0  0
   -0.8250    0.0000    0.0000 C   0  0  0  0  0  0  0  0  0  0  0  0
   -0.4125   -0.7144    0.0000 C   0  0  0  0  0  0  0  0  0  0  0  0
    0.4125   -0.7144    0.0000 C   0  0  0  0  0  0  0  0  0  0  0  0
    0.8250    0.0000    0.0000 C   0  0  0  0  0  0  0  0  0  0  0  0
    1.6500    0.0000    0.0000 C   0  0  0  0  0  0  0  0  0  0  0  0
    2.0625    0.7144    0.0000 C   0  0  0  0  0  0  0  0  0  0  0  0
    1.6500    1.4289    0.0000 C   0  0  0  0  0  0  0  0  0  0  0  0
    2.0625    2.1434    0.0000 C   0  0  0  0  0  0  0  0  0  0  0  0
    1.6500    2.8578    0.0000 C   0  0  0  0  0  0  0  0  0  0  0  0
    0.8250    2.8578    0.0000 C   0  0  0  0  0  0  0  0  0  0  0  0
    0.4125    3.5723    0.0000 C   0  0  0  0  0  0  0  0  0  0  0  0
   -0.4125    3.5723    0.0000 C   0  0  0  0  0  0  0  0  0  0  0  0
   -0.8250    2.8578    0.0000 C   0  0  0  0  0  0  0  0  0  0  0  0
   -0.4125    2.1434    0.0000 C   0  0  0  0  0  0  0  0  0  0  0  0
   -0.8250    1.4289    0.0000 C   0  0  0  0  0  0  0  0  0  0  0  0
   -1.6500    1.4289    0.0000 O   0  0  0  0  0  0  0  0  0  0  0  0
   -0.4125    0.7144    0.0000 O   0  0  0  0  0  0  0  0  0  0  0  0
  1  2  1  0
  2  3  1  0
  3  4  2  0
  4  5  1  0
  5  6  1  0
  6  7  2  0
  7  8  1  0
  8  9  1  0
  9 10  2  0
 10 11  1  0
 11 12  1  0
 12 13  2  0
 13 14  1  0
 14 15  1  0
 15 16  2  0
 16 17  1  0
 17 18  1  0
 18 19  2  0
 19 20  1  0
 20 21  1  0
 21 22  1  0
 22 23  2  0
 22 24  1  0
M  END
>  <DRUGBANK_ID>  (1) 
DB03756

>  <SECONDARY_ACCESSION_NUMBERS>  (1) 
EXPT01798; DB11070

>  <COMMON_NAME>  (1) 
Doconexent

>  <CAS_NUMBER>  (1) 
6217-54-5

>  <UNII>  (1) 
ZAD9OKH9JC

>  <SYNONYMS>  (1) 
(4Z,7Z,10Z,13Z,16Z,19Z)-Docosahexaenoic acid; 22:6-4, 7,10,13,16,19; 22:6(n-3); 4,7,10,13,16,19-docosahexaenoic acid; all-cis-4,7,10,13,16,19-docosahexaenoic acid; all-cis-DHA; cervonic acid; DHA; Doconexent; docosa-4,7,10,13,16,19-hexaenoic acid; Docosahexaenoic acid; Docosahexanoic Acid

$$$$
