
     RDKit          2D

 21 23  0  0  0  0  0  0  0  0999 V2000
    2.5285   -0.6815    0.0000 Cl  0  0  0  0  0  0  0  0  0  0  0  0
    3.0967   -2.1782    0.0000 Cl  0  0  0  0  0  0  0  0  0  0  0  0
   -0.3125    2.4810    0.0000 O   0  0  0  0  0  0  0  0  0  0  0  0
   -1.7137    1.4395    0.0000 N   0  0  0  0  0  0  0  0  0  0  0  0
   -0.5398    1.6856    0.0000 N   0  0  0  0  0  0  0  0  0  0  0  0
   -1.4108    0.3031    0.0000 C   0  0  0  0  0  0  0  0  0  0  0  0
   -1.8466   -0.5491    0.0000 C   0  0  0  0  0  0  0  0  0  0  0  0
   -0.3693   -0.2650    0.0000 C   0  0  0  0  0  0  0  0  0  0  0  0
   -0.1039   -1.6475    0.0000 C   0  0  0  0  0  0  0  0  0  0  0  0
   -0.7478   -0.8332    0.0000 C   0  0  0  0  0  0  0  0  0  0  0  0
   -2.7557   -0.3031    0.0000 C   0  0  0  0  0  0  0  0  0  0  0  0
   -3.0967   -1.0037    0.0000 C   0  0  0  0  0  0  0  0  0  0  0  0
    0.6915   -1.7611    0.0000 C   0  0  0  0  0  0  0  0  0  0  0  0
   -1.7898    2.2537    0.0000 C   0  0  0  0  0  0  0  0  0  0  0  0
    0.0096    1.0798    0.0000 C   0  0  0  0  0  0  0  0  0  0  0  0
    1.2028   -1.1361    0.0000 C   0  0  0  0  0  0  0  0  0  0  0  0
    0.9756   -2.5191    0.0000 C   0  0  0  0  0  0  0  0  0  0  0  0
    2.0170   -1.2690    0.0000 C   0  0  0  0  0  0  0  0  0  0  0  0
    1.7710   -2.6702    0.0000 C   0  0  0  0  0  0  0  0  0  0  0  0
    2.2824   -2.0452    0.0000 C   0  0  0  0  0  0  0  0  0  0  0  0
    0.4454    2.6702    0.0000 C   0  0  0  0  0  0  0  0  0  0  0  0
  1 18  1  0
  2 20  1  0
  3  5  1  0
  3 21  1  0
  4  6  1  0
  4  7  1  0
  4 14  1  0
  5 15  2  0
  6  8  1  0
  6 11  1  1
  7 10  1  6
  7 12  1  0
  8  9  1  0
  8 15  1  6
  9 10  1  0
  9 13  1  1
 11 12  1  0
 13 16  2  0
 13 17  1  0
 16 18  1  0
 17 19  2  0
 18 20  2  0
 19 20  1  0
M  END
>  <DRUGBANK_ID>  (1) 
DB04857

>  <COMMON_NAME>  (1) 
Brasofensine

>  <CAS_NUMBER>  (1) 
171655-91-7

>  <UNII>  (1) 
1YP2S94RVH

>  <SYNONYMS>  (1) 
Brasofensine

$$$$
