EH9
     RDKit          2D

 20 21  0  0  0  0  0  0  0  0999 V2000
    1.4385    2.5437    0.0000 C   0  0  0  0  0  0  0  0  0  0  0  0
    1.4544    1.7189    0.0000 C   0  0  0  0  0  0  0  0  0  0  0  0
    0.7480    1.2926    0.0000 C   0  0  0  0  0  0  0  0  0  0  0  0
    0.0098    2.5161    0.0000 C   0  0  0  0  0  0  0  0  0  0  0  0
    1.7571    0.4188    0.0000 C   0  0  0  0  0  0  0  0  0  0  0  0
    0.0257    1.6913    0.0000 N   0  0  0  0  0  0  0  0  0  0  0  0
    0.7162    2.9423    0.0000 N   0  0  0  0  0  0  0  0  0  0  0  0
    0.9351    0.4891    0.0000 N   0  0  0  0  0  0  0  0  0  0  0  0
    2.0780    1.1788    0.0000 N   0  0  0  0  0  0  0  0  0  0  0  0
    0.3950   -0.1345    0.0000 C   0  0  0  0  0  0  0  0  0  0  0  0
   -0.4151    0.0214    0.0000 C   0  0  0  0  0  0  0  0  0  0  0  0
    2.1448    2.9699    0.0000 N   0  0  0  0  0  0  0  0  0  0  0  0
   -0.9552   -0.6022    0.0000 C   0  0  0  0  0  0  0  0  0  0  0  0
   -1.7653   -0.4463    0.0000 C   0  0  0  0  0  0  0  0  0  0  0  0
   -2.3054   -1.0700    0.0000 C   0  0  0  0  0  0  0  0  0  0  0  0
   -3.1156   -0.9141    0.0000 C   0  0  0  0  0  0  0  0  0  0  0  0
   -3.6557   -1.5377    0.0000 C   0  0  0  0  0  0  0  0  0  0  0  0
    0.6651   -0.9141    0.0000 C   0  0  0  0  0  0  0  0  0  0  0  0
    1.4752   -1.0700    0.0000 O   0  0  0  0  0  0  0  0  0  0  0  0
    0.1250   -1.5377    0.0000 C   0  0  0  0  0  0  0  0  0  0  0  0
  1 12  1  0
  1  2  2  0
  2  9  1  0
  3  2  1  0
  3  8  1  0
  4  7  2  0
  4  6  1  0
  6  3  2  0
  7  1  1  0
  8  5  1  0
  9  5  2  0
 10  8  1  0
 10 11  1  1
 13 11  1  0
 14 13  1  0
 15 14  1  0
 16 15  1  0
 17 16  1  0
 18 10  1  0
 18 19  1  0
 18 20  1  1
M  END
>  <DRUGBANK_ID>  (1) 
DB07711

>  <COMMON_NAME>  (1) 
(2S,3R)-3-(6-amino-9H-purin-9-yl)nonan-2-ol

$$$$
