ISA
     RDKit          2D

 13 13  0  0  0  0  0  0  0  0999 V2000
    2.3669    1.6869    0.0000 I   0  0  0  0  0  0  0  0  0  0  0  0
    1.6524    1.2744    0.0000 C   0  0  0  0  0  0  0  0  0  0  0  0
    1.6524    0.4494    0.0000 C   0  0  0  0  0  0  0  0  0  0  0  0
    0.9379    0.0369    0.0000 C   0  0  0  0  0  0  0  0  0  0  0  0
    0.9379    1.6869    0.0000 C   0  0  0  0  0  0  0  0  0  0  0  0
    0.2234    1.2744    0.0000 C   0  0  0  0  0  0  0  0  0  0  0  0
    0.2234    0.4494    0.0000 C   0  0  0  0  0  0  0  0  0  0  0  0
   -0.4910    0.0369    0.0000 C   0  0  0  0  0  0  0  0  0  0  0  0
   -0.4910   -0.7881    0.0000 C   0  0  0  0  0  0  0  0  0  0  0  0
    0.2234   -1.2006    0.0000 S   0  0  0  0  0  0  0  0  0  0  0  0
   -1.2055   -1.2006    0.0000 C   0  0  0  0  0  0  0  0  0  0  0  0
   -1.2055   -2.0256    0.0000 O   0  0  0  0  0  0  0  0  0  0  0  0
   -1.9200   -0.7881    0.0000 O   0  0  0  0  0  0  0  0  0  0  0  0
  1  2  1  0
  2  3  2  0
  2  5  1  0
  3  4  1  0
  4  7  2  0
  5  6  2  0
  6  7  1  0
  7  8  1  0
  9  8  1  6
  9 10  1  0
  9 11  1  0
 11 12  2  0
 11 13  1  0
M  END
>  <DRUGBANK_ID>  (1) 
DB02570

>  <SECONDARY_ACCESSION_NUMBERS>  (1) 
EXPT01931

>  <COMMON_NAME>  (1) 
PD150606

$$$$
