
     RDKit          2D

 12 11  0  0  0  0  0  0  0  0999 V2000
    2.7218    1.1589    0.0000 O   0  0  0  0  0  0  0  0  0  0  0  0
    3.3454    1.6990    0.0000 C   0  0  0  0  0  0  0  0  0  0  0  0
    3.1895    2.5091    0.0000 O   0  0  0  0  0  0  0  0  0  0  0  0
    4.1250    1.4289    0.0000 C   0  0  0  0  0  0  0  0  0  0  0  0
    4.7486    1.9690    0.0000 C   0  0  0  0  0  0  0  0  0  0  0  0
    5.5282    1.6990    0.0000 Se  0  0  0  0  0  2  0  0  0  0  0  0
    6.3077    1.4289    0.0000 Se  0  0  0  0  0  2  0  0  0  0  0  0
    7.0873    1.1589    0.0000 C   0  0  0  0  0  0  0  0  0  0  0  0
    7.7109    1.6990    0.0000 C   0  0  0  0  0  0  0  0  0  0  0  0
    8.4905    1.4289    0.0000 C   0  0  0  0  0  0  0  0  0  0  0  0
    9.1141    1.9690    0.0000 O   0  0  0  0  0  0  0  0  0  0  0  0
    8.6464    0.6188    0.0000 O   0  0  0  0  0  0  0  0  0  0  0  0
  1  2  1  0
  2  3  2  0
  2  4  1  0
  4  5  1  0
  5  6  1  0
  6  7  1  0
  7  8  1  0
  8  9  1  0
  9 10  1  0
 10 11  1  0
 10 12  2  0
M  END
>  <DRUGBANK_ID>  (1) 
DB18043

>  <COMMON_NAME>  (1) 
3',3-diselenodipropionic acid

>  <CAS_NUMBER>  (1) 
7370-58-3

>  <UNII>  (1) 
2SP2QS73W9

>  <SYNONYMS>  (1) 
3',3-diseleno dipropionic acid; Diseleno-3,3'-dipropionic acid; Diselenodipropionic acid; Propionic acid, 3,3'-diselenodi-

$$$$
