MP2
     RDKit          2D

 21 21  0  0  0  0  0  0  0  0999 V2000
    0.1646    0.9260    0.0000 O   0  0  0  0  0  0  0  0  0  0  0  0
    0.1646    0.1010    0.0000 C   0  0  0  0  0  0  0  0  0  0  0  0
   -0.5498   -0.3115    0.0000 N   0  0  0  0  0  0  0  0  0  0  0  0
   -1.2643    0.1010    0.0000 C   0  0  0  0  0  0  0  0  0  0  0  0
   -1.2643    0.9260    0.0000 C   0  0  0  0  0  0  0  0  0  0  0  0
   -1.9788    1.3385    0.0000 S   0  0  0  0  0  0  0  0  0  0  0  0
   -1.9788   -0.3115    0.0000 C   0  0  0  0  0  0  0  0  0  0  0  0
   -1.9788   -1.1365    0.0000 O   0  0  0  0  0  0  0  0  0  0  0  0
   -2.6932    0.1010    0.0000 N   0  0  0  0  0  0  0  0  0  0  0  0
   -3.4077   -0.3115    0.0000 C   0  0  0  0  0  0  0  0  0  0  0  0
   -4.1222    0.1010    0.0000 C   0  0  0  0  0  0  0  0  0  0  0  0
   -4.8366   -0.3115    0.0000 O   0  0  0  0  0  0  0  0  0  0  0  0
   -4.1222    0.9260    0.0000 O   0  0  0  0  0  0  0  0  0  0  0  0
    0.8791   -0.3115    0.0000 O   0  0  0  0  0  0  0  0  0  0  0  0
    1.5936    0.1010    0.0000 C   0  0  0  0  0  0  0  0  0  0  0  0
    2.3081   -0.3115    0.0000 C   0  0  0  0  0  0  0  0  0  0  0  0
    3.0225    0.1010    0.0000 C   0  0  0  0  0  0  0  0  0  0  0  0
    3.7370   -0.3115    0.0000 C   0  0  0  0  0  0  0  0  0  0  0  0
    3.7370   -1.1365    0.0000 C   0  0  0  0  0  0  0  0  0  0  0  0
    3.0225   -1.5490    0.0000 C   0  0  0  0  0  0  0  0  0  0  0  0
    2.3081   -1.1365    0.0000 C   0  0  0  0  0  0  0  0  0  0  0  0
  1  2  2  0
  2  3  1  0
  2 14  1  0
  4  3  1  0
  4  5  1  6
  4  7  1  0
  5  6  1  0
  7  8  2  0
  7  9  1  0
  9 10  1  0
 10 11  1  0
 11 12  1  0
 11 13  2  0
 14 15  1  0
 15 16  1  0
 16 17  2  0
 16 21  1  0
 17 18  1  0
 18 19  2  0
 19 20  1  0
 20 21  2  0
M  END
>  <DRUGBANK_ID>  (1) 
DB08199

>  <COMMON_NAME>  (1) 
N-[(BENZYLOXY)CARBONYL]-L-CYSTEINYLGLYCINE

$$$$
