
     RDKit          2D

 33 38  0  0  0  0  0  0  0  0999 V2000
   -2.6731   -1.2451    0.0000 C   0  0  0  0  0  0  0  0  0  0  0  0
   -1.9274   -0.8128    0.0000 O   0  0  0  0  0  0  0  0  0  0  0  0
   -2.6731   -2.1015    0.0000 C   0  0  0  0  0  0  0  0  0  0  0  0
   -3.3233   -0.6780    0.0000 C   0  0  0  0  0  0  0  0  0  0  0  0
   -1.1740   -1.2410    0.0000 C   0  0  0  0  0  0  0  0  0  0  0  0
   -1.9274   -2.5377    0.0000 C   0  0  0  0  0  0  0  0  0  0  0  0
   -3.4145   -2.5377    0.0000 O   0  0  0  0  0  0  0  0  0  0  0  0
   -3.1568    0.1705    0.0000 O   0  0  0  0  0  0  0  0  0  0  0  0
   -4.1401   -0.9595    0.0000 O   0  0  0  0  0  0  0  0  0  0  0  0
   -1.1740   -2.1015    0.0000 C   0  0  0  0  0  0  0  0  0  0  0  0
   -1.9274   -3.3983    0.0000 O   0  0  0  0  0  0  0  0  0  0  0  0
   -0.4246   -2.5377    0.0000 O   0  0  0  0  0  0  0  0  0  0  0  0
    1.1774    0.9963    0.0000 C   0  0  0  0  0  0  0  0  0  0  0  0
    1.1774    1.8114    0.0000 C   0  0  0  0  0  0  0  0  0  0  0  0
    1.9065    0.5675    0.0000 C   0  0  0  0  0  0  0  0  0  0  0  0
    0.4912    0.6104    0.0000 C   0  0  0  0  0  0  0  0  0  0  0  0
    1.9065    1.3824    0.0000 C   0  0  0  0  0  0  0  0  0  0  0  0
    0.4912    2.1974    0.0000 C   0  0  0  0  0  0  0  0  0  0  0  0
    1.9065    2.1974    0.0000 C   0  0  0  0  0  0  0  0  0  0  0  0
    2.5928    0.9963    0.0000 C   0  0  0  0  0  0  0  0  0  0  0  0
    1.9065   -0.2044    0.0000 C   0  0  0  0  0  0  0  0  0  0  0  0
   -0.3236    1.4255    0.0000 O   0  0  0  0  0  0  0  0  0  0  0  0
    0.4912   -0.2044    0.0000 C   0  0  0  0  0  0  0  0  0  0  0  0
    3.2790    1.3824    0.0000 C   0  0  0  0  0  0  0  0  0  0  0  0
    0.4912    3.0123    0.0000 C   0  0  0  0  0  0  0  0  0  0  0  0
    2.5928    1.7685    0.0000 C   0  0  0  0  0  0  0  0  0  0  0  0
    1.9065    3.0123    0.0000 C   0  0  0  0  0  0  0  0  0  0  0  0
    3.2790    0.5675    0.0000 N   0  0  0  0  0  0  0  0  0  0  0  0
    1.1774   -0.6333    0.0000 C   0  0  0  0  0  0  0  0  0  0  0  0
   -0.1950   -0.6333    0.0000 O   0  0  0  0  0  0  0  0  0  0  0  0
    1.2203    3.3983    0.0000 C   0  0  0  0  0  0  0  0  0  0  0  0
   -0.1950    3.3983    0.0000 O   0  0  0  0  0  0  0  0  0  0  0  0
    4.1401    0.5675    0.0000 C   0  0  0  0  0  0  0  0  0  0  0  0
  1  2  1  0
  1  3  1  0
  1  4  1  1
  2  5  1  0
  3  6  1  0
  3  7  1  6
  4  8  1  0
  4  9  2  0
  5 10  1  0
  5 30  1  1
  6 11  1  1
  6 10  1  0
 10 12  1  6
 13 14  1  0
 13 15  1  0
 13 16  1  0
 13 17  1  1
 14 18  2  0
 14 19  1  0
 15 20  1  0
 15 21  1  6
 16 22  1  6
 16 23  1  0
 17 24  1  0
 18 25  1  0
 18 22  1  0
 19 26  1  0
 19 27  2  0
 20 28  1  0
 20 26  1  1
 21 29  2  0
 23 30  1  6
 23 29  1  0
 24 28  1  0
 25 31  2  0
 25 32  1  0
 27 31  1  0
 28 33  1  0
M  END
>  <DRUGBANK_ID>  (1) 
DB06409

>  <COMMON_NAME>  (1) 
Morphine glucuronide

>  <CAS_NUMBER>  (1) 
20290-10-2

>  <UNII>  (1) 
64Y9KYM60R

>  <SYNONYMS>  (1) 
M6G; Morphine 6-beta-D-glucopyranosiduronide; Morphine 6-glucuronide; Morphine glucuronide; Morphine-6-glucuronide

$$$$
