
     RDKit          2D

 42 47  0  0  1  0  0  0  0  0999 V2000
    0.4210    6.1875    0.0000 F   0  0  0  0  0  0  0  0  0  0  0  0
    0.4210    7.0125    0.0000 C   0  0  0  0  0  0  0  0  0  0  0  0
   -0.2934    7.4250    0.0000 C   0  0  0  0  0  0  0  0  0  0  0  0
   -0.2934    8.2500    0.0000 C   0  0  0  0  0  0  0  0  0  0  0  0
    0.4210    8.6625    0.0000 C   0  0  0  0  0  0  0  0  0  0  0  0
    1.1355    8.2500    0.0000 C   0  0  0  0  0  0  0  0  0  0  0  0
    1.1355    7.4250    0.0000 C   0  0  0  0  0  0  0  0  0  0  0  0
    1.8500    7.0125    0.0000 N   0  0  0  0  0  0  0  0  0  0  0  0
    2.5645    7.4250    0.0000 C   0  0  0  0  0  0  0  0  0  0  0  0
    3.2789    7.0125    0.0000 C   0  0  0  0  0  0  0  0  0  0  0  0
    3.2789    6.1875    0.0000 N   0  0  0  0  0  0  0  0  0  0  0  0
    3.9934    5.7750    0.0000 C   0  0  0  0  0  0  0  0  0  0  0  0
    3.9934    4.9500    0.0000 C   0  0  0  0  0  0  0  0  0  0  0  0
    4.7079    4.5375    0.0000 C   0  0  0  0  0  0  0  0  0  0  0  0
    4.7079    3.7125    0.0000 C   0  0  0  0  0  0  0  0  0  0  0  0
    3.9934    3.3000    0.0000 C   0  0  0  0  0  0  0  0  0  0  0  0
    3.9934    2.4750    0.0000 C   0  0  0  0  0  0  0  0  0  0  0  0
    3.2789    2.0625    0.0000 O   0  0  0  0  0  0  0  0  0  0  0  0
    3.2789    1.2375    0.0000 C   0  0  0  0  0  0  0  0  0  0  0  0
    3.9934    0.8250    0.0000 C   0  0  0  0  0  0  0  0  0  0  0  0
    3.9934    0.0000    0.0000 C   0  0  0  0  0  0  0  0  0  0  0  0
    3.2789   -0.4125    0.0000 C   0  0  0  0  0  0  0  0  0  0  0  0
    2.5645    0.0000    0.0000 C   0  0  0  0  0  0  0  0  0  0  0  0
    1.7798   -0.2549    0.0000 C   0  0  0  0  0  0  0  0  0  0  0  0
    1.5249   -1.0396    0.0000 O   0  0  0  0  0  0  0  0  0  0  0  0
    1.2949    0.4125    0.0000 N   0  0  0  0  0  0  0  0  0  0  0  0
    1.7798    1.0799    0.0000 C   0  0  0  0  0  0  0  0  0  0  0  0
    2.5645    0.8250    0.0000 C   0  0  0  0  0  0  0  0  0  0  0  0
    0.4699    0.4125    0.0000 C   0  0  0  0  0  0  0  0  0  0  0  0
    0.0574   -0.3020    0.0000 C   0  0  0  0  0  0  0  0  0  0  0  0
   -0.7676   -0.3020    0.0000 C   0  0  0  0  0  0  0  0  0  0  0  0
   -1.1801    0.4125    0.0000 C   0  0  0  0  0  0  0  0  0  0  0  0
   -2.0051    0.4125    0.0000 O   0  0  0  0  0  0  0  0  0  0  0  0
   -0.7676    1.1270    0.0000 N   0  0  0  0  0  0  0  0  0  0  0  0
    0.0574    1.1270    0.0000 C   0  0  0  0  0  0  0  0  0  0  0  0
    0.4699    1.8414    0.0000 O   0  0  0  0  0  0  0  0  0  0  0  0
    3.2789    3.7125    0.0000 C   0  0  0  0  0  0  0  0  0  0  0  0
    3.2789    4.5375    0.0000 C   0  0  0  0  0  0  0  0  0  0  0  0
    2.5645    5.7750    0.0000 C   0  0  0  0  0  0  0  0  0  0  0  0
    1.8500    6.1875    0.0000 C   0  0  0  0  0  0  0  0  0  0  0  0
   -1.0079    8.6625    0.0000 C   0  0  0  0  0  0  0  0  0  0  0  0
   -1.7224    9.0750    0.0000 N   0  0  0  0  0  0  0  0  0  0  0  0
  1  2  1  0
  2  3  2  0
  2  7  1  0
  3  4  1  0
  4  5  2  0
  4 41  1  0
  5  6  1  0
  6  7  2  0
  7  8  1  0
  8  9  1  0
  8 40  1  0
  9 10  1  0
 10 11  1  0
 11 12  1  0
 11 39  1  0
 12 13  1  0
 13 14  2  0
 13 38  1  0
 14 15  1  0
 15 16  2  0
 16 17  1  0
 16 37  1  0
 17 18  1  0
 18 19  1  0
 19 20  2  0
 19 28  1  0
 20 21  1  0
 21 22  2  0
 22 23  1  0
 23 24  1  0
 23 28  2  0
 24 25  2  0
 24 26  1  0
 26 27  1  0
 27 28  1  0
 29 26  1  1
 29 30  1  0
 29 35  1  0
 30 31  1  0
 31 32  1  0
 32 33  2  0
 32 34  1  0
 34 35  1  0
 35 36  2  0
 37 38  2  0
 39 40  1  0
 41 42  3  0
M  END
>  <DRUGBANK_ID>  (1) 
DB17584

>  <COMMON_NAME>  (1) 
Mezigdomide

>  <CAS_NUMBER>  (1) 
2259648-80-9

>  <UNII>  (1) 
LA88IH4O02

>  <SYNONYMS>  (1) 
4-(4-((4-(((2-((3s)-2,6-dioxopiperidin-3-yl)-1-oxo-2,3-dihydro-1h-isoindol-4- yl)oxy)methyl)phenyl)methyl)piperazin-1-yl)-3-fluorobenzonitrile; Benzonitrile, 4-(4-((4-(((2-((3s)-2,6-dioxo-3-piperidinyl)-2,3-dihydro-1-oxo-1h-isoindol-4-yl)oxy)methyl)phenyl)methyl)-1-piperazinyl)-3-fluoro-

$$$$
