
     RDKit          2D

 25 26  0  0  0  0  0  0  0  0999 V2000
    0.3837   -1.4453    0.0000 O   0  0  0  0  0  0  0  0  0  0  0  0
   -1.7587    1.4453    0.0000 O   0  0  0  0  0  0  0  0  0  0  0  0
   -1.0424   -1.4516    0.0000 N   0  0  0  0  0  0  0  0  0  0  0  0
   -0.3261    1.4516    0.0000 N   0  0  0  0  0  0  0  0  0  0  0  0
    1.7906    1.0360    0.0000 N   0  0  0  0  0  0  0  0  0  0  0  0
   -1.7651   -0.2110    0.0000 C   0  0  0  0  0  0  0  0  0  0  0  0
   -1.0424    0.2046    0.0000 C   0  0  0  0  0  0  0  0  0  0  0  0
   -1.7651   -1.0360    0.0000 C   0  0  0  0  0  0  0  0  0  0  0  0
   -0.3261   -1.0360    0.0000 C   0  0  0  0  0  0  0  0  0  0  0  0
   -0.3261   -0.2110    0.0000 C   0  0  0  0  0  0  0  0  0  0  0  0
   -1.0424    1.0360    0.0000 C   0  0  0  0  0  0  0  0  0  0  0  0
   -2.4814    0.2046    0.0000 C   0  0  0  0  0  0  0  0  0  0  0  0
   -2.4814   -1.4516    0.0000 C   0  0  0  0  0  0  0  0  0  0  0  0
   -3.1976   -0.2110    0.0000 C   0  0  0  0  0  0  0  0  0  0  0  0
   -3.1976   -1.0360    0.0000 C   0  0  0  0  0  0  0  0  0  0  0  0
    0.3837    1.0423    0.0000 C   0  0  0  0  0  0  0  0  0  0  0  0
    1.0872   -1.0424    0.0000 C   0  0  0  0  0  0  0  0  0  0  0  0
    1.0872    1.4453    0.0000 C   0  0  0  0  0  0  0  0  0  0  0  0
    1.7906   -1.4453    0.0000 C   0  0  0  0  0  0  0  0  0  0  0  0
    2.4942    1.4453    0.0000 C   0  0  0  0  0  0  0  0  0  0  0  0
    1.7906    0.2046    0.0000 C   0  0  0  0  0  0  0  0  0  0  0  0
    2.4942   -1.0424    0.0000 C   0  0  0  0  0  0  0  0  0  0  0  0
    2.4942   -0.2046    0.0000 C   0  0  0  0  0  0  0  0  0  0  0  0
    3.1976    1.0360    0.0000 C   0  0  0  0  0  0  0  0  0  0  0  0
    3.1976   -1.4453    0.0000 C   0  0  0  0  0  0  0  0  0  0  0  0
  1  9  1  0
  1 17  1  0
  2 11  2  0
  3  8  2  0
  3  9  1  0
  4 11  1  0
  4 16  1  0
  5 18  1  0
  5 20  1  0
  5 21  1  0
  6  7  2  0
  6  8  1  0
  6 12  1  0
  7 10  1  0
  7 11  1  0
  8 13  1  0
  9 10  2  0
 12 14  2  0
 13 15  2  0
 14 15  1  0
 16 18  1  0
 17 19  1  0
 19 22  1  0
 20 24  1  0
 21 23  1  0
 22 25  1  0
M  END
>  <DRUGBANK_ID>  (1) 
DB00527

>  <SECONDARY_ACCESSION_NUMBERS>  (1) 
APRD00915

>  <COMMON_NAME>  (1) 
Cinchocaine

>  <CAS_NUMBER>  (1) 
85-79-0

>  <UNII>  (1) 
L6JW2TJG99

>  <SYNONYMS>  (1) 
2-butoxy-N-(2-(diethylamino)ethyl)cinchoninamide; 2-butoxy-N-(α-diethylaminoethyl)cinchoninamide; 2-butoxy-N-(β-diethylaminoethyl)cinchoninamide; 2-butoxy-N-[2-(diethylamino)ethyl]-4-quinolinecarboxamide; 2-Butoxy-quinoline-4-carboxylic acid (2-diethylamino-ethyl)-amide; 2-butoxyquinoline-4-carboxylic acid diethylaminoethylamide; 2-N-butoxy-N-(2-diethylaminoethyl)cinchoninamide; Cinchocaine; Cinchocainum; Cincocainio; Dibucaine; N-(2-(diethylamino)ethyl)-2-butoxycinchoninamide; α-butyloxycinchonic acid-γ-diethylethylenediamine; α-butyloxycinchoninic acid diethylethylenediamide

$$$$
