
     RDKit          2D

 34 35  0  0  0  0  0  0  0  0999 V2000
   -4.9878   -1.8529    0.0000 C   0  0  0  0  0  0  0  0  0  0  0  0
   -4.9889   -2.6804    0.0000 C   0  0  0  0  0  0  0  0  0  0  0  0
   -4.2741   -3.0933    0.0000 C   0  0  0  0  0  0  0  0  0  0  0  0
   -3.5575   -2.6800    0.0000 C   0  0  0  0  0  0  0  0  0  0  0  0
   -3.5604   -1.8493    0.0000 C   0  0  0  0  0  0  0  0  0  0  0  0
   -4.2759   -1.4401    0.0000 C   0  0  0  0  0  0  0  0  0  0  0  0
   -2.8523   -0.6104    0.0000 N   0  0  0  0  0  0  0  0  0  0  0  0
   -2.1392   -0.1951    0.0000 C   0  0  0  0  0  0  0  0  0  0  0  0
   -1.4230   -0.6050    0.0000 C   0  0  0  0  0  0  0  0  0  0  0  0
   -2.1424    0.6299    0.0000 C   0  0  0  0  0  0  0  0  0  0  0  0
   -1.4292    1.0451    0.0000 O   0  0  0  0  0  0  0  0  0  0  0  0
   -2.8584    1.0397    0.0000 N   0  0  0  0  0  0  0  0  0  0  0  0
   -0.7101   -0.1897    0.0000 C   0  0  0  0  0  0  0  0  0  0  0  0
    0.0018   -0.6014    0.0000 C   0  0  0  0  0  0  0  0  0  0  0  0
    0.7144   -0.1869    0.0000 C   0  0  0  0  0  0  0  0  0  0  0  0
    0.7116    0.6391    0.0000 C   0  0  0  0  0  0  0  0  0  0  0  0
   -0.0093    1.0487    0.0000 C   0  0  0  0  0  0  0  0  0  0  0  0
   -0.7190    0.6319    0.0000 C   0  0  0  0  0  0  0  0  0  0  0  0
    1.4241    1.0552    0.0000 O   0  0  0  0  0  0  0  0  0  0  0  0
    2.1408    0.6464    0.0000 C   0  0  0  0  0  0  0  0  0  0  0  0
    2.8532    1.0625    0.0000 C   0  0  0  0  0  0  0  0  0  0  0  0
    3.5698    0.6537    0.0000 N   0  0  0  0  0  0  0  0  0  0  0  0
    4.2822    1.0698    0.0000 C   0  0  0  0  0  0  0  0  0  0  0  0
    4.9989    0.6610    0.0000 C   0  0  0  0  0  0  0  0  0  0  0  0
    3.5740   -0.1713    0.0000 C   0  0  0  0  0  0  0  0  0  0  0  0
    2.8616   -0.5877    0.0000 C   0  0  0  0  0  0  0  0  0  0  0  0
   -2.8492   -1.4355    0.0000 C   0  0  0  0  0  0  0  0  0  0  0  0
   -2.1331   -1.8455    0.0000 O   0  0  0  0  0  0  0  0  0  0  0  0
   -3.5737    0.6306    0.0000 C   0  0  0  0  0  0  0  0  0  0  0  0
   -4.2863    1.0431    0.0000 C   0  0  0  0  0  0  0  0  0  0  0  0
   -4.9989    0.6306    0.0000 C   0  0  0  0  0  0  0  0  0  0  0  0
   -2.8612    1.8641    0.0000 C   0  0  0  0  0  0  0  0  0  0  0  0
   -3.5737    2.2724    0.0000 C   0  0  0  0  0  0  0  0  0  0  0  0
   -3.5737    3.0933    0.0000 C   0  0  0  0  0  0  0  0  0  0  0  0
  1  2  2  0
  2  3  1  0
  3  4  2  0
  4  5  1  0
  5  6  2  0
  6  1  1  0
  7 27  1  0
  7  8  1  0
  8  9  1  0
  8 10  1  0
  9 13  1  0
 10 11  2  0
 10 12  1  0
 12 29  1  0
 12 32  1  0
 13 14  2  0
 14 15  1  0
 15 16  2  0
 16 17  1  0
 16 19  1  0
 17 18  2  0
 18 13  1  0
 19 20  1  0
 20 21  1  0
 21 22  1  0
 22 23  1  0
 22 25  1  0
 23 24  1  0
 25 26  1  0
 27  5  1  0
 27 28  2  0
 29 30  1  0
 30 31  1  0
 32 33  1  0
 33 34  1  0
M  END
>  <DRUGBANK_ID>  (1) 
DB13091

>  <COMMON_NAME>  (1) 
Tiropramide

>  <CAS_NUMBER>  (1) 
55837-29-1

>  <UNII>  (1) 
R7S0904CN2

>  <SYNONYMS>  (1) 
Tiropramida; Tiropramide; Tiropramidum

$$$$
