STS
     RDKit          2D

 19 21  0  0  0  0  0  0  0  0999 V2000
   -2.2841   -1.4845    0.0000 S   0  0  0  0  0  0  0  0  0  0  0  0
   -1.4591   -1.4845    0.0000 C   0  0  0  0  0  0  0  0  0  0  0  0
   -1.0466   -0.7701    0.0000 C   0  0  0  0  0  0  0  0  0  0  0  0
   -0.2216   -0.7701    0.0000 C   0  0  0  0  0  0  0  0  0  0  0  0
    0.2634   -1.4375    0.0000 N   0  0  0  0  0  0  0  0  0  0  0  0
    1.0480   -1.1826    0.0000 C   0  0  0  0  0  0  0  0  0  0  0  0
    1.0480   -0.3576    0.0000 C   0  0  0  0  0  0  0  0  0  0  0  0
    0.2634   -0.1026    0.0000 N   0  0  0  0  0  0  0  0  0  0  0  0
    1.7625    0.0549    0.0000 C   0  0  0  0  0  0  0  0  0  0  0  0
    2.4769   -0.3576    0.0000 C   0  0  0  0  0  0  0  0  0  0  0  0
    2.4769   -1.1826    0.0000 N   0  0  0  0  0  0  0  0  0  0  0  0
    1.7625   -1.5951    0.0000 C   0  0  0  0  0  0  0  0  0  0  0  0
   -1.4591   -0.0556    0.0000 C   0  0  0  0  0  0  0  0  0  0  0  0
   -1.0466    0.6589    0.0000 C   0  0  0  0  0  0  0  0  0  0  0  0
   -1.4591    1.3733    0.0000 C   0  0  0  0  0  0  0  0  0  0  0  0
   -1.0466    2.0878    0.0000 C   0  0  0  0  0  0  0  0  0  0  0  0
   -0.2216    2.0878    0.0000 C   0  0  0  0  0  0  0  0  0  0  0  0
    0.1909    1.3733    0.0000 C   0  0  0  0  0  0  0  0  0  0  0  0
   -0.2216    0.6589    0.0000 C   0  0  0  0  0  0  0  0  0  0  0  0
  1  2  1  0
  3  2  1  1
  3  4  1  0
  3 13  1  0
  4  5  2  0
  4  8  1  0
  5  6  1  0
  6  7  2  0
  6 12  1  0
  7  8  1  0
  7  9  1  0
  9 10  2  0
 10 11  1  0
 11 12  2  0
 13 14  1  0
 14 15  2  0
 14 19  1  0
 15 16  1  0
 16 17  2  0
 17 18  1  0
 18 19  2  0
M  CHG  1  11   1
M  END
>  <DRUGBANK_ID>  (1) 
DB08575

>  <COMMON_NAME>  (1) 
2-[(1S)-1-BENZYL-2-SULFANYLETHYL]-1H-IMIDAZO[4,5-C]PYRIDIN-5-IUM

$$$$
