
     RDKit          2D

 18 18  0  0  0  0  0  0  0  0999 V2000
   -2.8578   -0.2062    0.0000 C   0  0  0  0  0  0  0  0  0  0  0  0
   -2.1434   -1.4437    0.0000 C   0  0  0  0  0  0  0  0  0  0  0  0
    2.8578   -1.0312    0.0000 C   0  0  0  0  0  0  0  0  0  0  0  0
   -2.1434    0.2062    0.0000 C   0  0  0  0  0  0  0  0  0  0  0  0
   -1.4289   -1.0312    0.0000 C   0  0  0  0  0  0  0  0  0  0  0  0
    2.1434    1.0312    0.0000 C   0  0  0  0  0  0  0  0  0  0  0  0
    1.4289    1.4437    0.0000 C   0  0  0  0  0  0  0  0  0  0  0  0
    2.1434    0.2062    0.0000 C   0  0  0  0  0  0  0  0  0  0  0  0
    0.7144    1.0312    0.0000 C   0  0  0  0  0  0  0  0  0  0  0  0
   -1.4289   -0.2062    0.0000 C   0  0  0  0  0  0  0  0  0  0  0  0
    1.4289   -0.2062    0.0000 C   0  0  0  0  0  0  0  0  0  0  0  0
    0.7144    0.2062    0.0000 C   0  0  0  0  0  0  0  0  0  0  0  0
   -0.7144    0.2062    0.0000 C   0  0  0  0  0  0  0  0  0  0  0  0
    1.4289   -1.0312    0.0000 C   0  0  0  0  0  0  0  0  0  0  0  0
   -0.7144    1.0312    0.0000 O   0  0  0  0  0  0  0  0  0  0  0  0
    0.7144   -1.4437    0.0000 O   0  0  0  0  0  0  0  0  0  0  0  0
    2.1434   -1.4437    0.0000 O   0  0  0  0  0  0  0  0  0  0  0  0
    0.0000   -0.2062    0.0000 O   0  0  0  0  0  0  0  0  0  0  0  0
  4  1  1  0
  5  2  1  0
  7  6  2  0
  8  6  1  0
  9  7  1  0
 10  4  1  0
 10  5  1  0
 11  8  2  0
 12  9  2  0
 12 11  1  0
 13 10  1  0
 14 11  1  0
 15 13  2  0
 16 14  2  0
 17  3  1  0
 17 14  1  0
 18 12  1  0
 18 13  1  0
M  END
>  <DRUGBANK_ID>  (1) 
DB14130

>  <COMMON_NAME>  (1) 
Methyl salicylate 2-ethylbutyrate

>  <CAS_NUMBER>  (1) 
85005-92-1

>  <UNII>  (1) 
J8D9175Q0G

>  <SYNONYMS>  (1) 
Methyl diethylacetylsalicylate; Salicylic acid, methyl ester, 2-ethylbutyrate

$$$$
