
     RDKit          2D

  5  4  0  0  1  0  0  0  0  0999 V2000
    0.8250    1.4289    0.0000 C   0  0  0  0  0  0  0  0  0  0  0  0
    1.2375    0.7145    0.0000 C   0  0  0  0  0  0  0  0  0  0  0  0
    0.8250    0.0000    0.0000 C   0  0  0  0  0  0  0  0  0  0  0  0
    1.2375   -0.7145    0.0000 C   0  0  0  0  0  0  0  0  0  0  0  0
    0.0000    0.0000    0.0000 O   0  0  0  0  0  0  0  0  0  0  0  0
  1  2  1  0
  2  3  1  0
  3  4  1  1
  3  5  1  0
M  END
>  <DRUGBANK_ID>  (1) 
DB02606

>  <SECONDARY_ACCESSION_NUMBERS>  (1) 
EXPT02861

>  <COMMON_NAME>  (1) 
2-Butanol

>  <CAS_NUMBER>  (1) 
78-92-2

>  <UNII>  (1) 
DLH38K423J

$$$$
