
     RDKit          2D

 18 11  0  0  0  0  0  0  0  0999 V2000
    2.8209    0.0931    0.0000 C   0  0  0  0  0  0  0  0  0  0  0  0
    3.3088    0.7584    0.0000 C   0  0  0  0  0  0  0  0  0  0  0  0
    4.1338    0.7584    0.0000 O   0  0  0  0  0  0  0  0  0  0  0  0
    2.8209    1.4237    0.0000 N   0  0  0  0  0  0  0  0  0  0  0  0
    2.0314    1.1665    0.0000 C   0  0  0  0  0  0  0  0  0  0  0  0
    1.3659    1.6543    0.0000 O   0  0  0  0  0  0  0  0  0  0  0  0
    2.0314    0.3414    0.0000 N   0  0  0  0  0  0  0  0  0  0  0  0
    3.0781   -0.6963    0.0000 N   0  0  0  0  0  0  0  0  0  0  0  0
    3.8854   -0.8648    0.0000 C   0  0  0  0  0  0  0  0  0  0  0  0
    4.1426   -1.6543    0.0000 O   0  0  0  0  0  0  0  0  0  0  0  0
    4.4353   -0.2528    0.0000 N   0  0  0  0  0  0  0  0  0  0  0  0
    4.2464   -2.5898    0.0000 O   0  0  0  0  0  0  0  0  0  0  0  0
    3.4126   -2.5898    0.0000 O   0  0  0  0  0  0  0  0  0  0  0  0
    2.5876   -2.5898    0.0000 O   0  0  0  0  0  0  0  0  0  0  0  0
    1.7538   -2.5898    0.0000 O   0  0  0  0  0  0  0  0  0  0  0  0
    3.8752    2.5887    0.0000 Al  0  0  0  0  0 15  0  0  0  0  0  0
    3.0414    2.5887    0.0000 Al  0  0  0  0  0 15  0  0  0  0  0  0
    2.2164    2.5887    0.0000 Cl  0  0  0  0  0  0  0  0  0  0  0  0
  1  2  1  0
  1  7  1  0
  1  8  1  0
  2  3  2  0
  2  4  1  0
  4  5  1  0
  5  6  2  0
  5  7  1  0
  8  9  1  0
  9 10  2  0
  9 11  1  0
M  CHG  8   4  -1  12  -1  13  -1  14  -1  15  -1  16   3  17   3  18  -1
M  END
>  <DRUGBANK_ID>  (1) 
DB11205

>  <COMMON_NAME>  (1) 
Alcloxa

>  <CAS_NUMBER>  (1) 
1317-25-5

>  <UNII>  (1) 
18B8O9DQA2

>  <SYNONYMS>  (1) 
Alcloxa; Alcloxum; Aluminium chlorohydroxyallantoinate; Aluminum chlorhydroxy allantoinate; Aluminum chlorohydroxy allantoinate; Chlorhydroxyaluminum allantoinate; Dialuminum tetrahydroxychloro allantoinate

$$$$
