5CN
     RDKit          2D

 25 27  0  0  0  0  0  0  0  0999 V2000
   -1.3570    2.7646    0.0000 C   0  0  0  0  0  0  0  0  0  0  0  0
   -1.3570    3.5896    0.0000 C   0  0  0  0  0  0  0  0  0  0  0  0
   -0.6426    4.0021    0.0000 C   0  0  0  0  0  0  0  0  0  0  0  0
   -2.7860    1.1146    0.0000 C   0  0  0  0  0  0  0  0  0  0  0  0
   -2.0715    1.5271    0.0000 C   0  0  0  0  0  0  0  0  0  0  0  0
   -2.7860    2.7646    0.0000 C   0  0  0  0  0  0  0  0  0  0  0  0
   -3.5005    2.3521    0.0000 C   0  0  0  0  0  0  0  0  0  0  0  0
   -3.5005    1.5271    0.0000 C   0  0  0  0  0  0  0  0  0  0  0  0
   -4.2149    1.1146    0.0000 C   0  0  0  0  0  0  0  0  0  0  0  0
    0.7864    4.0021    0.0000 C   0  0  0  0  0  0  0  0  0  0  0  0
    0.0719    1.1146    0.0000 C   0  0  0  0  0  0  0  0  0  0  0  0
    0.0719    0.2896    0.0000 C   0  0  0  0  0  0  0  0  0  0  0  0
   -0.5955   -0.1954    0.0000 C   0  0  0  0  0  0  0  0  0  0  0  0
    0.9693   -1.6474    0.0000 C   0  0  0  0  0  0  0  0  0  0  0  0
    0.0719    3.5896    0.0000 C   0  0  0  0  0  0  0  0  0  0  0  0
    0.0719    2.7646    0.0000 C   0  0  0  0  0  0  0  0  0  0  0  0
   -0.6426    2.3521    0.0000 C   0  0  0  0  0  0  0  0  0  0  0  0
   -2.0715    2.3521    0.0000 N   0  0  0  0  0  0  0  0  0  0  0  0
    1.5008    3.5896    0.0000 O   0  0  0  0  0  0  0  0  0  0  0  0
   -0.6426    1.5271    0.0000 N   0  0  0  0  0  0  0  0  0  0  0  0
    0.7864    1.5271    0.0000 O   0  0  0  0  0  0  0  0  0  0  0  0
   -0.3406   -0.9800    0.0000 C   0  0  0  0  0  0  0  0  0  0  0  0
    0.4844   -0.9800    0.0000 C   0  0  0  0  0  0  0  0  0  0  0  0
    0.7393   -0.1954    0.0000 O   0  0  0  0  0  0  0  0  0  0  0  0
    1.4542   -2.3149    0.0000 N   0  0  0  0  0  0  0  0  0  0  0  0
  1 18  1  0
  1  2  2  0
  1 17  1  0
  2  3  1  0
  3 15  2  0
  4  8  1  0
  4  5  1  0
  5 18  1  0
  6  7  1  0
  6 18  1  0
  7  8  1  0
  8  9  1  0
 10 15  1  0
 10 19  1  0
 11 12  1  0
 11 20  1  0
 11 21  2  0
 12 24  1  0
 12 13  2  0
 13 22  1  0
 14 25  3  0
 14 23  1  0
 15 16  1  0
 16 17  2  0
 17 20  1  0
 22 23  2  0
 23 24  1  0
M  END
>  <DRUGBANK_ID>  (1) 
DB07167

>  <COMMON_NAME>  (1) 
5-CYANO-FURAN-2-CARBOXYLIC ACID [5-HYDROXYMETHYL-2-(4-METHYL-PIPERIDIN-1-YL)-PHENYL]-AMIDE

$$$$
