
     RDKit          2D

 24 26  0  0  1  0  0  0  0  0999 V2000
    0.0000   -1.6500    0.0000 C   0  0  0  0  0  0  0  0  0  0  0  0
    0.7145   -1.2375    0.0000 C   0  0  0  0  0  0  0  0  0  0  0  0
    0.7145   -0.4125    0.0000 C   0  0  0  0  0  0  0  0  0  0  0  0
    0.0000    0.0000    0.0000 O   0  0  0  0  0  0  0  0  0  0  0  0
    1.4289    0.0000    0.0000 C   0  0  0  0  0  0  0  0  0  0  0  0
    1.4289    0.8250    0.0000 C   0  0  0  0  0  0  0  0  0  0  0  0
    2.1434   -0.4125    0.0000 C   0  0  0  0  0  0  0  0  0  0  0  0
    2.8579    0.0000    0.0000 C   0  0  0  0  0  0  0  0  0  0  0  0
    3.5724   -0.4125    0.0000 C   0  0  0  0  0  0  0  0  0  0  0  0
    3.5724   -1.2375    0.0000 C   0  0  0  0  0  0  0  0  0  0  0  0
    4.3848   -1.0942    0.0000 C   0  0  0  0  0  0  0  0  0  0  0  0
    2.8579   -1.6500    0.0000 O   0  0  0  0  0  0  0  0  0  0  0  0
    2.1434   -1.2375    0.0000 C   0  0  0  0  0  0  0  0  0  0  0  0
    1.4289   -1.6500    0.0000 C   0  0  0  0  0  0  0  0  0  0  0  0
    1.4289   -2.4750    0.0000 C   0  0  0  0  0  0  0  0  0  0  0  0
    3.8545   -2.0127    0.0000 C   0  0  0  0  0  0  0  0  0  0  0  0
    3.3242   -2.6447    0.0000 O   0  0  0  0  0  0  0  0  0  0  0  0
    4.6670   -2.1560    0.0000 N   0  0  0  0  0  0  0  0  0  0  0  0
    4.9492   -2.9313    0.0000 C   0  0  0  0  0  0  0  0  0  0  0  0
    5.7616   -3.0745    0.0000 C   0  0  0  0  0  0  0  0  0  0  0  0
    6.0438   -3.8498    0.0000 C   0  0  0  0  0  0  0  0  0  0  0  0
    5.5135   -4.4817    0.0000 C   0  0  0  0  0  0  0  0  0  0  0  0
    4.7010   -4.3385    0.0000 N   0  0  0  0  0  0  0  0  0  0  0  0
    4.4189   -3.5632    0.0000 C   0  0  0  0  0  0  0  0  0  0  0  0
  1  2  1  0
  2  3  2  0
  2 14  1  0
  3  4  1  0
  3  5  1  0
  5  6  1  0
  5  7  2  0
  7  8  1  0
  7 13  1  0
  8  9  1  0
 10  9  1  0
 10 11  1  6
 10 12  1  0
 10 16  1  0
 12 13  1  0
 13 14  2  0
 14 15  1  0
 16 17  2  0
 16 18  1  0
 19 18  1  6
 19 20  1  0
 19 24  1  0
 20 21  1  0
 21 22  1  0
 22 23  1  0
 23 24  1  0
M  END
>  <DRUGBANK_ID>  (1) 
DB16333

>  <COMMON_NAME>  (1) 
Sonlicromanol

>  <CAS_NUMBER>  (1) 
1541170-75-5

>  <UNII>  (1) 
JCU3O35RDS

>  <SYNONYMS>  (1) 
(S)-6-Hydroxy-2,5,7,8-Tetramethyl-N-((R)-Piperidin-3-Yl)Chroman-2-Carboxamide; KH-176; KH176; Sonlicromanol

$$$$
