
     RDKit          2D

 26 28  0  0  0  0  0  0  0  0999 V2000
    0.1067   -1.7116    0.0000 C   0  0  0  0  0  0  0  0  0  0  0  0
    0.1067   -2.5366    0.0000 C   0  0  0  0  0  0  0  0  0  0  0  0
    0.7741   -3.0215    0.0000 C   0  0  0  0  0  0  0  0  0  0  0  0
    0.5192   -3.8062    0.0000 C   0  0  0  0  0  0  0  0  0  0  0  0
   -0.3058   -3.8062    0.0000 O   0  0  0  0  0  0  0  0  0  0  0  0
   -0.5607   -3.0215    0.0000 N   0  0  0  0  0  0  0  0  0  0  0  0
    1.0041   -4.4736    0.0000 C   0  0  0  0  0  0  0  0  0  0  0  0
    0.6686   -5.2273    0.0000 C   0  0  0  0  0  0  0  0  0  0  0  0
    1.1535   -5.8947    0.0000 N   0  0  0  0  0  0  0  0  0  0  0  0
    0.8179   -6.6484    0.0000 C   0  0  0  0  0  0  0  0  0  0  0  0
    1.3029   -7.3158    0.0000 C   0  0  0  0  0  0  0  0  0  0  0  0
    0.9673   -8.0695    0.0000 C   0  0  0  0  0  0  0  0  0  0  0  0
    0.1468   -8.1557    0.0000 C   0  0  0  0  0  0  0  0  0  0  0  0
   -0.1887   -8.9094    0.0000 Cl  0  0  0  0  0  0  0  0  0  0  0  0
   -0.3381   -7.4883    0.0000 C   0  0  0  0  0  0  0  0  0  0  0  0
   -0.0025   -6.7346    0.0000 C   0  0  0  0  0  0  0  0  0  0  0  0
    1.8246   -4.3874    0.0000 C   0  0  0  0  0  0  0  0  0  0  0  0
    2.3095   -5.0548    0.0000 O   0  0  0  0  0  0  0  0  0  0  0  0
    2.1602   -3.6337    0.0000 N   0  0  0  0  0  0  0  0  0  0  0  0
    2.9806   -3.5474    0.0000 C   0  0  0  0  0  0  0  0  0  0  0  0
    3.3162   -2.7938    0.0000 C   0  0  0  0  0  0  0  0  0  0  0  0
    4.1367   -2.7075    0.0000 C   0  0  0  0  0  0  0  0  0  0  0  0
    4.6216   -3.3750    0.0000 C   0  0  0  0  0  0  0  0  0  0  0  0
    5.4421   -3.2887    0.0000 Cl  0  0  0  0  0  0  0  0  0  0  0  0
    4.2861   -4.1286    0.0000 C   0  0  0  0  0  0  0  0  0  0  0  0
    3.4656   -4.2149    0.0000 C   0  0  0  0  0  0  0  0  0  0  0  0
  1  2  1  0
  2  3  1  0
  2  6  2  0
  3  4  2  0
  4  5  1  0
  4  7  1  0
  5  6  1  0
  7  8  2  0
  7 17  1  0
  8  9  1  0
  9 10  1  0
 10 11  2  0
 10 16  1  0
 11 12  1  0
 12 13  2  0
 13 14  1  0
 13 15  1  0
 15 16  2  0
 17 18  2  0
 17 19  1  0
 19 20  1  0
 20 21  2  0
 20 26  1  0
 21 22  1  0
 22 23  2  0
 23 24  1  0
 23 25  1  0
 25 26  2  0
M  END
>  <DRUGBANK_ID>  (1) 
DB18707

>  <COMMON_NAME>  (1) 
AVL-3288

>  <CAS_NUMBER>  (1) 
917837-54-8

>  <UNII>  (1) 
VA80VAX4WF

>  <SYNONYMS>  (1) 
(z)-3-(4-chloroanilino)-n-(4-chlorophenyl)-2-(3-methylisoxazol-5-yl)prop-2-enamide; Anvylic-3288; AVL-3288

$$$$
