
     RDKit          2D

  5  4  0  0  0  0  0  0  0  0999 V2000
   -0.8250    0.0000    0.0000 O   0  0  0  0  0  0  0  0  0  0  0  0
    0.0000    0.0000    0.0000 P   0  0  0  0  0  0  0  0  0  0  0  0
    0.8250    0.0000    0.0000 O   0  0  0  0  0  0  0  0  0  0  0  0
    0.0000    0.8250    0.0000 O   0  0  0  0  0  0  0  0  0  0  0  0
    0.0084   -0.8250    0.0000 O   0  0  0  0  0  0  0  0  0  0  0  0
  2  4  1  0
  2  1  2  0
  2  5  1  0
  2  3  1  0
M  CHG  1   3  -1
M  END
>  <DRUGBANK_ID>  (1) 
DB02831

>  <SECONDARY_ACCESSION_NUMBERS>  (1) 
EXPT00124

>  <COMMON_NAME>  (1) 
Dihydrogenphosphate

>  <CAS_NUMBER>  (1) 
29505-79-1

>  <SYNONYMS>  (1) 
Dihydrogenphosphate ion

$$$$
