AJI
     RDKit          2D

 30 33  0  0  0  0  0  0  0  0999 V2000
   -3.3063    2.2567    0.0000 C   0  0  0  0  0  0  0  0  0  0  0  0
   -0.7350   -3.7607    0.0000 C   0  0  0  0  0  0  0  0  0  0  0  0
    3.6305    0.3134    0.0000 C   0  0  0  0  0  0  0  0  0  0  0  0
    3.4812    1.7345    0.0000 C   0  0  0  0  0  0  0  0  0  0  0  0
    2.8101    0.2272    0.0000 C   0  0  0  0  0  0  0  0  0  0  0  0
    2.6607    1.6483    0.0000 C   0  0  0  0  0  0  0  0  0  0  0  0
    1.6540   -0.6128    0.0000 C   0  0  0  0  0  0  0  0  0  0  0  0
    1.3185   -1.3664    0.0000 C   0  0  0  0  0  0  0  0  0  0  0  0
   -1.8542    2.4866    0.0000 C   0  0  0  0  0  0  0  0  0  0  0  0
   -1.8775   -2.8355    0.0000 C   0  0  0  0  0  0  0  0  0  0  0  0
   -2.5216    2.0017    0.0000 C   0  0  0  0  0  0  0  0  0  0  0  0
    3.9661    1.0671    0.0000 C   0  0  0  0  0  0  0  0  0  0  0  0
    2.3251    0.8946    0.0000 C   0  0  0  0  0  0  0  0  0  0  0  0
    1.1691    0.0547    0.0000 C   0  0  0  0  0  0  0  0  0  0  0  0
    0.4980   -1.4527    0.0000 C   0  0  0  0  0  0  0  0  0  0  0  0
    0.3486   -0.0315    0.0000 C   0  0  0  0  0  0  0  0  0  0  0  0
   -1.4417    1.2171    0.0000 C   0  0  0  0  0  0  0  0  0  0  0  0
   -0.6581   -2.2926    0.0000 C   0  0  0  0  0  0  0  0  0  0  0  0
   -0.1363    0.6359    0.0000 C   0  0  0  0  0  0  0  0  0  0  0  0
   -1.9638   -2.0150    0.0000 N   0  0  0  0  0  0  0  0  0  0  0  0
   -2.2667    1.2171    0.0000 N   0  0  0  0  0  0  0  0  0  0  0  0
    0.0131   -0.7852    0.0000 N   0  0  0  0  0  0  0  0  0  0  0  0
   -1.2101   -1.6795    0.0000 N   0  0  0  0  0  0  0  0  0  0  0  0
   -0.9568    0.5497    0.0000 N   0  0  0  0  0  0  0  0  0  0  0  0
   -1.0706   -3.0070    0.0000 N   0  0  0  0  0  0  0  0  0  0  0  0
    0.1993    1.3896    0.0000 O   0  0  0  0  0  0  0  0  0  0  0  0
    4.7866    1.1533    0.0000 F   0  0  0  0  0  0  0  0  0  0  0  0
   -1.1868    2.0017    0.0000 S   0  0  0  0  0  0  0  0  0  0  0  0
    1.5047    0.8084    0.0000 S   0  0  0  0  0  0  0  0  0  0  0  0
    0.1624   -2.2063    0.0000 S   0  0  0  0  0  0  0  0  0  0  0  0
  1 11  1  0
  2 25  1  0
  3  5  2  0
  3 12  1  0
  4  6  1  0
  4 12  2  0
  5 13  1  0
  6 13  2  0
  7  8  2  0
  7 14  1  0
  8 15  1  0
  9 11  2  0
  9 28  1  0
 10 20  2  0
 10 25  1  0
 11 21  1  0
 12 27  1  0
 13 29  1  0
 14 16  2  0
 14 29  1  0
 15 22  2  0
 15 30  1  0
 16 19  1  0
 16 22  1  0
 17 21  2  0
 17 24  1  0
 17 28  1  0
 18 23  2  0
 18 25  1  0
 18 30  1  0
 19 24  1  0
 19 26  2  0
 20 23  1  0
M  END
>  <DRUGBANK_ID>  (1) 
DB07359

>  <COMMON_NAME>  (1) 
3-[(4-fluorophenyl)sulfanyl]-N-(4-methyl-1,3-thiazol-2-yl)-6-[(4-methyl-4H-1,2,4-triazol-3-yl)sulfanyl]pyridine-2-carboxamide

$$$$
