
     RDKit          2D

 32 31  0  0  1  0  0  0  0  0999 V2000
   -8.1395    4.6993    0.0000 C   0  0  0  0  0  0  0  0  0  0  0  0
   10.4368    4.6993    0.0000 C   0  0  0  0  0  0  0  0  0  0  0  0
   -7.4250    4.2868    0.0000 C   0  0  0  0  0  0  0  0  0  0  0  0
    9.7223    4.2868    0.0000 C   0  0  0  0  0  0  0  0  0  0  0  0
   -6.7105    4.6993    0.0000 C   0  0  0  0  0  0  0  0  0  0  0  0
    9.0078    4.6993    0.0000 C   0  0  0  0  0  0  0  0  0  0  0  0
   -5.9961    4.2868    0.0000 C   0  0  0  0  0  0  0  0  0  0  0  0
    8.2934    4.2868    0.0000 C   0  0  0  0  0  0  0  0  0  0  0  0
   -5.2816    4.6993    0.0000 C   0  0  0  0  0  0  0  0  0  0  0  0
    7.5789    4.6993    0.0000 C   0  0  0  0  0  0  0  0  0  0  0  0
   -4.5671    4.2868    0.0000 C   0  0  0  0  0  0  0  0  0  0  0  0
    6.8644    4.2868    0.0000 C   0  0  0  0  0  0  0  0  0  0  0  0
   -3.8526    4.6993    0.0000 C   0  0  0  0  0  0  0  0  0  0  0  0
    6.1499    4.6993    0.0000 C   0  0  0  0  0  0  0  0  0  0  0  0
   -3.1382    4.2868    0.0000 C   0  0  0  0  0  0  0  0  0  0  0  0
    5.4355    4.2868    0.0000 C   0  0  0  0  0  0  0  0  0  0  0  0
   -2.4237    4.6993    0.0000 C   0  0  0  0  0  0  0  0  0  0  0  0
    4.7210    4.6993    0.0000 C   0  0  0  0  0  0  0  0  0  0  0  0
   -1.7092    4.2868    0.0000 C   0  0  0  0  0  0  0  0  0  0  0  0
    4.0065    4.2868    0.0000 C   0  0  0  0  0  0  0  0  0  0  0  0
   -0.9948    4.6993    0.0000 C   0  0  0  0  0  0  0  0  0  0  0  0
    3.2921    4.6993    0.0000 C   0  0  0  0  0  0  0  0  0  0  0  0
   -0.2803    4.2868    0.0000 C   0  0  0  0  0  0  0  0  0  0  0  0
    2.5776    4.2868    0.0000 C   0  0  0  0  0  0  0  0  0  0  0  0
    0.4342    5.5243    0.0000 C   0  0  0  0  0  0  0  0  0  0  0  0
    0.4342    4.6993    0.0000 C   0  0  0  0  0  0  0  0  0  0  0  0
   -0.2803    5.9368    0.0000 C   0  0  0  0  0  0  0  0  0  0  0  0
    1.8631    4.6993    0.0000 C   0  0  0  0  0  0  0  0  0  0  0  0
   -0.9948    5.5243    0.0000 O   0  0  0  0  0  0  0  0  0  0  0  0
   -0.2803    6.7618    0.0000 O   0  0  0  0  0  0  0  0  0  0  0  0
    1.8631    5.5243    0.0000 O   0  0  0  0  0  0  0  0  0  0  0  0
    1.1487    4.2868    0.0000 O   0  0  0  0  0  0  0  0  0  0  0  0
  3  1  1  0
  4  2  1  0
  5  3  1  0
  6  4  1  0
  7  5  1  0
  8  6  1  0
  9  7  1  0
 10  8  1  0
 11  9  1  0
 12 10  1  0
 13 11  1  0
 14 12  1  0
 15 13  1  0
 16 14  1  0
 17 15  1  0
 18 16  1  0
 19 17  1  0
 20 18  1  0
 21 19  1  0
 22 20  1  0
 23 21  1  0
 24 22  1  0
 26 23  1  1
 26 25  1  0
 26 32  1  0
 27 25  1  0
 28 24  1  0
 29 27  2  0
 30 27  1  0
 31 28  2  0
 32 28  1  0
M  END
>  <DRUGBANK_ID>  (1) 
DB01814

>  <SECONDARY_ACCESSION_NUMBERS>  (1) 
EXPT02033

>  <COMMON_NAME>  (1) 
2-Tridecanoyloxy-Pentadecanoic Acid

$$$$
