
     RDKit          2D

 11 12  0  0  0  0  0  0  0  0999 V2000
   -1.1411   -1.4290    0.0000 O   0  0  0  0  0  0  0  0  0  0  0  0
   -0.7286   -0.7145    0.0000 C   0  0  0  0  0  0  0  0  0  0  0  0
   -1.1411    0.0000    0.0000 C   0  0  0  0  0  0  0  0  0  0  0  0
   -0.7286    0.7145    0.0000 C   0  0  0  0  0  0  0  0  0  0  0  0
   -1.1411    1.4290    0.0000 C   0  0  0  0  0  0  0  0  0  0  0  0
    0.0965    0.7145    0.0000 C   0  0  0  0  0  0  0  0  0  0  0  0
   -0.3159    0.0000    0.0000 C   0  0  0  0  0  0  0  0  0  0  0  0
    0.0965   -0.7145    0.0000 C   0  0  0  0  0  0  0  0  0  0  0  0
    0.5090    0.0000    0.0000 C   0  0  0  0  0  0  0  0  0  0  0  0
    1.1411   -0.5302    0.0000 C   0  0  0  0  0  0  0  0  0  0  0  0
    1.1411    0.5302    0.0000 C   0  0  0  0  0  0  0  0  0  0  0  0
  2  1  2  0
  3  2  1  0
  3  4  2  0
  4  6  1  0
  5  4  1  0
  6  7  1  1
  6  9  1  0
  8  7  1  1
  8  2  1  0
  8  9  1  0
 10  9  1  0
 11  9  1  0
M  END
>  <DRUGBANK_ID>  (1) 
DB15977

>  <COMMON_NAME>  (1) 
Verbenone

>  <CAS_NUMBER>  (1) 
80-57-9

>  <UNII>  (1) 
IFV46DXC6U

$$$$
