
     RDKit          2D

 33 35  0  0  1  0  0  0  0  0999 V2000
    0.7145    0.4125    0.0000 C   0  0  0  0  0  0  0  0  0  0  0  0
    0.7145   -0.4125    0.0000 C   0  0  0  0  0  0  0  0  0  0  0  0
    1.4289    0.8250    0.0000 C   0  0  0  0  0  0  0  0  0  0  0  0
    2.1434   -2.0625    0.0000 C   0  0  0  0  0  0  0  0  0  0  0  0
    1.4289   -0.8250    0.0000 C   0  0  0  0  0  0  0  0  0  0  0  0
    2.1434    0.4125    0.0000 C   0  0  0  0  0  0  0  0  0  0  0  0
    2.8579   -1.6500    0.0000 C   0  0  0  0  0  0  0  0  0  0  0  0
    2.1434   -2.8875    0.0000 C   0  0  0  0  0  0  0  0  0  0  0  0
    7.1447   -0.8250    0.0000 C   0  0  0  0  0  0  0  0  0  0  0  0
    6.4302   -0.4125    0.0000 C   0  0  0  0  0  0  0  0  0  0  0  0
    3.5724   -2.8875    0.0000 C   0  0  0  0  0  0  0  0  0  0  0  0
    2.8579   -0.8250    0.0000 C   0  0  0  0  0  0  0  0  0  0  0  0
    6.4302   -2.0625    0.0000 C   0  0  0  0  0  0  0  0  0  0  0  0
    4.2868   -1.6500    0.0000 C   0  0  0  0  0  0  0  0  0  0  0  0
    2.1434   -0.4125    0.0000 C   0  0  0  0  0  0  0  0  0  0  0  0
    3.5724   -2.0625    0.0000 C   0  0  0  0  0  0  0  0  0  0  0  0
    2.8579   -3.3000    0.0000 C   0  0  0  0  0  0  0  0  0  0  0  0
    7.1447   -1.6500    0.0000 C   0  0  0  0  0  0  0  0  0  0  0  0
    5.7158   -0.8250    0.0000 C   0  0  0  0  0  0  0  0  0  0  0  0
    5.7158   -1.6500    0.0000 C   0  0  0  0  0  0  0  0  0  0  0  0
    3.5724   -0.4125    0.0000 C   0  0  0  0  0  0  0  0  0  0  0  0
    5.0013   -0.4125    0.0000 C   0  0  0  0  0  0  0  0  0  0  0  0
    3.5724    0.4125    0.0000 C   0  0  0  0  0  0  0  0  0  0  0  0
    2.8579   -4.1250    0.0000 C   0  0  0  0  0  0  0  0  0  0  0  0
    7.8592   -2.0625    0.0000 Cl  0  0  0  0  0  0  0  0  0  0  0  0
    5.0013   -2.0625    0.0000 Cl  0  0  0  0  0  0  0  0  0  0  0  0
    2.8579   -4.9500    0.0000 F   0  0  0  0  0  0  0  0  0  0  0  0
    3.6829   -4.1250    0.0000 F   0  0  0  0  0  0  0  0  0  0  0  0
    2.0329   -4.1250    0.0000 F   0  0  0  0  0  0  0  0  0  0  0  0
    4.2868   -0.8250    0.0000 N   0  0  0  0  0  0  0  0  0  0  0  0
    5.0013    0.4125    0.0000 O   0  0  0  0  0  0  0  0  0  0  0  0
    2.8579    0.8250    0.0000 O   0  0  0  0  0  0  0  0  0  0  0  0
    4.2868    0.8250    0.0000 O   0  0  0  0  0  0  0  0  0  0  0  0
  2  1  2  0
  3  1  1  0
  5  2  1  0
  6  3  2  0
  7  4  2  0
  8  4  1  0
 10  9  2  0
 15  5  2  0
 15  6  1  0
 15 12  1  0
 16  7  1  0
 16 11  2  0
 16 14  1  0
 17  8  2  0
 17 11  1  0
 18  9  1  0
 18 13  2  0
 19 10  1  0
 20 13  1  0
 20 19  2  0
 21 12  1  1
 21 30  1  0
 22 19  1  0
 23 21  1  0
 24 17  1  0
 25 18  1  0
 26 20  1  0
 27 24  1  0
 28 24  1  0
 29 24  1  0
 30 14  1  0
 30 22  1  0
 31 22  2  0
 32 23  2  0
 33 23  1  0
M  END
>  <DRUGBANK_ID>  (1) 
DB03605

>  <SECONDARY_ACCESSION_NUMBERS>  (1) 
EXPT00039

>  <COMMON_NAME>  (1) 
(2s)-2-[(2,4-Dichloro-Benzoyl)-(3-Trifluoromethyl-Benzyl)-Amino]-3-Phenyl-Propionic Acid

$$$$
