DSY
     RDKit          2D

 17 18  0  0  0  0  0  0  0  0999 V2000
   -0.5608   -1.2849    0.0000 C   0  0  0  0  0  0  0  0  0  0  0  0
   -1.2752   -0.8724    0.0000 C   0  0  0  0  0  0  0  0  0  0  0  0
   -1.2752   -0.0474    0.0000 C   0  0  0  0  0  0  0  0  0  0  0  0
   -0.5608    0.3651    0.0000 C   0  0  0  0  0  0  0  0  0  0  0  0
    0.1537   -0.0474    0.0000 C   0  0  0  0  0  0  0  0  0  0  0  0
    0.8682    0.3651    0.0000 C   0  0  0  0  0  0  0  0  0  0  0  0
    1.5826   -0.0474    0.0000 C   0  0  0  0  0  0  0  0  0  0  0  0
    1.5826   -0.8724    0.0000 C   0  0  0  0  0  0  0  0  0  0  0  0
    0.8682   -1.2849    0.0000 C   0  0  0  0  0  0  0  0  0  0  0  0
    0.1537   -0.8724    0.0000 C   0  0  0  0  0  0  0  0  0  0  0  0
    0.8682    1.1901    0.0000 N   0  0  0  0  0  0  0  0  0  0  0  0
    1.5826    1.6026    0.0000 C   0  0  0  0  0  0  0  0  0  0  0  0
    0.1537    1.6026    0.0000 C   0  0  0  0  0  0  0  0  0  0  0  0
   -1.9897   -1.2849    0.0000 S   0  0  0  0  0  0  0  0  0  0  0  0
   -2.7042   -1.6974    0.0000 O   0  0  0  0  0  0  0  0  0  0  0  0
   -2.4022   -0.5704    0.0000 O   0  0  0  0  0  0  0  0  0  0  0  0
   -1.5772   -1.9993    0.0000 O   0  0  0  0  0  0  0  0  0  0  0  0
  1  2  2  0
  1 10  1  0
  2  3  1  0
  2 14  1  0
  3  4  2  0
  4  5  1  0
  5  6  1  0
  5 10  2  0
  6  7  2  0
  6 11  1  0
  7  8  1  0
  8  9  2  0
  9 10  1  0
 11 12  1  0
 11 13  1  0
 14 15  2  0
 14 16  1  0
 14 17  2  0
M  END
>  <DRUGBANK_ID>  (1) 
DB07684

>  <COMMON_NAME>  (1) 
5-(DIMETHYLAMINO)-2-NAPHTHALENESULFONIC ACID

$$$$
