
     RDKit          2D

 28 30  0  0  0  0  0  0  0  0999 V2000
   -2.8566   -0.1911    0.0000 C   0  0  0  0  0  0  0  0  0  0  0  0
   -2.8566   -1.0161    0.0000 C   0  0  0  0  0  0  0  0  0  0  0  0
   -1.4325   -1.0161    0.0000 C   0  0  0  0  0  0  0  0  0  0  0  0
   -1.4325   -0.1911    0.0000 N   0  0  0  0  0  0  0  0  0  0  0  0
   -2.1487    0.2255    0.0000 N   0  0  0  0  0  0  0  0  0  0  0  0
   -3.4399   -1.5995    0.0000 C   0  0  0  0  0  0  0  0  0  0  0  0
   -4.2368   -1.3859    0.0000 C   0  0  0  0  0  0  0  0  0  0  0  0
   -3.2264   -2.3964    0.0000 C   0  0  0  0  0  0  0  0  0  0  0  0
   -0.8340    0.5784    0.0000 C   0  0  0  0  0  0  0  0  0  0  0  0
   -3.5729    0.2182    0.0000 O   0  0  0  0  0  0  0  0  0  0  0  0
   -2.1508    1.0505    0.0000 C   0  0  0  0  0  0  0  0  0  0  0  0
   -1.4343    1.4615    0.0000 C   0  0  0  0  0  0  0  0  0  0  0  0
   -1.4360    2.2857    0.0000 C   0  0  0  0  0  0  0  0  0  0  0  0
   -2.1521    2.6973    0.0000 C   0  0  0  0  0  0  0  0  0  0  0  0
   -2.8679    2.2785    0.0000 C   0  0  0  0  0  0  0  0  0  0  0  0
   -2.8626    1.4556    0.0000 C   0  0  0  0  0  0  0  0  0  0  0  0
   -0.7232   -1.4287    0.0000 C   0  0  0  0  0  0  0  0  0  0  0  0
    0.2809   -1.1495    0.0000 N   0  0  0  0  0  0  0  0  0  0  0  0
    1.1684   -1.7745    0.0000 C   0  0  0  0  0  0  0  0  0  0  0  0
    0.2893   -0.0786    0.0000 C   0  0  0  0  0  0  0  0  0  0  0  0
    1.1892   -2.6139    0.0000 C   0  0  0  0  0  0  0  0  0  0  0  0
    1.9833   -1.2174    0.0000 C   0  0  0  0  0  0  0  0  0  0  0  0
    2.7361   -1.5482    0.0000 C   0  0  0  0  0  0  0  0  0  0  0  0
    2.8225   -2.3661    0.0000 C   0  0  0  0  0  0  0  0  0  0  0  0
    3.5733   -2.6973    0.0000 C   0  0  0  0  0  0  0  0  0  0  0  0
    4.2368   -2.2118    0.0000 C   0  0  0  0  0  0  0  0  0  0  0  0
    4.1448   -1.3912    0.0000 C   0  0  0  0  0  0  0  0  0  0  0  0
    3.3939   -1.0639    0.0000 C   0  0  0  0  0  0  0  0  0  0  0  0
  1 10  2  0
  1  2  1  0
  2  3  2  0
  2  6  1  0
  3  4  1  0
  3 17  1  0
  4  5  1  0
  4  9  1  0
  5  1  1  0
  5 11  1  0
  6  7  1  0
  6  8  1  0
 11 12  2  0
 12 13  1  0
 13 14  2  0
 14 15  1  0
 15 16  2  0
 16 11  1  0
 17 18  1  0
 18 19  1  0
 18 20  1  0
 19 21  1  0
 19 22  1  0
 22 23  1  0
 23 24  2  0
 24 25  1  0
 25 26  2  0
 26 27  1  0
 27 28  2  0
 28 23  1  0
M  END
>  <DRUGBANK_ID>  (1) 
DB16702

>  <COMMON_NAME>  (1) 
Famprofazone

>  <CAS_NUMBER>  (1) 
22881-35-2

>  <UNII>  (1) 
HN0NCX453C

>  <SYNONYMS>  (1) 
Famprofazone

$$$$
