L1R
     RDKit          2D

 25 26  0  0  0  0  0  0  0  0999 V2000
   16.5893    9.2282    0.0000 C   0  0  0  0  0  0  0  0  0  0  0  0
   16.5893    8.4032    0.0000 C   0  0  0  0  0  0  0  0  0  0  0  0
   17.3038    7.9907    0.0000 C   0  0  0  0  0  0  0  0  0  0  0  0
   15.8748    7.9907    0.0000 O   0  0  0  0  0  0  0  0  0  0  0  0
   15.8748    7.1657    0.0000 C   0  0  0  0  0  0  0  0  0  0  0  0
   16.5893    6.7532    0.0000 C   0  0  0  0  0  0  0  0  0  0  0  0
   16.5893    5.9282    0.0000 C   0  0  0  0  0  0  0  0  0  0  0  0
   15.8748    5.5157    0.0000 C   0  0  0  0  0  0  0  0  0  0  0  0
   15.1603    5.9282    0.0000 C   0  0  0  0  0  0  0  0  0  0  0  0
   14.4459    5.5157    0.0000 N   0  0  0  0  0  0  0  0  0  0  0  0
   14.4459    4.6907    0.0000 C   0  0  0  0  0  0  0  0  0  0  0  0
   15.1603    4.2782    0.0000 O   0  0  0  0  0  0  0  0  0  0  0  0
   13.7314    4.2782    0.0000 C   0  0  0  0  0  0  0  0  0  0  0  0
   13.7314    3.4532    0.0000 C   0  0  0  0  0  0  0  0  0  0  0  0
   13.0169    3.0407    0.0000 C   0  0  0  0  0  0  0  0  0  0  0  0
   13.0169    2.2157    0.0000 Cl  0  0  0  0  0  0  0  0  0  0  0  0
   12.3025    3.4532    0.0000 C   0  0  0  0  0  0  0  0  0  0  0  0
   11.5880    3.0407    0.0000 O   0  0  0  0  0  0  0  0  0  0  0  0
   11.5880    2.2157    0.0000 C   0  0  0  0  0  0  0  0  0  0  0  0
   10.8735    1.8032    0.0000 C   0  0  0  0  0  0  0  0  0  0  0  0
   10.8735    0.9782    0.0000 N   0  0  0  0  0  0  0  0  0  0  0  0
   12.3025    4.2782    0.0000 C   0  0  0  0  0  0  0  0  0  0  0  0
   11.5880    4.6907    0.0000 Cl  0  0  0  0  0  0  0  0  0  0  0  0
   13.0169    4.6907    0.0000 C   0  0  0  0  0  0  0  0  0  0  0  0
   15.1603    6.7532    0.0000 C   0  0  0  0  0  0  0  0  0  0  0  0
  1  2  1  0
  2  3  1  0
  2  4  1  0
  4  5  1  0
  5  6  2  0
  5 25  1  0
  6  7  1  0
  7  8  2  0
  8  9  1  0
  9 10  1  0
  9 25  2  0
 10 11  1  0
 11 12  2  0
 11 13  1  0
 13 14  2  0
 13 24  1  0
 14 15  1  0
 15 16  1  0
 15 17  2  0
 17 18  1  0
 17 22  1  0
 18 19  1  0
 19 20  1  0
 20 21  1  0
 22 23  1  0
 22 24  2  0
M  END
>  <DRUGBANK_ID>  (1) 
DB08072

>  <COMMON_NAME>  (1) 
4-(2-AMINOETHOXY)-3,5-DICHLORO-N-[3-(1-METHYLETHOXY)PHENYL]BENZAMIDE

$$$$
