
     RDKit          2D

 21 24  0  0  0  0  0  0  0  0999 V2000
   -0.6410   -0.1114    0.0000 C   0  0  0  0  0  0  0  0  0  0  0  0
   -0.6410   -0.9364    0.0000 C   0  0  0  0  0  0  0  0  0  0  0  0
   -1.3544    0.3121    0.0000 C   0  0  0  0  0  0  0  0  0  0  0  0
   -1.3544   -1.3433    0.0000 C   0  0  0  0  0  0  0  0  0  0  0  0
   -2.0623   -0.1114    0.0000 C   0  0  0  0  0  0  0  0  0  0  0  0
   -2.0623   -0.9364    0.0000 C   0  0  0  0  0  0  0  0  0  0  0  0
    0.0836    0.3121    0.0000 C   0  0  0  0  0  0  0  0  0  0  0  0
    0.7915   -0.1114    0.0000 C   0  0  0  0  0  0  0  0  0  0  0  0
    0.0836   -1.3433    0.0000 C   0  0  0  0  0  0  0  0  0  0  0  0
    0.7915   -0.9364    0.0000 C   0  0  0  0  0  0  0  0  0  0  0  0
    0.0836    1.1371    0.0000 C   0  0  0  0  0  0  0  0  0  0  0  0
    0.7915    1.5440    0.0000 C   0  0  0  0  0  0  0  0  0  0  0  0
    1.5160    0.3121    0.0000 C   0  0  0  0  0  0  0  0  0  0  0  0
    1.5160    1.1371    0.0000 C   0  0  0  0  0  0  0  0  0  0  0  0
    2.2965    0.0557    0.0000 C   0  0  0  0  0  0  0  0  0  0  0  0
    2.7870    0.7190    0.0000 C   0  0  0  0  0  0  0  0  0  0  0  0
    2.2965    1.3935    0.0000 C   0  0  0  0  0  0  0  0  0  0  0  0
   -2.7870   -1.3433    0.0000 O   0  0  0  0  0  0  0  0  0  0  0  0
   -1.3544   -2.1739    0.0000 O   0  0  0  0  0  0  0  0  0  0  0  0
    2.5529    2.1739    0.0000 O   0  0  0  0  0  0  0  0  0  0  0  0
    1.5160    1.9676    0.0000 C   0  0  0  0  0  0  0  0  0  0  0  0
  1  3  1  6
  1  7  1  0
  1  2  1  0
  2  4  2  0
  2  9  1  0
  3  5  1  0
  4  6  1  0
  4 19  1  0
  5  6  1  0
  6 18  2  0
  7 11  1  1
  7  8  1  0
  8 10  1  6
  8 13  1  0
  9 10  1  0
 11 12  1  0
 12 14  1  0
 13 15  1  1
 13 14  1  0
 14 17  1  0
 14 21  1  1
 15 16  1  0
 16 17  1  0
 17 20  1  1
M  END
>  <DRUGBANK_ID>  (1) 
DB01500

>  <COMMON_NAME>  (1) 
Oxabolone

>  <CAS_NUMBER>  (1) 
4721-69-1

>  <UNII>  (1) 
51RPF719WE

>  <SYNONYMS>  (1) 
4-hydroxy nandrolone; 4-hydroxy-19-nortestosterone

$$$$
