AIQ
     RDKit          2D

 20 22  0  0  0  0  0  0  0  0999 V2000
   -1.0547   -0.7424    0.0000 C   0  0  0  0  0  0  0  0  0  0  0  0
   -0.3403   -0.3299    0.0000 C   0  0  0  0  0  0  0  0  0  0  0  0
   -0.3403    0.4951    0.0000 C   0  0  0  0  0  0  0  0  0  0  0  0
    0.3742   -0.7424    0.0000 C   0  0  0  0  0  0  0  0  0  0  0  0
    1.0887   -0.3299    0.0000 N   0  0  0  0  0  0  0  0  0  0  0  0
    1.8031   -0.7424    0.0000 C   0  0  0  0  0  0  0  0  0  0  0  0
    2.5176   -0.3299    0.0000 N   0  0  0  0  0  0  0  0  0  0  0  0
    1.8031   -1.5674    0.0000 N   0  0  0  0  0  0  0  0  0  0  0  0
    1.0887   -1.9799    0.0000 C   0  0  0  0  0  0  0  0  0  0  0  0
    1.0887   -2.8049    0.0000 O   0  0  0  0  0  0  0  0  0  0  0  0
    0.3742   -1.5674    0.0000 C   0  0  0  0  0  0  0  0  0  0  0  0
   -0.3403   -1.9799    0.0000 C   0  0  0  0  0  0  0  0  0  0  0  0
   -1.0547   -1.5674    0.0000 C   0  0  0  0  0  0  0  0  0  0  0  0
   -1.7692   -1.9799    0.0000 N   0  0  0  0  0  0  0  0  0  0  0  0
   -1.0547    0.9076    0.0000 S   0  0  0  0  0  0  0  0  0  0  0  0
   -1.0547    1.7326    0.0000 C   0  0  0  0  0  0  0  0  0  0  0  0
   -1.7222    2.2176    0.0000 N   0  0  0  0  0  0  0  0  0  0  0  0
   -0.3873    2.2176    0.0000 N   0  0  0  0  0  0  0  0  0  0  0  0
   -1.4672    3.0022    0.0000 C   0  0  0  0  0  0  0  0  0  0  0  0
   -0.6422    3.0022    0.0000 C   0  0  0  0  0  0  0  0  0  0  0  0
  1  2  2  0
  1 13  1  0
  2  3  1  0
  2  4  1  0
  3 15  1  0
  4  5  1  0
  4 11  2  0
  5  6  2  0
  6  7  1  0
  6  8  1  0
  8  9  1  0
  9 10  2  0
  9 11  1  0
 11 12  1  0
 12 13  2  0
 13 14  1  0
 15 16  1  0
 16 17  2  0
 16 18  1  0
 17 19  1  0
 18 20  1  0
 19 20  2  0
M  END
>  <DRUGBANK_ID>  (1) 
DB04543

>  <SECONDARY_ACCESSION_NUMBERS>  (1) 
EXPT00476

>  <COMMON_NAME>  (1) 
2,6-Diamino-8-(1h-Imidazol-2-Ylsulfanylmethyl)-3h-Quinazoline-4-One

$$$$
