783
     RDKit          2D

 27 30  0  0  0  0  0  0  0  0999 V2000
    3.0543   -0.0997    0.0000 C   0  0  0  0  0  0  0  0  0  0  0  0
    3.0543   -0.9247    0.0000 C   0  0  0  0  0  0  0  0  0  0  0  0
    2.3398   -1.3372    0.0000 C   0  0  0  0  0  0  0  0  0  0  0  0
    1.6253   -0.9247    0.0000 C   0  0  0  0  0  0  0  0  0  0  0  0
    1.6253   -0.0997    0.0000 C   0  0  0  0  0  0  0  0  0  0  0  0
    2.3398    0.3128    0.0000 C   0  0  0  0  0  0  0  0  0  0  0  0
    3.7687    0.3128    0.0000 C   0  0  0  0  0  0  0  0  0  0  0  0
    4.4832   -0.0997    0.0000 N   0  0  0  0  0  0  0  0  0  0  0  0
    3.7687    1.1378    0.0000 N   0  0  0  0  0  0  0  0  0  0  0  0
    0.8407   -1.1797    0.0000 N   0  0  0  0  0  0  0  0  0  0  0  0
    0.8407    0.1552    0.0000 C   0  0  0  0  0  0  0  0  0  0  0  0
    0.3558   -0.5122    0.0000 C   0  0  0  0  0  0  0  0  0  0  0  0
   -0.4692   -0.5122    0.0000 C   0  0  0  0  0  0  0  0  0  0  0  0
   -0.8817   -1.2267    0.0000 C   0  0  0  0  0  0  0  0  0  0  0  0
   -1.7067   -1.2267    0.0000 C   0  0  0  0  0  0  0  0  0  0  0  0
   -2.1192   -1.9412    0.0000 O   0  0  0  0  0  0  0  0  0  0  0  0
   -2.9442   -1.9412    0.0000 C   0  0  0  0  0  0  0  0  0  0  0  0
   -2.1192   -0.5122    0.0000 C   0  0  0  0  0  0  0  0  0  0  0  0
   -1.7067    0.2023    0.0000 C   0  0  0  0  0  0  0  0  0  0  0  0
   -0.8817    0.2023    0.0000 C   0  0  0  0  0  0  0  0  0  0  0  0
   -0.4692    0.9167    0.0000 O   0  0  0  0  0  0  0  0  0  0  0  0
   -2.1192    0.9167    0.0000 C   0  0  0  0  0  0  0  0  0  0  0  0
   -2.9442    0.9167    0.0000 C   0  0  0  0  0  0  0  0  0  0  0  0
   -3.3567    1.6312    0.0000 C   0  0  0  0  0  0  0  0  0  0  0  0
   -2.9442    2.3457    0.0000 C   0  0  0  0  0  0  0  0  0  0  0  0
   -2.1192    2.3457    0.0000 C   0  0  0  0  0  0  0  0  0  0  0  0
   -1.7067    1.6312    0.0000 C   0  0  0  0  0  0  0  0  0  0  0  0
  1  2  2  0
  1  6  1  0
  1  7  1  0
  2  3  1  0
  3  4  2  0
  4  5  1  0
  4 10  1  0
  5  6  2  0
  5 11  1  0
  7  8  1  0
  7  9  2  0
 10 12  1  0
 11 12  2  0
 12 13  1  0
 13 14  2  0
 13 20  1  0
 14 15  1  0
 15 16  1  0
 15 18  2  0
 16 17  1  0
 18 19  1  0
 19 20  2  0
 19 22  1  0
 20 21  1  0
 22 23  2  0
 22 27  1  0
 23 24  1  0
 24 25  2  0
 25 26  1  0
 26 27  2  0
M  CHG  2   9   1  21  -1
M  END
>  <DRUGBANK_ID>  (1) 
DB07229

>  <COMMON_NAME>  (1) 
3-{5-[AMINO(IMINIO)METHYL]-1H-INDOL-2-YL}-5-METHOXY-1,1'-BIPHENYL-2-OLATE

$$$$
