
     RDKit          2D

 36 40  0  0  1  0  0  0  0  0999 V2000
    2.0297   -3.3680    0.0000 C   0  0  0  0  0  0  0  0  0  0  0  0
    1.3784   -3.8744    0.0000 C   0  0  0  0  0  0  0  0  0  0  0  0
    0.6955   -3.4114    0.0000 C   0  0  0  0  0  0  0  0  0  0  0  0
    0.9249   -2.6189    0.0000 C   0  0  0  0  0  0  0  0  0  0  0  0
    0.9844   -1.7960    0.0000 O   0  0  0  0  0  0  0  0  0  0  0  0
    0.1127   -2.4737    0.0000 C   0  0  0  0  0  0  0  0  0  0  0  0
   -0.0325   -3.2858    0.0000 F   0  0  0  0  0  0  0  0  0  0  0  0
    0.2580   -1.6616    0.0000 F   0  0  0  0  0  0  0  0  0  0  0  0
   -0.6994   -2.3285    0.0000 C   0  0  0  0  0  0  0  0  0  0  0  0
   -1.5115   -2.1832    0.0000 F   0  0  0  0  0  0  0  0  0  0  0  0
   -0.8446   -3.1406    0.0000 F   0  0  0  0  0  0  0  0  0  0  0  0
   -0.5542   -1.5163    0.0000 F   0  0  0  0  0  0  0  0  0  0  0  0
    1.7494   -2.5921    0.0000 C   0  0  0  0  0  0  0  0  0  0  0  0
    1.3895   -1.8497    0.0000 C   0  0  0  0  0  0  0  0  0  0  0  0
    2.2812   -1.9614    0.0000 C   0  0  0  0  0  0  0  0  0  0  0  0
    3.0934   -2.1066    0.0000 C   0  0  0  0  0  0  0  0  0  0  0  0
    3.6252   -1.4759    0.0000 C   0  0  0  0  0  0  0  0  0  0  0  0
    3.3449   -0.7000    0.0000 C   0  0  0  0  0  0  0  0  0  0  0  0
    3.8767   -0.0692    0.0000 C   0  0  0  0  0  0  0  0  0  0  0  0
    4.6888   -0.2145    0.0000 C   0  0  0  0  0  0  0  0  0  0  0  0
    4.9691   -0.9904    0.0000 C   0  0  0  0  0  0  0  0  0  0  0  0
    4.4373   -1.6211    0.0000 C   0  0  0  0  0  0  0  0  0  0  0  0
    5.2206    0.4162    0.0000 C   0  0  0  0  0  0  0  0  0  0  0  0
    4.9403    1.1922    0.0000 C   0  0  0  0  0  0  0  0  0  0  0  0
    6.0328    0.2710    0.0000 O   0  0  0  0  0  0  0  0  0  0  0  0
    3.3737   -2.8825    0.0000 C   0  0  0  0  0  0  0  0  0  0  0  0
    4.1858   -3.0277    0.0000 C   0  0  0  0  0  0  0  0  0  0  0  0
    4.7176   -2.3970    0.0000 C   0  0  0  0  0  0  0  0  0  0  0  0
    5.5297   -2.5422    0.0000 C   0  0  0  0  0  0  0  0  0  0  0  0
    5.8100   -3.3182    0.0000 C   0  0  0  0  0  0  0  0  0  0  0  0
    6.6221   -3.4634    0.0000 O   0  0  0  0  0  0  0  0  0  0  0  0
    5.2782   -3.9489    0.0000 C   0  0  0  0  0  0  0  0  0  0  0  0
    4.4661   -3.8037    0.0000 C   0  0  0  0  0  0  0  0  0  0  0  0
    3.9343   -4.4344    0.0000 C   0  0  0  0  0  0  0  0  0  0  0  0
    3.1221   -4.2891    0.0000 C   0  0  0  0  0  0  0  0  0  0  0  0
    2.8418   -3.5132    0.0000 C   0  0  0  0  0  0  0  0  0  0  0  0
  1  2  1  6
  1 13  1  0
  1 36  1  0
  2  3  1  0
  4  3  1  0
  4  5  1  6
  4  6  1  0
  6  7  1  0
  6  8  1  0
  6  9  1  0
  9 10  1  0
  9 11  1  0
  9 12  1  0
 13  4  1  0
 13 14  1  6
 13 15  1  0
 16 15  1  0
 16 17  1  6
 16 26  1  0
 17 18  2  0
 17 22  1  0
 18 19  1  0
 19 20  2  0
 20 21  1  0
 20 23  1  0
 21 22  2  0
 23 24  1  0
 23 25  2  0
 26 27  2  0
 27 28  1  0
 27 33  1  0
 28 29  1  0
 29 30  1  0
 30 31  2  0
 30 32  1  0
 32 33  2  0
 33 34  1  0
 34 35  1  0
 36 35  1  1
 36 26  1  0
M  END
>  <DRUGBANK_ID>  (1) 
DB16221

>  <COMMON_NAME>  (1) 
Lonaprisan

>  <CAS_NUMBER>  (1) 
211254-73-8

>  <UNII>  (1) 
F5Z5EL4D26

>  <SYNONYMS>  (1) 
Lonaprisan

$$$$
