
     RDKit          2D

 27 29  0  0  0  0  0  0  0  0999 V2000
   -0.5109    3.2296    0.0000 N   0  0  0  0  0  0  0  0  0  0  0  0
   -0.5109    2.4046    0.0000 C   0  0  0  0  0  0  0  0  0  0  0  0
   -1.2254    1.9921    0.0000 N   0  0  0  0  0  0  0  0  0  0  0  0
   -1.2255    1.1671    0.0000 C   0  0  0  0  0  0  0  0  0  0  0  0
   -0.5110    0.7546    0.0000 N   0  0  0  0  0  0  0  0  0  0  0  0
    0.2034    1.1671    0.0000 C   0  0  0  0  0  0  0  0  0  0  0  0
    0.2034    1.9921    0.0000 C   0  0  0  0  0  0  0  0  0  0  0  0
    0.9880    2.2470    0.0000 N   0  0  0  0  0  0  0  0  0  0  0  0
    1.4730    1.5795    0.0000 C   0  0  0  0  0  0  0  0  0  0  0  0
    0.9880    0.9121    0.0000 N   0  0  0  0  0  0  0  0  0  0  0  0
    1.2430    0.1273    0.0000 C   0  0  0  0  0  0  0  0  0  0  0  0
    0.7580   -0.5399    0.0000 O   0  0  0  0  0  0  0  0  0  0  0  0
    1.2429   -1.2075    0.0000 C   0  0  0  0  0  0  0  0  0  0  0  0
    2.0275   -0.9525    0.0000 C   0  0  0  0  0  0  0  0  0  0  0  0
    2.6950   -1.4375    0.0000 O   0  0  0  0  0  0  0  0  0  0  0  0
    2.0276   -0.1275    0.0000 C   0  0  0  0  0  0  0  0  0  0  0  0
    2.6950    0.3573    0.0000 O   0  0  0  0  0  0  0  0  0  0  0  0
    0.1629   -1.9921    0.0000 O   0  0  0  0  0  0  0  0  0  0  0  0
   -0.5515   -3.2296    0.0000 O   0  0  0  0  0  0  0  0  0  0  0  0
   -0.5515   -2.4046    0.0000 P   0  0  0  0  0  0  0  0  0  0  0  0
   -0.5515   -1.5796    0.0000 O   0  0  0  0  0  0  0  0  0  0  0  0
   -1.9804   -3.2296    0.0000 O   0  0  0  0  0  0  0  0  0  0  0  0
   -1.9804   -2.4046    0.0000 P   0  0  0  0  0  0  0  0  0  0  0  0
   -1.9804   -1.5599    0.0000 O   0  0  0  0  0  0  0  0  0  0  0  0
   -2.6950   -1.9921    0.0000 O   0  0  0  0  0  0  0  0  0  0  0  0
    0.9879   -1.9921    0.0000 C   0  0  0  0  0  0  0  0  0  0  0  0
   -1.2659   -1.9921    0.0000 C   0  0  0  0  0  0  0  0  0  0  0  0
  1  2  1  0
  2  3  2  0
  2  7  1  0
  3  4  1  0
  4  5  2  0
  5  6  1  0
  6  7  2  0
  6 10  1  0
  7  8  1  0
  8  9  2  0
  9 10  1  0
 11 10  1  1
 11 12  1  0
 11 16  1  0
 12 13  1  0
 13 26  1  1
 13 14  1  0
 14 15  1  6
 14 16  1  0
 16 17  1  6
 18 20  1  0
 20 19  2  0
 20 27  1  0
 20 21  1  0
 23 22  2  0
 23 25  1  0
 23 24  1  0
 26 18  1  0
 27 23  1  0
M  END
>  <DRUGBANK_ID>  (1) 
DB03148

>  <SECONDARY_ACCESSION_NUMBERS>  (1) 
EXPT00533; EXPT00363

>  <COMMON_NAME>  (1) 
Adenosine 5'-methylenediphosphate

>  <CAS_NUMBER>  (1) 
3768-14-7

>  <UNII>  (1) 
0T2A5439OE

>  <SYNONYMS>  (1) 
Adenosine 5'-(hydrogen (phosphonomethyl)phosphonate); Adenosine, 5'-(trihydrogen methylenebis(phosphonate)); Phosphomethylphosphonic acid adenosyl ester

$$$$
