
     RDKit          2D

 12 12  0  0  0  0  0  0  0  0999 V2000
    0.0000    0.4125    0.0000 C   0  0  0  0  0  0  0  0  0  0  0  0
    0.7144    0.0000    0.0000 C   0  0  0  0  0  0  0  0  0  0  0  0
   -0.7144    0.0000    0.0000 C   0  0  0  0  0  0  0  0  0  0  0  0
   -1.4289   -1.2374    0.0000 C   0  0  0  0  0  0  0  0  0  0  0  0
   -2.1433   -0.8250    0.0000 C   0  0  0  0  0  0  0  0  0  0  0  0
   -2.1433    0.0000    0.0000 C   0  0  0  0  0  0  0  0  0  0  0  0
   -1.4289    0.4125    0.0000 C   0  0  0  0  0  0  0  0  0  0  0  0
   -0.7144   -0.8250    0.0000 C   0  0  0  0  0  0  0  0  0  0  0  0
    0.7144   -0.8250    0.0000 N   0  0  0  0  0  0  0  0  0  0  0  0
    1.4289    0.4125    0.0000 C   0  0  0  0  0  0  0  0  0  0  0  0
    2.1433    0.0000    0.0000 O   0  0  0  0  0  0  0  0  0  0  0  0
    1.4289    1.2374    0.0000 O   0  0  0  0  0  0  0  0  0  0  0  0
  1  2  1  0
  2 10  1  0
  2  9  1  1
  3  1  1  0
  3  7  2  0
  3  8  1  0
  4  8  2  0
  5  4  1  0
  6  5  2  0
  7  6  1  0
 11 10  1  0
 12 10  2  0
M  END
>  <DRUGBANK_ID>  (1) 
DB00120

>  <SECONDARY_ACCESSION_NUMBERS>  (1) 
NUTR00044

>  <COMMON_NAME>  (1) 
Phenylalanine

>  <CAS_NUMBER>  (1) 
63-91-2

>  <UNII>  (1) 
47E5O17Y3R

>  <SYNONYMS>  (1) 
(S)-2-Amino-3-phenylpropionic acid; (S)-alpha-Amino-beta-phenylpropionic acid; 3-phenyl-L-alanine; beta-Phenyl-L-alanine; F; Fenilalanina; L-Phenylalanine; Phe; Phenylalanine; Phenylalaninum; Î²-phenyl-L-alanine

$$$$
