605
     RDKit          2D

 26 28  0  0  0  0  0  0  0  0999 V2000
   -3.2854    2.1745    0.0000 C   0  0  0  0  0  0  0  0  0  0  0  0
   -2.5709    1.7620    0.0000 C   0  0  0  0  0  0  0  0  0  0  0  0
   -2.5709    0.9370    0.0000 C   0  0  0  0  0  0  0  0  0  0  0  0
   -3.2854    0.5245    0.0000 C   0  0  0  0  0  0  0  0  0  0  0  0
   -3.9998    0.9370    0.0000 C   0  0  0  0  0  0  0  0  0  0  0  0
   -3.9998    1.7620    0.0000 C   0  0  0  0  0  0  0  0  0  0  0  0
   -1.8564    0.5245    0.0000 C   0  0  0  0  0  0  0  0  0  0  0  0
   -1.1419    0.9370    0.0000 C   0  0  0  0  0  0  0  0  0  0  0  0
   -0.4275    0.5245    0.0000 C   0  0  0  0  0  0  0  0  0  0  0  0
   -1.1419    1.7620    0.0000 N   0  0  0  0  0  0  0  0  0  0  0  0
    0.2870    0.9370    0.0000 C   0  0  0  0  0  0  0  0  0  0  0  0
    1.0015    0.5245    0.0000 C   0  0  0  0  0  0  0  0  0  0  0  0
    1.0015   -0.3005    0.0000 C   0  0  0  0  0  0  0  0  0  0  0  0
    0.2870   -0.7130    0.0000 C   0  0  0  0  0  0  0  0  0  0  0  0
   -0.4275   -0.3005    0.0000 C   0  0  0  0  0  0  0  0  0  0  0  0
    1.7159   -0.7130    0.0000 C   0  0  0  0  0  0  0  0  0  0  0  0
    2.4304   -0.3005    0.0000 C   0  0  0  0  0  0  0  0  0  0  0  0
    3.1449   -0.7130    0.0000 C   0  0  0  0  0  0  0  0  0  0  0  0
    3.1449   -1.5380    0.0000 C   0  0  0  0  0  0  0  0  0  0  0  0
    2.4304   -1.9505    0.0000 C   0  0  0  0  0  0  0  0  0  0  0  0
    1.7159   -1.5380    0.0000 C   0  0  0  0  0  0  0  0  0  0  0  0
   -4.7143    0.5245    0.0000 F   0  0  0  0  0  0  0  0  0  0  0  0
   -1.8564    2.1745    0.0000 F   0  0  0  0  0  0  0  0  0  0  0  0
    2.4304   -2.7755    0.0000 C   0  0  0  0  0  0  0  0  0  0  0  0
    3.1449   -3.1880    0.0000 N   0  0  0  0  0  0  0  0  0  0  0  0
    1.7159   -3.1880    0.0000 O   0  0  0  0  0  0  0  0  0  0  0  0
  1  2  2  0
  1  6  1  0
  2  3  1  0
  2 23  1  0
  3  4  2  0
  3  7  1  0
  4  5  1  0
  5  6  2  0
  5 22  1  0
  7  8  1  0
  8  9  1  0
  8 10  1  1
  9 11  2  0
  9 15  1  0
 11 12  1  0
 12 13  2  0
 13 14  1  0
 13 16  1  0
 14 15  2  0
 16 17  2  0
 16 21  1  0
 17 18  1  0
 18 19  2  0
 19 20  1  0
 20 21  2  0
 20 24  1  0
 24 25  1  0
 24 26  2  0
M  END
>  <DRUGBANK_ID>  (1) 
DB07181

>  <COMMON_NAME>  (1) 
4'-[(1R)-1-amino-2-(2,5-difluorophenyl)ethyl]biphenyl-3-carboxamide

$$$$
