
     RDKit          2D

 29 31  0  0  0  0  0  0  0  0999 V2000
   -0.0000    8.0036    0.0000 C   0  0  0  0  0  0  0  0  0  0  0  0
   -0.7145    8.4161    0.0000 O   0  0  0  0  0  0  0  0  0  0  0  0
   -1.4289    8.0036    0.0000 N   0  0  0  0  0  0  0  0  0  0  0  0
   -2.1434    8.4161    0.0000 C   0  0  0  0  0  0  0  0  0  0  0  0
   -2.1434    9.2411    0.0000 O   0  0  0  0  0  0  0  0  0  0  0  0
   -2.8579    8.0036    0.0000 C   0  0  0  0  0  0  0  0  0  0  0  0
   -3.5724    8.4161    0.0000 C   0  0  0  0  0  0  0  0  0  0  0  0
   -4.2868    8.0036    0.0000 C   0  0  0  0  0  0  0  0  0  0  0  0
   -4.2868    7.1786    0.0000 C   0  0  0  0  0  0  0  0  0  0  0  0
   -3.5724    6.7661    0.0000 C   0  0  0  0  0  0  0  0  0  0  0  0
   -2.8579    7.1786    0.0000 C   0  0  0  0  0  0  0  0  0  0  0  0
   -2.1434    6.7661    0.0000 N   0  0  0  0  0  0  0  0  0  0  0  0
   -2.1434    5.9411    0.0000 C   0  0  0  0  0  0  0  0  0  0  0  0
   -1.4289    5.5286    0.0000 C   0  0  0  0  0  0  0  0  0  0  0  0
   -1.4289    4.7036    0.0000 C   0  0  0  0  0  0  0  0  0  0  0  0
   -0.7145    4.2911    0.0000 N   0  0  0  0  0  0  0  0  0  0  0  0
   -0.7145    3.4661    0.0000 C   0  0  0  0  0  0  0  0  0  0  0  0
   -1.3819    2.9812    0.0000 C   0  0  0  0  0  0  0  0  0  0  0  0
   -1.1270    2.1965    0.0000 C   0  0  0  0  0  0  0  0  0  0  0  0
   -1.6119    1.5291    0.0000 C   0  0  0  0  0  0  0  0  0  0  0  0
   -0.3020    2.1965    0.0000 N   0  0  0  0  0  0  0  0  0  0  0  0
   -0.0470    2.9812    0.0000 N   0  0  0  0  0  0  0  0  0  0  0  0
    0.7376    3.2361    0.0000 C   0  0  0  0  0  0  0  0  0  0  0  0
    1.3507    2.6841    0.0000 C   0  0  0  0  0  0  0  0  0  0  0  0
    0.9091    4.0431    0.0000 C   0  0  0  0  0  0  0  0  0  0  0  0
   -2.1434    4.2911    0.0000 N   0  0  0  0  0  0  0  0  0  0  0  0
   -2.8579    4.7036    0.0000 C   0  0  0  0  0  0  0  0  0  0  0  0
   -2.8579    5.5286    0.0000 C   0  0  0  0  0  0  0  0  0  0  0  0
   -3.5724    5.9411    0.0000 Cl  0  0  0  0  0  0  0  0  0  0  0  0
  1  2  1  0
  2  3  1  0
  3  4  1  0
  4  5  2  0
  4  6  1  0
  6  7  2  0
  6 11  1  0
  7  8  1  0
  8  9  2  0
  9 10  1  0
 10 11  2  0
 11 12  1  0
 12 13  1  0
 13 14  2  0
 13 28  1  0
 14 15  1  0
 15 16  1  0
 15 26  2  0
 16 17  1  0
 17 18  2  0
 17 22  1  0
 18 19  1  0
 19 20  1  0
 19 21  2  0
 21 22  1  0
 22 23  1  0
 23 24  1  0
 23 25  1  0
 26 27  1  0
 27 28  2  0
 28 29  1  0
M  END
>  <DRUGBANK_ID>  (1) 
DB16106

>  <COMMON_NAME>  (1) 
GSK2256098

>  <CAS_NUMBER>  (1) 
1224887-10-8

>  <UNII>  (1) 
R7O0O4110G

$$$$
