
     RDKit          2D

 12 12  0  0  0  0  0  0  0  0999 V2000
    0.3572   -0.4125    0.0000 C   0  0  0  0  0  0  0  0  0  0  0  0
    0.3572   -1.2374    0.0000 O   0  0  0  0  0  0  0  0  0  0  0  0
   -0.3572    0.0000    0.0000 C   0  0  0  0  0  0  0  0  0  0  0  0
   -1.0716   -0.4125    0.0000 O   0  0  0  0  0  0  0  0  0  0  0  0
   -0.3572    0.8250    0.0000 C   0  0  0  0  0  0  0  0  0  0  0  0
    1.0717    0.8250    0.0000 C   0  0  0  0  0  0  0  0  0  0  0  0
    1.7861    1.2374    0.0000 O   0  0  0  0  0  0  0  0  0  0  0  0
    0.3572    1.2374    0.0000 O   0  0  0  0  0  0  0  0  0  0  0  0
    1.0717    0.0000    0.0000 C   0  0  0  0  0  0  0  0  0  0  0  0
   -1.0716    1.2374    0.0000 C   0  0  0  0  0  0  0  0  0  0  0  0
   -1.7862    0.8250    0.0000 O   0  0  0  0  0  0  0  0  0  0  0  0
    1.7862   -0.4125    0.0000 F   0  0  0  0  0  0  0  0  0  0  0  0
  1  3  1  0
  1  2  1  1
  3  5  1  0
  3  4  1  6
  5  8  1  0
  5 10  1  1
  6  8  1  0
  6  9  1  0
  6  7  1  1
  9  1  1  0
  9 12  1  1
 10 11  1  0
M  END
>  <DRUGBANK_ID>  (1) 
DB04483

>  <SECONDARY_ACCESSION_NUMBERS>  (1) 
EXPT02121

>  <COMMON_NAME>  (1) 
2-deoxy-2-fluoro-Î²-D-mannose

>  <CAS_NUMBER>  (1) 
55449-80-4

>  <SYNONYMS>  (1) 
2-deoxy-2-fluoro-beta-D-mannose

$$$$
