GK3
     RDKit          2D

 30 33  0  0  0  0  0  0  0  0999 V2000
    5.1601    1.6069    0.0000 N   0  0  0  0  0  0  0  0  0  0  0  0
    4.4457    2.0194    0.0000 C   0  0  0  0  0  0  0  0  0  0  0  0
    3.7312    2.4319    0.0000 C   0  0  0  0  0  0  0  0  0  0  0  0
    3.7312    3.2569    0.0000 C   0  0  0  0  0  0  0  0  0  0  0  0
    3.0167    3.6694    0.0000 C   0  0  0  0  0  0  0  0  0  0  0  0
    2.3023    3.2569    0.0000 C   0  0  0  0  0  0  0  0  0  0  0  0
    3.0167    2.0194    0.0000 C   0  0  0  0  0  0  0  0  0  0  0  0
    2.3023    2.4319    0.0000 C   0  0  0  0  0  0  0  0  0  0  0  0
    1.5878    2.0194    0.0000 N   0  0  0  0  0  0  0  0  0  0  0  0
    1.5878    1.1944    0.0000 C   0  0  0  0  0  0  0  0  0  0  0  0
    2.3023    0.7819    0.0000 O   0  0  0  0  0  0  0  0  0  0  0  0
    0.8733    0.7819    0.0000 C   0  0  0  0  0  0  0  0  0  0  0  0
    0.1588    1.1944    0.0000 C   0  0  0  0  0  0  0  0  0  0  0  0
    0.8733   -0.0431    0.0000 C   0  0  0  0  0  0  0  0  0  0  0  0
    0.1588   -0.4556    0.0000 C   0  0  0  0  0  0  0  0  0  0  0  0
   -0.5556   -0.0431    0.0000 C   0  0  0  0  0  0  0  0  0  0  0  0
   -0.5556    0.7819    0.0000 C   0  0  0  0  0  0  0  0  0  0  0  0
   -1.2701   -0.4556    0.0000 C   0  0  0  0  0  0  0  0  0  0  0  0
   -1.2701   -1.2806    0.0000 C   0  0  0  0  0  0  0  0  0  0  0  0
   -1.9846   -1.6931    0.0000 C   0  0  0  0  0  0  0  0  0  0  0  0
   -1.9846   -2.5181    0.0000 C   0  0  0  0  0  0  0  0  0  0  0  0
   -1.3171   -3.0030    0.0000 O   0  0  0  0  0  0  0  0  0  0  0  0
   -1.5721   -3.7876    0.0000 C   0  0  0  0  0  0  0  0  0  0  0  0
   -1.0871   -4.4551    0.0000 C   0  0  0  0  0  0  0  0  0  0  0  0
   -2.3971   -3.7876    0.0000 N   0  0  0  0  0  0  0  0  0  0  0  0
   -2.6520   -3.0030    0.0000 N   0  0  0  0  0  0  0  0  0  0  0  0
   -2.6990   -1.2806    0.0000 C   0  0  0  0  0  0  0  0  0  0  0  0
   -2.6990   -0.4556    0.0000 C   0  0  0  0  0  0  0  0  0  0  0  0
   -1.9846   -0.0431    0.0000 C   0  0  0  0  0  0  0  0  0  0  0  0
   -1.9846    0.7819    0.0000 C   0  0  0  0  0  0  0  0  0  0  0  0
  1  2  3  0
  2  3  1  0
  3  7  2  0
  4  3  1  0
  4  5  2  0
  5  6  1  0
  6  8  2  0
  7  8  1  0
  8  9  1  0
  9 10  1  0
 10 11  2  0
 10 12  1  0
 12 14  1  0
 13 12  2  0
 13 17  1  0
 14 15  2  0
 16 18  1  0
 16 15  1  0
 17 16  2  0
 18 19  2  0
 19 20  1  0
 20 21  1  0
 21 22  1  0
 21 26  2  0
 22 23  1  0
 23 24  1  0
 23 25  2  0
 26 25  1  0
 27 20  2  0
 28 27  1  0
 29 28  2  0
 29 18  1  0
 30 29  1  0
M  END
>  <DRUGBANK_ID>  (1) 
DB07833

>  <COMMON_NAME>  (1) 
N-(3-cyanophenyl)-2'-methyl-5'-(5-methyl-1,3,4-oxadiazol-2-yl)-4-biphenylcarboxamide

$$$$
