
     RDKit          2D

 12 13  0  0  0  0  0  0  0  0999 V2000
    0.7899    0.0128    0.0000 C   0  0  0  0  0  0  0  0  0  0  0  0
    0.7899   -0.8276    0.0000 C   0  0  0  0  0  0  0  0  0  0  0  0
    0.0818    0.4119    0.0000 C   0  0  0  0  0  0  0  0  0  0  0  0
    1.5772    0.2409    0.0000 C   0  0  0  0  0  0  0  0  0  0  0  0
    0.0818   -1.2526    0.0000 C   0  0  0  0  0  0  0  0  0  0  0  0
    1.5772   -1.0852    0.0000 N   0  0  0  0  0  0  0  0  0  0  0  0
   -0.6225    0.0128    0.0000 C   0  0  0  0  0  0  0  0  0  0  0  0
    2.0904   -0.4139    0.0000 N   0  0  0  0  0  0  0  0  0  0  0  0
   -0.6225   -0.8276    0.0000 C   0  0  0  0  0  0  0  0  0  0  0  0
   -1.3694    0.4119    0.0000 N   0  0  0  0  0  0  0  0  0  0  0  0
   -2.0904    0.0128    0.0000 O   0  0  0  0  0  0  0  0  0  0  0  0
   -1.3694    1.2526    0.0000 O   0  0  0  0  0  0  0  0  0  0  0  0
  1  2  1  0
  1  3  2  0
  1  4  1  0
  2  5  2  0
  2  6  1  0
  3  7  1  0
  4  8  2  0
  5  9  1  0
  6  8  1  0
  7 10  1  0
  7  9  2  0
 10 11  2  0
 10 12  1  0
M  CHG  2  10   1  12  -1
M  END
>  <DRUGBANK_ID>  (1) 
DB04534

>  <SECONDARY_ACCESSION_NUMBERS>  (1) 
EXPT00255

>  <COMMON_NAME>  (1) 
5-Nitroindazole

>  <CAS_NUMBER>  (1) 
5401-94-5

>  <UNII>  (1) 
235Y7P37ZD

>  <SYNONYMS>  (1) 
5-Nitro-1H-indazole

$$$$
