
     RDKit          2D

 30 34  0  0  1  0  0  0  0  0999 V2000
   -1.8864   -2.3760    0.0000 C   0  0  0  0  0  0  0  0  0  0  0  0
   -2.6008   -1.9635    0.0000 C   0  0  0  0  0  0  0  0  0  0  0  0
   -1.1718   -1.9635    0.0000 C   0  0  0  0  0  0  0  0  0  0  0  0
   -2.6008   -1.1385    0.0000 C   0  0  0  0  0  0  0  0  0  0  0  0
   -1.8864   -0.7260    0.0000 C   0  0  0  0  0  0  0  0  0  0  0  0
   -1.1718   -1.1385    0.0000 C   0  0  0  0  0  0  0  0  0  0  0  0
   -3.3154   -0.7260    0.0000 C   0  0  0  0  0  0  0  0  0  0  0  0
   -4.0298   -1.1385    0.0000 C   0  0  0  0  0  0  0  0  0  0  0  0
   -3.3154   -2.3760    0.0000 C   0  0  0  0  0  0  0  0  0  0  0  0
   -1.8864    0.0989    0.0000 C   0  0  0  0  0  0  0  0  0  0  0  0
   -1.1718    0.5114    0.0000 C   0  0  0  0  0  0  0  0  0  0  0  0
    0.3271   -0.9809    0.0000 C   0  0  0  0  0  0  0  0  0  0  0  0
    0.8121   -0.3135    0.0000 C   0  0  0  0  0  0  0  0  0  0  0  0
   -0.4574   -0.7260    0.0000 C   0  0  0  0  0  0  0  0  0  0  0  0
   -0.4574    0.0989    0.0000 C   0  0  0  0  0  0  0  0  0  0  0  0
   -2.6008   -0.3135    0.0000 C   0  0  0  0  0  0  0  0  0  0  0  0
   -0.4573    0.9239    0.0000 C   0  0  0  0  0  0  0  0  0  0  0  0
    0.3271    0.3538    0.0000 C   0  0  0  0  0  0  0  0  0  0  0  0
    0.5821    1.1384    0.0000 O   0  0  0  0  0  0  0  0  0  0  0  0
   -4.0298   -1.9635    0.0000 C   0  0  0  0  0  0  0  0  0  0  0  0
   -4.7442   -2.3760    0.0000 O   0  0  0  0  0  0  0  0  0  0  0  0
    1.2966    1.5509    0.0000 C   0  0  0  0  0  0  0  0  0  0  0  0
    1.2966    2.3760    0.0000 O   0  0  0  0  0  0  0  0  0  0  0  0
    2.0110    1.1384    0.0000 C   0  0  0  0  0  0  0  0  0  0  0  0
    2.7255    1.5509    0.0000 C   0  0  0  0  0  0  0  0  0  0  0  0
    4.3284    0.1421    0.0000 C   0  0  0  0  0  0  0  0  0  0  0  0
    4.7443    0.8547    0.0000 C   0  0  0  0  0  0  0  0  0  0  0  0
    4.1953    1.4703    0.0000 C   0  0  0  0  0  0  0  0  0  0  0  0
    3.4399    1.1384    0.0000 C   0  0  0  0  0  0  0  0  0  0  0  0
    3.5223    0.3176    0.0000 C   0  0  0  0  0  0  0  0  0  0  0  0
  1  3  1  0
  2  1  1  0
  2  9  2  0
  4  2  1  0
  4  7  1  0
  4 16  1  1
  5  4  1  0
  5 10  1  1
  6  5  1  0
  6  3  1  6
  8  7  1  0
 10 11  1  0
 13 12  1  0
 13 18  1  0
 14  6  1  0
 14 12  1  1
 14 15  1  0
 15 11  1  0
 15 18  1  0
 15 17  1  1
 18 19  1  1
 19 22  1  0
 20  8  1  0
 20  9  1  0
 20 21  2  0
 22 23  2  0
 22 24  1  0
 24 25  1  0
 25 29  1  0
 26 27  1  0
 26 30  1  0
 27 28  1  0
 28 29  1  0
 29 30  1  0
M  END
>  <DRUGBANK_ID>  (1) 
DB13943

>  <SECONDARY_ACCESSION_NUMBERS>  (1) 
DBSALT001298

>  <COMMON_NAME>  (1) 
Testosterone cypionate

>  <CAS_NUMBER>  (1) 
58-20-8

>  <UNII>  (1) 
M0XW1UBI14

>  <SYNONYMS>  (1) 
testosterone 17β-cyclopentanepropionate; testosterone 17β-cyclopentylpropionate; testosterone 17β-cypionate; Testosterone cipionate; Testosterone cyclopentanepropionate; Testosterone cyclopentylpropionate; Testosterone cypionate

$$$$
