
     RDKit          2D

 23 25  0  0  0  0  0  0  0  0999 V2000
    0.7145   -2.0625    0.0000 C   0  0  0  0  0  0  0  0  0  0  0  0
    0.7145   -2.8875    0.0000 C   0  0  0  0  0  0  0  0  0  0  0  0
    1.3819   -3.3724    0.0000 C   0  0  0  0  0  0  0  0  0  0  0  0
    1.1270   -4.1570    0.0000 N   0  0  0  0  0  0  0  0  0  0  0  0
    0.3020   -4.1570    0.0000 C   0  0  0  0  0  0  0  0  0  0  0  0
    0.0470   -3.3724    0.0000 N   0  0  0  0  0  0  0  0  0  0  0  0
   -0.7376   -3.1175    0.0000 C   0  0  0  0  0  0  0  0  0  0  0  0
   -1.3507   -3.6695    0.0000 C   0  0  0  0  0  0  0  0  0  0  0  0
   -2.1353   -3.4146    0.0000 C   0  0  0  0  0  0  0  0  0  0  0  0
   -2.3068   -2.6076    0.0000 C   0  0  0  0  0  0  0  0  0  0  0  0
   -1.6937   -2.0556    0.0000 C   0  0  0  0  0  0  0  0  0  0  0  0
   -0.9091   -2.3105    0.0000 C   0  0  0  0  0  0  0  0  0  0  0  0
   -3.0915   -2.3527    0.0000 F   0  0  0  0  0  0  0  0  0  0  0  0
   -0.1830   -4.8245    0.0000 C   0  0  0  0  0  0  0  0  0  0  0  0
    2.1665   -3.1175    0.0000 C   0  0  0  0  0  0  0  0  0  0  0  0
    2.9512   -2.8625    0.0000 C   0  0  0  0  0  0  0  0  0  0  0  0
    3.7358   -2.6076    0.0000 C   0  0  0  0  0  0  0  0  0  0  0  0
    3.9073   -1.8006    0.0000 C   0  0  0  0  0  0  0  0  0  0  0  0
    4.6919   -1.5457    0.0000 C   0  0  0  0  0  0  0  0  0  0  0  0
    5.3050   -2.0977    0.0000 N   0  0  0  0  0  0  0  0  0  0  0  0
    5.1335   -2.9047    0.0000 C   0  0  0  0  0  0  0  0  0  0  0  0
    4.3489   -3.1596    0.0000 C   0  0  0  0  0  0  0  0  0  0  0  0
    5.7466   -3.4567    0.0000 Cl  0  0  0  0  0  0  0  0  0  0  0  0
  1  2  1  0
  2  3  2  0
  2  6  1  0
  3  4  1  0
  3 15  1  0
  4  5  2  0
  5  6  1  0
  5 14  1  0
  6  7  1  0
  7  8  2  0
  7 12  1  0
  8  9  1  0
  9 10  2  0
 10 11  1  0
 10 13  1  0
 11 12  2  0
 15 16  3  0
 16 17  1  0
 17 18  2  0
 17 22  1  0
 18 19  1  0
 19 20  2  0
 20 21  1  0
 21 22  2  0
 21 23  1  0
M  END
>  <DRUGBANK_ID>  (1) 
DB11833

>  <COMMON_NAME>  (1) 
Basimglurant

>  <CAS_NUMBER>  (1) 
802906-73-6

>  <UNII>  (1) 
3110E3AO8S

>  <SYNONYMS>  (1) 
Basimglurant

$$$$
