
     RDKit          2D

  9  8  0  0  0  0  0  0  0  0999 V2000
    1.0717   -0.6187    0.0000 C   0  0  0  0  0  0  0  0  0  0  0  0
    0.3572   -0.2061    0.0000 C   0  0  0  0  0  0  0  0  0  0  0  0
   -0.3572   -0.6186    0.0000 C   0  0  0  0  0  0  0  0  0  0  0  0
   -1.0717   -0.2061    0.0000 C   0  0  0  0  0  0  0  0  0  0  0  0
   -1.7862   -0.6186    0.0000 C   0  0  0  0  0  0  0  0  0  0  0  0
   -2.5006   -0.2061    0.0000 C   0  0  0  0  0  0  0  0  0  0  0  0
    2.5006   -0.6187    0.0000 O   0  0  0  0  0  0  0  0  0  0  0  0
    1.7862   -0.2062    0.0000 C   0  0  0  0  0  0  0  0  0  0  0  0
    1.7862    0.6187    0.0000 O   0  0  0  0  0  0  0  0  0  0  0  0
  1  2  1  0
  2  3  1  0
  3  4  1  0
  4  5  1  0
  5  6  1  0
  8  1  1  0
  8  7  1  0
  8  9  2  0
M  END
>  <DRUGBANK_ID>  (1) 
DB02938

>  <SECONDARY_ACCESSION_NUMBERS>  (1) 
EXPT02907

>  <COMMON_NAME>  (1) 
Heptanoic acid

>  <CAS_NUMBER>  (1) 
111-14-8

>  <UNII>  (1) 
THE3YNP39D

>  <SYNONYMS>  (1) 
Enanthic acid; Enanthylic acid; Heptanoic acid; Heptoic acid; Heptylic acid; n-Heptanoic acid; n-Heptoic acid; n-Heptylic acid; Oenanthic acid; Oenanthylic acid

$$$$
