J07
     RDKit          2D

 28 31  0  0  0  0  0  0  0  0999 V2000
   -2.6977   -4.0399    0.0000 C   0  0  0  0  0  0  0  0  0  0  0  0
   -1.8908   -3.8683    0.0000 C   0  0  0  0  0  0  0  0  0  0  0  0
   -1.6358   -3.0837    0.0000 N   0  0  0  0  0  0  0  0  0  0  0  0
   -0.8289   -2.9122    0.0000 C   0  0  0  0  0  0  0  0  0  0  0  0
   -0.2768   -3.5253    0.0000 O   0  0  0  0  0  0  0  0  0  0  0  0
   -0.5739   -2.1276    0.0000 N   0  0  0  0  0  0  0  0  0  0  0  0
    0.2331   -1.9560    0.0000 C   0  0  0  0  0  0  0  0  0  0  0  0
    0.4880   -1.1714    0.0000 C   0  0  0  0  0  0  0  0  0  0  0  0
   -0.0640   -0.5583    0.0000 C   0  0  0  0  0  0  0  0  0  0  0  0
   -0.8710   -0.7298    0.0000 C   0  0  0  0  0  0  0  0  0  0  0  0
   -1.1259   -1.5145    0.0000 C   0  0  0  0  0  0  0  0  0  0  0  0
    0.1909    0.2263    0.0000 N   0  0  0  0  0  0  0  0  0  0  0  0
   -0.3611    0.8394    0.0000 C   0  0  0  0  0  0  0  0  0  0  0  0
   -0.1062    1.6240    0.0000 N   0  0  0  0  0  0  0  0  0  0  0  0
   -0.6582    2.2371    0.0000 C   0  0  0  0  0  0  0  0  0  0  0  0
   -1.4652    2.0656    0.0000 C   0  0  0  0  0  0  0  0  0  0  0  0
   -1.7201    1.2810    0.0000 C   0  0  0  0  0  0  0  0  0  0  0  0
   -1.1681    0.6679    0.0000 N   0  0  0  0  0  0  0  0  0  0  0  0
   -2.0172    2.6787    0.0000 Cl  0  0  0  0  0  0  0  0  0  0  0  0
   -0.4033    3.0217    0.0000 C   0  0  0  0  0  0  0  0  0  0  0  0
    0.3813    3.2767    0.0000 C   0  0  0  0  0  0  0  0  0  0  0  0
    1.0958    2.8642    0.0000 C   0  0  0  0  0  0  0  0  0  0  0  0
    1.8103    3.2767    0.0000 C   0  0  0  0  0  0  0  0  0  0  0  0
    1.8103    4.1017    0.0000 C   0  0  0  0  0  0  0  0  0  0  0  0
    1.0958    4.5142    0.0000 C   0  0  0  0  0  0  0  0  0  0  0  0
    0.3813    4.1017    0.0000 C   0  0  0  0  0  0  0  0  0  0  0  0
   -0.4033    4.3566    0.0000 N   0  0  0  0  0  0  0  0  0  0  0  0
   -0.8882    3.6892    0.0000 C   0  0  0  0  0  0  0  0  0  0  0  0
  2  3  1  0
  2  1  1  0
  4  3  1  0
  4  6  1  0
  5  4  2  0
  6 11  1  0
  7  6  1  0
  7  8  1  0
  8  9  1  0
  9 10  1  0
  9 12  1  0
 11 10  1  0
 12 13  1  0
 13 18  1  0
 14 13  2  0
 14 15  1  0
 15 16  2  0
 16 17  1  0
 16 19  1  0
 18 17  2  0
 20 28  2  0
 20 15  1  0
 21 20  1  0
 22 21  2  0
 23 22  1  0
 24 23  2  0
 24 25  1  0
 25 26  2  0
 26 21  1  0
 26 27  1  0
 27 28  1  0
M  END
>  <DRUGBANK_ID>  (1) 
DB08005

>  <COMMON_NAME>  (1) 
4-{[5-chloro-4-(1H-indol-3-yl)pyrimidin-2-yl]amino}-N-ethylpiperidine-1-carboxamide

$$$$
