CIH
     RDKit          2D

 23 24  0  0  0  0  0  0  0  0999 V2000
    2.2115   -0.0821    0.0000 Cl  0  0  0  0  0  0  0  0  0  0  0  0
    2.2115   -0.9071    0.0000 C   0  0  0  0  0  0  0  0  0  0  0  0
    2.9260   -1.3196    0.0000 C   0  0  0  0  0  0  0  0  0  0  0  0
    2.9260   -2.1446    0.0000 C   0  0  0  0  0  0  0  0  0  0  0  0
    2.2115   -2.5571    0.0000 C   0  0  0  0  0  0  0  0  0  0  0  0
    1.4971   -2.1446    0.0000 C   0  0  0  0  0  0  0  0  0  0  0  0
    1.4971   -1.3196    0.0000 C   0  0  0  0  0  0  0  0  0  0  0  0
    0.7826   -0.9071    0.0000 C   0  0  0  0  0  0  0  0  0  0  0  0
    0.0681   -1.3196    0.0000 C   0  0  0  0  0  0  0  0  0  0  0  0
   -0.6463   -0.9071    0.0000 C   0  0  0  0  0  0  0  0  0  0  0  0
    0.0681   -2.1446    0.0000 Cl  0  0  0  0  0  0  0  0  0  0  0  0
    0.7826   -0.0821    0.0000 C   0  0  0  0  0  0  0  0  0  0  0  0
    0.0681    0.3304    0.0000 C   0  0  0  0  0  0  0  0  0  0  0  0
   -0.6463   -0.0821    0.0000 C   0  0  0  0  0  0  0  0  0  0  0  0
   -1.3608    0.3304    0.0000 N   0  0  0  0  0  0  0  0  0  0  0  0
   -1.3608    1.1554    0.0000 C   0  0  0  0  0  0  0  0  0  0  0  0
   -0.6463    1.5679    0.0000 O   0  0  0  0  0  0  0  0  0  0  0  0
   -2.0753    1.5679    0.0000 C   0  0  0  0  0  0  0  0  0  0  0  0
   -2.0753    2.3929    0.0000 C   0  0  0  0  0  0  0  0  0  0  0  0
   -2.0753    3.2179    0.0000 N   0  0  0  0  0  0  0  0  0  0  0  0
   -2.7898    1.1554    0.0000 C   0  0  0  0  0  0  0  0  0  0  0  0
   -3.5042    1.5679    0.0000 C   0  0  0  0  0  0  0  0  0  0  0  0
   -2.7898    0.3304    0.0000 O   0  0  0  0  0  0  0  0  0  0  0  0
  1  2  1  0
  2  3  2  0
  2  7  1  0
  3  4  1  0
  4  5  2  0
  5  6  1  0
  6  7  2  0
  7  8  1  0
  8  9  2  0
  8 12  1  0
  9 10  1  0
  9 11  1  0
 10 14  2  0
 12 13  2  0
 13 14  1  0
 14 15  1  0
 15 16  1  0
 16 17  2  0
 16 18  1  0
 18 19  1  0
 18 21  2  0
 19 20  3  0
 21 22  1  0
 21 23  1  0
M  END
>  <DRUGBANK_ID>  (1) 
DB07559

>  <COMMON_NAME>  (1) 
(2Z)-2-cyano-N-(2,2'-dichlorobiphenyl-4-yl)-3-hydroxybut-2-enamide

$$$$
