
     RDKit          2D

 27 24  0  0  1  0  0  0  0  0999 V2000
    0.0000    0.0000    0.0000 Cu  0  0  0  0  0 15  0  0  0  0  0  0
    2.1214   -0.1269    0.0000 O   0  0  0  0  0  0  0  0  0  0  0  0
    2.8359    0.2856    0.0000 C   0  0  0  0  0  0  0  0  0  0  0  0
    3.5504   -0.1269    0.0000 C   0  0  0  0  0  0  0  0  0  0  0  0
    3.5504   -0.9519    0.0000 O   0  0  0  0  0  0  0  0  0  0  0  0
    4.2648    0.2856    0.0000 C   0  0  0  0  0  0  0  0  0  0  0  0
    4.2648    1.1106    0.0000 O   0  0  0  0  0  0  0  0  0  0  0  0
    4.9793   -0.1269    0.0000 C   0  0  0  0  0  0  0  0  0  0  0  0
    4.9793   -0.9519    0.0000 O   0  0  0  0  0  0  0  0  0  0  0  0
    5.6938    0.2856    0.0000 C   0  0  0  0  0  0  0  0  0  0  0  0
    5.6938    1.1106    0.0000 O   0  0  0  0  0  0  0  0  0  0  0  0
    6.4083   -0.1269    0.0000 C   0  0  0  0  0  0  0  0  0  0  0  0
    7.1227    0.2856    0.0000 O   0  0  0  0  0  0  0  0  0  0  0  0
    6.4083   -0.9519    0.0000 O   0  0  0  0  0  0  0  0  0  0  0  0
   -2.6380   -3.8394    0.0000 O   0  0  0  0  0  0  0  0  0  0  0  0
   -1.9236   -3.4269    0.0000 C   0  0  0  0  0  0  0  0  0  0  0  0
   -1.2091   -3.8394    0.0000 C   0  0  0  0  0  0  0  0  0  0  0  0
   -1.2091   -4.6644    0.0000 O   0  0  0  0  0  0  0  0  0  0  0  0
   -0.4946   -3.4269    0.0000 C   0  0  0  0  0  0  0  0  0  0  0  0
   -0.4946   -2.6019    0.0000 O   0  0  0  0  0  0  0  0  0  0  0  0
    0.2198   -3.8394    0.0000 C   0  0  0  0  0  0  0  0  0  0  0  0
    0.2198   -4.6644    0.0000 O   0  0  0  0  0  0  0  0  0  0  0  0
    0.9343   -3.4269    0.0000 C   0  0  0  0  0  0  0  0  0  0  0  0
    0.9343   -2.6019    0.0000 O   0  0  0  0  0  0  0  0  0  0  0  0
    1.6488   -3.8394    0.0000 C   0  0  0  0  0  0  0  0  0  0  0  0
    2.3633   -3.4269    0.0000 O   0  0  0  0  0  0  0  0  0  0  0  0
    1.6488   -4.6644    0.0000 O   0  0  0  0  0  0  0  0  0  0  0  0
  2  3  1  0
  3  4  1  0
  4  5  1  6
  4  6  1  0
  6  7  1  1
  6  8  1  0
  8  9  1  1
  8 10  1  0
 10 11  1  1
 10 12  1  0
 12 13  1  0
 12 14  2  0
 15 16  1  0
 16 17  1  0
 17 18  1  6
 17 19  1  0
 19 20  1  1
 19 21  1  0
 21 22  1  1
 21 23  1  0
 23 24  1  1
 23 25  1  0
 25 26  1  0
 25 27  2  0
M  CHG  3   1   2  13  -1  26  -1
M  END
>  <DRUGBANK_ID>  (1) 
DB11246

>  <COMMON_NAME>  (1) 
Copper gluconate

>  <CAS_NUMBER>  (1) 
527-09-3

>  <UNII>  (1) 
RV823G6G67

>  <SYNONYMS>  (1) 
Copper gluconate

$$$$
