
     RDKit          2D

  5  3  0  0  0  0  0  0  0  0999 V2000
   -0.7005   -1.0305    0.0000 K   0  0  0  0  0 15  0  0  0  0  0  0
   -0.7005   -0.2055    0.0000 O   0  0  0  0  0  0  0  0  0  0  0  0
    0.0405    0.2055    0.0000 C   0  0  0  0  0  0  0  0  0  0  0  0
    0.0405    1.0305    0.0000 C   0  0  0  0  0  0  0  0  0  0  0  0
    0.7005   -0.2055    0.0000 O   0  0  0  0  0  0  0  0  0  0  0  0
  2  3  1  0
  3  4  1  0
  3  5  2  0
M  CHG  2   1   1   2  -1
M  END
>  <DRUGBANK_ID>  (1) 
DB14498

>  <SECONDARY_ACCESSION_NUMBERS>  (1) 
DBSALT001427

>  <COMMON_NAME>  (1) 
Potassium acetate

>  <CAS_NUMBER>  (1) 
127-08-2

>  <UNII>  (1) 
M911911U02

>  <SYNONYMS>  (1) 
Potassium acetate

$$$$
