
     RDKit          2D

  1  0  0  0  0  0  0  0  0  0999 V2000
    0.0000    0.0000    0.0000 K   0  0  0  0  0  1  0  0  0  0  0  0
M  END
>  <DRUGBANK_ID>  (1) 
DB14500

>  <COMMON_NAME>  (1) 
Potassium

>  <CAS_NUMBER>  (1) 
7440-09-7

>  <UNII>  (1) 
RWP5GA015D

>  <SYNONYMS>  (1) 
K; Kalium; Potasio; Potassium metal; Potassium, elemental; Potassium, metal

$$$$
