
     RDKit          2D

 36 40  0  0  1  0  0  0  0  0999 V2000
    3.4321    4.0565    0.0000 C   0  0  0  0  0  0  0  0  0  0  0  0
    2.6820    3.7131    0.0000 O   0  0  0  0  0  0  0  0  0  0  0  0
    2.6044    2.8918    0.0000 C   0  0  0  0  0  0  0  0  0  0  0  0
    3.2768    2.4139    0.0000 C   0  0  0  0  0  0  0  0  0  0  0  0
    3.1992    1.5925    0.0000 O   0  0  0  0  0  0  0  0  0  0  0  0
    2.4491    1.2491    0.0000 C   0  0  0  0  0  0  0  0  0  0  0  0
    1.7766    1.7270    0.0000 C   0  0  0  0  0  0  0  0  0  0  0  0
    1.8542    2.5483    0.0000 C   0  0  0  0  0  0  0  0  0  0  0  0
    1.1818    3.0263    0.0000 N   0  0  0  0  0  0  0  0  0  0  0  0
    0.4316    2.6828    0.0000 C   0  0  0  0  0  0  0  0  0  0  0  0
   -0.2871    3.0878    0.0000 C   0  0  0  0  0  0  0  0  0  0  0  0
   -0.8944    2.5294    0.0000 C   0  0  0  0  0  0  0  0  0  0  0  0
   -0.5510    1.7793    0.0000 C   0  0  0  0  0  0  0  0  0  0  0  0
    0.2686    1.8741    0.0000 C   0  0  0  0  0  0  0  0  0  0  0  0
   -1.2566    1.3519    0.0000 C   0  0  0  0  0  0  0  0  0  0  0  0
   -1.9796    1.7494    0.0000 C   0  0  0  0  0  0  0  0  0  0  0  0
   -1.2393    0.5271    0.0000 C   0  0  0  0  0  0  0  0  0  0  0  0
   -0.5510    0.9543    0.0000 C   0  0  0  0  0  0  0  0  0  0  0  0
   -0.8865    0.2006    0.0000 O   0  0  0  0  0  0  0  0  0  0  0  0
    0.1635    0.5418    0.0000 N   0  0  0  0  0  0  0  0  0  0  0  0
    0.1635   -0.2832    0.0000 C   0  0  0  0  0  0  0  0  0  0  0  0
    0.8780   -0.6957    0.0000 C   0  0  0  0  0  0  0  0  0  0  0  0
    0.6717    0.1293    0.0000 C   0  0  0  0  0  0  0  0  0  0  0  0
    0.8780    0.9543    0.0000 C   0  0  0  0  0  0  0  0  0  0  0  0
    1.5925    0.5418    0.0000 C   0  0  0  0  0  0  0  0  0  0  0  0
    1.5925   -0.2832    0.0000 N   0  0  0  0  0  0  0  0  0  0  0  0
    2.3069   -0.6957    0.0000 C   0  0  0  0  0  0  0  0  0  0  0  0
    3.0214   -0.2832    0.0000 N   0  0  0  0  0  0  0  0  0  0  0  0
    3.7359   -0.6957    0.0000 C   0  0  0  0  0  0  0  0  0  0  0  0
    3.7359   -1.5207    0.0000 N   0  0  0  0  0  0  0  0  0  0  0  0
    3.0214   -1.9332    0.0000 C   0  0  0  0  0  0  0  0  0  0  0  0
    2.3069   -1.5207    0.0000 C   0  0  0  0  0  0  0  0  0  0  0  0
    3.0214   -2.7582    0.0000 C   0  0  0  0  0  0  0  0  0  0  0  0
    3.0214   -3.5832    0.0000 F   0  0  0  0  0  0  0  0  0  0  0  0
    2.1964   -2.7582    0.0000 F   0  0  0  0  0  0  0  0  0  0  0  0
    3.8464   -2.7582    0.0000 F   0  0  0  0  0  0  0  0  0  0  0  0
  1  2  1  0
  3  2  1  6
  3  4  1  0
  3  8  1  0
  4  5  1  0
  5  6  1  0
  6  7  1  0
  8  7  1  0
  8  9  1  6
 10  9  1  1
 10 11  1  0
 10 14  1  0
 11 12  1  0
 13 12  1  0
 13 14  1  0
 13 15  1  6
 13 18  1  0
 15 16  1  0
 15 17  1  0
 18 19  2  0
 18 20  1  0
 20 21  1  0
 22 21  1  6
 22 23  1  0
 22 26  1  0
 24 23  1  0
 24 20  1  0
 24 25  1  6
 25 26  1  0
 26 27  1  0
 27 28  2  0
 27 32  1  0
 28 29  1  0
 29 30  2  0
 30 31  1  0
 31 32  2  0
 31 33  1  0
 33 34  1  0
 33 35  1  0
 33 36  1  0
M  END
>  <DRUGBANK_ID>  (1) 
DB14955

>  <COMMON_NAME>  (1) 
PF-04634817

>  <CAS_NUMBER>  (1) 
1228111-63-4

>  <UNII>  (1) 
51M3FB9B9E

$$$$
