
     RDKit          2D

 41 46  0  0  1  0  0  0  0  0999 V2000
    9.9511   -0.2681    0.0000 C   0  0  0  0  0  0  0  0  0  0  0  0
    9.1390   -0.4133    0.0000 C   0  0  0  0  0  0  0  0  0  0  0  0
    8.8587   -1.1892    0.0000 C   0  0  0  0  0  0  0  0  0  0  0  0
    8.0466   -1.3344    0.0000 C   0  0  0  0  0  0  0  0  0  0  0  0
    7.5148   -0.7037    0.0000 C   0  0  0  0  0  0  0  0  0  0  0  0
    7.7951    0.0722    0.0000 C   0  0  0  0  0  0  0  0  0  0  0  0
    8.6072    0.2174    0.0000 O   0  0  0  0  0  0  0  0  0  0  0  0
    7.2632    0.7029    0.0000 O   0  0  0  0  0  0  0  0  0  0  0  0
    6.4511    0.5577    0.0000 C   0  0  0  0  0  0  0  0  0  0  0  0
    6.1708   -0.2182    0.0000 C   0  0  0  0  0  0  0  0  0  0  0  0
    5.3587   -0.3634    0.0000 C   0  0  0  0  0  0  0  0  0  0  0  0
    4.8269    0.2673    0.0000 C   0  0  0  0  0  0  0  0  0  0  0  0
    5.1072    1.0432    0.0000 C   0  0  0  0  0  0  0  0  0  0  0  0
    5.9193    1.1884    0.0000 C   0  0  0  0  0  0  0  0  0  0  0  0
    4.5754    1.6739    0.0000 C   0  0  0  0  0  0  0  0  0  0  0  0
    3.7633    1.5287    0.0000 C   0  0  0  0  0  0  0  0  0  0  0  0
    3.4830    0.7528    0.0000 C   0  0  0  0  0  0  0  0  0  0  0  0
    4.0148    0.1221    0.0000 C   0  0  0  0  0  0  0  0  0  0  0  0
    3.7345   -0.6539    0.0000 C   0  0  0  0  0  0  0  0  0  0  0  0
    2.9224   -0.7991    0.0000 C   0  0  0  0  0  0  0  0  0  0  0  0
    2.3905   -0.1684    0.0000 C   0  0  0  0  0  0  0  0  0  0  0  0
    2.6708    0.6076    0.0000 C   0  0  0  0  0  0  0  0  0  0  0  0
    2.0195    1.1139    0.0000 C   0  0  0  0  0  0  0  0  0  0  0  0
    1.3367    0.6509    0.0000 C   0  0  0  0  0  0  0  0  0  0  0  0
    1.5660   -0.1416    0.0000 C   0  0  0  0  0  0  0  0  0  0  0  0
    1.0596   -0.7929    0.0000 C   0  0  0  0  0  0  0  0  0  0  0  0
    1.2889   -1.5854    0.0000 C   0  0  0  0  0  0  0  0  0  0  0  0
    0.6061   -2.0484    0.0000 C   0  0  0  0  0  0  0  0  0  0  0  0
    0.5793   -2.8729    0.0000 O   0  0  0  0  0  0  0  0  0  0  0  0
   -0.0452   -1.5420    0.0000 O   0  0  0  0  0  0  0  0  0  0  0  0
    0.2351   -0.7661    0.0000 C   0  0  0  0  0  0  0  0  0  0  0  0
    0.5607    0.9312    0.0000 O   0  0  0  0  0  0  0  0  0  0  0  0
    0.4155    1.7434    0.0000 C   0  0  0  0  0  0  0  0  0  0  0  0
   -0.3604    2.0237    0.0000 O   0  0  0  0  0  0  0  0  0  0  0  0
    1.0462    2.2752    0.0000 C   0  0  0  0  0  0  0  0  0  0  0  0
    2.8685    1.4085    0.0000 O   0  0  0  0  0  0  0  0  0  0  0  0
    2.0307   -0.9107    0.0000 C   0  0  0  0  0  0  0  0  0  0  0  0
    4.5466   -0.5086    0.0000 C   0  0  0  0  0  0  0  0  0  0  0  0
    7.7663   -2.1103    0.0000 O   0  0  0  0  0  0  0  0  0  0  0  0
    8.2981   -2.7410    0.0000 C   0  0  0  0  0  0  0  0  0  0  0  0
    9.3905   -1.8199    0.0000 O   0  0  0  0  0  0  0  0  0  0  0  0
  2  1  1  1
  2  3  1  0
  2  7  1  0
  3  4  1  0
  3 41  1  6
  4  5  1  0
  4 39  1  1
  5  6  1  0
  6  7  1  0
  6  8  1  6
  9  8  1  1
  9 10  1  0
  9 14  1  0
 10 11  1  0
 11 12  1  0
 12 13  1  0
 12 18  1  0
 12 38  1  1
 13 14  1  6
 13 15  1  0
 15 16  1  0
 17 16  1  6
 17 18  1  0
 17 22  1  0
 18 19  1  1
 19 20  1  0
 20 21  1  0
 21 22  1  0
 21 25  1  0
 21 37  1  1
 22 23  1  0
 22 36  1  1
 23 24  1  0
 24 25  1  0
 24 32  1  1
 25 26  1  1
 26 27  2  0
 26 31  1  0
 27 28  1  0
 28 29  2  0
 28 30  1  0
 30 31  1  0
 32 33  1  0
 33 34  2  0
 33 35  1  0
 39 40  1  0
M  END
>  <DRUGBANK_ID>  (1) 
DB12843

>  <COMMON_NAME>  (1) 
Oleandrin

>  <CAS_NUMBER>  (1) 
465-16-7

>  <UNII>  (1) 
II95UDU7I4

>  <SYNONYMS>  (1) 
Anvirzel; Oleandrina

$$$$
