
     RDKit          2D

 36 39  0  0  0  0  0  0  0  0999 V2000
   -2.1434   -0.2062    0.0000 C   0  0  0  0  0  0  0  0  0  0  0  0
   -1.4289   -0.6188    0.0000 C   0  0  0  0  0  0  0  0  0  0  0  0
   -1.4289   -1.4438    0.0000 C   0  0  0  0  0  0  0  0  0  0  0  0
   -2.1434   -1.8563    0.0000 C   0  0  0  0  0  0  0  0  0  0  0  0
   -2.8579   -1.4438    0.0000 C   0  0  0  0  0  0  0  0  0  0  0  0
   -2.8579   -0.6188    0.0000 N   0  0  0  0  0  0  0  0  0  0  0  0
   -0.7145   -0.2062    0.0000 C   0  0  0  0  0  0  0  0  0  0  0  0
   -0.7145    0.6188    0.0000 O   0  0  0  0  0  0  0  0  0  0  0  0
    0.0000   -0.6188    0.0000 N   0  0  0  0  0  0  0  0  0  0  0  0
   -2.1434    0.6188    0.0000 O   0  0  0  0  0  0  0  0  0  0  0  0
   -3.5724   -0.2062    0.0000 C   0  0  0  0  0  0  0  0  0  0  0  0
   -4.2868   -0.6188    0.0000 C   0  0  0  0  0  0  0  0  0  0  0  0
   -5.0012   -0.2062    0.0000 C   0  0  0  0  0  0  0  0  0  0  0  0
   -5.0012    0.6188    0.0000 C   0  0  0  0  0  0  0  0  0  0  0  0
   -4.2868    1.0313    0.0000 C   0  0  0  0  0  0  0  0  0  0  0  0
   -3.5724    0.6188    0.0000 C   0  0  0  0  0  0  0  0  0  0  0  0
   -5.7158    1.0313    0.0000 F   0  0  0  0  0  0  0  0  0  0  0  0
   -0.7145   -1.8563    0.0000 O   0  0  0  0  0  0  0  0  0  0  0  0
    0.0000   -1.4438    0.0000 C   0  0  0  0  0  0  0  0  0  0  0  0
    0.7145   -1.8563    0.0000 C   0  0  0  0  0  0  0  0  0  0  0  0
    0.7145   -0.2062    0.0000 C   0  0  0  0  0  0  0  0  0  0  0  0
    1.4289   -0.6188    0.0000 C   0  0  0  0  0  0  0  0  0  0  0  0
    2.1434   -0.2062    0.0000 C   0  0  0  0  0  0  0  0  0  0  0  0
    2.1434    0.6188    0.0000 C   0  0  0  0  0  0  0  0  0  0  0  0
    1.4289    1.0313    0.0000 C   0  0  0  0  0  0  0  0  0  0  0  0
    0.7145    0.6188    0.0000 C   0  0  0  0  0  0  0  0  0  0  0  0
    2.8579   -0.6188    0.0000 F   0  0  0  0  0  0  0  0  0  0  0  0
    2.8579    1.0313    0.0000 O   0  0  0  0  0  0  0  0  0  0  0  0
    5.0012    0.6188    0.0000 C   0  0  0  0  0  0  0  0  0  0  0  0
    4.2868    1.0313    0.0000 C   0  0  0  0  0  0  0  0  0  0  0  0
    3.5724    0.6188    0.0000 C   0  0  0  0  0  0  0  0  0  0  0  0
    3.5724   -0.2062    0.0000 C   0  0  0  0  0  0  0  0  0  0  0  0
    4.2868   -0.6188    0.0000 C   0  0  0  0  0  0  0  0  0  0  0  0
    5.0012   -0.2062    0.0000 N   0  0  0  0  0  0  0  0  0  0  0  0
    4.2868    1.8563    0.0000 Cl  0  0  0  0  0  0  0  0  0  0  0  0
    5.7158    1.0313    0.0000 N   0  0  0  0  0  0  0  0  0  0  0  0
  1  2  1  0
  1  6  1  0
  1 10  2  0
  2  3  2  0
  2  7  1  0
  3  4  1  0
  3 18  1  0
  4  5  2  0
  5  6  1  0
  6 11  1  0
  7  8  2  0
  7  9  1  0
  9 21  1  0
 11 12  2  0
 11 16  1  0
 12 13  1  0
 13 14  2  0
 14 15  1  0
 14 17  1  0
 15 16  2  0
 18 19  1  0
 19 20  1  0
 21 22  2  0
 21 26  1  0
 22 23  1  0
 23 24  2  0
 23 27  1  0
 24 25  1  0
 24 28  1  0
 25 26  2  0
 28 31  1  0
 29 30  2  0
 29 34  1  0
 29 36  1  0
 30 31  1  0
 30 35  1  0
 31 32  2  0
 32 33  1  0
 33 34  2  0
M  END
>  <DRUGBANK_ID>  (1) 
DB12064

>  <COMMON_NAME>  (1) 
BMS-777607

>  <CAS_NUMBER>  (1) 
1025720-94-8

>  <UNII>  (1) 
A3MMS6HDO1

$$$$
