MBT
     RDKit          2D

 20 22  0  0  0  0  0  0  0  0999 V2000
    0.7145    0.8443    0.0000 C   0  0  0  0  0  0  0  0  0  0  0  0
    0.7145    0.0193    0.0000 C   0  0  0  0  0  0  0  0  0  0  0  0
    0.0000   -0.3932    0.0000 S   0  0  0  0  0  0  0  0  0  0  0  0
   -0.7145    0.0193    0.0000 C   0  0  0  0  0  0  0  0  0  0  0  0
   -0.7145    0.8443    0.0000 C   0  0  0  0  0  0  0  0  0  0  0  0
    0.0000    1.2568    0.0000 N   0  0  0  0  0  0  0  0  0  0  0  0
   -1.4290   -0.3932    0.0000 C   0  0  0  0  0  0  0  0  0  0  0  0
   -2.1434    0.0193    0.0000 C   0  0  0  0  0  0  0  0  0  0  0  0
   -2.1434    0.8443    0.0000 C   0  0  0  0  0  0  0  0  0  0  0  0
   -1.4290    1.2568    0.0000 C   0  0  0  0  0  0  0  0  0  0  0  0
    1.4289   -0.3932    0.0000 C   0  0  0  0  0  0  0  0  0  0  0  0
    2.1434    0.0193    0.0000 C   0  0  0  0  0  0  0  0  0  0  0  0
    2.1434    0.8443    0.0000 C   0  0  0  0  0  0  0  0  0  0  0  0
    1.4289    1.2568    0.0000 C   0  0  0  0  0  0  0  0  0  0  0  0
   -2.8579   -0.3932    0.0000 N   0  0  0  0  0  0  0  0  0  0  0  0
   -3.5724    0.0193    0.0000 C   0  0  0  0  0  0  0  0  0  0  0  0
   -2.8579   -1.2182    0.0000 C   0  0  0  0  0  0  0  0  0  0  0  0
    2.8579   -0.3932    0.0000 N   0  0  0  0  0  0  0  0  0  0  0  0
    3.5723    0.0193    0.0000 C   0  0  0  0  0  0  0  0  0  0  0  0
    2.8579   -1.2182    0.0000 C   0  0  0  0  0  0  0  0  0  0  0  0
  1 14  1  0
  1  6  2  0
  1  2  1  0
  2  3  2  0
  2 11  1  0
  3  4  1  0
  4  7  2  0
  4  5  1  0
  5  6  1  0
  5 10  2  0
  7  8  1  0
  8  9  2  0
  8 15  1  0
  9 10  1  0
 11 12  2  0
 12 18  1  0
 12 13  1  0
 13 14  2  0
 15 16  1  0
 15 17  1  0
 18 19  1  0
 18 20  1  0
M  CHG  1   3   1
M  END
>  <DRUGBANK_ID>  (1) 
DB08167

>  <COMMON_NAME>  (1) 
Methylthioninium

>  <CAS_NUMBER>  (1) 
7060-82-4

>  <UNII>  (1) 
ZMZ79891ZH

>  <SYNONYMS>  (1) 
Methylene blue cation

$$$$
