
     RDKit          2D

  8  7  0  0  0  0  0  0  0  0999 V2000
   -0.6039   -2.4750    0.0000 N   0  0  0  0  0  0  0  0  0  0  0  0
    0.1105   -2.0625    0.0000 C   0  0  0  0  0  0  0  0  0  0  0  0
    0.1105   -1.2375    0.0000 C   0  0  0  0  0  0  0  0  0  0  0  0
    0.8250   -0.8250    0.0000 S   0  0  0  0  0  0  0  0  0  0  0  0
    0.8250    0.0000    0.0000 P   0  0  0  0  0  0  0  0  0  0  0  0
    0.8250    0.8250    0.0000 O   0  0  0  0  0  0  0  0  0  0  0  0
    1.6500   -0.0000    0.0000 O   0  0  0  0  0  0  0  0  0  0  0  0
    0.0000    0.0000    0.0000 O   0  0  0  0  0  0  0  0  0  0  0  0
  1  2  1  0
  2  3  1  0
  3  4  1  0
  4  5  1  0
  5  6  1  0
  5  7  1  0
  5  8  2  0
M  END
>  <DRUGBANK_ID>  (1) 
DB17640

>  <COMMON_NAME>  (1) 
Phosphocysteamine

>  <CAS_NUMBER>  (1) 
5746-40-7

>  <UNII>  (1) 
WFH6A9S0V4

>  <SYNONYMS>  (1) 
Cysteamine s-phosphate; Cysteamine-s-phosphate; Ethanethiol, 2-amino-, 1-(dihydrogen phosphate); Ethanethiol, 2-amino-, dihydrogen phosphate (ester); Ethanethiol, 2-amino-, s-ester with phosphorothioic acid; Phosphocysteamine; Phosphorothioic acid, s-(2-aminoethyl) ester; S-(2-aminoethyl) dihydrogen phosphorothioate; S-(2-aminoethyl) phosphorothioate

$$$$
