
     RDKit          2D

 21 23  0  0  0  0  0  0  0  0999 V2000
   -1.1361   -0.2814    0.0000 C   0  0  0  0  0  0  0  0  0  0  0  0
   -1.8887    0.0562    0.0000 C   0  0  0  0  0  0  0  0  0  0  0  0
   -1.9726    0.8769    0.0000 C   0  0  0  0  0  0  0  0  0  0  0  0
   -1.3038    1.3599    0.0000 C   0  0  0  0  0  0  0  0  0  0  0  0
   -1.1723    2.1744    0.0000 N   0  0  0  0  0  0  0  0  0  0  0  0
   -0.3515    2.2582    0.0000 C   0  0  0  0  0  0  0  0  0  0  0  0
   -0.5510    1.0221    0.0000 C   0  0  0  0  0  0  0  0  0  0  0  0
    0.1178    1.5051    0.0000 N   0  0  0  0  0  0  0  0  0  0  0  0
    0.9176    1.3032    0.0000 C   0  0  0  0  0  0  0  0  0  0  0  0
    1.2771    0.5606    0.0000 C   0  0  0  0  0  0  0  0  0  0  0  0
   -0.4672    0.2014    0.0000 C   0  0  0  0  0  0  0  0  0  0  0  0
    0.9394   -0.1920    0.0000 N   0  0  0  0  0  0  0  0  0  0  0  0
    0.1456   -0.4171    0.0000 C   0  0  0  0  0  0  0  0  0  0  0  0
    0.0116    2.9990    0.0000 S   0  0  0  0  0  0  0  0  0  0  0  0
    2.1021    0.5726    0.0000 C   0  0  0  0  0  0  0  0  0  0  0  0
    1.4788   -0.8162    0.0000 C   0  0  0  0  0  0  0  0  0  0  0  0
    1.2079   -1.5955    0.0000 C   0  0  0  0  0  0  0  0  0  0  0  0
    1.7474   -2.2197    0.0000 C   0  0  0  0  0  0  0  0  0  0  0  0
    1.4765   -2.9990    0.0000 C   0  0  0  0  0  0  0  0  0  0  0  0
    2.5577   -2.0647    0.0000 C   0  0  0  0  0  0  0  0  0  0  0  0
   -2.5577   -0.4267    0.0000 Cl  0  0  0  0  0  0  0  0  0  0  0  0
  1  2  2  0
  2  3  1  0
  2 21  1  0
  3  4  2  0
  4  5  1  0
  6  8  1  0
  6 14  2  0
  6  5  1  0
  7 11  2  0
  7  8  1  0
  7  4  1  0
  8  9  1  0
  9 10  1  0
 10 12  1  0
 10 15  1  6
 11  1  1  0
 11 13  1  0
 12 13  1  0
 12 16  1  0
 16 17  1  0
 17 18  2  3
 18 19  1  0
 18 20  1  0
M  END
>  <DRUGBANK_ID>  (1) 
DB08598

>  <COMMON_NAME>  (1) 
R-82913

>  <CAS_NUMBER>  (1) 
126347-69-1

>  <UNII>  (1) 
4FOI87E52P

$$$$
