
     RDKit          2D

 24 24  0  0  0  0  0  0  0  0999 V2000
   -1.4298   -0.4124    0.0000 O   0  0  0  0  0  0  0  0  0  0  0  0
   -2.1442    0.0009    0.0000 C   0  0  0  0  0  0  0  0  0  0  0  0
   -0.7153    0.0009    0.0000 C   0  0  0  0  0  0  0  0  0  0  0  0
   -2.8587   -0.4124    0.0000 C   0  0  0  0  0  0  0  0  0  0  0  0
   -0.7153    0.8259    0.0000 C   0  0  0  0  0  0  0  0  0  0  0  0
    0.0010   -0.4124    0.0000 C   0  0  0  0  0  0  0  0  0  0  0  0
   -3.5731    0.0009    0.0000 N   0  0  0  0  0  0  0  0  0  0  0  0
   -2.8587   -1.2374    0.0000 O   0  0  0  0  0  0  0  0  0  0  0  0
   -1.4298    1.2374    0.0000 O   0  0  0  0  0  0  0  0  0  0  0  0
    0.0010    1.2374    0.0000 C   0  0  0  0  0  0  0  0  0  0  0  0
    0.7133    0.0009    0.0000 C   0  0  0  0  0  0  0  0  0  0  0  0
   -4.2875   -0.4124    0.0000 C   0  0  0  0  0  0  0  0  0  0  0  0
   -3.5731    0.8259    0.0000 C   0  0  0  0  0  0  0  0  0  0  0  0
   -2.1442    0.8259    0.0000 C   0  0  0  0  0  0  0  0  0  0  0  0
    0.7133    0.8259    0.0000 C   0  0  0  0  0  0  0  0  0  0  0  0
   -5.0019    0.0009    0.0000 C   0  0  0  0  0  0  0  0  0  0  0  0
   -4.2875    1.2374    0.0000 C   0  0  0  0  0  0  0  0  0  0  0  0
    1.4278    1.2374    0.0000 C   0  0  0  0  0  0  0  0  0  0  0  0
    2.1422    0.8259    0.0000 C   0  0  0  0  0  0  0  0  0  0  0  0
    2.8567    1.2374    0.0000 O   0  0  0  0  0  0  0  0  0  0  0  0
    2.1422    0.0009    0.0000 O   0  0  0  0  0  0  0  0  0  0  0  0
    3.5711    0.8259    0.0000 C   0  0  0  0  0  0  0  0  0  0  0  0
    4.2855    1.2374    0.0000 C   0  0  0  0  0  0  0  0  0  0  0  0
    5.0019    0.8259    0.0000 C   0  0  0  0  0  0  0  0  0  0  0  0
  1  2  1  0
  1  3  1  0
  2  4  1  0
  3  5  2  0
  3  6  1  0
  4  7  1  0
  4  8  2  0
  5  9  1  0
  5 10  1  0
  6 11  2  0
  7 12  1  0
  7 13  1  0
  9 14  1  0
 10 15  2  0
 11 15  1  0
 12 16  1  0
 13 17  1  0
 15 18  1  0
 18 19  1  0
 19 20  1  0
 19 21  2  0
 20 22  1  0
 22 23  1  0
 23 24  1  0
M  END
>  <DRUGBANK_ID>  (1) 
DB13234

>  <COMMON_NAME>  (1) 
Propanidid

>  <CAS_NUMBER>  (1) 
1421-14-3

>  <UNII>  (1) 
AO82L471NS

>  <SYNONYMS>  (1) 
Propanidid; Propanidido; Propanididum

$$$$
