PU8
     RDKit          2D

 28 30  0  0  0  0  0  0  0  0999 V2000
   -1.1004    3.2323    0.0000 C   0  0  0  0  0  0  0  0  0  0  0  0
   -0.6879    2.5178    0.0000 O   0  0  0  0  0  0  0  0  0  0  0  0
   -1.1004    1.8033    0.0000 C   0  0  0  0  0  0  0  0  0  0  0  0
   -0.6879    1.0888    0.0000 C   0  0  0  0  0  0  0  0  0  0  0  0
   -1.9254    1.8033    0.0000 C   0  0  0  0  0  0  0  0  0  0  0  0
   -2.3379    2.5178    0.0000 O   0  0  0  0  0  0  0  0  0  0  0  0
   -3.1629    2.5178    0.0000 C   0  0  0  0  0  0  0  0  0  0  0  0
   -2.3379    1.0888    0.0000 C   0  0  0  0  0  0  0  0  0  0  0  0
   -3.1629    1.0888    0.0000 O   0  0  0  0  0  0  0  0  0  0  0  0
   -3.5754    0.3744    0.0000 C   0  0  0  0  0  0  0  0  0  0  0  0
   -1.9254    0.3744    0.0000 C   0  0  0  0  0  0  0  0  0  0  0  0
   -1.1004    0.3744    0.0000 C   0  0  0  0  0  0  0  0  0  0  0  0
   -0.6879   -0.3401    0.0000 C   0  0  0  0  0  0  0  0  0  0  0  0
    0.1371   -0.3401    0.0000 C   0  0  0  0  0  0  0  0  0  0  0  0
    0.6220    0.3273    0.0000 N   0  0  0  0  0  0  0  0  0  0  0  0
    1.4067    0.0724    0.0000 C   0  0  0  0  0  0  0  0  0  0  0  0
    2.1211    0.4849    0.0000 C   0  0  0  0  0  0  0  0  0  0  0  0
    2.1211    1.3099    0.0000 N   0  0  0  0  0  0  0  0  0  0  0  0
    1.4067   -0.7526    0.0000 C   0  0  0  0  0  0  0  0  0  0  0  0
    2.1211   -1.1651    0.0000 N   0  0  0  0  0  0  0  0  0  0  0  0
    2.8356   -0.7526    0.0000 C   0  0  0  0  0  0  0  0  0  0  0  0
    2.8356    0.0724    0.0000 N   0  0  0  0  0  0  0  0  0  0  0  0
    0.6220   -1.0075    0.0000 N   0  0  0  0  0  0  0  0  0  0  0  0
    0.3671   -1.7922    0.0000 C   0  0  0  0  0  0  0  0  0  0  0  0
    0.9191   -2.4053    0.0000 C   0  0  0  0  0  0  0  0  0  0  0  0
    0.6642   -3.1899    0.0000 C   0  0  0  0  0  0  0  0  0  0  0  0
    1.2162   -3.8030    0.0000 C   0  0  0  0  0  0  0  0  0  0  0  0
    0.1371    1.0888    0.0000 Cl  0  0  0  0  0  0  0  0  0  0  0  0
  1  2  1  0
  2  3  1  0
  3  4  2  0
  3  5  1  0
  4 12  1  0
  4 28  1  0
  5  6  1  0
  5  8  2  0
  6  7  1  0
  8  9  1  0
  8 11  1  0
  9 10  1  0
 11 12  2  0
 12 13  1  0
 13 14  1  0
 14 15  2  0
 14 23  1  0
 15 16  1  0
 16 17  2  0
 16 19  1  0
 17 18  1  0
 17 22  1  0
 19 20  2  0
 19 23  1  0
 20 21  1  0
 21 22  2  0
 23 24  1  0
 24 25  1  0
 25 26  1  0
 26 27  1  0
M  END
>  <DRUGBANK_ID>  (1) 
DB03504

>  <SECONDARY_ACCESSION_NUMBERS>  (1) 
EXPT02698

>  <COMMON_NAME>  (1) 
9-Butyl-8-(2-Chloro-3,4,5-Trimethoxy-Benzyl)-9h-Purin-6-Ylamine

$$$$
