
     RDKit          2D

 26 29  0  0  0  0  0  0  0  0999 V2000
   -1.3960   -0.8258    0.0000 C   0  0  0  0  0  0  0  0  0  0  0  0
   -1.3960   -1.6508    0.0000 C   0  0  0  0  0  0  0  0  0  0  0  0
   -0.6816   -2.0633    0.0000 C   0  0  0  0  0  0  0  0  0  0  0  0
    0.0327   -1.6508    0.0000 C   0  0  0  0  0  0  0  0  0  0  0  0
    0.0327   -0.8258    0.0000 C   0  0  0  0  0  0  0  0  0  0  0  0
   -0.6816   -0.4134    0.0000 C   0  0  0  0  0  0  0  0  0  0  0  0
    0.7472   -2.0633    0.0000 C   0  0  0  0  0  0  0  0  0  0  0  0
    1.4615   -1.6508    0.0000 C   0  0  0  0  0  0  0  0  0  0  0  0
    1.4615   -0.8258    0.0000 C   0  0  0  0  0  0  0  0  0  0  0  0
    0.7472   -0.4134    0.0000 C   0  0  0  0  0  0  0  0  0  0  0  0
    2.1760   -0.4134    0.0000 C   0  0  0  0  0  0  0  0  0  0  0  0
    2.1760    0.4114    0.0000 C   0  0  0  0  0  0  0  0  0  0  0  0
    1.4615    0.8238    0.0000 C   0  0  0  0  0  0  0  0  0  0  0  0
    0.7472    0.4114    0.0000 C   0  0  0  0  0  0  0  0  0  0  0  0
    3.6047   -0.4134    0.0000 C   0  0  0  0  0  0  0  0  0  0  0  0
    3.6047    0.4114    0.0000 C   0  0  0  0  0  0  0  0  0  0  0  0
    2.8903    0.8238    0.0000 C   0  0  0  0  0  0  0  0  0  0  0  0
    2.1924    1.2363    0.0000 C   0  0  0  0  0  0  0  0  0  0  0  0
    2.8934    1.6488    0.0000 C   0  0  0  0  0  0  0  0  0  0  0  0
    0.0309    0.0227    0.0000 C   0  0  0  0  0  0  0  0  0  0  0  0
    3.6111    2.0594    0.0000 C   0  0  0  0  0  0  0  0  0  0  0  0
   -2.1255   -2.0721    0.0000 O   0  0  0  0  0  0  0  0  0  0  0  0
    2.1668    2.0721    0.0000 O   0  0  0  0  0  0  0  0  0  0  0  0
   -2.8696   -1.6423    0.0000 C   0  0  0  0  0  0  0  0  0  0  0  0
   -3.6111   -2.0700    0.0000 C   0  0  0  0  0  0  0  0  0  0  0  0
   -2.8693   -0.8134    0.0000 O   0  0  0  0  0  0  0  0  0  0  0  0
  1  2  1  0
  1  6  1  0
  2  3  1  0
  2 22  1  1
  3  4  1  0
  4  5  1  0
  4  7  2  0
  5  6  1  0
  5 10  1  0
  5 20  1  1
  7  8  1  0
  9  8  1  6
  9 10  1  0
  9 11  1  0
 10 14  1  1
 11 12  1  0
 11 15  1  1
 12 13  1  0
 12 17  1  0
 12 18  1  1
 13 14  1  0
 15 16  1  0
 16 17  1  0
 17 19  1  1
 19 21  1  0
 19 23  2  0
 22 24  1  0
 24 25  1  0
 24 26  2  0
M  END
>  <DRUGBANK_ID>  (1) 
DB14626

>  <SECONDARY_ACCESSION_NUMBERS>  (1) 
DBSALT002259

>  <COMMON_NAME>  (1) 
Pregnenolone acetate

>  <CAS_NUMBER>  (1) 
1778-02-5

>  <UNII>  (1) 
0G0WWV404B

>  <SYNONYMS>  (1) 
3beta-Hydroxypregn-5-en-20-one acetate

$$$$
