PBB
     RDKit          2D

 15 15  0  0  0  0  0  0  0  0999 V2000
   -1.7945   -0.0798    0.0000 C   0  0  0  0  0  0  0  0  0  0  0  0
   -2.5090    0.3327    0.0000 C   0  0  0  0  0  0  0  0  0  0  0  0
   -3.2235   -0.0798    0.0000 O   0  0  0  0  0  0  0  0  0  0  0  0
   -2.5090    1.1577    0.0000 O   0  0  0  0  0  0  0  0  0  0  0  0
   -1.7945   -0.9048    0.0000 N   0  0  0  0  0  0  0  0  0  0  0  0
   -1.0801    0.3327    0.0000 C   0  0  0  0  0  0  0  0  0  0  0  0
   -0.3656   -0.0798    0.0000 S   0  0  0  0  0  0  0  0  0  0  0  0
    3.2068   -1.3173    0.0000 Br  0  0  0  0  0  0  0  0  0  0  0  0
    1.0634   -0.0798    0.0000 C   0  0  0  0  0  0  0  0  0  0  0  0
    1.7778    0.3327    0.0000 C   0  0  0  0  0  0  0  0  0  0  0  0
    2.4923   -0.0798    0.0000 C   0  0  0  0  0  0  0  0  0  0  0  0
    2.4923   -0.9048    0.0000 C   0  0  0  0  0  0  0  0  0  0  0  0
    1.7778   -1.3173    0.0000 C   0  0  0  0  0  0  0  0  0  0  0  0
    1.0634   -0.9048    0.0000 C   0  0  0  0  0  0  0  0  0  0  0  0
    0.3489    0.3327    0.0000 C   0  0  0  0  0  0  0  0  0  0  0  0
  1  2  1  0
  1  5  1  6
  1  6  1  0
  2  3  2  0
  2  4  1  0
  6  7  1  0
  7 15  1  0
  8 12  1  0
  9 10  2  0
  9 14  1  0
  9 15  1  0
 10 11  1  0
 11 12  2  0
 12 13  1  0
 13 14  2  0
M  END
>  <DRUGBANK_ID>  (1) 
DB08370

>  <COMMON_NAME>  (1) 
S-(4-BROMOBENZYL)CYSTEINE

$$$$
