
     RDKit          2D

 21 20  0  0  1  0  0  0  0  0999 V2000
   16.0583  -10.6466    0.0000 O   0  0  0  0  0  0  0  0  0  0  0  0
   10.3425  -15.5966    0.0000 O   0  0  0  0  0  0  0  0  0  0  0  0
    9.6280  -14.3592    0.0000 O   0  0  0  0  0  0  0  0  0  0  0  0
   16.0583   -9.8216    0.0000 C   0  0  0  0  0  0  0  0  0  0  0  0
   16.7727   -9.4092    0.0000 C   0  0  0  0  0  0  0  0  0  0  0  0
   17.4872   -9.8216    0.0000 C   0  0  0  0  0  0  0  0  0  0  0  0
   11.7714  -12.2966    0.0000 C   0  0  0  0  0  0  0  0  0  0  0  0
   11.7714  -13.1216    0.0000 C   0  0  0  0  0  0  0  0  0  0  0  0
   12.4859  -11.8841    0.0000 C   0  0  0  0  0  0  0  0  0  0  0  0
   18.2016   -9.4092    0.0000 C   0  0  0  0  0  0  0  0  0  0  0  0
   11.0571  -13.5342    0.0000 C   0  0  0  0  0  0  0  0  0  0  0  0
   12.4859  -11.0592    0.0000 C   0  0  0  0  0  0  0  0  0  0  0  0
   18.9161   -9.8216    0.0000 C   0  0  0  0  0  0  0  0  0  0  0  0
   11.0571  -14.3592    0.0000 C   0  0  0  0  0  0  0  0  0  0  0  0
   13.2003  -10.6466    0.0000 C   0  0  0  0  0  0  0  0  0  0  0  0
   19.6306   -9.4092    0.0000 C   0  0  0  0  0  0  0  0  0  0  0  0
   10.3425  -14.7716    0.0000 C   0  0  0  0  0  0  0  0  0  0  0  0
   15.3437   -9.4092    0.0000 C   0  0  0  0  0  0  0  0  0  0  0  0
   13.2003   -9.8216    0.0000 C   0  0  0  0  0  0  0  0  0  0  0  0
   14.6293   -9.8216    0.0000 C   0  0  0  0  0  0  0  0  0  0  0  0
   13.9149   -9.4092    0.0000 C   0  0  0  0  0  0  0  0  0  0  0  0
  2 17  1  0
  3 17  2  0
  4  1  1  6
  4  5  1  0
  4 18  1  0
  5  6  1  0
  6 10  1  0
  7  8  1  0
  7  9  1  0
  8 11  1  0
  9 12  1  0
 10 13  1  0
 11 14  1  0
 12 15  1  0
 13 16  1  0
 14 17  1  0
 15 19  1  0
 18 20  2  0
 19 21  2  0
 20 21  1  0
M  END
>  <DRUGBANK_ID>  (1) 
DB06926

>  <COMMON_NAME>  (1) 
(9Z,11E,13S)-13-hydroxyoctadeca-9,11-dienoic acid

>  <UNII>  (1) 
53CYY2A5PM

$$$$
