L20
     RDKit          2D

 30 34  0  0  0  0  0  0  0  0999 V2000
    0.1093   -2.9809    0.0000 C   0  0  0  0  0  0  0  0  0  0  0  0
   -0.3756   -3.6483    0.0000 C   0  0  0  0  0  0  0  0  0  0  0  0
   -0.1206   -4.4329    0.0000 N   0  0  0  0  0  0  0  0  0  0  0  0
   -0.7881   -4.9178    0.0000 N   0  0  0  0  0  0  0  0  0  0  0  0
   -1.4555   -4.4329    0.0000 C   0  0  0  0  0  0  0  0  0  0  0  0
   -2.2625   -4.6045    0.0000 C   0  0  0  0  0  0  0  0  0  0  0  0
   -2.8145   -3.9914    0.0000 C   0  0  0  0  0  0  0  0  0  0  0  0
   -2.5596   -3.2067    0.0000 C   0  0  0  0  0  0  0  0  0  0  0  0
   -1.7526   -3.0352    0.0000 C   0  0  0  0  0  0  0  0  0  0  0  0
   -1.2006   -3.6483    0.0000 C   0  0  0  0  0  0  0  0  0  0  0  0
   -3.1116   -2.5936    0.0000 C   0  0  0  0  0  0  0  0  0  0  0  0
   -3.9186   -2.7652    0.0000 C   0  0  0  0  0  0  0  0  0  0  0  0
   -4.4706   -2.1521    0.0000 N   0  0  0  0  0  0  0  0  0  0  0  0
   -4.2157   -1.3675    0.0000 C   0  0  0  0  0  0  0  0  0  0  0  0
   -3.4087   -1.1959    0.0000 C   0  0  0  0  0  0  0  0  0  0  0  0
   -3.1538   -0.4113    0.0000 O   0  0  0  0  0  0  0  0  0  0  0  0
   -2.3468   -0.2398    0.0000 C   0  0  0  0  0  0  0  0  0  0  0  0
   -2.0919    0.5448    0.0000 C   0  0  0  0  0  0  0  0  0  0  0  0
   -2.6439    1.1579    0.0000 N   0  0  0  0  0  0  0  0  0  0  0  0
   -1.2849    0.7164    0.0000 C   0  0  0  0  0  0  0  0  0  0  0  0
   -1.0300    1.5010    0.0000 C   0  0  0  0  0  0  0  0  0  0  0  0
   -1.5149    2.1684    0.0000 C   0  0  0  0  0  0  0  0  0  0  0  0
   -1.0300    2.8359    0.0000 N   0  0  0  0  0  0  0  0  0  0  0  0
   -0.2453    2.5809    0.0000 C   0  0  0  0  0  0  0  0  0  0  0  0
    0.4691    2.9934    0.0000 C   0  0  0  0  0  0  0  0  0  0  0  0
    1.1836    2.5809    0.0000 C   0  0  0  0  0  0  0  0  0  0  0  0
    1.1836    1.7559    0.0000 C   0  0  0  0  0  0  0  0  0  0  0  0
    0.4691    1.3434    0.0000 C   0  0  0  0  0  0  0  0  0  0  0  0
   -0.2453    1.7559    0.0000 C   0  0  0  0  0  0  0  0  0  0  0  0
   -2.8567   -1.8090    0.0000 C   0  0  0  0  0  0  0  0  0  0  0  0
  1  2  1  0
  2  3  2  0
  2 10  1  0
  3  4  1  0
  4  5  1  0
  5  6  1  0
  5 10  2  0
  6  7  2  0
  7  8  1  0
  8  9  2  0
  8 11  1  0
  9 10  1  0
 11 12  2  0
 11 30  1  0
 12 13  1  0
 13 14  2  0
 14 15  1  0
 15 16  1  0
 15 30  2  0
 16 17  1  0
 17 18  1  0
 18 19  1  1
 18 20  1  0
 20 21  1  0
 21 22  2  0
 21 29  1  0
 22 23  1  0
 23 24  1  0
 24 25  1  0
 24 29  2  0
 25 26  2  0
 26 27  1  0
 27 28  2  0
 28 29  1  0
M  END
>  <DRUGBANK_ID>  (1) 
DB08073

>  <COMMON_NAME>  (1) 
(2S)-1-(1H-INDOL-3-YL)-3-{[5-(3-METHYL-1H-INDAZOL-5-YL)PYRIDIN-3-YL]OXY}PROPAN-2-AMINE

>  <UNII>  (1) 
Q4UG565ZYH

$$$$
