H12
     RDKit          2D

 22 24  0  0  0  0  0  0  0  0999 V2000
    0.3883    0.9139    0.0000 C   0  0  0  0  0  0  0  0  0  0  0  0
   -0.3262    0.5014    0.0000 C   0  0  0  0  0  0  0  0  0  0  0  0
   -1.0406    0.9139    0.0000 C   0  0  0  0  0  0  0  0  0  0  0  0
   -1.0406    1.7389    0.0000 C   0  0  0  0  0  0  0  0  0  0  0  0
   -0.3262    2.1514    0.0000 C   0  0  0  0  0  0  0  0  0  0  0  0
    0.3883    1.7389    0.0000 C   0  0  0  0  0  0  0  0  0  0  0  0
    1.1028   -1.9736    0.0000 N   0  0  0  0  0  0  0  0  0  0  0  0
    0.3883   -1.5611    0.0000 C   0  0  0  0  0  0  0  0  0  0  0  0
   -0.3262   -1.9736    0.0000 O   0  0  0  0  0  0  0  0  0  0  0  0
    0.3883   -0.7361    0.0000 C   0  0  0  0  0  0  0  0  0  0  0  0
    1.1028   -0.3236    0.0000 C   0  0  0  0  0  0  0  0  0  0  0  0
    1.1028    0.5014    0.0000 O   0  0  0  0  0  0  0  0  0  0  0  0
    1.8173   -1.5611    0.0000 C   0  0  0  0  0  0  0  0  0  0  0  0
    1.8173   -0.7361    0.0000 C   0  0  0  0  0  0  0  0  0  0  0  0
    2.5317   -0.3236    0.0000 C   0  0  0  0  0  0  0  0  0  0  0  0
    3.2462   -0.7361    0.0000 C   0  0  0  0  0  0  0  0  0  0  0  0
    3.2462   -1.5611    0.0000 C   0  0  0  0  0  0  0  0  0  0  0  0
    2.5317   -1.9736    0.0000 C   0  0  0  0  0  0  0  0  0  0  0  0
    3.9607   -0.3236    0.0000 Cl  0  0  0  0  0  0  0  0  0  0  0  0
   -0.3262   -0.3236    0.0000 C   0  0  0  0  0  0  0  0  0  0  0  0
   -1.0406   -0.7361    0.0000 C   0  0  0  0  0  0  0  0  0  0  0  0
   -1.7551   -0.3236    0.0000 C   0  0  0  0  0  0  0  0  0  0  0  0
  1  2  1  0
  1  6  1  0
  1 12  1  0
  2  3  1  0
  3  4  1  0
  4  5  1  0
  5  6  1  0
  7  8  1  0
  7 13  1  0
  8  9  2  0
  8 10  1  0
 10 11  2  0
 10 20  1  0
 11 12  1  0
 11 14  1  0
 13 14  2  0
 13 18  1  0
 14 15  1  0
 15 16  2  0
 16 17  1  0
 16 19  1  0
 17 18  2  0
 20 21  1  0
 21 22  1  0
M  END
>  <DRUGBANK_ID>  (1) 
DB07867

>  <COMMON_NAME>  (1) 
6-CHLORO-4-(CYCLOHEXYLOXY)-3-PROPYLQUINOLIN-2(1H)-ONE

$$$$
