
     RDKit          2D

 34 38  0  0  1  0  0  0  0  0999 V2000
    2.9559   -1.0942    0.0000 C   0  0  0  0  0  0  0  0  0  0  0  0
    2.4256   -2.0127    0.0000 C   0  0  0  0  0  0  0  0  0  0  0  0
   -1.4289   -2.4749    0.0000 C   0  0  0  0  0  0  0  0  0  0  0  0
    4.2868    0.8250    0.0000 C   0  0  0  0  0  0  0  0  0  0  0  0
    3.5724    1.2374    0.0000 C   0  0  0  0  0  0  0  0  0  0  0  0
    4.2868    0.0000    0.0000 C   0  0  0  0  0  0  0  0  0  0  0  0
   -0.8932    5.9420    0.0000 C   0  0  0  0  0  0  0  0  0  0  0  0
   -1.3057    5.2275    0.0000 C   0  0  0  0  0  0  0  0  0  0  0  0
    2.8579    0.8250    0.0000 C   0  0  0  0  0  0  0  0  0  0  0  0
    3.5724   -0.4125    0.0000 C   0  0  0  0  0  0  0  0  0  0  0  0
    2.1434    1.2374    0.0000 C   0  0  0  0  0  0  0  0  0  0  0  0
    0.7145    1.2374    0.0000 C   0  0  0  0  0  0  0  0  0  0  0  0
    2.1434    2.0625    0.0000 C   0  0  0  0  0  0  0  0  0  0  0  0
    0.7145    2.0625    0.0000 C   0  0  0  0  0  0  0  0  0  0  0  0
   -0.7145   -0.4125    0.0000 C   0  0  0  0  0  0  0  0  0  0  0  0
    0.0000    0.0000    0.0000 C   0  0  0  0  0  0  0  0  0  0  0  0
   -0.0862    5.7705    0.0000 C   0  0  0  0  0  0  0  0  0  0  0  0
   -0.7537    4.6143    0.0000 C   0  0  0  0  0  0  0  0  0  0  0  0
    0.7145    4.5375    0.0000 C   0  0  0  0  0  0  0  0  0  0  0  0
    0.7145    3.7125    0.0000 C   0  0  0  0  0  0  0  0  0  0  0  0
    0.0000   -1.6500    0.0000 C   0  0  0  0  0  0  0  0  0  0  0  0
    1.4289    0.8250    0.0000 C   0  0  0  0  0  0  0  0  0  0  0  0
    2.8579    0.0000    0.0000 C   0  0  0  0  0  0  0  0  0  0  0  0
    1.4289    2.4749    0.0000 C   0  0  0  0  0  0  0  0  0  0  0  0
   -0.7145   -1.2374    0.0000 C   0  0  0  0  0  0  0  0  0  0  0  0
    0.7145   -0.4125    0.0000 C   0  0  0  0  0  0  0  0  0  0  0  0
    0.7145   -1.2374    0.0000 C   0  0  0  0  0  0  0  0  0  0  0  0
    1.4289    0.0000    0.0000 C   0  0  0  0  0  0  0  0  0  0  0  0
    2.1434   -0.4125    0.0000 C   0  0  0  0  0  0  0  0  0  0  0  0
    2.1434   -1.2374    0.0000 C   0  0  0  0  0  0  0  0  0  0  0  0
    0.0000    4.9499    0.0000 N   0  0  0  0  0  0  0  0  0  0  0  0
   -1.4289   -1.6500    0.0000 O   0  0  0  0  0  0  0  0  0  0  0  0
    1.4289    3.3000    0.0000 O   0  0  0  0  0  0  0  0  0  0  0  0
    1.4289   -1.6500    0.0000 O   0  0  0  0  0  0  0  0  0  0  0  0
  5  4  2  0
  6  4  1  0
  8  7  1  0
  9  5  1  0
 10  6  2  0
 13 11  2  0
 14 12  1  0
 16 15  2  0
 17  7  1  0
 18  8  1  0
 20 19  1  0
 22 11  1  0
 22 12  2  0
 23  9  2  0
 23 10  1  0
 24 13  1  0
 24 14  2  0
 25 15  1  0
 25 21  2  0
 26 16  1  0
 27 21  1  0
 27 26  2  0
 28 22  1  1
 28 26  1  0
 29 23  1  6
 29 28  1  0
 30  1  1  0
 30  2  1  0
 30 29  1  0
 31 17  1  0
 31 18  1  0
 31 19  1  0
 32  3  1  0
 32 25  1  0
 33 20  1  0
 33 24  1  0
 34 27  1  0
 34 30  1  0
M  END
>  <DRUGBANK_ID>  (1) 
DB13310

>  <COMMON_NAME>  (1) 
Ormeloxifene

>  <CAS_NUMBER>  (1) 
31477-60-8

>  <UNII>  (1) 
44AXY5VE90

>  <SYNONYMS>  (1) 
Centchroman; Ormeloxifene

$$$$
