
     RDKit          2D

 28 30  0  0  0  0  0  0  0  0999 V2000
    1.7849   -2.4751    0.0000 Cl  0  0  0  0  0  0  0  0  0  0  0  0
   -0.3550    1.2451    0.0000 O   0  0  0  0  0  0  0  0  0  0  0  0
   -2.5000   -1.6500    0.0000 O   0  0  0  0  0  0  0  0  0  0  0  0
   -1.7850    1.2451    0.0000 O   0  0  0  0  0  0  0  0  0  0  0  0
    0.3549    0.0000    0.0000 N   0  0  0  0  0  0  0  0  0  0  0  0
   -0.3550   -1.2400    0.0000 N   0  0  0  0  0  0  0  0  0  0  0  0
   -1.7850   -0.4150    0.0000 N   0  0  0  0  0  0  0  0  0  0  0  0
    1.0700   -1.2400    0.0000 C   0  0  0  0  0  0  0  0  0  0  0  0
    1.0700   -0.4049    0.0000 C   0  0  0  0  0  0  0  0  0  0  0  0
    1.7849   -1.6500    0.0000 C   0  0  0  0  0  0  0  0  0  0  0  0
    0.3549   -1.6500    0.0000 C   0  0  0  0  0  0  0  0  0  0  0  0
    1.7849    0.0000    0.0000 C   0  0  0  0  0  0  0  0  0  0  0  0
    0.3549    0.8250    0.0000 C   0  0  0  0  0  0  0  0  0  0  0  0
    2.5000   -1.2400    0.0000 C   0  0  0  0  0  0  0  0  0  0  0  0
    1.0700    1.2451    0.0000 C   0  0  0  0  0  0  0  0  0  0  0  0
   -1.7850   -1.2400    0.0000 C   0  0  0  0  0  0  0  0  0  0  0  0
    2.5000   -0.4150    0.0000 C   0  0  0  0  0  0  0  0  0  0  0  0
   -1.0699   -1.6500    0.0000 C   0  0  0  0  0  0  0  0  0  0  0  0
    1.7849    0.8250    0.0000 C   0  0  0  0  0  0  0  0  0  0  0  0
    1.0700    2.0701    0.0000 C   0  0  0  0  0  0  0  0  0  0  0  0
   -2.5000    0.0000    0.0000 C   0  0  0  0  0  0  0  0  0  0  0  0
   -1.0699    0.0000    0.0000 C   0  0  0  0  0  0  0  0  0  0  0  0
   -0.3550   -0.4049    0.0000 C   0  0  0  0  0  0  0  0  0  0  0  0
   -2.5000    0.8250    0.0000 C   0  0  0  0  0  0  0  0  0  0  0  0
   -1.0699    0.8250    0.0000 C   0  0  0  0  0  0  0  0  0  0  0  0
    2.5000    1.2451    0.0000 C   0  0  0  0  0  0  0  0  0  0  0  0
    1.7849    2.4751    0.0000 C   0  0  0  0  0  0  0  0  0  0  0  0
    2.5000    2.0701    0.0000 C   0  0  0  0  0  0  0  0  0  0  0  0
  1 10  1  0
  2 13  2  0
  3 16  2  0
  4 24  1  0
  4 25  1  0
  5  9  1  0
  5 13  1  0
  6 11  1  0
  6 18  1  0
  6 23  1  0
  7 16  1  0
  7 21  1  0
  7 22  1  0
  8  9  1  0
  8 10  2  0
  8 11  1  0
  9 12  2  0
 10 14  1  0
 12 17  1  0
 13 15  1  0
 14 17  2  0
 15 19  2  0
 15 20  1  0
 16 18  1  0
 19 26  1  0
 20 27  2  0
 21 24  1  0
 22 25  1  0
 26 28  2  0
 27 28  1  0
M  END
>  <DRUGBANK_ID>  (1) 
DB08968

>  <COMMON_NAME>  (1) 
Fominoben

>  <CAS_NUMBER>  (1) 
18053-31-1

>  <UNII>  (1) 
TJ2KK6NYJS

>  <SYNONYMS>  (1) 
Fominoben; Fominobene; Fominobenum

$$$$
