
     RDKit          2D

 37 41  0  0  0  0  0  0  0  0999 V2000
    0.4468   -0.7087    0.0000 N   0  0  0  0  0  0  0  0  0  0  0  0
   -0.2956   -0.2961    0.0000 C   0  0  0  0  0  0  0  0  0  0  0  0
   -1.0380   -0.7087    0.0000 C   0  0  0  0  0  0  0  0  0  0  0  0
   -1.7524   -0.2961    0.0000 C   0  0  0  0  0  0  0  0  0  0  0  0
   -1.7524    0.5288    0.0000 N   0  0  0  0  0  0  0  0  0  0  0  0
   -1.0379    0.9412    0.0000 C   0  0  0  0  0  0  0  0  0  0  0  0
   -1.0379    1.7661    0.0000 C   0  0  0  0  0  0  0  0  0  0  0  0
   -2.4669   -0.7086    0.0000 C   0  0  0  0  0  0  0  0  0  0  0  0
   -2.4672   -1.5449    0.0000 C   0  0  0  0  0  0  0  0  0  0  0  0
   -3.1817   -1.9572    0.0000 C   0  0  0  0  0  0  0  0  0  0  0  0
   -3.8961   -1.5448    0.0000 C   0  0  0  0  0  0  0  0  0  0  0  0
   -3.8959   -0.7082    0.0000 C   0  0  0  0  0  0  0  0  0  0  0  0
   -3.1814   -0.2960    0.0000 C   0  0  0  0  0  0  0  0  0  0  0  0
   -0.3320    2.1736    0.0000 C   0  0  0  0  0  0  0  0  0  0  0  0
   -0.3320    2.9985    0.0000 C   0  0  0  0  0  0  0  0  0  0  0  0
   -1.0465    3.4112    0.0000 C   0  0  0  0  0  0  0  0  0  0  0  0
   -1.7521    3.0039    0.0000 C   0  0  0  0  0  0  0  0  0  0  0  0
   -1.7523    2.1789    0.0000 C   0  0  0  0  0  0  0  0  0  0  0  0
   -0.3235    0.5288    0.0000 O   0  0  0  0  0  0  0  0  0  0  0  0
    1.8759   -0.7087    0.0000 C   0  0  0  0  0  0  0  0  0  0  0  0
    1.8759   -1.5337    0.0000 C   0  0  0  0  0  0  0  0  0  0  0  0
    1.1613   -0.2961    0.0000 C   0  0  0  0  0  0  0  0  0  0  0  0
    1.1613   -1.9462    0.0000 C   0  0  0  0  0  0  0  0  0  0  0  0
    0.4468   -1.5337    0.0000 C   0  0  0  0  0  0  0  0  0  0  0  0
    2.5903   -1.9462    0.0000 N   0  0  0  0  0  0  0  0  0  0  0  0
    3.3440   -1.6106    0.0000 C   0  0  0  0  0  0  0  0  0  0  0  0
    2.6766   -2.7666    0.0000 C   0  0  0  0  0  0  0  0  0  0  0  0
    3.8961   -2.2237    0.0000 N   0  0  0  0  0  0  0  0  0  0  0  0
    3.4837   -2.9382    0.0000 N   0  0  0  0  0  0  0  0  0  0  0  0
    2.0635   -3.3187    0.0000 C   0  0  0  0  0  0  0  0  0  0  0  0
    3.5156   -0.8036    0.0000 C   0  0  0  0  0  0  0  0  0  0  0  0
    1.2787   -3.0638    0.0000 C   0  0  0  0  0  0  0  0  0  0  0  0
    2.2350   -4.1257    0.0000 C   0  0  0  0  0  0  0  0  0  0  0  0
    1.4711   -0.9365    0.0000 C   0  0  0  0  0  0  0  0  0  0  0  0
    1.1700   -1.5350    0.0000 C   0  0  0  0  0  0  0  0  0  0  0  0
   -1.4588    4.1257    0.0000 F   0  0  0  0  0  0  0  0  0  0  0  0
   -0.6338    4.1256    0.0000 F   0  0  0  0  0  0  0  0  0  0  0  0
  1  2  1  0
  1 22  1  0
  2  3  1  0
  4  3  1  1
  4  5  1  0
  4  8  1  0
  5  6  1  0
  6  7  1  0
  6 19  2  0
  7 14  1  0
  7 18  1  0
  8  9  2  0
  8 13  1  0
  9 10  1  0
 10 11  2  0
 11 12  1  0
 12 13  2  0
 14 15  1  0
 15 16  1  0
 16 17  1  0
 17 18  1  0
 21 20  1  0
 21 25  1  1
 22 20  1  1
 22 34  1  0
 23 21  1  0
 24 23  1  1
 24  1  1  0
 24 35  1  0
 26 25  1  0
 26 31  1  0
 27 25  1  0
 27 30  1  0
 28 26  2  0
 29 27  2  0
 29 28  1  0
 30 32  1  0
 30 33  1  0
 34 35  1  0
 36 16  1  0
 37 16  1  0
M  END
>  <DRUGBANK_ID>  (1) 
DB04835

>  <COMMON_NAME>  (1) 
Maraviroc

>  <CAS_NUMBER>  (1) 
376348-65-1

>  <UNII>  (1) 
MD6P741W8A

>  <SYNONYMS>  (1) 
Maraviroc; Maravirocum

$$$$
