LN1
     RDKit          2D

 34 36  0  0  0  0  0  0  0  0999 V2000
    0.3329   -0.9823    0.0000 O   0  0  0  0  0  0  0  0  0  0  0  0
   -0.4271   -0.6614    0.0000 C   0  0  0  0  0  0  0  0  0  0  0  0
   -1.0851   -1.1591    0.0000 C   0  0  0  0  0  0  0  0  0  0  0  0
   -1.0691   -1.9840    0.0000 C   0  0  0  0  0  0  0  0  0  0  0  0
   -1.8487   -2.2540    0.0000 C   0  0  0  0  0  0  0  0  0  0  0  0
   -2.1696   -3.0140    0.0000 C   0  0  0  0  0  0  0  0  0  0  0  0
   -2.9883   -3.1161    0.0000 C   0  0  0  0  0  0  0  0  0  0  0  0
   -3.4860   -2.4581    0.0000 C   0  0  0  0  0  0  0  0  0  0  0  0
   -3.1651   -1.6981    0.0000 C   0  0  0  0  0  0  0  0  0  0  0  0
   -2.3464   -1.5961    0.0000 N   0  0  0  0  0  0  0  0  0  0  0  0
   -1.8745   -0.9194    0.0000 C   0  0  0  0  0  0  0  0  0  0  0  0
   -2.1445   -0.1398    0.0000 N   0  0  0  0  0  0  0  0  0  0  0  0
   -1.6044    0.4838    0.0000 C   0  0  0  0  0  0  0  0  0  0  0  0
   -1.8745    1.2634    0.0000 C   0  0  0  0  0  0  0  0  0  0  0  0
   -2.6846    1.4193    0.0000 O   0  0  0  0  0  0  0  0  0  0  0  0
   -1.3344    1.8870    0.0000 O   0  0  0  0  0  0  0  0  0  0  0  0
   -0.7943    0.3279    0.0000 C   0  0  0  0  0  0  0  0  0  0  0  0
   -0.6384    1.1380    0.0000 S   0  0  0  0  0  0  0  0  0  0  0  0
    0.1412    1.4081    0.0000 O   0  0  0  0  0  0  0  0  0  0  0  0
   -0.8255    1.9415    0.0000 O   0  0  0  0  0  0  0  0  0  0  0  0
   -0.9502   -0.4822    0.0000 C   0  0  0  0  0  0  0  0  0  0  0  0
    0.0158    0.1720    0.0000 C   0  0  0  0  0  0  0  0  0  0  0  0
    0.5559    0.7956    0.0000 O   0  0  0  0  0  0  0  0  0  0  0  0
    1.3661    0.6397    0.0000 C   0  0  0  0  0  0  0  0  0  0  0  0
    1.6361   -0.1398    0.0000 O   0  0  0  0  0  0  0  0  0  0  0  0
    1.9061    1.2634    0.0000 C   0  0  0  0  0  0  0  0  0  0  0  0
    2.7163    1.1075    0.0000 C   0  0  0  0  0  0  0  0  0  0  0  0
    3.2564    1.7311    0.0000 C   0  0  0  0  0  0  0  0  0  0  0  0
    2.9863    0.3279    0.0000 C   0  0  0  0  0  0  0  0  0  0  0  0
    3.7965    0.1720    0.0000 C   0  0  0  0  0  0  0  0  0  0  0  0
    4.3365    0.7956    0.0000 C   0  0  0  0  0  0  0  0  0  0  0  0
    5.1467    0.6397    0.0000 O   0  0  0  0  0  0  0  0  0  0  0  0
    4.0665    1.5752    0.0000 C   0  0  0  0  0  0  0  0  0  0  0  0
    4.6066    2.1988    0.0000 O   0  0  0  0  0  0  0  0  0  0  0  0
  1  2  2  0
  3  2  1  0
  3  4  1  0
  5  4  2  0
  5  6  1  0
  7  6  2  0
  8  7  1  0
  9  8  2  0
  9 10  1  0
 10  5  1  0
 11  3  2  0
 11 10  1  0
 12 11  1  0
 13 12  1  1
 13 14  1  0
 14 15  1  0
 16 14  2  0
 17 13  1  0
 17 21  1  6
 17 22  1  0
 18 17  1  0
 18 19  1  0
 18 20  2  0
 22 23  1  0
 24 23  1  0
 25 24  2  0
 26 24  1  0
 27 26  1  0
 27 29  1  0
 28 27  2  0
 30 29  2  0
 31 30  1  0
 32 31  1  0
 33 28  1  0
 33 31  2  0
 34 33  1  0
M  END
>  <DRUGBANK_ID>  (1) 
DB08116

>  <COMMON_NAME>  (1) 
(3R)-4-{[(3,4-dihydroxyphenyl)acetyl]oxy}-N-(2-formylindolizin-3-yl)-3-sulfino-D-valine

$$$$
