1568
     RDKit          2D

 23 27  0  0  1  0  0  0  0  0999 V2000
    1.9356   -0.1190    0.0000 O   0  0  0  0  0  0  0  0  0  0  0  0
    5.5383   -1.8353    0.0000 O   0  0  0  0  0  0  0  0  0  0  0  0
    1.7349   -2.2486    0.0000 O   0  0  0  0  0  0  0  0  0  0  0  0
    1.7349    1.9190    0.0000 O   0  0  0  0  0  0  0  0  0  0  0  0
    5.3440   -0.9899    0.0000 N   0  0  0  0  0  0  0  0  0  0  0  0
    3.2006   -0.5773    0.0000 C   0  0  0  0  0  0  0  0  0  0  0  0
    3.9151   -0.9899    0.0000 C   0  0  0  0  0  0  0  0  0  0  0  0
    4.6296   -0.5773    0.0000 C   0  0  0  0  0  0  0  0  0  0  0  0
    2.4861   -0.9899    0.0000 C   0  0  0  0  0  0  0  0  0  0  0  0
    3.6773    0.0277    0.0000 C   0  0  0  0  0  0  0  0  0  0  0  0
    3.2006    0.2477    0.0000 C   0  0  0  0  0  0  0  0  0  0  0  0
    4.8506    0.0277    0.0000 C   0  0  0  0  0  0  0  0  0  0  0  0
    4.6296    0.2477    0.0000 C   0  0  0  0  0  0  0  0  0  0  0  0
    3.9151    0.6602    0.0000 C   0  0  0  0  0  0  0  0  0  0  0  0
    2.4861   -1.8149    0.0000 C   0  0  0  0  0  0  0  0  0  0  0  0
    3.9151   -1.8149    0.0000 C   0  0  0  0  0  0  0  0  0  0  0  0
    2.4861    0.6602    0.0000 C   0  0  0  0  0  0  0  0  0  0  0  0
    3.2006   -2.2274    0.0000 C   0  0  0  0  0  0  0  0  0  0  0  0
    6.1733   -1.2444    0.0000 C   0  0  0  0  0  0  0  0  0  0  0  0
    3.9151    1.4852    0.0000 C   0  0  0  0  0  0  0  0  0  0  0  0
    2.4861    1.4852    0.0000 C   0  0  0  0  0  0  0  0  0  0  0  0
    3.2006    1.8977    0.0000 C   0  0  0  0  0  0  0  0  0  0  0  0
    1.7349    2.7864    0.0000 C   0  0  0  0  0  0  0  0  0  0  0  0
  9  1  1  6
  1 17  1  0
  4 21  1  0
  4 23  1  0
  5  2  1  0
  5  8  1  0
  5 12  1  0
  5 19  1  1
  6  7  1  0
  6  9  1  0
  6 10  1  1
  6 11  1  0
  7  8  1  0
  7 16  1  6
  8 13  1  1
  9 15  1  0
 10 12  1  0
 11 14  2  0
 11 17  1  0
 13 14  1  0
 14 20  1  0
 15  3  1  6
 15 18  1  0
 16 18  2  0
 17 21  2  0
 20 22  2  0
 21 22  1  0
M  CHG  2   2  -1   5   1
M  END
>  <DRUGBANK_ID>  (1) 
DB01568

>  <COMMON_NAME>  (1) 
Codeine-N-oxide

>  <CAS_NUMBER>  (1) 
3688-65-1

>  <UNII>  (1) 
Z32OFX7V17

$$$$
