
     RDKit          2D

 16 17  0  0  0  0  0  0  0  0999 V2000
   -1.5759   -0.3383    0.0000 C   0  0  0  0  0  0  0  0  0  0  0  0
   -1.5759    0.4564    0.0000 C   0  0  0  0  0  0  0  0  0  0  0  0
   -0.1814   -0.3383    0.0000 C   0  0  0  0  0  0  0  0  0  0  0  0
   -2.2232   -0.7595    0.0000 C   0  0  0  0  0  0  0  0  0  0  0  0
   -0.8786    0.8871    0.0000 N   0  0  0  0  0  0  0  0  0  0  0  0
   -2.2922    0.9086    0.0000 C   0  0  0  0  0  0  0  0  0  0  0  0
   -0.1814    0.4564    0.0000 C   0  0  0  0  0  0  0  0  0  0  0  0
    0.6205   -0.8547    0.0000 N   0  0  0  0  0  0  0  0  0  0  0  0
   -2.9823   -0.3383    0.0000 C   0  0  0  0  0  0  0  0  0  0  0  0
   -0.8786    1.8200    0.0000 C   0  0  0  0  0  0  0  0  0  0  0  0
   -2.9823    0.4564    0.0000 C   0  0  0  0  0  0  0  0  0  0  0  0
    0.4587    0.8705    0.0000 O   0  0  0  0  0  0  0  0  0  0  0  0
    1.3701   -0.3692    0.0000 N   0  0  0  0  0  0  0  0  0  0  0  0
    2.1673   -0.8785    0.0000 C   0  0  0  0  0  0  0  0  0  0  0  0
    2.9823   -0.4023    0.0000 N   0  0  0  0  0  0  0  0  0  0  0  0
    2.1628   -1.8200    0.0000 S   0  0  0  0  0  0  0  0  0  0  0  0
  1  3  1  0
  1  4  2  0
  1  2  1  0
  2  5  1  0
  2  6  2  0
  3  7  1  0
  3  8  2  0
  4  9  1  0
  5 10  1  0
  5  7  1  0
  6 11  1  0
  7 12  2  0
  8 13  1  0
  9 11  2  0
 13 14  1  0
 14 15  1  0
 14 16  2  0
M  END
>  <DRUGBANK_ID>  (1) 
DB13641

>  <COMMON_NAME>  (1) 
Metisazone

>  <CAS_NUMBER>  (1) 
1910-68-5

>  <UNII>  (1) 
K3QML4J07E

>  <SYNONYMS>  (1) 
Methisazone; Metisazona; Metisazone; Metisazonum

$$$$
