F1H
     RDKit          2D

 20 21  0  0  0  0  0  0  0  0999 V2000
    2.9505    1.0899    0.0000 C   0  0  0  0  0  0  0  0  0  0  0  0
    3.6649    0.6774    0.0000 C   0  0  0  0  0  0  0  0  0  0  0  0
    2.2360   -0.1476    0.0000 C   0  0  0  0  0  0  0  0  0  0  0  0
    2.2360    0.6774    0.0000 C   0  0  0  0  0  0  0  0  0  0  0  0
    0.8071   -0.1476    0.0000 C   0  0  0  0  0  0  0  0  0  0  0  0
    0.0926   -0.5601    0.0000 C   0  0  0  0  0  0  0  0  0  0  0  0
    1.5215    1.0899    0.0000 C   0  0  0  0  0  0  0  0  0  0  0  0
    0.0926    1.0899    0.0000 C   0  0  0  0  0  0  0  0  0  0  0  0
   -0.6219    0.6774    0.0000 C   0  0  0  0  0  0  0  0  0  0  0  0
   -4.1942   -0.5601    0.0000 C   0  0  0  0  0  0  0  0  0  0  0  0
   -2.7653   -0.5601    0.0000 C   0  0  0  0  0  0  0  0  0  0  0  0
   -3.4798   -0.1476    0.0000 C   0  0  0  0  0  0  0  0  0  0  0  0
   -2.0508   -0.1476    0.0000 C   0  0  0  0  0  0  0  0  0  0  0  0
   -0.6219   -0.1476    0.0000 C   0  0  0  0  0  0  0  0  0  0  0  0
   -2.0508    0.6774    0.0000 O   0  0  0  0  0  0  0  0  0  0  0  0
   -4.9087   -0.1476    0.0000 S   0  0  0  0  0  0  0  0  0  0  0  0
   -1.3363   -0.5601    0.0000 N   0  0  0  0  0  0  0  0  0  0  0  0
    0.8071    0.6774    0.0000 N   0  0  0  0  0  0  0  0  0  0  0  0
    3.6649   -0.1476    0.0000 C   0  0  0  0  0  0  0  0  0  0  0  0
    2.9505   -0.5601    0.0000 C   0  0  0  0  0  0  0  0  0  0  0  0
  1  2  2  0
  1  4  1  0
  2 19  1  0
  3  4  2  0
  3 20  1  0
  4  7  1  0
  5  6  1  0
  5 18  1  0
  6 14  1  0
  7 18  1  0
  8  9  1  0
  8 18  1  0
  9 14  1  0
 10 12  1  0
 10 16  1  0
 11 12  1  0
 11 13  1  0
 13 15  2  0
 13 17  1  0
 14 17  1  0
 19 20  2  0
M  END
>  <DRUGBANK_ID>  (1) 
DB07734

>  <COMMON_NAME>  (1) 
N-(1-benzylpiperidin-4-yl)-4-sulfanylbutanamide

$$$$
