
     RDKit          2D

 16 16  0  0  0  0  0  0  0  0999 V2000
   -0.3764    0.4182    0.0000 C   0  0  0  0  0  0  0  0  0  0  0  0
   -0.3764   -0.4182    0.0000 C   0  0  0  0  0  0  0  0  0  0  0  0
    0.3764   -0.8364    0.0000 C   0  0  0  0  0  0  0  0  0  0  0  0
    1.0873   -0.4182    0.0000 C   0  0  0  0  0  0  0  0  0  0  0  0
    1.0873    0.4182    0.0000 C   0  0  0  0  0  0  0  0  0  0  0  0
    0.3764    0.8365    0.0000 C   0  0  0  0  0  0  0  0  0  0  0  0
    1.7984    0.8365    0.0000 C   0  0  0  0  0  0  0  0  0  0  0  0
    2.5094    0.4182    0.0000 C   0  0  0  0  0  0  0  0  0  0  0  0
    3.2624    0.8365    0.0000 N   0  0  0  0  0  0  0  0  0  0  0  0
    2.5094   -0.4182    0.0000 O   0  0  0  0  0  0  0  0  0  0  0  0
    3.9734    0.4182    0.0000 O   0  0  0  0  0  0  0  0  0  0  0  0
   -1.0875   -0.8364    0.0000 O   0  0  0  0  0  0  0  0  0  0  0  0
   -1.7986   -0.4182    0.0000 C   0  0  0  0  0  0  0  0  0  0  0  0
   -2.5514   -0.8364    0.0000 C   0  0  0  0  0  0  0  0  0  0  0  0
   -3.2625   -0.4182    0.0000 C   0  0  0  0  0  0  0  0  0  0  0  0
   -3.9734   -0.8364    0.0000 C   0  0  0  0  0  0  0  0  0  0  0  0
  1  2  2  0
  2  3  1  0
  2 12  1  0
  3  4  2  0
  4  5  1  0
  5  6  2  0
  5  7  1  0
  6  1  1  0
  7  8  1  0
  8  9  1  0
  8 10  2  0
  9 11  1  0
 12 13  1  0
 13 14  1  0
 14 15  1  0
 15 16  1  0
M  END
>  <DRUGBANK_ID>  (1) 
DB13346

>  <COMMON_NAME>  (1) 
Bufexamac

>  <CAS_NUMBER>  (1) 
2438-72-4

>  <UNII>  (1) 
4T3C38J78L

>  <SYNONYMS>  (1) 
2-(p-Butoxyphenyl)-acetohydroxamic acid; 4-Butoxy-N-hydroxybenzeneacetamide; 4-Butoxyphenylacetohydroxamic acid; Acide p-butoxyphenylacethydroxamique; Bufexamac; bufexamaco; bufexamacum; Bufexamic acid; p-Butoxyphenylacetohydroxamic acid

$$$$
