
     RDKit          2D

 28 30  0  0  0  0  0  0  0  0999 V2000
   -2.2334   -0.5317    0.0000 O   0  0  0  0  0  0  0  0  0  0  0  0
   -2.2334    0.8032    0.0000 O   0  0  0  0  0  0  0  0  0  0  0  0
    1.9641   -0.5787    0.0000 O   0  0  0  0  0  0  0  0  0  0  0  0
   -4.4393   -0.4261    0.0000 O   0  0  0  0  0  0  0  0  0  0  0  0
    3.2017    0.1357    0.0000 O   0  0  0  0  0  0  0  0  0  0  0  0
    2.7892    0.8502    0.0000 N   0  0  0  0  0  0  0  0  0  0  0  0
    2.7892    2.2793    0.0000 N   0  0  0  0  0  0  0  0  0  0  0  0
    4.0268    1.5647    0.0000 N   0  0  0  0  0  0  0  0  0  0  0  0
    3.2017   -2.7222    0.0000 N   0  0  0  0  0  0  0  0  0  0  0  0
   -3.0181   -0.2767    0.0000 C   0  0  0  0  0  0  0  0  0  0  0  0
   -3.0181    0.5482    0.0000 C   0  0  0  0  0  0  0  0  0  0  0  0
    1.5516    0.1357    0.0000 C   0  0  0  0  0  0  0  0  0  0  0  0
    0.7266    0.1357    0.0000 C   0  0  0  0  0  0  0  0  0  0  0  0
   -0.9234    0.1357    0.0000 C   0  0  0  0  0  0  0  0  0  0  0  0
   -3.6856   -0.7617    0.0000 C   0  0  0  0  0  0  0  0  0  0  0  0
    0.3140    0.8502    0.0000 C   0  0  0  0  0  0  0  0  0  0  0  0
    0.3140   -0.5787    0.0000 C   0  0  0  0  0  0  0  0  0  0  0  0
   -0.5109    0.8502    0.0000 C   0  0  0  0  0  0  0  0  0  0  0  0
   -0.5109   -0.5787    0.0000 C   0  0  0  0  0  0  0  0  0  0  0  0
    1.9641    0.8502    0.0000 C   0  0  0  0  0  0  0  0  0  0  0  0
    2.7892   -0.5787    0.0000 C   0  0  0  0  0  0  0  0  0  0  0  0
    3.2017   -1.2933    0.0000 C   0  0  0  0  0  0  0  0  0  0  0  0
    3.2017    1.5647    0.0000 C   0  0  0  0  0  0  0  0  0  0  0  0
    4.0268   -1.2933    0.0000 C   0  0  0  0  0  0  0  0  0  0  0  0
    2.7892   -2.0077    0.0000 C   0  0  0  0  0  0  0  0  0  0  0  0
    4.4393   -2.0077    0.0000 C   0  0  0  0  0  0  0  0  0  0  0  0
    4.0268   -2.7222    0.0000 C   0  0  0  0  0  0  0  0  0  0  0  0
   -1.7485    0.1357    0.0000 B   0  0  0  0  0  0  0  0  0  0  0  0
  1 10  1  0
  1 28  1  0
  2 11  1  0
  2 28  1  0
  3 21  1  0
  4 15  1  0
  5 21  2  0
  6 20  1  0
  6 23  2  3
  7 23  1  0
  8 23  1  0
  9 25  2  0
  9 27  1  0
 10 11  1  0
 10 15  1  6
 12  3  1  0
 12 13  1  0
 12 20  1  6
 13 16  2  0
 13 17  1  0
 14 18  2  0
 14 19  1  0
 14 28  1  0
 16 18  1  0
 17 19  2  0
 21 22  1  0
 22 24  2  0
 22 25  1  0
 24 26  1  0
 26 27  2  0
M  END
>  <DRUGBANK_ID>  (1) 
DB07023

>  <COMMON_NAME>  (1) 
(1R)-2-[(Diaminomethylene)amino]-1-{4-[(4R)-4-(hydroxymethyl)-1,3,2-dioxaborolan-2-yl]phenyl}ethyl nicotinate

$$$$
