CF3
     RDKit          2D

 21 21  0  0  0  0  0  0  0  0999 V2000
   -4.0361   -0.3529    0.0000 C   0  0  0  0  0  0  0  0  0  0  0  0
   -4.7506    0.0596    0.0000 C   0  0  0  0  0  0  0  0  0  0  0  0
   -4.7506    0.8846    0.0000 C   0  0  0  0  0  0  0  0  0  0  0  0
   -4.0361    1.2971    0.0000 C   0  0  0  0  0  0  0  0  0  0  0  0
   -3.3216    0.8846    0.0000 C   0  0  0  0  0  0  0  0  0  0  0  0
   -3.3216    0.0596    0.0000 C   0  0  0  0  0  0  0  0  0  0  0  0
   -2.6072   -0.3529    0.0000 N   0  0  0  0  0  0  0  0  0  0  0  0
   -1.8927    0.0596    0.0000 C   0  0  0  0  0  0  0  0  0  0  0  0
   -1.8927    0.8846    0.0000 O   0  0  0  0  0  0  0  0  0  0  0  0
   -1.1782   -0.3529    0.0000 C   0  0  0  0  0  0  0  0  0  0  0  0
   -0.4637    0.0596    0.0000 C   0  0  0  0  0  0  0  0  0  0  0  0
    0.2507   -0.3529    0.0000 C   0  0  0  0  0  0  0  0  0  0  0  0
    0.9652    0.0596    0.0000 C   0  0  0  0  0  0  0  0  0  0  0  0
    1.6797   -0.3529    0.0000 C   0  0  0  0  0  0  0  0  0  0  0  0
    2.3941    0.0596    0.0000 C   0  0  0  0  0  0  0  0  0  0  0  0
    3.1086   -0.3529    0.0000 C   0  0  0  0  0  0  0  0  0  0  0  0
    3.1086   -1.1779    0.0000 O   0  0  0  0  0  0  0  0  0  0  0  0
    3.8231    0.0596    0.0000 C   0  0  0  0  0  0  0  0  0  0  0  0
    4.5376    0.4721    0.0000 F   0  0  0  0  0  0  0  0  0  0  0  0
    4.2356   -0.6549    0.0000 F   0  0  0  0  0  0  0  0  0  0  0  0
    3.4106    0.7741    0.0000 F   0  0  0  0  0  0  0  0  0  0  0  0
  1  2  2  0
  1  6  1  0
  2  3  1  0
  3  4  2  0
  4  5  1  0
  5  6  2  0
  6  7  1  0
  7  8  1  0
  8  9  2  0
  8 10  1  0
 10 11  1  0
 11 12  1  0
 12 13  1  0
 13 14  1  0
 14 15  1  0
 15 16  1  0
 16 17  2  0
 16 18  1  0
 18 19  1  0
 18 20  1  0
 18 21  1  0
M  END
>  <DRUGBANK_ID>  (1) 
DB07553

>  <COMMON_NAME>  (1) 
9,9,9-TRIFLUORO-8-OXO-N-PHENYLNONANAMIDE

$$$$
