4OX
     RDKit          2D

 15 14  0  0  0  0  0  0  0  0999 V2000
   -1.0704   -0.1530    0.0000 C   0  0  0  0  0  0  0  0  0  0  0  0
   -1.7848    0.2595    0.0000 C   0  0  0  0  0  0  0  0  0  0  0  0
   -2.4993   -0.1530    0.0000 C   0  0  0  0  0  0  0  0  0  0  0  0
   -3.2138    0.2595    0.0000 C   0  0  0  0  0  0  0  0  0  0  0  0
   -3.9282   -0.1530    0.0000 O   0  0  0  0  0  0  0  0  0  0  0  0
   -3.2138    1.0845    0.0000 O   0  0  0  0  0  0  0  0  0  0  0  0
    3.9309    0.2595    0.0000 O   0  0  0  0  0  0  0  0  0  0  0  0
    3.2165   -0.1530    0.0000 C   0  0  0  0  0  0  0  0  0  0  0  0
    3.2165   -0.9780    0.0000 O   0  0  0  0  0  0  0  0  0  0  0  0
    2.5020    0.2595    0.0000 C   0  0  0  0  0  0  0  0  0  0  0  0
    1.7875   -0.1530    0.0000 C   0  0  0  0  0  0  0  0  0  0  0  0
    1.0731    0.2595    0.0000 C   0  0  0  0  0  0  0  0  0  0  0  0
    0.3586   -0.1530    0.0000 C   0  0  0  0  0  0  0  0  0  0  0  0
   -0.3559    0.2595    0.0000 C   0  0  0  0  0  0  0  0  0  0  0  0
    1.0731    1.0845    0.0000 O   0  0  0  0  0  0  0  0  0  0  0  0
  1  2  1  0
  1 14  1  0
  2  3  1  0
  3  4  1  0
  4  5  1  0
  4  6  2  0
  7  8  2  0
  8  9  1  0
  8 10  1  0
 10 11  1  0
 11 12  1  0
 12 13  1  0
 12 15  2  0
 13 14  1  0
M  END
>  <DRUGBANK_ID>  (1) 
DB02260

>  <SECONDARY_ACCESSION_NUMBERS>  (1) 
EXPT00224

>  <COMMON_NAME>  (1) 
4-Oxosebacic Acid

$$$$
