OHN
     RDKit          2D

 21 21  0  0  0  0  0  0  0  0999 V2000
   -6.5581   -2.5880    0.0000 C   0  0  0  0  0  0  0  0  0  0  0  0
   -5.8437   -3.0005    0.0000 C   0  0  0  0  0  0  0  0  0  0  0  0
   -5.1292   -2.5880    0.0000 C   0  0  0  0  0  0  0  0  0  0  0  0
   -4.4147   -3.0005    0.0000 C   0  0  0  0  0  0  0  0  0  0  0  0
   -3.7002   -2.5880    0.0000 C   0  0  0  0  0  0  0  0  0  0  0  0
   -2.9858   -3.0005    0.0000 C   0  0  0  0  0  0  0  0  0  0  0  0
   -2.2713   -2.5880    0.0000 C   0  0  0  0  0  0  0  0  0  0  0  0
   -1.5568   -3.0005    0.0000 C   0  0  0  0  0  0  0  0  0  0  0  0
   -0.8424   -2.5880    0.0000 C   0  0  0  0  0  0  0  0  0  0  0  0
   -0.1279   -3.0005    0.0000 C   0  0  0  0  0  0  0  0  0  0  0  0
   -0.1279   -3.8255    0.0000 O   0  0  0  0  0  0  0  0  0  0  0  0
    0.5866   -2.5880    0.0000 C   0  0  0  0  0  0  0  0  0  0  0  0
    1.3011   -3.0005    0.0000 C   0  0  0  0  0  0  0  0  0  0  0  0
    1.3011   -3.8255    0.0000 O   0  0  0  0  0  0  0  0  0  0  0  0
    2.0155   -2.5880    0.0000 N   0  0  0  0  0  0  0  0  0  0  0  0
    2.7300   -3.0005    0.0000 C   0  0  0  0  0  0  0  0  0  0  0  0
    3.4837   -2.6649    0.0000 C   0  0  0  0  0  0  0  0  0  0  0  0
    4.0357   -3.2780    0.0000 C   0  0  0  0  0  0  0  0  0  0  0  0
    2.8162   -3.8210    0.0000 C   0  0  0  0  0  0  0  0  0  0  0  0
    2.2031   -4.3730    0.0000 O   0  0  0  0  0  0  0  0  0  0  0  0
    3.6232   -3.9925    0.0000 O   0  0  0  0  0  0  0  0  0  0  0  0
  1  2  1  0
  2  3  1  0
  3  4  1  0
  4  5  1  0
  5  6  1  0
  6  7  1  0
  7  8  1  0
  8  9  1  0
  9 10  1  0
 10 11  2  0
 10 12  1  0
 12 13  1  0
 13 14  2  0
 13 15  1  0
 16 15  1  1
 16 17  1  0
 16 19  1  0
 17 18  1  0
 18 21  1  0
 19 20  2  0
 19 21  1  0
M  END
>  <DRUGBANK_ID>  (1) 
DB08324

>  <COMMON_NAME>  (1) 
N-3-OXO-DODECANOYL-L-HOMOSERINE LACTONE

$$$$
