
     RDKit          2D

 21 22  0  0  0  0  0  0  0  0999 V2000
    2.1496   -2.0905    0.0000 S   0  0  0  0  0  0  0  0  0  0  0  0
    0.8147   -3.0604    0.0000 S   0  0  0  0  0  0  0  0  0  0  0  0
    1.4822   -2.5755    0.0000 P   0  0  0  0  0  0  0  0  0  0  0  0
   -0.0532   -0.5421    0.0000 O   0  0  0  0  0  0  0  0  0  0  0  0
   -1.6181   -1.9942    0.0000 O   0  0  0  0  0  0  0  0  0  0  0  0
    0.9972   -1.9079    0.0000 O   0  0  0  0  0  0  0  0  0  0  0  0
   -2.1496    0.7678    0.0000 O   0  0  0  0  0  0  0  0  0  0  0  0
   -0.7206    3.2428    0.0000 O   0  0  0  0  0  0  0  0  0  0  0  0
    1.9670   -3.2428    0.0000 O   0  0  0  0  0  0  0  0  0  0  0  0
   -0.7206    0.7678    0.0000 N   0  0  0  0  0  0  0  0  0  0  0  0
   -1.4352    2.0053    0.0000 N   0  0  0  0  0  0  0  0  0  0  0  0
   -1.1331   -1.3267    0.0000 C   0  0  0  0  0  0  0  0  0  0  0  0
   -0.3081   -1.3267    0.0000 C   0  0  0  0  0  0  0  0  0  0  0  0
   -1.3881   -0.5421    0.0000 C   0  0  0  0  0  0  0  0  0  0  0  0
   -0.7206   -0.0571    0.0000 C   0  0  0  0  0  0  0  0  0  0  0  0
    0.1767   -1.9942    0.0000 C   0  0  0  0  0  0  0  0  0  0  0  0
   -0.0061    1.1803    0.0000 C   0  0  0  0  0  0  0  0  0  0  0  0
   -1.4352    1.1803    0.0000 C   0  0  0  0  0  0  0  0  0  0  0  0
   -0.0061    2.0053    0.0000 C   0  0  0  0  0  0  0  0  0  0  0  0
   -0.7206    2.4179    0.0000 C   0  0  0  0  0  0  0  0  0  0  0  0
    0.7083    2.4179    0.0000 C   0  0  0  0  0  0  0  0  0  0  0  0
  1  3  1  0
  2  3  2  0
  3  6  1  0
  3  9  1  0
  4 13  1  0
  4 15  1  0
  6 16  1  0
  7 18  2  0
  8 20  2  0
 10 17  1  0
 10 18  1  0
 11 18  1  0
 11 20  1  0
 12  5  1  1
 12 13  1  0
 12 14  1  0
 13 16  1  6
 14 15  1  0
 15 10  1  6
 17 19  2  0
 19 20  1  0
 19 21  1  0
M  END
>  <DRUGBANK_ID>  (1) 
DB02980

>  <SECONDARY_ACCESSION_NUMBERS>  (1) 
EXPT03057

>  <COMMON_NAME>  (1) 
Thymidine-5'-(dithio)phosphate

$$$$
