
     RDKit          2D

 31 33  0  0  0  0  0  0  0  0999 V2000
   -5.3585    1.4437    0.0000 C   0  0  0  0  0  0  0  0  0  0  0  0
   -1.7861    2.6812    0.0000 C   0  0  0  0  0  0  0  0  0  0  0  0
   -4.6440    1.0312    0.0000 C   0  0  0  0  0  0  0  0  0  0  0  0
   -2.5006    2.2687    0.0000 C   0  0  0  0  0  0  0  0  0  0  0  0
   -3.9295    1.4437    0.0000 C   0  0  0  0  0  0  0  0  0  0  0  0
    5.3585   -2.2687    0.0000 C   0  0  0  0  0  0  0  0  0  0  0  0
    5.3585   -1.4437    0.0000 C   0  0  0  0  0  0  0  0  0  0  0  0
    4.6440   -2.6812    0.0000 C   0  0  0  0  0  0  0  0  0  0  0  0
    1.7861    2.2687    0.0000 C   0  0  0  0  0  0  0  0  0  0  0  0
    1.0717    2.6812    0.0000 C   0  0  0  0  0  0  0  0  0  0  0  0
   -3.2151    1.0312    0.0000 C   0  0  0  0  0  0  0  0  0  0  0  0
    4.6440   -1.0312    0.0000 C   0  0  0  0  0  0  0  0  0  0  0  0
    3.9295   -2.2687    0.0000 C   0  0  0  0  0  0  0  0  0  0  0  0
    1.7861    1.4437    0.0000 C   0  0  0  0  0  0  0  0  0  0  0  0
    0.3572    2.2687    0.0000 C   0  0  0  0  0  0  0  0  0  0  0  0
    3.2151   -0.2062    0.0000 C   0  0  0  0  0  0  0  0  0  0  0  0
    2.5006   -1.4437    0.0000 C   0  0  0  0  0  0  0  0  0  0  0  0
    2.5006    0.2062    0.0000 C   0  0  0  0  0  0  0  0  0  0  0  0
    1.7861   -1.0312    0.0000 C   0  0  0  0  0  0  0  0  0  0  0  0
   -1.7861    1.0312    0.0000 C   0  0  0  0  0  0  0  0  0  0  0  0
   -2.5006    1.4437    0.0000 C   0  0  0  0  0  0  0  0  0  0  0  0
    3.9295   -1.4437    0.0000 C   0  0  0  0  0  0  0  0  0  0  0  0
    3.2151   -1.0312    0.0000 C   0  0  0  0  0  0  0  0  0  0  0  0
    1.7861   -0.2062    0.0000 C   0  0  0  0  0  0  0  0  0  0  0  0
    1.0717    1.0312    0.0000 C   0  0  0  0  0  0  0  0  0  0  0  0
    0.3572    1.4437    0.0000 C   0  0  0  0  0  0  0  0  0  0  0  0
    1.0717    0.2062    0.0000 C   0  0  0  0  0  0  0  0  0  0  0  0
   -0.3572    1.0312    0.0000 C   0  0  0  0  0  0  0  0  0  0  0  0
    0.3572   -0.2062    0.0000 O   0  0  0  0  0  0  0  0  0  0  0  0
   -0.3572    0.2062    0.0000 O   0  0  0  0  0  0  0  0  0  0  0  0
   -1.0717    1.4437    0.0000 O   0  0  0  0  0  0  0  0  0  0  0  0
  3  1  1  0
  4  2  1  0
  5  3  1  0
  7  6  2  0
  8  6  1  0
 10  9  2  0
 11  5  1  0
 12  7  1  0
 13  8  2  0
 14  9  1  0
 15 10  1  0
 18 16  2  0
 19 17  1  0
 21  4  1  0
 21 11  1  0
 21 20  1  0
 22 12  2  0
 22 13  1  0
 23 16  1  0
 23 17  2  0
 23 22  1  0
 24 18  1  0
 24 19  2  0
 25 14  2  0
 26 15  2  0
 26 25  1  0
 27 24  1  0
 27 25  1  0
 28 26  1  0
 29 27  2  0
 30 28  2  0
 31 20  1  0
 31 28  1  0
M  END
>  <DRUGBANK_ID>  (1) 
DB14471

>  <COMMON_NAME>  (1) 
2-Ethylhexyl 4-phenylbenzophenone-2'-carboxylate

>  <CAS_NUMBER>  (1) 
75005-95-7

>  <UNII>  (1) 
93NOD9WBCS

$$$$
