JTP
     RDKit          2D

 33 37  0  0  0  0  0  0  0  0999 V2000
    5.8778   -2.1170    0.0000 C   0  0  0  0  0  0  0  0  0  0  0  0
    6.2510   -1.3813    0.0000 C   0  0  0  0  0  0  0  0  0  0  0  0
    5.5152   -1.0081    0.0000 N   0  0  0  0  0  0  0  0  0  0  0  0
    4.8241   -1.4587    0.0000 C   0  0  0  0  0  0  0  0  0  0  0  0
    4.0883   -1.0856    0.0000 C   0  0  0  0  0  0  0  0  0  0  0  0
    4.0436   -0.2618    0.0000 C   0  0  0  0  0  0  0  0  0  0  0  0
    3.3078    0.1114    0.0000 C   0  0  0  0  0  0  0  0  0  0  0  0
    2.6168   -0.3393    0.0000 C   0  0  0  0  0  0  0  0  0  0  0  0
    2.6615   -1.1631    0.0000 C   0  0  0  0  0  0  0  0  0  0  0  0
    1.8919   -1.4602    0.0000 N   0  0  0  0  0  0  0  0  0  0  0  0
    1.3715   -0.8200    0.0000 C   0  0  0  0  0  0  0  0  0  0  0  0
    0.5465   -0.8277    0.0000 C   0  0  0  0  0  0  0  0  0  0  0  0
    0.0382   -1.4775    0.0000 C   0  0  0  0  0  0  0  0  0  0  0  0
   -0.7787   -1.3622    0.0000 C   0  0  0  0  0  0  0  0  0  0  0  0
   -1.0873   -0.5971    0.0000 C   0  0  0  0  0  0  0  0  0  0  0  0
   -0.5790    0.0527    0.0000 C   0  0  0  0  0  0  0  0  0  0  0  0
    0.2379   -0.0626    0.0000 C   0  0  0  0  0  0  0  0  0  0  0  0
    0.2293   -2.2801    0.0000 O   0  0  0  0  0  0  0  0  0  0  0  0
    0.9759   -2.6311    0.0000 C   0  0  0  0  0  0  0  0  0  0  0  0
    1.7158   -2.2662    0.0000 C   0  0  0  0  0  0  0  0  0  0  0  0
    1.8195   -0.1273    0.0000 C   0  0  0  0  0  0  0  0  0  0  0  0
    1.5224    0.6424    0.0000 C   0  0  0  0  0  0  0  0  0  0  0  0
    2.0403    1.2845    0.0000 C   0  0  0  0  0  0  0  0  0  0  0  0
    1.7432    2.0542    0.0000 C   0  0  0  0  0  0  0  0  0  0  0  0
    0.9281    2.1817    0.0000 C   0  0  0  0  0  0  0  0  0  0  0  0
    0.4102    1.5395    0.0000 C   0  0  0  0  0  0  0  0  0  0  0  0
    0.7073    0.7699    0.0000 C   0  0  0  0  0  0  0  0  0  0  0  0
    3.3973   -1.5362    0.0000 C   0  0  0  0  0  0  0  0  0  0  0  0
    4.8689   -2.2825    0.0000 O   0  0  0  0  0  0  0  0  0  0  0  0
    6.9868   -1.7544    0.0000 C   0  0  0  0  0  0  0  0  0  0  0  0
    7.6778   -1.3038    0.0000 O   0  0  0  0  0  0  0  0  0  0  0  0
    7.0315   -2.5782    0.0000 O   0  0  0  0  0  0  0  0  0  0  0  0
    6.6241   -0.6455    0.0000 C   0  0  0  0  0  0  0  0  0  0  0  0
  1  2  1  0
  2 33  1  0
  2  3  1  0
  2 30  1  0
  3  4  1  0
  4 29  2  0
  4  5  1  0
  5  6  2  0
  5 28  1  0
  6  7  1  0
  7  8  2  0
  8  9  1  0
  8 21  1  0
  9 28  2  0
  9 10  1  0
 10 20  1  0
 10 11  1  0
 11 12  1  0
 11 21  2  0
 12 17  2  0
 12 13  1  0
 13 18  1  0
 13 14  2  0
 14 15  1  0
 15 16  2  0
 16 17  1  0
 18 19  1  0
 19 20  1  0
 21 22  1  0
 22 27  1  0
 22 23  1  0
 23 24  1  0
 24 25  1  0
 25 26  1  0
 26 27  1  0
 30 31  2  0
 30 32  1  0
M  END
>  <DRUGBANK_ID>  (1) 
DB08031

>  <COMMON_NAME>  (1) 
N-[(13-CYCLOHEXYL-6,7-DIHYDROINDOLO[1,2-D][1,4]BENZOXAZEPIN-10-YL)CARBONYL]-2-METHYL-L-ALANINE

$$$$
