
     RDKit          2D

 20 21  0  0  0  0  0  0  0  0999 V2000
    1.4683    0.7665    0.0000 N   0  0  0  0  0  0  0  0  0  0  0  0
    1.9532    0.0989    0.0000 C   0  0  0  0  0  0  0  0  0  0  0  0
    1.4683   -0.5684    0.0000 C   0  0  0  0  0  0  0  0  0  0  0  0
    0.6837   -0.3135    0.0000 C   0  0  0  0  0  0  0  0  0  0  0  0
   -0.0308   -0.7261    0.0000 C   0  0  0  0  0  0  0  0  0  0  0  0
   -0.7454   -0.3135    0.0000 C   0  0  0  0  0  0  0  0  0  0  0  0
   -0.7454    0.5114    0.0000 C   0  0  0  0  0  0  0  0  0  0  0  0
   -0.0308    0.9240    0.0000 C   0  0  0  0  0  0  0  0  0  0  0  0
    0.6837    0.5114    0.0000 C   0  0  0  0  0  0  0  0  0  0  0  0
    2.7783    0.0989    0.0000 S   0  0  0  0  0  0  0  0  0  0  0  0
    2.7783   -0.7261    0.0000 O   0  0  0  0  0  0  0  0  0  0  0  0
    2.7783    0.9240    0.0000 O   0  0  0  0  0  0  0  0  0  0  0  0
    3.6034    0.0989    0.0000 O   0  0  0  0  0  0  0  0  0  0  0  0
   -1.4598    0.9240    0.0000 O   0  0  0  0  0  0  0  0  0  0  0  0
    1.7233    1.5511    0.0000 C   0  0  0  0  0  0  0  0  0  0  0  0
   -1.4598   -0.7261    0.0000 N   0  0  0  0  0  0  0  0  0  0  0  0
   -2.1743   -0.3135    0.0000 N   0  0  0  0  0  0  0  0  0  0  0  0
   -2.8889   -0.7261    0.0000 C   0  0  0  0  0  0  0  0  0  0  0  0
   -2.8889   -1.5511    0.0000 O   0  0  0  0  0  0  0  0  0  0  0  0
   -3.6034   -0.3135    0.0000 N   0  0  0  0  0  0  0  0  0  0  0  0
  1  2  1  0
  1  9  1  0
  1 15  1  0
  2  3  1  0
  2 10  1  0
  3  4  1  0
  4  5  2  0
  4  9  1  0
  5  6  1  0
  6  7  1  0
  6 16  2  0
  7  8  1  0
  7 14  2  0
  8  9  2  0
 10 11  2  0
 10 12  2  0
 10 13  1  0
 16 17  1  0
 17 18  1  0
 18 19  2  0
 18 20  1  0
M  END
>  <DRUGBANK_ID>  (1) 
DB15969

>  <COMMON_NAME>  (1) 
Carbazochrome sulfonic acid

>  <CAS_NUMBER>  (1) 
70063-04-6

>  <UNII>  (1) 
BMQ12812QR

$$$$
