
     RDKit          2D

 34 38  0  0  0  0  0  0  0  0999 V2000
    4.2468    5.7134    0.0000 C   0  0  0  0  0  0  0  0  0  0  0  0
   -2.8490    4.0634    0.0000 C   0  0  0  0  0  0  0  0  0  0  0  0
   -3.1530    3.0529    0.0000 C   0  0  0  0  0  0  0  0  0  0  0  0
   -3.9600    2.8814    0.0000 C   0  0  0  0  0  0  0  0  0  0  0  0
   -5.0219    1.9252    0.0000 C   0  0  0  0  0  0  0  0  0  0  0  0
   -5.2769    1.1406    0.0000 C   0  0  0  0  0  0  0  0  0  0  0  0
    0.6745    4.4759    0.0000 C   0  0  0  0  0  0  0  0  0  0  0  0
   -0.0400    4.8884    0.0000 C   0  0  0  0  0  0  0  0  0  0  0  0
    2.8179    3.2384    0.0000 C   0  0  0  0  0  0  0  0  0  0  0  0
    2.1034    4.4759    0.0000 C   0  0  0  0  0  0  0  0  0  0  0  0
    3.5323    3.6509    0.0000 C   0  0  0  0  0  0  0  0  0  0  0  0
    2.8179    4.8884    0.0000 C   0  0  0  0  0  0  0  0  0  0  0  0
   -2.8560    1.6552    0.0000 C   0  0  0  0  0  0  0  0  0  0  0  0
   -3.9179    0.6990    0.0000 C   0  0  0  0  0  0  0  0  0  0  0  0
   -0.0400    3.2384    0.0000 C   0  0  0  0  0  0  0  0  0  0  0  0
   -1.7940    2.6113    0.0000 C   0  0  0  0  0  0  0  0  0  0  0  0
    4.2468    4.8884    0.0000 C   0  0  0  0  0  0  0  0  0  0  0  0
   -2.0240    4.0634    0.0000 C   0  0  0  0  0  0  0  0  0  0  0  0
   -2.6010    2.4398    0.0000 C   0  0  0  0  0  0  0  0  0  0  0  0
   -4.2150    2.0968    0.0000 C   0  0  0  0  0  0  0  0  0  0  0  0
   -4.7248    0.5275    0.0000 C   0  0  0  0  0  0  0  0  0  0  0  0
   -3.6629    1.4837    0.0000 C   0  0  0  0  0  0  0  0  0  0  0  0
    2.1034    3.6509    0.0000 C   0  0  0  0  0  0  0  0  0  0  0  0
    0.6745    3.6509    0.0000 C   0  0  0  0  0  0  0  0  0  0  0  0
   -0.7545    4.4759    0.0000 C   0  0  0  0  0  0  0  0  0  0  0  0
   -0.7545    3.6509    0.0000 C   0  0  0  0  0  0  0  0  0  0  0  0
   -4.9798   -0.2571    0.0000 C   0  0  0  0  0  0  0  0  0  0  0  0
    4.9613    4.4759    0.0000 N   0  0  0  0  0  0  0  0  0  0  0  0
   -4.4277   -0.8702    0.0000 N   0  0  0  0  0  0  0  0  0  0  0  0
   -5.7867   -0.4286    0.0000 N   0  0  0  0  0  0  0  0  0  0  0  0
   -1.5391    4.7308    0.0000 N   0  0  0  0  0  0  0  0  0  0  0  0
    3.5323    4.4759    0.0000 N   0  0  0  0  0  0  0  0  0  0  0  0
   -1.5391    3.3960    0.0000 N   0  0  0  0  0  0  0  0  0  0  0  0
    1.3889    3.2384    0.0000 O   0  0  0  0  0  0  0  0  0  0  0  0
  4  3  2  0
  6  5  1  0
  8  7  2  0
 11  9  1  0
 12 10  1  0
 17  1  1  0
 18  2  1  0
 19  3  1  0
 19 13  2  0
 19 16  1  0
 20  4  1  0
 20  5  2  0
 21  6  2  0
 21 14  1  0
 22 13  1  0
 22 14  2  0
 22 20  1  0
 23  9  1  0
 23 10  1  0
 24  7  1  0
 24 15  2  0
 25  8  1  0
 26 15  1  0
 26 25  2  0
 27 21  1  0
 28 17  2  0
 29 27  2  0
 30 27  1  0
 31 18  2  0
 31 25  1  0
 32 11  1  0
 32 12  1  0
 32 17  1  0
 33 16  1  0
 33 18  1  0
 33 26  1  0
 34 23  1  0
 34 24  1  0
M  CHG  1  29   1
M  END
>  <DRUGBANK_ID>  (1) 
DB03373

>  <SECONDARY_ACCESSION_NUMBERS>  (1) 
EXPT00295

>  <COMMON_NAME>  (1) 
ZK-806711

$$$$
