
     RDKit          2D

 26 28  0  0  0  0  0  0  0  0999 V2000
   -1.2268    1.2034    0.0000 C   0  0  0  0  0  0  0  0  0  0  0  0
   -1.2280    0.3784    0.0000 C   0  0  0  0  0  0  0  0  0  0  0  0
   -0.5128   -0.0353    0.0000 C   0  0  0  0  0  0  0  0  0  0  0  0
   -0.5146    1.6127    0.0000 C   0  0  0  0  0  0  0  0  0  0  0  0
   -1.9467    1.6167    0.0000 N   0  0  0  0  0  0  0  0  0  0  0  0
    0.1948    1.2075    0.0000 C   0  0  0  0  0  0  0  0  0  0  0  0
    0.1999    0.3763    0.0000 C   0  0  0  0  0  0  0  0  0  0  0  0
    0.9216   -0.0331    0.0000 C   0  0  0  0  0  0  0  0  0  0  0  0
    1.6343    0.3876    0.0000 C   0  0  0  0  0  0  0  0  0  0  0  0
    1.6253    1.2219    0.0000 C   0  0  0  0  0  0  0  0  0  0  0  0
    0.9030    1.6277    0.0000 O   0  0  0  0  0  0  0  0  0  0  0  0
    0.9131   -0.9057    0.0000 O   0  0  0  0  0  0  0  0  0  0  0  0
   -1.9467   -0.0283    0.0000 O   0  0  0  0  0  0  0  0  0  0  0  0
   -1.9509   -0.8508    0.0000 C   0  0  0  0  0  0  0  0  0  0  0  0
   -2.8156    1.6252    0.0000 S   0  0  0  0  0  0  0  0  0  0  0  0
   -3.6888    1.6294    0.0000 C   0  0  0  0  0  0  0  0  0  0  0  0
   -2.8198    0.7520    0.0000 O   0  0  0  0  0  0  0  0  0  0  0  0
   -2.8198    2.4941    0.0000 O   0  0  0  0  0  0  0  0  0  0  0  0
    2.2461   -0.2266    0.0000 N   0  0  0  0  0  0  0  0  0  0  0  0
    2.9675    0.1951    0.0000 C   0  0  0  0  0  0  0  0  0  0  0  0
    3.6888   -0.2224    0.0000 O   0  0  0  0  0  0  0  0  0  0  0  0
   -2.6676   -1.2566    0.0000 C   0  0  0  0  0  0  0  0  0  0  0  0
   -2.6722   -2.0784    0.0000 C   0  0  0  0  0  0  0  0  0  0  0  0
   -1.9615   -2.4941    0.0000 C   0  0  0  0  0  0  0  0  0  0  0  0
   -1.2447   -2.0821    0.0000 C   0  0  0  0  0  0  0  0  0  0  0  0
   -1.2435   -1.2617    0.0000 C   0  0  0  0  0  0  0  0  0  0  0  0
  1  2  2  0
  1  5  1  0
  2  3  1  0
  2 13  1  0
  3  7  2  0
  4  1  1  0
  5 15  1  0
  6  7  1  0
  6  4  2  0
  7  8  1  0
  8  9  1  0
  8 12  2  0
  9 19  1  0
  9 10  2  0
 10 11  1  0
 11  6  1  0
 13 14  1  0
 14 22  2  0
 15 16  1  0
 15 17  2  0
 15 18  2  0
 19 20  1  0
 20 21  2  0
 22 23  1  0
 23 24  2  0
 24 25  1  0
 25 26  2  0
 26 14  1  0
M  END
>  <DRUGBANK_ID>  (1) 
DB12233

>  <COMMON_NAME>  (1) 
Iguratimod

>  <CAS_NUMBER>  (1) 
123663-49-0

>  <UNII>  (1) 
4IHY34Y2NV

>  <SYNONYMS>  (1) 
Iguratimod

$$$$
