
     RDKit          2D

 15 16  0  0  1  0  0  0  0  0999 V2000
    3.1844    2.0593    0.0000 C   0  0  0  0  0  0  0  0  0  0  0  0
    2.7719    1.3448    0.0000 C   0  0  0  0  0  0  0  0  0  0  0  0
    1.9469    1.3448    0.0000 C   0  0  0  0  0  0  0  0  0  0  0  0
    1.4620    0.6773    0.0000 C   0  0  0  0  0  0  0  0  0  0  0  0
    0.6773    0.9323    0.0000 C   0  0  0  0  0  0  0  0  0  0  0  0
    0.6773    1.7573    0.0000 C   0  0  0  0  0  0  0  0  0  0  0  0
    1.4620    2.0122    0.0000 C   0  0  0  0  0  0  0  0  0  0  0  0
   -0.1477    1.7573    0.0000 C   0  0  0  0  0  0  0  0  0  0  0  0
   -0.1477    0.9323    0.0000 C   0  0  0  0  0  0  0  0  0  0  0  0
   -0.9499    0.7397    0.0000 C   0  0  0  0  0  0  0  0  0  0  0  0
   -1.5178    1.3381    0.0000 C   0  0  0  0  0  0  0  0  0  0  0  0
   -2.3200    1.1455    0.0000 O   0  0  0  0  0  0  0  0  0  0  0  0
   -1.2834    2.1291    0.0000 O   0  0  0  0  0  0  0  0  0  0  0  0
   -0.3403    0.1301    0.0000 C   0  0  0  0  0  0  0  0  0  0  0  0
    0.2582   -0.4378    0.0000 N   0  0  0  0  0  0  0  0  0  0  0  0
  1  2  1  0
  2  3  1  0
  3  4  2  0
  3  7  1  0
  5  4  1  1
  5  6  1  0
  5  9  1  0
  6  7  1  1
  6  8  1  0
  8  9  1  0
  9 10  1  1
  9 14  1  0
 10 11  1  0
 11 12  2  0
 11 13  1  0
 14 15  1  0
M  END
>  <DRUGBANK_ID>  (1) 
DB11825

>  <COMMON_NAME>  (1) 
Mirogabalin

>  <CAS_NUMBER>  (1) 
1138245-13-2

>  <UNII>  (1) 
S7LK2KDM5U

>  <SYNONYMS>  (1) 
Mirogabalin

$$$$
