
     RDKit          2D

 39 45  0  0  0  0  0  0  0  0999 V2000
    1.7120   -1.5762    0.0000 C   0  0  0  0  0  0  0  0  0  0  0  0
    2.2805   -0.9784    0.0000 N   0  0  0  0  0  0  0  0  0  0  0  0
    2.0470   -0.1871    0.0000 C   0  0  0  0  0  0  0  0  0  0  0  0
    2.6155    0.4108    0.0000 C   0  0  0  0  0  0  0  0  0  0  0  0
    3.4175    0.2173    0.0000 C   0  0  0  0  0  0  0  0  0  0  0  0
    3.2680    1.0287    0.0000 C   0  0  0  0  0  0  0  0  0  0  0  0
    3.9934    1.4216    0.0000 O   0  0  0  0  0  0  0  0  0  0  0  0
    4.5913    0.8531    0.0000 C   0  0  0  0  0  0  0  0  0  0  0  0
    5.4138    0.9170    0.0000 C   0  0  0  0  0  0  0  0  0  0  0  0
    5.8804    0.2366    0.0000 C   0  0  0  0  0  0  0  0  0  0  0  0
    5.5245   -0.5077    0.0000 C   0  0  0  0  0  0  0  0  0  0  0  0
    4.7019   -0.5716    0.0000 C   0  0  0  0  0  0  0  0  0  0  0  0
    4.2353    0.1088    0.0000 C   0  0  0  0  0  0  0  0  0  0  0  0
    6.1223   -1.0762    0.0000 N   0  0  0  0  0  0  0  0  0  0  0  0
    6.8477   -0.6833    0.0000 C   0  0  0  0  0  0  0  0  0  0  0  0
    6.6982    0.1281    0.0000 C   0  0  0  0  0  0  0  0  0  0  0  0
    6.0138   -1.8940    0.0000 C   0  0  0  0  0  0  0  0  0  0  0  0
    6.6678   -2.3969    0.0000 O   0  0  0  0  0  0  0  0  0  0  0  0
    5.2513   -2.2090    0.0000 C   0  0  0  0  0  0  0  0  0  0  0  0
    5.1427   -3.0268    0.0000 C   0  0  0  0  0  0  0  0  0  0  0  0
    4.3802   -3.3417    0.0000 C   0  0  0  0  0  0  0  0  0  0  0  0
    3.7262   -2.8388    0.0000 C   0  0  0  0  0  0  0  0  0  0  0  0
    3.8347   -2.0210    0.0000 C   0  0  0  0  0  0  0  0  0  0  0  0
    4.5973   -1.7061    0.0000 C   0  0  0  0  0  0  0  0  0  0  0  0
    2.9637   -3.1537    0.0000 C   0  0  0  0  0  0  0  0  0  0  0  0
    2.8552   -3.9716    0.0000 C   0  0  0  0  0  0  0  0  0  0  0  0
    3.5091   -4.4745    0.0000 C   0  0  0  0  0  0  0  0  0  0  0  0
    2.0926   -4.2865    0.0000 C   0  0  0  0  0  0  0  0  0  0  0  0
    1.4386   -3.7836    0.0000 C   0  0  0  0  0  0  0  0  0  0  0  0
    1.5472   -2.9658    0.0000 C   0  0  0  0  0  0  0  0  0  0  0  0
    2.3097   -2.6508    0.0000 C   0  0  0  0  0  0  0  0  0  0  0  0
    0.6761   -4.0985    0.0000 C   0  0  0  0  0  0  0  0  0  0  0  0
    0.4827   -4.9005    0.0000 N   0  0  0  0  0  0  0  0  0  0  0  0
   -0.3398   -4.9644    0.0000 O   0  0  0  0  0  0  0  0  0  0  0  0
   -0.6548   -4.2019    0.0000 C   0  0  0  0  0  0  0  0  0  0  0  0
   -1.4568   -4.0085    0.0000 C   0  0  0  0  0  0  0  0  0  0  0  0
   -0.0269   -3.6667    0.0000 N   0  0  0  0  0  0  0  0  0  0  0  0
    3.6510   -0.5739    0.0000 C   0  0  0  0  0  0  0  0  0  0  0  0
    3.0825   -1.1718    0.0000 C   0  0  0  0  0  0  0  0  0  0  0  0
  1  2  1  0
  2  3  1  0
  2 39  1  0
  3  4  1  0
  4  5  1  0
  5  6  1  0
  5 13  1  0
  5 38  1  0
  6  7  1  0
  7  8  1  0
  8  9  1  0
  8 13  2  0
  9 10  2  0
 10 11  1  0
 10 16  1  0
 11 12  2  0
 11 14  1  0
 12 13  1  0
 14 15  1  0
 14 17  1  0
 15 16  1  0
 17 18  2  0
 17 19  1  0
 19 20  2  0
 19 24  1  0
 20 21  1  0
 21 22  2  0
 22 23  1  0
 22 25  1  0
 23 24  2  0
 25 26  2  0
 25 31  1  0
 26 27  1  0
 26 28  1  0
 28 29  2  0
 29 30  1  0
 29 32  1  0
 30 31  2  0
 32 33  2  0
 32 37  1  0
 33 34  1  0
 34 35  1  0
 35 36  1  0
 35 37  2  0
 38 39  1  0
M  END
>  <DRUGBANK_ID>  (1) 
DB17052

>  <COMMON_NAME>  (1) 
SB 224289

>  <CAS_NUMBER>  (1) 
180083-23-2

>  <UNII>  (1) 
F95C648W4N

>  <SYNONYMS>  (1) 
(1'-methyl-6,7-dihydro-5h-spiro(furo(2,3-f)indole-3,4'-piperidin)-5-yl)(2'-methyl-4'-(5-methyl-1,2,4-oxadiazol-3-yl)biphenyl-4-yl)methanone; (2'-methyl-4'-(5-methyl-1,2,4-oxadiazol-3-yl)-(1,1'-biphenyl)-4-yl)(1'-methyl-6,7-dihydrospiro(furo(2,3-f)indole-3,4'-piperidin)-5(2h)-yl)methanone; (4-(2-methyl-4-(5-methyl-1,2,4-oxadiazol-3-yl)phenyl)phenyl)-(1'-methylspiro(6,7-dihydro-2h-furo(2,3-f)indole-3,4'-piperidine)-5-yl)methanone; 6,7-dihydro-1'-methyl-5-((2'-methyl-4'-(5-methyl-1,2,4-oxadiazol-3-yl)-1,1'-biphenyl-4-yl)carbonyl)spiro(2h-furo(2,3-f)indole-3(5h),4'-piperidine); Methanone, (2'-methyl-4'-(5-methyl-1,2,4-oxadiazol-3-yl)(1,1'-biphenyl)-4-yl)(2,5,6,7-tetrahydro-1'-methylspiro(3h-furo(2,3-f)indole-3,4'-piperidin)-5-yl)-; Spiro(2h-furo(2,3-f)indole-3(5h),4'-piperidine), 6,7-dihydro-1'-methyl-5-((2'-methyl-4'-(5-methyl-1,2,4-oxadiazol-3-yl)(1,1'-biphenyl)-4-yl)carbonyl)-

$$$$
