
     RDKit          2D

 31 32  0  0  0  0  0  0  0  0999 V2000
    3.6190   -1.0417    0.0000 C   0  0  0  0  0  0  0  0  0  0  0  0
    3.1341   -0.3743    0.0000 C   0  0  0  0  0  0  0  0  0  0  0  0
    2.3495   -0.6292    0.0000 O   0  0  0  0  0  0  0  0  0  0  0  0
    2.3495   -1.4542    0.0000 C   0  0  0  0  0  0  0  0  0  0  0  0
    3.1341   -1.7091    0.0000 C   0  0  0  0  0  0  0  0  0  0  0  0
    3.3891    0.4103    0.0000 N   0  0  0  0  0  0  0  0  0  0  0  0
    4.1960    0.5818    0.0000 C   0  0  0  0  0  0  0  0  0  0  0  0
    2.8370    1.0234    0.0000 C   0  0  0  0  0  0  0  0  0  0  0  0
    4.4440   -1.0417    0.0000 O   0  0  0  0  0  0  0  0  0  0  0  0
    4.4510    1.3664    0.0000 N   0  0  0  0  0  0  0  0  0  0  0  0
    4.7481   -0.0312    0.0000 O   0  0  0  0  0  0  0  0  0  0  0  0
    3.0920    1.8080    0.0000 C   0  0  0  0  0  0  0  0  0  0  0  0
    3.3891   -2.4938    0.0000 O   0  0  0  0  0  0  0  0  0  0  0  0
    3.8989    1.9795    0.0000 C   0  0  0  0  0  0  0  0  0  0  0  0
    4.1539    2.7641    0.0000 N   0  0  0  0  0  0  0  0  0  0  0  0
    1.6821   -1.9391    0.0000 C   0  0  0  0  0  0  0  0  0  0  0  0
    0.9676   -1.5266    0.0000 O   0  0  0  0  0  0  0  0  0  0  0  0
   -0.4613   -1.5266    0.0000 O   0  0  0  0  0  0  0  0  0  0  0  0
    0.2531   -2.7641    0.0000 O   0  0  0  0  0  0  0  0  0  0  0  0
   -1.1757   -2.7641    0.0000 O   0  0  0  0  0  0  0  0  0  0  0  0
   -1.1757   -1.9391    0.0000 P   0  0  0  0  0  0  0  0  0  0  0  0
   -1.1757   -1.1141    0.0000 O   0  0  0  0  0  0  0  0  0  0  0  0
    0.2531   -1.9391    0.0000 P   0  0  0  0  0  0  0  0  0  0  0  0
    0.2531   -1.1141    0.0000 O   0  0  0  0  0  0  0  0  0  0  0  0
   -1.8902   -1.5266    0.0000 O   0  0  0  0  0  0  0  0  0  0  0  0
   -2.6047   -1.9391    0.0000 C   0  0  0  0  0  0  0  0  0  0  0  0
   -3.3191   -1.5266    0.0000 C   0  0  0  0  0  0  0  0  0  0  0  0
   -4.0336   -2.7641    0.0000 C   0  0  0  0  0  0  0  0  0  0  0  0
   -4.7481   -2.3516    0.0000 C   0  0  0  0  0  0  0  0  0  0  0  0
   -4.0336   -1.9391    0.0000 N   0  0  0  0  0  0  0  0  0  0  0  0
   -4.7481   -1.5266    0.0000 C   0  0  0  0  0  0  0  0  0  0  0  0
  1  9  1  6
  1  5  1  0
  2  1  1  0
  2  6  1  1
  2  3  1  0
  3  4  1  0
  4 16  1  1
  4  5  1  0
  5 13  1  6
  6  7  1  0
  6  8  1  0
  7 10  1  0
  7 11  2  0
  8 12  2  0
 10 14  2  0
 12 14  1  0
 14 15  1  0
 16 17  1  0
 17 23  1  0
 18 21  1  0
 21 20  2  0
 21 25  1  0
 21 22  1  0
 23 18  1  0
 23 19  2  0
 23 24  1  0
 25 26  1  0
 26 27  1  0
 27 30  1  0
 30 28  1  0
 30 29  1  0
 30 31  1  0
M  CHG  2  22  -1  30   1
M  END
>  <DRUGBANK_ID>  (1) 
DB12153

>  <SECONDARY_ACCESSION_NUMBERS>  (1) 
EXPT00867; DB04290

>  <COMMON_NAME>  (1) 
Citicoline

>  <CAS_NUMBER>  (1) 
987-78-0

>  <UNII>  (1) 
536BQ2JVC7

>  <SYNONYMS>  (1) 
CDP-choline; CDP-colina; citicolina; Citicoline; citidin difosfato de colina; Cytidine 5'-(choline diphosphate); Cytidine 5'-(cholinyl pyrophosphate); Cytidine 5'-diphosphocholine; Cytidine 5'-diphosphoric choline; Cytidine-5'-diphosphocholine

$$$$
