
     RDKit          2D

  8  7  0  0  0  0  0  0  0  0999 V2000
    0.7145    0.9281    0.0000 O   0  0  0  0  0  0  0  0  0  0  0  0
    0.7145    0.1031    0.0000 C   0  0  0  0  0  0  0  0  0  0  0  0
    1.4289   -0.3094    0.0000 O   0  0  0  0  0  0  0  0  0  0  0  0
    0.0000   -0.3094    0.0000 C   0  0  0  0  0  0  0  0  0  0  0  0
    0.0000   -1.1344    0.0000 N   0  0  0  0  0  0  0  0  0  0  0  0
   -0.7145    0.1031    0.0000 C   0  0  0  0  0  0  0  0  0  0  0  0
   -0.7145    0.9281    0.0000 C   0  0  0  0  0  0  0  0  0  0  0  0
   -1.4289   -0.3094    0.0000 C   0  0  0  0  0  0  0  0  0  0  0  0
  2  1  2  0
  3  2  1  0
  4  2  1  0
  4  5  1  1
  6  4  1  0
  7  6  1  0
  8  6  1  0
M  END
>  <DRUGBANK_ID>  (1) 
DB00161

>  <SECONDARY_ACCESSION_NUMBERS>  (1) 
NUTR00060

>  <COMMON_NAME>  (1) 
Valine

>  <CAS_NUMBER>  (1) 
72-18-4

>  <UNII>  (1) 
HG18B9YRS7

>  <SYNONYMS>  (1) 
(2S)-2-Amino-3-methylbutanoic acid; (S)-Valine; 2-Amino-3-methylbutyric acid; L-(+)-alpha-Aminoisovaleric acid; L-alpha-Amino-beta-methylbutyric acid; L-valin; L-valine; Val; Valine

$$$$
