
     RDKit          2D

  9  8  0  0  1  0  0  0  0  0999 V2000
    1.7605    1.0164    0.0000 C   0  0  0  0  0  0  0  0  0  0  0  0
    2.4750    1.4289    0.0000 Se  0  0  0  0  0  2  0  0  0  0  0  0
    3.1895    1.8414    0.0000 C   0  0  0  0  0  0  0  0  0  0  0  0
    3.9039    1.4289    0.0000 C   0  0  0  0  0  0  0  0  0  0  0  0
    4.6184    1.8414    0.0000 C   0  0  0  0  0  0  0  0  0  0  0  0
    5.3329    1.4289    0.0000 C   0  0  0  0  0  0  0  0  0  0  0  0
    6.0474    1.8414    0.0000 O   0  0  0  0  0  0  0  0  0  0  0  0
    5.3329    0.6039    0.0000 O   0  0  0  0  0  0  0  0  0  0  0  0
    4.6184    2.6664    0.0000 N   0  0  0  0  0  0  0  0  0  0  0  0
  1  2  1  0
  2  3  1  0
  3  4  1  0
  4  5  1  0
  5  6  1  0
  5  9  1  6
  6  7  2  0
  6  8  1  0
M  ISO  1   2  75
M  END
>  <DRUGBANK_ID>  (1) 
DB09400

>  <COMMON_NAME>  (1) 
Selenomethionine Se-75

>  <CAS_NUMBER>  (1) 
1187-56-0

>  <UNII>  (1) 
P6708E7555

>  <SYNONYMS>  (1) 
Selenomethionine (75 Se); Selenomethionine (75Se); Selenomethionine Se 75; Selenometionina (75 Se)

$$$$
