
     RDKit          2D

 32 33  0  0  0  0  0  0  0  0999 V2000
    4.2866    1.8562    0.0000 C   0  0  0  0  0  0  0  0  0  0  0  0
    3.5721    1.4437    0.0000 C   0  0  0  0  0  0  0  0  0  0  0  0
    3.5721    0.6187    0.0000 C   0  0  0  0  0  0  0  0  0  0  0  0
    4.2866    0.2062    0.0000 C   0  0  0  0  0  0  0  0  0  0  0  0
    5.0011    0.6187    0.0000 C   0  0  0  0  0  0  0  0  0  0  0  0
    5.0011    1.4437    0.0000 C   0  0  0  0  0  0  0  0  0  0  0  0
    0.0000    0.2062    0.0000 C   0  0  0  0  0  0  0  0  0  0  0  0
   -0.7144    0.6186    0.0000 C   0  0  0  0  0  0  0  0  0  0  0  0
   -1.4289   -0.6187    0.0000 C   0  0  0  0  0  0  0  0  0  0  0  0
   -1.4289    0.2061    0.0000 C   0  0  0  0  0  0  0  0  0  0  0  0
   -0.7144   -1.0312    0.0000 C   0  0  0  0  0  0  0  0  0  0  0  0
    0.0000   -0.6187    0.0000 C   0  0  0  0  0  0  0  0  0  0  0  0
    2.8577    1.8562    0.0000 F   0  0  0  0  0  0  0  0  0  0  0  0
    4.2866   -0.6186    0.0000 F   0  0  0  0  0  0  0  0  0  0  0  0
    2.8578    0.2062    0.0000 C   0  0  0  0  0  0  0  0  0  0  0  0
    2.1433    0.6187    0.0000 N   0  0  0  0  0  0  0  0  0  0  0  0
    1.4288    0.2062    0.0000 C   0  0  0  0  0  0  0  0  0  0  0  0
    0.7143    0.6187    0.0000 N   0  0  0  0  0  0  0  0  0  0  0  0
   -0.7144   -1.8562    0.0000 Cl  0  0  0  0  0  0  0  0  0  0  0  0
   -2.1433   -1.0312    0.0000 O   0  0  0  0  0  0  0  0  0  0  0  0
   -3.5722   -1.0313    0.0000 C   0  0  0  0  0  0  0  0  0  0  0  0
   -2.8578    0.2061    0.0000 F   0  0  0  0  0  0  0  0  0  0  0  0
   -3.5722   -1.8562    0.0000 F   0  0  0  0  0  0  0  0  0  0  0  0
    2.8578   -0.6186    0.0000 O   0  0  0  0  0  0  0  0  0  0  0  0
    1.4288   -0.6187    0.0000 O   0  0  0  0  0  0  0  0  0  0  0  0
   -0.7144    1.4436    0.0000 Cl  0  0  0  0  0  0  0  0  0  0  0  0
   -4.2867    0.2061    0.0000 F   0  0  0  0  0  0  0  0  0  0  0  0
   -5.0011   -1.0313    0.0000 F   0  0  0  0  0  0  0  0  0  0  0  0
   -4.2867   -0.6188    0.0000 C   0  0  0  0  0  0  0  0  0  0  0  0
   -5.0011   -0.2063    0.0000 F   0  0  0  0  0  0  0  0  0  0  0  0
   -2.8577   -0.6188    0.0000 C   0  0  0  0  0  0  0  0  0  0  0  0
   -2.1433   -0.2063    0.0000 F   0  0  0  0  0  0  0  0  0  0  0  0
  1  2  2  0
  1  6  1  0
  2  3  1  0
  3  4  2  0
  4  5  1  0
  5  6  2  0
  7 18  1  0
  7  8  2  0
  8 10  1  0
 10  9  2  0
 11  9  1  0
 11 12  2  0
 12  7  1  0
 13  2  1  0
 14  4  1  0
 15  3  1  0
 16 15  1  0
 17 16  1  0
 18 17  1  0
 19 11  1  0
 20  9  1  0
 21 31  1  0
 22 31  1  0
 23 21  1  0
 24 15  2  0
 25 17  2  0
 26  8  1  0
 27 29  1  0
 28 29  1  0
 29 21  1  0
 29 30  1  0
 31 20  1  0
 31 32  1  0
M  END
>  <DRUGBANK_ID>  (1) 
DB11424

>  <COMMON_NAME>  (1) 
Lufenuron

>  <CAS_NUMBER>  (1) 
103055-07-8

>  <UNII>  (1) 
1R754M4918

>  <SYNONYMS>  (1) 
1-(2,5-dichloro-4-(1,1,2,3,3,3-hexafluoropropoxy)phenyl)-3-(2,6-difluorobenzoyl)urea; Fluphenacur; Lufenuron; Lufenurone; Lufenuronum; N-({[2,5-dichloro-4-(1,1,2,3,3,3-hexafluoropropoxy)phenyl]amino}carbonyl)-2,6-difluorobenzamide

$$$$
