
     RDKit          2D

 12 11  0  0  1  0  0  0  0  0999 V2000
    2.0625   -0.7145    0.0000 C   0  0  0  0  0  0  0  0  0  0  0  0
    2.4750   -1.4289    0.0000 C   0  0  0  0  0  0  0  0  0  0  0  0
    1.2375   -0.7145    0.0000 C   0  0  0  0  0  0  0  0  0  0  0  0
    2.4750   -0.0000    0.0000 N   0  0  0  0  0  0  0  0  0  0  0  0
    3.3000   -1.4289    0.0000 O   0  0  0  0  0  0  0  0  0  0  0  0
    2.0625   -2.1434    0.0000 O   0  0  0  0  0  0  0  0  0  0  0  0
    0.8250   -1.4289    0.0000 O   0  0  0  0  0  0  0  0  0  0  0  0
   -0.8250    0.0000    0.0000 O   0  0  0  0  0  0  0  0  0  0  0  0
    0.0000    0.8250    0.0000 O   0  0  0  0  0  0  0  0  0  0  0  0
    0.0000   -0.8250    0.0000 O   0  0  0  0  0  0  0  0  0  0  0  0
    0.8250    0.0000    0.0000 O   0  0  0  0  0  0  0  0  0  0  0  0
    0.0000    0.0000    0.0000 P   0  0  0  0  0  0  0  0  0  0  0  0
  1  4  1  6
  2  1  1  0
  3  1  1  0
  3  7  1  1
  5  2  2  0
  6  2  1  0
 11  3  1  0
 12  8  1  0
 12  9  1  0
 12 10  2  0
 12 11  1  0
M  END
>  <DRUGBANK_ID>  (1) 
DB03821

>  <SECONDARY_ACCESSION_NUMBERS>  (1) 
EXPT01431

>  <COMMON_NAME>  (1) 
2-Amino-3-Hydroxy-3-Phosphonooxy-Propionic Acid

$$$$
