675
     RDKit          2D

 22 24  0  0  0  0  0  0  0  0999 V2000
   -3.0662   -2.3980    0.0000 N   0  0  0  0  0  0  0  0  0  0  0  0
   -3.0662   -1.5730    0.0000 C   0  0  0  0  0  0  0  0  0  0  0  0
   -3.7807   -1.1605    0.0000 N   0  0  0  0  0  0  0  0  0  0  0  0
   -2.3518   -1.1605    0.0000 C   0  0  0  0  0  0  0  0  0  0  0  0
   -2.3518   -0.3355    0.0000 C   0  0  0  0  0  0  0  0  0  0  0  0
   -1.6373    0.0770    0.0000 C   0  0  0  0  0  0  0  0  0  0  0  0
   -0.9228   -0.3355    0.0000 C   0  0  0  0  0  0  0  0  0  0  0  0
   -0.2083    0.0770    0.0000 C   0  0  0  0  0  0  0  0  0  0  0  0
    0.5061   -0.3355    0.0000 C   0  0  0  0  0  0  0  0  0  0  0  0
    0.5061   -1.1605    0.0000 C   0  0  0  0  0  0  0  0  0  0  0  0
   -0.2083   -1.5730    0.0000 C   0  0  0  0  0  0  0  0  0  0  0  0
   -0.9228   -1.1605    0.0000 C   0  0  0  0  0  0  0  0  0  0  0  0
   -1.6373   -1.5730    0.0000 C   0  0  0  0  0  0  0  0  0  0  0  0
    1.2206    0.0770    0.0000 C   0  0  0  0  0  0  0  0  0  0  0  0
    1.9351   -0.3355    0.0000 O   0  0  0  0  0  0  0  0  0  0  0  0
    1.2206    0.9020    0.0000 N   0  0  0  0  0  0  0  0  0  0  0  0
    1.9351    1.3145    0.0000 C   0  0  0  0  0  0  0  0  0  0  0  0
    1.9351    2.1395    0.0000 C   0  0  0  0  0  0  0  0  0  0  0  0
    2.6495    2.5520    0.0000 C   0  0  0  0  0  0  0  0  0  0  0  0
    3.3640    2.1395    0.0000 C   0  0  0  0  0  0  0  0  0  0  0  0
    3.3640    1.3145    0.0000 C   0  0  0  0  0  0  0  0  0  0  0  0
    2.6495    0.9020    0.0000 C   0  0  0  0  0  0  0  0  0  0  0  0
  1  2  2  0
  2  3  1  0
  2  4  1  0
  4  5  2  0
  4 13  1  0
  5  6  1  0
  6  7  2  0
  7  8  1  0
  7 12  1  0
  8  9  2  0
  9 10  1  0
  9 14  1  0
 10 11  2  0
 11 12  1  0
 12 13  2  0
 14 15  2  0
 14 16  1  0
 16 17  1  0
 17 18  2  0
 17 22  1  0
 18 19  1  0
 19 20  2  0
 20 21  1  0
 21 22  2  0
M  END
>  <DRUGBANK_ID>  (1) 
DB01977

>  <SECONDARY_ACCESSION_NUMBERS>  (1) 
EXPT00275

>  <COMMON_NAME>  (1) 
6-(N-Phenylcarbamyl)-2-Naphthalenecarboxamidine

$$$$
