
     RDKit          2D

 17 17  0  0  0  0  0  0  0  0999 V2000
   -1.1129    0.4125    0.0000 C   0  0  0  0  0  0  0  0  0  0  0  0
   -1.1129   -1.2375    0.0000 C   0  0  0  0  0  0  0  0  0  0  0  0
   -0.3984   -0.8250    0.0000 C   0  0  0  0  0  0  0  0  0  0  0  0
   -1.8273   -0.8250    0.0000 C   0  0  0  0  0  0  0  0  0  0  0  0
   -2.5418   -1.2375    0.0000 O   0  0  0  0  0  0  0  0  0  0  0  0
   -1.8273    0.0000    0.0000 C   0  0  0  0  0  0  0  0  0  0  0  0
   -2.5418    0.4125    0.0000 C   0  0  0  0  0  0  0  0  0  0  0  0
   -3.2563    0.0000    0.0000 O   0  0  0  0  0  0  0  0  0  0  0  0
   -0.3984    0.0000    0.0000 C   0  0  0  0  0  0  0  0  0  0  0  0
    1.0305    0.0000    0.0000 C   0  0  0  0  0  0  0  0  0  0  0  0
    1.7449    0.4125    0.0000 N   0  0  0  0  0  0  0  0  0  0  0  0
    3.0428    0.5833    0.0000 C   0  0  0  0  0  0  0  0  0  0  0  0
    2.6729   -0.7968    0.0000 C   0  0  0  0  0  0  0  0  0  0  0  0
    2.4594    0.0000    0.0000 C   0  0  0  0  0  0  0  0  0  0  0  0
    3.2563   -0.2135    0.0000 C   0  0  0  0  0  0  0  0  0  0  0  0
    0.3160    0.4125    0.0000 C   0  0  0  0  0  0  0  0  0  0  0  0
    0.3160    1.2375    0.0000 O   0  0  0  0  0  0  0  0  0  0  0  0
  1  6  2  0
  1  9  1  0
  2  3  1  0
  3  9  2  0
  4  2  2  0
  4  5  1  0
  6  4  1  0
  6  7  1  0
  7  8  1  0
  9 16  1  0
 10 11  1  0
 11 14  1  0
 14 12  1  0
 14 13  1  0
 14 15  1  0
 16 10  1  0
 16 17  1  1
M  END
>  <DRUGBANK_ID>  (1) 
DB13139

>  <SECONDARY_ACCESSION_NUMBERS>  (1) 
DB05761

>  <COMMON_NAME>  (1) 
Levosalbutamol

>  <CAS_NUMBER>  (1) 
34391-04-3

>  <UNII>  (1) 
EDN2NBH5SS

>  <SYNONYMS>  (1) 
(-)-Albuterol; (-)-Salbutamol; (R)-salbutamol; Levalbuterol; Levosalbutamol; R-salbutamol

$$$$
