
     RDKit          2D

 30 30  0  0  0  0  0  0  0  0999 V2000
   -1.7862   -5.1563    0.0000 O   0  0  0  0  0  0  0  0  0  0  0  0
   -1.7862   -2.6813    0.0000 O   0  0  0  0  0  0  0  0  0  0  0  0
   -3.2152   -3.5063    0.0000 O   0  0  0  0  0  0  0  0  0  0  0  0
   -3.2152   -5.9813    0.0000 O   0  0  0  0  0  0  0  0  0  0  0  0
    0.3572   -4.7438    0.0000 O   0  0  0  0  0  0  0  0  0  0  0  0
   -0.3572   -2.6813    0.0000 O   0  0  0  0  0  0  0  0  0  0  0  0
    1.7862   -3.9188    0.0000 O   0  0  0  0  0  0  0  0  0  0  0  0
    1.0717   -3.5063    0.0000 N   0  0  0  0  0  0  0  0  0  0  0  0
   -1.0717   -3.9188    0.0000 C   0  0  0  0  0  0  0  0  0  0  0  0
   -1.7862   -3.5063    0.0000 C   0  0  0  0  0  0  0  0  0  0  0  0
   -2.5006   -3.9188    0.0000 C   0  0  0  0  0  0  0  0  0  0  0  0
   -2.5006   -4.7438    0.0000 C   0  0  0  0  0  0  0  0  0  0  0  0
   -1.0717   -4.7438    0.0000 C   0  0  0  0  0  0  0  0  0  0  0  0
   -0.3572   -3.5063    0.0000 C   0  0  0  0  0  0  0  0  0  0  0  0
   -3.2152   -5.1563    0.0000 C   0  0  0  0  0  0  0  0  0  0  0  0
    0.3572   -3.9188    0.0000 C   0  0  0  0  0  0  0  0  0  0  0  0
   -1.0717   -2.2687    0.0000 C   0  0  0  0  0  0  0  0  0  0  0  0
   -1.0717   -1.4437    0.0000 C   0  0  0  0  0  0  0  0  0  0  0  0
   -0.3572   -1.0312    0.0000 C   0  0  0  0  0  0  0  0  0  0  0  0
   -0.3572   -0.2062    0.0000 C   0  0  0  0  0  0  0  0  0  0  0  0
    0.3572    0.2062    0.0000 C   0  0  0  0  0  0  0  0  0  0  0  0
    0.3572    1.0312    0.0000 C   0  0  0  0  0  0  0  0  0  0  0  0
    1.0717    1.4437    0.0000 C   0  0  0  0  0  0  0  0  0  0  0  0
    1.0717    2.2687    0.0000 C   0  0  0  0  0  0  0  0  0  0  0  0
    1.7862    2.6813    0.0000 C   0  0  0  0  0  0  0  0  0  0  0  0
    1.7862    3.5063    0.0000 C   0  0  0  0  0  0  0  0  0  0  0  0
    2.5006    3.9188    0.0000 C   0  0  0  0  0  0  0  0  0  0  0  0
    2.5006    4.7438    0.0000 C   0  0  0  0  0  0  0  0  0  0  0  0
    3.2152    5.1563    0.0000 C   0  0  0  0  0  0  0  0  0  0  0  0
    3.2152    5.9813    0.0000 C   0  0  0  0  0  0  0  0  0  0  0  0
  1 12  1  0
  1 13  1  0
  2 17  1  0
  4 15  1  0
  5 16  2  0
  6 17  2  0
  7  8  1  0
  8 16  1  0
  9 10  1  0
  9 13  1  0
  9 14  1  1
 10  2  1  6
 10 11  1  0
 11  3  1  1
 11 12  1  0
 12 15  1  6
 14 16  1  0
 17 18  1  0
 18 19  1  0
 19 20  1  0
 20 21  1  0
 21 22  1  0
 22 23  1  0
 23 24  1  0
 24 25  1  0
 25 26  1  0
 26 27  1  0
 27 28  1  0
 28 29  1  0
 29 30  1  0
M  END
>  <DRUGBANK_ID>  (1) 
DB01991

>  <SECONDARY_ACCESSION_NUMBERS>  (1) 
EXPT03132

>  <COMMON_NAME>  (1) 
TU-514

$$$$
