
     RDKit          2D

 12 12  0  0  0  0  0  0  0  0999 V2000
   -1.4297    0.0000    0.0000 C   0  0  0  0  0  0  0  0  0  0  0  0
   -1.4297    0.8250    0.0000 C   0  0  0  0  0  0  0  0  0  0  0  0
   -0.7151   -0.4124    0.0000 C   0  0  0  0  0  0  0  0  0  0  0  0
   -2.1442   -0.4124    0.0000 O   0  0  0  0  0  0  0  0  0  0  0  0
   -0.7151    1.2376    0.0000 C   0  0  0  0  0  0  0  0  0  0  0  0
   -2.1442    1.2376    0.0000 O   0  0  0  0  0  0  0  0  0  0  0  0
   -0.0007    0.0000    0.0000 C   0  0  0  0  0  0  0  0  0  0  0  0
   -2.1442   -1.2376    0.0000 C   0  0  0  0  0  0  0  0  0  0  0  0
   -0.0007    0.8250    0.0000 C   0  0  0  0  0  0  0  0  0  0  0  0
    0.7138   -0.4124    0.0000 C   0  0  0  0  0  0  0  0  0  0  0  0
    1.4290    0.0000    0.0000 C   0  0  0  0  0  0  0  0  0  0  0  0
    2.1443   -0.4124    0.0000 C   0  0  0  0  0  0  0  0  0  0  0  0
  1  2  2  0
  1  3  1  0
  1  4  1  0
  2  5  1  0
  2  6  1  0
  3  7  2  0
  4  8  1  0
  5  9  2  0
  7  9  1  0
  7 10  1  0
 10 11  2  3
 11 12  1  0
M  END
>  <DRUGBANK_ID>  (1) 
DB14188

>  <COMMON_NAME>  (1) 
Isoeugenol

>  <CAS_NUMBER>  (1) 
97-54-1

>  <UNII>  (1) 
5M0MWY797U

>  <SYNONYMS>  (1) 
1-Hydroxy-2-methoxy-4-propen-1-ylbenzene; 2-methoxy-4-(prop-1-en-1-yl)phenol; 2-Methoxy-4-propenylphenol; 3-Methoxy-4-hydroxypropenylbenzene; 4-Propenylguaiacol; Propenylguaiacol

$$$$
