
     RDKit          2D

 17 17  0  0  0  0  0  0  0  0999 V2000
   -0.3562    0.4125    0.0000 S   0  0  0  0  0  0  0  0  0  0  0  0
    0.3583    0.0010    0.0000 N   0  0  0  0  0  0  0  0  0  0  0  0
    0.0553    1.1291    0.0000 O   0  0  0  0  0  0  0  0  0  0  0  0
   -0.7697    1.1291    0.0000 O   0  0  0  0  0  0  0  0  0  0  0  0
   -1.0708    0.0010    0.0000 C   0  0  0  0  0  0  0  0  0  0  0  0
    1.0728    0.4125    0.0000 C   0  0  0  0  0  0  0  0  0  0  0  0
   -1.7852    0.4125    0.0000 C   0  0  0  0  0  0  0  0  0  0  0  0
   -1.0708   -0.8240    0.0000 C   0  0  0  0  0  0  0  0  0  0  0  0
    1.7873    0.0010    0.0000 C   0  0  0  0  0  0  0  0  0  0  0  0
    1.0728    1.2376    0.0000 O   0  0  0  0  0  0  0  0  0  0  0  0
   -2.5019    0.0010    0.0000 C   0  0  0  0  0  0  0  0  0  0  0  0
   -1.7852   -1.2376    0.0000 C   0  0  0  0  0  0  0  0  0  0  0  0
    2.5019    0.4125    0.0000 C   0  0  0  0  0  0  0  0  0  0  0  0
   -2.5019   -0.8240    0.0000 C   0  0  0  0  0  0  0  0  0  0  0  0
    3.2163    0.0010    0.0000 C   0  0  0  0  0  0  0  0  0  0  0  0
    2.5019    1.2376    0.0000 C   0  0  0  0  0  0  0  0  0  0  0  0
   -3.2163   -1.2376    0.0000 N   0  0  0  0  0  0  0  0  0  0  0  0
  1  2  1  0
  1  3  2  0
  1  4  2  0
  1  5  1  0
  2  6  1  0
  5  7  2  0
  5  8  1  0
  6  9  1  0
  6 10  2  0
  7 11  1  0
  8 12  2  0
  9 13  2  3
 11 14  2  0
 12 14  1  0
 13 15  1  0
 13 16  1  0
 14 17  1  0
M  END
>  <DRUGBANK_ID>  (1) 
DB13214

>  <COMMON_NAME>  (1) 
Sulfadicramide

>  <CAS_NUMBER>  (1) 
115-68-4

>  <UNII>  (1) 
7WZ5EG263C

>  <SYNONYMS>  (1) 
Sulfadicramide; Sulfadicrolamide

$$$$
