
     RDKit          2D

 36 39  0  0  0  0  0  0  0  0999 V2000
    2.3280    3.4478    0.0000 Cl  0  0  0  0  0  0  0  0  0  0  0  0
    3.2978    4.7826    0.0000 Cl  0  0  0  0  0  0  0  0  0  0  0  0
   -1.8688   -2.1868    0.0000 O   0  0  0  0  0  0  0  0  0  0  0  0
    0.9890   -1.3618    0.0000 O   0  0  0  0  0  0  0  0  0  0  0  0
    0.2745   -0.1243    0.0000 N   0  0  0  0  0  0  0  0  0  0  0  0
   -0.4399   -3.8368    0.0000 N   0  0  0  0  0  0  0  0  0  0  0  0
   -0.4399   -2.1868    0.0000 N   0  0  0  0  0  0  0  0  0  0  0  0
   -0.3929    2.8356    0.0000 N   0  0  0  0  0  0  0  0  0  0  0  0
   -0.1379    3.6202    0.0000 N   0  0  0  0  0  0  0  0  0  0  0  0
    0.7975   -4.5513    0.0000 N   0  0  0  0  0  0  0  0  0  0  0  0
   -0.4399   -5.2658    0.0000 N   0  0  0  0  0  0  0  0  0  0  0  0
   -1.8688   -3.8368    0.0000 C   0  0  0  0  0  0  0  0  0  0  0  0
   -2.5834   -3.4243    0.0000 C   0  0  0  0  0  0  0  0  0  0  0  0
   -1.8688   -4.6619    0.0000 C   0  0  0  0  0  0  0  0  0  0  0  0
   -3.2978   -3.8368    0.0000 C   0  0  0  0  0  0  0  0  0  0  0  0
   -2.5834   -5.0744    0.0000 C   0  0  0  0  0  0  0  0  0  0  0  0
   -3.2978   -4.6619    0.0000 C   0  0  0  0  0  0  0  0  0  0  0  0
   -1.1543   -3.4243    0.0000 C   0  0  0  0  0  0  0  0  0  0  0  0
    0.2745    1.5256    0.0000 C   0  0  0  0  0  0  0  0  0  0  0  0
   -0.4399    1.1131    0.0000 C   0  0  0  0  0  0  0  0  0  0  0  0
    0.9890    1.1131    0.0000 C   0  0  0  0  0  0  0  0  0  0  0  0
   -0.4399    0.2881    0.0000 C   0  0  0  0  0  0  0  0  0  0  0  0
    0.9890    0.2881    0.0000 C   0  0  0  0  0  0  0  0  0  0  0  0
   -1.1543   -2.5993    0.0000 C   0  0  0  0  0  0  0  0  0  0  0  0
    0.2745    2.3507    0.0000 C   0  0  0  0  0  0  0  0  0  0  0  0
    0.2745   -0.9493    0.0000 C   0  0  0  0  0  0  0  0  0  0  0  0
   -0.4399   -1.3618    0.0000 C   0  0  0  0  0  0  0  0  0  0  0  0
    0.9419    2.8356    0.0000 C   0  0  0  0  0  0  0  0  0  0  0  0
    0.6870    3.6202    0.0000 C   0  0  0  0  0  0  0  0  0  0  0  0
   -0.0273   -4.5513    0.0000 C   0  0  0  0  0  0  0  0  0  0  0  0
    1.1719    4.2876    0.0000 C   0  0  0  0  0  0  0  0  0  0  0  0
    1.9924    4.2014    0.0000 C   0  0  0  0  0  0  0  0  0  0  0  0
    0.8364    5.0414    0.0000 C   0  0  0  0  0  0  0  0  0  0  0  0
    2.4773    4.8688    0.0000 C   0  0  0  0  0  0  0  0  0  0  0  0
    1.3213    5.7088    0.0000 C   0  0  0  0  0  0  0  0  0  0  0  0
    2.1418    5.6226    0.0000 C   0  0  0  0  0  0  0  0  0  0  0  0
  1 32  1  0
  2 34  1  0
  3 24  2  0
  4 26  2  0
  5 22  1  0
  5 23  1  0
  5 26  1  0
  6 30  2  3
  7 24  1  0
  7 27  1  0
  8  9  1  0
  8 25  1  0
  9 29  2  0
 10 30  1  0
 11 30  1  0
 12 13  1  0
 12 14  1  0
 12 18  1  0
 13 15  1  0
 14 16  1  0
 15 17  1  0
 16 17  1  0
 18  6  1  6
 18 24  1  0
 19 20  1  0
 19 21  1  0
 19 25  1  0
 20 22  1  0
 21 23  1  0
 25 28  2  0
 26 27  1  0
 28 29  1  0
 29 31  1  0
 31 32  2  0
 31 33  1  0
 32 34  1  0
 33 35  2  0
 34 36  2  0
 35 36  1  0
M  END
>  <DRUGBANK_ID>  (1) 
DB03957

>  <SECONDARY_ACCESSION_NUMBERS>  (1) 
EXPT01488

>  <COMMON_NAME>  (1) 
SP2456

>  <SYNONYMS>  (1) 
(2R)-2-Cyclohexyl-2-(diaminomethylideneamino)-N-[2-[4-[3-(2,3-dichlorophenyl)-1H-pyrazol-5-yl]piperidin-1-yl]-2-oxoethyl]acetamide

$$$$
