
     RDKit          2D

 34 37  0  0  0  0  0  0  0  0999 V2000
    0.6655    1.4717    0.0000 C   0  0  0  0  0  0  0  0  0  0  0  0
   -0.0489    1.0592    0.0000 C   0  0  0  0  0  0  0  0  0  0  0  0
   -0.0489    0.2342    0.0000 C   0  0  0  0  0  0  0  0  0  0  0  0
    0.6655   -0.1783    0.0000 C   0  0  0  0  0  0  0  0  0  0  0  0
    1.3800    0.2342    0.0000 C   0  0  0  0  0  0  0  0  0  0  0  0
    1.3800    1.0592    0.0000 C   0  0  0  0  0  0  0  0  0  0  0  0
    2.0945   -0.1783    0.0000 O   0  0  0  0  0  0  0  0  0  0  0  0
    2.8090    0.2342    0.0000 C   0  0  0  0  0  0  0  0  0  0  0  0
    3.5234   -0.1783    0.0000 C   0  0  0  0  0  0  0  0  0  0  0  0
    4.2379    0.2342    0.0000 O   0  0  0  0  0  0  0  0  0  0  0  0
    3.5234   -1.0033    0.0000 O   0  0  0  0  0  0  0  0  0  0  0  0
   -0.7634   -0.1783    0.0000 C   0  0  0  0  0  0  0  0  0  0  0  0
   -0.7634   -1.0033    0.0000 N   0  0  0  0  0  0  0  0  0  0  0  0
   -0.0489   -1.4158    0.0000 C   0  0  0  0  0  0  0  0  0  0  0  0
   -0.0489   -2.2408    0.0000 C   0  0  0  0  0  0  0  0  0  0  0  0
    0.6655   -2.6533    0.0000 C   0  0  0  0  0  0  0  0  0  0  0  0
    0.6655   -3.4783    0.0000 C   0  0  0  0  0  0  0  0  0  0  0  0
   -0.0489   -3.8908    0.0000 C   0  0  0  0  0  0  0  0  0  0  0  0
   -0.7634   -3.4783    0.0000 C   0  0  0  0  0  0  0  0  0  0  0  0
   -0.7634   -2.6533    0.0000 C   0  0  0  0  0  0  0  0  0  0  0  0
   -0.0489   -4.7158    0.0000 N   0  0  0  0  0  0  0  0  0  0  0  0
    0.6185   -5.2008    0.0000 C   0  0  0  0  0  0  0  0  0  0  0  0
    0.3636   -5.9854    0.0000 C   0  0  0  0  0  0  0  0  0  0  0  0
   -0.4614   -5.9854    0.0000 C   0  0  0  0  0  0  0  0  0  0  0  0
   -0.7164   -5.2008    0.0000 N   0  0  0  0  0  0  0  0  0  0  0  0
   -1.4779   -1.4158    0.0000 S   0  0  0  0  0  0  0  0  0  0  0  0
   -2.1923   -1.8283    0.0000 O   0  0  0  0  0  0  0  0  0  0  0  0
   -1.0654   -2.1303    0.0000 O   0  0  0  0  0  0  0  0  0  0  0  0
   -1.8904   -0.7014    0.0000 C   0  0  0  0  0  0  0  0  0  0  0  0
   -2.7154   -0.7014    0.0000 C   0  0  0  0  0  0  0  0  0  0  0  0
   -3.1279    0.0131    0.0000 C   0  0  0  0  0  0  0  0  0  0  0  0
   -2.7154    0.7276    0.0000 C   0  0  0  0  0  0  0  0  0  0  0  0
   -1.8904    0.7276    0.0000 N   0  0  0  0  0  0  0  0  0  0  0  0
   -1.4779    0.0131    0.0000 C   0  0  0  0  0  0  0  0  0  0  0  0
  1  2  2  0
  1  6  1  0
  2  3  1  0
  3  4  2  0
  3 12  1  0
  4  5  1  0
  5  6  2  0
  5  7  1  0
  7  8  1  0
  8  9  1  0
  9 10  2  0
  9 11  1  0
 12 13  1  0
 13 14  1  0
 13 26  1  0
 14 15  1  0
 15 16  2  0
 15 20  1  0
 16 17  1  0
 17 18  2  0
 18 19  1  0
 18 21  1  0
 19 20  2  0
 21 22  1  0
 21 25  1  0
 22 23  2  0
 23 24  1  0
 24 25  2  0
 26 27  2  0
 26 28  2  0
 26 29  1  0
 29 30  2  0
 29 34  1  0
 30 31  1  0
 31 32  2  0
 32 33  1  0
 33 34  2  0
M  END
>  <DRUGBANK_ID>  (1) 
DB12623

>  <COMMON_NAME>  (1) 
Taprenepag

>  <CAS_NUMBER>  (1) 
752187-80-7

>  <UNII>  (1) 
9CD894KUMJ

>  <SYNONYMS>  (1) 
Taprenepag

$$$$
