
     RDKit          2D

 24 25  0  0  0  0  0  0  0  0999 V2000
    0.0153    0.2262    0.0000 Cl  0  0  0  0  0  0  0  0  0  0  0  0
   -3.5824    0.6328    0.0000 F   0  0  0  0  0  0  0  0  0  0  0  0
   -2.4470    0.9473    0.0000 F   0  0  0  0  0  0  0  0  0  0  0  0
   -3.2678   -0.4947    0.0000 F   0  0  0  0  0  0  0  0  0  0  0  0
    0.0000   -1.4382    0.0000 O   0  0  0  0  0  0  0  0  0  0  0  0
    2.1479    1.4382    0.0000 O   0  0  0  0  0  0  0  0  0  0  0  0
    0.7211    1.4382    0.0000 O   0  0  0  0  0  0  0  0  0  0  0  0
    2.8689    1.0317    0.0000 O   0  0  0  0  0  0  0  0  0  0  0  0
    3.5824   -0.2109    0.0000 O   0  0  0  0  0  0  0  0  0  0  0  0
    2.8689    0.2032    0.0000 N   0  0  0  0  0  0  0  0  0  0  0  0
   -2.1325   -0.1879    0.0000 C   0  0  0  0  0  0  0  0  0  0  0  0
   -0.7057   -1.0164    0.0000 C   0  0  0  0  0  0  0  0  0  0  0  0
    1.4344    0.2032    0.0000 C   0  0  0  0  0  0  0  0  0  0  0  0
    0.7211   -1.0317    0.0000 C   0  0  0  0  0  0  0  0  0  0  0  0
   -0.7057   -0.1879    0.0000 C   0  0  0  0  0  0  0  0  0  0  0  0
   -2.8613    0.2262    0.0000 C   0  0  0  0  0  0  0  0  0  0  0  0
    2.1479   -0.2109    0.0000 C   0  0  0  0  0  0  0  0  0  0  0  0
   -1.4113    0.2262    0.0000 C   0  0  0  0  0  0  0  0  0  0  0  0
    0.7211   -0.2109    0.0000 C   0  0  0  0  0  0  0  0  0  0  0  0
   -2.1325   -1.0164    0.0000 C   0  0  0  0  0  0  0  0  0  0  0  0
   -1.4113   -1.4307    0.0000 C   0  0  0  0  0  0  0  0  0  0  0  0
    1.4344   -1.4382    0.0000 C   0  0  0  0  0  0  0  0  0  0  0  0
    2.1479   -1.0317    0.0000 C   0  0  0  0  0  0  0  0  0  0  0  0
    1.4344    1.0317    0.0000 C   0  0  0  0  0  0  0  0  0  0  0  0
  1 15  1  0
  2 16  1  0
  3 16  1  0
  4 16  1  0
  5 12  1  0
  5 14  1  0
  6 24  1  0
  7 24  2  0
  8 10  1  0
  9 10  2  0
 10 17  1  0
 11 16  1  0
 11 18  2  0
 11 20  1  0
 12 15  2  0
 12 21  1  0
 13 17  2  0
 13 19  1  0
 13 24  1  0
 14 19  2  0
 14 22  1  0
 15 18  1  0
 17 23  1  0
 20 21  2  0
 22 23  2  0
M  CHG  2   8  -1  10   1
M  END
>  <DRUGBANK_ID>  (1) 
DB07338

>  <COMMON_NAME>  (1) 
Acifluorfen

>  <CAS_NUMBER>  (1) 
50594-66-6

>  <UNII>  (1) 
OI60IB203A

$$$$
