
     RDKit          2D

 28 30  0  0  0  0  0  0  0  0999 V2000
    3.9849    0.6507    0.0000 C   0  0  0  0  0  0  0  0  0  0  0  0
    3.9849   -0.1743    0.0000 C   0  0  0  0  0  0  0  0  0  0  0  0
    4.6993   -0.5868    0.0000 C   0  0  0  0  0  0  0  0  0  0  0  0
    4.6993   -1.4118    0.0000 C   0  0  0  0  0  0  0  0  0  0  0  0
    3.9849   -1.8243    0.0000 C   0  0  0  0  0  0  0  0  0  0  0  0
    3.2704   -1.4118    0.0000 C   0  0  0  0  0  0  0  0  0  0  0  0
    3.2704   -0.5868    0.0000 C   0  0  0  0  0  0  0  0  0  0  0  0
    2.5559   -0.1743    0.0000 F   0  0  0  0  0  0  0  0  0  0  0  0
    3.9849   -2.6493    0.0000 C   0  0  0  0  0  0  0  0  0  0  0  0
    4.6993   -3.0618    0.0000 O   0  0  0  0  0  0  0  0  0  0  0  0
    3.2704   -3.0618    0.0000 N   0  0  0  0  0  0  0  0  0  0  0  0
    3.2704   -3.8868    0.0000 C   0  0  0  0  0  0  0  0  0  0  0  0
    3.6829   -4.6013    0.0000 C   0  0  0  0  0  0  0  0  0  0  0  0
    2.8579   -4.6013    0.0000 C   0  0  0  0  0  0  0  0  0  0  0  0
    5.4138   -0.1743    0.0000 C   0  0  0  0  0  0  0  0  0  0  0  0
    5.4138    0.6507    0.0000 C   0  0  0  0  0  0  0  0  0  0  0  0
    6.1283    1.0632    0.0000 C   0  0  0  0  0  0  0  0  0  0  0  0
    6.8427    0.6507    0.0000 C   0  0  0  0  0  0  0  0  0  0  0  0
    6.8427   -0.1743    0.0000 C   0  0  0  0  0  0  0  0  0  0  0  0
    6.1283   -0.5868    0.0000 N   0  0  0  0  0  0  0  0  0  0  0  0
    7.5572    1.0632    0.0000 C   0  0  0  0  0  0  0  0  0  0  0  0
    8.2717    0.6507    0.0000 O   0  0  0  0  0  0  0  0  0  0  0  0
    7.5572    1.8882    0.0000 N   0  0  0  0  0  0  0  0  0  0  0  0
    8.2717    2.3007    0.0000 C   0  0  0  0  0  0  0  0  0  0  0  0
    8.2717    3.1257    0.0000 C   0  0  0  0  0  0  0  0  0  0  0  0
    8.2717    3.9507    0.0000 C   0  0  0  0  0  0  0  0  0  0  0  0
    9.0967    3.1257    0.0000 C   0  0  0  0  0  0  0  0  0  0  0  0
    7.4467    3.1257    0.0000 C   0  0  0  0  0  0  0  0  0  0  0  0
  1  2  1  0
  2  3  2  0
  2  7  1  0
  3  4  1  0
  3 15  1  0
  4  5  2  0
  5  6  1  0
  5  9  1  0
  6  7  2  0
  7  8  1  0
  9 10  2  0
  9 11  1  0
 11 12  1  0
 12 13  1  0
 12 14  1  0
 13 14  1  0
 15 16  2  0
 15 20  1  0
 16 17  1  0
 17 18  2  0
 18 19  1  0
 18 21  1  0
 19 20  2  0
 21 22  2  0
 21 23  1  0
 23 24  1  0
 24 25  1  0
 25 26  1  0
 25 27  1  0
 25 28  1  0
M  END
>  <DRUGBANK_ID>  (1) 
DB12270

>  <COMMON_NAME>  (1) 
Losmapimod

>  <CAS_NUMBER>  (1) 
585543-15-3

>  <UNII>  (1) 
F2DQF16BXE

>  <SYNONYMS>  (1) 
Losmapimod

$$$$
