
     RDKit          2D

 25 28  0  0  0  0  0  0  0  0999 V2000
   -0.8358    1.1971    0.0000 C   0  0  0  0  0  0  0  0  0  0  0  0
   -0.5003    0.4434    0.0000 C   0  0  0  0  0  0  0  0  0  0  0  0
    0.3066    0.2719    0.0000 C   0  0  0  0  0  0  0  0  0  0  0  0
    0.3928   -0.5485    0.0000 C   0  0  0  0  0  0  0  0  0  0  0  0
    1.1073   -0.9610    0.0000 O   0  0  0  0  0  0  0  0  0  0  0  0
    1.8218   -0.5485    0.0000 C   0  0  0  0  0  0  0  0  0  0  0  0
    2.5362   -0.9610    0.0000 C   0  0  0  0  0  0  0  0  0  0  0  0
    3.2507   -0.5485    0.0000 N   0  0  0  0  0  0  0  0  0  0  0  0
    3.9652   -0.9610    0.0000 C   0  0  0  0  0  0  0  0  0  0  0  0
    4.6796   -0.5485    0.0000 C   0  0  0  0  0  0  0  0  0  0  0  0
    4.6796    0.2764    0.0000 O   0  0  0  0  0  0  0  0  0  0  0  0
    3.9652    0.6889    0.0000 C   0  0  0  0  0  0  0  0  0  0  0  0
    3.2507    0.2764    0.0000 C   0  0  0  0  0  0  0  0  0  0  0  0
   -0.3608   -0.8840    0.0000 N   0  0  0  0  0  0  0  0  0  0  0  0
   -0.9128   -0.2710    0.0000 N   0  0  0  0  0  0  0  0  0  0  0  0
   -1.7333   -0.3572    0.0000 C   0  0  0  0  0  0  0  0  0  0  0  0
   -2.0688   -1.1108    0.0000 C   0  0  0  0  0  0  0  0  0  0  0  0
   -2.8893   -1.1971    0.0000 C   0  0  0  0  0  0  0  0  0  0  0  0
   -3.3742   -0.5297    0.0000 C   0  0  0  0  0  0  0  0  0  0  0  0
   -4.1947   -0.6159    0.0000 C   0  0  0  0  0  0  0  0  0  0  0  0
   -4.6796    0.0514    0.0000 C   0  0  0  0  0  0  0  0  0  0  0  0
   -4.3440    0.8051    0.0000 C   0  0  0  0  0  0  0  0  0  0  0  0
   -3.5236    0.8914    0.0000 C   0  0  0  0  0  0  0  0  0  0  0  0
   -3.0387    0.2239    0.0000 C   0  0  0  0  0  0  0  0  0  0  0  0
   -2.2182    0.3102    0.0000 C   0  0  0  0  0  0  0  0  0  0  0  0
  1  2  1  0
  2  3  2  0
  2 15  1  0
  3  4  1  0
  4  5  1  0
  5  6  1  0
  6  7  1  0
  7  8  1  0
  8  9  1  0
  8 13  1  0
  9 10  1  0
 10 11  1  0
 12 11  1  0
 13 12  1  0
 14  4  2  0
 15 14  1  0
 15 16  1  0
 16 17  2  0
 16 25  1  0
 17 18  1  0
 18 19  2  0
 19 20  1  0
 20 21  2  0
 22 21  1  0
 23 22  2  0
 24 23  1  0
 24 19  1  0
 25 24  2  0
M  END
>  <DRUGBANK_ID>  (1) 
DB16881

>  <COMMON_NAME>  (1) 
E-52862

>  <CAS_NUMBER>  (1) 
878141-96-9

>  <UNII>  (1) 
ZW18DSD1H4

$$$$
