
     RDKit          2D

 20 22  0  0  0  0  0  0  0  0999 V2000
    1.2856    0.6807    0.0000 O   0  0  0  0  0  0  0  0  0  0  0  0
   -0.8081    1.0968    0.0000 O   0  0  0  0  0  0  0  0  0  0  0  0
    0.2492    2.5470    0.0000 O   0  0  0  0  0  0  0  0  0  0  0  0
    2.7083    1.6526    0.0000 O   0  0  0  0  0  0  0  0  0  0  0  0
    0.7256   -1.0208    0.0000 N   0  0  0  0  0  0  0  0  0  0  0  0
    0.2442   -1.6847    0.0000 N   0  0  0  0  0  0  0  0  0  0  0  0
   -1.2508   -0.1959    0.0000 N   0  0  0  0  0  0  0  0  0  0  0  0
   -1.9653   -1.4333    0.0000 N   0  0  0  0  0  0  0  0  0  0  0  0
   -1.2508   -2.6708    0.0000 N   0  0  0  0  0  0  0  0  0  0  0  0
    0.5005    0.4271    0.0000 C   0  0  0  0  0  0  0  0  0  0  0  0
    0.0167    1.0954    0.0000 C   0  0  0  0  0  0  0  0  0  0  0  0
    0.5028    1.7620    0.0000 C   0  0  0  0  0  0  0  0  0  0  0  0
    1.2870    1.5057    0.0000 C   0  0  0  0  0  0  0  0  0  0  0  0
    0.2442   -0.3569    0.0000 C   0  0  0  0  0  0  0  0  0  0  0  0
    1.9552    1.9895    0.0000 C   0  0  0  0  0  0  0  0  0  0  0  0
   -0.5363   -0.6084    0.0000 C   0  0  0  0  0  0  0  0  0  0  0  0
   -0.5363   -1.4333    0.0000 C   0  0  0  0  0  0  0  0  0  0  0  0
   -1.2508   -1.8458    0.0000 C   0  0  0  0  0  0  0  0  0  0  0  0
   -1.9653   -0.6084    0.0000 C   0  0  0  0  0  0  0  0  0  0  0  0
   -2.6797   -1.8458    0.0000 C   0  0  0  0  0  0  0  0  0  0  0  0
  1 10  1  0
  1 13  1  0
  4 15  1  0
  5  6  1  0
  5 14  1  0
  6 17  2  0
  7 16  1  0
  7 19  2  0
  8 18  2  0
  8 19  1  0
  8 20  1  0
  9 18  1  0
 10 11  1  0
 10 14  1  1
 11  2  1  6
 11 12  1  0
 12  3  1  6
 12 13  1  0
 13 15  1  1
 14 16  2  0
 16 17  1  0
 17 18  1  0
M  CHG  1   8   1
M  END
>  <DRUGBANK_ID>  (1) 
DB03986

>  <SECONDARY_ACCESSION_NUMBERS>  (1) 
EXPT01451

>  <COMMON_NAME>  (1) 
6-methyl-formycin A

>  <SYNONYMS>  (1) 
2-(7-amino-6-methyl-3H-pyrazolo[4,3-d]pyrimidin-3-yl)-5-hydroxymethyl-tetrahydro-furan-3,4-diol

$$$$
