
     RDKit          2D

 15 15  0  0  1  0  0  0  0  0999 V2000
    2.6896   -3.0314    0.0000 S   0  0  0  0  0  0  0  0  0  0  0  0
    4.5311    0.7131    0.0000 S   0  0  0  0  0  0  0  0  0  0  0  0
    1.6500   -1.9918    0.0000 O   0  0  0  0  0  0  0  0  0  0  0  0
    4.5311   -0.9369    0.0000 O   0  0  0  0  0  0  0  0  0  0  0  0
    5.2455    2.7757    0.0000 O   0  0  0  0  0  0  0  0  0  0  0  0
    5.9601    1.5382    0.0000 O   0  0  0  0  0  0  0  0  0  0  0  0
    3.1022   -0.9369    0.0000 N   0  0  0  0  0  0  0  0  0  0  0  0
    3.1022   -1.7619    0.0000 C   0  0  0  0  0  0  0  0  0  0  0  0
    3.7696   -2.2469    0.0000 C   0  0  0  0  0  0  0  0  0  0  0  0
    3.5147   -3.0314    0.0000 C   0  0  0  0  0  0  0  0  0  0  0  0
    2.4347   -2.2469    0.0000 C   0  0  0  0  0  0  0  0  0  0  0  0
    3.8166   -0.5244    0.0000 C   0  0  0  0  0  0  0  0  0  0  0  0
    3.8166    0.3006    0.0000 C   0  0  0  0  0  0  0  0  0  0  0  0
    4.5311    1.5382    0.0000 C   0  0  0  0  0  0  0  0  0  0  0  0
    5.2455    1.9507    0.0000 C   0  0  0  0  0  0  0  0  0  0  0  0
  1 10  1  0
  1 11  1  0
  2 13  1  0
  2 14  1  0
  3 11  2  0
  4 12  2  0
  5 15  1  0
  6 15  2  0
  7  8  1  0
  7 12  1  0
  8  9  1  0
  8 11  1  0
  9 10  1  0
 12 13  1  0
 14 15  1  0
M  END
>  <DRUGBANK_ID>  (1) 
DB05057

>  <COMMON_NAME>  (1) 
Erdosteine

>  <CAS_NUMBER>  (1) 
84611-23-4

>  <UNII>  (1) 
76J0853EKA

>  <SYNONYMS>  (1) 
Erdosteine

$$$$
