3BE
     RDKit          2D

 22 23  0  0  0  0  0  0  0  0999 V2000
    2.2405    0.4530    0.0000 C   0  0  0  0  0  0  0  0  0  0  0  0
    2.9549    0.0405    0.0000 C   0  0  0  0  0  0  0  0  0  0  0  0
    3.6694    0.4530    0.0000 Br  0  0  0  0  0  0  0  0  0  0  0  0
    2.9549   -0.7845    0.0000 C   0  0  0  0  0  0  0  0  0  0  0  0
    2.2405   -1.1970    0.0000 C   0  0  0  0  0  0  0  0  0  0  0  0
    1.5260   -0.7845    0.0000 C   0  0  0  0  0  0  0  0  0  0  0  0
    1.5260    0.0405    0.0000 C   0  0  0  0  0  0  0  0  0  0  0  0
    0.8115    0.4530    0.0000 C   0  0  0  0  0  0  0  0  0  0  0  0
    0.8115    1.2780    0.0000 O   0  0  0  0  0  0  0  0  0  0  0  0
    0.0970    0.0405    0.0000 N   0  0  0  0  0  0  0  0  0  0  0  0
   -0.6174    0.4530    0.0000 N   0  0  0  0  0  0  0  0  0  0  0  0
   -1.3319    0.0405    0.0000 C   0  0  0  0  0  0  0  0  0  0  0  0
   -2.0464    0.4530    0.0000 C   0  0  0  0  0  0  0  0  0  0  0  0
   -2.7608    0.0405    0.0000 C   0  0  0  0  0  0  0  0  0  0  0  0
   -3.4753    0.4530    0.0000 C   0  0  0  0  0  0  0  0  0  0  0  0
   -4.1898    0.0405    0.0000 Br  0  0  0  0  0  0  0  0  0  0  0  0
   -3.4753    1.2780    0.0000 C   0  0  0  0  0  0  0  0  0  0  0  0
   -4.1898    1.6905    0.0000 O   0  0  0  0  0  0  0  0  0  0  0  0
   -2.7608    1.6905    0.0000 C   0  0  0  0  0  0  0  0  0  0  0  0
   -2.7608    2.5155    0.0000 Br  0  0  0  0  0  0  0  0  0  0  0  0
   -2.0464    1.2780    0.0000 C   0  0  0  0  0  0  0  0  0  0  0  0
   -1.3319    1.6905    0.0000 O   0  0  0  0  0  0  0  0  0  0  0  0
  1  2  2  0
  1  7  1  0
  2  3  1  0
  2  4  1  0
  4  5  2  0
  5  6  1  0
  6  7  2  0
  7  8  1  0
  8  9  2  0
  8 10  1  0
 10 11  1  0
 11 12  2  0
 12 13  1  0
 13 14  2  0
 13 21  1  0
 14 15  1  0
 15 16  1  0
 15 17  2  0
 17 18  1  0
 17 19  1  0
 19 20  1  0
 19 21  2  0
 21 22  1  0
M  END
>  <DRUGBANK_ID>  (1) 
DB07044

>  <COMMON_NAME>  (1) 
3-bromo-N'-[(1E)-(3,5-dibromo-2,4-dihydroxyphenyl)methylidene]benzohydrazide

$$$$
