
     RDKit          2D

 10  8  0  0  1  0  0  0  0  0999 V2000
    4.6184    1.8414    0.0000 C   0  0  0  0  0  0  0  0  0  0  0  0
    3.9039    1.4289    0.0000 C   0  0  0  0  0  0  0  0  0  0  0  0
    3.1895    1.8414    0.0000 C   0  0  0  0  0  0  0  0  0  0  0  0
    3.1895    2.6664    0.0000 O   0  0  0  0  0  0  0  0  0  0  0  0
    2.4750    1.4289    0.0000 O   0  0  0  0  0  0  0  0  0  0  0  0
    3.9039    0.6039    0.0000 N   0  0  0  0  0  0  0  0  0  0  0  0
    5.3329    1.4289    0.0000 C   0  0  0  0  0  0  0  0  0  0  0  0
    6.0474    1.8414    0.0000 O   0  0  0  0  0  0  0  0  0  0  0  0
    5.3329    0.6039    0.0000 O   0  0  0  0  0  0  0  0  0  0  0  0
    1.7605    1.0164    0.0000 Fe  0  0  0  0  0 15  0  0  0  0  0  0
  1  2  1  0
  1  7  1  0
  2  3  1  0
  2  6  1  6
  3  4  2  0
  3  5  1  0
  7  8  2  0
  7  9  1  0
M  CHG  3   5  -1   9  -1  10   2
M  END
>  <DRUGBANK_ID>  (1) 
DB13220

>  <COMMON_NAME>  (1) 
Ferrous aspartate

>  <CAS_NUMBER>  (1) 
75802-64-1

>  <UNII>  (1) 
Z56D82TX8V

$$$$
