
     RDKit          2D

 20 20  0  0  0  0  0  0  0  0999 V2000
   -1.4289    2.4750    0.0000 C   0  0  0  0  0  0  0  0  0  0  0  0
   -0.0000   -2.4750    0.0000 C   0  0  0  0  0  0  0  0  0  0  0  0
   -2.1434    2.0625    0.0000 C   0  0  0  0  0  0  0  0  0  0  0  0
    0.7145   -2.8875    0.0000 C   0  0  0  0  0  0  0  0  0  0  0  0
    1.4289    0.8250    0.0000 C   0  0  0  0  0  0  0  0  0  0  0  0
   -0.7145    2.0625    0.0000 C   0  0  0  0  0  0  0  0  0  0  0  0
   -0.0000   -1.6500    0.0000 C   0  0  0  0  0  0  0  0  0  0  0  0
    0.7145    1.2375    0.0000 C   0  0  0  0  0  0  0  0  0  0  0  0
    1.4289    0.0000    0.0000 C   0  0  0  0  0  0  0  0  0  0  0  0
   -2.1434    1.2375    0.0000 C   0  0  0  0  0  0  0  0  0  0  0  0
    1.4289   -2.4750    0.0000 C   0  0  0  0  0  0  0  0  0  0  0  0
   -0.7145    1.2375    0.0000 C   0  0  0  0  0  0  0  0  0  0  0  0
    0.7145   -1.2375    0.0000 C   0  0  0  0  0  0  0  0  0  0  0  0
    0.0000    0.8250    0.0000 C   0  0  0  0  0  0  0  0  0  0  0  0
    0.7145   -0.4125    0.0000 C   0  0  0  0  0  0  0  0  0  0  0  0
   -1.4289    0.8250    0.0000 N   0  0  0  0  0  0  0  0  0  0  0  0
    1.4289   -1.6500    0.0000 N   0  0  0  0  0  0  0  0  0  0  0  0
    0.0000    0.0000    0.0000 N   0  0  0  0  0  0  0  0  0  0  0  0
    3.6682    0.0000    0.0000 Cl  0  0  0  0  0  0  0  0  0  0  0  0
    0.0000   -4.5375    0.0000 Pt  0  0  0  0  0 15  0  0  0  0  0  0
  3  1  2  0
  4  2  2  0
  6  1  1  0
  7  2  1  0
  8  5  2  0
  9  5  1  0
 10  3  1  0
 11  4  1  0
 12  6  2  0
 13  7  2  0
 14  8  1  0
 14 12  1  0
 15  9  2  0
 15 13  1  0
 16 10  2  0
 16 12  1  0
 17 11  2  0
 17 13  1  0
 18 14  2  0
 18 15  1  0
M  CHG  2  19  -1  20   2
M  END
>  <DRUGBANK_ID>  (1) 
DB01912

>  <SECONDARY_ACCESSION_NUMBERS>  (1) 
EXPT03097

>  <COMMON_NAME>  (1) 
2,2':6',2''-Terpyridine Platinum(Ii)

$$$$
