1AU
     RDKit          2D

 30 33  0  0  0  0  0  0  0  0999 V2000
   -1.8729   -2.1908    0.0000 C   0  0  0  0  0  0  0  0  0  0  0  0
   -2.5874   -1.7783    0.0000 C   0  0  0  0  0  0  0  0  0  0  0  0
   -3.3019   -2.1908    0.0000 C   0  0  0  0  0  0  0  0  0  0  0  0
   -3.3019   -3.0158    0.0000 C   0  0  0  0  0  0  0  0  0  0  0  0
   -2.5874   -3.4283    0.0000 C   0  0  0  0  0  0  0  0  0  0  0  0
   -1.8729   -3.0158    0.0000 C   0  0  0  0  0  0  0  0  0  0  0  0
   -1.1585   -3.4283    0.0000 C   0  0  0  0  0  0  0  0  0  0  0  0
   -0.4440   -3.0158    0.0000 C   0  0  0  0  0  0  0  0  0  0  0  0
   -0.4440   -2.1908    0.0000 C   0  0  0  0  0  0  0  0  0  0  0  0
   -1.1585   -1.7783    0.0000 C   0  0  0  0  0  0  0  0  0  0  0  0
   -1.1585   -0.9533    0.0000 N   0  0  0  0  0  0  0  0  0  0  0  0
   -0.4440   -0.5408    0.0000 C   0  0  0  0  0  0  0  0  0  0  0  0
    0.2705   -0.9533    0.0000 O   0  0  0  0  0  0  0  0  0  0  0  0
   -0.4440    0.2842    0.0000 N   0  0  0  0  0  0  0  0  0  0  0  0
    0.2705    0.6967    0.0000 C   0  0  0  0  0  0  0  0  0  0  0  0
    1.0241    0.3611    0.0000 C   0  0  0  0  0  0  0  0  0  0  0  0
    1.5762    0.9742    0.0000 C   0  0  0  0  0  0  0  0  0  0  0  0
    2.3967    0.8880    0.0000 C   0  0  0  0  0  0  0  0  0  0  0  0
    2.4829    1.7085    0.0000 C   0  0  0  0  0  0  0  0  0  0  0  0
    2.3104    0.0675    0.0000 C   0  0  0  0  0  0  0  0  0  0  0  0
    3.2171    0.8018    0.0000 C   0  0  0  0  0  0  0  0  0  0  0  0
    1.1637    1.6887    0.0000 N   0  0  0  0  0  0  0  0  0  0  0  0
    0.3567    1.5172    0.0000 N   0  0  0  0  0  0  0  0  0  0  0  0
   -0.2564    2.0692    0.0000 C   0  0  0  0  0  0  0  0  0  0  0  0
   -0.0849    2.8762    0.0000 C   0  0  0  0  0  0  0  0  0  0  0  0
   -1.0410    1.8143    0.0000 C   0  0  0  0  0  0  0  0  0  0  0  0
   -1.6541    2.3663    0.0000 C   0  0  0  0  0  0  0  0  0  0  0  0
   -1.4826    3.1733    0.0000 C   0  0  0  0  0  0  0  0  0  0  0  0
   -0.6980    3.4282    0.0000 C   0  0  0  0  0  0  0  0  0  0  0  0
   -0.5264    4.2352    0.0000 N   0  0  0  0  0  0  0  0  0  0  0  0
  1  2  2  0
  2  3  1  0
  4  3  2  0
  5  4  1  0
  6  1  1  0
  6  5  2  0
  7  6  1  0
  8  7  2  0
  8  9  1  0
  9 10  2  0
 10  1  1  0
 10 11  1  0
 12 11  1  0
 12 14  1  0
 13 12  2  0
 15 14  1  0
 15 23  1  0
 16 15  2  0
 16 17  1  0
 17 22  2  0
 18 17  1  0
 18 21  1  0
 19 18  1  0
 20 18  1  0
 22 23  1  0
 23 24  1  0
 24 26  1  0
 24 25  2  0
 25 29  1  0
 26 27  2  0
 27 28  1  0
 29 28  2  0
 29 30  1  0
M  END
>  <DRUGBANK_ID>  (1) 
DB06882

>  <COMMON_NAME>  (1) 
1-[1-(3-aminophenyl)-3-tert-butyl-1H-pyrazol-5-yl]-3-naphthalen-1-ylurea

$$$$
