288
     RDKit          2D

 25 27  0  0  0  0  0  0  0  0999 V2000
   -3.6758    1.5608    0.0000 C   0  0  0  0  0  0  0  0  0  0  0  0
   -3.6758    0.7358    0.0000 C   0  0  0  0  0  0  0  0  0  0  0  0
   -2.8912    1.8158    0.0000 C   0  0  0  0  0  0  0  0  0  0  0  0
   -4.3903    1.9733    0.0000 C   0  0  0  0  0  0  0  0  0  0  0  0
   -2.8912    0.4809    0.0000 N   0  0  0  0  0  0  0  0  0  0  0  0
   -4.3903    0.3233    0.0000 C   0  0  0  0  0  0  0  0  0  0  0  0
   -2.4062    1.1483    0.0000 C   0  0  0  0  0  0  0  0  0  0  0  0
   -5.1047    1.5608    0.0000 C   0  0  0  0  0  0  0  0  0  0  0  0
   -5.1047    0.7358    0.0000 C   0  0  0  0  0  0  0  0  0  0  0  0
   -1.5812    1.1483    0.0000 C   0  0  0  0  0  0  0  0  0  0  0  0
   -5.8192    1.9733    0.0000 Cl  0  0  0  0  0  0  0  0  0  0  0  0
   -1.1687    0.4338    0.0000 N   0  0  0  0  0  0  0  0  0  0  0  0
   -1.1687    1.8628    0.0000 O   0  0  0  0  0  0  0  0  0  0  0  0
   -0.3437    0.4338    0.0000 C   0  0  0  0  0  0  0  0  0  0  0  0
    0.0688   -0.2806    0.0000 C   0  0  0  0  0  0  0  0  0  0  0  0
    0.8938   -0.2806    0.0000 N   0  0  0  0  0  0  0  0  0  0  0  0
   -0.3437   -0.9951    0.0000 O   0  0  0  0  0  0  0  0  0  0  0  0
    1.3063   -0.9951    0.0000 C   0  0  0  0  0  0  0  0  0  0  0  0
    1.3063    0.4338    0.0000 C   0  0  0  0  0  0  0  0  0  0  0  0
    2.1267   -1.0813    0.0000 C   0  0  0  0  0  0  0  0  0  0  0  0
    0.9707   -1.7488    0.0000 C   0  0  0  0  0  0  0  0  0  0  0  0
    0.8938    1.1483    0.0000 C   0  0  0  0  0  0  0  0  0  0  0  0
    2.2983   -1.8883    0.0000 C   0  0  0  0  0  0  0  0  0  0  0  0
    1.5838   -2.3008    0.0000 C   0  0  0  0  0  0  0  0  0  0  0  0
    1.3063    1.8628    0.0000 O   0  0  0  0  0  0  0  0  0  0  0  0
  1  2  2  0
  1  3  1  0
  1  4  1  0
  2  5  1  0
  2  6  1  0
  3  7  2  0
  4  8  2  0
  5  7  1  0
  6  9  2  0
  7 10  1  0
  8  9  1  0
  8 11  1  0
 10 12  1  0
 10 13  2  0
 12 14  1  0
 14 15  1  0
 15 16  1  0
 15 17  1  6
 16 18  1  0
 16 19  1  0
 18 20  1  0
 18 21  1  0
 19 22  1  0
 20 23  1  0
 21 24  1  0
 22 25  1  0
 23 24  1  0
M  END
>  <DRUGBANK_ID>  (1) 
DB03288

>  <SECONDARY_ACCESSION_NUMBERS>  (1) 
EXPT00098

>  <COMMON_NAME>  (1) 
5-Chloro-1h-Indole-2-Carboxylic Acid{[Cyclopentyl-(2-Hydroxy-Ethyl)-Carbamoyl]-Methyl}-Amide

$$$$
