
     RDKit          2D

 20 20  0  0  1  0  0  0  0  0999 V2000
   -2.2482    0.8275    0.0000 P   0  0  0  0  0  0  0  0  0  0  0  0
   -1.4245    0.8275    0.0000 O   0  0  0  0  0  0  0  0  0  0  0  0
   -3.0682    0.8275    0.0000 O   0  0  0  0  0  0  0  0  0  0  0  0
   -2.2482    1.6475    0.0000 O   0  0  0  0  0  0  0  0  0  0  0  0
   -2.2482    0.0037    0.0000 O   0  0  0  0  0  0  0  0  0  0  0  0
   -0.7141    0.4156    0.0000 C   0  0  0  0  0  0  0  0  0  0  0  0
   -0.0037    0.8275    0.0000 C   0  0  0  0  0  0  0  0  0  0  0  0
   -0.7141   -0.4156    0.0000 C   0  0  0  0  0  0  0  0  0  0  0  0
    0.7180    0.4156    0.0000 C   0  0  0  0  0  0  0  0  0  0  0  0
   -0.0037    1.6475    0.0000 O   0  0  0  0  0  0  0  0  0  0  0  0
   -0.0037   -0.8351    0.0000 C   0  0  0  0  0  0  0  0  0  0  0  0
   -1.4284   -0.8237    0.0000 O   0  0  0  0  0  0  0  0  0  0  0  0
    0.7180   -0.4156    0.0000 C   0  0  0  0  0  0  0  0  0  0  0  0
    1.4284    0.8275    0.0000 O   0  0  0  0  0  0  0  0  0  0  0  0
   -0.0037   -1.6588    0.0000 O   0  0  0  0  0  0  0  0  0  0  0  0
    1.4321   -0.8237    0.0000 O   0  0  0  0  0  0  0  0  0  0  0  0
    2.2482   -0.8237    0.0000 P   0  0  0  0  0  0  0  0  0  0  0  0
    3.0719   -0.8237    0.0000 O   0  0  0  0  0  0  0  0  0  0  0  0
    2.2482    0.0000    0.0000 O   0  0  0  0  0  0  0  0  0  0  0  0
    2.2482   -1.6437    0.0000 O   0  0  0  0  0  0  0  0  0  0  0  0
  1  2  1  0
  1  3  1  0
  1  4  1  0
  1  5  2  0
  6  2  1  1
  6  7  1  0
  6  8  1  0
  7  9  1  0
  7 10  1  6
  8 11  1  0
  8 12  1  1
  9 13  1  0
  9 14  1  1
 11 15  1  1
 11 13  1  0
 13 16  1  6
 16 17  1  0
 17 18  1  0
 17 19  1  0
 17 20  2  0
M  END
>  <DRUGBANK_ID>  (1) 
DB03158

>  <SECONDARY_ACCESSION_NUMBERS>  (1) 
EXPT00125

>  <COMMON_NAME>  (1) 
D-Myo-Inositol-1,4-Bisphosphate

>  <CAS_NUMBER>  (1) 
47055-78-7

$$$$
