TPR
     RDKit          2D

 18 19  0  0  0  0  0  0  0  0999 V2000
    1.8014    0.9142    0.0000 C   0  0  0  0  0  0  0  0  0  0  0  0
    2.4145    0.3622    0.0000 C   0  0  0  0  0  0  0  0  0  0  0  0
    2.2429   -0.4448    0.0000 C   0  0  0  0  0  0  0  0  0  0  0  0
    1.4583   -0.6997    0.0000 C   0  0  0  0  0  0  0  0  0  0  0  0
    0.8452   -0.1477    0.0000 C   0  0  0  0  0  0  0  0  0  0  0  0
    1.0167    0.6593    0.0000 C   0  0  0  0  0  0  0  0  0  0  0  0
    3.1991    0.6171    0.0000 C   0  0  0  0  0  0  0  0  0  0  0  0
    0.0606   -0.4026    0.0000 S   0  0  0  0  0  0  0  0  0  0  0  0
   -0.1943    0.3820    0.0000 O   0  0  0  0  0  0  0  0  0  0  0  0
    0.3155   -1.1873    0.0000 O   0  0  0  0  0  0  0  0  0  0  0  0
   -0.7240   -0.6576    0.0000 N   0  0  0  0  0  0  0  0  0  0  0  0
   -0.9790   -1.4422    0.0000 C   0  0  0  0  0  0  0  0  0  0  0  0
   -1.8040   -1.4422    0.0000 C   0  0  0  0  0  0  0  0  0  0  0  0
   -2.0589   -0.6576    0.0000 C   0  0  0  0  0  0  0  0  0  0  0  0
   -1.3915   -0.1727    0.0000 C   0  0  0  0  0  0  0  0  0  0  0  0
   -1.3915    0.6523    0.0000 C   0  0  0  0  0  0  0  0  0  0  0  0
   -2.1059    1.0648    0.0000 O   0  0  0  0  0  0  0  0  0  0  0  0
   -0.6770    1.0648    0.0000 O   0  0  0  0  0  0  0  0  0  0  0  0
  1  2  2  0
  1  6  1  0
  2  3  1  0
  2  7  1  0
  3  4  2  0
  4  5  1  0
  5  6  2  0
  5  8  1  0
  8  9  2  0
  8 10  2  0
  8 11  1  0
 11 12  1  0
 11 15  1  0
 12 13  1  0
 13 14  1  0
 14 15  1  0
 15 16  1  6
 16 17  2  0
 16 18  1  0
M  END
>  <DRUGBANK_ID>  (1) 
DB02752

>  <SECONDARY_ACCESSION_NUMBERS>  (1) 
EXPT03095

>  <COMMON_NAME>  (1) 
Tosyl-D-Proline

$$$$
