
     RDKit          2D

 27 30  0  0  1  0  0  0  0  0999 V2000
    1.6273   -1.6144    0.0000 C   0  0  0  0  0  0  0  0  0  0  0  0
    1.2148   -2.3288    0.0000 C   0  0  0  0  0  0  0  0  0  0  0  0
    1.6273   -3.0433    0.0000 C   0  0  0  0  0  0  0  0  0  0  0  0
    2.4478   -3.1295    0.0000 C   0  0  0  0  0  0  0  0  0  0  0  0
    2.6193   -3.9365    0.0000 N   0  0  0  0  0  0  0  0  0  0  0  0
    1.9049   -4.3490    0.0000 C   0  0  0  0  0  0  0  0  0  0  0  0
    1.2918   -3.7970    0.0000 C   0  0  0  0  0  0  0  0  0  0  0  0
    0.4848   -3.9685    0.0000 C   0  0  0  0  0  0  0  0  0  0  0  0
    0.1492   -4.7222    0.0000 C   0  0  0  0  0  0  0  0  0  0  0  0
   -0.6711   -4.6359    0.0000 N   0  0  0  0  0  0  0  0  0  0  0  0
   -0.8427   -3.8290    0.0000 C   0  0  0  0  0  0  0  0  0  0  0  0
   -1.5571   -3.4165    0.0000 C   0  0  0  0  0  0  0  0  0  0  0  0
   -1.5571   -2.5915    0.0000 N   0  0  0  0  0  0  0  0  0  0  0  0
   -0.8427   -2.1790    0.0000 C   0  0  0  0  0  0  0  0  0  0  0  0
   -0.1282   -2.5915    0.0000 C   0  0  0  0  0  0  0  0  0  0  0  0
    0.4848   -2.0394    0.0000 C   0  0  0  0  0  0  0  0  0  0  0  0
    0.1492   -1.2858    0.0000 C   0  0  0  0  0  0  0  0  0  0  0  0
   -0.6711   -1.3720    0.0000 N   0  0  0  0  0  0  0  0  0  0  0  0
   -0.1282   -3.4165    0.0000 N   0  0  0  0  0  0  0  0  0  0  0  0
    3.3730   -4.2721    0.0000 C   0  0  0  0  0  0  0  0  0  0  0  0
    3.4592   -5.0925    0.0000 O   0  0  0  0  0  0  0  0  0  0  0  0
    4.0404   -3.7871    0.0000 N   0  0  0  0  0  0  0  0  0  0  0  0
    4.7941   -4.1227    0.0000 C   0  0  0  0  0  0  0  0  0  0  0  0
    5.4616   -3.6378    0.0000 C   0  0  0  0  0  0  0  0  0  0  0  0
    6.1290   -3.1529    0.0000 F   0  0  0  0  0  0  0  0  0  0  0  0
    5.9465   -4.3052    0.0000 F   0  0  0  0  0  0  0  0  0  0  0  0
    4.9766   -2.9703    0.0000 F   0  0  0  0  0  0  0  0  0  0  0  0
  1  2  1  0
  3  2  1  6
  3  4  1  0
  3  7  1  0
  4  5  1  0
  5  6  1  0
  5 20  1  0
  7  6  1  0
  7  8  1  6
  8  9  2  0
  8 19  1  0
  9 10  1  0
 10 11  2  0
 11 12  1  0
 11 19  1  0
 12 13  2  0
 13 14  1  0
 14 15  2  0
 14 18  1  0
 15 16  1  0
 15 19  1  0
 16 17  2  0
 17 18  1  0
 20 21  2  0
 20 22  1  0
 22 23  1  0
 23 24  1  0
 24 25  1  0
 24 26  1  0
 24 27  1  0
M  END
>  <DRUGBANK_ID>  (1) 
DB15091

>  <COMMON_NAME>  (1) 
Upadacitinib

>  <CAS_NUMBER>  (1) 
1310726-60-3

>  <UNII>  (1) 
4RA0KN46E0

>  <SYNONYMS>  (1) 
Upadacitinib

$$$$
