
     RDKit          2D

 23 25  0  0  0  0  0  0  0  0999 V2000
   -2.2851   -3.6515    0.0000 Cl  0  0  0  0  0  0  0  0  0  0  0  0
   -0.0554    0.0565    0.0000 S   0  0  0  0  0  0  0  0  0  0  0  0
   -0.8526    3.6515    0.0000 F   0  0  0  0  0  0  0  0  0  0  0  0
    1.9075    1.0679    0.0000 O   0  0  0  0  0  0  0  0  0  0  0  0
    0.6119   -1.0995    0.0000 N   0  0  0  0  0  0  0  0  0  0  0  0
   -0.8561   -1.1764    0.0000 N   0  0  0  0  0  0  0  0  0  0  0  0
    1.9845   -0.5726    0.0000 N   0  0  0  0  0  0  0  0  0  0  0  0
    0.7515    0.2280    0.0000 C   0  0  0  0  0  0  0  0  0  0  0  0
   -0.1416   -0.7639    0.0000 C   0  0  0  0  0  0  0  0  0  0  0  0
    1.1640   -0.4864    0.0000 C   0  0  0  0  0  0  0  0  0  0  0  0
    1.0870    0.9817    0.0000 C   0  0  0  0  0  0  0  0  0  0  0  0
    0.6021    1.6492    0.0000 C   0  0  0  0  0  0  0  0  0  0  0  0
   -0.8561   -2.0014    0.0000 C   0  0  0  0  0  0  0  0  0  0  0  0
   -0.2183    1.5629    0.0000 C   0  0  0  0  0  0  0  0  0  0  0  0
    0.9376    2.4028    0.0000 C   0  0  0  0  0  0  0  0  0  0  0  0
   -1.5707   -2.4140    0.0000 C   0  0  0  0  0  0  0  0  0  0  0  0
   -0.1416   -2.4140    0.0000 C   0  0  0  0  0  0  0  0  0  0  0  0
   -0.7032    2.2304    0.0000 C   0  0  0  0  0  0  0  0  0  0  0  0
    0.4528    3.0703    0.0000 C   0  0  0  0  0  0  0  0  0  0  0  0
   -1.5707   -3.2390    0.0000 C   0  0  0  0  0  0  0  0  0  0  0  0
   -0.1416   -3.2390    0.0000 C   0  0  0  0  0  0  0  0  0  0  0  0
   -0.3677    2.9840    0.0000 C   0  0  0  0  0  0  0  0  0  0  0  0
   -0.8561   -3.6515    0.0000 C   0  0  0  0  0  0  0  0  0  0  0  0
  1 20  1  0
  2  8  1  0
  2  9  1  0
  3 22  1  0
  4 11  2  0
  5  9  2  0
  5 10  1  0
  6  9  1  0
  6 13  1  0
  7 10  1  0
  8 10  2  0
  8 11  1  0
 11 12  1  0
 12 14  2  0
 12 15  1  0
 13 16  2  0
 13 17  1  0
 14 18  1  0
 15 19  2  0
 16 20  1  0
 17 21  2  0
 18 22  2  0
 19 22  1  0
 20 23  2  0
 21 23  1  0
M  CHG  1   5   1
M  END
>  <DRUGBANK_ID>  (1) 
DB07489

>  <COMMON_NAME>  (1) 
4-Amino-2-[(3-chlorophenyl)amino]-5-(4-fluorobenzoyl)-1,3-thiazol-3-ium

$$$$
