CM6
     RDKit          2D

 29 32  0  0  0  0  0  0  0  0999 V2000
   -0.6144    1.8899    0.0000 O   0  0  0  0  0  0  0  0  0  0  0  0
   -0.6144    1.0649    0.0000 C   0  0  0  0  0  0  0  0  0  0  0  0
   -1.3289    0.6524    0.0000 N   0  0  0  0  0  0  0  0  0  0  0  0
   -2.0434    1.0649    0.0000 C   0  0  0  0  0  0  0  0  0  0  0  0
   -2.7578    0.6524    0.0000 C   0  0  0  0  0  0  0  0  0  0  0  0
   -3.4723    1.0649    0.0000 C   0  0  0  0  0  0  0  0  0  0  0  0
   -3.4723    1.8899    0.0000 N   0  0  0  0  0  0  0  0  0  0  0  0
   -2.7578    2.3024    0.0000 C   0  0  0  0  0  0  0  0  0  0  0  0
   -2.0434    1.8899    0.0000 C   0  0  0  0  0  0  0  0  0  0  0  0
    0.1000    0.6524    0.0000 C   0  0  0  0  0  0  0  0  0  0  0  0
    0.8145    1.0649    0.0000 N   0  0  0  0  0  0  0  0  0  0  0  0
    1.5290    0.6524    0.0000 S   0  0  0  0  0  0  0  0  0  0  0  0
    1.1165   -0.0621    0.0000 O   0  0  0  0  0  0  0  0  0  0  0  0
    1.9415    1.3669    0.0000 O   0  0  0  0  0  0  0  0  0  0  0  0
    2.2435    0.2399    0.0000 C   0  0  0  0  0  0  0  0  0  0  0  0
    2.9579    0.6524    0.0000 C   0  0  0  0  0  0  0  0  0  0  0  0
    3.6724    0.2399    0.0000 C   0  0  0  0  0  0  0  0  0  0  0  0
    3.6724   -0.5851    0.0000 C   0  0  0  0  0  0  0  0  0  0  0  0
    2.9579   -0.9976    0.0000 C   0  0  0  0  0  0  0  0  0  0  0  0
    2.7864   -1.8046    0.0000 N   0  0  0  0  0  0  0  0  0  0  0  0
    1.9659   -1.8908    0.0000 S   0  0  0  0  0  0  0  0  0  0  0  0
    1.6304   -1.1372    0.0000 N   0  0  0  0  0  0  0  0  0  0  0  0
    2.2435   -0.5851    0.0000 C   0  0  0  0  0  0  0  0  0  0  0  0
    0.1000   -0.1726    0.0000 C   0  0  0  0  0  0  0  0  0  0  0  0
    0.8145   -0.5851    0.0000 C   0  0  0  0  0  0  0  0  0  0  0  0
    0.8145   -1.4101    0.0000 C   0  0  0  0  0  0  0  0  0  0  0  0
    0.1000   -1.8226    0.0000 C   0  0  0  0  0  0  0  0  0  0  0  0
   -0.6144   -1.4101    0.0000 C   0  0  0  0  0  0  0  0  0  0  0  0
   -0.6144   -0.5851    0.0000 C   0  0  0  0  0  0  0  0  0  0  0  0
  1  2  2  0
  2  3  1  0
  2 10  1  0
  3  4  1  0
  4  5  2  0
  4  9  1  0
  5  6  1  0
  6  7  2  0
  7  8  1  0
  8  9  2  0
 10 11  1  1
 10 24  1  0
 11 12  1  0
 12 13  2  0
 12 14  2  0
 12 15  1  0
 15 16  2  0
 15 23  1  0
 16 17  1  0
 17 18  2  0
 18 19  1  0
 19 20  2  0
 19 23  1  0
 20 21  1  0
 21 22  1  0
 22 23  2  0
 24 25  2  0
 24 29  1  0
 25 26  1  0
 26 27  2  0
 27 28  1  0
 28 29  2  0
M  END
>  <DRUGBANK_ID>  (1) 
DB07568

>  <COMMON_NAME>  (1) 
(2S)-2-[(2,1,3-BENZOTHIADIAZOL-4-YLSULFONYL)AMINO]-2-PHENYL-N-PYRIDIN-4-YLACETAMIDE

$$$$
