
     RDKit          2D

 34 38  0  0  1  0  0  0  0  0999 V2000
   -1.6275   -6.4077    0.0000 C   0  0  0  0  0  0  0  0  0  0  0  0
   -2.0400   -5.6933    0.0000 C   0  0  0  0  0  0  0  0  0  0  0  0
   -1.7044   -4.9396    0.0000 C   0  0  0  0  0  0  0  0  0  0  0  0
   -2.3175   -4.3876    0.0000 N   0  0  0  0  0  0  0  0  0  0  0  0
   -3.0320   -4.8001    0.0000 C   0  0  0  0  0  0  0  0  0  0  0  0
   -2.8604   -5.6070    0.0000 C   0  0  0  0  0  0  0  0  0  0  0  0
   -3.3844   -6.2443    0.0000 C   0  0  0  0  0  0  0  0  0  0  0  0
   -3.0376   -6.9929    0.0000 O   0  0  0  0  0  0  0  0  0  0  0  0
   -4.2093   -6.2319    0.0000 N   0  0  0  0  0  0  0  0  0  0  0  0
   -4.7140   -5.5793    0.0000 C   0  0  0  0  0  0  0  0  0  0  0  0
   -4.5184   -4.7778    0.0000 C   0  0  0  0  0  0  0  0  0  0  0  0
   -3.7698   -4.4310    0.0000 C   0  0  0  0  0  0  0  0  0  0  0  0
   -4.5783   -6.9698    0.0000 C   0  0  0  0  0  0  0  0  0  0  0  0
   -5.4019   -7.0191    0.0000 C   0  0  0  0  0  0  0  0  0  0  0  0
   -5.7709   -7.7570    0.0000 C   0  0  0  0  0  0  0  0  0  0  0  0
   -6.5944   -7.8063    0.0000 N   0  0  0  0  0  0  0  0  0  0  0  0
   -6.9635   -8.5442    0.0000 C   0  0  0  0  0  0  0  0  0  0  0  0
   -7.7870   -8.5935    0.0000 C   0  0  0  0  0  0  0  0  0  0  0  0
   -8.2415   -7.9050    0.0000 O   0  0  0  0  0  0  0  0  0  0  0  0
   -7.8724   -7.1672    0.0000 C   0  0  0  0  0  0  0  0  0  0  0  0
   -7.0489   -7.1178    0.0000 C   0  0  0  0  0  0  0  0  0  0  0  0
   -5.8564   -6.3306    0.0000 O   0  0  0  0  0  0  0  0  0  0  0  0
   -0.8974   -4.7681    0.0000 C   0  0  0  0  0  0  0  0  0  0  0  0
   -0.6425   -3.9835    0.0000 C   0  0  0  0  0  0  0  0  0  0  0  0
    0.1421   -3.7285    0.0000 C   0  0  0  0  0  0  0  0  0  0  0  0
    0.8566   -4.1410    0.0000 C   0  0  0  0  0  0  0  0  0  0  0  0
    1.5711   -3.7285    0.0000 C   0  0  0  0  0  0  0  0  0  0  0  0
    1.5711   -2.9035    0.0000 C   0  0  0  0  0  0  0  0  0  0  0  0
    0.8566   -2.4910    0.0000 C   0  0  0  0  0  0  0  0  0  0  0  0
    0.1421   -2.9035    0.0000 C   0  0  0  0  0  0  0  0  0  0  0  0
   -0.6425   -2.6486    0.0000 N   0  0  0  0  0  0  0  0  0  0  0  0
   -1.1274   -3.3160    0.0000 C   0  0  0  0  0  0  0  0  0  0  0  0
   -1.9524   -3.3160    0.0000 O   0  0  0  0  0  0  0  0  0  0  0  0
    2.2855   -4.1410    0.0000 F   0  0  0  0  0  0  0  0  0  0  0  0
  1  2  1  0
  2  3  2  0
  2  6  1  0
  3  4  1  0
  3 23  1  0
  4  5  1  0
  5  6  2  0
  5 12  1  0
  6  7  1  0
  7  8  2  0
  7  9  1  0
  9 10  1  0
  9 13  1  0
 10 11  1  0
 11 12  1  0
 13 14  1  0
 14 15  1  0
 14 22  1  1
 15 16  1  0
 16 17  1  0
 16 21  1  0
 17 18  1  0
 18 19  1  0
 19 20  1  0
 20 21  1  0
 23 24  2  0
 24 25  1  0
 24 32  1  0
 25 26  2  0
 25 30  1  0
 26 27  1  0
 27 28  2  0
 27 34  1  0
 28 29  1  0
 29 30  2  0
 30 31  1  0
 31 32  1  0
 32 33  2  0
M  END
>  <DRUGBANK_ID>  (1) 
DB13019

>  <COMMON_NAME>  (1) 
Henatinib

>  <CAS_NUMBER>  (1) 
1239269-51-2

>  <UNII>  (1) 
TE20GB753F

$$$$
