
     RDKit          2D

 32 35  0  0  0  0  0  0  0  0999 V2000
    4.0668    3.1729    0.0000 C   0  0  0  0  0  0  0  0  0  0  0  0
    4.0668    2.3479    0.0000 C   0  0  0  0  0  0  0  0  0  0  0  0
    4.7812    1.9354    0.0000 O   0  0  0  0  0  0  0  0  0  0  0  0
    3.3523    1.9354    0.0000 N   0  0  0  0  0  0  0  0  0  0  0  0
    3.3523    1.1104    0.0000 C   0  0  0  0  0  0  0  0  0  0  0  0
    2.6378    0.6979    0.0000 C   0  0  0  0  0  0  0  0  0  0  0  0
    1.9233    1.1104    0.0000 C   0  0  0  0  0  0  0  0  0  0  0  0
    1.9233    1.9354    0.0000 C   0  0  0  0  0  0  0  0  0  0  0  0
    2.6378    2.3479    0.0000 C   0  0  0  0  0  0  0  0  0  0  0  0
    1.1387    2.1904    0.0000 N   0  0  0  0  0  0  0  0  0  0  0  0
    0.6538    1.5229    0.0000 N   0  0  0  0  0  0  0  0  0  0  0  0
    1.1387    0.8555    0.0000 C   0  0  0  0  0  0  0  0  0  0  0  0
    0.8838    0.0709    0.0000 C   0  0  0  0  0  0  0  0  0  0  0  0
    1.4358   -0.5422    0.0000 O   0  0  0  0  0  0  0  0  0  0  0  0
    0.0768   -0.1006    0.0000 N   0  0  0  0  0  0  0  0  0  0  0  0
   -0.1781   -0.8853    0.0000 C   0  0  0  0  0  0  0  0  0  0  0  0
   -0.9851   -1.0568    0.0000 C   0  0  0  0  0  0  0  0  0  0  0  0
   -1.5371   -0.4437    0.0000 C   0  0  0  0  0  0  0  0  0  0  0  0
   -1.2822    0.3409    0.0000 C   0  0  0  0  0  0  0  0  0  0  0  0
   -0.4752    0.5124    0.0000 C   0  0  0  0  0  0  0  0  0  0  0  0
   -2.3441   -0.6152    0.0000 C   0  0  0  0  0  0  0  0  0  0  0  0
   -2.5990   -1.3998    0.0000 C   0  0  0  0  0  0  0  0  0  0  0  0
   -3.4060   -1.5714    0.0000 C   0  0  0  0  0  0  0  0  0  0  0  0
   -3.9580   -0.9583    0.0000 C   0  0  0  0  0  0  0  0  0  0  0  0
   -4.7650   -1.1298    0.0000 F   0  0  0  0  0  0  0  0  0  0  0  0
   -3.7031   -0.1737    0.0000 C   0  0  0  0  0  0  0  0  0  0  0  0
   -4.2551    0.4394    0.0000 F   0  0  0  0  0  0  0  0  0  0  0  0
   -2.8961   -0.0021    0.0000 C   0  0  0  0  0  0  0  0  0  0  0  0
   -2.6412    0.7825    0.0000 C   0  0  0  0  0  0  0  0  0  0  0  0
   -2.3863    1.5671    0.0000 F   0  0  0  0  0  0  0  0  0  0  0  0
   -1.8566    0.5276    0.0000 F   0  0  0  0  0  0  0  0  0  0  0  0
   -3.4258    1.0374    0.0000 F   0  0  0  0  0  0  0  0  0  0  0  0
  1  2  1  0
  2  3  2  0
  2  4  1  0
  4  5  1  0
  4  9  1  0
  5  6  1  0
  6  7  1  0
  7  8  2  0
  7 12  1  0
  8  9  1  0
  8 10  1  0
 10 11  1  0
 11 12  2  0
 12 13  1  0
 13 14  2  0
 13 15  1  0
 15 16  1  0
 15 20  1  0
 16 17  1  0
 17 18  1  0
 18 19  1  0
 18 21  1  0
 19 20  1  0
 21 22  2  0
 21 28  1  0
 22 23  1  0
 23 24  2  0
 24 25  1  0
 24 26  1  0
 26 27  1  0
 26 28  2  0
 28 29  1  0
 29 30  1  0
 29 31  1  0
 29 32  1  0
M  END
>  <DRUGBANK_ID>  (1) 
DB17832

>  <COMMON_NAME>  (1) 
Tinlarebant

>  <CAS_NUMBER>  (1) 
1821327-95-0

>  <UNII>  (1) 
63WI9S8P1M

>  <SYNONYMS>  (1) 
1-(3-(4-(3,4-difluoro-2-(trifluoromethyl)phenyl)piperidine-1-carbonyl)-1h,4h,5h,6h,7h-pyrazolo(3,4-c)pyridin-6-yl)ethan-1-one; 1-(3-{4-[3,4-Difluoro-2-(Trifluoromethyl)Phenyl]Piperidine-1-Carbonyl}-1H,4H,5H,6H,7H-Pyrazolo[3,4-C]Pyridin-6-Yl)Ethan-1-One; Ethanone, 1-(3-((4-(3,4-difluoro-2-(trifluoromethyl)phenyl)-1-piperidinyl)carbonyl)-1,4,5,7-tetrahydro-6h-pyrazolo(3,4-c)pyridin-6-yl)

$$$$
