G23
     RDKit          2D

 31 33  0  0  0  0  0  0  0  0999 V2000
    0.4167   -1.2346    0.0000 C   0  0  0  0  0  0  0  0  0  0  0  0
    0.0042    0.0350    0.0000 C   0  0  0  0  0  0  0  0  0  0  0  0
    0.0042    0.8600    0.0000 C   0  0  0  0  0  0  0  0  0  0  0  0
   -0.7103    1.2725    0.0000 C   0  0  0  0  0  0  0  0  0  0  0  0
   -0.3221   -2.0551    0.0000 C   0  0  0  0  0  0  0  0  0  0  0  0
   -1.2153   -1.4061    0.0000 C   0  0  0  0  0  0  0  0  0  0  0  0
    0.9016   -1.9020    0.0000 C   0  0  0  0  0  0  0  0  0  0  0  0
   -0.4083   -1.2346    0.0000 C   0  0  0  0  0  0  0  0  0  0  0  0
   -2.1392    1.2725    0.0000 C   0  0  0  0  0  0  0  0  0  0  0  0
    1.4331    0.8600    0.0000 C   0  0  0  0  0  0  0  0  0  0  0  0
    2.1476    1.2725    0.0000 C   0  0  0  0  0  0  0  0  0  0  0  0
    2.8621    0.0350    0.0000 C   0  0  0  0  0  0  0  0  0  0  0  0
    2.8621    0.8600    0.0000 C   0  0  0  0  0  0  0  0  0  0  0  0
    3.5765    1.2725    0.0000 C   0  0  0  0  0  0  0  0  0  0  0  0
    4.2910    0.8600    0.0000 C   0  0  0  0  0  0  0  0  0  0  0  0
    4.2910    0.0350    0.0000 C   0  0  0  0  0  0  0  0  0  0  0  0
    3.5765   -0.3775    0.0000 C   0  0  0  0  0  0  0  0  0  0  0  0
   -3.5682   -0.3775    0.0000 C   0  0  0  0  0  0  0  0  0  0  0  0
   -4.2826    0.0350    0.0000 C   0  0  0  0  0  0  0  0  0  0  0  0
   -4.2826    0.8600    0.0000 C   0  0  0  0  0  0  0  0  0  0  0  0
   -3.5682    1.2725    0.0000 C   0  0  0  0  0  0  0  0  0  0  0  0
   -2.8537    0.8600    0.0000 C   0  0  0  0  0  0  0  0  0  0  0  0
   -2.8537    0.0350    0.0000 C   0  0  0  0  0  0  0  0  0  0  0  0
    0.6716   -0.4500    0.0000 N   0  0  0  0  0  0  0  0  0  0  0  0
    0.7187    1.2725    0.0000 N   0  0  0  0  0  0  0  0  0  0  0  0
   -1.4248    0.8600    0.0000 N   0  0  0  0  0  0  0  0  0  0  0  0
   -0.7103    2.0975    0.0000 O   0  0  0  0  0  0  0  0  0  0  0  0
    1.4331    0.0350    0.0000 O   0  0  0  0  0  0  0  0  0  0  0  0
    1.7221   -1.8158    0.0000 O   0  0  0  0  0  0  0  0  0  0  0  0
    0.5661   -2.6557    0.0000 O   0  0  0  0  0  0  0  0  0  0  0  0
   -0.6632   -0.4500    0.0000 S   0  0  0  0  0  0  0  0  0  0  0  0
  1  7  1  1
  1  8  1  0
  1 24  1  0
  2  3  1  0
  2 24  1  6
  2 31  1  0
  3  4  1  0
  3 25  1  1
  4 26  1  0
  4 27  2  0
  5  8  1  0
  6  8  1  0
  7 29  2  0
  7 30  1  0
  8 31  1  0
  9 22  1  0
  9 26  1  0
 10 11  1  0
 10 25  1  0
 10 28  2  0
 11 13  1  0
 12 13  2  0
 12 17  1  0
 13 14  1  0
 14 15  2  0
 15 16  1  0
 16 17  2  0
 18 19  2  0
 18 23  1  0
 19 20  1  0
 20 21  2  0
 21 22  1  0
 22 23  2  0
M  END
>  <DRUGBANK_ID>  (1) 
DB07806

>  <COMMON_NAME>  (1) 
(2R,4S)-2-[(R)-BENZYLCARBAMOYL-PHENYLACETYL-METHYL]-5,5-DIMETHYL-THIAZOLIDINE-4-CARBOXYLIC ACID

$$$$
