MNP
     RDKit          2D

 13 13  0  0  0  0  0  0  0  0999 V2000
    1.7084    0.4074    0.0000 C   0  0  0  0  0  0  0  0  0  0  0  0
    0.9940    0.8199    0.0000 C   0  0  0  0  0  0  0  0  0  0  0  0
    0.2795    0.4074    0.0000 C   0  0  0  0  0  0  0  0  0  0  0  0
    0.2795   -0.4176    0.0000 C   0  0  0  0  0  0  0  0  0  0  0  0
   -0.4350   -0.8301    0.0000 C   0  0  0  0  0  0  0  0  0  0  0  0
   -0.4350   -1.6551    0.0000 N   0  0  0  0  0  0  0  0  0  0  0  0
   -1.1494   -2.0676    0.0000 O   0  0  0  0  0  0  0  0  0  0  0  0
    0.2795   -2.0676    0.0000 O   0  0  0  0  0  0  0  0  0  0  0  0
   -1.1494   -0.4176    0.0000 C   0  0  0  0  0  0  0  0  0  0  0  0
   -1.1494    0.4074    0.0000 C   0  0  0  0  0  0  0  0  0  0  0  0
   -0.4350    0.8199    0.0000 C   0  0  0  0  0  0  0  0  0  0  0  0
    2.4229    0.8199    0.0000 O   0  0  0  0  0  0  0  0  0  0  0  0
    1.7084   -0.4176    0.0000 O   0  0  0  0  0  0  0  0  0  0  0  0
  1  2  1  0
  1 12  2  0
  1 13  1  0
  2  3  1  0
  3  4  2  0
  3 11  1  0
  4  5  1  0
  5  6  1  0
  5  9  2  0
  6  7  1  0
  6  8  2  0
  9 10  1  0
 10 11  2  0
M  CHG  2   6   1   7  -1
M  END
>  <DRUGBANK_ID>  (1) 
DB08193

>  <COMMON_NAME>  (1) 
2-(3-NITROPHENYL)ACETIC ACID

$$$$
