
     RDKit          2D

 44 49  0  0  0  0  0  0  0  0999 V2000
    2.7117    2.8038    0.0000 O   0  0  0  0  0  0  0  0  0  0  0  0
   -2.7117   -2.8038    0.0000 O   0  0  0  0  0  0  0  0  0  0  0  0
    0.6767    0.7999    0.0000 N   0  0  0  0  0  0  0  0  0  0  0  0
   -0.6767   -0.7999    0.0000 N   0  0  0  0  0  0  0  0  0  0  0  0
    1.3397    2.7880    0.0000 N   0  0  0  0  0  0  0  0  0  0  0  0
   -1.3397   -2.7880    0.0000 N   0  0  0  0  0  0  0  0  0  0  0  0
    3.4060    4.0115    0.0000 N   0  0  0  0  0  0  0  0  0  0  0  0
   -3.4061   -4.0115    0.0000 N   0  0  0  0  0  0  0  0  0  0  0  0
    3.4060    5.5957    0.0000 N   0  0  0  0  0  0  0  0  0  0  0  0
   -3.4061   -5.5957    0.0000 N   0  0  0  0  0  0  0  0  0  0  0  0
   -0.0045    0.3960    0.0000 C   0  0  0  0  0  0  0  0  0  0  0  0
    0.0045   -0.3960    0.0000 C   0  0  0  0  0  0  0  0  0  0  0  0
    0.6675    1.5920    0.0000 C   0  0  0  0  0  0  0  0  0  0  0  0
   -0.6676   -1.5920    0.0000 C   0  0  0  0  0  0  0  0  0  0  0  0
    1.3489    1.9959    0.0000 C   0  0  0  0  0  0  0  0  0  0  0  0
   -1.3489   -1.9959    0.0000 C   0  0  0  0  0  0  0  0  0  0  0  0
    2.7200    4.4075    0.0000 C   0  0  0  0  0  0  0  0  0  0  0  0
   -2.7200   -4.4075    0.0000 C   0  0  0  0  0  0  0  0  0  0  0  0
    2.0120    3.9840    0.0000 C   0  0  0  0  0  0  0  0  0  0  0  0
   -2.0120   -3.9840    0.0000 C   0  0  0  0  0  0  0  0  0  0  0  0
    2.7200    5.1996    0.0000 C   0  0  0  0  0  0  0  0  0  0  0  0
   -2.7200   -5.1996    0.0000 C   0  0  0  0  0  0  0  0  0  0  0  0
    4.0920    4.4075    0.0000 C   0  0  0  0  0  0  0  0  0  0  0  0
   -4.0920   -4.4075    0.0000 C   0  0  0  0  0  0  0  0  0  0  0  0
    2.0211    3.1919    0.0000 C   0  0  0  0  0  0  0  0  0  0  0  0
   -2.0212   -3.1919    0.0000 C   0  0  0  0  0  0  0  0  0  0  0  0
    4.0920    5.1996    0.0000 C   0  0  0  0  0  0  0  0  0  0  0  0
   -4.0920   -5.1996    0.0000 C   0  0  0  0  0  0  0  0  0  0  0  0
    4.8001    3.9840    0.0000 C   0  0  0  0  0  0  0  0  0  0  0  0
   -4.8001   -3.9840    0.0000 C   0  0  0  0  0  0  0  0  0  0  0  0
    1.2942    4.3910    0.0000 C   0  0  0  0  0  0  0  0  0  0  0  0
   -1.2942   -4.3910    0.0000 C   0  0  0  0  0  0  0  0  0  0  0  0
    2.0120    5.6230    0.0000 C   0  0  0  0  0  0  0  0  0  0  0  0
   -2.0120   -5.6230    0.0000 C   0  0  0  0  0  0  0  0  0  0  0  0
    1.2942    5.2161    0.0000 C   0  0  0  0  0  0  0  0  0  0  0  0
   -1.2942   -5.2161    0.0000 C   0  0  0  0  0  0  0  0  0  0  0  0
    4.8001    5.6230    0.0000 C   0  0  0  0  0  0  0  0  0  0  0  0
   -4.8001   -5.6230    0.0000 C   0  0  0  0  0  0  0  0  0  0  0  0
    5.5178    4.3910    0.0000 C   0  0  0  0  0  0  0  0  0  0  0  0
   -5.5178   -4.3910    0.0000 C   0  0  0  0  0  0  0  0  0  0  0  0
    5.5178    5.2161    0.0000 C   0  0  0  0  0  0  0  0  0  0  0  0
   -5.5178   -5.2161    0.0000 C   0  0  0  0  0  0  0  0  0  0  0  0
    4.7908    3.1919    0.0000 C   0  0  0  0  0  0  0  0  0  0  0  0
   -4.7909   -3.1919    0.0000 C   0  0  0  0  0  0  0  0  0  0  0  0
  1 25  2  0
  2 26  2  0
  3 11  1  0
  3 13  1  0
  4 12  1  0
  4 14  1  0
  5 15  1  0
  5 25  1  0
  6 16  1  0
  6 26  1  0
  7 17  2  0
  7 23  1  0
  8 18  2  0
  8 24  1  0
  9 21  2  0
  9 27  1  0
 10 22  2  0
 10 28  1  0
 11 12  1  0
 13 15  1  0
 14 16  1  0
 17 19  1  0
 17 21  1  0
 18 20  1  0
 18 22  1  0
 19 25  1  0
 19 31  2  0
 20 26  1  0
 20 32  2  0
 21 33  1  0
 22 34  1  0
 23 27  2  0
 23 29  1  0
 24 28  2  0
 24 30  1  0
 27 37  1  0
 28 38  1  0
 29 39  2  0
 29 43  1  0
 30 40  2  0
 30 44  1  0
 31 35  1  0
 32 36  1  0
 33 35  2  0
 34 36  2  0
 37 41  2  0
 38 42  2  0
 39 41  1  0
 40 42  1  0
M  END
>  <DRUGBANK_ID>  (1) 
DB06364

>  <COMMON_NAME>  (1) 
XR5944

>  <CAS_NUMBER>  (1) 
343247-32-5

>  <UNII>  (1) 
LJH9XG66Q9

$$$$
