
     RDKit          2D

 17 17  0  0  0  0  0  0  0  0999 V2000
    7.1447    0.0000    0.0000 C   0  0  0  0  0  0  0  0  0  0  0  0
    6.4302   -1.2375    0.0000 C   0  0  0  0  0  0  0  0  0  0  0  0
    0.0000    0.0000    0.0000 C   0  0  0  0  0  0  0  0  0  0  0  0
    0.7145    1.2375    0.0000 C   0  0  0  0  0  0  0  0  0  0  0  0
    0.7145   -0.4125    0.0000 C   0  0  0  0  0  0  0  0  0  0  0  0
    1.4289    0.8250    0.0000 C   0  0  0  0  0  0  0  0  0  0  0  0
    5.7158    0.0000    0.0000 C   0  0  0  0  0  0  0  0  0  0  0  0
    5.0013   -0.4125    0.0000 C   0  0  0  0  0  0  0  0  0  0  0  0
    2.8579    0.0000    0.0000 C   0  0  0  0  0  0  0  0  0  0  0  0
    0.0000    0.8250    0.0000 C   0  0  0  0  0  0  0  0  0  0  0  0
    1.4289    0.0000    0.0000 C   0  0  0  0  0  0  0  0  0  0  0  0
    3.5724   -0.4125    0.0000 C   0  0  0  0  0  0  0  0  0  0  0  0
   -0.7145    1.2375    0.0000 Cl  0  0  0  0  0  0  0  0  0  0  0  0
    6.4302   -0.4125    0.0000 N   0  0  0  0  0  0  0  0  0  0  0  0
    3.5724   -1.2375    0.0000 O   0  0  0  0  0  0  0  0  0  0  0  0
    4.2868    0.0000    0.0000 O   0  0  0  0  0  0  0  0  0  0  0  0
    2.1434   -0.4125    0.0000 O   0  0  0  0  0  0  0  0  0  0  0  0
  5  3  2  0
  6  4  1  0
  8  7  1  0
 10  3  1  0
 10  4  2  0
 11  5  1  0
 11  6  2  0
 12  9  1  0
 13 10  1  0
 14  1  1  0
 14  2  1  0
 14  7  1  0
 15 12  2  0
 16  8  1  0
 16 12  1  0
 17  9  1  0
 17 11  1  0
M  END
>  <DRUGBANK_ID>  (1) 
DB13758

>  <COMMON_NAME>  (1) 
Meclofenoxate

>  <CAS_NUMBER>  (1) 
51-68-3

>  <UNII>  (1) 
C76QQ2I0RG

>  <SYNONYMS>  (1) 
Meclofenoxate

$$$$
