
     RDKit          2D

 39 42  0  0  1  0  0  0  0  0999 V2000
    6.5823   -1.3472    0.0000 C   0  0  0  0  0  0  0  0  0  0  0  0
    7.4073   -1.3472    0.0000 N   0  0  0  0  0  0  0  0  0  0  0  0
    7.8198   -2.0617    0.0000 C   0  0  0  0  0  0  0  0  0  0  0  0
    7.4073   -2.7761    0.0000 C   0  0  0  0  0  0  0  0  0  0  0  0
    8.6448   -2.0617    0.0000 C   0  0  0  0  0  0  0  0  0  0  0  0
    9.0573   -1.3472    0.0000 O   0  0  0  0  0  0  0  0  0  0  0  0
    9.0573   -2.7761    0.0000 N   0  0  0  0  0  0  0  0  0  0  0  0
    9.8823   -2.7761    0.0000 C   0  0  0  0  0  0  0  0  0  0  0  0
   10.2948   -3.4906    0.0000 C   0  0  0  0  0  0  0  0  0  0  0  0
    9.8823   -4.2051    0.0000 O   0  0  0  0  0  0  0  0  0  0  0  0
   11.1198   -3.4906    0.0000 N   0  0  0  0  0  0  0  0  0  0  0  0
   11.6048   -2.8232    0.0000 C   0  0  0  0  0  0  0  0  0  0  0  0
   12.3894   -3.0781    0.0000 C   0  0  0  0  0  0  0  0  0  0  0  0
   12.3894   -3.9031    0.0000 C   0  0  0  0  0  0  0  0  0  0  0  0
   11.6048   -4.1581    0.0000 C   0  0  0  0  0  0  0  0  0  0  0  0
   11.3498   -4.9427    0.0000 C   0  0  0  0  0  0  0  0  0  0  0  0
   10.5429   -5.1142    0.0000 O   0  0  0  0  0  0  0  0  0  0  0  0
   11.9019   -5.5558    0.0000 N   0  0  0  0  0  0  0  0  0  0  0  0
   12.7088   -5.3842    0.0000 C   0  0  0  0  0  0  0  0  0  0  0  0
   12.9638   -4.5996    0.0000 C   0  0  0  0  0  0  0  0  0  0  0  0
   13.7707   -4.4281    0.0000 C   0  0  0  0  0  0  0  0  0  0  0  0
   14.3228   -5.0412    0.0000 C   0  0  0  0  0  0  0  0  0  0  0  0
   14.0678   -5.8258    0.0000 C   0  0  0  0  0  0  0  0  0  0  0  0
   14.6199   -6.4389    0.0000 C   0  0  0  0  0  0  0  0  0  0  0  0
   14.3649   -7.2235    0.0000 C   0  0  0  0  0  0  0  0  0  0  0  0
   13.5580   -7.3951    0.0000 C   0  0  0  0  0  0  0  0  0  0  0  0
   13.0059   -6.7820    0.0000 C   0  0  0  0  0  0  0  0  0  0  0  0
   13.2609   -5.9973    0.0000 C   0  0  0  0  0  0  0  0  0  0  0  0
   13.0568   -2.5932    0.0000 O   0  0  0  0  0  0  0  0  0  0  0  0
   13.8105   -2.9287    0.0000 C   0  0  0  0  0  0  0  0  0  0  0  0
   14.4779   -2.4438    0.0000 C   0  0  0  0  0  0  0  0  0  0  0  0
   15.2316   -2.7794    0.0000 C   0  0  0  0  0  0  0  0  0  0  0  0
   15.3179   -3.5999    0.0000 C   0  0  0  0  0  0  0  0  0  0  0  0
   14.6504   -4.0848    0.0000 C   0  0  0  0  0  0  0  0  0  0  0  0
   13.8967   -3.7492    0.0000 C   0  0  0  0  0  0  0  0  0  0  0  0
   10.2948   -2.0617    0.0000 C   0  0  0  0  0  0  0  0  0  0  0  0
   11.0093   -2.4742    0.0000 C   0  0  0  0  0  0  0  0  0  0  0  0
    9.5804   -1.6492    0.0000 C   0  0  0  0  0  0  0  0  0  0  0  0
   10.7073   -1.3472    0.0000 C   0  0  0  0  0  0  0  0  0  0  0  0
  1  2  1  0
  2  3  1  0
  3  4  1  6
  3  5  1  0
  5  6  2  0
  5  7  1  0
  8  7  1  1
  8  9  1  0
  8 36  1  0
  9 10  2  0
  9 11  1  0
 11 12  1  0
 11 15  1  0
 12 13  1  0
 13 14  1  0
 13 29  1  1
 14 15  1  0
 15 16  1  1
 16 17  2  0
 16 18  1  0
 19 18  1  6
 19 20  1  0
 19 28  1  0
 20 21  1  0
 21 22  1  0
 22 23  1  0
 23 24  2  0
 23 28  1  0
 24 25  1  0
 25 26  2  0
 26 27  1  0
 27 28  2  0
 29 30  1  0
 30 31  2  0
 30 35  1  0
 31 32  1  0
 32 33  2  0
 33 34  1  0
 34 35  2  0
 36 37  1  0
 36 38  1  0
 36 39  1  0
M  END
>  <DRUGBANK_ID>  (1) 
DB04612

>  <COMMON_NAME>  (1) 
N-METHYLALANYL-3-METHYLVALYL-4-PHENOXY-N-(1,2,3,4-TETRAHYDRONAPHTHALEN-1-YL)PROLINAMIDE

$$$$
