
     RDKit          2D

 14 14  0  0  1  0  0  0  0  0999 V2000
    1.4289   -0.0000    0.0000 C   0  0  0  0  0  0  0  0  0  0  0  0
    0.0000   -0.0000    0.0000 C   0  0  0  0  0  0  0  0  0  0  0  0
    1.4289    0.8250    0.0000 C   0  0  0  0  0  0  0  0  0  0  0  0
    0.0000    0.8250    0.0000 C   0  0  0  0  0  0  0  0  0  0  0  0
    0.7145    1.2375    0.0000 C   0  0  0  0  0  0  0  0  0  0  0  0
    1.1018   -1.1409    0.0000 C   0  0  0  0  0  0  0  0  0  0  0  0
    0.7145   -0.4125    0.0000 C   0  0  0  0  0  0  0  0  0  0  0  0
    2.1434    1.2375    0.0000 N   0  0  0  0  0  0  0  0  0  0  0  0
   -0.7145    1.2375    0.0000 O   0  0  0  0  0  0  0  0  0  0  0  0
    0.7145    2.0625    0.0000 O   0  0  0  0  0  0  0  0  0  0  0  0
    1.9263   -1.1697    0.0000 O   0  0  0  0  0  0  0  0  0  0  0  0
    0.6646   -1.8406    0.0000 O   0  0  0  0  0  0  0  0  0  0  0  0
    0.3272   -1.1409    0.0000 O   0  0  0  0  0  0  0  0  0  0  0  0
    2.8579    0.8250    0.0000 O   0  0  0  0  0  0  0  0  0  0  0  0
  3  1  1  0
  4  2  1  0
  4  9  1  1
  5  3  1  0
  5  4  1  0
  5 10  1  6
  7  1  1  0
  7  2  1  0
  7  6  1  0
  7 13  1  6
  8  3  2  0
 11  6  2  0
 12  6  1  0
 14  8  1  0
M  END
>  <DRUGBANK_ID>  (1) 
DB03739

>  <SECONDARY_ACCESSION_NUMBERS>  (1) 
EXPT01388

>  <COMMON_NAME>  (1) 
3-Hydroxyimino Quinic Acid

$$$$
