L5G
     RDKit          2D

 29 33  0  0  0  0  0  0  0  0999 V2000
    0.5699   -1.4563    0.0000 N   0  0  0  0  0  0  0  0  0  0  0  0
   -0.9292   -2.9487    0.0000 N   0  0  0  0  0  0  0  0  0  0  0  0
    1.9989   -1.4563    0.0000 C   0  0  0  0  0  0  0  0  0  0  0  0
    1.9989   -0.6313    0.0000 C   0  0  0  0  0  0  0  0  0  0  0  0
    2.7134   -0.2188    0.0000 C   0  0  0  0  0  0  0  0  0  0  0  0
    1.2844   -1.8688    0.0000 C   0  0  0  0  0  0  0  0  0  0  0  0
    1.2844   -2.6938    0.0000 C   0  0  0  0  0  0  0  0  0  0  0  0
   -0.1445   -2.6938    0.0000 C   0  0  0  0  0  0  0  0  0  0  0  0
   -2.2460    0.1269    0.0000 C   0  0  0  0  0  0  0  0  0  0  0  0
   -3.3079    1.0831    0.0000 C   0  0  0  0  0  0  0  0  0  0  0  0
   -1.9489    1.5247    0.0000 C   0  0  0  0  0  0  0  0  0  0  0  0
   -0.3350    1.1816    0.0000 C   0  0  0  0  0  0  0  0  0  0  0  0
   -0.8870    0.5685    0.0000 C   0  0  0  0  0  0  0  0  0  0  0  0
   -0.2928    3.3639    0.0000 C   0  0  0  0  0  0  0  0  0  0  0  0
   -0.0379    2.5793    0.0000 O   0  0  0  0  0  0  0  0  0  0  0  0
   -0.5899    1.9662    0.0000 C   0  0  0  0  0  0  0  0  0  0  0  0
   -1.3969    2.1377    0.0000 C   0  0  0  0  0  0  0  0  0  0  0  0
   -1.6940    0.7400    0.0000 C   0  0  0  0  0  0  0  0  0  0  0  0
   -2.7559    1.6962    0.0000 N   0  0  0  0  0  0  0  0  0  0  0  0
   -3.0530    0.2985    0.0000 C   0  0  0  0  0  0  0  0  0  0  0  0
   -1.9911   -0.6577    0.0000 O   0  0  0  0  0  0  0  0  0  0  0  0
   -1.1841   -0.8292    0.0000 C   0  0  0  0  0  0  0  0  0  0  0  0
   -0.9292   -1.6138    0.0000 C   0  0  0  0  0  0  0  0  0  0  0  0
   -0.1445   -1.8688    0.0000 N   0  0  0  0  0  0  0  0  0  0  0  0
   -1.4141   -2.2813    0.0000 N   0  0  0  0  0  0  0  0  0  0  0  0
    0.5699   -3.1063    0.0000 C   0  0  0  0  0  0  0  0  0  0  0  0
    2.7134   -1.8688    0.0000 C   0  0  0  0  0  0  0  0  0  0  0  0
    3.4278   -1.4563    0.0000 C   0  0  0  0  0  0  0  0  0  0  0  0
    3.4278   -0.6313    0.0000 C   0  0  0  0  0  0  0  0  0  0  0  0
  1  6  2  0
  1 24  1  0
  2  8  2  0
  2 25  1  0
  3  4  2  0
  3  6  1  0
  3 27  1  0
  4  5  1  0
  5 29  2  0
  6  7  1  0
  7 26  2  0
  8 24  1  0
  8 26  1  0
  9 18  1  0
  9 20  2  0
  9 21  1  0
 10 19  2  0
 10 20  1  0
 11 17  2  0
 11 18  1  0
 11 19  1  0
 12 13  1  0
 12 16  2  0
 13 18  2  0
 14 15  1  0
 15 16  1  0
 16 17  1  0
 21 22  1  0
 22 23  1  0
 23 24  1  0
 23 25  2  0
 27 28  2  0
 28 29  1  0
M  END
>  <DRUGBANK_ID>  (1) 
DB08079

>  <SECONDARY_ACCESSION_NUMBERS>  (1) 
DB12603

>  <COMMON_NAME>  (1) 
AMG-208

>  <CAS_NUMBER>  (1) 
1002304-34-8

>  <UNII>  (1) 
Y2SR66P7VM

>  <SYNONYMS>  (1) 
7-methoxy-4-[(6-phenyl[1,2,4]triazolo[4,3-b]pyridazin-3-yl)methoxy]quinoline

$$$$
