
     RDKit          2D

 15 17  0  0  1  0  0  0  0  0999 V2000
    3.1844    0.6303    0.0000 C   0  0  0  0  0  0  0  0  0  0  0  0
    2.7719    1.3448    0.0000 C   0  0  0  0  0  0  0  0  0  0  0  0
    3.1844    2.0593    0.0000 C   0  0  0  0  0  0  0  0  0  0  0  0
    4.0094    2.0593    0.0000 N   0  0  0  0  0  0  0  0  0  0  0  0
    4.4219    1.3448    0.0000 C   0  0  0  0  0  0  0  0  0  0  0  0
    4.0094    0.6303    0.0000 C   0  0  0  0  0  0  0  0  0  0  0  0
    4.4219   -0.0842    0.0000 Cl  0  0  0  0  0  0  0  0  0  0  0  0
    5.2469    1.3448    0.0000 Cl  0  0  0  0  0  0  0  0  0  0  0  0
    1.9469    1.3448    0.0000 N   0  0  0  0  0  0  0  0  0  0  0  0
    1.4620    0.6773    0.0000 C   0  0  0  0  0  0  0  0  0  0  0  0
    0.6773    0.9323    0.0000 C   0  0  0  0  0  0  0  0  0  0  0  0
   -0.1477    0.9323    0.0000 C   0  0  0  0  0  0  0  0  0  0  0  0
   -0.1477    1.7573    0.0000 N   0  0  0  0  0  0  0  0  0  0  0  0
    0.6773    1.7573    0.0000 C   0  0  0  0  0  0  0  0  0  0  0  0
    1.4620    2.0122    0.0000 C   0  0  0  0  0  0  0  0  0  0  0  0
  1  2  2  0
  1  6  1  0
  2  3  1  0
  2  9  1  0
  3  4  2  0
  4  5  1  0
  5  6  2  0
  5  8  1  0
  6  7  1  0
  9 10  1  0
  9 15  1  0
 11 10  1  6
 11 12  1  0
 11 14  1  0
 12 13  1  0
 14 13  1  0
 14 15  1  6
M  END
>  <DRUGBANK_ID>  (1) 
DB12527

>  <COMMON_NAME>  (1) 
Sofinicline

>  <CAS_NUMBER>  (1) 
799279-80-4

>  <UNII>  (1) 
SQC232V4YY

>  <SYNONYMS>  (1) 
Sofinicline

$$$$
