DEE
     RDKit          2D

 12 12  0  0  0  0  0  0  0  0999 V2000
    0.9929   -0.8699    0.0000 O   0  0  0  0  0  0  0  0  0  0  0  0
    0.3798   -0.3179    0.0000 C   0  0  0  0  0  0  0  0  0  0  0  0
    0.5513    0.4891    0.0000 O   0  0  0  0  0  0  0  0  0  0  0  0
    1.3360    0.7440    0.0000 C   0  0  0  0  0  0  0  0  0  0  0  0
    1.5075    1.5510    0.0000 C   0  0  0  0  0  0  0  0  0  0  0  0
   -0.4048   -0.5728    0.0000 C   0  0  0  0  0  0  0  0  0  0  0  0
   -0.6598   -1.3575    0.0000 C   0  0  0  0  0  0  0  0  0  0  0  0
   -0.1748   -2.0249    0.0000 C   0  0  0  0  0  0  0  0  0  0  0  0
   -1.0723   -0.0879    0.0000 C   0  0  0  0  0  0  0  0  0  0  0  0
   -1.0723    0.7371    0.0000 C   0  0  0  0  0  0  0  0  0  0  0  0
   -1.7397   -0.5728    0.0000 N   0  0  0  0  0  0  0  0  0  0  0  0
   -1.4848   -1.3575    0.0000 N   0  0  0  0  0  0  0  0  0  0  0  0
  1  2  2  0
  2  3  1  0
  2  6  1  0
  3  4  1  0
  4  5  1  0
  6  7  1  0
  6  9  2  0
  7  8  1  0
  7 12  2  0
  9 10  1  0
  9 11  1  0
 11 12  1  0
M  END
>  <DRUGBANK_ID>  (1) 
DB04271

>  <SECONDARY_ACCESSION_NUMBERS>  (1) 
EXPT01155

>  <COMMON_NAME>  (1) 
3,5-Dimethyl-1h-Pyrazole-4-Carboxylic Acid Ethyl Ester

>  <UNII>  (1) 
SS3UNU86DP

$$$$
