
     RDKit          2D

 24 26  0  0  0  0  0  0  0  0999 V2000
   -0.7495    0.9524    0.0000 C   0  0  0  0  0  0  0  0  0  0  0  0
    0.5200    1.3649    0.0000 O   0  0  0  0  0  0  0  0  0  0  0  0
   -0.7495    1.7774    0.0000 C   0  0  0  0  0  0  0  0  0  0  0  0
   -1.4640    0.5399    0.0000 C   0  0  0  0  0  0  0  0  0  0  0  0
    0.0350    2.0324    0.0000 C   0  0  0  0  0  0  0  0  0  0  0  0
   -1.4640    2.1899    0.0000 C   0  0  0  0  0  0  0  0  0  0  0  0
   -2.1784    0.9524    0.0000 C   0  0  0  0  0  0  0  0  0  0  0  0
   -2.1784    1.7774    0.0000 C   0  0  0  0  0  0  0  0  0  0  0  0
   -2.8929    2.1899    0.0000 C   0  0  0  0  0  0  0  0  0  0  0  0
   -3.6074    2.6024    0.0000 N   0  0  0  0  0  0  0  0  0  0  0  0
   -0.6793   -0.5399    0.0000 C   0  0  0  0  0  0  0  0  0  0  0  0
    0.7495   -0.5399    0.0000 C   0  0  0  0  0  0  0  0  0  0  0  0
   -0.6793   -1.3649    0.0000 C   0  0  0  0  0  0  0  0  0  0  0  0
    0.7495   -1.3649    0.0000 C   0  0  0  0  0  0  0  0  0  0  0  0
    0.0350   -1.7774    0.0000 C   0  0  0  0  0  0  0  0  0  0  0  0
    0.0350   -2.6024    0.0000 F   0  0  0  0  0  0  0  0  0  0  0  0
    0.0350   -0.1274    0.0000 C   0  0  0  0  0  0  0  0  0  0  0  0
    0.7495    0.2850    0.0000 C   0  0  0  0  0  0  0  0  0  0  0  0
    1.4639    0.6975    0.0000 C   0  0  0  0  0  0  0  0  0  0  0  0
    2.1784    0.2850    0.0000 C   0  0  0  0  0  0  0  0  0  0  0  0
    2.8929    0.6975    0.0000 N   0  0  0  0  0  0  0  0  0  0  0  0
    2.8929    1.5225    0.0000 C   0  0  0  0  0  0  0  0  0  0  0  0
    3.6074    0.2850    0.0000 C   0  0  0  0  0  0  0  0  0  0  0  0
    0.0350    0.6975    0.0000 C   0  0  0  0  0  0  0  0  0  0  0  0
  1  3  2  0
  1  4  1  0
  2  5  1  0
  3  6  1  0
  3  5  1  0
  4  7  2  0
  6  8  2  0
  7  8  1  0
  8  9  1  0
  9 10  3  0
 11 13  2  0
 12 14  1  0
 13 15  1  0
 14 15  2  0
 15 16  1  0
 17 11  1  0
 17 12  2  0
 18 19  1  0
 19 20  1  0
 20 21  1  0
 21 22  1  0
 21 23  1  0
 24  1  1  0
 24  2  1  0
 24 17  1  0
 24 18  1  6
M  END
>  <DRUGBANK_ID>  (1) 
DB01175

>  <SECONDARY_ACCESSION_NUMBERS>  (1) 
APRD00683

>  <COMMON_NAME>  (1) 
Escitalopram

>  <CAS_NUMBER>  (1) 
128196-01-0

>  <UNII>  (1) 
4O4S742ANY

>  <SYNONYMS>  (1) 
(+)-Citalopram; (S)-Citalopram; Escitalopram; Escitalopramum; S-(+)-Citalopram; S(+)-Citalopram

$$$$
