
     RDKit          2D

  8  7  0  0  0  0  0  0  0  0999 V2000
    0.7145    1.2375    0.0000 C   0  0  0  0  0  0  0  0  0  0  0  0
    0.7145    2.0625    0.0000 C   0  0  0  0  0  0  0  0  0  0  0  0
    0.0000    0.8250    0.0000 C   0  0  0  0  0  0  0  0  0  0  0  0
    1.4289    2.4750    0.0000 N   0  0  0  0  0  0  0  0  0  0  0  0
   -0.0000   -0.8250    0.0000 O   0  0  0  0  0  0  0  0  0  0  0  0
   -0.8250    0.0000    0.0000 O   0  0  0  0  0  0  0  0  0  0  0  0
    0.8250    0.0000    0.0000 O   0  0  0  0  0  0  0  0  0  0  0  0
    0.0000    0.0000    0.0000 S   0  0  0  0  0  0  0  0  0  0  0  0
  2  1  1  0
  3  1  1  0
  4  2  1  0
  8  3  1  0
  8  5  1  0
  8  6  2  0
  8  7  2  0
M  END
>  <DRUGBANK_ID>  (1) 
DB06527

>  <COMMON_NAME>  (1) 
Tramiprosate

>  <CAS_NUMBER>  (1) 
3687-18-1

>  <UNII>  (1) 
5K8EAX0G53

>  <SYNONYMS>  (1) 
Tramiprosate

$$$$
