8AP
     RDKit          2D

 15 16  0  0  0  0  0  0  0  0999 V2000
    2.3450   -0.0326    0.0000 N   0  0  0  0  0  0  0  0  0  0  0  0
    2.3450   -0.8576    0.0000 C   0  0  0  0  0  0  0  0  0  0  0  0
    3.0594   -1.2701    0.0000 N   0  0  0  0  0  0  0  0  0  0  0  0
    3.0594   -2.0951    0.0000 C   0  0  0  0  0  0  0  0  0  0  0  0
    2.3450   -2.5076    0.0000 C   0  0  0  0  0  0  0  0  0  0  0  0
    1.6305   -2.0951    0.0000 C   0  0  0  0  0  0  0  0  0  0  0  0
    1.6305   -1.2701    0.0000 C   0  0  0  0  0  0  0  0  0  0  0  0
    0.9160   -0.8576    0.0000 N   0  0  0  0  0  0  0  0  0  0  0  0
    0.2016   -1.2701    0.0000 C   0  0  0  0  0  0  0  0  0  0  0  0
   -0.5129   -0.8576    0.0000 C   0  0  0  0  0  0  0  0  0  0  0  0
   -1.2274   -1.2701    0.0000 C   0  0  0  0  0  0  0  0  0  0  0  0
   -1.9419   -0.8576    0.0000 C   0  0  0  0  0  0  0  0  0  0  0  0
   -1.9419   -0.0326    0.0000 C   0  0  0  0  0  0  0  0  0  0  0  0
   -1.2274    0.3799    0.0000 C   0  0  0  0  0  0  0  0  0  0  0  0
   -0.5129   -0.0326    0.0000 C   0  0  0  0  0  0  0  0  0  0  0  0
  1  2  1  0
  2  3  2  0
  2  7  1  0
  3  4  1  0
  4  5  2  0
  5  6  1  0
  6  7  2  0
  7  8  1  0
  8  9  1  0
  9 10  1  0
 10 11  2  0
 10 15  1  0
 11 12  1  0
 12 13  2  0
 13 14  1  0
 14 15  2  0
M  END
>  <DRUGBANK_ID>  (1) 
DB07281

>  <COMMON_NAME>  (1) 
N~3~-BENZYLPYRIDINE-2,3-DIAMINE

$$$$
