
     RDKit          2D

 26 25  0  0  0  0  0  0  0  0999 V2000
   -3.2151   -1.8562    0.0000 N   0  0  0  0  0  0  0  0  0  0  0  0
   -3.2151   -1.0312    0.0000 C   0  0  0  0  0  0  0  0  0  0  0  0
   -2.5006   -0.6187    0.0000 C   0  0  0  0  0  0  0  0  0  0  0  0
   -1.7861   -1.0312    0.0000 C   0  0  0  0  0  0  0  0  0  0  0  0
   -1.0717   -0.6187    0.0000 C   0  0  0  0  0  0  0  0  0  0  0  0
   -1.0717    0.2062    0.0000 O   0  0  0  0  0  0  0  0  0  0  0  0
   -0.3572   -1.0312    0.0000 N   0  0  0  0  0  0  0  0  0  0  0  0
    0.3572   -0.6187    0.0000 C   0  0  0  0  0  0  0  0  0  0  0  0
    0.3572    0.2062    0.0000 C   0  0  0  0  0  0  0  0  0  0  0  0
    1.0716   -1.0313    0.0000 C   0  0  0  0  0  0  0  0  0  0  0  0
    1.0716   -1.8563    0.0000 O   0  0  0  0  0  0  0  0  0  0  0  0
    1.7861   -0.6188    0.0000 N   0  0  0  0  0  0  0  0  0  0  0  0
    2.5006   -1.0313    0.0000 C   0  0  0  0  0  0  0  0  0  0  0  0
    3.2151   -0.6188    0.0000 C   0  0  0  0  0  0  0  0  0  0  0  0
    3.2151    0.2061    0.0000 O   0  0  0  0  0  0  0  0  0  0  0  0
    3.9295   -1.0313    0.0000 O   0  0  0  0  0  0  0  0  0  0  0  0
   -3.9296   -0.6188    0.0000 C   0  0  0  0  0  0  0  0  0  0  0  0
   -3.9296    0.2062    0.0000 O   0  0  0  0  0  0  0  0  0  0  0  0
   -4.6440   -1.0313    0.0000 O   0  0  0  0  0  0  0  0  0  0  0  0
    1.0716    0.6187    0.0000 S   0  0  0  0  0  0  0  0  0  0  0  0
    1.0716    1.4438    0.0000 C   0  0  0  0  0  0  0  0  0  0  0  0
    1.7861    1.8563    0.0000 C   0  0  0  0  0  0  0  0  0  0  0  0
    2.5005    1.4438    0.0000 C   0  0  0  0  0  0  0  0  0  0  0  0
    3.2150    1.8563    0.0000 C   0  0  0  0  0  0  0  0  0  0  0  0
    3.9295    1.4438    0.0000 C   0  0  0  0  0  0  0  0  0  0  0  0
    4.6440    1.8563    0.0000 C   0  0  0  0  0  0  0  0  0  0  0  0
  2  1  1  6
  2  3  1  0
  2 17  1  0
  3  4  1  0
  4  5  1  0
  5  6  2  0
  5  7  1  0
  7  8  1  0
  8  9  1  1
  8 10  1  0
  9 20  1  0
 10 11  2  0
 10 12  1  0
 12 13  1  0
 13 14  1  0
 14 15  2  0
 14 16  1  0
 17 18  2  0
 17 19  1  0
 20 21  1  0
 21 22  1  0
 22 23  1  0
 23 24  1  0
 24 25  1  0
 25 26  1  0
M  END
>  <DRUGBANK_ID>  (1) 
DB04132

>  <SECONDARY_ACCESSION_NUMBERS>  (1) 
EXPT01664

>  <COMMON_NAME>  (1) 
S-Hexylglutathione

>  <CAS_NUMBER>  (1) 
24425-56-7

>  <UNII>  (1) 
M73SNN908F

>  <SYNONYMS>  (1) 
Hexylglutathione; S-Hexyl-glutathione; S-Hexyl-L-glutathione

$$$$
