
     RDKit          2D

 18 18  0  0  0  0  0  0  0  0999 V2000
   -2.1324   -0.0017    0.0000 C   0  0  0  0  0  0  0  0  0  0  0  0
   -1.4152    0.4070    0.0000 C   0  0  0  0  0  0  0  0  0  0  0  0
   -2.8045    0.4381    0.0000 C   0  0  0  0  0  0  0  0  0  0  0  0
   -2.1186   -0.8194    0.0000 C   0  0  0  0  0  0  0  0  0  0  0  0
   -0.7119   -0.0190    0.0000 O   0  0  0  0  0  0  0  0  0  0  0  0
   -1.4152    1.2386    0.0000 O   0  0  0  0  0  0  0  0  0  0  0  0
   -3.5600    0.0051    0.0000 C   0  0  0  0  0  0  0  0  0  0  0  0
   -2.8045    1.1865    0.0000 O   0  0  0  0  0  0  0  0  0  0  0  0
   -2.8844   -1.2214    0.0000 C   0  0  0  0  0  0  0  0  0  0  0  0
    0.0087    0.4000    0.0000 C   0  0  0  0  0  0  0  0  0  0  0  0
   -3.5600   -0.8194    0.0000 C   0  0  0  0  0  0  0  0  0  0  0  0
    0.6981   -0.0155    0.0000 C   0  0  0  0  0  0  0  0  0  0  0  0
    1.4222    0.4000    0.0000 C   0  0  0  0  0  0  0  0  0  0  0  0
    0.6981   -0.8229    0.0000 C   0  0  0  0  0  0  0  0  0  0  0  0
    2.1256   -0.0190    0.0000 C   0  0  0  0  0  0  0  0  0  0  0  0
    1.4154   -1.2386    0.0000 C   0  0  0  0  0  0  0  0  0  0  0  0
    2.8428    0.4000    0.0000 C   0  0  0  0  0  0  0  0  0  0  0  0
    3.5600   -0.0329    0.0000 C   0  0  0  0  0  0  0  0  0  0  0  0
  1  2  1  0
  1  3  2  0
  1  4  1  0
  2  5  1  0
  2  6  2  0
  3  7  1  0
  3  8  1  0
  4  9  2  0
  5 10  1  0
  7 11  2  0
  9 11  1  0
 10 12  1  0
 12 13  1  0
 12 14  1  0
 13 15  1  0
 14 16  1  0
 15 17  1  0
 17 18  1  0
M  END
>  <DRUGBANK_ID>  (1) 
DB11062

>  <COMMON_NAME>  (1) 
Octisalate

>  <CAS_NUMBER>  (1) 
118-60-5

>  <UNII>  (1) 
4X49Y0596W

>  <SYNONYMS>  (1) 
2-Ethylhexyl 2-hydroxybenzoate; 2-Ethylhexyl salicylate; Octisalate; Octyl salicylate

$$$$
