26C
     RDKit          2D

 17 18  0  0  0  0  0  0  0  0999 V2000
    0.6491    2.8772    0.0000 O   0  0  0  0  0  0  0  0  0  0  0  0
   -0.0653    2.4647    0.0000 C   0  0  0  0  0  0  0  0  0  0  0  0
   -0.7798    2.8772    0.0000 O   0  0  0  0  0  0  0  0  0  0  0  0
   -0.0653    1.6397    0.0000 C   0  0  0  0  0  0  0  0  0  0  0  0
    0.6491    1.2272    0.0000 C   0  0  0  0  0  0  0  0  0  0  0  0
   -0.7798    1.2272    0.0000 C   0  0  0  0  0  0  0  0  0  0  0  0
   -0.7798    0.4022    0.0000 C   0  0  0  0  0  0  0  0  0  0  0  0
   -0.0653   -0.0103    0.0000 C   0  0  0  0  0  0  0  0  0  0  0  0
    0.6491    0.4022    0.0000 C   0  0  0  0  0  0  0  0  0  0  0  0
   -0.0653   -0.8353    0.0000 C   0  0  0  0  0  0  0  0  0  0  0  0
    0.6491   -1.2478    0.0000 C   0  0  0  0  0  0  0  0  0  0  0  0
    1.3636   -0.8353    0.0000 F   0  0  0  0  0  0  0  0  0  0  0  0
    0.6491   -2.0728    0.0000 C   0  0  0  0  0  0  0  0  0  0  0  0
   -0.0653   -2.4853    0.0000 C   0  0  0  0  0  0  0  0  0  0  0  0
   -0.7798   -2.0728    0.0000 C   0  0  0  0  0  0  0  0  0  0  0  0
   -0.7798   -1.2478    0.0000 C   0  0  0  0  0  0  0  0  0  0  0  0
   -1.4943   -0.8353    0.0000 F   0  0  0  0  0  0  0  0  0  0  0  0
  1  2  2  0
  2  3  1  0
  2  4  1  0
  4  5  2  0
  4  6  1  0
  5  9  1  0
  6  7  2  0
  7  8  1  0
  8  9  2  0
  8 10  1  0
 10 11  2  0
 10 16  1  0
 11 12  1  0
 11 13  1  0
 13 14  2  0
 14 15  1  0
 15 16  2  0
 16 17  1  0
M  END
>  <DRUGBANK_ID>  (1) 
DB06935

>  <COMMON_NAME>  (1) 
2',6'-DIFLUOROBIPHENYL-4-CARBOXYLIC ACID

$$$$
