
     RDKit          2D

 13 13  0  0  1  0  0  0  0  0999 V2000
    1.5783    2.2433    0.0000 N   0  0  0  0  0  0  0  0  0  0  0  0
    2.1913    1.6913    0.0000 C   0  0  0  0  0  0  0  0  0  0  0  0
    2.0198    0.8843    0.0000 C   0  0  0  0  0  0  0  0  0  0  0  0
    1.2352    0.6294    0.0000 N   0  0  0  0  0  0  0  0  0  0  0  0
    0.9803   -0.1553    0.0000 O   0  0  0  0  0  0  0  0  0  0  0  0
    0.1553   -0.1553    0.0000 C   0  0  0  0  0  0  0  0  0  0  0  0
   -0.3297   -0.8227    0.0000 O   0  0  0  0  0  0  0  0  0  0  0  0
   -0.0997    0.6294    0.0000 N   0  0  0  0  0  0  0  0  0  0  0  0
    0.5678    1.1143    0.0000 C   0  0  0  0  0  0  0  0  0  0  0  0
    0.5678    1.9393    0.0000 O   0  0  0  0  0  0  0  0  0  0  0  0
    2.9760    1.9462    0.0000 C   0  0  0  0  0  0  0  0  0  0  0  0
    3.1475    2.7532    0.0000 O   0  0  0  0  0  0  0  0  0  0  0  0
    3.5891    1.3942    0.0000 O   0  0  0  0  0  0  0  0  0  0  0  0
  2  1  1  6
  2  3  1  0
  2 11  1  0
  3  4  1  0
  4  5  1  0
  4  9  1  0
  5  6  1  0
  6  7  2  0
  6  8  1  0
  8  9  1  0
  9 10  2  0
 11 12  1  0
 11 13  2  0
M  END
>  <DRUGBANK_ID>  (1) 
DB02999

>  <SECONDARY_ACCESSION_NUMBERS>  (1) 
EXPT02735

>  <COMMON_NAME>  (1) 
Quisqualic acid

>  <CAS_NUMBER>  (1) 
52809-07-1

>  <UNII>  (1) 
8OC22C1B99

>  <SYNONYMS>  (1) 
Quisqualate

$$$$
