
     RDKit          2D

 21 23  0  0  0  0  0  0  0  0999 V2000
   -2.3804   -0.7379    0.0000 C   0  0  0  0  0  0  0  0  0  0  0  0
   -1.4242   -1.7998    0.0000 C   0  0  0  0  0  0  0  0  0  0  0  0
   -1.1867    1.6283    0.0000 C   0  0  0  0  0  0  0  0  0  0  0  0
    2.1254    1.6283    0.0000 C   0  0  0  0  0  0  0  0  0  0  0  0
   -1.4416    0.8437    0.0000 C   0  0  0  0  0  0  0  0  0  0  0  0
   -0.3797    1.7998    0.0000 C   0  0  0  0  0  0  0  0  0  0  0  0
    1.3184    1.7998    0.0000 C   0  0  0  0  0  0  0  0  0  0  0  0
    2.3804    0.8437    0.0000 C   0  0  0  0  0  0  0  0  0  0  0  0
   -0.8896    0.2306    0.0000 C   0  0  0  0  0  0  0  0  0  0  0  0
    0.1722    1.1868    0.0000 C   0  0  0  0  0  0  0  0  0  0  0  0
    0.7664    1.1868    0.0000 C   0  0  0  0  0  0  0  0  0  0  0  0
    1.8283    0.2306    0.0000 C   0  0  0  0  0  0  0  0  0  0  0  0
    0.0568   -1.4804    0.0000 C   0  0  0  0  0  0  0  0  0  0  0  0
    0.8818   -1.4804    0.0000 C   0  0  0  0  0  0  0  0  0  0  0  0
   -0.9826   -0.4408    0.0000 C   0  0  0  0  0  0  0  0  0  0  0  0
   -0.0826    0.4021    0.0000 C   0  0  0  0  0  0  0  0  0  0  0  0
    1.0214    0.4021    0.0000 C   0  0  0  0  0  0  0  0  0  0  0  0
   -0.1980   -0.6958    0.0000 C   0  0  0  0  0  0  0  0  0  0  0  0
    0.4693   -0.2109    0.0000 C   0  0  0  0  0  0  0  0  0  0  0  0
   -1.5957   -0.9929    0.0000 N   0  0  0  0  0  0  0  0  0  0  0  0
    1.1368   -0.6958    0.0000 O   0  0  0  0  0  0  0  0  0  0  0  0
  5  3  2  0
  6  3  1  0
  7  4  2  0
  8  4  1  0
  9  5  1  0
 10  6  2  0
 11  7  1  0
 12  8  2  0
 14 13  1  0
 16  9  2  0
 16 10  1  0
 17 11  2  0
 17 12  1  0
 18 13  1  0
 18 15  1  0
 19 16  1  0
 19 17  1  0
 19 18  1  0
 20  1  1  0
 20  2  1  0
 20 15  1  0
 21 14  1  0
 21 19  1  0
M  END
>  <DRUGBANK_ID>  (1) 
DB05592

>  <COMMON_NAME>  (1) 
Blarcamesine

>  <CAS_NUMBER>  (1) 
195615-83-9

>  <UNII>  (1) 
9T210MMZ3F

>  <SYNONYMS>  (1) 
Anavex 2-73; ANAVEX 2-73 FREE BASE; ANAVEX2-73; ANAVEX2-73 free base; Blarcamesine; Tetrahydro-N,N-dimethyl-2,2-diphenyl-3-furanemethanamine; THD-DP-FM

$$$$
