92G
     RDKit          2D

 13 14  0  0  0  0  0  0  0  0999 V2000
    0.1141    2.7460    0.0000 O   0  0  0  0  0  0  0  0  0  0  0  0
    0.8285    0.6835    0.0000 C   0  0  0  0  0  0  0  0  0  0  0  0
    0.8285    1.5085    0.0000 C   0  0  0  0  0  0  0  0  0  0  0  0
    0.1141    1.9210    0.0000 C   0  0  0  0  0  0  0  0  0  0  0  0
   -0.6004    0.6835    0.0000 C   0  0  0  0  0  0  0  0  0  0  0  0
   -0.6004    1.5085    0.0000 C   0  0  0  0  0  0  0  0  0  0  0  0
    0.1141    0.2710    0.0000 C   0  0  0  0  0  0  0  0  0  0  0  0
    0.1141   -0.5540    0.0000 C   0  0  0  0  0  0  0  0  0  0  0  0
    0.5266   -1.8236    0.0000 C   0  0  0  0  0  0  0  0  0  0  0  0
   -0.5534   -1.0389    0.0000 C   0  0  0  0  0  0  0  0  0  0  0  0
   -0.2984   -1.8236    0.0000 S   0  0  0  0  0  0  0  0  0  0  0  0
    0.7815   -1.0389    0.0000 N   0  0  0  0  0  0  0  0  0  0  0  0
    1.0115   -2.4910    0.0000 N   0  0  0  0  0  0  0  0  0  0  0  0
  1  4  1  0
  2  7  2  0
  3  2  1  0
  3  4  2  0
  4  6  1  0
  6  5  2  0
  7  5  1  0
  7  8  1  0
  8 12  1  0
  9 13  1  0
 10  8  2  0
 10 11  1  0
 11  9  1  0
 12  9  2  0
M  END
>  <DRUGBANK_ID>  (1) 
DB07292

>  <COMMON_NAME>  (1) 
4-(2-amino-1,3-thiazol-4-yl)phenol

>  <UNII>  (1) 
MLP0GI2196

$$$$
