
     RDKit          2D

 22 24  0  0  0  0  0  0  0  0999 V2000
    1.0299   -1.7219    0.0000 C   0  0  0  0  0  0  0  0  0  0  0  0
    2.3173   -2.3419    0.0000 C   0  0  0  0  0  0  0  0  0  0  0  0
    3.8037    2.5203    0.0000 C   0  0  0  0  0  0  0  0  0  0  0  0
    6.1237    0.8510    0.0000 C   0  0  0  0  0  0  0  0  0  0  0  0
    5.9401    1.6553    0.0000 C   0  0  0  0  0  0  0  0  0  0  0  0
    1.6673    1.6553    0.0000 C   0  0  0  0  0  0  0  0  0  0  0  0
    1.4837    0.8510    0.0000 C   0  0  0  0  0  0  0  0  0  0  0  0
    5.5189    0.2898    0.0000 C   0  0  0  0  0  0  0  0  0  0  0  0
    5.1517    1.8985    0.0000 C   0  0  0  0  0  0  0  0  0  0  0  0
    2.4556    1.8985    0.0000 C   0  0  0  0  0  0  0  0  0  0  0  0
    2.0884    0.2898    0.0000 C   0  0  0  0  0  0  0  0  0  0  0  0
    2.2105   -0.9170    0.0000 C   0  0  0  0  0  0  0  0  0  0  0  0
    3.0332   -0.8553    0.0000 C   0  0  0  0  0  0  0  0  0  0  0  0
    4.7305    0.5330    0.0000 C   0  0  0  0  0  0  0  0  0  0  0  0
    4.5470    1.3373    0.0000 C   0  0  0  0  0  0  0  0  0  0  0  0
    3.0604    1.3373    0.0000 C   0  0  0  0  0  0  0  0  0  0  0  0
    2.8768    0.5330    0.0000 C   0  0  0  0  0  0  0  0  0  0  0  0
    4.2162   -0.1120    0.0000 C   0  0  0  0  0  0  0  0  0  0  0  0
    1.8526   -1.6603    0.0000 N   0  0  0  0  0  0  0  0  0  0  0  0
    3.8037    1.6953    0.0000 N   0  0  0  0  0  0  0  0  0  0  0  0
    3.3912   -0.1120    0.0000 N   0  0  0  0  0  0  0  0  0  0  0  0
    4.5741   -0.8553    0.0000 O   0  0  0  0  0  0  0  0  0  0  0  0
  5  4  2  0
  7  6  2  0
  8  4  1  0
  9  5  1  0
 10  6  1  0
 11  7  1  0
 13 12  1  0
 14  8  2  0
 15  9  2  0
 15 14  1  0
 16 10  2  0
 17 11  2  0
 17 16  1  0
 18 14  1  0
 19  1  1  0
 19  2  1  0
 19 12  1  0
 20  3  1  0
 20 15  1  0
 20 16  1  0
 21 13  1  0
 21 17  1  0
 21 18  1  0
 22 18  2  0
M  END
>  <DRUGBANK_ID>  (1) 
DB13225

>  <COMMON_NAME>  (1) 
Dibenzepin

>  <CAS_NUMBER>  (1) 
4498-32-2

>  <UNII>  (1) 
510SJZ1Y6L

>  <SYNONYMS>  (1) 
Dibenzepin

$$$$
