277
     RDKit          2D

 23 24  0  0  0  0  0  0  0  0999 V2000
    2.3808   -0.4343    0.0000 C   0  0  0  0  0  0  0  0  0  0  0  0
    2.2093   -1.2412    0.0000 C   0  0  0  0  0  0  0  0  0  0  0  0
    1.4247   -1.4962    0.0000 C   0  0  0  0  0  0  0  0  0  0  0  0
    0.8116   -0.9441    0.0000 C   0  0  0  0  0  0  0  0  0  0  0  0
    0.9831   -0.1372    0.0000 C   0  0  0  0  0  0  0  0  0  0  0  0
    1.7677    0.1178    0.0000 C   0  0  0  0  0  0  0  0  0  0  0  0
    1.2531   -2.3031    0.0000 C   0  0  0  0  0  0  0  0  0  0  0  0
    0.4685   -2.5581    0.0000 C   0  0  0  0  0  0  0  0  0  0  0  0
    0.2970   -3.3651    0.0000 C   0  0  0  0  0  0  0  0  0  0  0  0
   -0.4876   -3.6200    0.0000 N   0  0  0  0  0  0  0  0  0  0  0  0
    1.9392    0.9247    0.0000 N   0  0  0  0  0  0  0  0  0  0  0  0
    1.3261    1.4768    0.0000 C   0  0  0  0  0  0  0  0  0  0  0  0
    2.7239    1.1797    0.0000 C   0  0  0  0  0  0  0  0  0  0  0  0
    1.4977    2.2837    0.0000 C   0  0  0  0  0  0  0  0  0  0  0  0
    0.5415    1.2218    0.0000 O   0  0  0  0  0  0  0  0  0  0  0  0
    0.9101   -3.9171    0.0000 O   0  0  0  0  0  0  0  0  0  0  0  0
   -0.1446   -2.0061    0.0000 N   0  0  0  0  0  0  0  0  0  0  0  0
    1.8662   -2.8552    0.0000 C   0  0  0  0  0  0  0  0  0  0  0  0
   -0.7426   -4.4046    0.0000 C   0  0  0  0  0  0  0  0  0  0  0  0
   -1.5676   -4.4046    0.0000 C   0  0  0  0  0  0  0  0  0  0  0  0
   -1.8225   -3.6200    0.0000 C   0  0  0  0  0  0  0  0  0  0  0  0
   -1.1551   -3.1351    0.0000 C   0  0  0  0  0  0  0  0  0  0  0  0
   -2.0525   -5.0721    0.0000 F   0  0  0  0  0  0  0  0  0  0  0  0
  1  2  1  0
  1  6  1  0
  3  2  1  1
  3  7  1  0
  3  4  1  0
  4  5  1  0
  5  6  1  0
  6 11  1  6
  7  8  1  0
  7 18  1  6
  8 17  1  1
  8  9  1  0
  9 10  1  0
  9 16  2  0
 10 19  1  0
 10 22  1  0
 11 13  1  0
 11 12  1  0
 12 15  2  0
 12 14  1  0
 19 20  1  0
 20 21  1  0
 20 23  1  1
 21 22  1  0
M  END
>  <DRUGBANK_ID>  (1) 
DB06939

>  <COMMON_NAME>  (1) 
N-(TRANS-4-{(1S,2S)-2-AMINO-3-[(3S)-3-FLUOROPYRROLIDIN-1-YL]-1-METHYL-3-OXOPROPYL}CYCLOHEXYL)-N-METHYLACETAMIDE

$$$$
