DHP
     RDKit          2D

 18 18  0  0  0  0  0  0  0  0999 V2000
   -4.2441    0.3462    0.0000 N   0  0  0  0  0  0  0  0  0  0  0  0
   -3.0246    0.8892    0.0000 C   0  0  0  0  0  0  0  0  0  0  0  0
   -2.4115    1.4412    0.0000 O   0  0  0  0  0  0  0  0  0  0  0  0
   -3.8316    1.0607    0.0000 C   0  0  0  0  0  0  0  0  0  0  0  0
   -4.1671    1.8144    0.0000 O   0  0  0  0  0  0  0  0  0  0  0  0
   -3.6920   -0.2669    0.0000 C   0  0  0  0  0  0  0  0  0  0  0  0
   -3.8636   -1.0738    0.0000 O   0  0  0  0  0  0  0  0  0  0  0  0
   -2.9384    0.0687    0.0000 C   0  0  0  0  0  0  0  0  0  0  0  0
   -2.2239   -0.3438    0.0000 C   0  0  0  0  0  0  0  0  0  0  0  0
   -1.5094    0.0687    0.0000 C   0  0  0  0  0  0  0  0  0  0  0  0
   -0.7949   -0.3438    0.0000 C   0  0  0  0  0  0  0  0  0  0  0  0
   -0.0805    0.0687    0.0000 C   0  0  0  0  0  0  0  0  0  0  0  0
    0.6340   -0.3438    0.0000 C   0  0  0  0  0  0  0  0  0  0  0  0
    1.3485    0.0687    0.0000 C   0  0  0  0  0  0  0  0  0  0  0  0
    2.0629   -0.3438    0.0000 C   0  0  0  0  0  0  0  0  0  0  0  0
    2.7774    0.0687    0.0000 C   0  0  0  0  0  0  0  0  0  0  0  0
    3.4919   -0.3438    0.0000 C   0  0  0  0  0  0  0  0  0  0  0  0
    4.2064    0.0687    0.0000 C   0  0  0  0  0  0  0  0  0  0  0  0
  1  4  1  0
  1  6  1  0
  2  3  1  0
  2  4  1  0
  2  8  2  0
  4  5  2  0
  6  7  2  0
  6  8  1  0
  8  9  1  0
  9 10  1  0
 10 11  1  0
 11 12  1  0
 12 13  1  0
 13 14  1  0
 14 15  1  0
 15 16  1  0
 16 17  1  0
 17 18  1  0
M  END
>  <DRUGBANK_ID>  (1) 
DB03064

>  <SECONDARY_ACCESSION_NUMBERS>  (1) 
EXPT01195

>  <COMMON_NAME>  (1) 
3-Decyl-2,5-Dioxo-4-Hydroxy-3-Pyrroline

$$$$
