BQM
     RDKit          2D

 32 34  0  0  0  0  0  0  0  0999 V2000
    0.3856    2.9567    0.0000 F   0  0  0  0  0  0  0  0  0  0  0  0
    0.3856    2.1317    0.0000 C   0  0  0  0  0  0  0  0  0  0  0  0
    1.2106    2.1317    0.0000 F   0  0  0  0  0  0  0  0  0  0  0  0
   -0.4394    2.1317    0.0000 F   0  0  0  0  0  0  0  0  0  0  0  0
    0.3856    1.3067    0.0000 C   0  0  0  0  0  0  0  0  0  0  0  0
   -0.3288    0.8942    0.0000 C   0  0  0  0  0  0  0  0  0  0  0  0
   -1.0433    1.3067    0.0000 C   0  0  0  0  0  0  0  0  0  0  0  0
   -1.7578    1.7192    0.0000 F   0  0  0  0  0  0  0  0  0  0  0  0
   -1.4558    0.5922    0.0000 F   0  0  0  0  0  0  0  0  0  0  0  0
   -0.8718    2.1136    0.0000 F   0  0  0  0  0  0  0  0  0  0  0  0
    1.1001    0.8942    0.0000 C   0  0  0  0  0  0  0  0  0  0  0  0
    1.8146    1.3067    0.0000 S   0  0  0  0  0  0  0  0  0  0  0  0
    2.5291    0.8942    0.0000 C   0  0  0  0  0  0  0  0  0  0  0  0
    3.2435    1.3067    0.0000 C   0  0  0  0  0  0  0  0  0  0  0  0
    3.9580    0.8942    0.0000 C   0  0  0  0  0  0  0  0  0  0  0  0
    4.6725    1.3067    0.0000 N   0  0  0  0  0  0  0  0  0  0  0  0
    3.9580    0.0692    0.0000 C   0  0  0  0  0  0  0  0  0  0  0  0
    3.2435   -0.3433    0.0000 C   0  0  0  0  0  0  0  0  0  0  0  0
    2.5291    0.0692    0.0000 C   0  0  0  0  0  0  0  0  0  0  0  0
    1.1001    0.0692    0.0000 C   0  0  0  0  0  0  0  0  0  0  0  0
    0.3856   -0.3433    0.0000 C   0  0  0  0  0  0  0  0  0  0  0  0
   -0.3288    0.0692    0.0000 C   0  0  0  0  0  0  0  0  0  0  0  0
   -1.0433   -0.3433    0.0000 C   0  0  0  0  0  0  0  0  0  0  0  0
   -1.0433   -1.1683    0.0000 C   0  0  0  0  0  0  0  0  0  0  0  0
   -1.7578   -1.5808    0.0000 C   0  0  0  0  0  0  0  0  0  0  0  0
   -2.4722   -1.1683    0.0000 O   0  0  0  0  0  0  0  0  0  0  0  0
   -1.7578   -2.4058    0.0000 N   0  0  0  0  0  0  0  0  0  0  0  0
   -1.0433   -2.8183    0.0000 C   0  0  0  0  0  0  0  0  0  0  0  0
   -1.0433   -3.6433    0.0000 C   0  0  0  0  0  0  0  0  0  0  0  0
   -1.7578   -4.0558    0.0000 O   0  0  0  0  0  0  0  0  0  0  0  0
   -2.4722   -3.6433    0.0000 C   0  0  0  0  0  0  0  0  0  0  0  0
   -2.4722   -2.8183    0.0000 C   0  0  0  0  0  0  0  0  0  0  0  0
  1  2  1  0
  2  3  1  0
  2  4  1  0
  2  5  1  0
  5  6  2  0
  5 11  1  0
  6  7  1  0
  6 22  1  0
  7  8  1  0
  7  9  1  0
  7 10  1  0
 11 12  1  0
 11 20  2  0
 12 13  1  0
 13 14  2  0
 13 19  1  0
 14 15  1  0
 15 16  1  0
 15 17  2  0
 17 18  1  0
 18 19  2  0
 20 21  1  0
 21 22  2  0
 22 23  1  0
 23 24  2  0
 24 25  1  0
 25 26  2  0
 25 27  1  0
 27 28  1  0
 27 32  1  0
 28 29  1  0
 29 30  1  0
 30 31  1  0
 31 32  1  0
M  END
>  <DRUGBANK_ID>  (1) 
DB07486

>  <COMMON_NAME>  (1) 
3-({4-[(1E)-3-morpholin-4-yl-3-oxoprop-1-en-1-yl]-2,3-bis(trifluoromethyl)phenyl}sulfanyl)aniline

$$$$
