3BM
     RDKit          2D

 26 27  0  0  0  0  0  0  0  0999 V2000
   -2.9234   -0.9946    0.0000 C   0  0  0  0  0  0  0  0  0  0  0  0
   -3.6379   -0.5821    0.0000 C   0  0  0  0  0  0  0  0  0  0  0  0
   -4.3524   -0.9946    0.0000 C   0  0  0  0  0  0  0  0  0  0  0  0
   -4.3524   -1.8196    0.0000 C   0  0  0  0  0  0  0  0  0  0  0  0
   -3.6379   -2.2321    0.0000 C   0  0  0  0  0  0  0  0  0  0  0  0
   -2.9234   -1.8196    0.0000 C   0  0  0  0  0  0  0  0  0  0  0  0
   -2.2090   -0.5821    0.0000 N   0  0  0  0  0  0  0  0  0  0  0  0
   -2.2090    0.2429    0.0000 C   0  0  0  0  0  0  0  0  0  0  0  0
   -1.4945    0.6554    0.0000 C   0  0  0  0  0  0  0  0  0  0  0  0
   -1.4945    1.4804    0.0000 C   0  0  0  0  0  0  0  0  0  0  0  0
   -2.2090    1.8929    0.0000 C   0  0  0  0  0  0  0  0  0  0  0  0
   -2.9234    1.4804    0.0000 C   0  0  0  0  0  0  0  0  0  0  0  0
   -2.9234    0.6554    0.0000 C   0  0  0  0  0  0  0  0  0  0  0  0
   -0.7800    0.2429    0.0000 C   0  0  0  0  0  0  0  0  0  0  0  0
   -0.0656    0.6554    0.0000 N   0  0  0  0  0  0  0  0  0  0  0  0
   -0.7800   -0.5821    0.0000 O   0  0  0  0  0  0  0  0  0  0  0  0
    0.6489    0.2429    0.0000 O   0  0  0  0  0  0  0  0  0  0  0  0
    1.3634    0.6554    0.0000 C   0  0  0  0  0  0  0  0  0  0  0  0
    2.0778    0.2429    0.0000 C   0  0  0  0  0  0  0  0  0  0  0  0
    2.7923    0.6554    0.0000 C   0  0  0  0  0  0  0  0  0  0  0  0
    2.0778   -0.5821    0.0000 O   0  0  0  0  0  0  0  0  0  0  0  0
    3.5068    0.2429    0.0000 O   0  0  0  0  0  0  0  0  0  0  0  0
   -5.0669   -2.2321    0.0000 I   0  0  0  0  0  0  0  0  0  0  0  0
   -2.2090   -2.2321    0.0000 Cl  0  0  0  0  0  0  0  0  0  0  0  0
   -3.6379    0.2429    0.0000 F   0  0  0  0  0  0  0  0  0  0  0  0
   -3.6379    1.8929    0.0000 F   0  0  0  0  0  0  0  0  0  0  0  0
  1  7  1  0
  1  6  1  0
  2  1  2  0
  3  2  1  0
  3  4  2  0
  4  5  1  0
  5  6  2  0
  6 24  1  0
  8  7  1  0
  9  8  2  0
  9 14  1  0
 10  9  1  0
 11 10  2  0
 11 12  1  0
 12 13  2  0
 13  8  1  0
 13 25  1  0
 14 16  2  0
 15 14  1  0
 15 17  1  0
 17 18  1  0
 18 19  1  0
 19 20  1  0
 19 21  1  1
 20 22  1  0
 23  4  1  0
 26 12  1  0
M  END
>  <DRUGBANK_ID>  (1) 
DB07046

>  <COMMON_NAME>  (1) 
2-[(2-chloro-4-iodophenyl)amino]-N-{[(2R)-2,3-dihydroxypropyl]oxy}-3,4-difluorobenzamide

$$$$
