
     RDKit          2D

  8  7  0  0  1  0  0  0  0  0999 V2000
    0.1105    1.2375    0.0000 C   0  0  0  0  0  0  0  0  0  0  0  0
    1.6500    0.0000    0.0000 C   0  0  0  0  0  0  0  0  0  0  0  0
    0.8250   -0.8250    0.0000 C   0  0  0  0  0  0  0  0  0  0  0  0
    0.8250    0.8250    0.0000 C   0  0  0  0  0  0  0  0  0  0  0  0
    0.8250    0.0000    0.0000 C   0  0  0  0  0  0  0  0  0  0  0  0
    1.5395   -1.2375    0.0000 N   0  0  0  0  0  0  0  0  0  0  0  0
    1.5395    1.2375    0.0000 O   0  0  0  0  0  0  0  0  0  0  0  0
    0.0000    0.0000    0.0000 O   0  0  0  0  0  0  0  0  0  0  0  0
  4  1  1  1
  4  7  1  0
  5  2  1  1
  5  3  1  0
  5  4  1  0
  5  8  1  0
  6  3  1  0
M  END
>  <DRUGBANK_ID>  (1) 
DB02847

>  <SECONDARY_ACCESSION_NUMBERS>  (1) 
EXPT03122

>  <COMMON_NAME>  (1) 
(2s,3r)-1-Amino-2-Methylbutane-2,3-Diol

$$$$
