
     RDKit          2D

 27 28  0  0  0  0  0  0  0  0999 V2000
   -0.7429    0.6059    0.0000 C   0  0  0  0  0  0  0  0  0  0  0  0
   -0.0194    0.2044    0.0000 C   0  0  0  0  0  0  0  0  0  0  0  0
    0.6878    0.6301    0.0000 C   0  0  0  0  0  0  0  0  0  0  0  0
    0.6729    1.4571    0.0000 C   0  0  0  0  0  0  0  0  0  0  0  0
   -0.0552    1.8566    0.0000 C   0  0  0  0  0  0  0  0  0  0  0  0
   -0.7594    1.4286    0.0000 C   0  0  0  0  0  0  0  0  0  0  0  0
   -0.0735    2.6815    0.0000 O   0  0  0  0  0  0  0  0  0  0  0  0
    0.6317    3.1096    0.0000 C   0  0  0  0  0  0  0  0  0  0  0  0
   -0.0049   -0.6204    0.0000 S   0  0  0  0  0  0  0  0  0  0  0  0
    0.0021   -1.4473    0.0000 N   0  0  0  0  0  0  0  0  0  0  0  0
    0.8199   -0.6096    0.0000 O   0  0  0  0  0  0  0  0  0  0  0  0
   -0.8300   -0.6293    0.0000 O   0  0  0  0  0  0  0  0  0  0  0  0
    0.7201   -1.8536    0.0000 C   0  0  0  0  0  0  0  0  0  0  0  0
    1.4311   -1.4348    0.0000 C   0  0  0  0  0  0  0  0  0  0  0  0
    2.1452   -1.8449    0.0000 C   0  0  0  0  0  0  0  0  0  0  0  0
    2.8556   -1.4269    0.0000 C   0  0  0  0  0  0  0  0  0  0  0  0
    2.8487   -0.6011    0.0000 C   0  0  0  0  0  0  0  0  0  0  0  0
    2.1257   -0.1951    0.0000 N   0  0  0  0  0  0  0  0  0  0  0  0
    1.4183   -0.6154    0.0000 C   0  0  0  0  0  0  0  0  0  0  0  0
   -0.7087   -1.8661    0.0000 C   0  0  0  0  0  0  0  0  0  0  0  0
   -0.7014   -2.6909    0.0000 C   0  0  0  0  0  0  0  0  0  0  0  0
   -1.4123   -3.1096    0.0000 C   0  0  0  0  0  0  0  0  0  0  0  0
    0.0165   -3.0973    0.0000 C   0  0  0  0  0  0  0  0  0  0  0  0
   -1.4267   -1.4598    0.0000 C   0  0  0  0  0  0  0  0  0  0  0  0
   -1.4338   -0.6348    0.0000 O   0  0  0  0  0  0  0  0  0  0  0  0
   -2.1376   -1.8784    0.0000 N   0  0  0  0  0  0  0  0  0  0  0  0
   -2.8556   -1.4721    0.0000 O   0  0  0  0  0  0  0  0  0  0  0  0
  1  2  2  0
  2  9  1  0
  2  3  1  0
  3  4  2  0
  4  5  1  0
  5  6  2  0
  5  7  1  0
  6  1  1  0
  7  8  1  0
  9 10  1  0
  9 11  2  0
  9 12  2  0
 10 20  1  0
 10 13  1  0
 13 14  1  0
 14 15  2  0
 15 16  1  0
 16 17  2  0
 17 18  1  0
 18 19  2  0
 19 14  1  0
 20 21  1  6
 20 24  1  0
 21 22  1  0
 21 23  1  0
 24 25  2  0
 24 26  1  0
 26 27  1  0
M  END
>  <DRUGBANK_ID>  (1) 
DB07556

>  <COMMON_NAME>  (1) 
CGS-27023

>  <CAS_NUMBER>  (1) 
161314-70-1

>  <UNII>  (1) 
80AXY59IT2

$$$$
