
     RDKit          2D

 26 29  0  0  0  0  0  0  0  0999 V2000
   -3.3224   -0.3289    0.0000 N   0  0  0  0  0  0  0  0  0  0  0  0
   -4.0761    0.0066    0.0000 C   0  0  0  0  0  0  0  0  0  0  0  0
   -4.6282   -0.6064    0.0000 C   0  0  0  0  0  0  0  0  0  0  0  0
   -4.2157   -1.3209    0.0000 C   0  0  0  0  0  0  0  0  0  0  0  0
   -3.4087   -1.1494    0.0000 C   0  0  0  0  0  0  0  0  0  0  0  0
   -2.6079    0.0834    0.0000 C   0  0  0  0  0  0  0  0  0  0  0  0
   -1.8935   -0.3290    0.0000 C   0  0  0  0  0  0  0  0  0  0  0  0
   -1.8934    1.3209    0.0000 C   0  0  0  0  0  0  0  0  0  0  0  0
   -2.6079    0.9085    0.0000 C   0  0  0  0  0  0  0  0  0  0  0  0
   -0.3943    1.1633    0.0000 N   0  0  0  0  0  0  0  0  0  0  0  0
   -1.1789    0.9084    0.0000 C   0  0  0  0  0  0  0  0  0  0  0  0
   -1.1789    0.0834    0.0000 C   0  0  0  0  0  0  0  0  0  0  0  0
   -0.3943   -0.1715    0.0000 N   0  0  0  0  0  0  0  0  0  0  0  0
    0.0905    0.4958    0.0000 C   0  0  0  0  0  0  0  0  0  0  0  0
    0.9155    0.4958    0.0000 S   0  0  0  0  0  0  0  0  0  0  0  0
    1.3281    1.2102    0.0000 O   0  0  0  0  0  0  0  0  0  0  0  0
    1.3280   -0.2186    0.0000 C   0  0  0  0  0  0  0  0  0  0  0  0
    2.1530   -0.2186    0.0000 C   0  0  0  0  0  0  0  0  0  0  0  0
    2.5655   -0.9332    0.0000 N   0  0  0  0  0  0  0  0  0  0  0  0
    3.3905   -0.9332    0.0000 C   0  0  0  0  0  0  0  0  0  0  0  0
    3.8030   -0.2187    0.0000 C   0  0  0  0  0  0  0  0  0  0  0  0
    3.3906    0.4957    0.0000 C   0  0  0  0  0  0  0  0  0  0  0  0
    2.5656    0.4957    0.0000 C   0  0  0  0  0  0  0  0  0  0  0  0
    2.1531    1.2102    0.0000 C   0  0  0  0  0  0  0  0  0  0  0  0
    3.8032    1.2101    0.0000 O   0  0  0  0  0  0  0  0  0  0  0  0
    4.6282    1.2101    0.0000 C   0  0  0  0  0  0  0  0  0  0  0  0
  1  2  1  0
  1  6  1  0
  2  3  2  0
  3  4  1  0
  4  5  2  0
  5  1  1  0
  6  7  2  0
  7 12  1  0
  8  9  2  0
  9  6  1  0
 10 11  1  0
 11  8  1  0
 11 12  2  0
 12 13  1  0
 13 14  2  0
 14 10  1  0
 14 15  1  0
 15 16  2  0
 15 17  1  0
 17 18  1  0
 18 19  2  0
 19 20  1  0
 20 21  2  0
 21 22  1  0
 22 23  2  0
 22 25  1  0
 23 18  1  0
 23 24  1  0
 25 26  1  0
M  END
>  <DRUGBANK_ID>  (1) 
DB11964

>  <COMMON_NAME>  (1) 
Ilaprazole

>  <CAS_NUMBER>  (1) 
172152-36-2

>  <UNII>  (1) 
776Q6XX45J

>  <SYNONYMS>  (1) 
Ilaprazole; Ilaprazolum

$$$$
