
     RDKit          2D

 19 21  0  0  0  0  0  0  0  0999 V2000
    0.0217    0.8513    0.0000 O   0  0  0  0  0  0  0  0  0  0  0  0
    1.9571   -0.0494    0.0000 O   0  0  0  0  0  0  0  0  0  0  0  0
    1.9602    1.7453    0.0000 O   0  0  0  0  0  0  0  0  0  0  0  0
    0.8074    2.9150    0.0000 O   0  0  0  0  0  0  0  0  0  0  0  0
   -1.2458   -2.9150    0.0000 O   0  0  0  0  0  0  0  0  0  0  0  0
    0.2492   -0.6011    0.0000 N   0  0  0  0  0  0  0  0  0  0  0  0
    0.2492   -1.9289    0.0000 N   0  0  0  0  0  0  0  0  0  0  0  0
   -1.2458   -0.4400    0.0000 N   0  0  0  0  0  0  0  0  0  0  0  0
   -1.9602   -1.6775    0.0000 N   0  0  0  0  0  0  0  0  0  0  0  0
    0.5054    0.1829    0.0000 C   0  0  0  0  0  0  0  0  0  0  0  0
    1.2906    0.4365    0.0000 C   0  0  0  0  0  0  0  0  0  0  0  0
    1.2920    1.2616    0.0000 C   0  0  0  0  0  0  0  0  0  0  0  0
    0.5077    1.5179    0.0000 C   0  0  0  0  0  0  0  0  0  0  0  0
    0.7307   -1.2650    0.0000 C   0  0  0  0  0  0  0  0  0  0  0  0
   -0.5313   -0.8526    0.0000 C   0  0  0  0  0  0  0  0  0  0  0  0
    0.2542    2.3030    0.0000 C   0  0  0  0  0  0  0  0  0  0  0  0
   -0.5313   -1.6775    0.0000 C   0  0  0  0  0  0  0  0  0  0  0  0
   -1.2458   -2.0901    0.0000 C   0  0  0  0  0  0  0  0  0  0  0  0
   -1.9602   -0.8526    0.0000 C   0  0  0  0  0  0  0  0  0  0  0  0
  1 10  1  0
  1 13  1  0
  4 16  1  0
  5 18  2  0
  6 14  1  0
  6 15  1  0
  7 14  1  0
  7 17  1  0
  8 15  1  0
  8 19  1  0
  9 18  1  0
  9 19  2  0
 10  6  1  6
 10 11  1  0
 11  2  1  1
 11 12  1  0
 12  3  1  1
 12 13  1  0
 13 16  1  6
 15 17  2  0
 17 18  1  0
M  END
>  <DRUGBANK_ID>  (1) 
DB02472

>  <SECONDARY_ACCESSION_NUMBERS>  (1) 
EXPT01774

>  <COMMON_NAME>  (1) 
7,8-dihydroinosine

>  <SYNONYMS>  (1) 
6-hydroxy-7,8-dihydro purine nucleoside

$$$$
