
     RDKit          2D

 18 19  0  0  0  0  0  0  0  0999 V2000
    2.4751   -2.8876    0.0000 Cl  0  0  0  0  0  0  0  0  0  0  0  0
    5.3330    2.8876    0.0000 Cl  0  0  0  0  0  0  0  0  0  0  0  0
    2.4751    0.4125    0.0000 S   0  0  0  0  0  0  0  0  0  0  0  0
    2.4751    1.2375    0.0000 O   0  0  0  0  0  0  0  0  0  0  0  0
    3.3001    0.4125    0.0000 O   0  0  0  0  0  0  0  0  0  0  0  0
    1.6500    0.4125    0.0000 O   0  0  0  0  0  0  0  0  0  0  0  0
    2.4751   -0.4125    0.0000 C   0  0  0  0  0  0  0  0  0  0  0  0
    3.1895   -0.8250    0.0000 C   0  0  0  0  0  0  0  0  0  0  0  0
    1.7606   -0.8250    0.0000 C   0  0  0  0  0  0  0  0  0  0  0  0
    3.1895    1.6500    0.0000 C   0  0  0  0  0  0  0  0  0  0  0  0
    3.1895   -1.6500    0.0000 C   0  0  0  0  0  0  0  0  0  0  0  0
    1.7606   -1.6500    0.0000 C   0  0  0  0  0  0  0  0  0  0  0  0
    3.9041    1.2375    0.0000 C   0  0  0  0  0  0  0  0  0  0  0  0
    3.1895    2.4751    0.0000 C   0  0  0  0  0  0  0  0  0  0  0  0
    2.4751   -2.0625    0.0000 C   0  0  0  0  0  0  0  0  0  0  0  0
    4.6185    1.6500    0.0000 C   0  0  0  0  0  0  0  0  0  0  0  0
    3.9041    2.8876    0.0000 C   0  0  0  0  0  0  0  0  0  0  0  0
    4.6185    2.4751    0.0000 C   0  0  0  0  0  0  0  0  0  0  0  0
  1 15  1  0
  2 18  1  0
  3  4  1  0
  3  5  2  0
  3  6  2  0
  3  7  1  0
  4 10  1  0
  7  8  2  0
  7  9  1  0
  8 11  1  0
  9 12  2  0
 10 13  2  0
 10 14  1  0
 11 15  2  0
 12 15  1  0
 13 16  1  0
 14 17  2  0
 16 18  2  0
 17 18  1  0
M  END
>  <DRUGBANK_ID>  (1) 
DB05377

>  <COMMON_NAME>  (1) 
Chlorfenson

>  <CAS_NUMBER>  (1) 
80-33-1

>  <UNII>  (1) 
LW65NJ3YWV

>  <SYNONYMS>  (1) 
4-Chlorophenyl 4-chlorobenzenesulfonate; Ester sulfonate

$$$$
