
     RDKit          2D

 40 41  0  0  0  0  0  0  0  0999 V2000
    3.2628    3.2217    0.0000 F   0  0  0  0  0  0  0  0  0  0  0  0
    3.7727    4.7910    0.0000 F   0  0  0  0  0  0  0  0  0  0  0  0
    4.3025    3.7514    0.0000 F   0  0  0  0  0  0  0  0  0  0  0  0
   -0.0153    1.9445    0.0000 O   0  0  0  0  0  0  0  0  0  0  0  0
    0.8937    2.6050    0.0000 O   0  0  0  0  0  0  0  0  0  0  0  0
    2.5615    5.0683    0.0000 O   0  0  0  0  0  0  0  0  0  0  0  0
   -2.8734    1.1195    0.0000 O   0  0  0  0  0  0  0  0  0  0  0  0
   -1.4444   -3.0057    0.0000 O   0  0  0  0  0  0  0  0  0  0  0  0
   -3.5880   -5.0683    0.0000 O   0  0  0  0  0  0  0  0  0  0  0  0
   -4.3025   -3.8307    0.0000 O   0  0  0  0  0  0  0  0  0  0  0  0
   -0.7299    3.1821    0.0000 N   0  0  0  0  0  0  0  0  0  0  0  0
    1.3353    3.9641    0.0000 N   0  0  0  0  0  0  0  0  0  0  0  0
   -1.4444    1.1195    0.0000 N   0  0  0  0  0  0  0  0  0  0  0  0
   -2.8734   -3.0057    0.0000 N   0  0  0  0  0  0  0  0  0  0  0  0
   -0.0624    3.6670    0.0000 C   0  0  0  0  0  0  0  0  0  0  0  0
   -0.3174    4.4517    0.0000 C   0  0  0  0  0  0  0  0  0  0  0  0
   -1.1424    4.4517    0.0000 C   0  0  0  0  0  0  0  0  0  0  0  0
   -1.3974    3.6670    0.0000 C   0  0  0  0  0  0  0  0  0  0  0  0
   -0.7299    2.3570    0.0000 C   0  0  0  0  0  0  0  0  0  0  0  0
   -1.4444    1.9445    0.0000 C   0  0  0  0  0  0  0  0  0  0  0  0
    0.7222    3.4121    0.0000 C   0  0  0  0  0  0  0  0  0  0  0  0
   -2.1589    2.3570    0.0000 C   0  0  0  0  0  0  0  0  0  0  0  0
    2.1200    3.7092    0.0000 C   0  0  0  0  0  0  0  0  0  0  0  0
    2.2915    2.9022    0.0000 C   0  0  0  0  0  0  0  0  0  0  0  0
   -2.1589    3.1821    0.0000 C   0  0  0  0  0  0  0  0  0  0  0  0
   -2.8734    1.9445    0.0000 C   0  0  0  0  0  0  0  0  0  0  0  0
    2.7330    4.2612    0.0000 C   0  0  0  0  0  0  0  0  0  0  0  0
    3.0762    2.6472    0.0000 C   0  0  0  0  0  0  0  0  0  0  0  0
    1.6784    2.3501    0.0000 C   0  0  0  0  0  0  0  0  0  0  0  0
   -2.1589    0.7069    0.0000 C   0  0  0  0  0  0  0  0  0  0  0  0
    3.5178    4.0063    0.0000 C   0  0  0  0  0  0  0  0  0  0  0  0
   -2.1589   -0.1180    0.0000 C   0  0  0  0  0  0  0  0  0  0  0  0
   -2.8734   -0.5305    0.0000 C   0  0  0  0  0  0  0  0  0  0  0  0
   -1.4444   -0.5305    0.0000 C   0  0  0  0  0  0  0  0  0  0  0  0
   -2.8734   -1.3556    0.0000 C   0  0  0  0  0  0  0  0  0  0  0  0
   -1.4444   -1.3556    0.0000 C   0  0  0  0  0  0  0  0  0  0  0  0
   -2.1589   -1.7681    0.0000 C   0  0  0  0  0  0  0  0  0  0  0  0
   -2.1589   -2.5932    0.0000 C   0  0  0  0  0  0  0  0  0  0  0  0
   -2.8734   -3.8307    0.0000 C   0  0  0  0  0  0  0  0  0  0  0  0
   -3.5880   -4.2433    0.0000 C   0  0  0  0  0  0  0  0  0  0  0  0
  1 31  1  0
  2 31  1  0
  3 31  1  0
  4 19  2  0
  5 21  2  0
  6 27  2  0
  7 30  2  0
  8 38  2  0
  9 40  1  0
 10 40  2  0
 11 15  1  0
 11 18  1  0
 11 19  1  0
 12 21  1  0
 13 30  1  0
 14 38  1  0
 14 39  1  0
 15 16  1  0
 15 21  1  1
 16 17  1  0
 17 18  1  0
 19 20  1  0
 20 13  1  1
 20 22  1  0
 22 25  1  0
 22 26  1  0
 23 12  1  6
 23 24  1  0
 23 27  1  0
 24 28  1  0
 24 29  1  0
 27 31  1  0
 30 32  1  0
 32 33  2  0
 32 34  1  0
 33 35  1  0
 34 36  2  0
 35 37  2  0
 36 37  1  0
 37 38  1  0
 39 40  1  0
M  END
>  <DRUGBANK_ID>  (1) 
DB03702

>  <SECONDARY_ACCESSION_NUMBERS>  (1) 
EXPT01482

>  <COMMON_NAME>  (1) 
N-{4-[(Carboxymethyl)carbamoyl]benzoyl}-L-valyl-N-[(3S)-1,1,1-trifluoro-4-methyl-2-oxo-3-pentanyl]-L-prolinamide

$$$$
