
     RDKit          2D

 39 43  0  0  1  0  0  0  0  0999 V2000
    0.7288   -4.8543    0.0000 C   0  0  0  0  0  0  0  0  0  0  0  0
    2.0342   -5.4355    0.0000 C   0  0  0  0  0  0  0  0  0  0  0  0
    4.1600   -5.9305    0.0000 C   0  0  0  0  0  0  0  0  0  0  0  0
    0.5198   -0.6605    0.0000 C   0  0  0  0  0  0  0  0  0  0  0  0
    0.0783   -2.0195    0.0000 C   0  0  0  0  0  0  0  0  0  0  0  0
    2.8579    0.0000    0.0000 C   0  0  0  0  0  0  0  0  0  0  0  0
    1.4289    0.0000    0.0000 C   0  0  0  0  0  0  0  0  0  0  0  0
   -0.2648   -0.4056    0.0000 C   0  0  0  0  0  0  0  0  0  0  0  0
   -0.7064   -1.7646    0.0000 C   0  0  0  0  0  0  0  0  0  0  0  0
    2.8579    0.8250    0.0000 C   0  0  0  0  0  0  0  0  0  0  0  0
    1.4289    0.8250    0.0000 C   0  0  0  0  0  0  0  0  0  0  0  0
    4.3462   -3.7557    0.0000 C   0  0  0  0  0  0  0  0  0  0  0  0
    3.8613   -3.0882    0.0000 C   0  0  0  0  0  0  0  0  0  0  0  0
    3.3254    0.6985    0.0000 C   0  0  0  0  0  0  0  0  0  0  0  0
    4.7231    0.4014    0.0000 C   0  0  0  0  0  0  0  0  0  0  0  0
    3.1539   -0.1085    0.0000 C   0  0  0  0  0  0  0  0  0  0  0  0
    4.5516   -0.4056    0.0000 C   0  0  0  0  0  0  0  0  0  0  0  0
    3.1902   -4.5956    0.0000 C   0  0  0  0  0  0  0  0  0  0  0  0
    1.5492   -4.7681    0.0000 C   0  0  0  0  0  0  0  0  0  0  0  0
    0.6914   -1.4675    0.0000 C   0  0  0  0  0  0  0  0  0  0  0  0
    2.1434   -0.4125    0.0000 C   0  0  0  0  0  0  0  0  0  0  0  0
   -0.8779   -0.9576    0.0000 C   0  0  0  0  0  0  0  0  0  0  0  0
    2.1434    1.2375    0.0000 C   0  0  0  0  0  0  0  0  0  0  0  0
    4.0107   -4.5094    0.0000 C   0  0  0  0  0  0  0  0  0  0  0  0
    3.0408   -3.1745    0.0000 C   0  0  0  0  0  0  0  0  0  0  0  0
    2.7053   -3.9282    0.0000 C   0  0  0  0  0  0  0  0  0  0  0  0
    1.4760   -1.7224    0.0000 C   0  0  0  0  0  0  0  0  0  0  0  0
    2.1434   -1.2375    0.0000 C   0  0  0  0  0  0  0  0  0  0  0  0
    2.5559   -2.5070    0.0000 C   0  0  0  0  0  0  0  0  0  0  0  0
    3.5955   -1.4675    0.0000 C   0  0  0  0  0  0  0  0  0  0  0  0
   -1.6625   -0.7027    0.0000 Cl  0  0  0  0  0  0  0  0  0  0  0  0
    2.1434    2.0625    0.0000 Cl  0  0  0  0  0  0  0  0  0  0  0  0
    4.1101    0.9534    0.0000 N   0  0  0  0  0  0  0  0  0  0  0  0
    1.7309   -2.5070    0.0000 N   0  0  0  0  0  0  0  0  0  0  0  0
    3.7670   -0.6605    0.0000 N   0  0  0  0  0  0  0  0  0  0  0  0
    2.8109   -1.7224    0.0000 N   0  0  0  0  0  0  0  0  0  0  0  0
    4.2086   -2.0195    0.0000 O   0  0  0  0  0  0  0  0  0  0  0  0
    4.4956   -5.1768    0.0000 O   0  0  0  0  0  0  0  0  0  0  0  0
    1.8848   -4.0144    0.0000 O   0  0  0  0  0  0  0  0  0  0  0  0
  8  4  2  0
  9  5  1  0
 10  6  2  0
 11  7  1  0
 13 12  2  0
 16 14  1  0
 17 15  1  0
 19  1  1  0
 19  2  1  0
 20  4  1  0
 20  5  2  0
 21  6  1  0
 21  7  2  0
 22  8  1  0
 22  9  2  0
 23 10  1  0
 23 11  2  0
 24 12  1  0
 24 18  2  0
 25 13  1  0
 26 18  1  0
 26 25  2  0
 27 20  1  1
 28 21  1  1
 28 27  1  0
 29 25  1  0
 31 22  1  0
 32 23  1  0
 33 14  1  0
 33 15  1  0
 34 27  1  0
 34 29  2  0
 35 16  1  0
 35 17  1  0
 35 30  1  0
 36 28  1  0
 36 29  1  0
 36 30  1  0
 37 30  2  0
 38  3  1  0
 38 24  1  0
 39 19  1  0
 39 26  1  0
M  END
>  <DRUGBANK_ID>  (1) 
DB04144

>  <SECONDARY_ACCESSION_NUMBERS>  (1) 
EXPT01877

>  <COMMON_NAME>  (1) 
Cis-[4,5-Bis-(4-Chlorophenyl)-2-(2-Isopropoxy-4-Methoxyphenyl)-4,5-Dihyd Roimidazol-1-Yl]-Piperazin-1-Yl-Methanone

$$$$
