
     RDKit          2D

 22 23  0  0  1  0  0  0  0  0999 V2000
    0.4095   -0.3577    0.0000 C   0  0  0  0  0  0  0  0  0  0  0  0
    0.8249    0.3577    0.0000 C   0  0  0  0  0  0  0  0  0  0  0  0
    0.4095    1.0730    0.0000 C   0  0  0  0  0  0  0  0  0  0  0  0
    0.8249    1.7826    0.0000 C   0  0  0  0  0  0  0  0  0  0  0  0
    1.6499    1.7826    0.0000 C   0  0  0  0  0  0  0  0  0  0  0  0
    2.0595    1.0730    0.0000 C   0  0  0  0  0  0  0  0  0  0  0  0
    2.8845    1.0730    0.0000 O   0  0  0  0  0  0  0  0  0  0  0  0
    1.6499    0.3577    0.0000 O   0  0  0  0  0  0  0  0  0  0  0  0
    2.0595    2.4980    0.0000 O   0  0  0  0  0  0  0  0  0  0  0  0
    0.4095    2.4980    0.0000 O   0  0  0  0  0  0  0  0  0  0  0  0
   -0.4096    1.0730    0.0000 N   0  0  0  0  0  0  0  0  0  0  0  0
   -0.8249    0.3577    0.0000 C   0  0  0  0  0  0  0  0  0  0  0  0
   -0.4096   -0.3577    0.0000 C   0  0  0  0  0  0  0  0  0  0  0  0
   -0.8249   -1.0730    0.0000 C   0  0  0  0  0  0  0  0  0  0  0  0
   -0.4096   -1.7826    0.0000 C   0  0  0  0  0  0  0  0  0  0  0  0
   -0.8249   -2.4980    0.0000 O   0  0  0  0  0  0  0  0  0  0  0  0
   -1.6499   -1.0730    0.0000 C   0  0  0  0  0  0  0  0  0  0  0  0
   -2.0595   -0.3577    0.0000 C   0  0  0  0  0  0  0  0  0  0  0  0
   -1.6499    0.3577    0.0000 C   0  0  0  0  0  0  0  0  0  0  0  0
   -2.0595    1.0730    0.0000 O   0  0  0  0  0  0  0  0  0  0  0  0
   -2.8845   -0.3577    0.0000 O   0  0  0  0  0  0  0  0  0  0  0  0
   -2.0595   -1.7826    0.0000 O   0  0  0  0  0  0  0  0  0  0  0  0
  1  2  2  0
  2  3  1  0
  2  8  1  0
  3  4  1  0
  3 11  1  1
  4  5  1  0
  4 10  1  6
  5  6  1  0
  5  9  1  1
  6  7  1  1
  6  8  1  0
 12 11  1  1
 12 13  1  0
 12 19  1  0
 13 14  2  0
 14 15  1  0
 14 17  1  0
 15 16  2  0
 17 18  1  0
 17 22  2  0
 18 19  1  0
 18 21  1  6
 19 20  1  1
M  END
>  <DRUGBANK_ID>  (1) 
DB04164

>  <SECONDARY_ACCESSION_NUMBERS>  (1) 
EXPT01105

>  <COMMON_NAME>  (1) 
4,6-Dideoxy-4-{[(1S,5R,6S)-3-formyl-5,6-dihydroxy-4-oxo-2-cyclohexen-1-yl]amino}-Î±-D-xylo-hex-5-enopyranose

>  <SYNONYMS>  (1) 
1,4-Deoxy-4-((5-Hydroxymethyl-2,3,4-Trihydroxycyclohex-5-Enyl)Amino)Fructose; 4,6-Dideoxy-4-{[(1s,5r,6s)-3-formyl-5,6-dihydroxy-4-oxocyclohex-2-en-1-yl]amino}-alpha-d-xylo-hex-5-enopyranose

$$$$
