
     RDKit          2D

 32 35  0  0  1  0  0  0  0  0999 V2000
   -6.2355    5.3990    0.0000 C   0  0  0  0  0  0  0  0  0  0  0  0
   -5.4285    5.2275    0.0000 N   0  0  0  0  0  0  0  0  0  0  0  0
   -4.8765    5.8406    0.0000 C   0  0  0  0  0  0  0  0  0  0  0  0
   -5.1736    4.4429    0.0000 C   0  0  0  0  0  0  0  0  0  0  0  0
   -5.7256    3.8298    0.0000 O   0  0  0  0  0  0  0  0  0  0  0  0
   -4.3666    4.2713    0.0000 N   0  0  0  0  0  0  0  0  0  0  0  0
   -3.7535    4.8234    0.0000 C   0  0  0  0  0  0  0  0  0  0  0  0
   -3.0391    4.4109    0.0000 C   0  0  0  0  0  0  0  0  0  0  0  0
   -3.2106    3.6039    0.0000 C   0  0  0  0  0  0  0  0  0  0  0  0
   -4.0311    3.5177    0.0000 C   0  0  0  0  0  0  0  0  0  0  0  0
   -2.6586    2.9908    0.0000 N   0  0  0  0  0  0  0  0  0  0  0  0
   -2.9135    2.2062    0.0000 C   0  0  0  0  0  0  0  0  0  0  0  0
   -3.7205    2.0347    0.0000 O   0  0  0  0  0  0  0  0  0  0  0  0
   -2.3615    1.5931    0.0000 C   0  0  0  0  0  0  0  0  0  0  0  0
   -2.5330    0.7861    0.0000 C   0  0  0  0  0  0  0  0  0  0  0  0
   -3.2867    0.4506    0.0000 C   0  0  0  0  0  0  0  0  0  0  0  0
   -1.8185    0.3736    0.0000 N   0  0  0  0  0  0  0  0  0  0  0  0
   -1.2054    0.9256    0.0000 C   0  0  0  0  0  0  0  0  0  0  0  0
   -0.3984    0.7541    0.0000 C   0  0  0  0  0  0  0  0  0  0  0  0
   -0.1435   -0.0305    0.0000 C   0  0  0  0  0  0  0  0  0  0  0  0
   -0.6284   -0.6979    0.0000 C   0  0  0  0  0  0  0  0  0  0  0  0
   -1.4534   -0.6979    0.0000 O   0  0  0  0  0  0  0  0  0  0  0  0
   -0.1435   -1.3654    0.0000 N   0  0  0  0  0  0  0  0  0  0  0  0
    0.6411   -1.1104    0.0000 C   0  0  0  0  0  0  0  0  0  0  0  0
    0.6411   -0.2854    0.0000 C   0  0  0  0  0  0  0  0  0  0  0  0
    1.3556    0.1271    0.0000 C   0  0  0  0  0  0  0  0  0  0  0  0
    2.0701   -0.2854    0.0000 C   0  0  0  0  0  0  0  0  0  0  0  0
    2.7845    0.1271    0.0000 F   0  0  0  0  0  0  0  0  0  0  0  0
    2.0701   -1.1104    0.0000 C   0  0  0  0  0  0  0  0  0  0  0  0
    1.3556   -1.5229    0.0000 C   0  0  0  0  0  0  0  0  0  0  0  0
   -1.5410    1.6793    0.0000 C   0  0  0  0  0  0  0  0  0  0  0  0
   -1.1285    2.3938    0.0000 C   0  0  0  0  0  0  0  0  0  0  0  0
  1  2  1  0
  2  3  1  0
  2  4  1  0
  4  5  2  0
  4  6  1  0
  6  7  1  0
  6 10  1  0
  7  8  1  0
  9  8  1  0
  9 10  1  0
  9 11  1  6
 11 12  1  0
 12 13  2  0
 12 14  1  0
 14 15  2  0
 14 31  1  0
 15 16  1  0
 15 17  1  0
 17 18  1  0
 18 19  1  0
 18 31  2  0
 19 20  2  0
 20 21  1  0
 20 25  1  0
 21 22  2  0
 21 23  1  0
 23 24  1  0
 24 25  2  0
 24 30  1  0
 25 26  1  0
 26 27  2  0
 27 28  1  0
 27 29  1  0
 29 30  2  0
 31 32  1  0
M  END
>  <DRUGBANK_ID>  (1) 
DB15247

>  <COMMON_NAME>  (1) 
Vorolanib

>  <CAS_NUMBER>  (1) 
1013920-15-4

>  <UNII>  (1) 
YP8G3I74EL

>  <SYNONYMS>  (1) 
Vorolanib

$$$$
