BEK
     RDKit          2D

 15 15  0  0  0  0  0  0  0  0999 V2000
    1.2982    0.8556    0.0000 C   0  0  0  0  0  0  0  0  0  0  0  0
    1.2982    1.6806    0.0000 O   0  0  0  0  0  0  0  0  0  0  0  0
    2.0126    0.4431    0.0000 N   0  0  0  0  0  0  0  0  0  0  0  0
    0.5837    0.4431    0.0000 C   0  0  0  0  0  0  0  0  0  0  0  0
    0.5837   -0.3819    0.0000 C   0  0  0  0  0  0  0  0  0  0  0  0
   -0.1308    0.8556    0.0000 C   0  0  0  0  0  0  0  0  0  0  0  0
    1.2982   -0.7944    0.0000 F   0  0  0  0  0  0  0  0  0  0  0  0
   -0.1308    1.6806    0.0000 F   0  0  0  0  0  0  0  0  0  0  0  0
   -0.1308   -0.7944    0.0000 C   0  0  0  0  0  0  0  0  0  0  0  0
   -0.8453    0.4431    0.0000 C   0  0  0  0  0  0  0  0  0  0  0  0
   -0.8453   -0.3819    0.0000 C   0  0  0  0  0  0  0  0  0  0  0  0
   -0.1308   -1.6194    0.0000 F   0  0  0  0  0  0  0  0  0  0  0  0
   -1.5597    0.8556    0.0000 F   0  0  0  0  0  0  0  0  0  0  0  0
   -1.5597   -0.7944    0.0000 O   0  0  0  0  0  0  0  0  0  0  0  0
   -1.5597   -1.6194    0.0000 C   0  0  0  0  0  0  0  0  0  0  0  0
  1  2  2  0
  1  3  1  0
  1  4  1  0
  4  5  2  0
  4  6  1  0
  5  7  1  0
  5  9  1  0
  6  8  1  0
  6 10  2  0
  9 11  2  0
  9 12  1  0
 10 11  1  0
 10 13  1  0
 11 14  1  0
 14 15  1  0
M  END
>  <DRUGBANK_ID>  (1) 
DB01827

>  <SECONDARY_ACCESSION_NUMBERS>  (1) 
EXPT00667

>  <COMMON_NAME>  (1) 
2,3,5,6-Tetrafluoro-4-Methoxy-Benzamide

$$$$
