
     RDKit          2D

 21 22  0  0  0  0  0  0  0  0999 V2000
   -0.1767    0.7455    0.0000 C   0  0  0  0  0  0  0  0  0  0  0  0
   -1.2567   -0.0390    0.0000 N   0  0  0  0  0  0  0  0  0  0  0  0
   -2.0537   -0.2527    0.0000 C   0  0  0  0  0  0  0  0  0  0  0  0
   -1.0018    0.7455    0.0000 C   0  0  0  0  0  0  0  0  0  0  0  0
   -1.4143    1.4599    0.0000 C   0  0  0  0  0  0  0  0  0  0  0  0
   -0.5891   -0.5240    0.0000 N   0  0  0  0  0  0  0  0  0  0  0  0
   -0.5891   -1.3490    0.0000 C   0  0  0  0  0  0  0  0  0  0  0  0
   -0.5891   -2.9991    0.0000 C   0  0  0  0  0  0  0  0  0  0  0  0
    0.1252   -2.5866    0.0000 C   0  0  0  0  0  0  0  0  0  0  0  0
    0.1252   -1.7616    0.0000 C   0  0  0  0  0  0  0  0  0  0  0  0
   -1.3037   -1.7616    0.0000 C   0  0  0  0  0  0  0  0  0  0  0  0
   -1.3037   -2.5866    0.0000 C   0  0  0  0  0  0  0  0  0  0  0  0
    0.0782   -0.0390    0.0000 C   0  0  0  0  0  0  0  0  0  0  0  0
    0.8751   -0.2527    0.0000 O   0  0  0  0  0  0  0  0  0  0  0  0
    0.2359    1.4599    0.0000 N   0  0  0  0  0  0  0  0  0  0  0  0
    1.0610    1.4599    0.0000 C   0  0  0  0  0  0  0  0  0  0  0  0
   -0.1767    2.1745    0.0000 C   0  0  0  0  0  0  0  0  0  0  0  0
    1.4734    2.1745    0.0000 S   0  0  0  0  0  0  0  0  0  0  0  0
    2.0537    2.1592    0.0000 O   0  0  0  0  0  0  0  0  0  0  0  0
    0.7469    2.5655    0.0000 O   0  0  0  0  0  0  0  0  0  0  0  0
    1.4490    2.9991    0.0000 O   0  0  0  0  0  0  0  0  0  0  0  0
  1  4  2  0
  1 15  1  0
  2  3  1  0
  4  2  1  0
  4  5  1  0
  6 13  1  0
  6  2  1  0
  6  7  1  0
  7 11  1  0
  8  9  2  0
  8 12  1  0
  9 10  1  0
 10  7  2  0
 11 12  2  0
 13  1  1  0
 13 14  2  0
 15 16  1  0
 15 17  1  0
 16 18  1  0
 18 19  1  0
 20 18  2  0
 21 18  2  0
M  END
>  <DRUGBANK_ID>  (1) 
DB04817

>  <COMMON_NAME>  (1) 
Metamizole

>  <CAS_NUMBER>  (1) 
50567-35-6

>  <UNII>  (1) 
934T64RMNJ

>  <SYNONYMS>  (1) 
Dipyrone; Metamizol

$$$$
