B28
     RDKit          2D

 29 31  0  0  0  0  0  0  0  0999 V2000
    5.6302   -0.9066    0.0000 C   0  0  0  0  0  0  0  0  0  0  0  0
    6.3447   -1.3191    0.0000 C   0  0  0  0  0  0  0  0  0  0  0  0
    6.3447   -2.1441    0.0000 C   0  0  0  0  0  0  0  0  0  0  0  0
    5.6302   -2.5566    0.0000 C   0  0  0  0  0  0  0  0  0  0  0  0
    4.9157   -2.1441    0.0000 C   0  0  0  0  0  0  0  0  0  0  0  0
    4.9157   -1.3191    0.0000 C   0  0  0  0  0  0  0  0  0  0  0  0
    4.2012   -0.9066    0.0000 C   0  0  0  0  0  0  0  0  0  0  0  0
    4.2012   -0.0816    0.0000 C   0  0  0  0  0  0  0  0  0  0  0  0
    3.4868    0.3309    0.0000 C   0  0  0  0  0  0  0  0  0  0  0  0
    3.4868   -1.3191    0.0000 C   0  0  0  0  0  0  0  0  0  0  0  0
    2.7723   -0.9066    0.0000 C   0  0  0  0  0  0  0  0  0  0  0  0
    2.7723   -0.0816    0.0000 C   0  0  0  0  0  0  0  0  0  0  0  0
    2.0578    0.3309    0.0000 C   0  0  0  0  0  0  0  0  0  0  0  0
    1.3434   -0.0816    0.0000 C   0  0  0  0  0  0  0  0  0  0  0  0
    2.0578    1.1559    0.0000 C   0  0  0  0  0  0  0  0  0  0  0  0
    1.3434    1.5684    0.0000 C   0  0  0  0  0  0  0  0  0  0  0  0
    0.6289    1.1559    0.0000 C   0  0  0  0  0  0  0  0  0  0  0  0
    0.6289    0.3309    0.0000 C   0  0  0  0  0  0  0  0  0  0  0  0
   -0.0856   -0.0816    0.0000 C   0  0  0  0  0  0  0  0  0  0  0  0
   -0.0856   -0.9066    0.0000 C   0  0  0  0  0  0  0  0  0  0  0  0
    0.7394   -0.9066    0.0000 P   0  0  0  0  0  0  0  0  0  0  0  0
    0.7394   -0.0816    0.0000 O   0  0  0  0  0  0  0  0  0  0  0  0
    1.5644   -0.9066    0.0000 O   0  0  0  0  0  0  0  0  0  0  0  0
    0.7394   -1.7316    0.0000 O   0  0  0  0  0  0  0  0  0  0  0  0
   -0.9106   -0.9066    0.0000 P   0  0  0  0  0  0  0  0  0  0  0  0
   -1.7356   -0.9066    0.0000 O   0  0  0  0  0  0  0  0  0  0  0  0
   -0.9106   -1.7316    0.0000 O   0  0  0  0  0  0  0  0  0  0  0  0
   -0.9106   -0.0816    0.0000 O   0  0  0  0  0  0  0  0  0  0  0  0
   -0.0856   -1.7316    0.0000 O   0  0  0  0  0  0  0  0  0  0  0  0
  1  2  2  0
  1  6  1  0
  2  3  1  0
  3  4  2  0
  4  5  1  0
  5  6  2  0
  6  7  1  0
  7 10  1  0
  7  8  2  0
  8  9  1  0
  9 12  2  0
 10 11  2  0
 11 12  1  0
 12 13  1  0
 13 14  2  0
 13 15  1  0
 14 18  1  0
 15 16  2  0
 16 17  1  0
 17 18  2  0
 18 19  1  0
 19 20  1  0
 20 29  1  0
 20 25  1  0
 20 21  1  0
 21 23  2  0
 21 22  1  0
 21 24  1  0
 25 26  2  0
 25 28  1  0
 25 27  1  0
M  END
>  <DRUGBANK_ID>  (1) 
DB07409

>  <COMMON_NAME>  (1) 
(1-HYDROXY-1-PHOSPHONO-2-[1,1';4',1'']TERPHENYL-3-YL-ETHYL)-PHOSPHONIC ACID

$$$$
