
     RDKit          2D

 24 27  0  0  1  0  0  0  0  0999 V2000
   -1.2667   -0.6001    0.0000 C   0  0  0  0  0  0  0  0  0  0  0  0
   -1.2667   -1.4267    0.0000 C   0  0  0  0  0  0  0  0  0  0  0  0
   -0.5487   -1.8379    0.0000 C   0  0  0  0  0  0  0  0  0  0  0  0
   -0.5487   -0.1889    0.0000 C   0  0  0  0  0  0  0  0  0  0  0  0
    0.1610   -0.6001    0.0000 C   0  0  0  0  0  0  0  0  0  0  0  0
    0.1578   -1.4309    0.0000 C   0  0  0  0  0  0  0  0  0  0  0  0
    0.8708   -1.8389    0.0000 C   0  0  0  0  0  0  0  0  0  0  0  0
    1.5831   -1.4290    0.0000 C   0  0  0  0  0  0  0  0  0  0  0  0
    0.8687   -0.1899    0.0000 C   0  0  0  0  0  0  0  0  0  0  0  0
    1.5857   -0.6029    0.0000 C   0  0  0  0  0  0  0  0  0  0  0  0
    1.5812    1.0461    0.0000 C   0  0  0  0  0  0  0  0  0  0  0  0
    0.8695    0.6337    0.0000 C   0  0  0  0  0  0  0  0  0  0  0  0
    2.2983    0.6372    0.0000 C   0  0  0  0  0  0  0  0  0  0  0  0
    2.3006   -0.1890    0.0000 C   0  0  0  0  0  0  0  0  0  0  0  0
    3.0794   -0.4433    0.0000 C   0  0  0  0  0  0  0  0  0  0  0  0
    3.5630    0.2251    0.0000 C   0  0  0  0  0  0  0  0  0  0  0  0
    3.0810    0.8885    0.0000 C   0  0  0  0  0  0  0  0  0  0  0  0
    2.1222    1.4722    0.0000 C   0  0  0  0  0  0  0  0  0  0  0  0
    3.3308    1.6758    0.0000 O   0  0  0  0  0  0  0  0  0  0  0  0
   -1.9852   -1.8461    0.0000 O   0  0  0  0  0  0  0  0  0  0  0  0
   -2.7037   -1.4350    0.0000 C   0  0  0  0  0  0  0  0  0  0  0  0
   -3.4140   -1.8502    0.0000 C   0  0  0  0  0  0  0  0  0  0  0  0
   -4.1325   -1.4432    0.0000 C   0  0  0  0  0  0  0  0  0  0  0  0
    4.1325    1.8502    0.0000 C   0  0  0  0  0  0  0  0  0  0  0  0
  1  2  2  0
  1  4  1  0
  2  3  1  0
  2 20  1  0
  3  6  2  0
  5  9  1  0
  5  4  2  0
  5  6  1  0
  6  7  1  0
  7  8  1  0
 10  8  1  6
  9 10  1  0
  9 12  1  1
 10 14  1  0
 11 12  1  0
 13 14  1  0
 13 18  1  1
 13 11  1  0
 14 15  1  1
 15 16  1  0
 16 17  1  0
 17 13  1  0
 17 19  1  1
 19 24  1  0
 20 21  1  0
 21 22  1  0
 22 23  1  0
M  END
>  <DRUGBANK_ID>  (1) 
DB12487

>  <COMMON_NAME>  (1) 
Promestriene

>  <CAS_NUMBER>  (1) 
39219-28-8

>  <UNII>  (1) 
GXM4PER6WZ

>  <SYNONYMS>  (1) 
Promestriano; Promestriene; Promestrieno; Promestrienum

$$$$
