
     RDKit          2D

 21 24  0  0  0  0  0  0  0  0999 V2000
    1.0515    1.5056    0.0000 C   0  0  0  0  0  0  0  0  0  0  0  0
    1.0515    0.6806    0.0000 C   0  0  0  0  0  0  0  0  0  0  0  0
    1.0515   -0.1443    0.0000 C   0  0  0  0  0  0  0  0  0  0  0  0
    0.3392   -0.5661    0.0000 C   0  0  0  0  0  0  0  0  0  0  0  0
   -0.3731   -0.1505    0.0000 C   0  0  0  0  0  0  0  0  0  0  0  0
   -0.3731    0.6806    0.0000 C   0  0  0  0  0  0  0  0  0  0  0  0
    0.3392    1.0962    0.0000 C   0  0  0  0  0  0  0  0  0  0  0  0
   -1.0876   -0.5661    0.0000 C   0  0  0  0  0  0  0  0  0  0  0  0
   -1.0876   -1.3973    0.0000 C   0  0  0  0  0  0  0  0  0  0  0  0
   -0.3731   -1.8129    0.0000 C   0  0  0  0  0  0  0  0  0  0  0  0
    0.3392   -1.3973    0.0000 C   0  0  0  0  0  0  0  0  0  0  0  0
   -1.8002   -1.8129    0.0000 C   0  0  0  0  0  0  0  0  0  0  0  0
   -2.5126   -1.3973    0.0000 C   0  0  0  0  0  0  0  0  0  0  0  0
   -2.5126   -0.5661    0.0000 C   0  0  0  0  0  0  0  0  0  0  0  0
   -1.8002   -0.1505    0.0000 C   0  0  0  0  0  0  0  0  0  0  0  0
   -3.2271   -1.8109    0.0000 O   0  0  0  0  0  0  0  0  0  0  0  0
    1.8362   -0.3992    0.0000 C   0  0  0  0  0  0  0  0  0  0  0  0
    2.3211    0.2681    0.0000 C   0  0  0  0  0  0  0  0  0  0  0  0
    1.8362    0.9355    0.0000 C   0  0  0  0  0  0  0  0  0  0  0  0
    2.0528    1.8129    0.0000 O   0  0  0  0  0  0  0  0  0  0  0  0
    3.2271    0.5372    0.0000 F   0  0  0  0  0  0  0  0  0  0  0  0
  2  1  1  1
  2  3  1  0
  2  7  1  0
  2 19  1  0
  3  4  1  0
  3 17  1  1
  4  5  1  0
  4 11  1  6
  5  8  1  0
  5  6  1  1
  7  6  1  0
  8  9  2  0
  8 15  1  0
  9 12  1  0
 10  9  1  0
 11 10  1  0
 12 13  2  0
 13 16  1  0
 14 13  1  0
 15 14  2  0
 17 18  1  0
 18 21  1  6
 19 18  1  0
 19 20  1  1
M  ISO  1  21  18
M  END
>  <DRUGBANK_ID>  (1) 
DB15690

>  <COMMON_NAME>  (1) 
Fluoroestradiol F-18

>  <CAS_NUMBER>  (1) 
94153-53-4

>  <UNII>  (1) 
T32277KB09

>  <SYNONYMS>  (1) 
(18F)FES; 16-alpha-(18-Fluoro)-17betaestradiol; 16-alpha-(18F)Fluoro-17beta-estradiol; 16alpha-(18F)Fluoro-17beta-estradiol; F-18 16 alpha-Fluoroestradiol; F-18 Fes; Fes F-18

$$$$
