
     RDKit          2D

 33 34  0  0  0  0  0  0  0  0999 V2000
    3.9295    0.6184    0.0000 O   0  0  0  0  0  0  0  0  0  0  0  0
    3.2138   -0.6210    0.0000 O   0  0  0  0  0  0  0  0  0  0  0  0
    2.4997    1.4411    0.0000 C   0  0  0  0  0  0  0  0  0  0  0  0
    2.4996    0.6164    0.0000 C   0  0  0  0  0  0  0  0  0  0  0  0
    3.2128    0.2017    0.0000 C   0  0  0  0  0  0  0  0  0  0  0  0
    3.2118    2.6827    0.0000 C   0  0  0  0  0  0  0  0  0  0  0  0
    3.9335    3.0908    0.0000 C   0  0  0  0  0  0  0  0  0  0  0  0
    4.6502    2.6740    0.0000 C   0  0  0  0  0  0  0  0  0  0  0  0
    4.6454    1.8491    0.0000 C   0  0  0  0  0  0  0  0  0  0  0  0
    3.9308    1.4367    0.0000 C   0  0  0  0  0  0  0  0  0  0  0  0
    3.2141    1.8535    0.0000 C   0  0  0  0  0  0  0  0  0  0  0  0
    5.3664    3.0833    0.0000 F   0  0  0  0  0  0  0  0  0  0  0  0
    1.7841    0.2018    0.0000 N   0  0  0  0  0  0  0  0  0  0  0  0
    1.0709    1.4414    0.0000 O   0  0  0  0  0  0  0  0  0  0  0  0
   -0.3567    0.6187    0.0000 C   0  0  0  0  0  0  0  0  0  0  0  0
    0.3565    0.2040    0.0000 C   0  0  0  0  0  0  0  0  0  0  0  0
    1.0709    0.6165    0.0000 C   0  0  0  0  0  0  0  0  0  0  0  0
   -1.0698   -0.6248    0.0000 C   0  0  0  0  0  0  0  0  0  0  0  0
   -1.7915   -1.0330    0.0000 C   0  0  0  0  0  0  0  0  0  0  0  0
   -2.5083   -0.6162    0.0000 C   0  0  0  0  0  0  0  0  0  0  0  0
   -2.5034    0.2086    0.0000 C   0  0  0  0  0  0  0  0  0  0  0  0
   -1.7891    0.6210    0.0000 C   0  0  0  0  0  0  0  0  0  0  0  0
   -1.0722    0.2042    0.0000 C   0  0  0  0  0  0  0  0  0  0  0  0
   -3.2246   -1.0253    0.0000 N   0  0  0  0  0  0  0  0  0  0  0  0
   -2.5195   -3.0908    0.0000 Cl  0  0  0  0  0  0  0  0  0  0  0  0
   -2.5152   -2.2649    0.0000 C   0  0  0  0  0  0  0  0  0  0  0  0
   -3.2283   -1.8503    0.0000 C   0  0  0  0  0  0  0  0  0  0  0  0
   -4.6532   -1.0190    0.0000 C   0  0  0  0  0  0  0  0  0  0  0  0
   -3.9376   -0.6108    0.0000 C   0  0  0  0  0  0  0  0  0  0  0  0
   -5.3664   -0.6043    0.0000 Cl  0  0  0  0  0  0  0  0  0  0  0  0
    0.3565   -0.6207    0.0000 N   0  0  0  0  0  0  0  0  0  0  0  0
    5.3571    0.6161    0.0000 C   0  0  0  0  0  0  0  0  0  0  0  0
    4.6427    0.2037    0.0000 C   0  0  0  0  0  0  0  0  0  0  0  0
  4  3  1  1
  4  5  1  0
  5  1  1  0
  5  2  2  0
  7  6  2  0
  8  7  1  0
  9  8  2  0
 10  9  1  0
 11  3  1  0
 11  6  1  0
 11 10  2  0
 12  8  1  0
 13  4  1  0
 16 31  1  1
 16 15  1  0
 17 13  1  0
 17 14  2  0
 17 16  1  0
 19 18  2  0
 20 19  1  0
 21 20  2  0
 22 21  1  0
 23 15  1  0
 23 18  1  0
 23 22  2  0
 24 20  1  0
 26 25  1  0
 27 24  1  0
 27 26  1  0
 29 24  1  0
 29 28  1  0
 30 28  1  0
 33  1  1  0
 33 32  1  0
M  END
>  <DRUGBANK_ID>  (1) 
DB16627

>  <COMMON_NAME>  (1) 
Melphalan flufenamide

>  <CAS_NUMBER>  (1) 
380449-51-4

>  <UNII>  (1) 
F70C5K4786

>  <SYNONYMS>  (1) 
Melflufen; Melphalan flufenamide; MFF

$$$$
