
     RDKit          2D

 19 20  0  0  0  0  0  0  0  0999 V2000
   -0.0392   -1.8401    0.0000 N   0  0  0  0  0  0  0  0  0  0  0  0
   -0.7067   -2.3250    0.0000 C   0  0  0  0  0  0  0  0  0  0  0  0
    0.6281   -2.3251    0.0000 C   0  0  0  0  0  0  0  0  0  0  0  0
   -0.0391   -1.0151    0.0000 C   0  0  0  0  0  0  0  0  0  0  0  0
   -0.4518   -3.1096    0.0000 N   0  0  0  0  0  0  0  0  0  0  0  0
   -1.4913   -2.0700    0.0000 N   0  0  0  0  0  0  0  0  0  0  0  0
    0.3731   -3.1096    0.0000 C   0  0  0  0  0  0  0  0  0  0  0  0
    0.6753   -0.6027    0.0000 C   0  0  0  0  0  0  0  0  0  0  0  0
   -2.1044   -2.6220    0.0000 O   0  0  0  0  0  0  0  0  0  0  0  0
   -1.6627   -1.2630    0.0000 O   0  0  0  0  0  0  0  0  0  0  0  0
    0.6753    0.2222    0.0000 N   0  0  0  0  0  0  0  0  0  0  0  0
    1.3896   -1.0152    0.0000 O   0  0  0  0  0  0  0  0  0  0  0  0
    1.3898    0.6347    0.0000 C   0  0  0  0  0  0  0  0  0  0  0  0
    1.3899    1.4597    0.0000 C   0  0  0  0  0  0  0  0  0  0  0  0
    2.1044    1.8721    0.0000 C   0  0  0  0  0  0  0  0  0  0  0  0
    0.6754    1.8722    0.0000 C   0  0  0  0  0  0  0  0  0  0  0  0
    2.1044    2.6971    0.0000 C   0  0  0  0  0  0  0  0  0  0  0  0
    0.6755    2.6972    0.0000 C   0  0  0  0  0  0  0  0  0  0  0  0
    1.3900    3.1096    0.0000 C   0  0  0  0  0  0  0  0  0  0  0  0
  1  2  1  0
  1  3  1  0
  1  4  1  0
  2  5  2  0
  2  6  1  0
  3  7  2  0
  4  8  1  0
  5  7  1  0
  6  9  2  0
  6 10  1  0
  8 11  1  0
  8 12  2  0
 11 13  1  0
 13 14  1  0
 14 15  2  0
 14 16  1  0
 15 17  1  0
 16 18  2  0
 17 19  2  0
 18 19  1  0
M  CHG  2   6   1  10  -1
M  END
>  <DRUGBANK_ID>  (1) 
DB11989

>  <COMMON_NAME>  (1) 
Benznidazole

>  <CAS_NUMBER>  (1) 
22994-85-0

>  <UNII>  (1) 
YC42NRJ1ZD

>  <SYNONYMS>  (1) 
Benznidazol; Benznidazole; Benznidazolum

$$$$
