
     RDKit          2D

 35 34  0  0  1  0  0  0  0  0999 V2000
   14.1355   -8.1612    0.0000 C   0  0  0  0  0  0  0  0  0  0  0  0
   14.8500   -8.5737    0.0000 C   0  0  0  0  0  0  0  0  0  0  0  0
   15.5645   -8.1612    0.0000 C   0  0  0  0  0  0  0  0  0  0  0  0
   16.2789   -8.5737    0.0000 C   0  0  0  0  0  0  0  0  0  0  0  0
   16.9934   -8.1612    0.0000 C   0  0  0  0  0  0  0  0  0  0  0  0
   17.7079   -8.5737    0.0000 C   0  0  0  0  0  0  0  0  0  0  0  0
   18.4224   -8.1612    0.0000 C   0  0  0  0  0  0  0  0  0  0  0  0
   19.1368   -8.5737    0.0000 C   0  0  0  0  0  0  0  0  0  0  0  0
   19.8513   -8.1612    0.0000 C   0  0  0  0  0  0  0  0  0  0  0  0
   20.5658   -8.5737    0.0000 C   0  0  0  0  0  0  0  0  0  0  0  0
   21.2802   -8.1612    0.0000 C   0  0  0  0  0  0  0  0  0  0  0  0
   21.9947   -8.5737    0.0000 C   0  0  0  0  0  0  0  0  0  0  0  0
   22.7092   -8.1612    0.0000 C   0  0  0  0  0  0  0  0  0  0  0  0
   23.4237   -8.5737    0.0000 C   0  0  0  0  0  0  0  0  0  0  0  0
   24.1381   -8.1612    0.0000 C   0  0  0  0  0  0  0  0  0  0  0  0
   24.8526   -8.5737    0.0000 C   0  0  0  0  0  0  0  0  0  0  0  0
   25.5671   -8.1612    0.0000 O   0  0  0  0  0  0  0  0  0  0  0  0
   26.2815   -8.5737    0.0000 C   0  0  0  0  0  0  0  0  0  0  0  0
   26.9960   -8.1612    0.0000 C   0  0  0  0  0  0  0  0  0  0  0  0
   27.7105   -8.5737    0.0000 C   0  0  0  0  0  0  0  0  0  0  0  0
   28.4249   -8.1612    0.0000 O   0  0  0  0  0  0  0  0  0  0  0  0
   29.1394   -8.5737    0.0000 P   0  0  0  0  0  0  0  0  0  0  0  0
   28.7269   -9.2881    0.0000 O   0  0  0  0  0  0  0  0  0  0  0  0
   29.5519   -7.8592    0.0000 O   0  0  0  0  0  0  0  0  0  0  0  0
   29.8539   -8.9862    0.0000 O   0  0  0  0  0  0  0  0  0  0  0  0
   30.5684   -8.5737    0.0000 C   0  0  0  0  0  0  0  0  0  0  0  0
   31.2828   -8.9862    0.0000 C   0  0  0  0  0  0  0  0  0  0  0  0
   31.9973   -8.5737    0.0000 N   0  0  0  0  0  0  0  0  0  0  0  0
   32.7118   -8.1612    0.0000 C   0  0  0  0  0  0  0  0  0  0  0  0
   32.4098   -9.2881    0.0000 C   0  0  0  0  0  0  0  0  0  0  0  0
   31.5848   -7.8592    0.0000 C   0  0  0  0  0  0  0  0  0  0  0  0
   26.9960   -7.3362    0.0000 O   0  0  0  0  0  0  0  0  0  0  0  0
   26.2815   -6.9237    0.0000 C   0  0  0  0  0  0  0  0  0  0  0  0
   25.5671   -7.3362    0.0000 C   0  0  0  0  0  0  0  0  0  0  0  0
   26.2815   -6.0987    0.0000 O   0  0  0  0  0  0  0  0  0  0  0  0
  1  2  1  0
  2  3  1  0
  3  4  1  0
  4  5  1  0
  5  6  1  0
  6  7  1  0
  7  8  1  0
  8  9  1  0
  9 10  1  0
 10 11  1  0
 11 12  1  0
 12 13  1  0
 13 14  1  0
 14 15  1  0
 15 16  1  0
 16 17  1  0
 17 18  1  0
 19 18  1  1
 19 20  1  0
 19 32  1  0
 20 21  1  0
 22 21  1  0
 22 23  1  6
 22 24  2  0
 22 25  1  0
 25 26  1  0
 26 27  1  0
 27 28  1  0
 28 29  1  0
 28 30  1  0
 28 31  1  0
 32 33  1  0
 33 34  1  0
 33 35  2  0
M  CHG  2  23  -1  28   1
M  END
>  <DRUGBANK_ID>  (1) 
DB02261

>  <SECONDARY_ACCESSION_NUMBERS>  (1) 
EXPT02559

>  <COMMON_NAME>  (1) 
Platelet Activating Factor

>  <CAS_NUMBER>  (1) 
74389-68-7

>  <UNII>  (1) 
42EWD89I80

>  <SYNONYMS>  (1) 
1-hexadecyl-2-acetyl-glycero-3-phosphocholine; Blood platelet-activating factor; PAF; PAF 16; PAF acether; Platelet-activating factor

$$$$
