JT6
     RDKit          2D

 21 22  0  0  0  0  0  0  0  0999 V2000
   -3.1027   -1.3028    0.0000 C   0  0  0  0  0  0  0  0  0  0  0  0
   -2.3883   -1.7153    0.0000 C   0  0  0  0  0  0  0  0  0  0  0  0
   -1.6738   -1.3028    0.0000 C   0  0  0  0  0  0  0  0  0  0  0  0
   -1.6738   -0.4778    0.0000 C   0  0  0  0  0  0  0  0  0  0  0  0
   -0.2448    1.1722    0.0000 C   0  0  0  0  0  0  0  0  0  0  0  0
   -0.9593    0.7597    0.0000 C   0  0  0  0  0  0  0  0  0  0  0  0
   -0.2448   -0.4778    0.0000 C   0  0  0  0  0  0  0  0  0  0  0  0
    0.4696   -0.0653    0.0000 C   0  0  0  0  0  0  0  0  0  0  0  0
   -3.1027   -0.4778    0.0000 C   0  0  0  0  0  0  0  0  0  0  0  0
    0.4696    0.7597    0.0000 C   0  0  0  0  0  0  0  0  0  0  0  0
   -2.3883   -0.0653    0.0000 C   0  0  0  0  0  0  0  0  0  0  0  0
    3.3275    0.7597    0.0000 C   0  0  0  0  0  0  0  0  0  0  0  0
    1.8986    0.7597    0.0000 C   0  0  0  0  0  0  0  0  0  0  0  0
    2.6130    1.1722    0.0000 C   0  0  0  0  0  0  0  0  0  0  0  0
    4.0420    1.1722    0.0000 N   0  0  0  0  0  0  0  0  0  0  0  0
    3.3275   -0.0653    0.0000 O   0  0  0  0  0  0  0  0  0  0  0  0
    4.7565    0.7597    0.0000 O   0  0  0  0  0  0  0  0  0  0  0  0
    1.1841    1.1722    0.0000 O   0  0  0  0  0  0  0  0  0  0  0  0
   -0.9593   -0.0653    0.0000 C   0  0  0  0  0  0  0  0  0  0  0  0
   -3.8172   -1.7153    0.0000 C   0  0  0  0  0  0  0  0  0  0  0  0
   -4.5317   -2.1278    0.0000 N   0  0  0  0  0  0  0  0  0  0  0  0
  1  9  2  0
  1  2  1  0
  2  3  2  0
  3  4  1  0
  4 19  1  0
  5 10  2  0
  6  5  1  0
  7  8  2  0
  8 10  1  0
  9 11  1  0
 10 18  1  0
 11  4  2  0
 12 14  1  0
 13 14  1  0
 15 12  1  0
 16 12  2  0
 17 15  1  0
 18 13  1  0
 19  7  1  0
 19  6  2  0
 20  1  1  0
 21 20  3  0
M  END
>  <DRUGBANK_ID>  (1) 
DB08030

>  <COMMON_NAME>  (1) 
3-[(4'-cyanobiphenyl-4-yl)oxy]-N-hydroxypropanamide

$$$$
