
     RDKit          2D

 36 36  0  0  0  0  0  0  0  0999 V2000
   -6.5371   -1.1576    0.0000 O   0  0  0  0  0  0  0  0  0  0  0  0
   -6.5371   -0.3326    0.0000 P   0  0  0  0  0  0  0  0  0  0  0  0
   -6.5371    0.4923    0.0000 O   0  0  0  0  0  0  0  0  0  0  0  0
   -5.7121   -0.3326    0.0000 O   0  0  0  0  0  0  0  0  0  0  0  0
   -7.3621   -0.3326    0.0000 O   0  0  0  0  0  0  0  0  0  0  0  0
   -3.3549   -1.6500    0.0000 C   0  0  0  0  0  0  0  0  0  0  0  0
   -2.6404   -1.2375    0.0000 N   0  0  0  0  0  0  0  0  0  0  0  0
   -2.6404   -0.4125    0.0000 C   0  0  0  0  0  0  0  0  0  0  0  0
   -1.9260   -1.6500    0.0000 C   0  0  0  0  0  0  0  0  0  0  0  0
   -1.2115   -1.2375    0.0000 C   0  0  0  0  0  0  0  0  0  0  0  0
   -0.4970   -1.6500    0.0000 C   0  0  0  0  0  0  0  0  0  0  0  0
    0.2173   -1.2375    0.0000 N   0  0  0  0  0  0  0  0  0  0  0  0
    0.9318   -1.6500    0.0000 C   0  0  0  0  0  0  0  0  0  0  0  0
    0.9318   -2.4750    0.0000 O   0  0  0  0  0  0  0  0  0  0  0  0
    1.6463   -1.2375    0.0000 C   0  0  0  0  0  0  0  0  0  0  0  0
    1.6463   -0.4125    0.0000 C   0  0  0  0  0  0  0  0  0  0  0  0
    0.9318    0.0000    0.0000 O   0  0  0  0  0  0  0  0  0  0  0  0
    0.9318    0.8250    0.0000 C   0  0  0  0  0  0  0  0  0  0  0  0
    0.2173    1.2375    0.0000 C   0  0  0  0  0  0  0  0  0  0  0  0
   -0.4970    0.8250    0.0000 C   0  0  0  0  0  0  0  0  0  0  0  0
   -1.2115    1.2375    0.0000 C   0  0  0  0  0  0  0  0  0  0  0  0
   -1.2115    2.0625    0.0000 C   0  0  0  0  0  0  0  0  0  0  0  0
   -0.4970    2.4750    0.0000 C   0  0  0  0  0  0  0  0  0  0  0  0
    0.2173    2.0625    0.0000 C   0  0  0  0  0  0  0  0  0  0  0  0
    0.9318    2.4750    0.0000 C   0  0  0  0  0  0  0  0  0  0  0  0
    1.6463    2.0625    0.0000 C   0  0  0  0  0  0  0  0  0  0  0  0
    1.6463    1.2375    0.0000 C   0  0  0  0  0  0  0  0  0  0  0  0
    2.3607   -1.6500    0.0000 C   0  0  0  0  0  0  0  0  0  0  0  0
    3.0752   -1.2375    0.0000 C   0  0  0  0  0  0  0  0  0  0  0  0
    3.7897   -1.6500    0.0000 C   0  0  0  0  0  0  0  0  0  0  0  0
    4.5042   -1.2375    0.0000 C   0  0  0  0  0  0  0  0  0  0  0  0
    5.2186   -1.6500    0.0000 C   0  0  0  0  0  0  0  0  0  0  0  0
    5.9331   -1.2375    0.0000 C   0  0  0  0  0  0  0  0  0  0  0  0
    5.9331   -0.4125    0.0000 O   0  0  0  0  0  0  0  0  0  0  0  0
    6.6476   -1.6500    0.0000 N   0  0  0  0  0  0  0  0  0  0  0  0
    7.3621   -1.2375    0.0000 O   0  0  0  0  0  0  0  0  0  0  0  0
  1  2  1  0
  2  3  1  0
  2  4  1  0
  2  5  2  0
  6  7  1  0
  7  8  1  0
  7  9  1  0
  9 10  1  0
 10 11  1  0
 11 12  1  0
 12 13  1  0
 13 14  2  0
 13 15  1  0
 15 16  1  0
 15 28  2  0
 16 17  1  0
 17 18  1  0
 18 19  2  0
 18 27  1  0
 19 20  1  0
 19 24  1  0
 20 21  2  0
 21 22  1  0
 22 23  2  0
 23 24  1  0
 24 25  2  0
 25 26  1  0
 26 27  2  0
 28 29  1  0
 29 30  1  0
 30 31  1  0
 31 32  1  0
 32 33  1  0
 33 34  2  0
 33 35  1  0
 35 36  1  0
M  END
>  <DRUGBANK_ID>  (1) 
DB17118

>  <COMMON_NAME>  (1) 
Ivaltinostat

>  <CAS_NUMBER>  (1) 
936221-33-9

>  <SYNONYMS>  (1) 
(E)-N-(3-(DIMETHYLAMINO)PROPYL)-N'-HYDROXY-2-((1-NAPHTHYLOXY)METHYL)-2-OCTENEDIAMIDE; 2-OCTENEDIAMIDE, N1-(3-(DIMETHYLAMINO)PROPYL)-N8-HYDROXY-2-((1-NAPHTHALENYLOXY)METHYL)-, (2E)-

$$$$
