A17
     RDKit          2D

 30 34  0  0  0  0  0  0  0  0999 V2000
   -1.9969   -0.5963    0.0000 C   0  0  0  0  0  0  0  0  0  0  0  0
   -1.9969    0.2287    0.0000 C   0  0  0  0  0  0  0  0  0  0  0  0
   -1.2825    0.6412    0.0000 C   0  0  0  0  0  0  0  0  0  0  0  0
   -0.5680    0.2287    0.0000 C   0  0  0  0  0  0  0  0  0  0  0  0
   -2.7114   -1.0088    0.0000 C   0  0  0  0  0  0  0  0  0  0  0  0
    0.8609   -0.5963    0.0000 C   0  0  0  0  0  0  0  0  0  0  0  0
    1.5754   -1.0088    0.0000 C   0  0  0  0  0  0  0  0  0  0  0  0
    0.1465   -1.8338    0.0000 C   0  0  0  0  0  0  0  0  0  0  0  0
    2.2899    0.2287    0.0000 O   0  0  0  0  0  0  0  0  0  0  0  0
    0.8609   -2.2463    0.0000 C   0  0  0  0  0  0  0  0  0  0  0  0
   -0.5680   -0.5963    0.0000 C   0  0  0  0  0  0  0  0  0  0  0  0
   -1.2825   -1.0088    0.0000 C   0  0  0  0  0  0  0  0  0  0  0  0
   -3.4259   -0.5963    0.0000 N   0  0  0  0  0  0  0  0  0  0  0  0
   -3.4259    0.2287    0.0000 N   0  0  0  0  0  0  0  0  0  0  0  0
   -2.7114    0.6412    0.0000 C   0  0  0  0  0  0  0  0  0  0  0  0
    0.1465   -1.0088    0.0000 C   0  0  0  0  0  0  0  0  0  0  0  0
    1.5754   -1.8338    0.0000 C   0  0  0  0  0  0  0  0  0  0  0  0
   -0.5680   -2.2463    0.0000 C   0  0  0  0  0  0  0  0  0  0  0  0
    2.2899   -0.5963    0.0000 C   0  0  0  0  0  0  0  0  0  0  0  0
    3.7188   -0.5963    0.0000 C   0  0  0  0  0  0  0  0  0  0  0  0
    4.1313    0.1182    0.0000 C   0  0  0  0  0  0  0  0  0  0  0  0
    4.5438   -0.5963    0.0000 C   0  0  0  0  0  0  0  0  0  0  0  0
   -2.7114    1.4662    0.0000 C   0  0  0  0  0  0  0  0  0  0  0  0
   -3.4259    1.8787    0.0000 C   0  0  0  0  0  0  0  0  0  0  0  0
   -3.4259    2.7037    0.0000 C   0  0  0  0  0  0  0  0  0  0  0  0
   -2.7114    3.1162    0.0000 C   0  0  0  0  0  0  0  0  0  0  0  0
   -1.9969    2.7037    0.0000 C   0  0  0  0  0  0  0  0  0  0  0  0
   -1.9969    1.8787    0.0000 C   0  0  0  0  0  0  0  0  0  0  0  0
   -1.2825    1.4662    0.0000 C   0  0  0  0  0  0  0  0  0  0  0  0
    3.0044   -1.0088    0.0000 N   0  0  0  0  0  0  0  0  0  0  0  0
  1  2  1  0
  1  5  1  0
  1 12  2  0
  2  3  2  0
  2 15  1  0
  3  4  1  0
  4 11  2  0
  5 13  2  0
  6  7  2  0
  6 16  1  0
  7 17  1  0
  7 19  1  0
  8 10  1  0
  8 16  2  0
  8 18  1  0
  9 19  2  0
 10 17  2  0
 11 12  1  0
 11 16  1  0
 13 14  1  0
 14 15  2  0
 15 23  1  0
 19 30  1  0
 20 21  1  0
 20 22  1  0
 20 30  1  0
 21 22  1  0
 23 24  2  0
 23 28  1  0
 24 25  1  0
 25 26  2  0
 26 27  1  0
 27 28  2  0
 28 29  1  0
M  END
>  <DRUGBANK_ID>  (1) 
DB07307

>  <COMMON_NAME>  (1) 
N-cyclopropyl-4-methyl-3-[1-(2-methylphenyl)phthalazin-6-yl]benzamide

$$$$
