
     RDKit          2D

 14 15  0  0  0  0  0  0  0  0999 V2000
    0.9641    2.2319    0.0000 C   0  0  0  0  0  0  0  0  0  0  0  0
    1.1337    1.4239    0.0000 C   0  0  0  0  0  0  0  0  0  0  0  0
    1.3079    0.6204    0.0000 C   0  0  0  0  0  0  0  0  0  0  0  0
    0.6919    0.0668    0.0000 N   0  0  0  0  0  0  0  0  0  0  0  0
   -0.0892    0.3213    0.0000 C   0  0  0  0  0  0  0  0  0  0  0  0
    0.8660   -0.7410    0.0000 C   0  0  0  0  0  0  0  0  0  0  0  0
    1.3480   -1.4060    0.0000 C   0  0  0  0  0  0  0  0  0  0  0  0
    0.8660   -2.0756    0.0000 C   0  0  0  0  0  0  0  0  0  0  0  0
    0.0803   -1.8212    0.0000 C   0  0  0  0  0  0  0  0  0  0  0  0
    0.0803   -0.9955    0.0000 C   0  0  0  0  0  0  0  0  0  0  0  0
   -0.6338   -0.5847    0.0000 C   0  0  0  0  0  0  0  0  0  0  0  0
   -1.3480   -0.9955    0.0000 C   0  0  0  0  0  0  0  0  0  0  0  0
   -1.3480   -1.8212    0.0000 C   0  0  0  0  0  0  0  0  0  0  0  0
   -0.6338   -2.2319    0.0000 C   0  0  0  0  0  0  0  0  0  0  0  0
  1  2  3  0
  2  3  1  0
  3  4  1  0
  4  5  1  0
  6  4  1  6
  6  7  1  0
  6 10  1  0
  7  8  1  0
  8  9  1  0
  9 10  2  0
  9 14  1  0
 10 11  1  0
 11 12  2  0
 12 13  1  0
 13 14  2  0
M  END
>  <DRUGBANK_ID>  (1) 
DB02211

>  <SECONDARY_ACCESSION_NUMBERS>  (1) 
EXPT02792

>  <COMMON_NAME>  (1) 
(R)-N-methyl-N-2-propynyl-1-indanamine

>  <CAS_NUMBER>  (1) 
124192-87-6

>  <UNII>  (1) 
1Y7XS87IZR

>  <SYNONYMS>  (1) 
N-Methyl-N-propargyl-1(R)-aminoindan

$$$$
