2BF
     RDKit          2D

 19 20  0  0  0  0  0  0  0  0999 V2000
   -1.8219   -1.3350    0.0000 C   0  0  0  0  0  0  0  0  0  0  0  0
   -2.5364   -0.9225    0.0000 C   0  0  0  0  0  0  0  0  0  0  0  0
   -2.5364   -0.0975    0.0000 C   0  0  0  0  0  0  0  0  0  0  0  0
   -1.8219    0.3150    0.0000 C   0  0  0  0  0  0  0  0  0  0  0  0
   -1.1074   -0.0975    0.0000 C   0  0  0  0  0  0  0  0  0  0  0  0
   -1.1074   -0.9225    0.0000 C   0  0  0  0  0  0  0  0  0  0  0  0
   -0.3930    0.3150    0.0000 C   0  0  0  0  0  0  0  0  0  0  0  0
    1.7505   -0.0975    0.0000 C   0  0  0  0  0  0  0  0  0  0  0  0
    2.4649    0.3150    0.0000 C   0  0  0  0  0  0  0  0  0  0  0  0
    3.1794   -0.0975    0.0000 C   0  0  0  0  0  0  0  0  0  0  0  0
    3.1794   -0.9225    0.0000 C   0  0  0  0  0  0  0  0  0  0  0  0
    2.4649   -1.3350    0.0000 C   0  0  0  0  0  0  0  0  0  0  0  0
    1.7505   -0.9225    0.0000 C   0  0  0  0  0  0  0  0  0  0  0  0
   -0.3930    1.1400    0.0000 P   0  0  0  0  0  0  0  0  0  0  0  0
    0.4320    1.1400    0.0000 O   0  0  0  0  0  0  0  0  0  0  0  0
   -1.2180    1.1400    0.0000 O   0  0  0  0  0  0  0  0  0  0  0  0
   -0.3930    1.9650    0.0000 O   0  0  0  0  0  0  0  0  0  0  0  0
    0.3215   -0.0975    0.0000 N   0  0  0  0  0  0  0  0  0  0  0  0
    1.0360    0.3150    0.0000 C   0  0  0  0  0  0  0  0  0  0  0  0
  1  2  2  0
  1  6  1  0
  2  3  1  0
  3  4  2  0
  4  5  1  0
  5  6  2  0
  5  7  1  0
  7 14  1  0
  7 18  1  1
  8  9  2  0
  8 13  1  0
  8 19  1  0
  9 10  1  0
 10 11  2  0
 11 12  1  0
 12 13  2  0
 14 15  2  0
 14 16  1  0
 14 17  1  0
 18 19  1  0
M  END
>  <DRUGBANK_ID>  (1) 
DB03577

>  <SECONDARY_ACCESSION_NUMBERS>  (1) 
EXPT00105

>  <COMMON_NAME>  (1) 
Alpha-Benzyl-Aminobenzyl-Phosphonic Acid

$$$$
