
     RDKit          2D

 21 18  0  0  0  0  0  0  0  0999 V2000
   -4.0020    0.4517    0.0000 Zn  0  0  0  0  0 15  0  0  0  0  0  0
   -0.9125    1.7262    0.0000 C   0  0  0  0  0  0  0  0  0  0  0  0
   -0.1965    2.1360    0.0000 C   0  0  0  0  0  0  0  0  0  0  0  0
    0.5272    1.7294    0.0000 C   0  0  0  0  0  0  0  0  0  0  0  0
    1.2340    2.1552    0.0000 C   0  0  0  0  0  0  0  0  0  0  0  0
    1.2340    2.9700    0.0000 O   0  0  0  0  0  0  0  0  0  0  0  0
    1.9522    1.7667    0.0000 O   0  0  0  0  0  0  0  0  0  0  0  0
    2.6635    2.1925    0.0000 C   0  0  0  0  0  0  0  0  0  0  0  0
    3.3770    1.7997    0.0000 C   0  0  0  0  0  0  0  0  0  0  0  0
   -1.6179    2.1326    0.0000 O   0  0  0  0  0  0  0  0  0  0  0  0
   -0.9125    0.9098    0.0000 O   0  0  0  0  0  0  0  0  0  0  0  0
   -0.8456   -1.2647    0.0000 C   0  0  0  0  0  0  0  0  0  0  0  0
   -0.1296   -0.8549    0.0000 C   0  0  0  0  0  0  0  0  0  0  0  0
    0.5942   -1.2615    0.0000 C   0  0  0  0  0  0  0  0  0  0  0  0
    1.3010   -0.8358    0.0000 C   0  0  0  0  0  0  0  0  0  0  0  0
    1.3010   -0.0210    0.0000 O   0  0  0  0  0  0  0  0  0  0  0  0
    2.0192   -1.2242    0.0000 O   0  0  0  0  0  0  0  0  0  0  0  0
    2.7305   -0.7985    0.0000 C   0  0  0  0  0  0  0  0  0  0  0  0
    3.4440   -1.1913    0.0000 C   0  0  0  0  0  0  0  0  0  0  0  0
   -1.5509   -0.8583    0.0000 O   0  0  0  0  0  0  0  0  0  0  0  0
   -0.8456   -2.0811    0.0000 O   0  0  0  0  0  0  0  0  0  0  0  0
  3  2  1  0
  4  3  2  0
  5  4  1  0
  6  5  2  0
  7  5  1  0
  8  7  1  0
  9  8  1  0
 10  2  1  0
 11  2  2  0
 13 12  1  0
 14 13  2  0
 15 14  1  0
 16 15  2  0
 17 15  1  0
 18 17  1  0
 19 18  1  0
 20 12  1  0
 21 12  2  0
M  CHG  3   1   2  10  -1  20  -1
M  END
>  <DRUGBANK_ID>  (1) 
DB15818

>  <COMMON_NAME>  (1) 
Zinc monoethylfumarate

>  <CAS_NUMBER>  (1) 
62008-21-3

>  <UNII>  (1) 
M1U6WWM55B

>  <SYNONYMS>  (1) 
Ethyl fumarate zinc; Ethyl hydrogenfumarate-zinc; Monoethyl fumarate zinc salt; Zinc di(ethyl fumarate); Zinc ethyl fumarate; Zinc monoethylfumarate

$$$$
