
     RDKit          2D

 31 34  0  0  0  0  0  0  0  0999 V2000
    0.3308    0.4590    0.0000 C   0  0  0  0  0  0  0  0  0  0  0  0
   -0.4111    0.0994    0.0000 C   0  0  0  0  0  0  0  0  0  0  0  0
    1.0751    0.1018    0.0000 C   0  0  0  0  0  0  0  0  0  0  0  0
    0.8449    1.1035    0.0000 C   0  0  0  0  0  0  0  0  0  0  0  0
    0.2198    1.2767    0.0000 C   0  0  0  0  0  0  0  0  0  0  0  0
   -0.9813    0.6957    0.0000 C   0  0  0  0  0  0  0  0  0  0  0  0
   -0.5941   -0.7050    0.0000 C   0  0  0  0  0  0  0  0  0  0  0  0
   -1.2061   -0.1200    0.0000 O   0  0  0  0  0  0  0  0  0  0  0  0
    1.2592   -0.7036    0.0000 C   0  0  0  0  0  0  0  0  0  0  0  0
    1.7203    0.6156    0.0000 O   0  0  0  0  0  0  0  0  0  0  0  0
    1.6708    1.1055    0.0000 C   0  0  0  0  0  0  0  0  0  0  0  0
    0.4858    1.8477    0.0000 C   0  0  0  0  0  0  0  0  0  0  0  0
   -0.5913    1.4220    0.0000 C   0  0  0  0  0  0  0  0  0  0  0  0
   -1.7991    0.5844    0.0000 O   0  0  0  0  0  0  0  0  0  0  0  0
   -0.0802   -1.3480    0.0000 C   0  0  0  0  0  0  0  0  0  0  0  0
   -1.3996   -0.8889    0.0000 O   0  0  0  0  0  0  0  0  0  0  0  0
    2.0015   -0.3440    0.0000 C   0  0  0  0  0  0  0  0  0  0  0  0
    0.7454   -1.3480    0.0000 C   0  0  0  0  0  0  0  0  0  0  0  0
    2.1845    0.4604    0.0000 C   0  0  0  0  0  0  0  0  0  0  0  0
   -0.9503    2.1662    0.0000 C   0  0  0  0  0  0  0  0  0  0  0  0
   -2.1838    1.3158    0.0000 C   0  0  0  0  0  0  0  0  0  0  0  0
   -0.4372   -2.0924    0.0000 C   0  0  0  0  0  0  0  0  0  0  0  0
    2.7895   -0.1002    0.0000 C   0  0  0  0  0  0  0  0  0  0  0  0
   -3.0080    1.3483    0.0000 C   0  0  0  0  0  0  0  0  0  0  0  0
   -1.7426    2.0120    0.0000 O   0  0  0  0  0  0  0  0  0  0  0  0
    0.0288   -2.7740    0.0000 O   0  0  0  0  0  0  0  0  0  0  0  0
    3.4495    0.3976    0.0000 C   0  0  0  0  0  0  0  0  0  0  0  0
    3.1693   -0.8345    0.0000 C   0  0  0  0  0  0  0  0  0  0  0  0
   -3.3910    2.0774    0.0000 C   0  0  0  0  0  0  0  0  0  0  0  0
   -3.4495    0.6503    0.0000 C   0  0  0  0  0  0  0  0  0  0  0  0
   -2.9521    2.7740    0.0000 C   0  0  0  0  0  0  0  0  0  0  0  0
  1  2  1  0
  1  3  1  0
  1  4  1  0
  1  5  1  6
  2  6  1  0
  2  7  1  0
  2  8  1  1
  3 10  2  0
  4 11  1  0
  4 12  1  6
  5 13  2  0
  6 13  1  0
  6 14  1  1
  7 15  1  0
  7 16  1  1
  9  3  1  0
  9 17  1  0
  9 18  1  1
 19 11  1  1
 13 20  1  0
 14 21  1  0
 15 18  2  0
 15 22  1  0
 17 19  1  0
 17 23  1  1
 19 23  1  0
 21 24  1  0
 21 25  2  0
 22 26  1  0
 23 27  1  0
 23 28  1  0
 24 29  2  0
 24 30  1  0
 29 31  1  0
M  END
>  <DRUGBANK_ID>  (1) 
DB05013

>  <COMMON_NAME>  (1) 
Ingenol mebutate

>  <CAS_NUMBER>  (1) 
75567-37-2

>  <UNII>  (1) 
7686S50JAH

>  <SYNONYMS>  (1) 
3-Angeloylingenol; 3-Ingenyl angelate; Ingenol 3-angelate; Ingenol mebutate; Ingenol mebutato; Ingenoli mebutas; Mébutate d'ingénol; Mebutato de ingenol

$$$$
