
     RDKit          2D

 24 26  0  0  0  0  0  0  0  0999 V2000
    4.3035   -0.2569    0.0000 N   0  0  0  0  0  0  0  0  0  0  0  0
    6.4807   -0.1006    0.0000 N   0  0  0  0  0  0  0  0  0  0  0  0
    3.7202   -1.6369    0.0000 C   0  0  0  0  0  0  0  0  0  0  0  0
    3.0302   -0.4420    0.0000 C   0  0  0  0  0  0  0  0  0  0  0  0
    2.4601   -1.9959    0.0000 C   0  0  0  0  0  0  0  0  0  0  0  0
    2.3404   -1.6369    0.0000 C   0  0  0  0  0  0  0  0  0  0  0  0
    3.7202   -0.8403    0.0000 C   0  0  0  0  0  0  0  0  0  0  0  0
    3.2073   -2.3892    0.0000 C   0  0  0  0  0  0  0  0  0  0  0  0
    3.0302   -1.8866    0.0000 C   0  0  0  0  0  0  0  0  0  0  0  0
    2.4601   -1.1335    0.0000 C   0  0  0  0  0  0  0  0  0  0  0  0
    2.3404   -0.8403    0.0000 C   0  0  0  0  0  0  0  0  0  0  0  0
    1.6500   -2.0352    0.0000 C   0  0  0  0  0  0  0  0  0  0  0  0
    5.1004   -0.4705    0.0000 C   0  0  0  0  0  0  0  0  0  0  0  0
    5.6838    0.1129    0.0000 C   0  0  0  0  0  0  0  0  0  0  0  0
    7.0640    0.4828    0.0000 C   0  0  0  0  0  0  0  0  0  0  0  0
    7.8610    0.2692    0.0000 C   0  0  0  0  0  0  0  0  0  0  0  0
    8.4443    0.8526    0.0000 C   0  0  0  0  0  0  0  0  0  0  0  0
    9.2412    0.6390    0.0000 C   0  0  0  0  0  0  0  0  0  0  0  0
    8.2308    1.6495    0.0000 C   0  0  0  0  0  0  0  0  0  0  0  0
    9.8246    1.2224    0.0000 C   0  0  0  0  0  0  0  0  0  0  0  0
   10.6215    1.0089    0.0000 C   0  0  0  0  0  0  0  0  0  0  0  0
   11.2048    1.5922    0.0000 C   0  0  0  0  0  0  0  0  0  0  0  0
   10.9913    2.3892    0.0000 C   0  0  0  0  0  0  0  0  0  0  0  0
   12.0017    1.3787    0.0000 C   0  0  0  0  0  0  0  0  0  0  0  0
  1  7  1  0
  1 13  1  0
  2 14  1  0
  2 15  1  0
  3  7  1  0
  3  8  1  0
  3  9  1  0
  4  7  1  0
  4 10  1  0
  4 11  1  0
  5  8  1  0
  5 10  1  0
  5 12  1  0
  6  9  1  0
  6 11  1  0
  6 12  1  0
 13 14  1  0
 15 16  1  0
 16 17  2  0
 17 18  1  0
 17 19  1  0
 18 20  1  0
 20 21  1  0
 21 22  2  3
 22 23  1  0
 22 24  1  0
M  END
>  <DRUGBANK_ID>  (1) 
DB05186

>  <COMMON_NAME>  (1) 
SQ-109

>  <CAS_NUMBER>  (1) 
502487-67-4

>  <UNII>  (1) 
9AU7XUV31A

>  <SYNONYMS>  (1) 
N-adamantanyl-N'-geranyl-ethylenediamine

$$$$
