
     RDKit          2D

 28 29  0  0  0  0  0  0  0  0999 V2000
    2.1434   -0.4124    0.0000 C   0  0  0  0  0  0  0  0  0  0  0  0
    2.8579    0.0000    0.0000 C   0  0  0  0  0  0  0  0  0  0  0  0
    2.1434   -1.2374    0.0000 C   0  0  0  0  0  0  0  0  0  0  0  0
    3.5723   -0.4124    0.0000 C   0  0  0  0  0  0  0  0  0  0  0  0
    2.8579   -1.6499    0.0000 C   0  0  0  0  0  0  0  0  0  0  0  0
    3.5723   -1.2374    0.0000 C   0  0  0  0  0  0  0  0  0  0  0  0
    1.4289    0.0000    0.0000 O   0  0  0  0  0  0  0  0  0  0  0  0
    0.7144   -0.4124    0.0000 C   0  0  0  0  0  0  0  0  0  0  0  0
    0.0000    0.0000    0.0000 C   0  0  0  0  0  0  0  0  0  0  0  0
   -0.7145    0.4125    0.0000 C   0  0  0  0  0  0  0  0  0  0  0  0
   -1.4290    0.0000    0.0000 N   0  0  0  0  0  0  0  0  0  0  0  0
   -0.7145    1.2374    0.0000 O   0  0  0  0  0  0  0  0  0  0  0  0
   -2.1433    0.4125    0.0000 C   0  0  0  0  0  0  0  0  0  0  0  0
   -2.8579    0.0000    0.0000 C   0  0  0  0  0  0  0  0  0  0  0  0
   -2.1433    1.2374    0.0000 C   0  0  0  0  0  0  0  0  0  0  0  0
   -3.5724    0.4125    0.0000 C   0  0  0  0  0  0  0  0  0  0  0  0
   -2.8579    1.6500    0.0000 C   0  0  0  0  0  0  0  0  0  0  0  0
   -3.5724    1.2374    0.0000 C   0  0  0  0  0  0  0  0  0  0  0  0
   -0.4124   -0.7145    0.0000 C   0  0  0  0  0  0  0  0  0  0  0  0
    0.4125    0.7145    0.0000 O   0  0  0  0  0  0  0  0  0  0  0  0
   -4.2867    0.0000    0.0000 C   0  0  0  0  0  0  0  0  0  0  0  0
    4.2868   -1.6499    0.0000 C   0  0  0  0  0  0  0  0  0  0  0  0
    5.0012   -2.0625    0.0000 N   0  0  0  0  0  0  0  0  0  0  0  0
   -5.0012   -0.4124    0.0000 F   0  0  0  0  0  0  0  0  0  0  0  0
   -4.6992    0.7145    0.0000 F   0  0  0  0  0  0  0  0  0  0  0  0
   -3.8743   -0.7145    0.0000 F   0  0  0  0  0  0  0  0  0  0  0  0
   -4.2867    1.6500    0.0000 C   0  0  0  0  0  0  0  0  0  0  0  0
   -5.0012    2.0625    0.0000 N   0  0  0  0  0  0  0  0  0  0  0  0
  1  7  1  0
  2  1  2  0
  3  1  1  0
  4  2  1  0
  5  3  2  0
  6  4  2  0
  6  5  1  0
  6 22  1  0
  7  8  1  0
  8  9  1  0
  9 10  1  0
  9 19  1  6
  9 20  1  0
 10 11  1  0
 10 12  2  0
 11 13  1  0
 14 13  2  0
 15 13  1  0
 16 14  1  0
 16 21  1  0
 17 15  2  0
 18 16  2  0
 18 17  1  0
 18 27  1  0
 21 24  1  0
 21 25  1  0
 21 26  1  0
 23 22  3  0
 28 27  3  0
M  END
>  <DRUGBANK_ID>  (1) 
DB12078

>  <COMMON_NAME>  (1) 
Enobosarm

>  <CAS_NUMBER>  (1) 
841205-47-8

>  <UNII>  (1) 
O3571H3R8N

>  <SYNONYMS>  (1) 
Enobosarm; Ã‰nobosarm; Enobosarmum; Ostarine

$$$$
