H20
     RDKit          2D

 22 24  0  0  0  0  0  0  0  0999 V2000
   -0.1096    0.8884    0.0000 C   0  0  0  0  0  0  0  0  0  0  0  0
   -0.1096    1.7134    0.0000 C   0  0  0  0  0  0  0  0  0  0  0  0
    0.6048    2.1259    0.0000 C   0  0  0  0  0  0  0  0  0  0  0  0
    1.3193    1.7134    0.0000 C   0  0  0  0  0  0  0  0  0  0  0  0
    1.3193    0.8884    0.0000 C   0  0  0  0  0  0  0  0  0  0  0  0
    0.6048    0.4759    0.0000 C   0  0  0  0  0  0  0  0  0  0  0  0
   -0.8241   -1.9991    0.0000 N   0  0  0  0  0  0  0  0  0  0  0  0
   -1.5386   -1.5866    0.0000 C   0  0  0  0  0  0  0  0  0  0  0  0
   -2.2531   -1.9991    0.0000 O   0  0  0  0  0  0  0  0  0  0  0  0
   -1.5386   -0.7616    0.0000 C   0  0  0  0  0  0  0  0  0  0  0  0
   -0.8241   -0.3491    0.0000 C   0  0  0  0  0  0  0  0  0  0  0  0
   -0.8241    0.4759    0.0000 O   0  0  0  0  0  0  0  0  0  0  0  0
   -0.1096   -1.5866    0.0000 C   0  0  0  0  0  0  0  0  0  0  0  0
   -0.1096   -0.7616    0.0000 C   0  0  0  0  0  0  0  0  0  0  0  0
    0.6048   -0.3491    0.0000 C   0  0  0  0  0  0  0  0  0  0  0  0
    1.3193   -0.7616    0.0000 C   0  0  0  0  0  0  0  0  0  0  0  0
    1.3193   -1.5866    0.0000 C   0  0  0  0  0  0  0  0  0  0  0  0
    0.6048   -1.9991    0.0000 C   0  0  0  0  0  0  0  0  0  0  0  0
    2.0338   -0.3491    0.0000 Cl  0  0  0  0  0  0  0  0  0  0  0  0
   -2.2531   -0.3491    0.0000 C   0  0  0  0  0  0  0  0  0  0  0  0
   -2.2531    0.4759    0.0000 C   0  0  0  0  0  0  0  0  0  0  0  0
   -2.9675   -0.7616    0.0000 C   0  0  0  0  0  0  0  0  0  0  0  0
  1  2  1  0
  1  6  1  0
  1 12  1  0
  2  3  1  0
  3  4  1  0
  4  5  1  0
  5  6  1  0
  7  8  1  0
  7 13  1  0
  8  9  2  0
  8 10  1  0
 10 11  2  0
 10 20  1  0
 11 12  1  0
 11 14  1  0
 13 14  2  0
 13 18  1  0
 14 15  1  0
 15 16  2  0
 16 17  1  0
 16 19  1  0
 17 18  2  0
 20 21  1  0
 20 22  1  0
M  END
>  <DRUGBANK_ID>  (1) 
DB07871

>  <COMMON_NAME>  (1) 
6-CHLORO-4-(CYCLOHEXYLOXY)-3-ISOPROPYLQUINOLIN-2(1H)-ONE

$$$$
