
     RDKit          2D

  9  9  0  0  0  0  0  0  0  0999 V2000
    0.0000   -0.2062    0.0000 C   0  0  0  0  0  0  0  0  0  0  0  0
   -0.7144    0.2062    0.0000 C   0  0  0  0  0  0  0  0  0  0  0  0
    0.7144    0.2062    0.0000 C   0  0  0  0  0  0  0  0  0  0  0  0
    0.0000   -1.0312    0.0000 C   0  0  0  0  0  0  0  0  0  0  0  0
   -0.7144    1.0312    0.0000 C   0  0  0  0  0  0  0  0  0  0  0  0
    0.7144    1.0312    0.0000 C   0  0  0  0  0  0  0  0  0  0  0  0
    0.7144   -1.4437    0.0000 O   0  0  0  0  0  0  0  0  0  0  0  0
   -0.7144   -1.4437    0.0000 O   0  0  0  0  0  0  0  0  0  0  0  0
    0.0000    1.4437    0.0000 N   0  0  0  0  0  0  0  0  0  0  0  0
  1  2  2  0
  1  3  1  0
  1  4  1  0
  2  5  1  0
  3  6  2  0
  4  7  1  0
  4  8  2  0
  5  9  2  0
  6  9  1  0
M  END
>  <DRUGBANK_ID>  (1) 
DB16884

>  <COMMON_NAME>  (1) 
Isonicotinic acid

>  <CAS_NUMBER>  (1) 
55-22-1

>  <UNII>  (1) 
Y8SYN761TQ

>  <SYNONYMS>  (1) 
4-Pyridinecarboxylic acid

$$$$
