
     RDKit          2D

 31 33  0  0  0  0  0  0  0  0999 V2000
   -0.7732   -1.4990    0.0000 C   0  0  0  0  0  0  0  0  0  0  0  0
   -0.0587   -1.0865    0.0000 C   0  0  0  0  0  0  0  0  0  0  0  0
   -1.4877   -0.2615    0.0000 C   0  0  0  0  0  0  0  0  0  0  0  0
   -0.7732    0.1509    0.0000 C   0  0  0  0  0  0  0  0  0  0  0  0
   -0.7732    0.9760    0.0000 C   0  0  0  0  0  0  0  0  0  0  0  0
   -1.4877   -1.0865    0.0000 C   0  0  0  0  0  0  0  0  0  0  0  0
   -2.6147   -0.7845    0.0000 O   0  0  0  0  0  0  0  0  0  0  0  0
   -1.7897   -2.2136    0.0000 O   0  0  0  0  0  0  0  0  0  0  0  0
   -2.2022   -1.4990    0.0000 S   0  0  0  0  0  0  0  0  0  0  0  0
   -2.9168   -1.9116    0.0000 C   0  0  0  0  0  0  0  0  0  0  0  0
   -0.0587   -0.2615    0.0000 C   0  0  0  0  0  0  0  0  0  0  0  0
    0.6558    0.9760    0.0000 O   0  0  0  0  0  0  0  0  0  0  0  0
    0.6558    0.1509    0.0000 C   0  0  0  0  0  0  0  0  0  0  0  0
    1.3704   -0.2615    0.0000 C   0  0  0  0  0  0  0  0  0  0  0  0
    1.4248   -1.0846    0.0000 C   0  0  0  0  0  0  0  0  0  0  0  0
    2.1364    0.0447    0.0000 C   0  0  0  0  0  0  0  0  0  0  0  0
    2.1364    0.8697    0.0000 O   0  0  0  0  0  0  0  0  0  0  0  0
    2.2245   -1.2872    0.0000 N   0  0  0  0  0  0  0  0  0  0  0  0
    2.6643   -0.5893    0.0000 N   0  0  0  0  0  0  0  0  0  0  0  0
    3.3780    0.3431    0.0000 C   0  0  0  0  0  0  0  0  0  0  0  0
    3.5383   -1.4592    0.0000 C   0  0  0  0  0  0  0  0  0  0  0  0
    3.4582   -0.5268    0.0000 C   0  0  0  0  0  0  0  0  0  0  0  0
    4.3457   -0.4643    0.0000 C   0  0  0  0  0  0  0  0  0  0  0  0
   -2.2022    0.1509    0.0000 C   0  0  0  0  0  0  0  0  0  0  0  0
   -3.6312    0.1509    0.0000 C   0  0  0  0  0  0  0  0  0  0  0  0
   -2.9168   -0.2615    0.0000 C   0  0  0  0  0  0  0  0  0  0  0  0
   -2.2022    0.9760    0.0000 C   0  0  0  0  0  0  0  0  0  0  0  0
   -3.6312    0.9760    0.0000 C   0  0  0  0  0  0  0  0  0  0  0  0
   -2.9168    1.3886    0.0000 C   0  0  0  0  0  0  0  0  0  0  0  0
   -4.3457    1.3886    0.0000 O   0  0  0  0  0  0  0  0  0  0  0  0
   -4.3457    2.2136    0.0000 C   0  0  0  0  0  0  0  0  0  0  0  0
  1  2  2  0
  2 11  1  0
  3  6  2  0
  3 24  1  0
  4  3  1  0
  4 11  2  0
  4  5  1  0
  6  1  1  0
  6  9  1  0
  9  7  2  0
  9  8  2  0
  9 10  1  0
 11 13  1  0
 13 12  2  0
 13 14  1  0
 14 15  1  0
 15 18  2  0
 16 14  2  0
 16 19  1  0
 16 17  1  0
 18 19  1  0
 19 22  1  0
 22 20  1  0
 22 21  1  0
 22 23  1  0
 24 27  2  0
 25 26  2  0
 26 24  1  0
 28 25  1  0
 28 30  1  0
 29 28  2  0
 29 27  1  0
 30 31  1  0
M  END
>  <DRUGBANK_ID>  (1) 
DB02850

>  <SECONDARY_ACCESSION_NUMBERS>  (1) 
EXPT00327

>  <COMMON_NAME>  (1) 
DAS869

$$$$
