2FR
     RDKit          2D

 30 33  0  0  0  0  0  0  0  0999 V2000
    3.3000   -0.3142    0.0000 C   0  0  0  0  0  0  0  0  0  0  0  0
    4.7290   -0.3142    0.0000 C   0  0  0  0  0  0  0  0  0  0  0  0
    4.7290    0.5108    0.0000 C   0  0  0  0  0  0  0  0  0  0  0  0
    4.0145    0.9233    0.0000 C   0  0  0  0  0  0  0  0  0  0  0  0
    2.5855    1.7483    0.0000 C   0  0  0  0  0  0  0  0  0  0  0  0
    2.5855    0.9233    0.0000 C   0  0  0  0  0  0  0  0  0  0  0  0
   -4.4976   -2.9847    0.0000 N   0  0  0  0  0  0  0  0  0  0  0  0
   -2.3738   -1.0724    0.0000 C   0  0  0  0  0  0  0  0  0  0  0  0
   -2.1189   -0.2878    0.0000 C   0  0  0  0  0  0  0  0  0  0  0  0
   -4.2427   -2.2001    0.0000 C   0  0  0  0  0  0  0  0  0  0  0  0
   -1.8218   -1.6855    0.0000 C   0  0  0  0  0  0  0  0  0  0  0  0
   -1.3119   -0.1163    0.0000 C   0  0  0  0  0  0  0  0  0  0  0  0
   -0.7599   -0.7294    0.0000 C   0  0  0  0  0  0  0  0  0  0  0  0
   -1.0148   -1.5140    0.0000 C   0  0  0  0  0  0  0  0  0  0  0  0
   -1.3119    2.7878    0.0000 C   0  0  0  0  0  0  0  0  0  0  0  0
   -1.0570    2.0032    0.0000 C   0  0  0  0  0  0  0  0  0  0  0  0
   -0.2723    0.9233    0.0000 C   0  0  0  0  0  0  0  0  0  0  0  0
   -0.2723    1.7483    0.0000 C   0  0  0  0  0  0  0  0  0  0  0  0
    0.4421    2.1608    0.0000 C   0  0  0  0  0  0  0  0  0  0  0  0
    0.4421    0.5108    0.0000 C   0  0  0  0  0  0  0  0  0  0  0  0
    1.1566    0.9233    0.0000 C   0  0  0  0  0  0  0  0  0  0  0  0
   -4.7947   -1.5870    0.0000 O   0  0  0  0  0  0  0  0  0  0  0  0
   -3.4357   -2.0286    0.0000 C   0  0  0  0  0  0  0  0  0  0  0  0
   -3.1808   -1.2440    0.0000 C   0  0  0  0  0  0  0  0  0  0  0  0
   -1.0570    0.6683    0.0000 N   0  0  0  0  0  0  0  0  0  0  0  0
   -1.5419    1.3358    0.0000 N   0  0  0  0  0  0  0  0  0  0  0  0
    1.1566    1.7483    0.0000 N   0  0  0  0  0  0  0  0  0  0  0  0
    1.8711    0.5108    0.0000 N   0  0  0  0  0  0  0  0  0  0  0  0
    3.3000    0.5108    0.0000 C   0  0  0  0  0  0  0  0  0  0  0  0
    4.0145   -0.7267    0.0000 C   0  0  0  0  0  0  0  0  0  0  0  0
  1 29  2  0
  1 30  1  0
  2  3  1  0
  2 30  2  0
  3  4  2  0
  4 29  1  0
  6  5  1  1
  6 28  1  0
  6 29  1  0
  7 10  1  0
  8  9  2  0
  8 11  1  0
  8 24  1  0
  9 12  1  0
 10 22  2  0
 10 23  1  0
 11 14  2  0
 12 13  2  0
 12 25  1  0
 13 14  1  0
 15 16  1  0
 16 18  1  0
 16 26  2  0
 17 18  2  0
 17 20  1  0
 17 25  1  0
 18 19  1  0
 19 27  2  0
 20 21  2  0
 21 27  1  0
 21 28  1  0
 23 24  1  0
 25 26  1  0
M  END
>  <DRUGBANK_ID>  (1) 
DB06963

>  <COMMON_NAME>  (1) 
3-[3-(3-methyl-6-{[(1S)-1-phenylethyl]amino}-1H-pyrazolo[4,3-c]pyridin-1-yl)phenyl]propanamide

$$$$
