
     RDKit          2D

 11 10  0  0  0  0  0  0  0  0999 V2000
    2.1436   -0.2061    0.0000 C   0  0  0  0  0  0  0  0  0  0  0  0
    1.4291    0.2063    0.0000 C   0  0  0  0  0  0  0  0  0  0  0  0
    1.4291    1.0313    0.0000 O   0  0  0  0  0  0  0  0  0  0  0  0
    0.7145   -0.2061    0.0000 C   0  0  0  0  0  0  0  0  0  0  0  0
    0.7145   -1.0313    0.0000 O   0  0  0  0  0  0  0  0  0  0  0  0
    0.0000    0.2063    0.0000 C   0  0  0  0  0  0  0  0  0  0  0  0
    0.0000    1.0313    0.0000 O   0  0  0  0  0  0  0  0  0  0  0  0
   -0.7145   -0.2061    0.0000 C   0  0  0  0  0  0  0  0  0  0  0  0
   -0.7145   -1.0313    0.0000 O   0  0  0  0  0  0  0  0  0  0  0  0
   -1.4290    0.2063    0.0000 C   0  0  0  0  0  0  0  0  0  0  0  0
   -2.1437   -0.2061    0.0000 O   0  0  0  0  0  0  0  0  0  0  0  0
  2  1  1  1
  2  3  1  0
  2  4  1  0
  4  5  1  6
  4  6  1  0
  6  7  1  6
  6  8  1  0
  8  9  1  1
  8 10  1  0
 10 11  1  0
M  END
>  <DRUGBANK_ID>  (1) 
DB02399

>  <SECONDARY_ACCESSION_NUMBERS>  (1) 
EXPT02796

>  <COMMON_NAME>  (1) 
L-Rhamnitol

>  <CAS_NUMBER>  (1) 
488-28-8

>  <UNII>  (1) 
IHI9UGC58P

>  <SYNONYMS>  (1) 
(2S,3S,4S,5S)-hexane-1,2,3,4,5-pentol; 1-deoxy-L-mannitol; 6-deoxy-L-mannitol

$$$$
