U49
     RDKit          2D

 33 38  0  0  0  0  0  0  0  0999 V2000
   -1.6602   -0.0680    0.0000 C   0  0  0  0  0  0  0  0  0  0  0  0
   -1.5195    0.7449    0.0000 C   0  0  0  0  0  0  0  0  0  0  0  0
   -2.4345   -0.3527    0.0000 C   0  0  0  0  0  0  0  0  0  0  0  0
   -1.0265   -0.5963    0.0000 C   0  0  0  0  0  0  0  0  0  0  0  0
   -1.0649    1.5792    0.0000 N   0  0  0  0  0  0  0  0  0  0  0  0
   -2.1532    1.2732    0.0000 C   0  0  0  0  0  0  0  0  0  0  0  0
   -2.5752   -1.1656    0.0000 C   0  0  0  0  0  0  0  0  0  0  0  0
   -3.0682    0.1756    0.0000 C   0  0  0  0  0  0  0  0  0  0  0  0
   -1.1672   -1.4092    0.0000 C   0  0  0  0  0  0  0  0  0  0  0  0
   -1.1014    2.4034    0.0000 C   0  0  0  0  0  0  0  0  0  0  0  0
   -0.2697    1.3593    0.0000 C   0  0  0  0  0  0  0  0  0  0  0  0
   -2.9275    0.9885    0.0000 C   0  0  0  0  0  0  0  0  0  0  0  0
   -1.9415   -1.6939    0.0000 C   0  0  0  0  0  0  0  0  0  0  0  0
   -0.4973   -1.8908    0.0000 O   0  0  0  0  0  0  0  0  0  0  0  0
   -0.3289    2.6929    0.0000 C   0  0  0  0  0  0  0  0  0  0  0  0
    0.1851    2.0476    0.0000 C   0  0  0  0  0  0  0  0  0  0  0  0
    0.4832   -2.0129    0.0000 C   0  0  0  0  0  0  0  0  0  0  0  0
    0.7726   -2.7854    0.0000 C   0  0  0  0  0  0  0  0  0  0  0  0
    1.0075   -1.3759    0.0000 C   0  0  0  0  0  0  0  0  0  0  0  0
    1.9236    1.4769    0.0000 C   0  0  0  0  0  0  0  0  0  0  0  0
    1.5864   -2.9210    0.0000 C   0  0  0  0  0  0  0  0  0  0  0  0
    0.2483   -3.4224    0.0000 C   0  0  0  0  0  0  0  0  0  0  0  0
    1.8213   -1.5115    0.0000 C   0  0  0  0  0  0  0  0  0  0  0  0
    2.3582    0.7757    0.0000 C   0  0  0  0  0  0  0  0  0  0  0  0
    2.1107   -2.2841    0.0000 C   0  0  0  0  0  0  0  0  0  0  0  0
   -0.2760   -4.0593    0.0000 N   0  0  0  0  0  0  0  0  0  0  0  0
    2.3028   -0.8417    0.0000 C   0  0  0  0  0  0  0  0  0  0  0  0
    2.4914   -0.0385    0.0000 N   0  0  0  0  0  0  0  0  0  0  0  0
    3.0914    1.1539    0.0000 C   0  0  0  0  0  0  0  0  0  0  0  0
    3.3068   -0.1634    0.0000 C   0  0  0  0  0  0  0  0  0  0  0  0
    3.6777    0.5735    0.0000 N   0  0  0  0  0  0  0  0  0  0  0  0
    0.0197    0.5868    0.0000 O   0  0  0  0  0  0  0  0  0  0  0  0
    1.2537    1.9585    0.0000 N   0  0  0  0  0  0  0  0  0  0  0  0
  1  2  1  0
  1  3  1  0
  1  4  2  0
  2  5  1  0
  2  6  2  0
  3  7  2  0
  3  8  1  0
  4  9  1  0
  5 10  1  0
  5 11  1  0
  6 12  1  0
  7 13  1  0
  8 12  2  0
  9 13  2  0
  9 14  1  0
 10 15  1  0
 11 16  1  0
 11 32  2  0
 14 17  1  0
 16 15  1  1
 16 33  1  0
 17 18  2  0
 17 19  1  0
 18 21  1  0
 18 22  1  0
 19 23  2  0
 20 24  1  0
 20 33  1  0
 21 25  2  0
 22 26  3  0
 23 25  1  0
 23 27  1  0
 24 28  1  0
 24 29  2  0
 27 28  1  0
 28 30  1  0
 29 31  1  0
 30 31  2  0
M  END
>  <DRUGBANK_ID>  (1) 
DB08674

>  <COMMON_NAME>  (1) 
(20S)-19,20,21,22-TETRAHYDRO-19-OXO-5H-18,20-ETHANO-12,14-ETHENO-6,10-METHENO-18H-BENZ[D]IMIDAZO[4,3-K][1,6,9,12]OXATRIAZA-CYCLOOCTADECOSINE-9-CARBONITRILE

$$$$
