C95
     RDKit          2D

 22 24  0  0  0  0  0  0  0  0999 V2000
   -1.3790    3.4526    0.0000 O   0  0  0  0  0  0  0  0  0  0  0  0
    0.0499    3.4526    0.0000 O   0  0  0  0  0  0  0  0  0  0  0  0
   -0.6645    2.2151    0.0000 C   0  0  0  0  0  0  0  0  0  0  0  0
    0.0499    1.8026    0.0000 C   0  0  0  0  0  0  0  0  0  0  0  0
    0.0499    0.9776    0.0000 C   0  0  0  0  0  0  0  0  0  0  0  0
   -0.6645    0.5651    0.0000 C   0  0  0  0  0  0  0  0  0  0  0  0
   -1.3790    0.9776    0.0000 C   0  0  0  0  0  0  0  0  0  0  0  0
   -1.3790    1.8026    0.0000 C   0  0  0  0  0  0  0  0  0  0  0  0
   -0.6645   -0.2599    0.0000 C   0  0  0  0  0  0  0  0  0  0  0  0
    0.0029   -0.7448    0.0000 O   0  0  0  0  0  0  0  0  0  0  0  0
   -1.3320   -0.7448    0.0000 C   0  0  0  0  0  0  0  0  0  0  0  0
   -1.0770   -1.5295    0.0000 C   0  0  0  0  0  0  0  0  0  0  0  0
   -0.2520   -1.5295    0.0000 C   0  0  0  0  0  0  0  0  0  0  0  0
    0.2329   -2.1969    0.0000 C   0  0  0  0  0  0  0  0  0  0  0  0
    1.0534   -2.1107    0.0000 C   0  0  0  0  0  0  0  0  0  0  0  0
    1.4659   -1.3962    0.0000 S   0  0  0  0  0  0  0  0  0  0  0  0
    2.2728   -1.5677    0.0000 C   0  0  0  0  0  0  0  0  0  0  0  0
    2.8859   -1.0157    0.0000 N   0  0  0  0  0  0  0  0  0  0  0  0
    2.3591   -2.3882    0.0000 N   0  0  0  0  0  0  0  0  0  0  0  0
   -0.6645    3.0401    0.0000 C   0  0  0  0  0  0  0  0  0  0  0  0
    1.6054   -2.7238    0.0000 C   0  0  0  0  0  0  0  0  0  0  0  0
    1.4339   -3.5307    0.0000 O   0  0  0  0  0  0  0  0  0  0  0  0
  1 20  2  0
  2 20  1  0
  3  4  2  0
  3  8  1  0
  3 20  1  0
  4  5  1  0
  5  6  2  0
  6  7  1  0
  6  9  1  0
  7  8  2  0
  9 10  1  0
  9 11  2  0
 10 13  1  0
 11 12  1  0
 12 13  2  0
 13 14  1  0
 14 15  2  0
 15 16  1  0
 15 21  1  0
 16 17  1  0
 17 18  2  0
 17 19  1  0
 19 21  1  0
 21 22  2  0
M  END
>  <DRUGBANK_ID>  (1) 
DB07539

>  <COMMON_NAME>  (1) 
4-{5-[(Z)-(2-IMINO-4-OXO-1,3-THIAZOLIDIN-5-YLIDENE)METHYL]FURAN-2-YL}BENZOIC ACID

$$$$
