565
     RDKit          2D

 24 25  0  0  0  0  0  0  0  0999 V2000
   -1.5897    0.5984    0.0000 C   0  0  0  0  0  0  0  0  0  0  0  0
   -0.8752    1.0109    0.0000 C   0  0  0  0  0  0  0  0  0  0  0  0
   -0.1607    0.5984    0.0000 C   0  0  0  0  0  0  0  0  0  0  0  0
   -0.1607   -0.2266    0.0000 C   0  0  0  0  0  0  0  0  0  0  0  0
   -0.8752   -0.6391    0.0000 C   0  0  0  0  0  0  0  0  0  0  0  0
   -1.5897   -0.2266    0.0000 C   0  0  0  0  0  0  0  0  0  0  0  0
   -0.8752   -1.4641    0.0000 F   0  0  0  0  0  0  0  0  0  0  0  0
   -0.8752    1.8359    0.0000 F   0  0  0  0  0  0  0  0  0  0  0  0
    0.5537    1.0109    0.0000 C   0  0  0  0  0  0  0  0  0  0  0  0
    1.2682    0.5984    0.0000 C   0  0  0  0  0  0  0  0  0  0  0  0
    1.9827    1.0109    0.0000 C   0  0  0  0  0  0  0  0  0  0  0  0
    2.6971    0.5984    0.0000 C   0  0  0  0  0  0  0  0  0  0  0  0
    3.4116    1.0109    0.0000 N   0  0  0  0  0  0  0  0  0  0  0  0
    1.2682   -0.2266    0.0000 N   0  0  0  0  0  0  0  0  0  0  0  0
    2.6971   -0.2266    0.0000 O   0  0  0  0  0  0  0  0  0  0  0  0
    3.3500    1.8336    0.0000 C   0  0  0  0  0  0  0  0  0  0  0  0
    3.9547    2.3947    0.0000 C   0  0  0  0  0  0  0  0  0  0  0  0
    4.7705    2.2718    0.0000 C   0  0  0  0  0  0  0  0  0  0  0  0
    5.1830    1.5573    0.0000 N   0  0  0  0  0  0  0  0  0  0  0  0
    4.8816    0.7893    0.0000 C   0  0  0  0  0  0  0  0  0  0  0  0
    4.0933    0.5461    0.0000 C   0  0  0  0  0  0  0  0  0  0  0  0
    3.9703   -0.2696    0.0000 C   0  0  0  0  0  0  0  0  0  0  0  0
    5.4428    0.1845    0.0000 O   0  0  0  0  0  0  0  0  0  0  0  0
   -2.3041   -0.6391    0.0000 F   0  0  0  0  0  0  0  0  0  0  0  0
  1  2  2  0
  1  6  1  0
  2  8  1  0
  2  3  1  0
  3  9  1  0
  3  4  2  0
  4  5  1  0
  5  6  2  0
  5  7  1  0
  6 24  1  0
  9 10  1  0
 10 14  1  6
 10 11  1  0
 11 12  1  0
 12 13  1  0
 12 15  2  0
 13 16  1  0
 13 21  1  0
 16 17  1  0
 17 18  1  0
 18 19  1  0
 19 20  1  0
 20 23  2  0
 20 21  1  0
 21 22  1  1
M  END
>  <DRUGBANK_ID>  (1) 
DB07154

>  <COMMON_NAME>  (1) 
(3R)-4-[(3R)-3-AMINO-4-(2,4,5-TRIFLUOROPHENYL)BUTANOYL]-3-METHYL-1,4-DIAZEPAN-2-ONE

$$$$
