
     RDKit          2D

 27 29  0  0  0  0  0  0  0  0999 V2000
   -1.8973   -1.5376    0.0000 O   0  0  0  0  0  0  0  0  0  0  0  0
    2.0807    1.1144    0.0000 O   0  0  0  0  0  0  0  0  0  0  0  0
   -2.1230    1.1144    0.0000 O   0  0  0  0  0  0  0  0  0  0  0  0
    1.4106   -0.1058    0.0000 O   0  0  0  0  0  0  0  0  0  0  0  0
   -1.4107   -0.1058    0.0000 O   0  0  0  0  0  0  0  0  0  0  0  0
   -0.0211    2.3346    0.0000 N   0  0  0  0  0  0  0  0  0  0  0  0
   -1.4530   -0.9240    0.0000 N   0  0  0  0  0  0  0  0  0  0  0  0
   -1.4530   -2.1512    0.0000 N   0  0  0  0  0  0  0  0  0  0  0  0
   -0.0211    0.6912    0.0000 C   0  0  0  0  0  0  0  0  0  0  0  0
   -0.0211   -0.7405    0.0000 C   0  0  0  0  0  0  0  0  0  0  0  0
    0.6912    1.1144    0.0000 C   0  0  0  0  0  0  0  0  0  0  0  0
   -0.7335    1.1144    0.0000 C   0  0  0  0  0  0  0  0  0  0  0  0
   -0.7335   -1.1567    0.0000 C   0  0  0  0  0  0  0  0  0  0  0  0
    0.6912    1.9114    0.0000 C   0  0  0  0  0  0  0  0  0  0  0  0
   -0.7335    1.9114    0.0000 C   0  0  0  0  0  0  0  0  0  0  0  0
   -0.7335   -1.9114    0.0000 C   0  0  0  0  0  0  0  0  0  0  0  0
    1.4106    0.6912    0.0000 C   0  0  0  0  0  0  0  0  0  0  0  0
   -1.4107    0.7335    0.0000 C   0  0  0  0  0  0  0  0  0  0  0  0
    0.6912   -1.1567    0.0000 C   0  0  0  0  0  0  0  0  0  0  0  0
   -0.0211   -2.3346    0.0000 C   0  0  0  0  0  0  0  0  0  0  0  0
    0.6912   -1.9114    0.0000 C   0  0  0  0  0  0  0  0  0  0  0  0
    1.4106    2.3346    0.0000 C   0  0  0  0  0  0  0  0  0  0  0  0
   -1.4107    2.3346    0.0000 C   0  0  0  0  0  0  0  0  0  0  0  0
    2.7930    0.6912    0.0000 C   0  0  0  0  0  0  0  0  0  0  0  0
   -2.8354    0.7335    0.0000 C   0  0  0  0  0  0  0  0  0  0  0  0
    3.5267    1.1073    0.0000 C   0  0  0  0  0  0  0  0  0  0  0  0
   -3.5267    1.1638    0.0000 C   0  0  0  0  0  0  0  0  0  0  0  0
  1  7  1  0
  1  8  1  0
  2 17  1  0
  2 24  1  0
  3 18  1  0
  3 25  1  0
  4 17  2  0
  5 18  2  0
  6 14  1  0
  6 15  1  0
  7 13  2  0
  8 16  2  0
  9 10  1  0
  9 11  1  0
  9 12  1  0
 10 13  1  0
 10 19  2  0
 11 14  2  0
 11 17  1  0
 12 15  2  0
 12 18  1  0
 13 16  1  0
 14 22  1  0
 15 23  1  0
 16 20  1  0
 19 21  1  0
 20 21  2  0
 24 26  1  0
 25 27  1  0
M  END
>  <DRUGBANK_ID>  (1) 
DB09234

>  <COMMON_NAME>  (1) 
Darodipine

>  <CAS_NUMBER>  (1) 
72803-02-2

>  <UNII>  (1) 
N4AL7X96GL

>  <SYNONYMS>  (1) 
Darodipine

$$$$
