
     RDKit          2D

 33 36  0  0  0  0  0  0  0  0999 V2000
   -0.3910    0.0655    0.0000 C   0  0  0  0  0  0  0  0  0  0  0  0
   -2.5385   -1.1587    0.0000 C   0  0  0  0  0  0  0  0  0  0  0  0
    0.3959    0.3133    0.0000 C   0  0  0  0  0  0  0  0  0  0  0  0
   -1.1101   -1.1587    0.0000 C   0  0  0  0  0  0  0  0  0  0  0  0
   -0.3959   -0.7506    0.0000 C   0  0  0  0  0  0  0  0  0  0  0  0
   -1.8243   -0.7457    0.0000 C   0  0  0  0  0  0  0  0  0  0  0  0
   -2.5385   -1.9846    0.0000 C   0  0  0  0  0  0  0  0  0  0  0  0
   -1.1052    0.4882    0.0000 C   0  0  0  0  0  0  0  0  0  0  0  0
   -1.8194    0.0801    0.0000 C   0  0  0  0  0  0  0  0  0  0  0  0
   -3.2527   -0.7457    0.0000 C   0  0  0  0  0  0  0  0  0  0  0  0
    0.3959    1.1441    0.0000 C   0  0  0  0  0  0  0  0  0  0  0  0
   -3.2527   -2.3976    0.0000 C   0  0  0  0  0  0  0  0  0  0  0  0
    0.8769   -0.3570    0.0000 C   0  0  0  0  0  0  0  0  0  0  0  0
    0.3814   -1.0226    0.0000 C   0  0  0  0  0  0  0  0  0  0  0  0
   -1.1198   -1.9895    0.0000 C   0  0  0  0  0  0  0  0  0  0  0  0
   -3.9619   -1.1587    0.0000 C   0  0  0  0  0  0  0  0  0  0  0  0
   -3.9619   -1.9846    0.0000 C   0  0  0  0  0  0  0  0  0  0  0  0
    2.5385    1.5717    0.0000 C   0  0  0  0  0  0  0  0  0  0  0  0
   -1.8340   -2.3976    0.0000 C   0  0  0  0  0  0  0  0  0  0  0  0
    1.1052    1.5668    0.0000 C   0  0  0  0  0  0  0  0  0  0  0  0
   -0.3231    1.5522    0.0000 O   0  0  0  0  0  0  0  0  0  0  0  0
    1.8243    1.1587    0.0000 O   0  0  0  0  0  0  0  0  0  0  0  0
    2.5239    2.3976    0.0000 O   0  0  0  0  0  0  0  0  0  0  0  0
   -4.6810   -2.3927    0.0000 O   0  0  0  0  0  0  0  0  0  0  0  0
    1.1101    0.7360    0.0000 O   0  0  0  0  0  0  0  0  0  0  0  0
    3.2527    1.1636    0.0000 C   0  0  0  0  0  0  0  0  0  0  0  0
    3.9668    1.5814    0.0000 C   0  0  0  0  0  0  0  0  0  0  0  0
   -0.3910    0.8963    0.0000 C   0  0  0  0  0  0  0  0  0  0  0  0
   -2.5336    0.5028    0.0000 O   0  0  0  0  0  0  0  0  0  0  0  0
   -2.5481   -0.3279    0.0000 C   0  0  0  0  0  0  0  0  0  0  0  0
    3.5538    2.2955    0.0000 C   0  0  0  0  0  0  0  0  0  0  0  0
    4.3749    2.2955    0.0000 C   0  0  0  0  0  0  0  0  0  0  0  0
    4.6810    1.1732    0.0000 C   0  0  0  0  0  0  0  0  0  0  0  0
  1 28  1  1
  2  6  1  0
  2 30  1  1
  3  1  1  0
  3 11  1  0
  3 25  1  6
  4  5  1  0
  5  1  1  0
  6  9  1  1
  6  4  1  0
  7  2  1  0
  8  1  1  0
  9  8  1  0
  9 29  1  1
 10  2  1  0
 12  7  2  0
 13  3  1  0
 13 14  1  0
  5 14  1  1
  4 15  1  6
 16 10  2  0
 17 16  1  0
 17 12  1  0
 18 22  1  0
 19 15  1  0
 19  7  1  0
 20 11  1  0
 21 11  2  0
 22 20  1  0
 23 18  2  0
 24 17  2  0
 26 18  1  0
 27 26  1  0
 31 27  1  0
 32 27  1  0
 33 27  1  0
M  END
>  <DRUGBANK_ID>  (1) 
DB14632

>  <SECONDARY_ACCESSION_NUMBERS>  (1) 
DBSALT000786; DBSALT001635

>  <COMMON_NAME>  (1) 
Prednisolone tebutate

>  <CAS_NUMBER>  (1) 
7681-14-3

>  <UNII>  (1) 
1V7A1U282K

>  <SYNONYMS>  (1) 
Anhydrous prednisolone tebutate; Prednisolone 21-tert-butylacetate; Prednisolone butylacetate; Prednisolone tebutate; Prednisolone tertiary butylacetate

$$$$
