
     RDKit          2D

 21 24  0  0  1  0  0  0  0  0999 V2000
   23.3972  -11.4754    0.0000 C   0  0  0  0  0  0  0  0  0  0  0  0
   23.3972  -12.3004    0.0000 C   0  0  0  0  0  0  0  0  0  0  0  0
   24.1117  -12.7129    0.0000 C   0  0  0  0  0  0  0  0  0  0  0  0
   24.8261  -12.3004    0.0000 C   0  0  0  0  0  0  0  0  0  0  0  0
   24.8261  -11.4754    0.0000 C   0  0  0  0  0  0  0  0  0  0  0  0
   24.1117  -11.0629    0.0000 C   0  0  0  0  0  0  0  0  0  0  0  0
   25.5406  -12.7129    0.0000 C   0  0  0  0  0  0  0  0  0  0  0  0
   26.2550  -12.3004    0.0000 C   0  0  0  0  0  0  0  0  0  0  0  0
   26.2550  -11.4754    0.0000 C   0  0  0  0  0  0  0  0  0  0  0  0
   25.5406  -11.0629    0.0000 C   0  0  0  0  0  0  0  0  0  0  0  0
   26.9695  -11.0629    0.0000 C   0  0  0  0  0  0  0  0  0  0  0  0
   26.9695  -10.2379    0.0000 C   0  0  0  0  0  0  0  0  0  0  0  0
   26.2550   -9.8254    0.0000 C   0  0  0  0  0  0  0  0  0  0  0  0
   25.5406  -10.2379    0.0000 C   0  0  0  0  0  0  0  0  0  0  0  0
   27.7542  -11.3178    0.0000 C   0  0  0  0  0  0  0  0  0  0  0  0
   28.2391  -10.6504    0.0000 C   0  0  0  0  0  0  0  0  0  0  0  0
   27.7542   -9.9829    0.0000 C   0  0  0  0  0  0  0  0  0  0  0  0
   22.6827  -12.7129    0.0000 O   0  0  0  0  0  0  0  0  0  0  0  0
   27.0558   -9.4174    0.0000 C   0  0  0  0  0  0  0  0  0  0  0  0
   28.0091   -9.1983    0.0000 O   0  0  0  0  0  0  0  0  0  0  0  0
   24.8261  -10.6504    0.0000 C   0  0  0  0  0  0  0  0  0  0  0  0
  1  2  1  0
  2  3  1  0
  2 18  2  0
  3  4  2  0
  4  5  1  0
  4  7  1  0
  5  6  1  0
  5 21  1  1
  6  1  1  0
  7  8  1  0
  9  8  1  6
  9 10  1  0
  9 11  1  0
 10  5  1  0
 11 12  1  0
 11 15  1  1
 12 13  1  0
 12 19  1  1
 13 14  1  0
 10 14  1  1
 15 16  1  0
 16 17  1  0
 17 12  1  0
 17 20  1  6
M  END
>  <DRUGBANK_ID>  (1) 
DB07768

>  <COMMON_NAME>  (1) 
Epitestosterone

>  <CAS_NUMBER>  (1) 
481-30-1

>  <UNII>  (1) 
48L726977Z

>  <SYNONYMS>  (1) 
(17-alpha)-17-Hydroxyandrost-4-en-3-one; 17-alpha-Hydroxyandrost-4-en-3-one; 17-alpha-Testosterone; 17-Epitestosterone; 17alpha-cis-Testosterone; cis-Testosterone; Isotestosterone

$$$$
