Genistein
     RDKit          2D

 20 22  0  0  0  0  0  0  0  0999 V2000
    4.5012   -2.8875    0.0000 O   0  0  0  0  0  0  0  0  0  0  0  0
    3.7867   -2.4750    0.0000 C   0  0  0  0  0  0  0  0  0  0  0  0
    3.7867   -1.6500    0.0000 C   0  0  0  0  0  0  0  0  0  0  0  0
    3.0723   -1.2375    0.0000 C   0  0  0  0  0  0  0  0  0  0  0  0
    2.3578   -1.6500    0.0000 C   0  0  0  0  0  0  0  0  0  0  0  0
    2.3578   -2.4750    0.0000 C   0  0  0  0  0  0  0  0  0  0  0  0
    3.0723   -2.8875    0.0000 C   0  0  0  0  0  0  0  0  0  0  0  0
    1.6433   -1.2375    0.0000 C   0  0  0  0  0  0  0  0  0  0  0  0
    1.6433   -0.4125    0.0000 C   0  0  0  0  0  0  0  0  0  0  0  0
    0.9289    0.0000    0.0000 O   0  0  0  0  0  0  0  0  0  0  0  0
    0.2144   -0.4125    0.0000 C   0  0  0  0  0  0  0  0  0  0  0  0
   -0.5001    0.0000    0.0000 C   0  0  0  0  0  0  0  0  0  0  0  0
   -1.2146   -0.4125    0.0000 C   0  0  0  0  0  0  0  0  0  0  0  0
   -1.9290    0.0000    0.0000 O   0  0  0  0  0  0  0  0  0  0  0  0
   -1.2146   -1.2375    0.0000 C   0  0  0  0  0  0  0  0  0  0  0  0
   -0.5001   -1.6500    0.0000 C   0  0  0  0  0  0  0  0  0  0  0  0
   -0.5001   -2.4750    0.0000 O   0  0  0  0  0  0  0  0  0  0  0  0
    0.2144   -1.2375    0.0000 C   0  0  0  0  0  0  0  0  0  0  0  0
    0.9289   -1.6500    0.0000 C   0  0  0  0  0  0  0  0  0  0  0  0
    0.9289   -2.4750    0.0000 O   0  0  0  0  0  0  0  0  0  0  0  0
  1  2  1  0
  2  3  2  0
  2  7  1  0
  3  4  1  0
  4  5  2  0
  5  6  1  0
  5  8  1  0
  6  7  2  0
  8  9  2  0
  8 19  1  0
  9 10  1  0
 10 11  1  0
 11 12  2  0
 11 18  1  0
 12 13  1  0
 13 14  1  0
 13 15  2  0
 15 16  1  0
 16 17  1  0
 16 18  2  0
 18 19  1  0
 19 20  2  0
M  END
>  <DRUGBANK_ID>  (1) 
DB01645

>  <SECONDARY_ACCESSION_NUMBERS>  (1) 
EXPT01582

>  <COMMON_NAME>  (1) 
Genistein

>  <CAS_NUMBER>  (1) 
446-72-0

>  <UNII>  (1) 
DH2M523P0H

>  <SYNONYMS>  (1) 
4',5,7-trihydroxyisoflavone; 4H-1-BENZOPYRAN-4-ONE, 5,7-DIHYDROXY-3-(4-HYDROXYPHENYL)-; 5,7-dihydroxy-3-(4-hydroxyphenyl)-4H-1-benzopyran-4-one; 5,7-dihydroxy-3-(4-hydroxyphenyl)-chromen-4-one; 5,7,4'-trihydroxyisoflavone; Genistein; Genisteol; Genisterin

$$$$
