ZZ1
     RDKit          2D

 12 13  0  0  0  0  0  0  0  0999 V2000
   -2.2519    1.4353    0.0000 O   0  0  0  0  0  0  0  0  0  0  0  0
   -1.5374    1.0228    0.0000 C   0  0  0  0  0  0  0  0  0  0  0  0
   -0.8230    1.4353    0.0000 O   0  0  0  0  0  0  0  0  0  0  0  0
   -0.1085    1.0228    0.0000 C   0  0  0  0  0  0  0  0  0  0  0  0
    0.6060    1.4353    0.0000 C   0  0  0  0  0  0  0  0  0  0  0  0
    1.3205    1.0228    0.0000 C   0  0  0  0  0  0  0  0  0  0  0  0
    1.3205    0.1978    0.0000 C   0  0  0  0  0  0  0  0  0  0  0  0
    0.6060   -0.2147    0.0000 C   0  0  0  0  0  0  0  0  0  0  0  0
   -0.1085    0.1978    0.0000 C   0  0  0  0  0  0  0  0  0  0  0  0
   -0.8230   -0.2147    0.0000 C   0  0  0  0  0  0  0  0  0  0  0  0
   -0.8230   -1.0397    0.0000 C   0  0  0  0  0  0  0  0  0  0  0  0
   -1.5374    0.1978    0.0000 C   0  0  0  0  0  0  0  0  0  0  0  0
  1  2  2  0
  2  3  1  0
  2 12  1  0
  3  4  1  0
  4  5  2  0
  4  9  1  0
  5  6  1  0
  6  7  2  0
  7  8  1  0
  8  9  2  0
  9 10  1  0
 10 11  1  0
 10 12  2  0
M  END
>  <DRUGBANK_ID>  (1) 
DB08785

>  <COMMON_NAME>  (1) 
4-Methylcoumarin

>  <CAS_NUMBER>  (1) 
607-71-6

>  <UNII>  (1) 
2YZ8R79U9H

>  <SYNONYMS>  (1) 
4-Methyl-2H-1-benzopyran-2-one

$$$$
