MXA
     RDKit          2D

 24 26  0  0  0  0  0  0  0  0999 V2000
   -1.7495   -2.3631    0.0000 N   0  0  0  0  0  0  0  0  0  0  0  0
   -2.4640   -1.9506    0.0000 C   0  0  0  0  0  0  0  0  0  0  0  0
   -3.1784   -2.3631    0.0000 N   0  0  0  0  0  0  0  0  0  0  0  0
   -2.4640   -1.1256    0.0000 N   0  0  0  0  0  0  0  0  0  0  0  0
   -1.7495   -0.7131    0.0000 C   0  0  0  0  0  0  0  0  0  0  0  0
   -1.7495    0.1119    0.0000 N   0  0  0  0  0  0  0  0  0  0  0  0
   -1.0350   -1.1256    0.0000 C   0  0  0  0  0  0  0  0  0  0  0  0
   -0.3206   -0.7131    0.0000 C   0  0  0  0  0  0  0  0  0  0  0  0
   -0.3206    0.1119    0.0000 C   0  0  0  0  0  0  0  0  0  0  0  0
    0.3939   -1.1256    0.0000 C   0  0  0  0  0  0  0  0  0  0  0  0
    0.3939   -1.9506    0.0000 C   0  0  0  0  0  0  0  0  0  0  0  0
   -0.3206   -2.3631    0.0000 N   0  0  0  0  0  0  0  0  0  0  0  0
   -1.0350   -1.9506    0.0000 C   0  0  0  0  0  0  0  0  0  0  0  0
    1.1084   -0.7131    0.0000 C   0  0  0  0  0  0  0  0  0  0  0  0
    1.1084    0.1119    0.0000 C   0  0  0  0  0  0  0  0  0  0  0  0
    1.8229    0.5244    0.0000 C   0  0  0  0  0  0  0  0  0  0  0  0
    2.5373    0.1119    0.0000 O   0  0  0  0  0  0  0  0  0  0  0  0
    3.2518    0.5244    0.0000 C   0  0  0  0  0  0  0  0  0  0  0  0
    1.8229    1.3494    0.0000 C   0  0  0  0  0  0  0  0  0  0  0  0
    1.1084    1.7619    0.0000 C   0  0  0  0  0  0  0  0  0  0  0  0
    0.3939    1.3494    0.0000 C   0  0  0  0  0  0  0  0  0  0  0  0
   -0.3206    1.7619    0.0000 O   0  0  0  0  0  0  0  0  0  0  0  0
   -0.3206    2.5869    0.0000 C   0  0  0  0  0  0  0  0  0  0  0  0
    0.3939    0.5244    0.0000 C   0  0  0  0  0  0  0  0  0  0  0  0
  1  2  2  0
  1 13  1  0
  2  3  1  0
  2  4  1  0
  4  5  2  0
  5  6  1  0
  5  7  1  0
  7  8  1  0
  7 13  2  0
  8  9  1  0
  8 10  2  0
 10 11  1  0
 10 14  1  0
 11 12  2  0
 12 13  1  0
 14 15  1  0
 15 16  2  0
 15 24  1  0
 16 17  1  0
 16 19  1  0
 17 18  1  0
 19 20  2  0
 20 21  1  0
 21 22  1  0
 21 24  2  0
 22 23  1  0
M  END
>  <DRUGBANK_ID>  (1) 
DB03695

>  <SECONDARY_ACCESSION_NUMBERS>  (1) 
EXPT02259; DB12918

>  <COMMON_NAME>  (1) 
Piritrexim

>  <CAS_NUMBER>  (1) 
72732-56-0

>  <UNII>  (1) 
MK2A783ZUT

>  <SYNONYMS>  (1) 
Piritrexim

$$$$
