
     RDKit          2D

  9  8  0  0  1  0  0  0  0  0999 V2000
    0.1105    2.0625    0.0000 C   0  0  0  0  0  0  0  0  0  0  0  0
    1.6500    0.0000    0.0000 C   0  0  0  0  0  0  0  0  0  0  0  0
    0.8250    0.8250    0.0000 C   0  0  0  0  0  0  0  0  0  0  0  0
    0.8250   -0.8250    0.0000 C   0  0  0  0  0  0  0  0  0  0  0  0
    0.1105    1.2375    0.0000 C   0  0  0  0  0  0  0  0  0  0  0  0
    0.8250    0.0000    0.0000 C   0  0  0  0  0  0  0  0  0  0  0  0
    1.5395   -1.2375    0.0000 O   0  0  0  0  0  0  0  0  0  0  0  0
   -0.6039    0.8250    0.0000 O   0  0  0  0  0  0  0  0  0  0  0  0
    0.0000    0.0000    0.0000 O   0  0  0  0  0  0  0  0  0  0  0  0
  5  1  1  1
  5  3  1  0
  5  8  1  0
  6  2  1  6
  6  3  1  0
  6  4  1  0
  6  9  1  0
  7  4  1  0
M  END
>  <DRUGBANK_ID>  (1) 
DB01881

>  <SECONDARY_ACCESSION_NUMBERS>  (1) 
EXPT02229

>  <COMMON_NAME>  (1) 
2-Methylpentane-1,2,4-Triol

$$$$
