1566
     RDKit          2D

 15 16  0  0  1  0  0  0  0  0999 V2000
    7.4321    0.4081    0.0000 O   0  0  0  0  0  0  0  0  0  0  0  0
    7.4321   -0.9196    0.0000 O   0  0  0  0  0  0  0  0  0  0  0  0
    3.0791    0.5693    0.0000 N   0  0  0  0  0  0  0  0  0  0  0  0
    3.7935    0.1568    0.0000 C   0  0  0  0  0  0  0  0  0  0  0  0
    4.5080    0.5693    0.0000 C   0  0  0  0  0  0  0  0  0  0  0  0
    5.2224    0.1568    0.0000 C   0  0  0  0  0  0  0  0  0  0  0  0
    3.7935   -0.6683    0.0000 C   0  0  0  0  0  0  0  0  0  0  0  0
    5.9370    0.5693    0.0000 C   0  0  0  0  0  0  0  0  0  0  0  0
    2.3645    0.1568    0.0000 C   0  0  0  0  0  0  0  0  0  0  0  0
    5.2224   -0.6683    0.0000 C   0  0  0  0  0  0  0  0  0  0  0  0
    6.6515    0.1568    0.0000 C   0  0  0  0  0  0  0  0  0  0  0  0
    6.6515   -0.6683    0.0000 C   0  0  0  0  0  0  0  0  0  0  0  0
    5.9370   -1.0808    0.0000 C   0  0  0  0  0  0  0  0  0  0  0  0
    1.6500    0.5693    0.0000 C   0  0  0  0  0  0  0  0  0  0  0  0
    7.9136   -0.2558    0.0000 C   0  0  0  0  0  0  0  0  0  0  0  0
  1 11  1  0
  1 15  1  0
  2 12  1  0
  2 15  1  0
  3  4  1  0
  3  9  1  0
  4  5  1  0
  4  7  1  0
  5  6  1  0
  6  8  1  0
  6 10  2  0
  8 11  2  0
  9 14  1  0
 10 13  1  0
 11 12  1  0
 12 13  2  0
M  END
>  <DRUGBANK_ID>  (1) 
DB01566

>  <COMMON_NAME>  (1) 
Methylenedioxyethamphetamine

>  <CAS_NUMBER>  (1) 
82801-81-8

>  <UNII>  (1) 
ML1I4KK67B

>  <SYNONYMS>  (1) 
(+/-)-MDE; 3,4-methylenedioxy-N-ethylamphetamine; MDE; n-ethyl MDA

$$$$
