
     RDKit          2D

 19 19  0  0  0  0  0  0  0  0999 V2000
   -0.3551   -0.6156    0.0000 C   0  0  0  0  0  0  0  0  0  0  0  0
   -1.0700   -1.0275    0.0000 C   0  0  0  0  0  0  0  0  0  0  0  0
   -1.7850   -0.6156    0.0000 C   0  0  0  0  0  0  0  0  0  0  0  0
   -2.4999   -1.0275    0.0000 C   0  0  0  0  0  0  0  0  0  0  0  0
   -3.2149   -0.6156    0.0000 C   0  0  0  0  0  0  0  0  0  0  0  0
   -2.4999   -1.8559    0.0000 O   0  0  0  0  0  0  0  0  0  0  0  0
   -0.3551    0.2082    0.0000 O   0  0  0  0  0  0  0  0  0  0  0  0
    0.3597   -1.0275    0.0000 O   0  0  0  0  0  0  0  0  0  0  0  0
    1.0700   -0.6156    0.0000 C   0  0  0  0  0  0  0  0  0  0  0  0
    1.7850   -1.0275    0.0000 C   0  0  0  0  0  0  0  0  0  0  0  0
    1.7850   -1.8559    0.0000 C   0  0  0  0  0  0  0  0  0  0  0  0
    2.4998   -0.6156    0.0000 N   0  0  0  0  0  0  0  0  0  0  0  0
    3.2149   -1.0275    0.0000 C   0  0  0  0  0  0  0  0  0  0  0  0
    1.0700    0.2082    0.0000 C   0  0  0  0  0  0  0  0  0  0  0  0
    0.3597    0.6201    0.0000 C   0  0  0  0  0  0  0  0  0  0  0  0
    0.3597    1.4440    0.0000 C   0  0  0  0  0  0  0  0  0  0  0  0
    1.0700    1.8559    0.0000 C   0  0  0  0  0  0  0  0  0  0  0  0
    1.7850    1.4440    0.0000 C   0  0  0  0  0  0  0  0  0  0  0  0
    1.7850    0.6201    0.0000 C   0  0  0  0  0  0  0  0  0  0  0  0
  1  2  1  0
  1  7  2  0
  1  8  1  0
  2  3  1  0
  3  4  1  0
  4  5  1  0
  4  6  2  0
  9  8  1  6
  9 10  1  0
  9 14  1  0
 10 11  1  1
 10 12  1  0
 12 13  1  0
 14 15  2  0
 14 19  1  0
 15 16  1  0
 16 17  2  0
 17 18  1  0
 18 19  2  0
M  END
>  <DRUGBANK_ID>  (1) 
DB15988

>  <COMMON_NAME>  (1) 
Ephedrine levulinate

>  <CAS_NUMBER>  (1) 
1082659-36-6

>  <UNII>  (1) 
T9S008S8JL

>  <SYNONYMS>  (1) 
L-Ephedrine levulinate

$$$$
