PNB
     RDKit          2D

 24 24  0  0  0  0  0  0  0  0999 V2000
   -4.7623    0.7704    0.0000 N   0  0  0  0  0  0  0  0  0  0  0  0
   -4.8801    1.5870    0.0000 O   0  0  0  0  0  0  0  0  0  0  0  0
   -5.4105    0.2601    0.0000 O   0  0  0  0  0  0  0  0  0  0  0  0
   -2.4641   -0.1482    0.0000 C   0  0  0  0  0  0  0  0  0  0  0  0
   -3.1123   -0.6585    0.0000 C   0  0  0  0  0  0  0  0  0  0  0  0
   -3.8784   -0.3523    0.0000 C   0  0  0  0  0  0  0  0  0  0  0  0
   -3.9962    0.4642    0.0000 C   0  0  0  0  0  0  0  0  0  0  0  0
   -3.3480    0.9746    0.0000 C   0  0  0  0  0  0  0  0  0  0  0  0
   -2.5819    0.6684    0.0000 C   0  0  0  0  0  0  0  0  0  0  0  0
   -1.6980   -0.4544    0.0000 C   0  0  0  0  0  0  0  0  0  0  0  0
   -1.0498    0.0560    0.0000 O   0  0  0  0  0  0  0  0  0  0  0  0
   -0.2837   -0.2502    0.0000 P   0  0  0  0  0  0  0  0  0  0  0  0
   -0.5899   -1.0163    0.0000 O   0  0  0  0  0  0  0  0  0  0  0  0
    0.0225    0.5158    0.0000 O   0  0  0  0  0  0  0  0  0  0  0  0
    0.4824   -0.5564    0.0000 C   0  0  0  0  0  0  0  0  0  0  0  0
    1.1306   -0.0461    0.0000 C   0  0  0  0  0  0  0  0  0  0  0  0
    1.8966   -0.3523    0.0000 C   0  0  0  0  0  0  0  0  0  0  0  0
    2.5449    0.1580    0.0000 C   0  0  0  0  0  0  0  0  0  0  0  0
    2.4270    0.9746    0.0000 O   0  0  0  0  0  0  0  0  0  0  0  0
    3.3109   -0.1482    0.0000 N   0  0  0  0  0  0  0  0  0  0  0  0
    3.9591    0.3622    0.0000 C   0  0  0  0  0  0  0  0  0  0  0  0
    4.7252    0.0560    0.0000 C   0  0  0  0  0  0  0  0  0  0  0  0
    5.3734    0.5663    0.0000 O   0  0  0  0  0  0  0  0  0  0  0  0
    4.8431   -0.7606    0.0000 O   0  0  0  0  0  0  0  0  0  0  0  0
  1  2  2  0
  1  3  1  0
  1  7  1  0
  4  5  2  0
  4  9  1  0
  4 10  1  0
  5  6  1  0
  6  7  2  0
  7  8  1  0
  8  9  2  0
 10 11  1  0
 12 11  1  0
 12 13  2  0
 12 14  1  0
 12 15  1  0
 15 16  1  0
 16 17  1  0
 17 18  1  0
 18 19  2  0
 18 20  1  0
 20 21  1  0
 21 22  1  0
 22 23  2  0
 22 24  1  0
M  CHG  2   1   1   3  -1
M  END
>  <DRUGBANK_ID>  (1) 
DB08409

>  <COMMON_NAME>  (1) 
4-NITRO-BENZYLPHOSPHONOBUTANOYL-GLYCINE

$$$$
