22F
     RDKit          2D

 15 16  0  0  0  0  0  0  0  0999 V2000
   -0.4780    2.8524    0.0000 F   0  0  0  0  0  0  0  0  0  0  0  0
   -0.4780    2.0274    0.0000 C   0  0  0  0  0  0  0  0  0  0  0  0
   -1.1925    1.6149    0.0000 C   0  0  0  0  0  0  0  0  0  0  0  0
   -1.1925    0.7899    0.0000 C   0  0  0  0  0  0  0  0  0  0  0  0
    0.2364    1.6149    0.0000 C   0  0  0  0  0  0  0  0  0  0  0  0
    0.2364    0.7899    0.0000 C   0  0  0  0  0  0  0  0  0  0  0  0
   -0.4780    0.3774    0.0000 C   0  0  0  0  0  0  0  0  0  0  0  0
   -0.4780   -0.4476    0.0000 C   0  0  0  0  0  0  0  0  0  0  0  0
   -1.1925   -0.8601    0.0000 O   0  0  0  0  0  0  0  0  0  0  0  0
    0.2364   -0.8601    0.0000 C   0  0  0  0  0  0  0  0  0  0  0  0
    0.2364   -1.6851    0.0000 C   0  0  0  0  0  0  0  0  0  0  0  0
    0.9509   -2.0976    0.0000 C   0  0  0  0  0  0  0  0  0  0  0  0
    1.6654   -1.6851    0.0000 N   0  0  0  0  0  0  0  0  0  0  0  0
    1.6654   -0.8601    0.0000 C   0  0  0  0  0  0  0  0  0  0  0  0
    0.9509   -0.4476    0.0000 C   0  0  0  0  0  0  0  0  0  0  0  0
  2  1  1  0
  2  5  2  0
  3  2  1  0
  4  3  2  0
  4  7  1  0
  6  5  1  0
  7  6  2  0
  8  7  1  0
  8  9  2  0
 10  8  1  0
 11 10  2  0
 12 11  1  0
 13 12  2  0
 14 13  1  0
 14 15  2  0
 15 10  1  0
M  END
>  <DRUGBANK_ID>  (1) 
DB06917

>  <COMMON_NAME>  (1) 
(4-fluorophenyl)(pyridin-4-yl)methanone

>  <UNII>  (1) 
J88AAY34QE

$$$$
