PQA
     RDKit          2D

 28 31  0  0  0  0  0  0  0  0999 V2000
   -1.9872    0.2922    0.0000 N   0  0  0  0  0  0  0  0  0  0  0  0
   -1.9872   -0.5328    0.0000 C   0  0  0  0  0  0  0  0  0  0  0  0
   -1.3197   -1.0177    0.0000 C   0  0  0  0  0  0  0  0  0  0  0  0
   -1.5747   -1.8023    0.0000 C   0  0  0  0  0  0  0  0  0  0  0  0
   -2.3997   -1.8023    0.0000 N   0  0  0  0  0  0  0  0  0  0  0  0
   -2.6546   -1.0177    0.0000 N   0  0  0  0  0  0  0  0  0  0  0  0
   -3.4392   -0.7627    0.0000 C   0  0  0  0  0  0  0  0  0  0  0  0
   -4.0523   -1.3148    0.0000 C   0  0  0  0  0  0  0  0  0  0  0  0
   -4.8369   -1.0598    0.0000 C   0  0  0  0  0  0  0  0  0  0  0  0
   -5.0085   -0.2529    0.0000 C   0  0  0  0  0  0  0  0  0  0  0  0
   -5.7931    0.0021    0.0000 F   0  0  0  0  0  0  0  0  0  0  0  0
   -4.3954    0.2992    0.0000 C   0  0  0  0  0  0  0  0  0  0  0  0
   -3.6108    0.0442    0.0000 C   0  0  0  0  0  0  0  0  0  0  0  0
   -0.5351   -0.7627    0.0000 C   0  0  0  0  0  0  0  0  0  0  0  0
    0.0780   -1.3148    0.0000 O   0  0  0  0  0  0  0  0  0  0  0  0
   -0.3636    0.0442    0.0000 C   0  0  0  0  0  0  0  0  0  0  0  0
   -0.9767    0.5963    0.0000 C   0  0  0  0  0  0  0  0  0  0  0  0
   -0.8052    1.4032    0.0000 C   0  0  0  0  0  0  0  0  0  0  0  0
   -0.0205    1.6582    0.0000 C   0  0  0  0  0  0  0  0  0  0  0  0
    0.5926    1.1061    0.0000 C   0  0  0  0  0  0  0  0  0  0  0  0
    1.3772    1.3611    0.0000 O   0  0  0  0  0  0  0  0  0  0  0  0
    1.9903    0.8091    0.0000 C   0  0  0  0  0  0  0  0  0  0  0  0
    2.7749    1.0640    0.0000 C   0  0  0  0  0  0  0  0  0  0  0  0
    3.3880    0.5120    0.0000 C   0  0  0  0  0  0  0  0  0  0  0  0
    3.2165   -0.2950    0.0000 N   0  0  0  0  0  0  0  0  0  0  0  0
    2.4318   -0.5500    0.0000 C   0  0  0  0  0  0  0  0  0  0  0  0
    1.8188    0.0021    0.0000 C   0  0  0  0  0  0  0  0  0  0  0  0
    0.4210    0.2992    0.0000 C   0  0  0  0  0  0  0  0  0  0  0  0
  1  2  1  0
  2  3  2  0
  2  6  1  0
  3  4  1  0
  3 14  1  0
  4  5  2  0
  5  6  1  0
  6  7  1  0
  7  8  2  0
  7 13  1  0
  8  9  1  0
  9 10  2  0
 10 11  1  0
 10 12  1  0
 12 13  2  0
 14 15  2  0
 14 16  1  0
 16 17  2  0
 16 28  1  0
 17 18  1  0
 18 19  2  0
 19 20  1  0
 20 21  1  0
 20 28  2  0
 21 22  1  0
 22 23  1  0
 22 27  1  0
 23 24  1  0
 24 25  1  0
 25 26  1  0
 26 27  1  0
M  END
>  <DRUGBANK_ID>  (1) 
DB08423

>  <COMMON_NAME>  (1) 
[5-AMINO-1-(4-FLUOROPHENYL)-1H-PYRAZOL-4-YL][3-(PIPERIDIN-4-YLOXY)PHENYL]METHANONE

$$$$
