
     RDKit          2D

 36 39  0  0  0  0  0  0  0  0999 V2000
   -0.7145   -4.6993    0.0000 C   0  0  0  0  0  0  0  0  0  0  0  0
   -0.3020   -3.9849    0.0000 C   0  0  0  0  0  0  0  0  0  0  0  0
   -0.7145   -3.2704    0.0000 C   0  0  0  0  0  0  0  0  0  0  0  0
   -0.3020   -2.5559    0.0000 C   0  0  0  0  0  0  0  0  0  0  0  0
    0.5230   -2.5559    0.0000 C   0  0  0  0  0  0  0  0  0  0  0  0
    0.9355   -3.2704    0.0000 C   0  0  0  0  0  0  0  0  0  0  0  0
    0.5230   -3.9849    0.0000 C   0  0  0  0  0  0  0  0  0  0  0  0
    0.9355   -1.8414    0.0000 C   0  0  0  0  0  0  0  0  0  0  0  0
    1.7605   -1.8414    0.0000 O   0  0  0  0  0  0  0  0  0  0  0  0
    0.5230   -1.1270    0.0000 N   0  0  0  0  0  0  0  0  0  0  0  0
   -0.3020   -1.1270    0.0000 C   0  0  0  0  0  0  0  0  0  0  0  0
   -0.7145   -0.4125    0.0000 C   0  0  0  0  0  0  0  0  0  0  0  0
   -1.5395   -0.4125    0.0000 C   0  0  0  0  0  0  0  0  0  0  0  0
   -1.9520   -1.1270    0.0000 N   0  0  0  0  0  0  0  0  0  0  0  0
    0.9355   -0.4125    0.0000 C   0  0  0  0  0  0  0  0  0  0  0  0
    0.5230    0.3020    0.0000 C   0  0  0  0  0  0  0  0  0  0  0  0
   -0.3020    0.3020    0.0000 N   0  0  0  0  0  0  0  0  0  0  0  0
   -0.7145    1.0164    0.0000 C   0  0  0  0  0  0  0  0  0  0  0  0
   -0.3020    1.7309    0.0000 C   0  0  0  0  0  0  0  0  0  0  0  0
   -0.8540    2.3440    0.0000 C   0  0  0  0  0  0  0  0  0  0  0  0
   -1.6077    2.0084    0.0000 N   0  0  0  0  0  0  0  0  0  0  0  0
   -1.5214    1.1880    0.0000 S   0  0  0  0  0  0  0  0  0  0  0  0
   -0.6825    3.1510    0.0000 C   0  0  0  0  0  0  0  0  0  0  0  0
    0.5230    1.7309    0.0000 C   0  0  0  0  0  0  0  0  0  0  0  0
    0.9355    2.4454    0.0000 O   0  0  0  0  0  0  0  0  0  0  0  0
    0.9355    1.0164    0.0000 N   0  0  0  0  0  0  0  0  0  0  0  0
    1.7605    1.0164    0.0000 C   0  0  0  0  0  0  0  0  0  0  0  0
    2.1730    1.7309    0.0000 C   0  0  0  0  0  0  0  0  0  0  0  0
    1.7605    2.4454    0.0000 C   0  0  0  0  0  0  0  0  0  0  0  0
    2.1730    3.1599    0.0000 C   0  0  0  0  0  0  0  0  0  0  0  0
    2.9980    3.1599    0.0000 C   0  0  0  0  0  0  0  0  0  0  0  0
    3.4105    2.4454    0.0000 C   0  0  0  0  0  0  0  0  0  0  0  0
    2.9980    1.7309    0.0000 C   0  0  0  0  0  0  0  0  0  0  0  0
    1.7605   -0.4125    0.0000 C   0  0  0  0  0  0  0  0  0  0  0  0
    2.1730    0.3020    0.0000 C   0  0  0  0  0  0  0  0  0  0  0  0
    2.1730   -1.1270    0.0000 C   0  0  0  0  0  0  0  0  0  0  0  0
  1  2  1  0
  2  3  2  0
  2  7  1  0
  3  4  1  0
  4  5  2  0
  5  6  1  0
  5  8  1  0
  6  7  2  0
  8  9  2  0
  8 10  1  0
 10 11  1  0
 10 15  1  0
 11 12  1  0
 12 13  1  0
 13 14  1  0
 15 16  1  0
 15 34  1  0
 16 17  2  0
 16 26  1  0
 17 18  1  0
 18 19  2  0
 18 22  1  0
 19 20  1  0
 19 24  1  0
 20 21  2  0
 20 23  1  0
 21 22  1  0
 24 25  2  0
 24 26  1  0
 26 27  1  0
 27 28  1  0
 28 29  2  0
 28 33  1  0
 29 30  1  0
 30 31  2  0
 31 32  1  0
 32 33  2  0
 34 35  1  0
 34 36  1  0
M  END
>  <DRUGBANK_ID>  (1) 
DB11671

>  <COMMON_NAME>  (1) 
AZD-4877

>  <CAS_NUMBER>  (1) 
1176760-49-8

>  <UNII>  (1) 
19ORU63E06

$$$$
