
     RDKit          2D

 32 37  0  0  0  0  0  0  0  0999 V2000
   -1.6582   -4.5036    0.0000 C   0  0  0  0  0  0  0  0  0  0  0  0
   -0.9569   -4.0690    0.0000 C   0  0  0  0  0  0  0  0  0  0  0  0
   -0.5223   -4.7702    0.0000 O   0  0  0  0  0  0  0  0  0  0  0  0
   -1.3915   -3.3678    0.0000 C   0  0  0  0  0  0  0  0  0  0  0  0
   -0.6903   -2.9331    0.0000 C   0  0  0  0  0  0  0  0  0  0  0  0
   -1.1249   -2.2319    0.0000 N   0  0  0  0  0  0  0  0  0  0  0  0
   -0.2557   -3.6344    0.0000 C   0  0  0  0  0  0  0  0  0  0  0  0
    0.0109   -2.4985    0.0000 C   0  0  0  0  0  0  0  0  0  0  0  0
   -0.0148   -1.6739    0.0000 C   0  0  0  0  0  0  0  0  0  0  0  0
    0.6864   -1.2393    0.0000 C   0  0  0  0  0  0  0  0  0  0  0  0
    1.4134   -1.6293    0.0000 C   0  0  0  0  0  0  0  0  0  0  0  0
    1.4392   -2.4539    0.0000 C   0  0  0  0  0  0  0  0  0  0  0  0
    0.7379   -2.8885    0.0000 C   0  0  0  0  0  0  0  0  0  0  0  0
    2.1147   -1.1947    0.0000 C   0  0  0  0  0  0  0  0  0  0  0  0
    2.1752   -0.3719    0.0000 C   0  0  0  0  0  0  0  0  0  0  0  0
    2.9765   -0.1753    0.0000 N   0  0  0  0  0  0  0  0  0  0  0  0
    3.3664    0.5517    0.0000 C   0  0  0  0  0  0  0  0  0  0  0  0
    4.1910    0.5775    0.0000 O   0  0  0  0  0  0  0  0  0  0  0  0
    4.6256   -0.1238    0.0000 C   0  0  0  0  0  0  0  0  0  0  0  0
    5.4502   -0.0980    0.0000 C   0  0  0  0  0  0  0  0  0  0  0  0
    5.8849   -0.7992    0.0000 C   0  0  0  0  0  0  0  0  0  0  0  0
    5.4949   -1.5262    0.0000 N   0  0  0  0  0  0  0  0  0  0  0  0
    4.6703   -1.5520    0.0000 C   0  0  0  0  0  0  0  0  0  0  0  0
    4.2357   -0.8508    0.0000 C   0  0  0  0  0  0  0  0  0  0  0  0
    3.4111   -0.8765    0.0000 C   0  0  0  0  0  0  0  0  0  0  0  0
    2.8784   -1.5066    0.0000 N   0  0  0  0  0  0  0  0  0  0  0  0
    1.5452    0.1607    0.0000 C   0  0  0  0  0  0  0  0  0  0  0  0
    0.7689   -0.1186    0.0000 C   0  0  0  0  0  0  0  0  0  0  0  0
    0.1389    0.4140    0.0000 C   0  0  0  0  0  0  0  0  0  0  0  0
    0.2851    1.2259    0.0000 C   0  0  0  0  0  0  0  0  0  0  0  0
    1.0614    1.5052    0.0000 C   0  0  0  0  0  0  0  0  0  0  0  0
    1.6914    0.9726    0.0000 C   0  0  0  0  0  0  0  0  0  0  0  0
  2  1  1  1
  2  3  1  0
  2  4  1  0
  2  7  1  0
  5  4  1  0
  5  6  1  1
  5  7  1  0
  5  8  1  0
  8  9  2  0
  8 13  1  0
  9 10  1  0
 10 11  2  0
 11 12  1  0
 11 14  1  0
 12 13  2  0
 14 15  2  0
 14 26  1  0
 15 16  1  0
 15 27  1  0
 16 17  1  0
 16 25  1  0
 17 18  1  0
 18 19  1  0
 19 20  2  0
 19 24  1  0
 20 21  1  0
 21 22  2  0
 22 23  1  0
 23 24  2  0
 24 25  1  0
 25 26  2  0
 27 28  2  0
 27 32  1  0
 28 29  1  0
 29 30  2  0
 30 31  1  0
 31 32  2  0
M  END
>  <DRUGBANK_ID>  (1) 
DB15054

>  <COMMON_NAME>  (1) 
TAS-117

>  <CAS_NUMBER>  (1) 
1402602-94-1

>  <UNII>  (1) 
QI52W1ZIIB

$$$$
