
     RDKit          2D

 34 38  0  0  1  0  0  0  0  0999 V2000
    3.4990    4.4104    0.0000 C   0  0  0  0  0  0  0  0  0  0  0  0
    2.7845    4.8229    0.0000 C   0  0  0  0  0  0  0  0  0  0  0  0
    3.4990    3.5854    0.0000 C   0  0  0  0  0  0  0  0  0  0  0  0
    2.0701    4.4104    0.0000 C   0  0  0  0  0  0  0  0  0  0  0  0
    2.7845    3.1729    0.0000 C   0  0  0  0  0  0  0  0  0  0  0  0
   -2.6392    2.3721    0.0000 C   0  0  0  0  0  0  0  0  0  0  0  0
   -2.1977    1.0131    0.0000 C   0  0  0  0  0  0  0  0  0  0  0  0
    2.7845   -0.1271    0.0000 C   0  0  0  0  0  0  0  0  0  0  0  0
    3.4990    1.1104    0.0000 C   0  0  0  0  0  0  0  0  0  0  0  0
   -3.4239    2.1171    0.0000 C   0  0  0  0  0  0  0  0  0  0  0  0
   -2.9823    0.7581    0.0000 C   0  0  0  0  0  0  0  0  0  0  0  0
    3.4990   -0.5396    0.0000 C   0  0  0  0  0  0  0  0  0  0  0  0
    4.2135    0.6979    0.0000 C   0  0  0  0  0  0  0  0  0  0  0  0
    1.3556    3.1729    0.0000 C   0  0  0  0  0  0  0  0  0  0  0  0
   -1.2415    2.0750    0.0000 C   0  0  0  0  0  0  0  0  0  0  0  0
    1.3556    0.6979    0.0000 C   0  0  0  0  0  0  0  0  0  0  0  0
    2.0701    3.5854    0.0000 C   0  0  0  0  0  0  0  0  0  0  0  0
   -2.0261    1.8200    0.0000 C   0  0  0  0  0  0  0  0  0  0  0  0
    2.7845    0.6979    0.0000 C   0  0  0  0  0  0  0  0  0  0  0  0
   -3.5954    1.3102    0.0000 C   0  0  0  0  0  0  0  0  0  0  0  0
    4.2135   -0.1271    0.0000 C   0  0  0  0  0  0  0  0  0  0  0  0
    1.3556    2.3479    0.0000 C   0  0  0  0  0  0  0  0  0  0  0  0
    2.0701    1.1104    0.0000 C   0  0  0  0  0  0  0  0  0  0  0  0
    0.6411    1.9354    0.0000 C   0  0  0  0  0  0  0  0  0  0  0  0
   -0.1435    0.8555    0.0000 C   0  0  0  0  0  0  0  0  0  0  0  0
   -0.6284    1.5229    0.0000 C   0  0  0  0  0  0  0  0  0  0  0  0
    2.0701    1.9354    0.0000 N   0  0  0  0  0  0  0  0  0  0  0  0
   -0.1435    2.1904    0.0000 N   0  0  0  0  0  0  0  0  0  0  0  0
    0.6411    1.1104    0.0000 N   0  0  0  0  0  0  0  0  0  0  0  0
   -4.3800    1.0552    0.0000 O   0  0  0  0  0  0  0  0  0  0  0  0
    4.9279   -0.5396    0.0000 O   0  0  0  0  0  0  0  0  0  0  0  0
   -0.3984    0.0709    0.0000 O   0  0  0  0  0  0  0  0  0  0  0  0
   -1.0700    0.1639    0.0000 O   0  0  0  0  0  0  0  0  0  0  0  0
   -1.2415    0.9709    0.0000 O   0  0  0  0  0  0  0  0  0  0  0  0
  2  1  2  0
  3  1  1  0
  4  2  1  0
  5  3  2  0
 10  6  2  0
 11  7  1  0
 12  8  2  0
 13  9  1  0
 17  4  2  0
 17  5  1  0
 17 14  1  0
 18  6  1  0
 18  7  2  0
 18 15  1  0
 19  8  1  0
 19  9  2  0
 20 10  1  0
 20 11  2  0
 21 12  1  0
 21 13  2  0
 22 14  1  0
 23 16  2  0
 23 19  1  0
 24 22  1  0
 26 15  1  1
 26 25  1  0
 26 34  1  0
 27 22  2  0
 27 23  1  0
 28 24  2  0
 28 26  1  0
 29 16  1  0
 29 24  1  0
 29 25  1  0
 30 20  1  0
 31 21  1  0
 32 25  2  0
 34 33  1  0
M  END
>  <DRUGBANK_ID>  (1) 
DB02241

>  <SECONDARY_ACCESSION_NUMBERS>  (1) 
EXPT01085

>  <COMMON_NAME>  (1) 
8-Benzyl-2-Hydroperoxy-2-(4-Hydroxy-Benzyl)-6-(4-Hydroxy-Phenyl)-2h-Imidazo[1,2-a]Pyrazin-3-One

$$$$
