
     RDKit          2D

 32 34  0  0  0  0  0  0  0  0999 V2000
    3.4174   -2.1386    0.0000 Cl  0  0  0  0  0  0  0  0  0  0  0  0
    0.3433    1.3809    0.0000 S   0  0  0  0  0  0  0  0  0  0  0  0
    2.9582    0.1210    0.0000 O   0  0  0  0  0  0  0  0  0  0  0  0
    2.9433    1.2641    0.0000 O   0  0  0  0  0  0  0  0  0  0  0  0
    0.0862   -0.7259    0.0000 N   0  0  0  0  0  0  0  0  0  0  0  0
   -0.6959    0.3471    0.0000 C   0  0  0  0  0  0  0  0  0  0  0  0
    0.5674   -0.0540    0.0000 C   0  0  0  0  0  0  0  0  0  0  0  0
    0.0862    0.5978    0.0000 C   0  0  0  0  0  0  0  0  0  0  0  0
   -0.6959   -0.4752    0.0000 C   0  0  0  0  0  0  0  0  0  0  0  0
    1.3917   -0.0429    0.0000 C   0  0  0  0  0  0  0  0  0  0  0  0
   -1.4079    0.7682    0.0000 C   0  0  0  0  0  0  0  0  0  0  0  0
   -1.4079   -0.8963    0.0000 C   0  0  0  0  0  0  0  0  0  0  0  0
    0.3456   -1.5081    0.0000 C   0  0  0  0  0  0  0  0  0  0  0  0
   -2.1300    0.3471    0.0000 C   0  0  0  0  0  0  0  0  0  0  0  0
    1.7952    0.6771    0.0000 C   0  0  0  0  0  0  0  0  0  0  0  0
   -2.1300   -0.4752    0.0000 C   0  0  0  0  0  0  0  0  0  0  0  0
   -0.2067    1.9964    0.0000 C   0  0  0  0  0  0  0  0  0  0  0  0
    1.1541   -1.6753    0.0000 C   0  0  0  0  0  0  0  0  0  0  0  0
    2.6207    0.6882    0.0000 C   0  0  0  0  0  0  0  0  0  0  0  0
   -2.8485    0.7535    0.0000 C   0  0  0  0  0  0  0  0  0  0  0  0
    1.1352    0.6685    0.0000 C   0  0  0  0  0  0  0  0  0  0  0  0
    1.4577    1.2443    0.0000 C   0  0  0  0  0  0  0  0  0  0  0  0
    1.4148   -2.4580    0.0000 C   0  0  0  0  0  0  0  0  0  0  0  0
    1.7016   -1.0580    0.0000 C   0  0  0  0  0  0  0  0  0  0  0  0
   -0.0009    2.6235    0.0000 C   0  0  0  0  0  0  0  0  0  0  0  0
   -0.8528    1.8612    0.0000 C   0  0  0  0  0  0  0  0  0  0  0  0
   -0.6469    2.4883    0.0000 C   0  0  0  0  0  0  0  0  0  0  0  0
    2.2232   -2.6235    0.0000 C   0  0  0  0  0  0  0  0  0  0  0  0
    2.5099   -1.2235    0.0000 C   0  0  0  0  0  0  0  0  0  0  0  0
   -3.4174    0.4188    0.0000 C   0  0  0  0  0  0  0  0  0  0  0  0
   -2.8540    1.4135    0.0000 C   0  0  0  0  0  0  0  0  0  0  0  0
    2.7707   -2.0062    0.0000 C   0  0  0  0  0  0  0  0  0  0  0  0
  1 32  1  0
  2 17  1  0
  5  9  1  0
  6  8  1  0
  6  9  2  0
  7  5  1  0
  7 10  1  0
  8  2  1  0
  8  7  2  0
  9 12  1  0
 10 15  1  0
 11  6  1  0
 12 16  2  0
 13  5  1  0
 14 11  2  0
 14 20  1  0
 15 19  1  0
 15 21  1  0
 15 22  1  0
 16 14  1  0
 17 25  1  0
 17 26  1  0
 17 27  1  0
 18 13  1  0
 18 23  2  0
 19  3  1  0
 19  4  2  0
 20 30  1  0
 20 31  1  0
 23 28  1  0
 24 18  1  0
 28 32  2  0
 29 24  2  0
 32 29  1  0
M  END
>  <DRUGBANK_ID>  (1) 
DB16739

>  <COMMON_NAME>  (1) 
MK-886

>  <CAS_NUMBER>  (1) 
118414-82-7

>  <UNII>  (1) 
080626SQ8C

$$$$
