HM2
     RDKit          2D

 23 25  0  0  0  0  0  0  0  0999 V2000
    0.8731   -1.3160    0.0000 N   0  0  0  0  0  0  0  0  0  0  0  0
   -0.5558   -0.4910    0.0000 N   0  0  0  0  0  0  0  0  0  0  0  0
   -1.2703   -1.7285    0.0000 N   0  0  0  0  0  0  0  0  0  0  0  0
   -1.2703    0.7465    0.0000 N   0  0  0  0  0  0  0  0  0  0  0  0
    1.5876   -1.7285    0.0000 C   0  0  0  0  0  0  0  0  0  0  0  0
    1.5876   -2.5535    0.0000 C   0  0  0  0  0  0  0  0  0  0  0  0
    0.8731   -2.9660    0.0000 C   0  0  0  0  0  0  0  0  0  0  0  0
    0.1586   -2.5535    0.0000 C   0  0  0  0  0  0  0  0  0  0  0  0
    0.1586   -1.7285    0.0000 C   0  0  0  0  0  0  0  0  0  0  0  0
   -0.5558   -1.3160    0.0000 C   0  0  0  0  0  0  0  0  0  0  0  0
   -1.2703   -0.0785    0.0000 C   0  0  0  0  0  0  0  0  0  0  0  0
   -1.9848   -1.3160    0.0000 C   0  0  0  0  0  0  0  0  0  0  0  0
   -1.9848   -0.4910    0.0000 C   0  0  0  0  0  0  0  0  0  0  0  0
   -0.5558    1.1590    0.0000 C   0  0  0  0  0  0  0  0  0  0  0  0
   -0.5558    1.9840    0.0000 C   0  0  0  0  0  0  0  0  0  0  0  0
    0.1586    2.3965    0.0000 C   0  0  0  0  0  0  0  0  0  0  0  0
    0.1586    3.2215    0.0000 C   0  0  0  0  0  0  0  0  0  0  0  0
    0.8731    3.6340    0.0000 C   0  0  0  0  0  0  0  0  0  0  0  0
    1.5876    3.2215    0.0000 C   0  0  0  0  0  0  0  0  0  0  0  0
    1.5876    2.3965    0.0000 C   0  0  0  0  0  0  0  0  0  0  0  0
    0.8731    1.9840    0.0000 C   0  0  0  0  0  0  0  0  0  0  0  0
   -2.6993   -1.7285    0.0000 C   0  0  0  0  0  0  0  0  0  0  0  0
   -2.6993   -0.0785    0.0000 Cl  0  0  0  0  0  0  0  0  0  0  0  0
  1  5  2  0
  1  9  1  0
  2 10  2  0
  2 11  1  0
  3 10  1  0
  3 12  2  0
  4 11  1  0
  4 14  1  0
  5  6  1  0
  6  7  2  0
  7  8  1  0
  8  9  2  0
  9 10  1  0
 11 13  2  0
 12 13  1  0
 12 22  1  0
 13 23  1  0
 14 15  1  0
 15 16  1  0
 16 17  2  0
 16 21  1  0
 17 18  1  0
 18 19  2  0
 19 20  1  0
 20 21  2  0
M  END
>  <DRUGBANK_ID>  (1) 
DB07901

>  <COMMON_NAME>  (1) 
5-CHLORO-6-METHYL-N-(2-PHENYLETHYL)-2-PYRIDIN-2-YLPYRIMIDIN-4-AMINE

$$$$
