
     RDKit          2D

 19 21  0  0  1  0  0  0  0  0999 V2000
   -0.5683   -1.4940    0.0000 C   0  0  0  0  0  0  0  0  0  0  0  0
    3.3523    1.1104    0.0000 C   0  0  0  0  0  0  0  0  0  0  0  0
    0.6538    1.5229    0.0000 C   0  0  0  0  0  0  0  0  0  0  0  0
    0.0992   -1.0091    0.0000 C   0  0  0  0  0  0  0  0  0  0  0  0
    1.3687   -0.5966    0.0000 C   0  0  0  0  0  0  0  0  0  0  0  0
    1.9233    1.9354    0.0000 C   0  0  0  0  0  0  0  0  0  0  0  0
    0.8838   -1.2640    0.0000 C   0  0  0  0  0  0  0  0  0  0  0  0
    2.6378    2.3479    0.0000 C   0  0  0  0  0  0  0  0  0  0  0  0
    1.9233    1.1104    0.0000 C   0  0  0  0  0  0  0  0  0  0  0  0
    0.8838    0.0709    0.0000 C   0  0  0  0  0  0  0  0  0  0  0  0
    2.1937   -0.5966    0.0000 N   0  0  0  0  0  0  0  0  0  0  0  0
    2.6378    3.1729    0.0000 N   0  0  0  0  0  0  0  0  0  0  0  0
    3.3523    1.9354    0.0000 N   0  0  0  0  0  0  0  0  0  0  0  0
    2.6378    0.6979    0.0000 N   0  0  0  0  0  0  0  0  0  0  0  0
    1.1387    2.1904    0.0000 N   0  0  0  0  0  0  0  0  0  0  0  0
    1.1387    0.8555    0.0000 N   0  0  0  0  0  0  0  0  0  0  0  0
   -0.4820   -2.3145    0.0000 O   0  0  0  0  0  0  0  0  0  0  0  0
    1.1387   -2.0486    0.0000 O   0  0  0  0  0  0  0  0  0  0  0  0
    0.0992   -0.1841    0.0000 O   0  0  0  0  0  0  0  0  0  0  0  0
  4  1  1  1
  5 11  1  6
  7  4  1  0
  7  5  1  0
  7 18  1  6
  8  6  2  0
  9  6  1  0
 10  5  1  0
 10 16  1  1
 12  8  1  0
 13  2  2  0
 13  8  1  0
 14  2  1  0
 14  9  2  0
 15  3  2  0
 15  6  1  0
 16  3  1  0
 16  9  1  0
 17  1  1  0
 19  4  1  0
 19 10  1  0
M  END
>  <DRUGBANK_ID>  (1) 
DB04102

>  <SECONDARY_ACCESSION_NUMBERS>  (1) 
EXPT00101

>  <COMMON_NAME>  (1) 
2-Amino-Adenosine

$$$$
