
     RDKit          2D

 16 16  0  0  0  0  0  0  0  0999 V2000
    2.0600   -1.0719    0.0000 C   0  0  0  0  0  0  0  0  0  0  0  0
    2.4701   -0.3557    0.0000 C   0  0  0  0  0  0  0  0  0  0  0  0
    2.0600    0.3557    0.0000 C   0  0  0  0  0  0  0  0  0  0  0  0
    1.2350    0.3557    0.0000 C   0  0  0  0  0  0  0  0  0  0  0  0
    0.8250   -0.3557    0.0000 C   0  0  0  0  0  0  0  0  0  0  0  0
    1.2350   -1.0719    0.0000 C   0  0  0  0  0  0  0  0  0  0  0  0
    0.8250    1.0670    0.0000 C   0  0  0  0  0  0  0  0  0  0  0  0
    1.2350    1.7834    0.0000 O   0  0  0  0  0  0  0  0  0  0  0  0
    0.0000    1.0670    0.0000 C   0  0  0  0  0  0  0  0  0  0  0  0
   -0.4100    0.3557    0.0000 C   0  0  0  0  0  0  0  0  0  0  0  0
   -1.2350    0.3557    0.0000 C   0  0  0  0  0  0  0  0  0  0  0  0
   -1.6451   -0.3557    0.0000 C   0  0  0  0  0  0  0  0  0  0  0  0
   -1.2350   -1.0719    0.0000 C   0  0  0  0  0  0  0  0  0  0  0  0
   -1.6451   -1.7834    0.0000 O   0  0  0  0  0  0  0  0  0  0  0  0
   -0.4100   -1.0719    0.0000 O   0  0  0  0  0  0  0  0  0  0  0  0
   -2.4701   -0.3557    0.0000 O   0  0  0  0  0  0  0  0  0  0  0  0
  1  2  2  0
  1  6  1  0
  2  3  1  0
  3  4  2  0
  4  5  1  0
  4  7  1  0
  5  6  2  0
  7  8  2  0
  7  9  1  0
  9 10  2  0
 10 11  1  0
 11 12  2  0
 12 13  1  0
 12 16  1  0
 13 14  2  0
 13 15  1  0
M  END
>  <DRUGBANK_ID>  (1) 
DB07915

>  <COMMON_NAME>  (1) 
(2E,4E)-2-Hydroxy-6-oxo-6-phenyl-2,4-hexadienoic acid

$$$$
