
     RDKit          2D

 24 26  0  0  0  0  0  0  0  0999 V2000
   -1.8722   -0.3487    0.0000 S   0  0  0  0  0  0  0  0  0  0  0  0
   -1.3873   -1.0162    0.0000 C   0  0  0  0  0  0  0  0  0  0  0  0
   -1.8723   -1.6836    0.0000 N   0  0  0  0  0  0  0  0  0  0  0  0
   -2.6568   -1.4286    0.0000 C   0  0  0  0  0  0  0  0  0  0  0  0
   -2.6568   -0.6036    0.0000 C   0  0  0  0  0  0  0  0  0  0  0  0
   -3.3713   -1.8410    0.0000 C   0  0  0  0  0  0  0  0  0  0  0  0
   -4.0858   -1.4284    0.0000 C   0  0  0  0  0  0  0  0  0  0  0  0
   -4.0857   -0.6034    0.0000 C   0  0  0  0  0  0  0  0  0  0  0  0
   -3.3712   -0.1910    0.0000 C   0  0  0  0  0  0  0  0  0  0  0  0
   -0.5623   -1.0163    0.0000 C   0  0  0  0  0  0  0  0  0  0  0  0
   -0.1499   -1.7308    0.0000 C   0  0  0  0  0  0  0  0  0  0  0  0
    0.6750   -1.7309    0.0000 C   0  0  0  0  0  0  0  0  0  0  0  0
    1.0876   -1.0165    0.0000 C   0  0  0  0  0  0  0  0  0  0  0  0
    0.6752   -0.3020    0.0000 C   0  0  0  0  0  0  0  0  0  0  0  0
   -0.1497   -0.3019    0.0000 C   0  0  0  0  0  0  0  0  0  0  0  0
    1.9126   -1.0165    0.0000 O   0  0  0  0  0  0  0  0  0  0  0  0
    2.3251   -0.3021    0.0000 C   0  0  0  0  0  0  0  0  0  0  0  0
    3.1501   -0.3022    0.0000 C   0  0  0  0  0  0  0  0  0  0  0  0
    3.5627    0.4121    0.0000 N   0  0  0  0  0  0  0  0  0  0  0  0
    4.3877    0.4120    0.0000 C   0  0  0  0  0  0  0  0  0  0  0  0
    4.8003    1.1265    0.0000 C   0  0  0  0  0  0  0  0  0  0  0  0
    3.1503    1.1266    0.0000 C   0  0  0  0  0  0  0  0  0  0  0  0
    3.5628    1.8410    0.0000 C   0  0  0  0  0  0  0  0  0  0  0  0
   -4.8003   -1.8409    0.0000 Cl  0  0  0  0  0  0  0  0  0  0  0  0
  1  2  1  0
  1  5  1  0
  2  3  2  0
  2 10  1  0
  3  4  1  0
  4  5  2  0
  4  6  1  0
  5  9  1  0
  6  7  2  0
  7  8  1  0
  7 24  1  0
  8  9  2  0
 10 11  2  0
 10 15  1  0
 11 12  1  0
 12 13  2  0
 13 14  1  0
 13 16  1  0
 14 15  2  0
 16 17  1  0
 17 18  1  0
 18 19  1  0
 19 20  1  0
 19 22  1  0
 20 21  1  0
 22 23  1  0
M  END
>  <DRUGBANK_ID>  (1) 
DB15942

>  <COMMON_NAME>  (1) 
Haletazole

>  <CAS_NUMBER>  (1) 
15599-36-7

>  <UNII>  (1) 
U89MCO87LX

>  <SYNONYMS>  (1) 
Haletazole; Halethazole

$$$$
