HOP
     RDKit          2D

 28 30  0  0  0  0  0  0  0  0999 V2000
   -4.5079   -2.2561    0.0000 C   0  0  0  0  0  0  0  0  0  0  0  0
   -4.5079   -1.4311    0.0000 C   0  0  0  0  0  0  0  0  0  0  0  0
   -3.7934   -2.6686    0.0000 C   0  0  0  0  0  0  0  0  0  0  0  0
   -3.0789   -2.2561    0.0000 C   0  0  0  0  0  0  0  0  0  0  0  0
   -3.0789   -1.4311    0.0000 C   0  0  0  0  0  0  0  0  0  0  0  0
   -3.7934   -1.0186    0.0000 C   0  0  0  0  0  0  0  0  0  0  0  0
   -2.3644   -1.0186    0.0000 C   0  0  0  0  0  0  0  0  0  0  0  0
   -2.3644   -0.1936    0.0000 C   0  0  0  0  0  0  0  0  0  0  0  0
   -1.6500    0.2189    0.0000 C   0  0  0  0  0  0  0  0  0  0  0  0
   -0.9355   -0.1936    0.0000 C   0  0  0  0  0  0  0  0  0  0  0  0
   -0.9355   -1.0186    0.0000 C   0  0  0  0  0  0  0  0  0  0  0  0
   -1.6500   -1.4311    0.0000 C   0  0  0  0  0  0  0  0  0  0  0  0
   -0.2210    0.2189    0.0000 C   0  0  0  0  0  0  0  0  0  0  0  0
   -0.2210    1.0439    0.0000 C   0  0  0  0  0  0  0  0  0  0  0  0
    0.4934    1.4564    0.0000 C   0  0  0  0  0  0  0  0  0  0  0  0
    1.2079    1.0439    0.0000 C   0  0  0  0  0  0  0  0  0  0  0  0
    1.2079    0.2189    0.0000 C   0  0  0  0  0  0  0  0  0  0  0  0
    0.4934   -0.1936    0.0000 C   0  0  0  0  0  0  0  0  0  0  0  0
   -1.6500    1.0439    0.0000 O   0  0  0  0  0  0  0  0  0  0  0  0
    1.9224    1.4564    0.0000 C   0  0  0  0  0  0  0  0  0  0  0  0
    1.9224    2.2814    0.0000 O   0  0  0  0  0  0  0  0  0  0  0  0
    2.6369    1.0439    0.0000 N   0  0  0  0  0  0  0  0  0  0  0  0
    3.3513    1.4564    0.0000 C   0  0  0  0  0  0  0  0  0  0  0  0
    4.0658    1.0439    0.0000 C   0  0  0  0  0  0  0  0  0  0  0  0
    4.7803    1.4564    0.0000 C   0  0  0  0  0  0  0  0  0  0  0  0
    5.4947    1.0439    0.0000 C   0  0  0  0  0  0  0  0  0  0  0  0
    6.2092    1.4564    0.0000 O   0  0  0  0  0  0  0  0  0  0  0  0
    5.4947    0.2189    0.0000 O   0  0  0  0  0  0  0  0  0  0  0  0
  1  2  2  0
  1  3  1  0
  2  6  1  0
  3  4  2  0
  4  5  1  0
  5  6  2  0
  7  5  1  6
  7  8  1  0
  7 12  1  0
  8  9  1  0
  9 10  1  0
  9 19  1  6
 10 11  1  0
 10 13  1  1
 11 12  1  0
 13 14  2  0
 13 18  1  0
 14 15  1  0
 15 16  2  0
 16 17  1  0
 16 20  1  0
 17 18  2  0
 20 21  2  0
 20 22  1  0
 22 23  1  0
 23 24  1  0
 24 25  1  0
 25 26  1  0
 26 27  2  0
 26 28  1  0
M  END
>  <DRUGBANK_ID>  (1) 
DB07909

>  <COMMON_NAME>  (1) 
(1S,2S,5S)2-(4-GLUTARIDYLBENZYL)-5-PHENYL-1-CYCLOHEXANOL

$$$$
