
     RDKit          2D

 43 46  0  0  0  0  0  0  0  0999 V2000
   -2.8579   -1.8562    0.0000 S   0  0  0  0  0  0  0  0  0  0  0  0
   -3.2704   -1.1418    0.0000 O   0  0  0  0  0  0  0  0  0  0  0  0
   -2.4453   -2.5707    0.0000 O   0  0  0  0  0  0  0  0  0  0  0  0
    0.0000    0.6187    0.0000 O   0  0  0  0  0  0  0  0  0  0  0  0
    1.4289    2.2687    0.0000 O   0  0  0  0  0  0  0  0  0  0  0  0
    0.7145    1.0312    0.0000 O   0  0  0  0  0  0  0  0  0  0  0  0
   -1.4289    0.6187    0.0000 N   0  0  0  0  0  0  0  0  0  0  0  0
    0.0000    2.2687    0.0000 N   0  0  0  0  0  0  0  0  0  0  0  0
   -1.4289   -0.2062    0.0000 C   0  0  0  0  0  0  0  0  0  0  0  0
   -2.1434   -0.6187    0.0000 C   0  0  0  0  0  0  0  0  0  0  0  0
   -0.7145   -0.6187    0.0000 C   0  0  0  0  0  0  0  0  0  0  0  0
   -2.1434   -1.4437    0.0000 C   0  0  0  0  0  0  0  0  0  0  0  0
    0.0000   -0.2062    0.0000 C   0  0  0  0  0  0  0  0  0  0  0  0
   -3.5724   -2.2687    0.0000 C   0  0  0  0  0  0  0  0  0  0  0  0
   -0.7145    1.0312    0.0000 C   0  0  0  0  0  0  0  0  0  0  0  0
   -0.7145    1.8562    0.0000 C   0  0  0  0  0  0  0  0  0  0  0  0
    0.7145   -0.6187    0.0000 C   0  0  0  0  0  0  0  0  0  0  0  0
   -1.4289    2.2687    0.0000 C   0  0  0  0  0  0  0  0  0  0  0  0
   -3.5724   -3.0938    0.0000 C   0  0  0  0  0  0  0  0  0  0  0  0
    1.4289   -0.2062    0.0000 C   0  0  0  0  0  0  0  0  0  0  0  0
    0.7145   -1.4437    0.0000 C   0  0  0  0  0  0  0  0  0  0  0  0
   -1.4289    3.0938    0.0000 C   0  0  0  0  0  0  0  0  0  0  0  0
   -2.8579   -3.5063    0.0000 C   0  0  0  0  0  0  0  0  0  0  0  0
   -4.2869   -3.5063    0.0000 C   0  0  0  0  0  0  0  0  0  0  0  0
    2.1434   -0.6187    0.0000 C   0  0  0  0  0  0  0  0  0  0  0  0
    1.4289   -1.8562    0.0000 C   0  0  0  0  0  0  0  0  0  0  0  0
   -2.1434    3.5063    0.0000 C   0  0  0  0  0  0  0  0  0  0  0  0
   -0.7145    3.5063    0.0000 C   0  0  0  0  0  0  0  0  0  0  0  0
    0.7145    1.8562    0.0000 C   0  0  0  0  0  0  0  0  0  0  0  0
    2.1434   -1.4437    0.0000 C   0  0  0  0  0  0  0  0  0  0  0  0
   -2.8579   -4.3313    0.0000 C   0  0  0  0  0  0  0  0  0  0  0  0
   -4.2869   -4.3313    0.0000 C   0  0  0  0  0  0  0  0  0  0  0  0
   -3.5724   -4.7438    0.0000 C   0  0  0  0  0  0  0  0  0  0  0  0
   -2.1434    4.3313    0.0000 C   0  0  0  0  0  0  0  0  0  0  0  0
   -0.7145    4.3313    0.0000 C   0  0  0  0  0  0  0  0  0  0  0  0
   -1.4289    4.7438    0.0000 C   0  0  0  0  0  0  0  0  0  0  0  0
    2.1434    1.8562    0.0000 C   0  0  0  0  0  0  0  0  0  0  0  0
    2.8579    2.2687    0.0000 C   0  0  0  0  0  0  0  0  0  0  0  0
    3.5724    1.8562    0.0000 C   0  0  0  0  0  0  0  0  0  0  0  0
    2.8579    3.0938    0.0000 C   0  0  0  0  0  0  0  0  0  0  0  0
    4.2869    2.2687    0.0000 C   0  0  0  0  0  0  0  0  0  0  0  0
    3.5724    3.5063    0.0000 C   0  0  0  0  0  0  0  0  0  0  0  0
    4.2869    3.0938    0.0000 C   0  0  0  0  0  0  0  0  0  0  0  0
  1  2  2  0
  1  3  2  0
  1 12  1  0
  1 14  1  0
  4 15  2  0
  5 29  1  0
  5 37  1  0
  6 29  2  0
  7 15  1  0
  8 29  1  0
  9  7  1  0
  9 10  1  1
  9 11  1  0
 10 12  1  0
 11 13  1  0
 13 17  1  0
 14 19  1  0
 15 16  1  0
 16  8  1  0
 16 18  1  6
 17 20  2  0
 17 21  1  0
 18 22  1  0
 19 23  2  0
 19 24  1  0
 20 25  1  0
 21 26  2  0
 22 27  2  0
 22 28  1  0
 23 31  1  0
 24 32  2  0
 25 30  2  0
 26 30  1  0
 27 34  1  0
 28 35  2  0
 31 33  2  0
 32 33  1  0
 34 36  2  0
 35 36  1  0
 37 38  1  0
 38 39  2  0
 38 40  1  0
 39 41  1  0
 40 42  2  0
 41 43  2  0
 42 43  1  0
M  END
>  <DRUGBANK_ID>  (1) 
DB02200

>  <SECONDARY_ACCESSION_NUMBERS>  (1) 
EXPT03232

>  <COMMON_NAME>  (1) 
3-[N-[benzyloxycarbonyl]-phenylalaninyl-amino]-5-phenyl-pentane-1-sulfonylmethylbenzene

$$$$
