
     RDKit          2D

 24 26  0  0  1  0  0  0  0  0999 V2000
    4.2917   -3.6917    0.0000 N   0  0  0  0  0  0  0  0  0  0  0  0
    3.4667   -3.6917    0.0000 C   0  0  0  0  0  0  0  0  0  0  0  0
    3.4667   -2.8667    0.0000 C   0  0  0  0  0  0  0  0  0  0  0  0
    5.0042   -4.1042    0.0000 C   0  0  0  0  0  0  0  0  0  0  0  0
    4.2917   -2.8667    0.0000 C   0  0  0  0  0  0  0  0  0  0  0  0
    2.8917   -2.2917    0.0000 N   0  0  0  0  0  0  0  0  0  0  0  0
    3.1042   -1.5042    0.0000 C   0  0  0  0  0  0  0  0  0  0  0  0
    5.0042   -4.9292    0.0000 C   0  0  0  0  0  0  0  0  0  0  0  0
    5.7250   -3.6917    0.0000 C   0  0  0  0  0  0  0  0  0  0  0  0
    2.5167   -0.9167    0.0000 C   0  0  0  0  0  0  0  0  0  0  0  0
    5.0042   -2.4542    0.0000 C   0  0  0  0  0  0  0  0  0  0  0  0
    2.8917   -4.2750    0.0000 O   0  0  0  0  0  0  0  0  0  0  0  0
    2.7292   -0.1292    0.0000 N   0  0  0  0  0  0  0  0  0  0  0  0
    3.9042   -1.2917    0.0000 O   0  0  0  0  0  0  0  0  0  0  0  0
    5.7250   -2.8667    0.0000 C   0  0  0  0  0  0  0  0  0  0  0  0
    5.7250   -5.3417    0.0000 O   0  0  0  0  0  0  0  0  0  0  0  0
    4.2917   -5.3417    0.0000 O   0  0  0  0  0  0  0  0  0  0  0  0
    1.7167   -1.1292    0.0000 C   0  0  0  0  0  0  0  0  0  0  0  0
    6.4417   -4.1042    0.0000 Cl  0  0  0  0  0  0  0  0  0  0  0  0
    1.5042   -1.9125    0.0000 C   0  0  0  0  0  0  0  0  0  0  0  0
    1.1375   -0.5417    0.0000 C   0  0  0  0  0  0  0  0  0  0  0  0
    0.3500   -0.7500    0.0000 C   0  0  0  0  0  0  0  0  0  0  0  0
    0.7042   -2.1250    0.0000 C   0  0  0  0  0  0  0  0  0  0  0  0
    0.1292   -1.5417    0.0000 C   0  0  0  0  0  0  0  0  0  0  0  0
  2  1  1  0
  3  5  1  0
  3  6  1  1
  3  2  1  0
  4  1  1  0
  5  1  1  0
  5 11  1  1
  7  6  1  0
  8  4  1  0
  9  4  2  0
 10  7  1  0
 10 13  1  1
 12  2  2  0
 14  7  2  0
 15 11  1  0
 15  9  1  0
 16  8  1  0
 17  8  2  0
 18 10  1  0
 19  9  1  0
 20 18  2  0
 21 18  1  0
 22 21  2  0
 23 20  1  0
 23 24  2  0
 24 22  1  0
M  END
>  <DRUGBANK_ID>  (1) 
DB00447

>  <SECONDARY_ACCESSION_NUMBERS>  (1) 
APRD01077

>  <COMMON_NAME>  (1) 
Loracarbef

>  <CAS_NUMBER>  (1) 
76470-66-1

>  <UNII>  (1) 
W72I5ZT78Z

>  <SYNONYMS>  (1) 
Anhydrous loracarbef; Loracarbef; Loracarbef anhydrous; Loracarbef, anhydrous; Loracarbefum

$$$$
