MO8
     RDKit          2D

 12 13  0  0  0  0  0  0  0  0999 V2000
   -1.9209   -0.9097    0.0000 N   0  0  0  0  0  0  0  0  0  0  0  0
   -1.2064   -0.4972    0.0000 C   0  0  0  0  0  0  0  0  0  0  0  0
   -1.2064    0.3278    0.0000 N   0  0  0  0  0  0  0  0  0  0  0  0
   -0.4919    0.7403    0.0000 C   0  0  0  0  0  0  0  0  0  0  0  0
   -0.4919    1.5653    0.0000 C   0  0  0  0  0  0  0  0  0  0  0  0
    0.2225    0.3278    0.0000 C   0  0  0  0  0  0  0  0  0  0  0  0
   -0.4919   -0.9097    0.0000 N   0  0  0  0  0  0  0  0  0  0  0  0
    0.2225   -0.4972    0.0000 C   0  0  0  0  0  0  0  0  0  0  0  0
    0.9370   -0.9097    0.0000 C   0  0  0  0  0  0  0  0  0  0  0  0
    1.6515   -0.4972    0.0000 C   0  0  0  0  0  0  0  0  0  0  0  0
    1.6515    0.3278    0.0000 S   0  0  0  0  0  0  0  0  0  0  0  0
    0.9370    0.7403    0.0000 C   0  0  0  0  0  0  0  0  0  0  0  0
  1  2  1  0
  2  3  2  0
  3  4  1  0
  4  5  1  0
  6  4  2  0
  6 12  1  0
  7  2  1  0
  7  8  2  0
  8  6  1  0
  9  8  1  0
 10  9  1  0
 10 11  1  0
 11 12  1  0
M  END
>  <DRUGBANK_ID>  (1) 
DB08194

>  <COMMON_NAME>  (1) 
4-methyl-7,8-dihydro-5H-thiopyrano[4,3-d]pyrimidin-2-amine

>  <UNII>  (1) 
AN8UFC8Y2Y

$$$$
