DBA
     RDKit          2D

 13 13  0  0  0  0  0  0  0  0999 V2000
    1.3991    1.4671    0.0000 C   0  0  0  0  0  0  0  0  0  0  0  0
    0.6846    1.0546    0.0000 C   0  0  0  0  0  0  0  0  0  0  0  0
   -0.0299   -0.1829    0.0000 C   0  0  0  0  0  0  0  0  0  0  0  0
   -0.0299   -1.0079    0.0000 C   0  0  0  0  0  0  0  0  0  0  0  0
   -0.7443   -1.4204    0.0000 C   0  0  0  0  0  0  0  0  0  0  0  0
   -1.4588   -1.0079    0.0000 C   0  0  0  0  0  0  0  0  0  0  0  0
   -1.4588   -0.1829    0.0000 C   0  0  0  0  0  0  0  0  0  0  0  0
   -0.7443    0.2296    0.0000 C   0  0  0  0  0  0  0  0  0  0  0  0
    0.6846   -1.4204    0.0000 C   0  0  0  0  0  0  0  0  0  0  0  0
   -0.7443    1.0546    0.0000 C   0  0  0  0  0  0  0  0  0  0  0  0
    1.3991    2.2921    0.0000 O   0  0  0  0  0  0  0  0  0  0  0  0
    2.1135    1.0546    0.0000 O   0  0  0  0  0  0  0  0  0  0  0  0
    0.6846    0.2296    0.0000 O   0  0  0  0  0  0  0  0  0  0  0  0
  1  2  1  0
  1 11  2  0
  1 12  1  0
  2 13  1  0
  3  4  2  0
  3  8  1  0
  3 13  1  0
  4  5  1  0
  4  9  1  0
  5  6  2  0
  6  7  1  0
  7  8  2  0
  8 10  1  0
M  END
>  <DRUGBANK_ID>  (1) 
DB07634

>  <COMMON_NAME>  (1) 
(2,6-Dimethylphenoxy)acetic acid

>  <CAS_NUMBER>  (1) 
13335-71-2

>  <UNII>  (1) 
8RVEL9W5CF

>  <SYNONYMS>  (1) 
(2,6-Xylyloxy) acetic acid

$$$$
