
     RDKit          2D

 33 34  0  0  0  0  0  0  0  0999 V2000
    0.0001    1.3616    0.0000 C   0  0  0  0  0  0  0  0  0  0  0  0
   -0.7076    0.9493    0.0000 C   0  0  0  0  0  0  0  0  0  0  0  0
    0.7146    0.9528    0.0000 C   0  0  0  0  0  0  0  0  0  0  0  0
   -1.4222    1.3617    0.0000 C   0  0  0  0  0  0  0  0  0  0  0  0
   -0.7076    0.1248    0.0000 C   0  0  0  0  0  0  0  0  0  0  0  0
    1.4293    1.3651    0.0000 C   0  0  0  0  0  0  0  0  0  0  0  0
   -2.1368    0.9493    0.0000 C   0  0  0  0  0  0  0  0  0  0  0  0
   -1.4222   -0.2908    0.0000 C   0  0  0  0  0  0  0  0  0  0  0  0
    2.1407    0.9597    0.0000 C   0  0  0  0  0  0  0  0  0  0  0  0
   -2.1368    0.1249    0.0000 C   0  0  0  0  0  0  0  0  0  0  0  0
   -2.8548    1.3617    0.0000 O   0  0  0  0  0  0  0  0  0  0  0  0
    2.8552    1.3686    0.0000 N   0  0  0  0  0  0  0  0  0  0  0  0
   -2.8548   -0.2908    0.0000 O   0  0  0  0  0  0  0  0  0  0  0  0
   -3.5695    0.9493    0.0000 C   0  0  0  0  0  0  0  0  0  0  0  0
    3.5695    0.9635    0.0000 C   0  0  0  0  0  0  0  0  0  0  0  0
    2.8552    2.2241    0.0000 C   0  0  0  0  0  0  0  0  0  0  0  0
   -3.5695    0.1215    0.0000 C   0  0  0  0  0  0  0  0  0  0  0  0
    3.5627    0.1403    0.0000 C   0  0  0  0  0  0  0  0  0  0  0  0
    2.8556   -0.2665    0.0000 C   0  0  0  0  0  0  0  0  0  0  0  0
    2.8515   -1.0916    0.0000 C   0  0  0  0  0  0  0  0  0  0  0  0
    2.1448    0.1442    0.0000 C   0  0  0  0  0  0  0  0  0  0  0  0
    2.1397   -1.4997    0.0000 C   0  0  0  0  0  0  0  0  0  0  0  0
    1.4284   -0.2650    0.0000 C   0  0  0  0  0  0  0  0  0  0  0  0
    1.4289   -1.0888    0.0000 C   0  0  0  0  0  0  0  0  0  0  0  0
    2.1387   -2.3265    0.0000 O   0  0  0  0  0  0  0  0  0  0  0  0
    0.7108   -1.5011    0.0000 O   0  0  0  0  0  0  0  0  0  0  0  0
    1.4235   -2.7405    0.0000 C   0  0  0  0  0  0  0  0  0  0  0  0
   -0.0086   -1.0842    0.0000 C   0  0  0  0  0  0  0  0  0  0  0  0
    0.5812    1.9475    0.0000 C   0  0  0  0  0  0  0  0  0  0  0  0
   -0.5855    1.9428    0.0000 C   0  0  0  0  0  0  0  0  0  0  0  0
   -1.3816    1.7262    0.0000 C   0  0  0  0  0  0  0  0  0  0  0  0
   -0.3751    2.7405    0.0000 C   0  0  0  0  0  0  0  0  0  0  0  0
    1.1642    2.5385    0.0000 N   0  0  0  0  0  0  0  0  0  0  0  0
  1  2  1  0
  1  3  1  6
  1 29  1  0
  2  4  2  0
  2  5  1  0
  3  6  1  0
  4  7  1  0
  5  8  2  0
  6  9  1  0
  7 10  2  0
  7 11  1  0
  8 10  1  0
  9 12  1  0
 10 13  1  0
 11 14  1  0
 12 15  1  0
 12 16  1  0
 13 17  1  0
 15 18  1  0
 18 19  1  0
 19 20  2  0
 19 21  1  0
 20 22  1  0
 21 23  2  0
 22 24  2  0
 22 25  1  0
 23 24  1  0
 24 26  1  0
 25 27  1  0
 26 28  1  0
 29 33  3  0
 30  1  1  0
 30 31  1  0
 30 32  1  0
M  END
>  <DRUGBANK_ID>  (1) 
DB14063

>  <COMMON_NAME>  (1) 
Dexverapamil

>  <CAS_NUMBER>  (1) 
38321-02-7

>  <UNII>  (1) 
QR5PYD126V

>  <SYNONYMS>  (1) 
(+)-(R)-verapamil; (+)-verapamil; (R)-(+)-verapamil; (R)-verapamil; DexvÃ©rapamil; Dexverapamil; Dexverapamilo; Dexverapamilum

$$$$
