
     RDKit          2D

 32 34  0  0  0  0  0  0  0  0999 V2000
   -2.1012   -0.9271    0.0000 N   0  0  0  0  0  0  0  0  0  0  0  0
   -2.2324   -0.2802    0.0000 C   0  0  0  0  0  0  0  0  0  0  0  0
   -2.8582   -0.0705    0.0000 O   0  0  0  0  0  0  0  0  0  0  0  0
   -1.6147    0.2651    0.0000 C   0  0  0  0  0  0  0  0  0  0  0  0
   -0.8076    0.0935    0.0000 C   0  0  0  0  0  0  0  0  0  0  0  0
   -0.4709   -0.6585    0.0000 N   0  0  0  0  0  0  0  0  0  0  0  0
    0.3500   -0.7436    0.0000 C   0  0  0  0  0  0  0  0  0  0  0  0
    0.7370   -0.2090    0.0000 O   0  0  0  0  0  0  0  0  0  0  0  0
    0.6874   -1.4970    0.0000 N   0  0  0  0  0  0  0  0  0  0  0  0
    1.5084   -1.5820    0.0000 C   0  0  0  0  0  0  0  0  0  0  0  0
    1.8457   -2.3354    0.0000 C   0  0  0  0  0  0  0  0  0  0  0  0
    2.6667   -2.4206    0.0000 C   0  0  0  0  0  0  0  0  0  0  0  0
    3.0040   -3.1740    0.0000 C   0  0  0  0  0  0  0  0  0  0  0  0
    3.8252   -3.2591    0.0000 N   0  0  0  0  0  0  0  0  0  0  0  0
    4.2282   -3.9709    0.0000 C   0  0  0  0  0  0  0  0  0  0  0  0
    5.0345   -3.7966    0.0000 C   0  0  0  0  0  0  0  0  0  0  0  0
    5.1179   -2.9758    0.0000 C   0  0  0  0  0  0  0  0  0  0  0  0
    4.3631   -2.6428    0.0000 C   0  0  0  0  0  0  0  0  0  0  0  0
   -0.3952    0.8079    0.0000 S   0  0  0  0  0  0  0  0  0  0  0  0
   -0.9472    1.4211    0.0000 N   0  0  0  0  0  0  0  0  0  0  0  0
   -1.6905    1.0795    0.0000 C   0  0  0  0  0  0  0  0  0  0  0  0
   -2.4046    1.4937    0.0000 O   0  0  0  0  0  0  0  0  0  0  0  0
   -2.4034    2.3192    0.0000 C   0  0  0  0  0  0  0  0  0  0  0  0
   -3.1174    2.7334    0.0000 C   0  0  0  0  0  0  0  0  0  0  0  0
   -3.1174    3.5584    0.0000 C   0  0  0  0  0  0  0  0  0  0  0  0
   -2.5458    3.8884    0.0000 F   0  0  0  0  0  0  0  0  0  0  0  0
   -3.8319    3.9709    0.0000 C   0  0  0  0  0  0  0  0  0  0  0  0
   -4.5463    3.5584    0.0000 C   0  0  0  0  0  0  0  0  0  0  0  0
   -5.1179    3.8884    0.0000 Br  0  0  0  0  0  0  0  0  0  0  0  0
   -4.5463    2.7334    0.0000 C   0  0  0  0  0  0  0  0  0  0  0  0
   -3.8319    2.3209    0.0000 C   0  0  0  0  0  0  0  0  0  0  0  0
   -3.8319    1.6609    0.0000 F   0  0  0  0  0  0  0  0  0  0  0  0
  1  2  1  0
  2  3  2  0
  2  4  1  0
  4  5  2  0
  5  6  1  0
  5 19  1  0
  6  7  1  0
  7  8  2  0
  7  9  1  0
  9 10  1  0
 10 11  1  0
 11 12  1  0
 12 13  1  0
 13 14  1  0
 14 15  1  0
 15 16  1  0
 16 17  1  0
 17 18  1  0
 18 14  1  0
 19 20  1  0
 20 21  2  0
 21  4  1  0
 21 22  1  0
 22 23  1  0
 23 24  1  0
 24 25  2  0
 25 26  1  0
 25 27  1  0
 27 28  2  0
 28 29  1  0
 28 30  1  0
 30 31  2  0
 31 24  1  0
 31 32  1  0
M  END
>  <DRUGBANK_ID>  (1) 
DB12962

>  <COMMON_NAME>  (1) 
CP-547632

>  <CAS_NUMBER>  (1) 
252003-65-9

>  <UNII>  (1) 
W1B375O5M2

$$$$
