
     RDKit          2D

 26 27  0  0  0  0  0  0  0  0999 V2000
    0.6591   -1.6500    0.0000 C   0  0  0  0  0  0  0  0  0  0  0  0
    1.3737   -2.0625    0.0000 C   0  0  0  0  0  0  0  0  0  0  0  0
    1.3737   -2.8874    0.0000 C   0  0  0  0  0  0  0  0  0  0  0  0
    0.6591   -3.3000    0.0000 C   0  0  0  0  0  0  0  0  0  0  0  0
   -0.0552   -2.8874    0.0000 C   0  0  0  0  0  0  0  0  0  0  0  0
   -0.0552   -2.0625    0.0000 C   0  0  0  0  0  0  0  0  0  0  0  0
    0.6591   -4.1250    0.0000 O   0  0  0  0  0  0  0  0  0  0  0  0
    1.3737   -4.5375    0.0000 C   0  0  0  0  0  0  0  0  0  0  0  0
    0.6591   -0.8250    0.0000 C   0  0  0  0  0  0  0  0  0  0  0  0
   -0.0552   -0.4125    0.0000 C   0  0  0  0  0  0  0  0  0  0  0  0
   -0.0552    0.4125    0.0000 C   0  0  0  0  0  0  0  0  0  0  0  0
    0.6591    0.8250    0.0000 C   0  0  0  0  0  0  0  0  0  0  0  0
    1.3737    0.4125    0.0000 C   0  0  0  0  0  0  0  0  0  0  0  0
    1.3737   -0.4125    0.0000 C   0  0  0  0  0  0  0  0  0  0  0  0
    0.6591    1.6500    0.0000 S   0  0  0  0  0  0  0  0  0  0  0  0
    1.4842    1.6500    0.0000 O   0  0  0  0  0  0  0  0  0  0  0  0
   -0.1658    1.6500    0.0000 O   0  0  0  0  0  0  0  0  0  0  0  0
    0.6591    2.4749    0.0000 N   0  0  0  0  0  0  0  0  0  0  0  0
   -0.0552    2.8874    0.0000 C   0  0  0  0  0  0  0  0  0  0  0  0
   -0.7697    2.4749    0.0000 C   0  0  0  0  0  0  0  0  0  0  0  0
   -0.7697    1.6500    0.0000 C   0  0  0  0  0  0  0  0  0  0  0  0
   -1.4842    2.8874    0.0000 C   0  0  0  0  0  0  0  0  0  0  0  0
   -0.0552    3.7125    0.0000 P   0  0  0  0  0  0  0  0  0  0  0  0
   -0.8802    3.7125    0.0000 O   0  0  0  0  0  0  0  0  0  0  0  0
   -0.0552    4.5375    0.0000 O   0  0  0  0  0  0  0  0  0  0  0  0
    0.7697    3.7125    0.0000 O   0  0  0  0  0  0  0  0  0  0  0  0
  1  2  2  0
  1  6  1  0
  1  9  1  0
  2  3  1  0
  3  4  2  0
  4  7  1  0
  5  4  1  0
  5  6  2  0
  8  7  1  0
  9 10  2  0
  9 14  1  0
 10 11  1  0
 11 12  2  0
 12 13  1  0
 12 15  1  0
 13 14  2  0
 16 15  2  0
 17 15  2  0
 18 15  1  0
 19 18  1  6
 19 20  1  0
 19 23  1  0
 20 21  1  0
 20 22  1  0
 24 23  2  0
 25 23  1  0
 26 23  1  0
M  END
>  <DRUGBANK_ID>  (1) 
DB07713

>  <COMMON_NAME>  (1) 
(1S)-1-{[(4'-methoxy-1,1'-biphenyl-4-yl)sulfonyl]amino}-2-methylpropylphosphonic acid

$$$$
