RHP
     RDKit          2D

 14 15  0  0  0  0  0  0  0  0999 V2000
   -2.0428    2.5600    0.0000 C   0  0  0  0  0  0  0  0  0  0  0  0
   -1.7878    1.7754    0.0000 C   0  0  0  0  0  0  0  0  0  0  0  0
   -1.5329    0.9907    0.0000 C   0  0  0  0  0  0  0  0  0  0  0  0
   -0.7259    0.8192    0.0000 N   0  0  0  0  0  0  0  0  0  0  0  0
   -0.4710    0.0346    0.0000 C   0  0  0  0  0  0  0  0  0  0  0  0
   -0.9559   -0.6328    0.0000 C   0  0  0  0  0  0  0  0  0  0  0  0
   -0.4710   -1.3003    0.0000 C   0  0  0  0  0  0  0  0  0  0  0  0
    0.3136   -1.0453    0.0000 C   0  0  0  0  0  0  0  0  0  0  0  0
    0.3136   -0.2203    0.0000 C   0  0  0  0  0  0  0  0  0  0  0  0
    1.0281    0.1922    0.0000 C   0  0  0  0  0  0  0  0  0  0  0  0
    1.0281   -1.4578    0.0000 C   0  0  0  0  0  0  0  0  0  0  0  0
    1.7426   -1.0453    0.0000 C   0  0  0  0  0  0  0  0  0  0  0  0
    1.7426   -0.2203    0.0000 C   0  0  0  0  0  0  0  0  0  0  0  0
    2.4570    0.1922    0.0000 O   0  0  0  0  0  0  0  0  0  0  0  0
  1  2  3  0
  2  3  1  0
  3  4  1  0
  5  4  1  1
  5  6  1  0
  5  9  1  0
  6  7  1  0
  7  8  1  0
  8  9  2  0
  8 11  1  0
  9 10  1  0
 10 13  2  0
 11 12  2  0
 12 13  1  0
 13 14  1  0
M  END
>  <DRUGBANK_ID>  (1) 
DB04307

>  <SECONDARY_ACCESSION_NUMBERS>  (1) 
EXPT02781

>  <COMMON_NAME>  (1) 
5-Hydroxy-N-Propargyl-1(R)-Aminoindan

$$$$
