MFR
     RDKit          2D

 18 20  0  0  0  0  0  0  0  0999 V2000
    1.7858   -0.9859    0.0000 C   0  0  0  0  0  0  0  0  0  0  0  0
    1.7858   -1.8109    0.0000 C   0  0  0  0  0  0  0  0  0  0  0  0
    1.0714   -0.5734    0.0000 C   0  0  0  0  0  0  0  0  0  0  0  0
   -0.6827    0.0536    0.0000 C   0  0  0  0  0  0  0  0  0  0  0  0
    0.1664    2.0644    0.0000 N   0  0  0  0  0  0  0  0  0  0  0  0
   -0.3856    1.4513    0.0000 C   0  0  0  0  0  0  0  0  0  0  0  0
   -1.1926    1.6229    0.0000 N   0  0  0  0  0  0  0  0  0  0  0  0
   -1.7446    1.0098    0.0000 C   0  0  0  0  0  0  0  0  0  0  0  0
   -1.4896    0.2252    0.0000 C   0  0  0  0  0  0  0  0  0  0  0  0
   -0.1306    0.6667    0.0000 N   0  0  0  0  0  0  0  0  0  0  0  0
   -0.4277   -0.7310    0.0000 C   0  0  0  0  0  0  0  0  0  0  0  0
   -0.9127   -1.3984    0.0000 C   0  0  0  0  0  0  0  0  0  0  0  0
   -0.4277   -2.0659    0.0000 N   0  0  0  0  0  0  0  0  0  0  0  0
    0.3569   -0.9859    0.0000 C   0  0  0  0  0  0  0  0  0  0  0  0
    1.0714    0.2516    0.0000 O   0  0  0  0  0  0  0  0  0  0  0  0
    0.3569    0.6641    0.0000 C   0  0  0  0  0  0  0  0  0  0  0  0
    0.3569   -1.8109    0.0000 C   0  0  0  0  0  0  0  0  0  0  0  0
    1.0714   -2.2234    0.0000 N   0  0  0  0  0  0  0  0  0  0  0  0
  1  2  2  0
  1  3  1  0
  2 18  1  0
  3 14  2  0
  3 15  1  0
  4  9  1  0
  4 10  2  0
  4 11  1  0
  5  6  1  0
  6  7  2  0
  6 10  1  0
  7  8  1  0
  8  9  2  0
 11 12  2  0
 11 14  1  0
 12 13  1  0
 13 17  1  0
 14 17  1  0
 15 16  1  0
 17 18  2  0
M  END
>  <DRUGBANK_ID>  (1) 
DB08178

>  <COMMON_NAME>  (1) 
4-(4-methoxy-1H-pyrrolo[2,3-b]pyridin-3-yl)pyrimidin-2-amine

>  <UNII>  (1) 
MP2RY8OR8X

$$$$
