
     RDKit          2D

  5  4  0  0  0  0  0  0  0  0999 V2000
    0.0000    0.0000    0.0000 S   0  0  0  0  0  0  0  0  0  0  0  0
    0.0000   -0.8250    0.0000 O   0  0  0  0  0  0  0  0  0  0  0  0
    0.0000    0.8250    0.0000 O   0  0  0  0  0  0  0  0  0  0  0  0
    0.8251    0.0000    0.0000 O   0  0  0  0  0  0  0  0  0  0  0  0
   -0.8251    0.0000    0.0000 O   0  0  0  0  0  0  0  0  0  0  0  0
  1  5  1  0
  2  1  2  0
  3  1  2  0
  4  1  1  0
M  CHG  2   4  -1   5  -1
M  END
>  <DRUGBANK_ID>  (1) 
DB14546

>  <COMMON_NAME>  (1) 
Sulfate ion

>  <CAS_NUMBER>  (1) 
14808-79-8

>  <UNII>  (1) 
7IS9N8KPMG

>  <SYNONYMS>  (1) 
Sulfate; Sulfate dianion; Sulfate(2-); Sulfuric acid ion(2-)

$$$$
