
     RDKit          2D

 19 16  0  0  1  0  0  0  0  0999 V2000
   -1.4289    0.2475    0.0000 C   0  0  0  0  0  0  0  0  0  0  0  0
   -0.7145   -0.1650    0.0000 C   0  0  0  0  0  0  0  0  0  0  0  0
   -0.0000    0.2475    0.0000 C   0  0  0  0  0  0  0  0  0  0  0  0
    0.7145   -0.1650    0.0000 C   0  0  0  0  0  0  0  0  0  0  0  0
    0.7145   -0.9900    0.0000 O   0  0  0  0  0  0  0  0  0  0  0  0
    1.4289    0.2475    0.0000 O   0  0  0  0  0  0  0  0  0  0  0  0
   -0.0000    1.0725    0.0000 O   0  0  0  0  0  0  0  0  0  0  0  0
   -0.7145   -0.9900    0.0000 O   0  0  0  0  0  0  0  0  0  0  0  0
   -2.1434   -0.1650    0.0000 O   0  0  0  0  0  0  0  0  0  0  0  0
    4.7436    0.3208    0.0000 C   0  0  0  0  0  0  0  0  0  0  0  0
    5.4581   -0.0917    0.0000 C   0  0  0  0  0  0  0  0  0  0  0  0
    6.1725    0.3208    0.0000 C   0  0  0  0  0  0  0  0  0  0  0  0
    6.8870   -0.0917    0.0000 C   0  0  0  0  0  0  0  0  0  0  0  0
    7.6015    0.3208    0.0000 O   0  0  0  0  0  0  0  0  0  0  0  0
    6.8870   -0.9167    0.0000 O   0  0  0  0  0  0  0  0  0  0  0  0
    6.1725    1.1458    0.0000 O   0  0  0  0  0  0  0  0  0  0  0  0
    5.4581   -0.9167    0.0000 O   0  0  0  0  0  0  0  0  0  0  0  0
    4.0291   -0.0917    0.0000 O   0  0  0  0  0  0  0  0  0  0  0  0
    2.1434    0.6600    0.0000 Ca  0  0  0  0  0 15  0  0  0  0  0  0
  1  2  1  0
  1  9  1  0
  2  3  1  0
  2  8  1  1
  3  4  1  0
  3  7  1  1
  4  5  2  0
  4  6  1  0
 10 11  1  0
 10 18  1  0
 11 12  1  0
 11 17  1  1
 12 13  1  0
 12 16  1  1
 13 14  2  0
 13 15  1  0
M  CHG  3   6  -1  15  -1  19   2
M  END
>  <DRUGBANK_ID>  (1) 
DB11168

>  <COMMON_NAME>  (1) 
Calcium threonate

>  <CAS_NUMBER>  (1) 
70753-61-6

>  <UNII>  (1) 
HBB4YPO93U

>  <SYNONYMS>  (1) 
Calcium L-threonate; Threonine, calcium salt

$$$$
