
     RDKit          2D

 15 16  0  0  0  0  0  0  0  0999 V2000
    0.9332   -1.1664    0.0000 O   0  0  0  0  0  0  0  0  0  0  0  0
   -0.6316   -2.6184    0.0000 O   0  0  0  0  0  0  0  0  0  0  0  0
   -1.1631    0.1434    0.0000 O   0  0  0  0  0  0  0  0  0  0  0  0
    0.2658    2.6184    0.0000 O   0  0  0  0  0  0  0  0  0  0  0  0
    0.2658    0.1434    0.0000 N   0  0  0  0  0  0  0  0  0  0  0  0
   -0.4487    1.3809    0.0000 N   0  0  0  0  0  0  0  0  0  0  0  0
   -0.1466   -1.9510    0.0000 C   0  0  0  0  0  0  0  0  0  0  0  0
    0.2658   -0.6815    0.0000 C   0  0  0  0  0  0  0  0  0  0  0  0
   -0.4016   -1.1664    0.0000 C   0  0  0  0  0  0  0  0  0  0  0  0
    0.6783   -1.9510    0.0000 C   0  0  0  0  0  0  0  0  0  0  0  0
    1.1631   -2.6184    0.0000 C   0  0  0  0  0  0  0  0  0  0  0  0
   -0.4487    0.5559    0.0000 C   0  0  0  0  0  0  0  0  0  0  0  0
    0.9802    0.5559    0.0000 C   0  0  0  0  0  0  0  0  0  0  0  0
    0.9802    1.3809    0.0000 C   0  0  0  0  0  0  0  0  0  0  0  0
    0.2658    1.7934    0.0000 C   0  0  0  0  0  0  0  0  0  0  0  0
  1  8  1  0
  1 10  1  0
  3 12  2  0
  4 15  2  0
  5 12  1  0
  5 13  1  0
  6 12  1  0
  6 15  1  0
  7  2  1  1
  7  9  1  0
  7 10  1  0
  8  5  1  6
  8  9  1  0
 10 11  1  6
 13 14  2  0
 14 15  1  0
M  END
>  <DRUGBANK_ID>  (1) 
DB03274

>  <SECONDARY_ACCESSION_NUMBERS>  (1) 
EXPT01151

>  <COMMON_NAME>  (1) 
2',5'-Dideoxyuridine

>  <CAS_NUMBER>  (1) 
35959-50-3

$$$$
