
     RDKit          2D

 19 20  0  0  1  0  0  0  0  0999 V2000
    1.5326   -5.3934    0.0000 Cl  0  0  0  0  0  0  0  0  0  0  0  0
    5.8217   -3.7368    0.0000 C   0  0  0  0  0  0  0  0  0  0  0  0
    5.1061   -1.6848    0.0000 N   0  0  0  0  0  0  0  0  0  0  0  0
    4.4004   -3.7368    0.0000 C   0  0  0  0  0  0  0  0  0  0  0  0
    3.6747   -4.1572    0.0000 C   0  0  0  0  0  0  0  0  0  0  0  0
    5.1111   -4.1472    0.0000 C   0  0  0  0  0  0  0  0  0  0  0  0
    2.9590   -3.7468    0.0000 C   0  0  0  0  0  0  0  0  0  0  0  0
    3.6747   -4.9830    0.0000 C   0  0  0  0  0  0  0  0  0  0  0  0
    4.4004   -2.9210    0.0000 C   0  0  0  0  0  0  0  0  0  0  0  0
    5.1111   -4.9830    0.0000 N   0  0  0  0  0  0  0  0  0  0  0  0
    2.2483   -4.9830    0.0000 C   0  0  0  0  0  0  0  0  0  0  0  0
    2.2483   -4.1572    0.0000 C   0  0  0  0  0  0  0  0  0  0  0  0
    2.9590   -5.3934    0.0000 C   0  0  0  0  0  0  0  0  0  0  0  0
    5.1061   -2.5106    0.0000 C   0  0  0  0  0  0  0  0  0  0  0  0
    6.5375   -4.1472    0.0000 C   0  0  0  0  0  0  0  0  0  0  0  0
    5.8217   -5.3934    0.0000 C   0  0  0  0  0  0  0  0  0  0  0  0
    6.5375   -4.9830    0.0000 C   0  0  0  0  0  0  0  0  0  0  0  0
    4.3804   -1.2644    0.0000 C   0  0  0  0  0  0  0  0  0  0  0  0
    5.8067   -1.2794    0.0000 C   0  0  0  0  0  0  0  0  0  0  0  0
  1 11  1  0
  2  6  2  0
  2 15  1  0
  3 14  1  0
  3 18  1  0
  3 19  1  0
  4  5  1  0
  4  6  1  0
  4  9  1  6
  5  7  2  0
  5  8  1  0
  6 10  1  0
  7 12  1  0
  8 13  2  0
  9 14  1  0
 10 16  2  0
 11 12  2  0
 11 13  1  0
 15 17  2  0
 16 17  1  0
M  END
>  <DRUGBANK_ID>  (1) 
DB13679

>  <COMMON_NAME>  (1) 
Dexchlorpheniramine

>  <CAS_NUMBER>  (1) 
25523-97-1

>  <UNII>  (1) 
3Q9Q0B929N

>  <SYNONYMS>  (1) 
Dexchlorpheniramine; dexclorfeniramina

$$$$
