
     RDKit          2D

 33 33  0  0  0  0  0  0  0  0999 V2000
    2.5109    1.6501    0.0000 C   0  0  0  0  0  0  0  0  0  0  0  0
    2.5469    2.5110    0.0000 O   0  0  0  0  0  0  0  0  0  0  0  0
    1.7936    1.2555    0.0000 C   0  0  0  0  0  0  0  0  0  0  0  0
    3.2284    1.2555    0.0000 O   0  0  0  0  0  0  0  0  0  0  0  0
    1.0761    1.6501    0.0000 N   0  0  0  0  0  0  0  0  0  0  0  0
    0.3587    1.2555    0.0000 C   0  0  0  0  0  0  0  0  0  0  0  0
    0.3587    0.4303    0.0000 C   0  0  0  0  0  0  0  0  0  0  0  0
   -0.3587    1.6501    0.0000 O   0  0  0  0  0  0  0  0  0  0  0  0
    1.1120    0.0000    0.0000 N   0  0  0  0  0  0  0  0  0  0  0  0
   -1.0762    0.3946    0.0000 S   0  0  0  0  0  0  0  0  0  0  0  0
   -0.3227    0.0000    0.0000 C   0  0  0  0  0  0  0  0  0  0  0  0
   -2.5110    0.3587    0.0000 N   0  0  0  0  0  0  0  0  0  0  0  0
   -1.7936   -0.0358    0.0000 C   0  0  0  0  0  0  0  0  0  0  0  0
   -1.7936   -0.8608    0.0000 N   0  0  0  0  0  0  0  0  0  0  0  0
   -2.4751   -1.2913    0.0000 C   0  0  0  0  0  0  0  0  0  0  0  0
   -3.2284   -0.8968    0.0000 N   0  0  0  0  0  0  0  0  0  0  0  0
   -3.2284   -0.0718    0.0000 C   0  0  0  0  0  0  0  0  0  0  0  0
   -2.4751   -2.1163    0.0000 N   0  0  0  0  0  0  0  0  0  0  0  0
   -1.7219   -2.5110    0.0000 C   0  0  0  0  0  0  0  0  0  0  0  0
   -1.0403   -2.0806    0.0000 C   0  0  0  0  0  0  0  0  0  0  0  0
   -3.9459    0.3227    0.0000 N   0  0  0  0  0  0  0  0  0  0  0  0
   -4.6275   -0.0718    0.0000 C   0  0  0  0  0  0  0  0  0  0  0  0
   -4.6275   -0.8968    0.0000 C   0  0  0  0  0  0  0  0  0  0  0  0
   -5.3808    0.3227    0.0000 C   0  0  0  0  0  0  0  0  0  0  0  0
    1.7936    0.4303    0.0000 C   0  0  0  0  0  0  0  0  0  0  0  0
    4.6633    0.5021    0.0000 C   0  0  0  0  0  0  0  0  0  0  0  0
    2.0797    1.0297    0.0000 O   0  0  0  0  0  0  0  0  0  0  0  0
    2.5109    0.0357    0.0000 C   0  0  0  0  0  0  0  0  0  0  0  0
    5.3808    0.1076    0.0000 O   0  0  0  0  0  0  0  0  0  0  0  0
    3.2284    0.4662    0.0000 C   0  0  0  0  0  0  0  0  0  0  0  0
    3.9459    0.0717    0.0000 C   0  0  0  0  0  0  0  0  0  0  0  0
    4.6633    1.3272    0.0000 O   0  0  0  0  0  0  0  0  0  0  0  0
    3.9817   -0.7533    0.0000 N   0  0  0  0  0  0  0  0  0  0  0  0
  2  1  2  0
  3  1  1  0
  4  1  1  0
  5  3  1  0
  6  5  1  0
  7  6  1  0
  7  9  1  0
  8  6  2  0
  7 11  1  1
 11 10  1  0
 13 10  1  0
 13 12  2  0
 14 13  1  0
 15 14  2  0
 16 15  1  0
 17 12  1  0
 17 16  2  0
 18 15  1  0
 19 18  1  0
 20 19  1  0
 21 17  1  0
 22 21  1  0
 23 22  1  0
 24 22  1  0
 25  9  1  0
 27 25  2  0
 28 25  1  0
 29 26  2  0
 30 28  1  0
 31 26  1  0
 31 30  1  0
 31 33  1  1
 32 26  1  0
M  END
>  <DRUGBANK_ID>  (1) 
DB02146

>  <SECONDARY_ACCESSION_NUMBERS>  (1) 
EXPT00579

>  <COMMON_NAME>  (1) 
Glutathione S-atrazine

>  <CAS_NUMBER>  (1) 
24429-05-8

>  <SYNONYMS>  (1) 
Atrazine glutathione conjugate

$$$$
