
     RDKit          2D

 27 29  0  0  1  0  0  0  0  0999 V2000
    9.7100   -8.7885    0.0000 C   0  0  0  0  0  0  0  0  0  0  0  0
   10.4429   -9.0493    0.0000 N   0  0  0  0  0  0  0  0  0  0  0  0
    9.7100   -8.0119    0.0000 C   0  0  0  0  0  0  0  0  0  0  0  0
    9.0143   -9.1797    0.0000 N   0  0  0  0  0  0  0  0  0  0  0  0
   10.4553   -7.7387    0.0000 N   0  0  0  0  0  0  0  0  0  0  0  0
    8.3310   -8.0119    0.0000 N   0  0  0  0  0  0  0  0  0  0  0  0
    9.0143   -7.6207    0.0000 C   0  0  0  0  0  0  0  0  0  0  0  0
    8.3310   -8.7885    0.0000 C   0  0  0  0  0  0  0  0  0  0  0  0
   10.9274   -8.3909    0.0000 C   0  0  0  0  0  0  0  0  0  0  0  0
    9.0143   -6.8194    0.0000 O   0  0  0  0  0  0  0  0  0  0  0  0
    7.6416   -9.1673    0.0000 N   0  0  0  0  0  0  0  0  0  0  0  0
    9.0951  -10.5959    0.0000 C   0  0  0  0  0  0  0  0  0  0  0  0
    9.7721  -10.0991    0.0000 O   0  0  0  0  0  0  0  0  0  0  0  0
    9.3559  -11.3786    0.0000 C   0  0  0  0  0  0  0  0  0  0  0  0
   10.4429  -10.5959    0.0000 C   0  0  0  0  0  0  0  0  0  0  0  0
   10.1821  -11.3786    0.0000 C   0  0  0  0  0  0  0  0  0  0  0  0
    8.8713  -12.0619    0.0000 O   0  0  0  0  0  0  0  0  0  0  0  0
    8.3061  -10.3351    0.0000 C   0  0  0  0  0  0  0  0  0  0  0  0
    7.5976  -10.7640    0.0000 O   0  0  0  0  0  0  0  0  0  0  0  0
    4.7885  -11.4087    0.0000 O   0  0  0  0  0  0  0  0  0  0  0  0
    5.3948  -10.8298    0.0000 P   0  0  0  0  0  0  0  0  0  0  0  0
    6.1930  -11.0863    0.0000 O   0  0  0  0  0  0  0  0  0  0  0  0
    6.7994  -10.5074    0.0000 P   0  0  0  0  0  0  0  0  0  0  0  0
    5.2101  -10.0246    0.0000 O   0  0  0  0  0  0  0  0  0  0  0  0
    6.6147   -9.7022    0.0000 O   0  0  0  0  0  0  0  0  0  0  0  0
    5.5194  -11.6345    0.0000 O   0  0  0  0  0  0  0  0  0  0  0  0
    6.9441  -11.2817    0.0000 O   0  0  0  0  0  0  0  0  0  0  0  0
  2  1  1  0
  3  1  2  0
  4  1  1  0
  5  3  1  0
  7  3  1  0
  7  6  1  0
  8  4  2  0
  8  6  1  0
  9  2  1  0
  9  5  2  0
 10  7  2  0
 11  8  1  0
 12 18  1  1
 13 12  1  0
 14 12  1  0
 14 17  1  6
 15  2  1  1
 15 13  1  0
 16 14  1  0
 16 15  1  0
 19 18  1  0
 21 20  1  0
 22 21  1  0
 23 19  1  0
 23 22  1  0
 24 21  2  0
 25 23  2  0
 26 21  1  0
 27 23  1  0
M  END
>  <DRUGBANK_ID>  (1) 
DB03491

>  <SECONDARY_ACCESSION_NUMBERS>  (1) 
EXPT01179

>  <COMMON_NAME>  (1) 
2'-Deoxyguanosine-5'-Diphosphate

$$$$
