
     RDKit          2D

 37 41  0  0  0  0  0  0  0  0999 V2000
    1.1587    0.8618    0.0000 N   0  0  0  0  0  0  0  0  0  0  0  0
    1.8731    1.2754    0.0000 C   0  0  0  0  0  0  0  0  0  0  0  0
    1.8731    2.1004    0.0000 O   0  0  0  0  0  0  0  0  0  0  0  0
    2.5877    0.8618    0.0000 C   0  0  0  0  0  0  0  0  0  0  0  0
    2.5877    0.0368    0.0000 C   0  0  0  0  0  0  0  0  0  0  0  0
    3.3041   -0.3746    0.0000 C   0  0  0  0  0  0  0  0  0  0  0  0
    3.3041   -1.1996    0.0000 N   0  0  0  0  0  0  0  0  0  0  0  0
    2.5897   -1.6132    0.0000 C   0  0  0  0  0  0  0  0  0  0  0  0
    1.8752   -1.1996    0.0000 C   0  0  0  0  0  0  0  0  0  0  0  0
    1.1607   -1.6132    0.0000 C   0  0  0  0  0  0  0  0  0  0  0  0
    2.5897   -2.4382    0.0000 C   0  0  0  0  0  0  0  0  0  0  0  0
    4.0165    0.0368    0.0000 C   0  0  0  0  0  0  0  0  0  0  0  0
    4.0165    0.8618    0.0000 C   0  0  0  0  0  0  0  0  0  0  0  0
    3.3041    1.2754    0.0000 C   0  0  0  0  0  0  0  0  0  0  0  0
    3.3041    2.1004    0.0000 C   0  0  0  0  0  0  0  0  0  0  0  0
    4.7311   -0.3746    0.0000 C   0  0  0  0  0  0  0  0  0  0  0  0
    5.4476    0.0368    0.0000 N   0  0  0  0  0  0  0  0  0  0  0  0
    4.7311   -1.1996    0.0000 O   0  0  0  0  0  0  0  0  0  0  0  0
    0.4442    1.2754    0.0000 C   0  0  0  0  0  0  0  0  0  0  0  0
   -0.0716    0.6305    0.0000 C   0  0  0  0  0  0  0  0  0  0  0  0
   -0.8966    0.6305    0.0000 C   0  0  0  0  0  0  0  0  0  0  0  0
   -0.4831    1.4842    0.0000 N   0  0  0  0  0  0  0  0  0  0  0  0
   -0.4831    2.4382    0.0000 C   0  0  0  0  0  0  0  0  0  0  0  0
    0.2620    2.0800    0.0000 C   0  0  0  0  0  0  0  0  0  0  0  0
   -1.2262    2.0800    0.0000 C   0  0  0  0  0  0  0  0  0  0  0  0
   -1.4126    1.2754    0.0000 C   0  0  0  0  0  0  0  0  0  0  0  0
   -1.7525    1.7073    0.0000 C   0  0  0  0  0  0  0  0  0  0  0  0
   -2.4649    2.1209    0.0000 C   0  0  0  0  0  0  0  0  0  0  0  0
   -3.1814    1.7073    0.0000 C   0  0  0  0  0  0  0  0  0  0  0  0
   -3.1814    0.8843    0.0000 C   0  0  0  0  0  0  0  0  0  0  0  0
   -2.4649    0.4708    0.0000 C   0  0  0  0  0  0  0  0  0  0  0  0
   -1.7525    0.8843    0.0000 N   0  0  0  0  0  0  0  0  0  0  0  0
   -3.9020    0.4831    0.0000 C   0  0  0  0  0  0  0  0  0  0  0  0
   -3.9020   -0.3418    0.0000 O   0  0  0  0  0  0  0  0  0  0  0  0
   -4.6165    0.8966    0.0000 C   0  0  0  0  0  0  0  0  0  0  0  0
   -5.4476    0.8966    0.0000 C   0  0  0  0  0  0  0  0  0  0  0  0
   -5.0320    1.6091    0.0000 C   0  0  0  0  0  0  0  0  0  0  0  0
  1  2  1  0
  2  3  2  0
  2  4  1  0
  4  5  2  0
  4 14  1  0
  5  6  1  0
  6  7  1  0
  6 12  2  0
  7  8  1  0
  8  9  1  0
  8 11  1  6
  9 10  1  0
 12 16  1  0
 13 12  1  0
 14 13  2  0
 14 15  1  0
 16 17  1  0
 16 18  2  0
 19  1  1  1
 19 20  1  0
 19 24  1  0
 21 20  1  1
 21 22  1  0
 21 26  1  0
 22 27  1  0
 23 22  1  0
 23 25  1  1
 24 23  1  0
 26 25  1  0
 27 28  2  0
 27 32  1  0
 28 29  1  0
 29 30  2  0
 30 33  1  0
 31 30  1  0
 32 31  2  0
 33 34  2  0
 33 35  1  0
 35 36  1  0
 35 37  1  0
 36 37  1  0
M  END
>  <DRUGBANK_ID>  (1) 
DB12981

>  <COMMON_NAME>  (1) 
XL-888

>  <CAS_NUMBER>  (1) 
1149705-71-4

>  <UNII>  (1) 
7M346920EV

>  <SYNONYMS>  (1) 
EXEL-4888; XL888

$$$$
