
     RDKit          2D

 10  8  0  0  0  0  0  0  0  0999 V2000
   -0.3833    0.2062    0.0000 C   0  0  0  0  0  0  0  0  0  0  0  0
   -1.8124    0.2062    0.0000 C   0  0  0  0  0  0  0  0  0  0  0  0
    0.3334   -0.2062    0.0000 C   0  0  0  0  0  0  0  0  0  0  0  0
   -1.0957   -0.2062    0.0000 C   0  0  0  0  0  0  0  0  0  0  0  0
    1.0458    0.2062    0.0000 O   0  0  0  0  0  0  0  0  0  0  0  0
   -1.8124    1.0312    0.0000 O   0  0  0  0  0  0  0  0  0  0  0  0
    0.3334   -1.0312    0.0000 O   0  0  0  0  0  0  0  0  0  0  0  0
   -1.0957   -1.0312    0.0000 N   0  0  0  0  0  0  0  0  0  0  0  0
   -2.5249   -0.2062    0.0000 O   0  0  0  0  0  0  0  0  0  0  0  0
    2.5249    0.8019    0.0000 K   0  0  0  0  0 15  0  0  0  0  0  0
  2  4  1  0
  3  1  1  0
  4  1  1  0
  5  3  1  0
  6  2  2  0
  7  3  2  0
  8  4  1  0
  9  2  1  0
M  CHG  2   5  -1  10   1
M  END
>  <DRUGBANK_ID>  (1) 
DB15998

>  <COMMON_NAME>  (1) 
Potassium hydrogen DL-aspartate

>  <CAS_NUMBER>  (1) 
923-09-1

>  <UNII>  (1) 
5UW00M8KR0

$$$$
