
     RDKit          2D

 35 38  0  0  0  0  0  0  0  0999 V2000
   -0.0868    1.4170    0.0000 S   0  0  0  0  0  0  0  0  0  0  0  0
   -2.1778   -0.0385    0.0000 O   0  0  0  0  0  0  0  0  0  0  0  0
   -4.2715    0.3774    0.0000 O   0  0  0  0  0  0  0  0  0  0  0  0
   -3.2140    1.8276    0.0000 O   0  0  0  0  0  0  0  0  0  0  0  0
   -0.7551    0.9332    0.0000 O   0  0  0  0  0  0  0  0  0  0  0  0
   -0.5706    2.0852    0.0000 O   0  0  0  0  0  0  0  0  0  0  0  0
    0.3967    0.7488    0.0000 O   0  0  0  0  0  0  0  0  0  0  0  0
    1.4191    0.7433    0.0000 O   0  0  0  0  0  0  0  0  0  0  0  0
    5.4285    3.6457    0.0000 O   0  0  0  0  0  0  0  0  0  0  0  0
   -3.2191   -1.0762    0.0000 N   0  0  0  0  0  0  0  0  0  0  0  0
   -3.2191   -2.4039    0.0000 N   0  0  0  0  0  0  0  0  0  0  0  0
   -4.7141   -0.9151    0.0000 N   0  0  0  0  0  0  0  0  0  0  0  0
    0.5813    1.9007    0.0000 N   0  0  0  0  0  0  0  0  0  0  0  0
   -5.4285   -2.1526    0.0000 N   0  0  0  0  0  0  0  0  0  0  0  0
   -4.7141   -3.3900    0.0000 N   0  0  0  0  0  0  0  0  0  0  0  0
    1.9178    2.8682    0.0000 N   0  0  0  0  0  0  0  0  0  0  0  0
   -3.4466    0.3760    0.0000 C   0  0  0  0  0  0  0  0  0  0  0  0
   -2.9605    1.0426    0.0000 C   0  0  0  0  0  0  0  0  0  0  0  0
   -2.9628   -0.2921    0.0000 C   0  0  0  0  0  0  0  0  0  0  0  0
   -2.1763    0.7863    0.0000 C   0  0  0  0  0  0  0  0  0  0  0  0
   -1.5081    1.2700    0.0000 C   0  0  0  0  0  0  0  0  0  0  0  0
   -3.9996   -1.3276    0.0000 C   0  0  0  0  0  0  0  0  0  0  0  0
   -2.7376   -1.7401    0.0000 C   0  0  0  0  0  0  0  0  0  0  0  0
   -3.9996   -2.1526    0.0000 C   0  0  0  0  0  0  0  0  0  0  0  0
   -4.7141   -2.5650    0.0000 C   0  0  0  0  0  0  0  0  0  0  0  0
   -5.4285   -1.3276    0.0000 C   0  0  0  0  0  0  0  0  0  0  0  0
    2.0026    2.0476    0.0000 C   0  0  0  0  0  0  0  0  0  0  0  0
    1.3343    1.5639    0.0000 C   0  0  0  0  0  0  0  0  0  0  0  0
    2.7556    1.7107    0.0000 C   0  0  0  0  0  0  0  0  0  0  0  0
    3.4238    2.1945    0.0000 C   0  0  0  0  0  0  0  0  0  0  0  0
    3.3390    3.0151    0.0000 C   0  0  0  0  0  0  0  0  0  0  0  0
    4.1769    1.8576    0.0000 C   0  0  0  0  0  0  0  0  0  0  0  0
    4.0073    3.4988    0.0000 C   0  0  0  0  0  0  0  0  0  0  0  0
    4.8451    2.3414    0.0000 C   0  0  0  0  0  0  0  0  0  0  0  0
    4.7603    3.1620    0.0000 C   0  0  0  0  0  0  0  0  0  0  0  0
  1  5  1  0
  1  6  2  0
  1  7  2  0
  1 13  1  0
  2 19  1  0
  2 20  1  0
  5 21  1  0
  8 28  2  0
  9 35  1  0
 10 22  1  0
 10 23  1  0
 11 23  2  0
 11 24  1  0
 12 22  1  0
 12 26  2  0
 13 28  1  0
 14 25  2  0
 14 26  1  0
 15 25  1  0
 17  3  1  6
 17 18  1  0
 17 19  1  0
 18  4  1  6
 18 20  1  0
 19 10  1  1
 20 21  1  1
 22 24  2  0
 24 25  1  0
 27 16  1  1
 27 28  1  0
 27 29  1  0
 29 30  1  0
 30 31  2  0
 30 32  1  0
 31 33  1  0
 32 34  2  0
 33 35  2  0
 34 35  1  0
M  END
>  <DRUGBANK_ID>  (1) 
DB03325

>  <SECONDARY_ACCESSION_NUMBERS>  (1) 
EXPT03277

>  <COMMON_NAME>  (1) 
Tyrosyladenylate

>  <SYNONYMS>  (1) 
5'-O-(L-Tyrosylsulfamoyl)adenosine

$$$$
