JNF
     RDKit          2D

 23 26  0  0  0  0  0  0  0  0999 V2000
   -1.5977   -2.0711    0.0000 C   0  0  0  0  0  0  0  0  0  0  0  0
   -1.3428   -1.2865    0.0000 N   0  0  0  0  0  0  0  0  0  0  0  0
   -0.5358   -1.1150    0.0000 C   0  0  0  0  0  0  0  0  0  0  0  0
   -0.2808   -0.3304    0.0000 N   0  0  0  0  0  0  0  0  0  0  0  0
    0.5261   -0.1588    0.0000 C   0  0  0  0  0  0  0  0  0  0  0  0
    0.7811    0.6258    0.0000 C   0  0  0  0  0  0  0  0  0  0  0  0
    1.5657    0.8807    0.0000 N   0  0  0  0  0  0  0  0  0  0  0  0
    1.5657    1.7057    0.0000 C   0  0  0  0  0  0  0  0  0  0  0  0
    2.2802    2.1182    0.0000 C   0  0  0  0  0  0  0  0  0  0  0  0
    2.9946    1.7057    0.0000 C   0  0  0  0  0  0  0  0  0  0  0  0
    2.9946    0.8807    0.0000 C   0  0  0  0  0  0  0  0  0  0  0  0
    2.2802    0.4682    0.0000 C   0  0  0  0  0  0  0  0  0  0  0  0
    0.7811    1.9607    0.0000 N   0  0  0  0  0  0  0  0  0  0  0  0
    0.2961    1.2932    0.0000 C   0  0  0  0  0  0  0  0  0  0  0  0
    1.0782   -0.7719    0.0000 C   0  0  0  0  0  0  0  0  0  0  0  0
    0.8232   -1.5566    0.0000 C   0  0  0  0  0  0  0  0  0  0  0  0
    0.0162   -1.7281    0.0000 N   0  0  0  0  0  0  0  0  0  0  0  0
   -1.8948   -0.6734    0.0000 C   0  0  0  0  0  0  0  0  0  0  0  0
   -2.7018   -0.8449    0.0000 C   0  0  0  0  0  0  0  0  0  0  0  0
   -3.2538   -0.2319    0.0000 C   0  0  0  0  0  0  0  0  0  0  0  0
   -2.9989    0.5528    0.0000 C   0  0  0  0  0  0  0  0  0  0  0  0
   -2.1919    0.7243    0.0000 C   0  0  0  0  0  0  0  0  0  0  0  0
   -1.6399    0.1112    0.0000 C   0  0  0  0  0  0  0  0  0  0  0  0
  1  2  1  0
  2  3  1  0
  2 18  1  0
  3  4  2  0
  3 17  1  0
  4  5  1  0
  5  6  1  0
  5 15  2  0
  6  7  1  0
  6 14  2  0
  7  8  1  0
  7 12  1  0
  8  9  1  0
  8 13  2  0
  9 10  2  0
 10 11  1  0
 11 12  2  0
 13 14  1  0
 15 16  1  0
 16 17  2  0
 18 19  1  0
 18 23  1  0
 19 20  1  0
 20 21  1  0
 21 22  1  0
 22 23  1  0
M  END
>  <DRUGBANK_ID>  (1) 
DB08023

>  <COMMON_NAME>  (1) 
N-cyclohexyl-4-imidazo[1,2-a]pyridin-3-yl-N-methylpyrimidin-2-amine

$$$$
