
     RDKit          2D

 22 23  0  0  0  0  0  0  0  0999 V2000
   -0.7536    0.2222    0.0000 N   0  0  0  0  0  0  0  0  0  0  0  0
   -0.7536   -0.6027    0.0000 S   0  0  0  0  0  0  0  0  0  0  0  0
    0.0713   -0.6027    0.0000 O   0  0  0  0  0  0  0  0  0  0  0  0
   -1.5786   -0.6027    0.0000 O   0  0  0  0  0  0  0  0  0  0  0  0
   -0.7536   -1.4277    0.0000 C   0  0  0  0  0  0  0  0  0  0  0  0
   -0.0861   -1.9126    0.0000 C   0  0  0  0  0  0  0  0  0  0  0  0
   -0.3411   -2.6972    0.0000 C   0  0  0  0  0  0  0  0  0  0  0  0
   -1.1661   -2.6972    0.0000 S   0  0  0  0  0  0  0  0  0  0  0  0
   -1.4210   -1.9126    0.0000 C   0  0  0  0  0  0  0  0  0  0  0  0
   -2.2056   -1.6577    0.0000 C   0  0  0  0  0  0  0  0  0  0  0  0
   -2.8187   -2.2097    0.0000 O   0  0  0  0  0  0  0  0  0  0  0  0
   -2.3772   -0.8507    0.0000 O   0  0  0  0  0  0  0  0  0  0  0  0
   -0.0391    0.6347    0.0000 C   0  0  0  0  0  0  0  0  0  0  0  0
   -0.0391    1.4597    0.0000 C   0  0  0  0  0  0  0  0  0  0  0  0
    0.6753    1.8722    0.0000 C   0  0  0  0  0  0  0  0  0  0  0  0
    1.3897    1.4597    0.0000 C   0  0  0  0  0  0  0  0  0  0  0  0
    1.3897    0.6347    0.0000 C   0  0  0  0  0  0  0  0  0  0  0  0
    0.6753    0.2222    0.0000 C   0  0  0  0  0  0  0  0  0  0  0  0
   -0.7536    1.8722    0.0000 O   0  0  0  0  0  0  0  0  0  0  0  0
    2.1042    1.8722    0.0000 C   0  0  0  0  0  0  0  0  0  0  0  0
    2.1042    2.6972    0.0000 O   0  0  0  0  0  0  0  0  0  0  0  0
    2.8187    1.4597    0.0000 O   0  0  0  0  0  0  0  0  0  0  0  0
  1  2  1  0
  3  2  2  0
  4  2  2  0
  5  2  1  0
  5  6  1  0
  5  9  2  0
  6  7  2  0
  7  8  1  0
  9  8  1  0
  9 10  1  0
 10 11  1  0
 10 12  2  0
 13  1  1  0
 13 14  2  0
 13 18  1  0
 14 15  1  0
 14 19  1  0
 15 16  2  0
 17 16  1  0
 18 17  2  0
 20 16  1  0
 20 21  1  0
 20 22  2  0
M  END
>  <DRUGBANK_ID>  (1) 
DB07927

>  <COMMON_NAME>  (1) 
3-[(4-Carboxy-2-hydroxyphenyl)sulfamoyl]-2-thiophenecarboxylic acid

$$$$
