
     RDKit          2D

 26 29  0  0  1  0  0  0  0  0999 V2000
   -0.5837    0.0165    0.0000 C   0  0  0  0  0  0  0  0  0  0  0  0
   -0.1712   -0.6979    0.0000 C   0  0  0  0  0  0  0  0  0  0  0  0
   -0.5837   -1.4124    0.0000 C   0  0  0  0  0  0  0  0  0  0  0  0
   -0.5837   -2.2374    0.0000 C   0  0  0  0  0  0  0  0  0  0  0  0
   -1.2982   -1.8249    0.0000 C   0  0  0  0  0  0  0  0  0  0  0  0
    0.6538   -0.6979    0.0000 N   0  0  0  0  0  0  0  0  0  0  0  0
    1.1387   -0.0305    0.0000 C   0  0  0  0  0  0  0  0  0  0  0  0
    1.9233   -0.2854    0.0000 C   0  0  0  0  0  0  0  0  0  0  0  0
    2.6378    0.1271    0.0000 C   0  0  0  0  0  0  0  0  0  0  0  0
    3.3523   -0.2854    0.0000 C   0  0  0  0  0  0  0  0  0  0  0  0
    3.3523   -1.1104    0.0000 C   0  0  0  0  0  0  0  0  0  0  0  0
    2.6378   -1.5229    0.0000 C   0  0  0  0  0  0  0  0  0  0  0  0
    1.9233   -1.1104    0.0000 C   0  0  0  0  0  0  0  0  0  0  0  0
    1.1387   -1.3654    0.0000 C   0  0  0  0  0  0  0  0  0  0  0  0
    0.8838   -2.1500    0.0000 O   0  0  0  0  0  0  0  0  0  0  0  0
    2.6378   -2.3479    0.0000 Cl  0  0  0  0  0  0  0  0  0  0  0  0
    4.0668    0.1271    0.0000 C   0  0  0  0  0  0  0  0  0  0  0  0
    4.1530    0.9475    0.0000 C   0  0  0  0  0  0  0  0  0  0  0  0
    4.9600    1.1191    0.0000 C   0  0  0  0  0  0  0  0  0  0  0  0
    5.3725    0.4046    0.0000 N   0  0  0  0  0  0  0  0  0  0  0  0
    4.8204   -0.2085    0.0000 O   0  0  0  0  0  0  0  0  0  0  0  0
    5.2955    1.8727    0.0000 C   0  0  0  0  0  0  0  0  0  0  0  0
    4.8106    2.5402    0.0000 O   0  0  0  0  0  0  0  0  0  0  0  0
    6.1160    1.9590    0.0000 N   0  0  0  0  0  0  0  0  0  0  0  0
    6.4516    2.7127    0.0000 C   0  0  0  0  0  0  0  0  0  0  0  0
    6.6009    1.2915    0.0000 C   0  0  0  0  0  0  0  0  0  0  0  0
  2  1  1  6
  2  3  1  0
  2  6  1  0
  3  4  1  0
  3  5  1  0
  4  5  1  0
  6  7  1  0
  6 14  1  0
  7  8  1  0
  8  9  1  0
  8 13  2  0
  9 10  2  0
 10 11  1  0
 10 17  1  0
 11 12  2  0
 12 13  1  0
 12 16  1  0
 13 14  1  0
 14 15  2  0
 17 18  2  0
 17 21  1  0
 18 19  1  0
 19 20  2  0
 19 22  1  0
 20 21  1  0
 22 23  2  0
 22 24  1  0
 24 25  1  0
 24 26  1  0
M  END
>  <DRUGBANK_ID>  (1) 
DB13102

>  <COMMON_NAME>  (1) 
AZD-8418

>  <CAS_NUMBER>  (1) 
1198309-73-7

>  <UNII>  (1) 
7U6B825568

$$$$
