
     RDKit          2D

 36 40  0  0  0  0  0  0  0  0999 V2000
    0.0000    0.7414    0.0000 C   0  0  0  0  0  0  0  0  0  0  0  0
    0.0000    1.5664    0.0000 O   0  0  0  0  0  0  0  0  0  0  0  0
   -0.7144    0.3289    0.0000 C   0  0  0  0  0  0  0  0  0  0  0  0
   -1.4289    0.7414    0.0000 C   0  0  0  0  0  0  0  0  0  0  0  0
   -0.7144   -0.4960    0.0000 C   0  0  0  0  0  0  0  0  0  0  0  0
   -2.1434    0.3289    0.0000 C   0  0  0  0  0  0  0  0  0  0  0  0
   -1.4289   -0.9085    0.0000 C   0  0  0  0  0  0  0  0  0  0  0  0
   -2.1434   -0.4960    0.0000 C   0  0  0  0  0  0  0  0  0  0  0  0
    0.7144    0.3289    0.0000 N   0  0  0  0  0  0  0  0  0  0  0  0
   -2.8578   -0.9085    0.0000 C   0  0  0  0  0  0  0  0  0  0  0  0
   -2.8578   -1.7335    0.0000 N   0  0  0  0  0  0  0  0  0  0  0  0
   -2.8578   -3.3835    0.0000 N   0  0  0  0  0  0  0  0  0  0  0  0
   -2.1434   -2.9710    0.0000 C   0  0  0  0  0  0  0  0  0  0  0  0
   -3.5723   -2.1460    0.0000 C   0  0  0  0  0  0  0  0  0  0  0  0
   -3.5723   -2.9710    0.0000 C   0  0  0  0  0  0  0  0  0  0  0  0
   -2.1434   -2.1460    0.0000 C   0  0  0  0  0  0  0  0  0  0  0  0
   -2.8578   -4.2085    0.0000 C   0  0  0  0  0  0  0  0  0  0  0  0
    2.1433    1.9789    0.0000 C   0  0  0  0  0  0  0  0  0  0  0  0
    2.8578    1.5664    0.0000 C   0  0  0  0  0  0  0  0  0  0  0  0
    2.8578    0.7414    0.0000 C   0  0  0  0  0  0  0  0  0  0  0  0
    2.1433    0.3289    0.0000 C   0  0  0  0  0  0  0  0  0  0  0  0
    1.4288    0.7414    0.0000 C   0  0  0  0  0  0  0  0  0  0  0  0
    1.4288    1.5664    0.0000 C   0  0  0  0  0  0  0  0  0  0  0  0
    3.5723    1.9789    0.0000 C   0  0  0  0  0  0  0  0  0  0  0  0
    2.1433    2.8039    0.0000 N   0  0  0  0  0  0  0  0  0  0  0  0
    1.3426    4.0369    0.0000 S   0  0  0  0  0  0  0  0  0  0  0  0
    1.4288    3.2164    0.0000 C   0  0  0  0  0  0  0  0  0  0  0  0
    0.6752    2.8809    0.0000 N   0  0  0  0  0  0  0  0  0  0  0  0
    0.1232    3.4939    0.0000 C   0  0  0  0  0  0  0  0  0  0  0  0
    0.5357    4.2085    0.0000 C   0  0  0  0  0  0  0  0  0  0  0  0
   -1.8533    2.5678    0.0000 N   0  0  0  0  0  0  0  0  0  0  0  0
   -2.3382    3.2353    0.0000 C   0  0  0  0  0  0  0  0  0  0  0  0
   -1.0328    2.6541    0.0000 C   0  0  0  0  0  0  0  0  0  0  0  0
   -0.6973    3.4077    0.0000 C   0  0  0  0  0  0  0  0  0  0  0  0
   -2.0026    3.9889    0.0000 C   0  0  0  0  0  0  0  0  0  0  0  0
   -1.1822    4.0752    0.0000 C   0  0  0  0  0  0  0  0  0  0  0  0
  2  1  2  0
  3  1  1  0
  4  3  2  0
  5  3  1  0
  6  4  1  0
  7  5  2  0
  8  6  2  0
  8  7  1  0
  9  1  1  0
 10  8  1  0
 11 10  1  0
 13 12  1  0
 14 11  1  0
 15 12  1  0
 15 14  1  0
 16 11  1  0
 16 13  1  0
 17 12  1  0
 19 18  2  0
 20 19  1  0
 21 20  2  0
 22  9  1  0
 22 21  1  0
 23 18  1  0
 23 22  2  0
 24 19  1  0
 25 18  1  0
 27 25  1  0
 27 26  1  0
 28 27  2  0
 29 28  1  0
 30 26  1  0
 30 29  2  0
 32 31  2  0
 33 31  1  0
 34 29  1  0
 34 33  2  0
 35 32  1  0
 36 34  1  0
 36 35  2  0
M  END
>  <DRUGBANK_ID>  (1) 
DB11526

>  <COMMON_NAME>  (1) 
Masitinib

>  <CAS_NUMBER>  (1) 
790299-79-5

>  <UNII>  (1) 
M59NC4E26P

>  <SYNONYMS>  (1) 
4-((4-METHYLPIPERAZIN-1-YL)METHYL)-N-(4-METHYL-3-((4-PYRIDIN-3-YL-1,3-THIAZOL-2-YL)AMINO)PHENYL)BENZAMIDE; Masitinib

$$$$
