
     RDKit          2D

 25 28  0  0  0  0  0  0  0  0999 V2000
   -2.7964   -0.5740    0.0000 N   0  0  0  0  0  0  0  0  0  0  0  0
   -2.8784   -1.3941    0.0000 C   0  0  0  0  0  0  0  0  0  0  0  0
   -3.6903   -1.5663    0.0000 C   0  0  0  0  0  0  0  0  0  0  0  0
   -4.1004   -0.8528    0.0000 N   0  0  0  0  0  0  0  0  0  0  0  0
   -3.5508   -0.2378    0.0000 C   0  0  0  0  0  0  0  0  0  0  0  0
    3.5099    0.3854    0.0000 N   0  0  0  0  0  0  0  0  0  0  0  0
    2.9604    1.0005    0.0000 N   0  0  0  0  0  0  0  0  0  0  0  0
    2.2059    0.6642    0.0000 C   0  0  0  0  0  0  0  0  0  0  0  0
    2.2879   -0.1557    0.0000 C   0  0  0  0  0  0  0  0  0  0  0  0
    3.0998   -0.3280    0.0000 C   0  0  0  0  0  0  0  0  0  0  0  0
    3.4361   -1.0825    0.0000 C   0  0  0  0  0  0  0  0  0  0  0  0
    4.1004   -1.5663    0.0000 C   0  0  0  0  0  0  0  0  0  0  0  0
    3.3458   -1.9025    0.0000 C   0  0  0  0  0  0  0  0  0  0  0  0
    1.4925    1.0743    0.0000 N   0  0  0  0  0  0  0  0  0  0  0  0
    0.7790    0.6642    0.0000 C   0  0  0  0  0  0  0  0  0  0  0  0
    0.0655    1.0743    0.0000 C   0  0  0  0  0  0  0  0  0  0  0  0
    0.7790   -0.1639    0.0000 O   0  0  0  0  0  0  0  0  0  0  0  0
   -0.6560    0.6642    0.0000 C   0  0  0  0  0  0  0  0  0  0  0  0
   -0.6560   -0.1639    0.0000 C   0  0  0  0  0  0  0  0  0  0  0  0
   -1.3695   -0.5740    0.0000 C   0  0  0  0  0  0  0  0  0  0  0  0
   -2.0829   -0.1639    0.0000 C   0  0  0  0  0  0  0  0  0  0  0  0
   -2.0829    0.6642    0.0000 C   0  0  0  0  0  0  0  0  0  0  0  0
   -1.3695    1.0743    0.0000 C   0  0  0  0  0  0  0  0  0  0  0  0
   -3.7231    0.5658    0.0000 O   0  0  0  0  0  0  0  0  0  0  0  0
    0.0655    1.9025    0.0000 C   0  0  0  0  0  0  0  0  0  0  0  0
  1  2  1  0
  1  5  1  0
  1 21  1  0
  2  3  1  0
  3  4  1  0
  4  5  1  0
  5 24  2  0
  6  7  2  0
  6 10  1  0
  7  8  1  0
  8  9  1  0
  8 14  2  0
  9 10  2  0
 10 11  1  0
 11 12  1  0
 11 13  1  0
 12 13  1  0
 14 15  1  0
 15 16  1  0
 15 17  2  0
 16 18  1  0
 16 25  1  6
 18 19  2  0
 18 23  1  0
 19 20  1  0
 20 21  2  0
 21 22  1  0
 22 23  2  0
M  END
>  <DRUGBANK_ID>  (1) 
DB07137

>  <COMMON_NAME>  (1) 
(2S)-N-[(3E)-5-Cyclopropyl-3H-pyrazol-3-ylidene]-2-[4-(2-oxo-1-imidazolidinyl)phenyl]propanamide

$$$$
