NN4
     RDKit          2D

 28 31  0  0  0  0  0  0  0  0999 V2000
    3.1349    1.1953    0.0000 C   0  0  0  0  0  0  0  0  0  0  0  0
    3.1349    0.4479    0.0000 C   0  0  0  0  0  0  0  0  0  0  0  0
    3.8705    0.0742    0.0000 C   0  0  0  0  0  0  0  0  0  0  0  0
    3.5844    0.4908    0.0000 C   0  0  0  0  0  0  0  0  0  0  0  0
    2.8489    1.6119    0.0000 C   0  0  0  0  0  0  0  0  0  0  0  0
    2.8489    0.8645    0.0000 C   0  0  0  0  0  0  0  0  0  0  0  0
    1.0109   -0.2632    0.0000 C   0  0  0  0  0  0  0  0  0  0  0  0
   -0.1555   -0.2359    0.0000 C   0  0  0  0  0  0  0  0  0  0  0  0
   -0.9745   -1.1701    0.0000 C   0  0  0  0  0  0  0  0  0  0  0  0
   -1.1693   -0.3685    0.0000 C   0  0  0  0  0  0  0  0  0  0  0  0
   -2.5578   -0.7058    0.0000 C   0  0  0  0  0  0  0  0  0  0  0  0
   -1.5714   -1.7397    0.0000 C   0  0  0  0  0  0  0  0  0  0  0  0
   -3.5443    0.3280    0.0000 C   0  0  0  0  0  0  0  0  0  0  0  0
    0.8161    0.5384    0.0000 O   0  0  0  0  0  0  0  0  0  0  0  0
    1.8026   -0.4954    0.0000 N   0  0  0  0  0  0  0  0  0  0  0  0
    2.3995    0.0742    0.0000 C   0  0  0  0  0  0  0  0  0  0  0  0
    3.5844    1.9856    0.0000 C   0  0  0  0  0  0  0  0  0  0  0  0
    4.3200    1.6119    0.0000 C   0  0  0  0  0  0  0  0  0  0  0  0
    4.3200    0.8645    0.0000 C   0  0  0  0  0  0  0  0  0  0  0  0
    5.1175    0.6535    0.0000 C   0  0  0  0  0  0  0  0  0  0  0  0
    5.6990    1.2387    0.0000 O   0  0  0  0  0  0  0  0  0  0  0  0
    5.3336   -0.1427    0.0000 N   0  0  0  0  0  0  0  0  0  0  0  0
    0.4140   -0.8328    0.0000 C   0  0  0  0  0  0  0  0  0  0  0  0
    0.9836   -1.4296    0.0000 C   0  0  0  0  0  0  0  0  0  0  0  0
   -0.1828   -1.4023    0.0000 O   0  0  0  0  0  0  0  0  0  0  0  0
   -2.3630   -1.5075    0.0000 C   0  0  0  0  0  0  0  0  0  0  0  0
   -3.3495   -0.4737    0.0000 O   0  0  0  0  0  0  0  0  0  0  0  0
   -1.9610   -0.1363    0.0000 C   0  0  0  0  0  0  0  0  0  0  0  0
 17  1  1  6
  2  1  1  1
  2 16  1  0
  2  3  1  0
  3 19  1  0
  6  4  1  6
  4 19  1  0
  5 17  1  0
  5  6  1  0
  6 16  1  0
  7 23  1  0
  7 15  1  0
  7 14  2  0
  8 23  1  0
  9 12  1  0
  9 10  2  0
  9 25  1  0
 10 28  1  0
 11 27  1  0
 11 26  1  0
 11 28  2  0
 12 26  2  0
 13 27  1  0
 16 15  1  6
 17 18  1  0
 18 19  1  0
 19 20  1  1
 20 21  2  0
 20 22  1  0
 23 25  1  0
 23 24  1  0
M  END
>  <DRUGBANK_ID>  (1) 
DB08280

>  <COMMON_NAME>  (1) 
(1S,3R,4S,5S,7S)-4-{[2-(4-METHOXYPHENOXY)-2-METHYLPROPANOYL]AMINO}ADAMANTANE-1-CARBOXAMIDE

$$$$
