
     RDKit          2D

 16 17  0  0  0  0  0  0  0  0999 V2000
    0.5229   -1.1664    0.0000 O   0  0  0  0  0  0  0  0  0  0  0  0
   -1.0418   -2.6185    0.0000 O   0  0  0  0  0  0  0  0  0  0  0  0
    1.5734   -2.5323    0.0000 O   0  0  0  0  0  0  0  0  0  0  0  0
   -1.5734    0.1435    0.0000 O   0  0  0  0  0  0  0  0  0  0  0  0
   -0.1444    2.6185    0.0000 O   0  0  0  0  0  0  0  0  0  0  0  0
   -0.1444    0.1435    0.0000 N   0  0  0  0  0  0  0  0  0  0  0  0
   -0.8589    1.3810    0.0000 N   0  0  0  0  0  0  0  0  0  0  0  0
   -0.1444   -0.6814    0.0000 C   0  0  0  0  0  0  0  0  0  0  0  0
   -0.8119   -1.1664    0.0000 C   0  0  0  0  0  0  0  0  0  0  0  0
   -0.5569   -1.9510    0.0000 C   0  0  0  0  0  0  0  0  0  0  0  0
    0.2680   -1.9510    0.0000 C   0  0  0  0  0  0  0  0  0  0  0  0
    0.5699    0.5560    0.0000 C   0  0  0  0  0  0  0  0  0  0  0  0
    0.7528   -2.6185    0.0000 C   0  0  0  0  0  0  0  0  0  0  0  0
    0.5699    1.3810    0.0000 C   0  0  0  0  0  0  0  0  0  0  0  0
   -0.8589    0.5560    0.0000 C   0  0  0  0  0  0  0  0  0  0  0  0
   -0.1444    1.7935    0.0000 C   0  0  0  0  0  0  0  0  0  0  0  0
  1  8  1  0
  1 11  1  0
  3 13  1  0
  4 15  2  0
  5 16  2  0
  6  8  1  0
  6 12  1  0
  6 15  1  0
  7 15  1  0
  7 16  1  0
  8  9  1  0
  9 10  1  0
 10  2  1  1
 10 11  1  0
 11 13  1  6
 12 14  1  0
 14 16  1  0
M  END
>  <DRUGBANK_ID>  (1) 
DB03562

>  <SECONDARY_ACCESSION_NUMBERS>  (1) 
EXPT03059

>  <COMMON_NAME>  (1) 
Tetrahydrodeoxyuridine

$$$$
