
     RDKit          2D

 13 13  0  0  0  0  0  0  0  0999 V2000
    1.2377   -0.3020    0.0000 S   0  0  0  0  0  0  0  0  0  0  0  0
    0.4124   -0.3020    0.0000 C   0  0  0  0  0  0  0  0  0  0  0  0
    0.0000    0.4124    0.0000 C   0  0  0  0  0  0  0  0  0  0  0  0
   -0.8251    0.4124    0.0000 C   0  0  0  0  0  0  0  0  0  0  0  0
    1.2377   -1.1271    0.0000 O   0  0  0  0  0  0  0  0  0  0  0  0
    2.0627   -0.3020    0.0000 O   0  0  0  0  0  0  0  0  0  0  0  0
   -1.2377   -0.3020    0.0000 C   0  0  0  0  0  0  0  0  0  0  0  0
    1.2377    0.5230    0.0000 O   0  0  0  0  0  0  0  0  0  0  0  0
    0.0039   -1.0018    0.0000 C   0  0  0  0  0  0  0  0  0  0  0  0
   -0.8211   -1.0018    0.0000 C   0  0  0  0  0  0  0  0  0  0  0  0
   -1.2377    1.1271    0.0000 O   0  0  0  0  0  0  0  0  0  0  0  0
   -2.0628   -0.3020    0.0000 O   0  0  0  0  0  0  0  0  0  0  0  0
   -2.0628    1.1271    0.0000 C   0  0  0  0  0  0  0  0  0  0  0  0
  2  1  1  0
  3  2  2  0
  4  3  1  0
  5  1  2  0
  6  1  1  0
  7 10  1  0
  7  4  2  0
  8  1  2  0
  9  2  1  0
 10  9  2  0
 11  4  1  0
 12  7  1  0
 13 11  1  0
M  END
>  <DRUGBANK_ID>  (1) 
DB15992

>  <COMMON_NAME>  (1) 
Sulfogaiacol

>  <CAS_NUMBER>  (1) 
7134-11-4

>  <UNII>  (1) 
6L00O0WHZR

>  <SYNONYMS>  (1) 
4-Guaiacolsulfonic acid; Sulfogaiacol

$$$$
