513
     RDKit          2D

  9  8  0  0  0  0  0  0  0  0999 V2000
    2.0930    0.6188    0.0000 O   0  0  0  0  0  0  0  0  0  0  0  0
    2.8075   -0.6188    0.0000 O   0  0  0  0  0  0  0  0  0  0  0  0
    7.0944    0.2063    0.0000 N   0  0  0  0  0  0  0  0  0  0  0  0
    4.9509    0.6188    0.0000 C   0  0  0  0  0  0  0  0  0  0  0  0
    4.2365    0.2063    0.0000 C   0  0  0  0  0  0  0  0  0  0  0  0
    5.6655    0.2063    0.0000 C   0  0  0  0  0  0  0  0  0  0  0  0
    3.5220    0.6188    0.0000 C   0  0  0  0  0  0  0  0  0  0  0  0
    6.3799    0.6188    0.0000 C   0  0  0  0  0  0  0  0  0  0  0  0
    2.8075    0.2063    0.0000 C   0  0  0  0  0  0  0  0  0  0  0  0
  1  9  1  0
  2  9  2  0
  3  8  1  0
  4  5  1  0
  4  6  1  0
  5  7  1  0
  6  8  1  0
  7  9  1  0
M  END
>  <DRUGBANK_ID>  (1) 
DB00513

>  <SECONDARY_ACCESSION_NUMBERS>  (1) 
APRD00791; EXPT00408; EXPT00461; DB04134

>  <COMMON_NAME>  (1) 
Aminocaproic acid

>  <CAS_NUMBER>  (1) 
60-32-2

>  <UNII>  (1) 
U6F3787206

>  <SYNONYMS>  (1) 
6-Aminocaproic acid; 6-aminohexanoic acid; Acide aminocaproïque; Ácido aminocapróico; acidum aminocaproicum; Aminocaproic acid; Aminocapronsäure; EACA; EACS; Epsilcapramine; Epsilon Aminocaproic Acid; Epsilon-Aminocaproic acid; epsilon-Aminohexanoic acid; omega-Aminocaproic acid; omega-Aminohexanoic acid

$$$$
