
     RDKit          2D

  9  9  0  0  0  0  0  0  0  0999 V2000
    2.1434    1.2375    0.0000 C   0  0  0  0  0  0  0  0  0  0  0  0
    1.4289    0.8250    0.0000 C   0  0  0  0  0  0  0  0  0  0  0  0
    1.4289    0.0000    0.0000 C   0  0  0  0  0  0  0  0  0  0  0  0
    0.7145   -0.4125    0.0000 C   0  0  0  0  0  0  0  0  0  0  0  0
    0.0000    0.0000    0.0000 C   0  0  0  0  0  0  0  0  0  0  0  0
   -0.7145   -0.4125    0.0000 O   0  0  0  0  0  0  0  0  0  0  0  0
    0.0000    0.8250    0.0000 C   0  0  0  0  0  0  0  0  0  0  0  0
    0.7145    1.2375    0.0000 C   0  0  0  0  0  0  0  0  0  0  0  0
    0.7145    2.0625    0.0000 C   0  0  0  0  0  0  0  0  0  0  0  0
  1  2  1  0
  2  3  2  0
  2  8  1  0
  3  4  1  0
  4  5  2  0
  5  6  1  0
  5  7  1  0
  7  8  2  0
  8  9  1  0
M  END
>  <DRUGBANK_ID>  (1) 
DB04052

>  <SECONDARY_ACCESSION_NUMBERS>  (1) 
EXPT00131

>  <COMMON_NAME>  (1) 
3,4-Xylenol

>  <CAS_NUMBER>  (1) 
95-65-8

>  <UNII>  (1) 
4L479F5JU6

>  <SYNONYMS>  (1) 
1-Hydroxy-3,4-dimethylbenzene; 1,3,4-Xylenol; 3,4-Dimethylphenol; 3,4-DMP; 4,5-Dimethylphenol

$$$$
