
     RDKit          2D

  5  4  0  0  0  0  0  0  0  0999 V2000
    0.7145   -0.2062    0.0000 C   0  0  0  0  0  0  0  0  0  0  0  0
    0.0000   -0.6187    0.0000 C   0  0  0  0  0  0  0  0  0  0  0  0
   -0.7145   -0.2062    0.0000 C   0  0  0  0  0  0  0  0  0  0  0  0
    0.7145    0.6187    0.0000 O   0  0  0  0  0  0  0  0  0  0  0  0
   -0.7145    0.6187    0.0000 O   0  0  0  0  0  0  0  0  0  0  0  0
  2  1  1  0
  3  2  1  0
  4  1  2  0
  5  3  2  0
M  END
>  <DRUGBANK_ID>  (1) 
DB03057

>  <SECONDARY_ACCESSION_NUMBERS>  (1) 
EXPT02141

>  <COMMON_NAME>  (1) 
Malonaldehyde

>  <CAS_NUMBER>  (1) 
542-78-9

>  <UNII>  (1) 
4Y8F71G49Q

>  <SYNONYMS>  (1) 
Malondialdehyde; Malonic aldehyde; Malonic dialdehyde; Malonodialdehyde

$$$$
