
     RDKit          2D

 31 34  0  0  1  0  0  0  0  0999 V2000
    7.0380   -1.7116    0.0000 C   0  0  0  0  0  0  0  0  0  0  0  0
    7.0380   -2.5366    0.0000 N   0  0  0  0  0  0  0  0  0  0  0  0
    7.7054   -3.0215    0.0000 N   0  0  0  0  0  0  0  0  0  0  0  0
    7.4505   -3.8062    0.0000 C   0  0  0  0  0  0  0  0  0  0  0  0
    6.6255   -3.8062    0.0000 C   0  0  0  0  0  0  0  0  0  0  0  0
    6.3706   -3.0215    0.0000 C   0  0  0  0  0  0  0  0  0  0  0  0
    5.5859   -2.7666    0.0000 N   0  0  0  0  0  0  0  0  0  0  0  0
    4.9728   -3.3186    0.0000 C   0  0  0  0  0  0  0  0  0  0  0  0
    5.1444   -4.1256    0.0000 N   0  0  0  0  0  0  0  0  0  0  0  0
    4.5313   -4.6776    0.0000 C   0  0  0  0  0  0  0  0  0  0  0  0
    3.7467   -4.4227    0.0000 C   0  0  0  0  0  0  0  0  0  0  0  0
    3.5751   -3.6157    0.0000 C   0  0  0  0  0  0  0  0  0  0  0  0
    4.1882   -3.0637    0.0000 N   0  0  0  0  0  0  0  0  0  0  0  0
    2.7905   -3.3608    0.0000 C   0  0  0  0  0  0  0  0  0  0  0  0
    2.1774   -3.9128    0.0000 C   0  0  0  0  0  0  0  0  0  0  0  0
    1.3928   -3.6579    0.0000 C   0  0  0  0  0  0  0  0  0  0  0  0
    0.7797   -4.2099    0.0000 O   0  0  0  0  0  0  0  0  0  0  0  0
    1.2213   -2.8509    0.0000 N   0  0  0  0  0  0  0  0  0  0  0  0
    1.8344   -2.2989    0.0000 C   0  0  0  0  0  0  0  0  0  0  0  0
    2.6190   -2.5538    0.0000 C   0  0  0  0  0  0  0  0  0  0  0  0
    0.4366   -2.5960    0.0000 C   0  0  0  0  0  0  0  0  0  0  0  0
   -0.1764   -3.1480    0.0000 C   0  0  0  0  0  0  0  0  0  0  0  0
   -0.9611   -2.8931    0.0000 O   0  0  0  0  0  0  0  0  0  0  0  0
    0.2651   -1.7890    0.0000 C   0  0  0  0  0  0  0  0  0  0  0  0
   -0.5195   -1.5340    0.0000 C   0  0  0  0  0  0  0  0  0  0  0  0
   -0.6910   -0.7271    0.0000 C   0  0  0  0  0  0  0  0  0  0  0  0
   -1.4757   -0.4721    0.0000 F   0  0  0  0  0  0  0  0  0  0  0  0
   -0.0779   -0.1750    0.0000 C   0  0  0  0  0  0  0  0  0  0  0  0
   -0.2495    0.6319    0.0000 Cl  0  0  0  0  0  0  0  0  0  0  0  0
    0.7067   -0.4300    0.0000 C   0  0  0  0  0  0  0  0  0  0  0  0
    0.8782   -1.2370    0.0000 C   0  0  0  0  0  0  0  0  0  0  0  0
  1  2  1  0
  2  3  1  0
  2  6  1  0
  3  4  2  0
  4  5  1  0
  5  6  2  0
  6  7  1  0
  7  8  1  0
  8  9  2  0
  8 13  1  0
  9 10  1  0
 10 11  2  0
 11 12  1  0
 12 13  2  0
 12 14  1  0
 14 15  2  0
 14 20  1  0
 15 16  1  0
 16 17  2  0
 16 18  1  0
 18 19  1  0
 19 20  2  0
 21 18  1  0
 21 22  1  6
 21 24  1  0
 22 23  1  0
 24 25  2  0
 24 31  1  0
 25 26  1  0
 26 27  1  0
 26 28  2  0
 28 29  1  0
 28 30  1  0
 30 31  2  0
M  END
>  <DRUGBANK_ID>  (1) 
DB15281

>  <COMMON_NAME>  (1) 
Ravoxertinib

>  <CAS_NUMBER>  (1) 
1453848-26-4

>  <UNII>  (1) 
R6AXV96CRH

>  <SYNONYMS>  (1) 
Ravoxertinib

$$$$
