
     RDKit          2D

 13 13  0  0  0  0  0  0  0  0999 V2000
   -1.4288    0.0000    0.0000 C   0  0  0  0  0  0  0  0  0  0  0  0
   -1.4288   -0.8249    0.0000 C   0  0  0  0  0  0  0  0  0  0  0  0
   -2.1433    0.4125    0.0000 C   0  0  0  0  0  0  0  0  0  0  0  0
   -2.1433   -1.2374    0.0000 C   0  0  0  0  0  0  0  0  0  0  0  0
   -2.8579    0.0000    0.0000 C   0  0  0  0  0  0  0  0  0  0  0  0
   -2.8579   -0.8249    0.0000 C   0  0  0  0  0  0  0  0  0  0  0  0
   -0.7143    0.4125    0.0000 C   0  0  0  0  0  0  0  0  0  0  0  0
    0.0000    0.0000    0.0000 C   0  0  0  0  0  0  0  0  0  0  0  0
    0.7145    0.4125    0.0000 C   0  0  0  0  0  0  0  0  0  0  0  0
    1.4289    0.0000    0.0000 C   0  0  0  0  0  0  0  0  0  0  0  0
    2.8579    0.0000    0.0000 O   0  0  0  0  0  0  0  0  0  0  0  0
    2.1433    0.4124    0.0000 C   0  0  0  0  0  0  0  0  0  0  0  0
    2.1433    1.2373    0.0000 O   0  0  0  0  0  0  0  0  0  0  0  0
  1  7  1  0
  2  1  2  0
  3  1  1  0
  4  2  1  0
  5  3  2  0
  6  4  2  0
  6  5  1  0
  8  7  1  0
  9  8  1  0
 10  9  1  0
 11 12  1  0
 12 10  1  0
 12 13  2  0
M  END
>  <DRUGBANK_ID>  (1) 
DB04051

>  <SECONDARY_ACCESSION_NUMBERS>  (1) 
EXPT00258

>  <COMMON_NAME>  (1) 
5-phenylpentanoic acid

>  <CAS_NUMBER>  (1) 
2270-20-4

>  <UNII>  (1) 
XYJ5U8LCQ8

>  <SYNONYMS>  (1) 
5-Phenylvaleric acid; Benzenepentanoic-acid; Phenylpentanoic acid; Phenylvaleric acid; Î´-phenylvaleric acid

$$$$
