
     RDKit          2D

 25 27  0  0  0  0  0  0  0  0999 V2000
   -0.3562   -0.2062    0.0000 C   0  0  0  0  0  0  0  0  0  0  0  0
   -0.3562    0.6188    0.0000 C   0  0  0  0  0  0  0  0  0  0  0  0
   -1.0730   -0.6188    0.0000 C   0  0  0  0  0  0  0  0  0  0  0  0
    0.3562   -0.6188    0.0000 C   0  0  0  0  0  0  0  0  0  0  0  0
   -1.0730    1.0313    0.0000 N   0  0  0  0  0  0  0  0  0  0  0  0
   -1.7856   -0.2062    0.0000 C   0  0  0  0  0  0  0  0  0  0  0  0
   -1.7856    0.6188    0.0000 C   0  0  0  0  0  0  0  0  0  0  0  0
    1.0730   -0.2062    0.0000 N   0  0  0  0  0  0  0  0  0  0  0  0
   -1.0730   -1.4439    0.0000 O   0  0  0  0  0  0  0  0  0  0  0  0
    0.3562    1.0313    0.0000 O   0  0  0  0  0  0  0  0  0  0  0  0
   -2.5023   -0.6188    0.0000 C   0  0  0  0  0  0  0  0  0  0  0  0
    0.3562   -1.4439    0.0000 O   0  0  0  0  0  0  0  0  0  0  0  0
    1.7856   -0.6188    0.0000 C   0  0  0  0  0  0  0  0  0  0  0  0
   -1.0730    1.8564    0.0000 C   0  0  0  0  0  0  0  0  0  0  0  0
   -2.5023    1.0313    0.0000 C   0  0  0  0  0  0  0  0  0  0  0  0
   -2.5023   -1.4439    0.0000 Cl  0  0  0  0  0  0  0  0  0  0  0  0
    1.0730    0.6188    0.0000 C   0  0  0  0  0  0  0  0  0  0  0  0
   -3.2149    0.6188    0.0000 C   0  0  0  0  0  0  0  0  0  0  0  0
   -3.2149   -0.2062    0.0000 C   0  0  0  0  0  0  0  0  0  0  0  0
    1.7856   -1.4439    0.0000 C   0  0  0  0  0  0  0  0  0  0  0  0
    2.5023   -0.2062    0.0000 C   0  0  0  0  0  0  0  0  0  0  0  0
    1.7856    1.0313    0.0000 C   0  0  0  0  0  0  0  0  0  0  0  0
    2.5023   -1.8564    0.0000 C   0  0  0  0  0  0  0  0  0  0  0  0
    3.2149   -0.6188    0.0000 C   0  0  0  0  0  0  0  0  0  0  0  0
    3.2149   -1.4439    0.0000 C   0  0  0  0  0  0  0  0  0  0  0  0
  2  1  1  0
  3  1  2  0
  4  1  1  0
  5  2  1  0
  6  3  1  0
  6  7  2  0
  7  5  1  0
  8  4  1  0
  9  3  1  0
 10  2  2  0
 11  6  1  0
 12  4  2  0
 13  8  1  0
 14  5  1  0
 15  7  1  0
 16 11  1  0
 17  8  1  0
 18 15  2  0
 19 11  2  0
 19 18  1  0
 20 13  2  0
 21 13  1  0
 22 17  1  0
 23 20  1  0
 24 21  2  0
 24 25  1  0
 25 23  2  0
M  END
>  <DRUGBANK_ID>  (1) 
DB06685

>  <COMMON_NAME>  (1) 
Laquinimod

>  <CAS_NUMBER>  (1) 
248281-84-7

>  <UNII>  (1) 
908SY76S4G

>  <SYNONYMS>  (1) 
Laquinimod

$$$$
