
     RDKit          2D

 32 33  0  0  0  0  0  0  0  0999 V2000
   -1.6903   -1.2224    0.0000 P   0  0  0  0  0  0  0  0  0  0  0  0
   -0.3849   -1.8035    0.0000 P   0  0  0  0  0  0  0  0  0  0  0  0
   -3.2257    0.8108    0.0000 O   0  0  0  0  0  0  0  0  0  0  0  0
   -4.7907   -0.6412    0.0000 O   0  0  0  0  0  0  0  0  0  0  0  0
   -5.3453    1.0657    0.0000 O   0  0  0  0  0  0  0  0  0  0  0  0
   -2.1753   -0.5549    0.0000 O   0  0  0  0  0  0  0  0  0  0  0  0
   -5.3221    2.1207    0.0000 O   0  0  0  0  0  0  0  0  0  0  0  0
   -1.2054   -1.8898    0.0000 O   0  0  0  0  0  0  0  0  0  0  0  0
   -1.0230   -0.7375    0.0000 O   0  0  0  0  0  0  0  0  0  0  0  0
    0.4354   -1.7173    0.0000 O   0  0  0  0  0  0  0  0  0  0  0  0
   -2.3578   -1.7073    0.0000 O   0  0  0  0  0  0  0  0  0  0  0  0
   -3.8932    4.5956    0.0000 O   0  0  0  0  0  0  0  0  0  0  0  0
   -0.2987   -2.6241    0.0000 O   0  0  0  0  0  0  0  0  0  0  0  0
   -0.4712   -0.9831    0.0000 O   0  0  0  0  0  0  0  0  0  0  0  0
   -3.8932    2.1207    0.0000 N   0  0  0  0  0  0  0  0  0  0  0  0
   -4.6076    3.3582    0.0000 N   0  0  0  0  0  0  0  0  0  0  0  0
    4.8366   -4.1284    0.0000 N   0  0  0  0  0  0  0  0  0  0  0  0
   -4.3057    0.0262    0.0000 C   0  0  0  0  0  0  0  0  0  0  0  0
   -4.5606    0.8108    0.0000 C   0  0  0  0  0  0  0  0  0  0  0  0
   -3.4807    0.0262    0.0000 C   0  0  0  0  0  0  0  0  0  0  0  0
   -3.8932    1.2957    0.0000 C   0  0  0  0  0  0  0  0  0  0  0  0
   -2.9957   -0.6412    0.0000 C   0  0  0  0  0  0  0  0  0  0  0  0
   -4.6076    2.5332    0.0000 C   0  0  0  0  0  0  0  0  0  0  0  0
   -3.1787    2.5332    0.0000 C   0  0  0  0  0  0  0  0  0  0  0  0
   -3.1787    3.3582    0.0000 C   0  0  0  0  0  0  0  0  0  0  0  0
   -3.8932    3.7707    0.0000 C   0  0  0  0  0  0  0  0  0  0  0  0
    2.2257   -2.9660    0.0000 C   0  0  0  0  0  0  0  0  0  0  0  0
    3.0462   -2.8798    0.0000 C   0  0  0  0  0  0  0  0  0  0  0  0
    1.7408   -2.2986    0.0000 C   0  0  0  0  0  0  0  0  0  0  0  0
    3.5311   -3.5472    0.0000 C   0  0  0  0  0  0  0  0  0  0  0  0
    0.9204   -2.3848    0.0000 C   0  0  0  0  0  0  0  0  0  0  0  0
    4.3516   -3.4610    0.0000 C   0  0  0  0  0  0  0  0  0  0  0  0
  1  6  1  0
  1  8  1  0
  1  9  1  0
  1 11  2  0
  2  8  1  0
  2 10  1  0
  2 13  1  0
  2 14  2  0
  3 20  1  0
  3 21  1  0
  6 22  1  0
  7 23  2  0
 10 31  1  0
 12 26  2  0
 15 23  1  0
 15 24  1  0
 16 23  1  0
 16 26  1  0
 17 32  1  0
 18  4  1  1
 18 19  1  0
 18 20  1  0
 19  5  1  1
 19 21  1  0
 20 22  1  6
 21 15  1  6
 24 25  2  0
 25 26  1  0
 27 28  1  0
 27 29  1  0
 28 30  1  0
 29 31  1  0
 30 32  1  0
M  END
>  <DRUGBANK_ID>  (1) 
DB02696

>  <SECONDARY_ACCESSION_NUMBERS>  (1) 
EXPT03171

>  <COMMON_NAME>  (1) 
6-Aminohexyl-uridine-C1,5'-diphosphate

>  <CAS_NUMBER>  (1) 
40248-31-5

$$$$
