
     RDKit          2D

 30 33  0  0  1  0  0  0  0  0999 V2000
    3.0458   -0.8264    0.0000 N   0  0  0  0  0  0  0  0  0  0  0  0
    3.0458   -1.6514    0.0000 C   0  0  0  0  0  0  0  0  0  0  0  0
    3.7602   -2.0639    0.0000 N   0  0  0  0  0  0  0  0  0  0  0  0
    3.7602   -2.8889    0.0000 C   0  0  0  0  0  0  0  0  0  0  0  0
    4.4747   -3.3014    0.0000 O   0  0  0  0  0  0  0  0  0  0  0  0
    3.0458   -3.3014    0.0000 N   0  0  0  0  0  0  0  0  0  0  0  0
    2.3313   -2.8889    0.0000 C   0  0  0  0  0  0  0  0  0  0  0  0
    2.3313   -2.0639    0.0000 C   0  0  0  0  0  0  0  0  0  0  0  0
    3.0458   -4.1264    0.0000 C   0  0  0  0  0  0  0  0  0  0  0  0
    3.7132   -4.6114    0.0000 O   0  0  0  0  0  0  0  0  0  0  0  0
    3.4583   -5.3960    0.0000 C   0  0  0  0  0  0  0  0  0  0  0  0
    3.9432   -6.0634    0.0000 C   0  0  0  0  0  0  0  0  0  0  0  0
    4.7637   -5.9772    0.0000 O   0  0  0  0  0  0  0  0  0  0  0  0
    5.2486   -6.6446    0.0000 P   0  0  0  0  0  0  0  0  0  0  0  0
    4.5071   -7.0063    0.0000 O   0  0  0  0  0  0  0  0  0  0  0  0
    5.8217   -6.0512    0.0000 O   0  0  0  0  0  0  0  0  0  0  0  0
    6.6222   -6.2507    0.0000 C   0  0  0  0  0  0  0  0  0  0  0  0
    6.8496   -7.0438    0.0000 C   0  0  0  0  0  0  0  0  0  0  0  0
    6.2765   -7.6372    0.0000 C   0  0  0  0  0  0  0  0  0  0  0  0
    5.4760   -7.4377    0.0000 O   0  0  0  0  0  0  0  0  0  0  0  0
    6.5039   -8.4303    0.0000 C   0  0  0  0  0  0  0  0  0  0  0  0
    7.3044   -8.6299    0.0000 C   0  0  0  0  0  0  0  0  0  0  0  0
    7.5318   -9.4229    0.0000 C   0  0  0  0  0  0  0  0  0  0  0  0
    6.9587  -10.0164    0.0000 N   0  0  0  0  0  0  0  0  0  0  0  0
    6.1582   -9.8168    0.0000 C   0  0  0  0  0  0  0  0  0  0  0  0
    5.9308   -9.0237    0.0000 C   0  0  0  0  0  0  0  0  0  0  0  0
    2.6333   -5.3960    0.0000 C   0  0  0  0  0  0  0  0  0  0  0  0
    2.1483   -6.0634    0.0000 O   0  0  0  0  0  0  0  0  0  0  0  0
    2.3783   -4.6114    0.0000 C   0  0  0  0  0  0  0  0  0  0  0  0
    1.5937   -4.3564    0.0000 O   0  0  0  0  0  0  0  0  0  0  0  0
  1  2  1  0
  2  3  2  0
  2  8  1  0
  3  4  1  0
  4  5  2  0
  4  6  1  0
  6  7  1  0
  7  8  2  0
  9  6  1  6
  9 10  1  0
 11 10  1  0
 11 12  1  6
 12 13  1  0
 14 13  1  0
 14 15  2  0
 14 16  1  0
 14 20  1  0
 16 17  1  0
 17 18  1  0
 19 18  1  0
 19 20  1  0
 19 21  1  1
 21 22  2  0
 21 26  1  0
 22 23  1  0
 23 24  2  0
 24 25  1  0
 25 26  2  0
 27 11  1  0
 27 28  1  1
 27 29  1  0
 29  9  1  0
 29 30  1  6
M  END
>  <DRUGBANK_ID>  (1) 
DB17139

>  <COMMON_NAME>  (1) 
MB07133

>  <CAS_NUMBER>  (1) 
685111-92-6

>  <UNII>  (1) 
BNL5ERR07R

>  <SYNONYMS>  (1) 
(2R,4S)-4-amino-1-(5-O-(2-oxo-4-(4-pyridyl)-1,3,2-dioxaphosphorinan-2-yl)-beta-d-arabinofuranosyl)-2(1H)-pyrimidinone; 2(1h)-pyrimidinone, 4-amino-1-(5-o-((2r,4s)-2-oxido-4-(4-pyridinyl)-1,3,2-dioxaphosphorinan-2-yl)-.beta.-d-arabinofuranosyl)-; 4-amino-1-(5-o-((2r, 4s)-2-oxido-4-(4-pyridinyl)-1, 3, 2-dioxaphosphorinan-2-yl)-.beta.-d-arabinofuranosyl)-2(1h)-pyrimidinone; 4-Amino-1-[5-O-[(2R, 4S)-2-oxido-4-(4-pyridinyl)-1, 3, 2-dioxaphosphorinan-2-yl]-b-D-arabinofuranosyl]-2(1H)-pyrimidinone

$$$$
