
     RDKit          2D

 20 21  0  0  0  0  0  0  0  0999 V2000
   -4.2080   -0.8221    0.0000 C   0  0  0  0  0  0  0  0  0  0  0  0
   -2.0646    0.4154    0.0000 C   0  0  0  0  0  0  0  0  0  0  0  0
    2.0291   -1.9537    0.0000 C   0  0  0  0  0  0  0  0  0  0  0  0
    1.4349    0.8418    0.0000 C   0  0  0  0  0  0  0  0  0  0  0  0
   -3.4935   -1.2346    0.0000 C   0  0  0  0  0  0  0  0  0  0  0  0
   -2.7791    0.0029    0.0000 C   0  0  0  0  0  0  0  0  0  0  0  0
   -2.0646   -1.2346    0.0000 C   0  0  0  0  0  0  0  0  0  0  0  0
   -1.3501   -0.8221    0.0000 C   0  0  0  0  0  0  0  0  0  0  0  0
   -0.5494   -2.0551    0.0000 C   0  0  0  0  0  0  0  0  0  0  0  0
    0.1180   -0.8990    0.0000 C   0  0  0  0  0  0  0  0  0  0  0  0
    0.6700   -1.5121    0.0000 C   0  0  0  0  0  0  0  0  0  0  0  0
    0.3730   -0.1144    0.0000 C   0  0  0  0  0  0  0  0  0  0  0  0
    1.7320   -0.5560    0.0000 C   0  0  0  0  0  0  0  0  0  0  0  0
    0.2575   -2.2266    0.0000 N   0  0  0  0  0  0  0  0  0  0  0  0
    1.4770   -1.3406    0.0000 N   0  0  0  0  0  0  0  0  0  0  0  0
    1.1799    0.0571    0.0000 N   0  0  0  0  0  0  0  0  0  0  0  0
   -2.7791   -0.8221    0.0000 N   0  0  0  0  0  0  0  0  0  0  0  0
   -0.6357   -1.2346    0.0000 N   0  0  0  0  0  0  0  0  0  0  0  0
   -0.1791    0.4987    0.0000 O   0  0  0  0  0  0  0  0  0  0  0  0
    2.5389   -0.3844    0.0000 O   0  0  0  0  0  0  0  0  0  0  0  0
  5  1  1  0
  6  2  1  0
  8  7  1  0
 11 10  2  0
 12 10  1  0
 14  9  2  0
 14 11  1  0
 15  3  1  0
 15 11  1  0
 15 13  1  0
 16  4  1  0
 16 12  1  0
 16 13  1  0
 17  5  1  0
 17  6  1  0
 17  7  1  0
 18  8  1  0
 18  9  1  0
 18 10  1  0
 19 12  2  0
 20 13  2  0
M  END
>  <DRUGBANK_ID>  (1) 
DB13592

>  <COMMON_NAME>  (1) 
Etamiphylline

>  <CAS_NUMBER>  (1) 
314-35-2

>  <UNII>  (1) 
221A91BQ2S

>  <SYNONYMS>  (1) 
Etamiphyllin; Etamiphylline

$$$$
