
     RDKit          2D

  5  4  0  0  0  0  0  0  0  0999 V2000
    0.0000    0.0000    0.0000 P   0  0  0  0  0  0  0  0  0  0  0  0
    0.7145    0.4125    0.0000 O   0  0  0  0  0  0  0  0  0  0  0  0
   -0.7145   -0.4125    0.0000 O   0  0  0  0  0  0  0  0  0  0  0  0
   -0.4125    0.7145    0.0000 O   0  0  0  0  0  0  0  0  0  0  0  0
    0.4125   -0.7145    0.0000 O   0  0  0  0  0  0  0  0  0  0  0  0
  1  2  1  0
  1  3  1  0
  1  4  1  0
  1  5  2  0
M  CHG  3   2  -1   3  -1   4  -1
M  ISO  1   1  32
M  END
>  <DRUGBANK_ID>  (1) 
DB14573

>  <COMMON_NAME>  (1) 
Phosphate ion P-32

>  <CAS_NUMBER>  (1) 
18274-25-4

>  <UNII>  (1) 
N27ADP50ER

>  <SYNONYMS>  (1) 
Phosphate-32; Phosphate-32P

$$$$
