
     RDKit          2D

 20 21  0  0  0  0  0  0  0  0999 V2000
    0.3586    0.5920    0.0000 C   0  0  0  0  0  0  0  0  0  0  0  0
    1.0729    1.0046    0.0000 C   0  0  0  0  0  0  0  0  0  0  0  0
    1.0729    1.8296    0.0000 C   0  0  0  0  0  0  0  0  0  0  0  0
    0.3586    2.2421    0.0000 C   0  0  0  0  0  0  0  0  0  0  0  0
   -0.3658    1.8296    0.0000 C   0  0  0  0  0  0  0  0  0  0  0  0
   -0.3658    1.0046    0.0000 C   0  0  0  0  0  0  0  0  0  0  0  0
    1.7873    0.5920    0.0000 C   0  0  0  0  0  0  0  0  0  0  0  0
    2.5016    1.0046    0.0000 C   0  0  0  0  0  0  0  0  0  0  0  0
    2.5016    1.8296    0.0000 C   0  0  0  0  0  0  0  0  0  0  0  0
    1.7873    2.2421    0.0000 C   0  0  0  0  0  0  0  0  0  0  0  0
    0.3635   -0.2348    0.0000 C   0  0  0  0  0  0  0  0  0  0  0  0
   -0.3500   -0.6529    0.0000 C   0  0  0  0  0  0  0  0  0  0  0  0
   -2.5016   -0.2542    0.0000 C   0  0  0  0  0  0  0  0  0  0  0  0
   -1.7826   -0.6626    0.0000 C   0  0  0  0  0  0  0  0  0  0  0  0
   -1.0691   -0.2445    0.0000 N   0  0  0  0  0  0  0  0  0  0  0  0
   -1.7781   -1.3238    0.0000 O   0  0  0  0  0  0  0  0  0  0  0  0
    0.5079   -1.5176    0.0000 O   0  0  0  0  0  0  0  0  0  0  0  0
   -0.7278   -2.2421    0.0000 O   0  0  0  0  0  0  0  0  0  0  0  0
   -1.0581   -1.8982    0.0000 O   0  0  0  0  0  0  0  0  0  0  0  0
   -0.3444   -1.4798    0.0000 B   0  0  0  0  0  0  0  0  0  0  0  0
  1  2  2  0
  1  6  1  0
  1 11  1  0
  2  3  1  0
  2  7  1  0
  3  4  2  0
  4  5  1  0
  5  6  2  0
  7  8  2  0
  8  9  1  0
 10  3  1  0
 10  9  2  0
 12 11  1  6
 12 15  1  0
 14 13  1  0
 14 15  1  0
 14 16  2  0
 20 12  1  0
 20 17  1  0
 20 18  1  0
 20 19  1  0
M  CHG  1  20  -1
M  END
>  <DRUGBANK_ID>  (1) 
DB08566

>  <COMMON_NAME>  (1) 
D-1-naphthyl-2-acetamido-ethane boronic acid

$$$$
