
     RDKit          2D

 30 34  0  0  0  0  0  0  0  0999 V2000
    2.7323    0.0000    0.0000 C   0  0  0  0  0  0  0  0  0  0  0  0
    2.7323   -0.8197    0.0000 C   0  0  0  0  0  0  0  0  0  0  0  0
    2.0205   -1.2367    0.0000 C   0  0  0  0  0  0  0  0  0  0  0  0
    2.0205   -2.0565    0.0000 C   0  0  0  0  0  0  0  0  0  0  0  0
    2.7323   -2.4735    0.0000 C   0  0  0  0  0  0  0  0  0  0  0  0
    3.4514   -2.0565    0.0000 C   0  0  0  0  0  0  0  0  0  0  0  0
    3.4514   -1.2367    0.0000 C   0  0  0  0  0  0  0  0  0  0  0  0
    4.2351   -0.9779    0.0000 N   0  0  0  0  0  0  0  0  0  0  0  0
    4.7169   -1.6466    0.0000 C   0  0  0  0  0  0  0  0  0  0  0  0
    4.2351   -2.3153    0.0000 N   0  0  0  0  0  0  0  0  0  0  0  0
    5.5438   -1.6466    0.0000 C   0  0  0  0  0  0  0  0  0  0  0  0
    5.9537   -2.3585    0.0000 C   0  0  0  0  0  0  0  0  0  0  0  0
    6.7805   -2.3585    0.0000 C   0  0  0  0  0  0  0  0  0  0  0  0
    7.1904   -1.6466    0.0000 C   0  0  0  0  0  0  0  0  0  0  0  0
    6.7805   -0.9347    0.0000 N   0  0  0  0  0  0  0  0  0  0  0  0
    5.9537   -0.9347    0.0000 C   0  0  0  0  0  0  0  0  0  0  0  0
    5.5438   -0.2157    0.0000 O   0  0  0  0  0  0  0  0  0  0  0  0
    5.5438   -3.0775    0.0000 N   0  0  0  0  0  0  0  0  0  0  0  0
    5.9537   -3.7894    0.0000 C   0  0  0  0  0  0  0  0  0  0  0  0
    5.5438   -4.5012    0.0000 C   0  0  0  0  0  0  0  0  0  0  0  0
    4.7169   -4.5012    0.0000 C   0  0  0  0  0  0  0  0  0  0  0  0
    4.3071   -5.2202    0.0000 C   0  0  0  0  0  0  0  0  0  0  0  0
    4.7169   -5.9321    0.0000 C   0  0  0  0  0  0  0  0  0  0  0  0
    5.5438   -5.9321    0.0000 C   0  0  0  0  0  0  0  0  0  0  0  0
    5.9537   -5.2202    0.0000 N   0  0  0  0  0  0  0  0  0  0  0  0
    1.3087   -2.4735    0.0000 N   0  0  0  0  0  0  0  0  0  0  0  0
    0.5537   -2.1356    0.0000 C   0  0  0  0  0  0  0  0  0  0  0  0
    0.0000   -2.7467    0.0000 C   0  0  0  0  0  0  0  0  0  0  0  0
    0.4098   -3.4658    0.0000 N   0  0  0  0  0  0  0  0  0  0  0  0
    1.2224   -3.2932    0.0000 C   0  0  0  0  0  0  0  0  0  0  0  0
  1  2  1  0
  2  3  2  0
  2  7  1  0
  3  4  1  0
  4  5  2  0
  4 26  1  0
  5  6  1  0
  6  7  2  0
  6 10  1  0
  7  8  1  0
  8  9  2  0
  9 10  1  0
  9 11  1  0
 11 12  2  0
 11 16  1  0
 12 13  1  0
 12 18  1  0
 13 14  2  0
 14 15  1  0
 15 16  1  0
 16 17  2  0
 18 19  1  0
 19 20  1  0
 20 21  2  0
 20 25  1  0
 21 22  1  0
 22 23  2  0
 23 24  1  0
 24 25  2  0
 26 27  1  0
 26 30  1  0
 27 28  2  0
 28 29  1  0
 29 30  2  0
M  END
>  <DRUGBANK_ID>  (1) 
DB07474

>  <COMMON_NAME>  (1) 
3-[5-(1H-IMIDAZOL-1-YL)-7-METHYL-1H-BENZIMIDAZOL-2-YL]-4-[(PYRIDIN-2-YLMETHYL)AMINO]PYRIDIN-2(1H)-ONE

$$$$
