B5R
     RDKit          2D

 28 29  0  0  0  0  0  0  0  0999 V2000
   -2.4672   -1.5902    0.0000 C   0  0  0  0  0  0  0  0  0  0  0  0
   -3.1817   -2.0027    0.0000 C   0  0  0  0  0  0  0  0  0  0  0  0
   -3.1817   -2.8277    0.0000 F   0  0  0  0  0  0  0  0  0  0  0  0
   -3.8962   -1.5902    0.0000 C   0  0  0  0  0  0  0  0  0  0  0  0
   -4.6106   -2.0027    0.0000 Cl  0  0  0  0  0  0  0  0  0  0  0  0
   -3.8962   -0.7652    0.0000 C   0  0  0  0  0  0  0  0  0  0  0  0
   -3.1817   -0.3527    0.0000 C   0  0  0  0  0  0  0  0  0  0  0  0
   -2.4672   -0.7652    0.0000 C   0  0  0  0  0  0  0  0  0  0  0  0
   -1.7527   -0.3527    0.0000 O   0  0  0  0  0  0  0  0  0  0  0  0
   -1.0383   -0.7652    0.0000 C   0  0  0  0  0  0  0  0  0  0  0  0
   -0.3238   -0.3527    0.0000 C   0  0  0  0  0  0  0  0  0  0  0  0
    0.0887   -1.0671    0.0000 O   0  0  0  0  0  0  0  0  0  0  0  0
   -0.7363    0.3618    0.0000 C   0  0  0  0  0  0  0  0  0  0  0  0
    0.3907    0.0598    0.0000 C   0  0  0  0  0  0  0  0  0  0  0  0
    0.3907    0.8848    0.0000 O   0  0  0  0  0  0  0  0  0  0  0  0
    1.1051   -0.3527    0.0000 N   0  0  0  0  0  0  0  0  0  0  0  0
    1.8196    0.0598    0.0000 C   0  0  0  0  0  0  0  0  0  0  0  0
    1.8196    0.8848    0.0000 C   0  0  0  0  0  0  0  0  0  0  0  0
    2.5341   -0.3527    0.0000 C   0  0  0  0  0  0  0  0  0  0  0  0
    3.2486    0.0598    0.0000 C   0  0  0  0  0  0  0  0  0  0  0  0
    3.2486    0.8848    0.0000 C   0  0  0  0  0  0  0  0  0  0  0  0
    3.9630    1.2973    0.0000 C   0  0  0  0  0  0  0  0  0  0  0  0
    4.6775    1.7098    0.0000 N   0  0  0  0  0  0  0  0  0  0  0  0
    2.5341    1.2973    0.0000 C   0  0  0  0  0  0  0  0  0  0  0  0
    2.5341    2.1223    0.0000 C   0  0  0  0  0  0  0  0  0  0  0  0
    2.5341    2.9473    0.0000 F   0  0  0  0  0  0  0  0  0  0  0  0
    3.3591    2.1223    0.0000 F   0  0  0  0  0  0  0  0  0  0  0  0
    1.7091    2.1223    0.0000 F   0  0  0  0  0  0  0  0  0  0  0  0
  1  2  2  0
  1  8  1  0
  2  3  1  0
  2  4  1  0
  4  5  1  0
  4  6  2  0
  6  7  1  0
  7  8  2  0
  8  9  1  0
  9 10  1  0
 10 11  1  0
 11 12  1  0
 11 13  1  6
 11 14  1  0
 14 15  2  0
 14 16  1  0
 16 17  1  0
 17 18  2  0
 17 19  1  0
 18 24  1  0
 19 20  2  0
 20 21  1  0
 21 22  1  0
 21 24  2  0
 22 23  3  0
 24 25  1  0
 25 26  1  0
 25 27  1  0
 25 28  1  0
M  END
>  <DRUGBANK_ID>  (1) 
DB07419

>  <COMMON_NAME>  (1) 
S-23

>  <CAS_NUMBER>  (1) 
1010396-29-8

>  <UNII>  (1) 
XDK89456WM

>  <SYNONYMS>  (1) 
(+)-S-23; (2S)-3-(4-Chloro-3-fluorophenoxy)-N-(4-cyano-3-(trifluoromethyl)phenyl)-2-hydroxy-2-methylpropanamide; CCTH-methylpropionamide

$$$$
