
     RDKit          2D

 29 33  0  0  0  0  0  0  0  0999 V2000
    0.8761   -3.7687    0.0000 N   0  0  0  0  0  0  0  0  0  0  0  0
    0.0691   -3.5972    0.0000 N   0  0  0  0  0  0  0  0  0  0  0  0
   -0.7316   -2.3642    0.0000 N   0  0  0  0  0  0  0  0  0  0  0  0
   -0.0170   -1.1266    0.0000 N   0  0  0  0  0  0  0  0  0  0  0  0
   -0.7316    0.1108    0.0000 N   0  0  0  0  0  0  0  0  0  0  0  0
    0.6974    0.1108    0.0000 N   0  0  0  0  0  0  0  0  0  0  0  0
    2.1263    4.2360    0.0000 N   0  0  0  0  0  0  0  0  0  0  0  0
    2.1092   -2.9680    0.0000 C   0  0  0  0  0  0  0  0  0  0  0  0
    2.8628   -3.3036    0.0000 C   0  0  0  0  0  0  0  0  0  0  0  0
    2.7766   -2.4831    0.0000 C   0  0  0  0  0  0  0  0  0  0  0  0
    1.2886   -3.0542    0.0000 C   0  0  0  0  0  0  0  0  0  0  0  0
    0.7365   -2.4411    0.0000 C   0  0  0  0  0  0  0  0  0  0  0  0
   -0.0170   -2.7767    0.0000 C   0  0  0  0  0  0  0  0  0  0  0  0
   -0.7316   -1.5391    0.0000 C   0  0  0  0  0  0  0  0  0  0  0  0
   -1.4461   -1.1266    0.0000 C   0  0  0  0  0  0  0  0  0  0  0  0
    0.6974    2.5860    0.0000 C   0  0  0  0  0  0  0  0  0  0  0  0
   -1.4461   -0.3016    0.0000 C   0  0  0  0  0  0  0  0  0  0  0  0
   -2.1836   -1.5677    0.0000 C   0  0  0  0  0  0  0  0  0  0  0  0
   -0.0170   -0.3016    0.0000 C   0  0  0  0  0  0  0  0  0  0  0  0
    1.4118    2.1734    0.0000 C   0  0  0  0  0  0  0  0  0  0  0  0
   -0.0170    2.1734    0.0000 C   0  0  0  0  0  0  0  0  0  0  0  0
    0.6974    0.9359    0.0000 C   0  0  0  0  0  0  0  0  0  0  0  0
    0.6974    3.4110    0.0000 C   0  0  0  0  0  0  0  0  0  0  0  0
   -2.1836    0.1395    0.0000 C   0  0  0  0  0  0  0  0  0  0  0  0
    1.4118    1.3484    0.0000 C   0  0  0  0  0  0  0  0  0  0  0  0
   -0.0170    1.3484    0.0000 C   0  0  0  0  0  0  0  0  0  0  0  0
   -2.9312   -1.1438    0.0000 C   0  0  0  0  0  0  0  0  0  0  0  0
   -2.9312   -0.2844    0.0000 C   0  0  0  0  0  0  0  0  0  0  0  0
    1.4118    3.8235    0.0000 C   0  0  0  0  0  0  0  0  0  0  0  0
  1  2  1  0
  1 11  1  0
  2 13  2  0
  3 13  1  0
  3 14  1  0
  4 14  2  0
  4 19  1  0
  5 17  1  0
  5 19  2  0
  6 19  1  0
  6 22  2  3
  7 29  3  0
  8  9  1  0
  8 10  1  0
  8 11  1  0
  9 10  1  0
 11 12  2  0
 12 13  1  0
 14 15  1  0
 15 17  2  0
 15 18  1  0
 16 20  1  0
 16 21  1  0
 16 23  1  0
 17 24  1  0
 18 27  2  0
 20 25  2  0
 21 26  2  0
 22 25  1  0
 22 26  1  0
 23 29  1  0
 24 28  2  0
 27 28  1  0
M  END
>  <DRUGBANK_ID>  (1) 
DB07853

>  <COMMON_NAME>  (1) 
2-[4-[4-[(5-cyclopropyl-1H-pyrazol-3-yl)amino]quinazolin-2-yl]iminocyclohexa-2,5-dien-1-yl]acetonitrile

$$$$
