C02
     RDKit          2D

 30 33  0  0  0  0  0  0  0  0999 V2000
   -3.9222    2.9617    0.0000 N   0  0  0  0  0  0  0  0  0  0  0  0
   -3.0972    2.9617    0.0000 C   0  0  0  0  0  0  0  0  0  0  0  0
   -2.6847    3.6762    0.0000 N   0  0  0  0  0  0  0  0  0  0  0  0
   -2.6847    2.2473    0.0000 C   0  0  0  0  0  0  0  0  0  0  0  0
   -1.8597    2.2473    0.0000 C   0  0  0  0  0  0  0  0  0  0  0  0
   -1.4472    1.5328    0.0000 C   0  0  0  0  0  0  0  0  0  0  0  0
   -1.8597    0.8183    0.0000 C   0  0  0  0  0  0  0  0  0  0  0  0
   -2.6847    0.8183    0.0000 C   0  0  0  0  0  0  0  0  0  0  0  0
   -3.0972    1.5328    0.0000 C   0  0  0  0  0  0  0  0  0  0  0  0
   -1.4472    0.1039    0.0000 C   0  0  0  0  0  0  0  0  0  0  0  0
   -0.6222    0.1039    0.0000 C   0  0  0  0  0  0  0  0  0  0  0  0
   -0.1373   -0.5636    0.0000 N   0  0  0  0  0  0  0  0  0  0  0  0
    0.6473   -0.3086    0.0000 C   0  0  0  0  0  0  0  0  0  0  0  0
    0.6473    0.5164    0.0000 C   0  0  0  0  0  0  0  0  0  0  0  0
   -0.1373    0.7713    0.0000 N   0  0  0  0  0  0  0  0  0  0  0  0
   -0.3922    1.5559    0.0000 C   0  0  0  0  0  0  0  0  0  0  0  0
    1.3618    0.9289    0.0000 C   0  0  0  0  0  0  0  0  0  0  0  0
    2.0763    0.5164    0.0000 C   0  0  0  0  0  0  0  0  0  0  0  0
    2.0763   -0.3086    0.0000 C   0  0  0  0  0  0  0  0  0  0  0  0
    1.3618   -0.7211    0.0000 C   0  0  0  0  0  0  0  0  0  0  0  0
    2.7907   -0.7211    0.0000 N   0  0  0  0  0  0  0  0  0  0  0  0
    2.7907   -1.5461    0.0000 S   0  0  0  0  0  0  0  0  0  0  0  0
    2.7907   -2.3711    0.0000 C   0  0  0  0  0  0  0  0  0  0  0  0
    3.5052   -2.7836    0.0000 C   0  0  0  0  0  0  0  0  0  0  0  0
    3.5052   -3.6086    0.0000 C   0  0  0  0  0  0  0  0  0  0  0  0
    2.7907   -4.0211    0.0000 C   0  0  0  0  0  0  0  0  0  0  0  0
    2.0763   -3.6086    0.0000 C   0  0  0  0  0  0  0  0  0  0  0  0
    2.0763   -2.7836    0.0000 C   0  0  0  0  0  0  0  0  0  0  0  0
    1.9657   -1.5461    0.0000 O   0  0  0  0  0  0  0  0  0  0  0  0
    3.6157   -1.5461    0.0000 O   0  0  0  0  0  0  0  0  0  0  0  0
  1  2  2  0
  2  3  1  0
  2  4  1  0
  4  5  2  0
  4  9  1  0
  5  6  1  0
  6  7  2  0
  7  8  1  0
  7 10  1  0
  8  9  2  0
 10 11  1  0
 11 12  2  0
 11 15  1  0
 12 13  1  0
 13 14  2  0
 13 20  1  0
 14 15  1  0
 14 17  1  0
 15 16  1  0
 17 18  2  0
 18 19  1  0
 19 20  2  0
 19 21  1  0
 21 22  1  0
 22 23  1  0
 22 29  2  0
 22 30  2  0
 23 24  2  0
 23 28  1  0
 24 25  1  0
 25 26  2  0
 26 27  1  0
 27 28  2  0
M  END
>  <DRUGBANK_ID>  (1) 
DB07508

>  <COMMON_NAME>  (1) 
4-(5-BENZENESULFONYLAMINO-1-METHYL-1H-BENZOIMIDAZOL-2-YLMETHYL)-BENZAMIDINE

$$$$
