
     RDKit          2D

 28 30  0  0  0  0  0  0  0  0999 V2000
    1.0438    1.8076    0.0000 S   0  0  0  0  0  0  0  0  0  0  0  0
   -1.0438    0.3524    0.0000 O   0  0  0  0  0  0  0  0  0  0  0  0
   -3.1406    0.7681    0.0000 O   0  0  0  0  0  0  0  0  0  0  0  0
   -2.0832    2.2142    0.0000 O   0  0  0  0  0  0  0  0  0  0  0  0
    0.3750    1.3194    0.0000 O   0  0  0  0  0  0  0  0  0  0  0  0
    0.5558    2.4763    0.0000 O   0  0  0  0  0  0  0  0  0  0  0  0
    1.5228    1.1388    0.0000 O   0  0  0  0  0  0  0  0  0  0  0  0
    2.5441    1.1296    0.0000 O   0  0  0  0  0  0  0  0  0  0  0  0
   -2.0923   -0.6869    0.0000 N   0  0  0  0  0  0  0  0  0  0  0  0
   -2.0923   -2.0154    0.0000 N   0  0  0  0  0  0  0  0  0  0  0  0
   -3.5835   -0.5242    0.0000 N   0  0  0  0  0  0  0  0  0  0  0  0
    1.7126    2.2865    0.0000 N   0  0  0  0  0  0  0  0  0  0  0  0
   -4.2974   -1.7623    0.0000 N   0  0  0  0  0  0  0  0  0  0  0  0
   -3.5835   -3.0005    0.0000 N   0  0  0  0  0  0  0  0  0  0  0  0
    3.8817    2.0967    0.0000 N   0  0  0  0  0  0  0  0  0  0  0  0
   -2.3182    0.7681    0.0000 C   0  0  0  0  0  0  0  0  0  0  0  0
   -1.8301    1.4369    0.0000 C   0  0  0  0  0  0  0  0  0  0  0  0
   -1.8301    0.0994    0.0000 C   0  0  0  0  0  0  0  0  0  0  0  0
   -1.0438    1.1749    0.0000 C   0  0  0  0  0  0  0  0  0  0  0  0
   -0.3750    1.6629    0.0000 C   0  0  0  0  0  0  0  0  0  0  0  0
   -2.8695   -0.9400    0.0000 C   0  0  0  0  0  0  0  0  0  0  0  0
   -1.6041   -1.3466    0.0000 C   0  0  0  0  0  0  0  0  0  0  0  0
   -2.8695   -1.7623    0.0000 C   0  0  0  0  0  0  0  0  0  0  0  0
   -3.5835   -2.1690    0.0000 C   0  0  0  0  0  0  0  0  0  0  0  0
   -4.2974   -0.9400    0.0000 C   0  0  0  0  0  0  0  0  0  0  0  0
    2.4627    1.9521    0.0000 C   0  0  0  0  0  0  0  0  0  0  0  0
    3.1316    2.4402    0.0000 C   0  0  0  0  0  0  0  0  0  0  0  0
    3.0503    3.2536    0.0000 C   0  0  0  0  0  0  0  0  0  0  0  0
  1  5  1  0
  1  6  2  0
  1  7  2  0
  1 12  1  0
  2 18  1  0
  2 19  1  0
  5 20  1  0
  8 26  2  0
  9 21  1  0
  9 22  1  0
 10 22  2  0
 10 23  1  0
 11 21  1  0
 11 25  2  0
 12 26  1  0
 13 24  2  0
 13 25  1  0
 14 24  1  0
 16  3  1  6
 16 17  1  0
 16 18  1  0
 17  4  1  6
 17 19  1  0
 18  9  1  1
 19 20  1  1
 21 23  2  0
 23 24  1  0
 26 27  1  0
 27 15  1  0
 27 28  1  6
M  END
>  <DRUGBANK_ID>  (1) 
DB03376

>  <SECONDARY_ACCESSION_NUMBERS>  (1) 
EXPT00374

>  <COMMON_NAME>  (1) 
5'-O-(N-(Alanyl)sulfamoyl)adenosine

>  <CAS_NUMBER>  (1) 
112921-04-7

>  <UNII>  (1) 
48GG0U2X78

>  <SYNONYMS>  (1) 
Ala-SA; AlaSA

$$$$
