Betulinic acid
     RDKit          2D

 33 37  0  0  1  0  0  0  0  0999 V2000
    3.4724    2.9438    0.0000 O   0  0  0  0  0  0  0  0  0  0  0  0
   10.5837    5.4030    0.0000 O   0  0  0  0  0  0  0  0  0  0  0  0
    9.9030    4.2026    0.0000 O   0  0  0  0  0  0  0  0  0  0  0  0
    7.0795    4.1807    0.0000 C   0  0  0  0  0  0  0  0  0  0  0  0
    7.7695    4.5791    0.0000 C   0  0  0  0  0  0  0  0  0  0  0  0
    6.3895    4.5791    0.0000 C   0  0  0  0  0  0  0  0  0  0  0  0
    7.7695    5.3759    0.0000 C   0  0  0  0  0  0  0  0  0  0  0  0
    5.6644    4.1752    0.0000 C   0  0  0  0  0  0  0  0  0  0  0  0
    8.4818    5.8018    0.0000 C   0  0  0  0  0  0  0  0  0  0  0  0
    5.6579    3.3453    0.0000 C   0  0  0  0  0  0  0  0  0  0  0  0
    9.2037    5.3924    0.0000 C   0  0  0  0  0  0  0  0  0  0  0  0
    7.0923    3.3508    0.0000 C   0  0  0  0  0  0  0  0  0  0  0  0
    6.3895    5.3759    0.0000 C   0  0  0  0  0  0  0  0  0  0  0  0
    8.4818    4.1530    0.0000 C   0  0  0  0  0  0  0  0  0  0  0  0
    7.0795    5.7743    0.0000 C   0  0  0  0  0  0  0  0  0  0  0  0
    6.3767    2.9303    0.0000 C   0  0  0  0  0  0  0  0  0  0  0  0
    9.2037    4.5624    0.0000 C   0  0  0  0  0  0  0  0  0  0  0  0
    4.9126    2.9073    0.0000 C   0  0  0  0  0  0  0  0  0  0  0  0
    8.6492    6.6097    0.0000 C   0  0  0  0  0  0  0  0  0  0  0  0
    4.9259    4.6247    0.0000 C   0  0  0  0  0  0  0  0  0  0  0  0
    7.5917    3.5703    0.0000 C   0  0  0  0  0  0  0  0  0  0  0  0
    8.0421    3.8303    0.0000 C   0  0  0  0  0  0  0  0  0  0  0  0
    9.8111    5.9507    0.0000 C   0  0  0  0  0  0  0  0  0  0  0  0
    9.4691    6.7016    0.0000 C   0  0  0  0  0  0  0  0  0  0  0  0
    5.6705    4.9720    0.0000 C   0  0  0  0  0  0  0  0  0  0  0  0
    4.1640    3.3395    0.0000 C   0  0  0  0  0  0  0  0  0  0  0  0
    4.1706    4.2040    0.0000 C   0  0  0  0  0  0  0  0  0  0  0  0
    9.8968    4.9994    0.0000 C   0  0  0  0  0  0  0  0  0  0  0  0
    4.5170    2.2157    0.0000 C   0  0  0  0  0  0  0  0  0  0  0  0
    5.3137    2.2188    0.0000 C   0  0  0  0  0  0  0  0  0  0  0  0
    8.1125    7.1987    0.0000 C   0  0  0  0  0  0  0  0  0  0  0  0
    8.3542    7.9579    0.0000 C   0  0  0  0  0  0  0  0  0  0  0  0
    7.3341    7.0283    0.0000 C   0  0  0  0  0  0  0  0  0  0  0  0
  2 28  1  0
  3 28  2  0
  4  5  1  0
  4  6  1  0
  4 12  1  0
  4 21  1  1
  5  7  1  0
  5 14  1  0
  5 22  1  6
  6  8  1  0
  6 13  1  1
  7  9  1  0
  7 15  1  6
  8 10  1  0
  8 20  1  0
  8 25  1  1
  9 11  1  0
  9 19  1  1
 10 16  1  1
 10 18  1  0
 11 17  1  0
 11 23  1  0
 11 28  1  1
 12 16  1  0
 13 15  1  0
 14 17  1  0
 18 26  1  0
 18 29  1  0
 18 30  1  0
 19 24  1  0
 19 31  1  6
 20 27  1  0
 23 24  1  0
 26  1  1  1
 26 27  1  0
 31 32  1  0
 31 33  2  0
M  END
>  <DRUGBANK_ID>  (1) 
DB12480

>  <SECONDARY_ACCESSION_NUMBERS>  (1) 
DB05910

>  <COMMON_NAME>  (1) 
Betulinic Acid

>  <CAS_NUMBER>  (1) 
472-15-1

>  <UNII>  (1) 
4G6A18707N

>  <SYNONYMS>  (1) 
beta-betulinic acid

$$$$
