
     RDKit          2D

 21 23  0  0  0  0  0  0  0  0999 V2000
   -3.5453   -0.2546    0.0000 Cl  0  0  0  0  0  0  0  0  0  0  0  0
   -3.5453   -1.9046    0.0000 Cl  0  0  0  0  0  0  0  0  0  0  0  0
    1.0222   -1.6520    0.0000 O   0  0  0  0  0  0  0  0  0  0  0  0
    0.9385    2.0429    0.0000 N   0  0  0  0  0  0  0  0  0  0  0  0
    1.3326    0.4354    0.0000 C   0  0  0  0  0  0  0  0  0  0  0  0
    1.5461    1.2323    0.0000 C   0  0  0  0  0  0  0  0  0  0  0  0
    0.0661   -0.5901    0.0000 C   0  0  0  0  0  0  0  0  0  0  0  0
   -0.6875   -0.2546    0.0000 C   0  0  0  0  0  0  0  0  0  0  0  0
   -0.6013    0.5659    0.0000 C   0  0  0  0  0  0  0  0  0  0  0  0
    2.8439   -0.1906    0.0000 C   0  0  0  0  0  0  0  0  0  0  0  0
    3.0575    0.6063    0.0000 C   0  0  0  0  0  0  0  0  0  0  0  0
    0.2377   -1.3971    0.0000 C   0  0  0  0  0  0  0  0  0  0  0  0
   -1.4019   -0.6671    0.0000 C   0  0  0  0  0  0  0  0  0  0  0  0
    0.5259    2.7573    0.0000 C   0  0  0  0  0  0  0  0  0  0  0  0
   -2.1164   -0.2546    0.0000 C   0  0  0  0  0  0  0  0  0  0  0  0
   -1.4019   -1.4921    0.0000 C   0  0  0  0  0  0  0  0  0  0  0  0
    1.1938   -2.4589    0.0000 C   0  0  0  0  0  0  0  0  0  0  0  0
   -2.8309   -0.6671    0.0000 C   0  0  0  0  0  0  0  0  0  0  0  0
   -2.1164   -1.9046    0.0000 C   0  0  0  0  0  0  0  0  0  0  0  0
   -2.8309   -1.4921    0.0000 C   0  0  0  0  0  0  0  0  0  0  0  0
    1.9784   -2.7139    0.0000 C   0  0  0  0  0  0  0  0  0  0  0  0
  1 18  1  0
  2 20  1  0
  3 12  1  0
  3 17  1  0
  4  5  1  0
  4  6  1  0
  4 14  1  0
  5  7  1  0
  5 10  1  6
  6  9  1  1
  6 11  1  0
  7  8  1  0
  7 12  1  6
  8  9  1  0
  8 13  1  1
 10 11  1  0
 13 15  2  0
 13 16  1  0
 15 18  1  0
 16 19  2  0
 17 21  1  0
 18 20  2  0
 19 20  1  0
M  END
>  <DRUGBANK_ID>  (1) 
DB06156

>  <COMMON_NAME>  (1) 
Tesofensine

>  <CAS_NUMBER>  (1) 
195875-84-4

>  <UNII>  (1) 
BLH9UKX9V1

>  <SYNONYMS>  (1) 
Tesofensine

$$$$
