
     RDKit          2D

 14 13  0  0  0  0  0  0  0  0999 V2000
   -0.1710    0.1996    0.0000 C   0  0  0  0  0  0  0  0  0  0  0  0
   -1.6171    0.1996    0.0000 C   0  0  0  0  0  0  0  0  0  0  0  0
   -0.8983   -0.2053    0.0000 C   0  0  0  0  0  0  0  0  0  0  0  0
   -0.1710    1.0126    0.0000 O   0  0  0  0  0  0  0  0  0  0  0  0
    0.5191   -0.2053    0.0000 N   0  0  0  0  0  0  0  0  0  0  0  0
   -0.8983   -1.0182    0.0000 O   0  0  0  0  0  0  0  0  0  0  0  0
   -2.3786    0.6160    0.0000 C   0  0  0  0  0  0  0  0  0  0  0  0
    1.9594   -0.2053    0.0000 C   0  0  0  0  0  0  0  0  0  0  0  0
   -2.3529   -0.3508    0.0000 C   0  0  0  0  0  0  0  0  0  0  0  0
   -1.6285    1.0181    0.0000 C   0  0  0  0  0  0  0  0  0  0  0  0
   -3.2713    0.0342    0.0000 O   0  0  0  0  0  0  0  0  0  0  0  0
    3.2713   -0.1369    0.0000 O   0  0  0  0  0  0  0  0  0  0  0  0
    1.2407    0.1996    0.0000 C   0  0  0  0  0  0  0  0  0  0  0  0
    2.6525    0.1996    0.0000 C   0  0  0  0  0  0  0  0  0  0  0  0
  2  3  1  0
  3  1  1  0
  3  6  1  0
  4  1  2  0
  5  1  1  0
  7  2  1  0
  8 13  1  0
  9  2  1  0
 10  2  1  0
 11  7  1  0
 12 14  1  0
 13  5  1  0
 14  8  1  0
M  END
>  <DRUGBANK_ID>  (1) 
DB11204

>  <COMMON_NAME>  (1) 
Panthenol

>  <CAS_NUMBER>  (1) 
16485-10-2

>  <UNII>  (1) 
WV9CM0O67Z

>  <SYNONYMS>  (1) 
DL-panthenol; DL-Pantothenol; Pantenol; Panthenol; Panthenolum

$$$$
