
     RDKit          2D

 30 35  0  0  0  0  0  0  0  0999 V2000
   -3.5276   -0.7462    0.0000 C   0  0  0  0  0  0  0  0  0  0  0  0
   -2.8133   -1.9837    0.0000 C   0  0  0  0  0  0  0  0  0  0  0  0
   -1.3842   -1.9837    0.0000 C   0  0  0  0  0  0  0  0  0  0  0  0
   -0.6698   -1.5712    0.0000 C   0  0  0  0  0  0  0  0  0  0  0  0
   -0.6698    0.9037    0.0000 C   0  0  0  0  0  0  0  0  0  0  0  0
   -1.3842    0.4912    0.0000 C   0  0  0  0  0  0  0  0  0  0  0  0
    0.8292   -0.5886    0.0000 C   0  0  0  0  0  0  0  0  0  0  0  0
   -2.8133   -0.3337    0.0000 C   0  0  0  0  0  0  0  0  0  0  0  0
   -3.5276   -1.5712    0.0000 C   0  0  0  0  0  0  0  0  0  0  0  0
   -4.2421   -1.9837    0.0000 O   0  0  0  0  0  0  0  0  0  0  0  0
    1.3142    0.0787    0.0000 C   0  0  0  0  0  0  0  0  0  0  0  0
    2.0988    0.3336    0.0000 O   0  0  0  0  0  0  0  0  0  0  0  0
   -1.3842   -0.3337    0.0000 C   0  0  0  0  0  0  0  0  0  0  0  0
    0.0446   -0.3337    0.0000 C   0  0  0  0  0  0  0  0  0  0  0  0
    0.8292    0.7461    0.0000 C   0  0  0  0  0  0  0  0  0  0  0  0
    0.0446    0.4912    0.0000 C   0  0  0  0  0  0  0  0  0  0  0  0
    0.0446    1.3162    0.0000 C   0  0  0  0  0  0  0  0  0  0  0  0
   -0.6698   -0.7462    0.0000 C   0  0  0  0  0  0  0  0  0  0  0  0
   -2.0987   -0.7462    0.0000 C   0  0  0  0  0  0  0  0  0  0  0  0
   -2.0987    0.0787    0.0000 C   0  0  0  0  0  0  0  0  0  0  0  0
   -2.0987   -1.5712    0.0000 C   0  0  0  0  0  0  0  0  0  0  0  0
    1.3142    1.4136    0.0000 C   0  0  0  0  0  0  0  0  0  0  0  0
    1.1303    2.2386    0.0000 C   0  0  0  0  0  0  0  0  0  0  0  0
    2.8131    0.7461    0.0000 C   0  0  0  0  0  0  0  0  0  0  0  0
    3.5276    1.1586    0.0000 C   0  0  0  0  0  0  0  0  0  0  0  0
    2.8131    2.3962    0.0000 C   0  0  0  0  0  0  0  0  0  0  0  0
    2.0988    1.1586    0.0000 C   0  0  0  0  0  0  0  0  0  0  0  0
    2.0988    1.9837    0.0000 O   0  0  0  0  0  0  0  0  0  0  0  0
    3.5276    1.9837    0.0000 C   0  0  0  0  0  0  0  0  0  0  0  0
    4.2422    2.3962    0.0000 C   0  0  0  0  0  0  0  0  0  0  0  0
  1  9  1  0
  3  4  1  0
  5  6  1  0
  8  1  1  0
  9  2  1  0
  9 10  1  1
 11  7  1  1
 11 12  1  0
 13  6  1  1
 13 19  1  0
 14  7  1  1
 14 18  1  0
 14 16  1  0
 15 11  1  1
 15 22  1  0
 16  5  1  0
 16 15  1  0
 16 17  1  1
 18  4  1  6
 18 13  1  0
 19  8  1  0
 19 21  1  0
 19 20  1  1
 21  2  1  6
 21  3  1  0
 22 27  1  0
 22 23  1  6
 24 25  1  0
 25 29  1  0
 26 28  1  0
 27 12  1  0
 27 24  1  1
 27 28  1  0
 29 26  1  0
 29 30  1  6
M  END
>  <DRUGBANK_ID>  (1) 
DB05450

>  <COMMON_NAME>  (1) 
Smilagenin

>  <CAS_NUMBER>  (1) 
126-18-1

>  <UNII>  (1) 
GQE3Q7YMVZ

>  <SYNONYMS>  (1) 
(25R)-5beta-Spirostan-3beta-ol; (25R)-Spirostan-3beta-ol; Isosarsapogenin; Smilagenin

$$$$
