
     RDKit          2D

 11 10  0  0  0  0  0  0  0  0999 V2000
    2.8578   -0.6187    0.0000 C   0  0  0  0  0  0  0  0  0  0  0  0
   -2.8578   -0.6187    0.0000 C   0  0  0  0  0  0  0  0  0  0  0  0
    1.4289   -0.6187    0.0000 C   0  0  0  0  0  0  0  0  0  0  0  0
   -1.4289   -0.6187    0.0000 C   0  0  0  0  0  0  0  0  0  0  0  0
    0.7144   -0.2062    0.0000 C   0  0  0  0  0  0  0  0  0  0  0  0
   -0.7144   -0.2062    0.0000 C   0  0  0  0  0  0  0  0  0  0  0  0
    2.1434   -0.2062    0.0000 C   0  0  0  0  0  0  0  0  0  0  0  0
   -2.1434   -0.2062    0.0000 C   0  0  0  0  0  0  0  0  0  0  0  0
    2.1434    0.6187    0.0000 O   0  0  0  0  0  0  0  0  0  0  0  0
   -2.1434    0.6187    0.0000 O   0  0  0  0  0  0  0  0  0  0  0  0
    0.0000   -0.6187    0.0000 O   0  0  0  0  0  0  0  0  0  0  0  0
  5  3  1  0
  6  4  1  0
  7  1  1  0
  7  3  1  0
  8  2  1  0
  8  4  1  0
  9  7  1  0
 10  8  1  0
 11  5  1  0
 11  6  1  0
M  END
>  <DRUGBANK_ID>  (1) 
DB14079

>  <COMMON_NAME>  (1) 
Hydroxybutyloxide

>  <CAS_NUMBER>  (1) 
821-33-0

>  <UNII>  (1) 
CR6X2Y7NRR

>  <SYNONYMS>  (1) 
4,4'-Oxydi-2-butanol; bis(3-hydroxybutyl) ether; Colenormol; Dihydroxydibutylether; Diskin; Dyskinebyl

$$$$
