
     RDKit          2D

 13 14  0  0  0  0  0  0  0  0999 V2000
   -0.8928   -1.0834    0.0000 N   0  0  0  0  0  0  0  0  0  0  0  0
   -1.6073   -1.4959    0.0000 C   0  0  0  0  0  0  0  0  0  0  0  0
   -1.6073   -2.3210    0.0000 C   0  0  0  0  0  0  0  0  0  0  0  0
   -0.8928   -2.7334    0.0000 N   0  0  0  0  0  0  0  0  0  0  0  0
   -0.1783   -2.3210    0.0000 C   0  0  0  0  0  0  0  0  0  0  0  0
   -0.1783   -1.4959    0.0000 C   0  0  0  0  0  0  0  0  0  0  0  0
   -0.8928   -0.2584    0.0000 C   0  0  0  0  0  0  0  0  0  0  0  0
   -0.1784    0.1539    0.0000 C   0  0  0  0  0  0  0  0  0  0  0  0
   -0.1784    0.9790    0.0000 C   0  0  0  0  0  0  0  0  0  0  0  0
   -0.8928    1.3916    0.0000 C   0  0  0  0  0  0  0  0  0  0  0  0
   -1.6073    0.9791    0.0000 C   0  0  0  0  0  0  0  0  0  0  0  0
   -1.6073    0.1540    0.0000 C   0  0  0  0  0  0  0  0  0  0  0  0
    0.5360    1.3915    0.0000 Cl  0  0  0  0  0  0  0  0  0  0  0  0
  1  2  1  0
  1  6  1  0
  1  7  1  0
  2  3  1  0
  3  4  1  0
  4  5  1  0
  5  6  1  0
  7  8  2  0
  8  9  1  0
  9 10  2  0
  9 13  1  0
 10 11  1  0
 11 12  2  0
 12  7  1  0
M  END
>  <DRUGBANK_ID>  (1) 
DB12110

>  <COMMON_NAME>  (1) 
m-Chlorophenylpiperazine

>  <CAS_NUMBER>  (1) 
6640-24-0

>  <UNII>  (1) 
REY0CNO998

>  <SYNONYMS>  (1) 
1-(3-chlorophenyl)piperazine; M-CPP; MCPP

$$$$
