
     RDKit          2D

 14 12  0  0  1  0  0  0  0  0999 V2000
    3.7125   -2.1434    0.0000 C   0  0  0  0  0  0  0  0  0  0  0  0
    4.4270   -2.5559    0.0000 C   0  0  0  0  0  0  0  0  0  0  0  0
    5.1414   -2.1434    0.0000 C   0  0  0  0  0  0  0  0  0  0  0  0
    5.8559   -2.5559    0.0000 C   0  0  0  0  0  0  0  0  0  0  0  0
    6.5704   -2.1434    0.0000 C   0  0  0  0  0  0  0  0  0  0  0  0
    7.2849   -2.5559    0.0000 C   0  0  0  0  0  0  0  0  0  0  0  0
    2.9980   -2.5559    0.0000 O   0  0  0  0  0  0  0  0  0  0  0  0
    4.4270   -3.3809    0.0000 O   0  0  0  0  0  0  0  0  0  0  0  0
    5.1414   -1.3184    0.0000 O   0  0  0  0  0  0  0  0  0  0  0  0
    5.8559   -3.3809    0.0000 O   0  0  0  0  0  0  0  0  0  0  0  0
    6.5704   -1.3184    0.0000 O   0  0  0  0  0  0  0  0  0  0  0  0
    7.2849   -3.3809    0.0000 O   0  0  0  0  0  0  0  0  0  0  0  0
    7.9993   -2.1434    0.0000 O   0  0  0  0  0  0  0  0  0  0  0  0
    8.7138   -1.7309    0.0000 K   0  0  0  0  0 15  0  0  0  0  0  0
  2  1  1  0
  2  8  1  6
  3  2  1  0
  3  9  1  1
  4  3  1  0
  4 10  1  1
  5  4  1  0
  5 11  1  1
  6  5  1  0
  7  1  1  0
 12  6  2  0
 13  6  1  0
M  CHG  2  13  -1  14   1
M  END
>  <DRUGBANK_ID>  (1) 
DB13620

>  <COMMON_NAME>  (1) 
Potassium gluconate

>  <CAS_NUMBER>  (1) 
299-27-4

>  <UNII>  (1) 
12H3K5QKN9

>  <SYNONYMS>  (1) 
potassium D-gluconate; Potassium gluconate

$$$$
