698
     RDKit          2D

 32 34  0  0  0  0  0  0  0  0999 V2000
   -0.2788    2.5553    0.0000 O   0  0  0  0  0  0  0  0  0  0  0  0
   -0.9933    2.1428    0.0000 C   0  0  0  0  0  0  0  0  0  0  0  0
   -1.7077    2.5553    0.0000 O   0  0  0  0  0  0  0  0  0  0  0  0
   -0.9933    1.3178    0.0000 C   0  0  0  0  0  0  0  0  0  0  0  0
   -1.6607    0.8329    0.0000 C   0  0  0  0  0  0  0  0  0  0  0  0
   -2.4453    1.0878    0.0000 C   0  0  0  0  0  0  0  0  0  0  0  0
   -2.7003    1.8724    0.0000 N   0  0  0  0  0  0  0  0  0  0  0  0
   -3.5253    1.8724    0.0000 C   0  0  0  0  0  0  0  0  0  0  0  0
   -3.7802    1.0878    0.0000 C   0  0  0  0  0  0  0  0  0  0  0  0
   -3.1128    0.6029    0.0000 S   0  0  0  0  0  0  0  0  0  0  0  0
   -0.3258    0.8329    0.0000 C   0  0  0  0  0  0  0  0  0  0  0  0
   -0.5808    0.0483    0.0000 C   0  0  0  0  0  0  0  0  0  0  0  0
   -0.6670   -0.7722    0.0000 C   0  0  0  0  0  0  0  0  0  0  0  0
    0.0004   -1.2571    0.0000 C   0  0  0  0  0  0  0  0  0  0  0  0
   -0.0858   -2.0776    0.0000 C   0  0  0  0  0  0  0  0  0  0  0  0
    0.7541   -0.9216    0.0000 C   0  0  0  0  0  0  0  0  0  0  0  0
    0.2262   -0.1233    0.0000 C   0  0  0  0  0  0  0  0  0  0  0  0
    0.8936   -0.6082    0.0000 O   0  0  0  0  0  0  0  0  0  0  0  0
    0.7782    0.4898    0.0000 O   0  0  0  0  0  0  0  0  0  0  0  0
   -1.4058    0.0483    0.0000 N   0  0  0  0  0  0  0  0  0  0  0  0
   -1.8907   -0.6192    0.0000 C   0  0  0  0  0  0  0  0  0  0  0  0
   -1.5551   -1.3728    0.0000 O   0  0  0  0  0  0  0  0  0  0  0  0
   -2.7112   -0.5329    0.0000 C   0  0  0  0  0  0  0  0  0  0  0  0
   -3.0467    0.2207    0.0000 C   0  0  0  0  0  0  0  0  0  0  0  0
   -3.8672    0.3070    0.0000 C   0  0  0  0  0  0  0  0  0  0  0  0
   -3.1961   -1.2004    0.0000 C   0  0  0  0  0  0  0  0  0  0  0  0
   -4.0166   -1.1141    0.0000 C   0  0  0  0  0  0  0  0  0  0  0  0
   -4.3521   -0.3605    0.0000 C   0  0  0  0  0  0  0  0  0  0  0  0
   -5.1726   -0.2742    0.0000 C   0  0  0  0  0  0  0  0  0  0  0  0
   -5.9931   -0.1880    0.0000 C   0  0  0  0  0  0  0  0  0  0  0  0
   -5.0864    0.5462    0.0000 C   0  0  0  0  0  0  0  0  0  0  0  0
   -5.2588   -1.0947    0.0000 C   0  0  0  0  0  0  0  0  0  0  0  0
  1  2  2  0
  2  3  1  0
  4  2  1  1
  4  5  1  0
  4 11  1  0
  5  6  1  1
  5 20  1  0
  6  7  2  0
  6 10  1  0
  7  8  1  0
  8  9  2  0
  9 10  1  0
 11 12  1  0
 12 13  1  6
 12 17  1  0
 12 20  1  0
 13 14  1  0
 14 15  1  0
 14 16  1  0
 17 18  2  0
 17 19  1  0
 20 21  1  0
 21 22  2  0
 21 23  1  0
 23 26  1  0
 23 24  2  0
 24 25  1  0
 25 28  2  0
 26 27  2  0
 27 28  1  0
 28 29  1  0
 29 30  1  0
 29 31  1  0
 29 32  1  0
M  END
>  <DRUGBANK_ID>  (1) 
DB07199

>  <COMMON_NAME>  (1) 
(2S,4S,5R)-1-(4-TERT-BUTYLBENZOYL)-2-ISOBUTYL-5-(1,3-THIAZOL-2-YL)PYRROLIDINE-2,4-DICARBOXYLIC ACID

$$$$
