
     RDKit          2D

 17 18  0  0  1  0  0  0  0  0999 V2000
    0.1624   -0.6244    0.0000 C   0  0  0  0  0  0  0  0  0  0  0  0
    0.7145   -1.2375    0.0000 C   0  0  0  0  0  0  0  0  0  0  0  0
    1.3819   -1.7224    0.0000 C   0  0  0  0  0  0  0  0  0  0  0  0
    1.1270   -2.5070    0.0000 S   0  0  0  0  0  0  0  0  0  0  0  0
    0.3020   -2.5070    0.0000 C   0  0  0  0  0  0  0  0  0  0  0  0
    0.0470   -1.7224    0.0000 N   0  0  0  0  0  0  0  0  0  0  0  0
   -0.1830   -3.1745    0.0000 C   0  0  0  0  0  0  0  0  0  0  0  0
    0.1526   -3.9282    0.0000 C   0  0  0  0  0  0  0  0  0  0  0  0
   -0.3323   -4.5956    0.0000 C   0  0  0  0  0  0  0  0  0  0  0  0
   -1.1528   -4.5094    0.0000 C   0  0  0  0  0  0  0  0  0  0  0  0
   -1.6377   -5.1768    0.0000 O   0  0  0  0  0  0  0  0  0  0  0  0
   -1.4884   -3.7557    0.0000 C   0  0  0  0  0  0  0  0  0  0  0  0
   -1.0034   -3.0882    0.0000 C   0  0  0  0  0  0  0  0  0  0  0  0
   -1.3390   -2.3346    0.0000 O   0  0  0  0  0  0  0  0  0  0  0  0
    1.2665   -0.6244    0.0000 C   0  0  0  0  0  0  0  0  0  0  0  0
    1.0116    0.1602    0.0000 O   0  0  0  0  0  0  0  0  0  0  0  0
    2.0735   -0.7959    0.0000 O   0  0  0  0  0  0  0  0  0  0  0  0
  2  1  1  6
  2  3  1  0
  2  6  1  0
  2 15  1  0
  3  4  1  0
  4  5  1  0
  5  6  2  0
  5  7  1  0
  7  8  2  0
  7 13  1  0
  8  9  1  0
  9 10  2  0
 10 11  1  0
 10 12  1  0
 12 13  2  0
 13 14  1  0
 15 16  1  0
 15 17  2  0
M  END
>  <DRUGBANK_ID>  (1) 
DB16132

>  <COMMON_NAME>  (1) 
Deferitrin

>  <CAS_NUMBER>  (1) 
239101-33-8

>  <UNII>  (1) 
T69Y9LDN44

>  <SYNONYMS>  (1) 
Deferitrin

$$$$
