
     RDKit          2D

 29 31  0  0  1  0  0  0  0  0999 V2000
    1.0950   -2.6576    0.0000 C   0  0  0  0  0  0  0  0  0  0  0  0
    0.3413   -2.9931    0.0000 C   0  0  0  0  0  0  0  0  0  0  0  0
   -0.2107   -2.3800    0.0000 C   0  0  0  0  0  0  0  0  0  0  0  0
    0.2018   -1.6656    0.0000 C   0  0  0  0  0  0  0  0  0  0  0  0
   -0.0532   -0.8809    0.0000 C   0  0  0  0  0  0  0  0  0  0  0  0
   -0.8601   -0.7094    0.0000 C   0  0  0  0  0  0  0  0  0  0  0  0
   -1.1151    0.0752    0.0000 C   0  0  0  0  0  0  0  0  0  0  0  0
   -0.5630    0.6883    0.0000 C   0  0  0  0  0  0  0  0  0  0  0  0
   -0.8180    1.4729    0.0000 N   0  0  0  0  0  0  0  0  0  0  0  0
   -1.6250    1.6445    0.0000 O   0  0  0  0  0  0  0  0  0  0  0  0
    0.2439    0.5168    0.0000 C   0  0  0  0  0  0  0  0  0  0  0  0
    0.2727    1.3413    0.0000 C   0  0  0  0  0  0  0  0  0  0  0  0
    1.0609    0.6316    0.0000 C   0  0  0  0  0  0  0  0  0  0  0  0
    1.5688   -0.0185    0.0000 C   0  0  0  0  0  0  0  0  0  0  0  0
    2.3858    0.0963    0.0000 C   0  0  0  0  0  0  0  0  0  0  0  0
    2.8937   -0.5538    0.0000 O   0  0  0  0  0  0  0  0  0  0  0  0
    0.4989   -0.2678    0.0000 C   0  0  0  0  0  0  0  0  0  0  0  0
    1.3058   -0.4394    0.0000 C   0  0  0  0  0  0  0  0  0  0  0  0
    1.5608   -1.2240    0.0000 C   0  0  0  0  0  0  0  0  0  0  0  0
    1.0087   -1.8371    0.0000 C   0  0  0  0  0  0  0  0  0  0  0  0
    1.7934   -2.0920    0.0000 C   0  0  0  0  0  0  0  0  0  0  0  0
    1.8094   -3.0701    0.0000 C   0  0  0  0  0  0  0  0  0  0  0  0
    1.8094   -3.8951    0.0000 C   0  0  0  0  0  0  0  0  0  0  0  0
    2.5239   -2.6576    0.0000 C   0  0  0  0  0  0  0  0  0  0  0  0
    3.2384   -3.0701    0.0000 C   0  0  0  0  0  0  0  0  0  0  0  0
    3.9529   -2.6576    0.0000 C   0  0  0  0  0  0  0  0  0  0  0  0
    4.6673   -3.0701    0.0000 C   0  0  0  0  0  0  0  0  0  0  0  0
    5.3818   -2.6576    0.0000 C   0  0  0  0  0  0  0  0  0  0  0  0
    4.6673   -3.8951    0.0000 C   0  0  0  0  0  0  0  0  0  0  0  0
  1  2  1  1
  1 20  1  0
  1 22  1  0
  2  3  1  0
  4  3  1  1
  4  5  1  0
  5  6  1  6
  5 17  1  0
  6  7  1  0
  7  8  1  0
  8  9  2  0
  9 10  1  0
 11  8  1  0
 11 12  1  1
 11 13  1  0
 13 14  1  0
 14 15  1  0
 15 16  1  0
 17 11  1  0
 17 18  1  1
 18 19  1  0
 20 19  1  0
 20  4  1  0
 20 21  1  1
 22 23  1  1
 22 24  1  0
 24 25  1  0
 25 26  1  0
 26 27  1  0
 27 28  1  0
 27 29  1  0
M  END
>  <DRUGBANK_ID>  (1) 
DB16031

>  <COMMON_NAME>  (1) 
TRO40303

>  <CAS_NUMBER>  (1) 
14291-24-8

>  <UNII>  (1) 
3W389841RN

$$$$
