6116
     RDKit          2D

  9  6  0  0  0  0  0  0  0  0999 V2000
    3.7932    0.2063    0.0000 Ca  0  0  0  0  0 15  0  0  0  0  0  0
    3.0788    0.6188    0.0000 O   0  0  0  0  0  0  0  0  0  0  0  0
    4.5077    0.6188    0.0000 O   0  0  0  0  0  0  0  0  0  0  0  0
    2.3643   -0.6188    0.0000 O   0  0  0  0  0  0  0  0  0  0  0  0
    5.2220   -0.6188    0.0000 O   0  0  0  0  0  0  0  0  0  0  0  0
    1.6499    0.6188    0.0000 C   0  0  0  0  0  0  0  0  0  0  0  0
    5.9365    0.6188    0.0000 C   0  0  0  0  0  0  0  0  0  0  0  0
    2.3643    0.2063    0.0000 C   0  0  0  0  0  0  0  0  0  0  0  0
    5.2220    0.2063    0.0000 C   0  0  0  0  0  0  0  0  0  0  0  0
  2  8  1  0
  3  9  1  0
  4  8  2  0
  5  9  2  0
  6  8  1  0
  7  9  1  0
M  CHG  3   1   2   2  -1   3  -1
M  END
>  <DRUGBANK_ID>  (1) 
DB00258

>  <SECONDARY_ACCESSION_NUMBERS>  (1) 
APRD00839

>  <COMMON_NAME>  (1) 
Calcium acetate

>  <CAS_NUMBER>  (1) 
62-54-4

>  <UNII>  (1) 
Y882YXF34X

>  <SYNONYMS>  (1) 
Acetate of lime; Brown acetate of lime; Calcio acetato; Calcium acetate; calcium ethanoate; calcium(II) acetate; Gray acetate of lime; Lime acetate; Lime pyrolignite

$$$$
