H64
     RDKit          2D

 28 31  0  0  0  0  0  0  0  0999 V2000
   -4.8264    0.3298    0.0000 C   0  0  0  0  0  0  0  0  0  0  0  0
   -4.1119   -0.0827    0.0000 C   0  0  0  0  0  0  0  0  0  0  0  0
   -4.1119   -0.9077    0.0000 C   0  0  0  0  0  0  0  0  0  0  0  0
   -3.3974    0.3298    0.0000 N   0  0  0  0  0  0  0  0  0  0  0  0
   -2.6830   -0.0827    0.0000 C   0  0  0  0  0  0  0  0  0  0  0  0
   -1.9685    0.3298    0.0000 C   0  0  0  0  0  0  0  0  0  0  0  0
   -1.2540   -0.0827    0.0000 C   0  0  0  0  0  0  0  0  0  0  0  0
   -0.5396    0.3298    0.0000 N   0  0  0  0  0  0  0  0  0  0  0  0
   -0.4533    1.1502    0.0000 C   0  0  0  0  0  0  0  0  0  0  0  0
   -1.0054    1.7633    0.0000 N   0  0  0  0  0  0  0  0  0  0  0  0
   -0.7504    2.5480    0.0000 C   0  0  0  0  0  0  0  0  0  0  0  0
    0.0566    2.7195    0.0000 N   0  0  0  0  0  0  0  0  0  0  0  0
    0.6086    2.1064    0.0000 C   0  0  0  0  0  0  0  0  0  0  0  0
    1.4156    2.2779    0.0000 N   0  0  0  0  0  0  0  0  0  0  0  0
    0.3536    1.3218    0.0000 C   0  0  0  0  0  0  0  0  0  0  0  0
    0.7661    0.6073    0.0000 N   0  0  0  0  0  0  0  0  0  0  0  0
    0.2141   -0.0058    0.0000 C   0  0  0  0  0  0  0  0  0  0  0  0
    0.3856   -0.8128    0.0000 S   0  0  0  0  0  0  0  0  0  0  0  0
    1.1703   -1.0677    0.0000 C   0  0  0  0  0  0  0  0  0  0  0  0
    1.7834   -0.5157    0.0000 C   0  0  0  0  0  0  0  0  0  0  0  0
    2.5680   -0.7706    0.0000 C   0  0  0  0  0  0  0  0  0  0  0  0
    3.2825   -0.3581    0.0000 O   0  0  0  0  0  0  0  0  0  0  0  0
    3.8955   -0.9102    0.0000 C   0  0  0  0  0  0  0  0  0  0  0  0
    3.5600   -1.6638    0.0000 O   0  0  0  0  0  0  0  0  0  0  0  0
    2.7395   -1.5776    0.0000 C   0  0  0  0  0  0  0  0  0  0  0  0
    2.1264   -2.1296    0.0000 C   0  0  0  0  0  0  0  0  0  0  0  0
    1.3418   -1.8747    0.0000 C   0  0  0  0  0  0  0  0  0  0  0  0
    0.7287   -2.4267    0.0000 Br  0  0  0  0  0  0  0  0  0  0  0  0
  1  2  1  0
  2  3  1  0
  2  4  1  0
  4  5  1  0
  5  6  1  0
  6  7  1  0
  7  8  1  0
  8  9  1  0
  8 17  1  0
  9 10  2  0
  9 15  1  0
 10 11  1  0
 11 12  2  0
 12 13  1  0
 13 14  1  0
 13 15  2  0
 15 16  1  0
 16 17  2  0
 17 18  1  0
 18 19  1  0
 19 20  2  0
 19 27  1  0
 20 21  1  0
 21 22  1  0
 21 25  2  0
 22 23  1  0
 23 24  1  0
 24 25  1  0
 25 26  1  0
 26 27  2  0
 27 28  1  0
M  END
>  <DRUGBANK_ID>  (1) 
DB07877

>  <COMMON_NAME>  (1) 
8-(6-BROMO-BENZO[1,3]DIOXOL-5-YLSULFANYL)-9-(3-ISOPROPYLAMINO-PROPYL)-ADENINE

$$$$
