818
     RDKit          2D

 13 13  0  0  0  0  0  0  0  0999 V2000
    3.7935    1.1096    0.0000 O   0  0  0  0  0  0  0  0  0  0  0  0
    5.2224    0.2846    0.0000 C   0  0  0  0  0  0  0  0  0  0  0  0
    2.3645    0.2846    0.0000 C   0  0  0  0  0  0  0  0  0  0  0  0
    4.5080   -0.1279    0.0000 C   0  0  0  0  0  0  0  0  0  0  0  0
    3.0791   -0.1279    0.0000 C   0  0  0  0  0  0  0  0  0  0  0  0
    3.7935    0.2846    0.0000 C   0  0  0  0  0  0  0  0  0  0  0  0
    4.5080   -0.9529    0.0000 C   0  0  0  0  0  0  0  0  0  0  0  0
    3.0791   -0.9529    0.0000 C   0  0  0  0  0  0  0  0  0  0  0  0
    5.9370   -0.1279    0.0000 C   0  0  0  0  0  0  0  0  0  0  0  0
    5.2224    1.1096    0.0000 C   0  0  0  0  0  0  0  0  0  0  0  0
    1.6500   -0.1279    0.0000 C   0  0  0  0  0  0  0  0  0  0  0  0
    2.3645    1.1096    0.0000 C   0  0  0  0  0  0  0  0  0  0  0  0
    3.7935   -1.3654    0.0000 C   0  0  0  0  0  0  0  0  0  0  0  0
  1  6  1  0
  2  4  1  0
  2  9  1  0
  2 10  1  0
  3  5  1  0
  3 11  1  0
  3 12  1  0
  4  6  2  0
  4  7  1  0
  5  6  1  0
  5  8  2  0
  7 13  2  0
  8 13  1  0
M  END
>  <DRUGBANK_ID>  (1) 
DB00818

>  <SECONDARY_ACCESSION_NUMBERS>  (1) 
APRD01201; EXPT02558; DB05893

>  <COMMON_NAME>  (1) 
Propofol

>  <CAS_NUMBER>  (1) 
2078-54-8

>  <UNII>  (1) 
YI7VU623SF

>  <SYNONYMS>  (1) 
2,6-bis(1-methylethyl)phenol; 2,6-Diisopropylphenol; Propofol; Propofolum

$$$$
