B72
     RDKit          2D

 24 25  0  0  0  0  0  0  0  0999 V2000
    4.6381    1.7445    0.0000 O   0  0  0  0  0  0  0  0  0  0  0  0
    3.9236    2.1570    0.0000 C   0  0  0  0  0  0  0  0  0  0  0  0
    3.9236    2.9820    0.0000 O   0  0  0  0  0  0  0  0  0  0  0  0
    3.2092    1.7445    0.0000 C   0  0  0  0  0  0  0  0  0  0  0  0
    2.4947    2.1570    0.0000 O   0  0  0  0  0  0  0  0  0  0  0  0
    1.7802    1.7445    0.0000 C   0  0  0  0  0  0  0  0  0  0  0  0
    1.0658    2.1570    0.0000 C   0  0  0  0  0  0  0  0  0  0  0  0
    0.3513    1.7445    0.0000 C   0  0  0  0  0  0  0  0  0  0  0  0
   -0.3632    2.1570    0.0000 C   0  0  0  0  0  0  0  0  0  0  0  0
    0.3513    0.9195    0.0000 C   0  0  0  0  0  0  0  0  0  0  0  0
    1.0658    0.5070    0.0000 C   0  0  0  0  0  0  0  0  0  0  0  0
    1.7802    0.9195    0.0000 C   0  0  0  0  0  0  0  0  0  0  0  0
    1.0658   -0.3180    0.0000 C   0  0  0  0  0  0  0  0  0  0  0  0
   -0.3632    0.5070    0.0000 C   0  0  0  0  0  0  0  0  0  0  0  0
   -0.3632   -0.3180    0.0000 C   0  0  0  0  0  0  0  0  0  0  0  0
   -1.0777   -0.7305    0.0000 C   0  0  0  0  0  0  0  0  0  0  0  0
   -1.0777   -1.5555    0.0000 C   0  0  0  0  0  0  0  0  0  0  0  0
   -1.7921   -1.9680    0.0000 C   0  0  0  0  0  0  0  0  0  0  0  0
   -1.7921   -2.7930    0.0000 C   0  0  0  0  0  0  0  0  0  0  0  0
   -2.5066   -1.5555    0.0000 C   0  0  0  0  0  0  0  0  0  0  0  0
   -0.3632   -1.9680    0.0000 C   0  0  0  0  0  0  0  0  0  0  0  0
   -0.3632   -2.7930    0.0000 O   0  0  0  0  0  0  0  0  0  0  0  0
    0.3513   -1.5555    0.0000 C   0  0  0  0  0  0  0  0  0  0  0  0
    0.3513   -0.7305    0.0000 C   0  0  0  0  0  0  0  0  0  0  0  0
  2  3  2  0
  2  1  1  0
  4  2  1  0
  5  4  1  0
  6  5  1  0
  7  6  2  0
  8  7  1  0
  9  8  1  0
 10 11  1  0
 10  8  2  0
 11 12  2  0
 12  6  1  0
 13 11  1  0
 14 10  1  0
 15 24  1  0
 15 14  1  0
 16 15  2  0
 17 21  2  0
 17 16  1  0
 18 17  1  0
 18 20  1  0
 19 18  1  0
 21 23  1  0
 22 21  1  0
 23 24  2  0
M  END
>  <DRUGBANK_ID>  (1) 
DB07425

>  <SECONDARY_ACCESSION_NUMBERS>  (1) 
DB06018

>  <COMMON_NAME>  (1) 
Sobetirome

>  <CAS_NUMBER>  (1) 
211110-63-3

>  <UNII>  (1) 
XQ31741E9Q

>  <SYNONYMS>  (1) 
Sobetirome

$$$$
