
     RDKit          2D

 33 37  0  0  0  0  0  0  0  0999 V2000
    6.0100    0.1898    0.0000 C   0  0  0  0  0  0  0  0  0  0  0  0
    5.6744    0.9434    0.0000 C   0  0  0  0  0  0  0  0  0  0  0  0
    4.8675    1.1150    0.0000 C   0  0  0  0  0  0  0  0  0  0  0  0
    4.7812    1.9354    0.0000 C   0  0  0  0  0  0  0  0  0  0  0  0
    5.5349    2.2710    0.0000 N   0  0  0  0  0  0  0  0  0  0  0  0
    6.0869    1.6579    0.0000 N   0  0  0  0  0  0  0  0  0  0  0  0
    4.0668    2.3479    0.0000 N   0  0  0  0  0  0  0  0  0  0  0  0
    3.3523    1.9354    0.0000 C   0  0  0  0  0  0  0  0  0  0  0  0
    3.3523    1.1104    0.0000 C   0  0  0  0  0  0  0  0  0  0  0  0
    2.6378    0.6979    0.0000 C   0  0  0  0  0  0  0  0  0  0  0  0
    1.9233    1.1104    0.0000 C   0  0  0  0  0  0  0  0  0  0  0  0
    1.1387    0.8555    0.0000 N   0  0  0  0  0  0  0  0  0  0  0  0
    0.6538    1.5229    0.0000 C   0  0  0  0  0  0  0  0  0  0  0  0
    1.1387    2.1904    0.0000 C   0  0  0  0  0  0  0  0  0  0  0  0
    1.9233    1.9354    0.0000 N   0  0  0  0  0  0  0  0  0  0  0  0
    2.6378    2.3479    0.0000 N   0  0  0  0  0  0  0  0  0  0  0  0
    0.8838    2.9750    0.0000 C   0  0  0  0  0  0  0  0  0  0  0  0
    1.4358    3.5881    0.0000 C   0  0  0  0  0  0  0  0  0  0  0  0
    2.2428    3.4166    0.0000 C   0  0  0  0  0  0  0  0  0  0  0  0
    2.7948    4.0297    0.0000 C   0  0  0  0  0  0  0  0  0  0  0  0
    2.5399    4.8143    0.0000 C   0  0  0  0  0  0  0  0  0  0  0  0
    1.7329    4.9858    0.0000 C   0  0  0  0  0  0  0  0  0  0  0  0
    1.1809    4.3727    0.0000 C   0  0  0  0  0  0  0  0  0  0  0  0
    0.3739    4.5442    0.0000 F   0  0  0  0  0  0  0  0  0  0  0  0
    3.0919    5.4274    0.0000 Cl  0  0  0  0  0  0  0  0  0  0  0  0
   -0.1712    1.5229    0.0000 C   0  0  0  0  0  0  0  0  0  0  0  0
    2.6378   -0.1271    0.0000 C   0  0  0  0  0  0  0  0  0  0  0  0
    1.9233   -0.5396    0.0000 N   0  0  0  0  0  0  0  0  0  0  0  0
    1.9233   -1.3646    0.0000 C   0  0  0  0  0  0  0  0  0  0  0  0
    1.2089   -1.7771    0.0000 C   0  0  0  0  0  0  0  0  0  0  0  0
    0.4944   -1.3646    0.0000 O   0  0  0  0  0  0  0  0  0  0  0  0
    0.4944   -0.5396    0.0000 C   0  0  0  0  0  0  0  0  0  0  0  0
    1.2089   -0.1271    0.0000 C   0  0  0  0  0  0  0  0  0  0  0  0
  1  2  1  0
  2  3  2  0
  2  6  1  0
  3  4  1  0
  4  5  2  0
  4  7  1  0
  5  6  1  0
  7  8  1  0
  8  9  1  0
  8 16  2  0
  9 10  2  0
 10 11  1  0
 10 27  1  0
 11 12  2  0
 11 15  1  0
 12 13  1  0
 13 14  2  0
 13 26  1  0
 14 15  1  0
 14 17  1  0
 15 16  1  0
 17 18  1  0
 18 19  2  0
 18 23  1  0
 19 20  1  0
 20 21  2  0
 21 22  1  0
 21 25  1  0
 22 23  2  0
 23 24  1  0
 27 28  1  0
 28 29  1  0
 28 33  1  0
 29 30  1  0
 30 31  1  0
 31 32  1  0
 32 33  1  0
M  END
>  <DRUGBANK_ID>  (1) 
DB13040

>  <COMMON_NAME>  (1) 
Gandotinib

>  <CAS_NUMBER>  (1) 
1229236-86-5

>  <UNII>  (1) 
ANC71R916O

>  <SYNONYMS>  (1) 
3-(4-CHLORO-2-FLUOROBENZYL)-2-METHYL-N-(5-METHYL-1H-PYRAZOL-3-YL)-8- (MORPHOLINOMETHYL)IMIDAZO(1,2-B)PYRIDAZIN-6-AMINE; Adenosine triphosphate type 1 competitive inhibitor of JAK2 V617F tyrosine kinase; Gandotinib; IMIDAZO(1,2-B)PYRIDAZIN-6-AMINE, 3-((4-CHLORO-2-FLUOROPHENYL)METHYL)-2-METHYL-N-(5- METHYL-1H-PYRAZOL-3-YL)-8-(4-MORPHOLINYLMETHYL)-

$$$$
