
     RDKit          2D

 31 35  0  0  0  0  0  0  0  0999 V2000
    8.4295    2.4477    0.0000 C   0  0  0  0  0  0  0  0  0  0  0  0
    7.6061    2.3956    0.0000 N   0  0  0  0  0  0  0  0  0  0  0  0
    7.1493    3.0826    0.0000 C   0  0  0  0  0  0  0  0  0  0  0  0
    7.2396    1.6565    0.0000 C   0  0  0  0  0  0  0  0  0  0  0  0
    6.4162    1.6045    0.0000 C   0  0  0  0  0  0  0  0  0  0  0  0
    6.0496    0.8654    0.0000 N   0  0  0  0  0  0  0  0  0  0  0  0
    5.2362    0.7275    0.0000 C   0  0  0  0  0  0  0  0  0  0  0  0
    5.1160   -0.0887    0.0000 C   0  0  0  0  0  0  0  0  0  0  0  0
    5.8551   -0.4553    0.0000 C   0  0  0  0  0  0  0  0  0  0  0  0
    6.4321    0.1344    0.0000 C   0  0  0  0  0  0  0  0  0  0  0  0
    7.2312   -0.0705    0.0000 C   0  0  0  0  0  0  0  0  0  0  0  0
    7.4534   -0.8650    0.0000 C   0  0  0  0  0  0  0  0  0  0  0  0
    6.8763   -1.4547    0.0000 C   0  0  0  0  0  0  0  0  0  0  0  0
    6.0772   -1.2498    0.0000 C   0  0  0  0  0  0  0  0  0  0  0  0
    8.2525   -1.0699    0.0000 Cl  0  0  0  0  0  0  0  0  0  0  0  0
    4.3850   -0.4711    0.0000 C   0  0  0  0  0  0  0  0  0  0  0  0
    4.3507   -1.2954    0.0000 O   0  0  0  0  0  0  0  0  0  0  0  0
    3.6883   -0.0293    0.0000 N   0  0  0  0  0  0  0  0  0  0  0  0
    2.9573   -0.4118    0.0000 C   0  0  0  0  0  0  0  0  0  0  0  0
    2.2606    0.0300    0.0000 C   0  0  0  0  0  0  0  0  0  0  0  0
    2.2948    0.8543    0.0000 C   0  0  0  0  0  0  0  0  0  0  0  0
    3.0258    1.2368    0.0000 C   0  0  0  0  0  0  0  0  0  0  0  0
    3.7225    0.7950    0.0000 C   0  0  0  0  0  0  0  0  0  0  0  0
    1.5279    0.5504    0.0000 C   0  0  0  0  0  0  0  0  0  0  0  0
    1.2406   -0.2230    0.0000 C   0  0  0  0  0  0  0  0  0  0  0  0
    0.4272   -0.3609    0.0000 C   0  0  0  0  0  0  0  0  0  0  0  0
   -0.0989    0.2746    0.0000 C   0  0  0  0  0  0  0  0  0  0  0  0
    0.1884    1.0480    0.0000 C   0  0  0  0  0  0  0  0  0  0  0  0
    1.0018    1.1859    0.0000 C   0  0  0  0  0  0  0  0  0  0  0  0
    1.4436    1.8826    0.0000 C   0  0  0  0  0  0  0  0  0  0  0  0
    2.2428    1.6777    0.0000 O   0  0  0  0  0  0  0  0  0  0  0  0
  1  2  1  0
  2  3  1  0
  2  4  1  0
  4  5  1  0
  5  6  1  0
  6  7  1  0
  6 10  1  0
  7  8  2  0
  8  9  1  0
  8 16  1  0
  9 10  2  0
  9 14  1  0
 10 11  1  0
 11 12  2  0
 12 13  1  0
 12 15  1  0
 13 14  2  0
 16 17  2  0
 16 18  1  0
 18 19  1  0
 18 23  1  0
 19 20  1  0
 20 21  1  0
 21 22  1  0
 21 24  1  0
 21 31  1  0
 22 23  1  0
 24 25  2  0
 24 29  1  0
 25 26  1  0
 26 27  2  0
 27 28  1  0
 28 29  2  0
 29 30  1  0
 30 31  1  0
M  END
>  <DRUGBANK_ID>  (1) 
DB12721

>  <COMMON_NAME>  (1) 
RO-5028442

>  <CAS_NUMBER>  (1) 
920022-47-5

>  <UNII>  (1) 
LZ0EU1YHCK

$$$$
