550
     RDKit          2D

 11 11  0  0  0  0  0  0  0  0999 V2000
    5.9370   -0.9818    0.0000 S   0  0  0  0  0  0  0  0  0  0  0  0
    4.5080    1.4933    0.0000 O   0  0  0  0  0  0  0  0  0  0  0  0
    4.5080   -0.9818    0.0000 N   0  0  0  0  0  0  0  0  0  0  0  0
    5.2224    0.2558    0.0000 N   0  0  0  0  0  0  0  0  0  0  0  0
    3.0791   -0.9818    0.0000 C   0  0  0  0  0  0  0  0  0  0  0  0
    3.7935   -0.5693    0.0000 C   0  0  0  0  0  0  0  0  0  0  0  0
    2.3645   -0.5693    0.0000 C   0  0  0  0  0  0  0  0  0  0  0  0
    3.7935    0.2558    0.0000 C   0  0  0  0  0  0  0  0  0  0  0  0
    1.6500   -0.9818    0.0000 C   0  0  0  0  0  0  0  0  0  0  0  0
    5.2224   -0.5693    0.0000 C   0  0  0  0  0  0  0  0  0  0  0  0
    4.5080    0.6683    0.0000 C   0  0  0  0  0  0  0  0  0  0  0  0
  1 10  2  0
  2 11  2  0
  3  6  1  0
  3 10  1  0
  4 10  1  0
  4 11  1  0
  5  6  1  0
  5  7  1  0
  6  8  2  0
  7  9  1  0
  8 11  1  0
M  END
>  <DRUGBANK_ID>  (1) 
DB00550

>  <SECONDARY_ACCESSION_NUMBERS>  (1) 
APRD00297

>  <COMMON_NAME>  (1) 
Propylthiouracil

>  <CAS_NUMBER>  (1) 
51-52-5

>  <UNII>  (1) 
721M9407IY

>  <SYNONYMS>  (1) 
2-Mercapto-6-propyl-4-pyrimidone; 2-Mercapto-6-propylpyrimid-4-one; 2-Thio-4-oxo-6-propyl-1,3-pyrimidine; 2-Thio-6-propyl-1,3-pyrimidin-4-one; 4-propyl-2-thiouracil; 6-Propyl-2-thio-2,4(1H,3H)pyrimidinedione; 6-propyl-2-thiouracil; 6-propyl-2-thioxo-2,3-dihydropyrimidin-4(1H)-one; 6-Propylthiouracil; 6-Thio-4-propyluracil; Propiltiouracilo; Propylthiouracil; Propylthiouracile; Propylthiouracilum

$$$$
