
     RDKit          2D

 13 14  0  0  0  0  0  0  0  0999 V2000
    4.2032    2.0602    0.0000 C   0  0  0  0  0  0  0  0  0  0  0  0
    2.7512    4.7652    0.0000 C   0  0  0  0  0  0  0  0  0  0  0  0
    2.0367    4.3527    0.0000 C   0  0  0  0  0  0  0  0  0  0  0  0
    3.4656    3.5277    0.0000 C   0  0  0  0  0  0  0  0  0  0  0  0
    3.4186    1.8053    0.0000 C   0  0  0  0  0  0  0  0  0  0  0  0
    2.7512    3.1152    0.0000 C   0  0  0  0  0  0  0  0  0  0  0  0
    2.7512    2.2902    0.0000 C   0  0  0  0  0  0  0  0  0  0  0  0
    3.1637    1.0206    0.0000 C   0  0  0  0  0  0  0  0  0  0  0  0
    3.4656    4.3527    0.0000 N   0  0  0  0  0  0  0  0  0  0  0  0
    2.0367    3.5277    0.0000 N   0  0  0  0  0  0  0  0  0  0  0  0
    3.6486    0.3532    0.0000 S   0  0  0  0  0  0  0  0  0  0  0  0
    2.0837    1.8053    0.0000 S   0  0  0  0  0  0  0  0  0  0  0  0
    2.3387    1.0206    0.0000 S   0  0  0  0  0  0  0  0  0  0  0  0
  3  2  2  0
  5  1  1  0
  6  4  1  0
  7  5  2  0
  7  6  1  0
  8  5  1  0
  9  2  1  0
  9  4  2  0
 10  3  1  0
 10  6  2  0
 11  8  2  0
 12  7  1  0
 13  8  1  0
 13 12  1  0
M  END
>  <DRUGBANK_ID>  (1) 
DB12539

>  <COMMON_NAME>  (1) 
Oltipraz

>  <CAS_NUMBER>  (1) 
64224-21-1

>  <UNII>  (1) 
6N510JUL1Y

>  <SYNONYMS>  (1) 
Oltipraz

$$$$
