255
     RDKit          2D

 31 34  0  0  0  0  0  0  0  0999 V2000
   -2.1830    1.0982    0.0000 O   0  0  0  0  0  0  0  0  0  0  0  0
   -2.5955    0.3837    0.0000 S   0  0  0  0  0  0  0  0  0  0  0  0
   -3.0080   -0.3307    0.0000 O   0  0  0  0  0  0  0  0  0  0  0  0
   -3.3100    0.7962    0.0000 N   0  0  0  0  0  0  0  0  0  0  0  0
   -3.3100    1.6212    0.0000 C   0  0  0  0  0  0  0  0  0  0  0  0
   -3.3100    2.4462    0.0000 C   0  0  0  0  0  0  0  0  0  0  0  0
   -2.4850    1.6212    0.0000 C   0  0  0  0  0  0  0  0  0  0  0  0
   -4.1350    1.6212    0.0000 C   0  0  0  0  0  0  0  0  0  0  0  0
   -1.8810   -0.0288    0.0000 C   0  0  0  0  0  0  0  0  0  0  0  0
   -1.8810   -0.8538    0.0000 C   0  0  0  0  0  0  0  0  0  0  0  0
   -1.1665   -1.2663    0.0000 C   0  0  0  0  0  0  0  0  0  0  0  0
   -0.4521   -0.8538    0.0000 C   0  0  0  0  0  0  0  0  0  0  0  0
   -0.4521   -0.0288    0.0000 C   0  0  0  0  0  0  0  0  0  0  0  0
   -1.1665    0.3837    0.0000 C   0  0  0  0  0  0  0  0  0  0  0  0
    0.2624   -1.2663    0.0000 C   0  0  0  0  0  0  0  0  0  0  0  0
    0.2624   -2.0913    0.0000 C   0  0  0  0  0  0  0  0  0  0  0  0
    0.9769   -2.5038    0.0000 N   0  0  0  0  0  0  0  0  0  0  0  0
    1.6913   -2.0913    0.0000 C   0  0  0  0  0  0  0  0  0  0  0  0
    2.4058   -2.5038    0.0000 C   0  0  0  0  0  0  0  0  0  0  0  0
    3.1203   -2.0913    0.0000 C   0  0  0  0  0  0  0  0  0  0  0  0
    3.1203   -1.2663    0.0000 C   0  0  0  0  0  0  0  0  0  0  0  0
    2.4058   -0.8538    0.0000 C   0  0  0  0  0  0  0  0  0  0  0  0
    1.6913   -1.2663    0.0000 C   0  0  0  0  0  0  0  0  0  0  0  0
    0.9769   -0.8538    0.0000 C   0  0  0  0  0  0  0  0  0  0  0  0
    2.4058   -0.0288    0.0000 N   0  0  0  0  0  0  0  0  0  0  0  0
    3.1203    0.3837    0.0000 C   0  0  0  0  0  0  0  0  0  0  0  0
    3.1203    1.2087    0.0000 N   0  0  0  0  0  0  0  0  0  0  0  0
    3.8347    1.6212    0.0000 C   0  0  0  0  0  0  0  0  0  0  0  0
    4.5492    1.2087    0.0000 C   0  0  0  0  0  0  0  0  0  0  0  0
    4.5492    0.3837    0.0000 C   0  0  0  0  0  0  0  0  0  0  0  0
    3.8347   -0.0288    0.0000 C   0  0  0  0  0  0  0  0  0  0  0  0
  2  1  2  0
  2  4  1  0
  3  2  2  0
  4  5  1  0
  5  7  1  0
  5  6  1  0
  8  5  1  0
  9  2  1  0
 10  9  2  0
 11 10  1  0
 12 11  2  0
 12 13  1  0
 13 14  2  0
 14  9  1  0
 15 12  1  0
 16 15  2  0
 17 16  1  0
 18 17  2  0
 18 23  1  0
 19 18  1  0
 20 19  2  0
 20 21  1  0
 21 22  2  0
 22 23  1  0
 22 25  1  0
 23 24  2  0
 24 15  1  0
 25 26  1  0
 26 27  2  0
 27 28  1  0
 29 28  2  0
 30 29  1  0
 31 26  1  0
 31 30  2  0
M  END
>  <DRUGBANK_ID>  (1) 
DB06933

>  <COMMON_NAME>  (1) 
N-(tert-butyl)-4-[5-(pyridin-2-ylamino)quinolin-3-yl]benzenesulfonamide

$$$$
