1494
     RDKit          2D

 15 13  0  0  0  0  0  0  0  0999 V2000
    0.3572    0.3020    0.0000 Cl  0  0  0  0  0  0  0  0  0  0  0  0
    0.6592    1.4290    0.0000 Cl  0  0  0  0  0  0  0  0  0  0  0  0
    1.4842    0.0000    0.0000 Cl  0  0  0  0  0  0  0  0  0  0  0  0
    3.3009    5.4278    0.0000 O   0  0  0  0  0  0  0  0  0  0  0  0
    2.5864    4.1903    0.0000 O   0  0  0  0  0  0  0  0  0  0  0  0
    2.5007    0.7145    0.0000 O   0  0  0  0  0  0  0  0  0  0  0  0
    1.7862    1.9520    0.0000 O   0  0  0  0  0  0  0  0  0  0  0  0
    1.1575    5.0153    0.0000 N   0  0  0  0  0  0  0  0  0  0  0  0
    1.8720    5.4278    0.0000 C   0  0  0  0  0  0  0  0  0  0  0  0
    1.5700    4.3008    0.0000 C   0  0  0  0  0  0  0  0  0  0  0  0
    0.7450    5.7298    0.0000 C   0  0  0  0  0  0  0  0  0  0  0  0
    0.4430    4.6028    0.0000 C   0  0  0  0  0  0  0  0  0  0  0  0
    2.5864    5.0153    0.0000 C   0  0  0  0  0  0  0  0  0  0  0  0
    1.7862    1.1270    0.0000 C   0  0  0  0  0  0  0  0  0  0  0  0
    1.0717    0.7145    0.0000 C   0  0  0  0  0  0  0  0  0  0  0  0
  1 15  1  0
  2 15  1  0
  3 15  1  0
  4 13  1  0
  5 13  2  0
  6 14  1  0
  7 14  1  0
  8  9  1  0
  8 10  1  0
  8 11  1  0
  8 12  1  0
  9 13  1  0
 14 15  1  0
M  CHG  2   4  -1   8   1
M  END
>  <DRUGBANK_ID>  (1) 
DB01494

>  <COMMON_NAME>  (1) 
Chloral betaine

>  <CAS_NUMBER>  (1) 
2218-68-0

>  <UNII>  (1) 
8680278NRH

>  <SYNONYMS>  (1) 
Chloral betaine; Cloral betaine

$$$$
