
     RDKit          2D

 15 15  0  0  0  0  0  0  0  0999 V2000
   -0.4018    1.8965    0.0000 C   0  0  0  0  0  0  0  0  0  0  0  0
   -1.1163    1.4840    0.0000 C   0  0  0  0  0  0  0  0  0  0  0  0
   -1.1163    0.6588    0.0000 C   0  0  0  0  0  0  0  0  0  0  0  0
   -0.4018    0.2463    0.0000 C   0  0  0  0  0  0  0  0  0  0  0  0
    0.3126    0.6588    0.0000 C   0  0  0  0  0  0  0  0  0  0  0  0
    0.3126    1.4840    0.0000 C   0  0  0  0  0  0  0  0  0  0  0  0
   -0.4018    2.7216    0.0000 N   0  0  0  0  0  0  0  0  0  0  0  0
   -0.4018   -0.5786    0.0000 O   0  0  0  0  0  0  0  0  0  0  0  0
   -1.8308    1.8965    0.0000 O   0  0  0  0  0  0  0  0  0  0  0  0
    1.0271    0.2463    0.0000 C   0  0  0  0  0  0  0  0  0  0  0  0
    1.0271   -0.5786    0.0000 C   0  0  0  0  0  0  0  0  0  0  0  0
    0.3126   -0.9912    0.0000 N   0  0  0  0  0  0  0  0  0  0  0  0
    1.7416   -0.9912    0.0000 C   0  0  0  0  0  0  0  0  0  0  0  0
    1.7416   -1.8162    0.0000 O   0  0  0  0  0  0  0  0  0  0  0  0
    2.4562   -0.5786    0.0000 O   0  0  0  0  0  0  0  0  0  0  0  0
  1  2  1  0
  1  7  2  0
  2  3  2  0
  2  9  1  0
  3  4  1  0
  4  5  1  0
  4  8  2  0
  5  6  2  0
  5 10  1  0
  6  1  1  0
 10 11  1  0
 11 13  1  0
 11 12  1  1
 13 15  2  0
 13 14  1  0
M  END
>  <DRUGBANK_ID>  (1) 
DB03631

>  <SECONDARY_ACCESSION_NUMBERS>  (1) 
EXPT03144

>  <COMMON_NAME>  (1) 
3-(4-hydroxy-3-imino-6-oxo-cyclohexa-1,4-dienyl)-alanine

$$$$
