
     RDKit          2D

 17 18  0  0  0  0  0  0  0  0999 V2000
   -0.7337    1.6830    0.0000 C   0  0  0  0  0  0  0  0  0  0  0  0
   -1.5614    1.6639    0.0000 C   0  0  0  0  0  0  0  0  0  0  0  0
   -1.9544    0.9435    0.0000 C   0  0  0  0  0  0  0  0  0  0  0  0
   -2.7793    0.9249    0.0000 N   0  0  0  0  0  0  0  0  0  0  0  0
   -1.5270    0.2378    0.0000 C   0  0  0  0  0  0  0  0  0  0  0  0
   -0.7065    0.2526    0.0000 C   0  0  0  0  0  0  0  0  0  0  0  0
   -0.3062    0.9774    0.0000 C   0  0  0  0  0  0  0  0  0  0  0  0
    0.5185    0.9939    0.0000 S   0  0  0  0  0  0  0  0  0  0  0  0
    0.5020    1.8187    0.0000 O   0  0  0  0  0  0  0  0  0  0  0  0
    0.5352    0.1690    0.0000 O   0  0  0  0  0  0  0  0  0  0  0  0
    1.3434    1.0103    0.0000 N   0  0  0  0  0  0  0  0  0  0  0  0
    1.7702    0.3043    0.0000 C   0  0  0  0  0  0  0  0  0  0  0  0
    1.4478   -0.4628    0.0000 N   0  0  0  0  0  0  0  0  0  0  0  0
    2.0726   -0.9967    0.0000 C   0  0  0  0  0  0  0  0  0  0  0  0
    2.0021   -1.8187    0.0000 C   0  0  0  0  0  0  0  0  0  0  0  0
    2.7793   -0.5770    0.0000 C   0  0  0  0  0  0  0  0  0  0  0  0
    2.5921    0.2338    0.0000 S   0  0  0  0  0  0  0  0  0  0  0  0
  1  2  2  0
  2  3  1  0
  3  4  1  0
  3  5  2  0
  5  6  1  0
  6  7  2  0
  7  1  1  0
  7  8  1  0
  8  9  2  0
  8 10  2  0
  8 11  1  0
 11 12  1  0
 12 13  2  0
 13 14  1  0
 14 15  1  0
 14 16  2  0
 16 17  1  0
 17 12  1  0
M  END
>  <DRUGBANK_ID>  (1) 
DB15882

>  <COMMON_NAME>  (1) 
Sulfamethylthiazole

>  <CAS_NUMBER>  (1) 
515-59-3

>  <UNII>  (1) 
R12OZ3O07F

>  <SYNONYMS>  (1) 
4-Amino-N-(4-methyl-2-thiazolyl)benzenesulfonamide; N(sup 1)-(4-Methyl-2-thiazolyl)sulfanilamide; Sulfamethylthiazole; Sulfazole

$$$$
