AGA
     RDKit          2D

 30 29  0  0  0  0  0  0  0  0999 V2000
   -6.2184    0.9943    0.0000 O   0  0  0  0  0  0  0  0  0  0  0  0
   -5.4724    0.6419    0.0000 C   0  0  0  0  0  0  0  0  0  0  0  0
   -4.7942    1.1118    0.0000 C   0  0  0  0  0  0  0  0  0  0  0  0
   -4.8621    1.9340    0.0000 O   0  0  0  0  0  0  0  0  0  0  0  0
   -4.0483    0.7594    0.0000 C   0  0  0  0  0  0  0  0  0  0  0  0
   -2.6242    0.8769    0.0000 P   0  0  0  0  0  0  0  0  0  0  0  0
   -2.9766    0.1309    0.0000 O   0  0  0  0  0  0  0  0  0  0  0  0
   -2.2718    1.6228    0.0000 O   0  0  0  0  0  0  0  0  0  0  0  0
   -3.3701    1.2292    0.0000 O   0  0  0  0  0  0  0  0  0  0  0  0
   -1.8782    0.5245    0.0000 O   0  0  0  0  0  0  0  0  0  0  0  0
   -1.2001    0.9943    0.0000 C   0  0  0  0  0  0  0  0  0  0  0  0
   -0.4541    0.6419    0.0000 C   0  0  0  0  0  0  0  0  0  0  0  0
   -0.3863   -0.1803    0.0000 C   0  0  0  0  0  0  0  0  0  0  0  0
    0.3597   -0.5326    0.0000 O   0  0  0  0  0  0  0  0  0  0  0  0
    0.4275   -1.3548    0.0000 C   0  0  0  0  0  0  0  0  0  0  0  0
   -0.2507   -1.8247    0.0000 O   0  0  0  0  0  0  0  0  0  0  0  0
    1.1734   -1.7072    0.0000 C   0  0  0  0  0  0  0  0  0  0  0  0
    1.2413   -2.5294    0.0000 C   0  0  0  0  0  0  0  0  0  0  0  0
    1.9872   -2.8818    0.0000 C   0  0  0  0  0  0  0  0  0  0  0  0
    2.0550   -3.7040    0.0000 C   0  0  0  0  0  0  0  0  0  0  0  0
    0.2240    1.1118    0.0000 O   0  0  0  0  0  0  0  0  0  0  0  0
    0.9700    0.7594    0.0000 C   0  0  0  0  0  0  0  0  0  0  0  0
    1.0378   -0.0628    0.0000 O   0  0  0  0  0  0  0  0  0  0  0  0
    1.6481    1.2292    0.0000 C   0  0  0  0  0  0  0  0  0  0  0  0
    2.3941    0.8769    0.0000 C   0  0  0  0  0  0  0  0  0  0  0  0
    3.0722    1.3467    0.0000 C   0  0  0  0  0  0  0  0  0  0  0  0
    3.8182    0.9943    0.0000 C   0  0  0  0  0  0  0  0  0  0  0  0
    4.4964    1.4642    0.0000 C   0  0  0  0  0  0  0  0  0  0  0  0
    5.2423    1.1118    0.0000 C   0  0  0  0  0  0  0  0  0  0  0  0
    5.9205    1.5816    0.0000 C   0  0  0  0  0  0  0  0  0  0  0  0
  1  2  1  0
  2  3  1  0
  3  4  1  6
  3  5  1  0
  5  9  1  0
  6  7  1  6
  6  8  2  0
  6  9  1  0
  6 10  1  0
 10 11  1  0
 12 11  1  6
 12 13  1  0
 12 21  1  0
 13 14  1  0
 14 15  1  0
 15 16  2  0
 15 17  1  0
 17 18  1  0
 18 19  1  0
 19 20  1  0
 21 22  1  0
 22 23  2  0
 22 24  1  0
 24 25  1  0
 25 26  1  0
 26 27  1  0
 27 28  1  0
 28 29  1  0
 29 30  1  0
M  CHG  1   7  -1
M  END
>  <DRUGBANK_ID>  (1) 
DB07349

>  <COMMON_NAME>  (1) 
(1S)-2-{[{[(2S)-2,3-DIHYDROXYPROPYL]OXY}(HYDROXY)PHOSPHORYL]OXY}-1-[(PENTANOYLOXY)METHYL]ETHYL OCTANOATE

$$$$
