
     RDKit          2D

 24 25  0  0  0  0  0  0  0  0999 V2000
    2.2786   -0.2048    0.0000 N   0  0  0  0  0  0  0  0  0  0  0  0
    3.0631   -0.4598    0.0000 C   0  0  0  0  0  0  0  0  0  0  0  0
    1.4534    0.6201    0.0000 C   0  0  0  0  0  0  0  0  0  0  0  0
    3.0631    0.8751    0.0000 S   0  0  0  0  0  0  0  0  0  0  0  0
    3.3181   -1.2445    0.0000 C   0  0  0  0  0  0  0  0  0  0  0  0
    0.7389    1.0327    0.0000 N   0  0  0  0  0  0  0  0  0  0  0  0
    4.1252   -1.4160    0.0000 O   0  0  0  0  0  0  0  0  0  0  0  0
    2.7661   -1.8577    0.0000 O   0  0  0  0  0  0  0  0  0  0  0  0
    0.0243    0.6201    0.0000 C   0  0  0  0  0  0  0  0  0  0  0  0
   -0.6901    1.0327    0.0000 C   0  0  0  0  0  0  0  0  0  0  0  0
   -2.1191    1.0327    0.0000 C   0  0  0  0  0  0  0  0  0  0  0  0
   -2.8335    0.6201    0.0000 C   0  0  0  0  0  0  0  0  0  0  0  0
   -3.5482    1.0327    0.0000 C   0  0  0  0  0  0  0  0  0  0  0  0
   -4.2626    0.6201    0.0000 O   0  0  0  0  0  0  0  0  0  0  0  0
   -3.5482    1.8577    0.0000 O   0  0  0  0  0  0  0  0  0  0  0  0
   -1.4046    0.6201    0.0000 C   0  0  0  0  0  0  0  0  0  0  0  0
    0.0243   -0.2048    0.0000 O   0  0  0  0  0  0  0  0  0  0  0  0
   -2.8335   -0.2048    0.0000 N   0  0  0  0  0  0  0  0  0  0  0  0
    1.4534   -0.2048    0.0000 C   0  0  0  0  0  0  0  0  0  0  0  0
    0.8700   -0.7884    0.0000 O   0  0  0  0  0  0  0  0  0  0  0  0
    4.2626    0.6201    0.0000 C   0  0  0  0  0  0  0  0  0  0  0  0
    3.5482    0.2076    0.0000 C   0  0  0  0  0  0  0  0  0  0  0  0
    4.2626   -0.2048    0.0000 C   0  0  0  0  0  0  0  0  0  0  0  0
    2.2786    0.6201    0.0000 C   0  0  0  0  0  0  0  0  0  0  0  0
  1  2  1  0
  1 19  1  0
  2 22  1  0
  2  5  1  6
  3  6  1  1
  3 19  1  0
  4 22  1  0
  5  7  1  0
  5  8  2  0
  6  9  1  0
  9 10  1  0
  9 17  2  0
 10 16  1  0
 11 12  1  0
 12 13  1  0
 12 18  1  6
 13 14  1  0
 13 15  2  0
 16 11  1  0
 19 20  2  0
 22 21  1  0
 22 23  1  0
 24  1  1  0
 24  3  1  0
 24  4  1  1
M  END
>  <DRUGBANK_ID>  (1) 
DB03550

>  <SECONDARY_ACCESSION_NUMBERS>  (1) 
EXPT01909

>  <COMMON_NAME>  (1) 
Isopenicillin N

>  <CAS_NUMBER>  (1) 
58678-43-6

$$$$
