
     RDKit          2D

 13 12  0  0  0  0  0  0  0  0999 V2000
    1.4289   -4.7289    0.0000 N   0  0  0  0  0  0  0  0  0  0  0  0
    1.4289   -3.9039    0.0000 C   0  0  0  0  0  0  0  0  0  0  0  0
    2.1434   -3.4914    0.0000 O   0  0  0  0  0  0  0  0  0  0  0  0
    0.7145   -3.4914    0.0000 C   0  0  0  0  0  0  0  0  0  0  0  0
    0.7145   -2.6664    0.0000 N   0  0  0  0  0  0  0  0  0  0  0  0
    0.0000   -2.2539    0.0000 C   0  0  0  0  0  0  0  0  0  0  0  0
    0.0000   -1.4289    0.0000 C   0  0  0  0  0  0  0  0  0  0  0  0
   -0.7145   -1.0164    0.0000 O   0  0  0  0  0  0  0  0  0  0  0  0
    0.7145   -1.0164    0.0000 O   0  0  0  0  0  0  0  0  0  0  0  0
    1.4289   -2.2539    0.0000 C   0  0  0  0  0  0  0  0  0  0  0  0
    1.4289   -1.4289    0.0000 C   0  0  0  0  0  0  0  0  0  0  0  0
    1.0934   -0.6753    0.0000 O   0  0  0  0  0  0  0  0  0  0  0  0
    2.1434   -1.0164    0.0000 O   0  0  0  0  0  0  0  0  0  0  0  0
  1  2  1  0
  2  3  2  0
  2  4  1  0
  4  5  1  0
  5  6  1  0
  5 10  1  0
  6  7  1  0
  7  8  1  0
  7  9  2  0
 10 11  1  0
 11 12  1  0
 11 13  2  0
M  END
>  <DRUGBANK_ID>  (1) 
DB02810

>  <SECONDARY_ACCESSION_NUMBERS>  (1) 
EXPT02170

>  <COMMON_NAME>  (1) 
N-(2-Acetamido)Iminodiacetic Acid

>  <CAS_NUMBER>  (1) 
26239-55-4

>  <UNII>  (1) 
5C4R3O704E

$$$$
