OHM
     RDKit          2D

 21 21  0  0  0  0  0  0  0  0999 V2000
   -4.1218    2.5731    0.0000 C   0  0  0  0  0  0  0  0  0  0  0  0
   -3.4073    2.9856    0.0000 C   0  0  0  0  0  0  0  0  0  0  0  0
   -2.6928    2.5731    0.0000 C   0  0  0  0  0  0  0  0  0  0  0  0
   -1.9784    2.9856    0.0000 C   0  0  0  0  0  0  0  0  0  0  0  0
   -1.2639    2.5731    0.0000 C   0  0  0  0  0  0  0  0  0  0  0  0
   -0.5494    2.9856    0.0000 C   0  0  0  0  0  0  0  0  0  0  0  0
    0.1651    2.5731    0.0000 C   0  0  0  0  0  0  0  0  0  0  0  0
    0.8795    2.9856    0.0000 C   0  0  0  0  0  0  0  0  0  0  0  0
    1.5940    2.5731    0.0000 C   0  0  0  0  0  0  0  0  0  0  0  0
    2.3085    2.9856    0.0000 C   0  0  0  0  0  0  0  0  0  0  0  0
    2.3085    3.8106    0.0000 O   0  0  0  0  0  0  0  0  0  0  0  0
    3.0229    2.5731    0.0000 C   0  0  0  0  0  0  0  0  0  0  0  0
    3.7374    2.9856    0.0000 C   0  0  0  0  0  0  0  0  0  0  0  0
    3.7374    3.8106    0.0000 O   0  0  0  0  0  0  0  0  0  0  0  0
    4.4519    2.5731    0.0000 N   0  0  0  0  0  0  0  0  0  0  0  0
    5.1664    2.9856    0.0000 C   0  0  0  0  0  0  0  0  0  0  0  0
    5.9200    2.6500    0.0000 C   0  0  0  0  0  0  0  0  0  0  0  0
    6.4721    3.2631    0.0000 C   0  0  0  0  0  0  0  0  0  0  0  0
    6.0596    3.9776    0.0000 N   0  0  0  0  0  0  0  0  0  0  0  0
    5.2526    3.8061    0.0000 C   0  0  0  0  0  0  0  0  0  0  0  0
    4.6395    4.3581    0.0000 O   0  0  0  0  0  0  0  0  0  0  0  0
  1  2  1  0
  2  3  1  0
  3  4  1  0
  4  5  1  0
  5  6  1  0
  6  7  1  0
  7  8  1  0
  8  9  1  0
  9 10  1  0
 10 12  1  0
 10 11  2  0
 12 13  1  0
 13 14  2  0
 13 15  1  0
 16 15  1  6
 16 20  1  0
 16 17  1  0
 17 18  1  0
 18 19  1  0
 19 20  1  0
 20 21  2  0
M  END
>  <DRUGBANK_ID>  (1) 
DB08323

>  <COMMON_NAME>  (1) 
3-OXO-N-[(3S)-2-OXOPYRROLIDIN-3-YL]DODECANAMIDE

$$$$
