BH7
     RDKit          2D

 24 25  0  0  0  0  0  0  0  0999 V2000
   -5.0023   -0.2003    0.0000 N   0  0  0  0  0  0  0  0  0  0  0  0
   -4.2486   -0.5358    0.0000 C   0  0  0  0  0  0  0  0  0  0  0  0
   -3.6966    0.0773    0.0000 C   0  0  0  0  0  0  0  0  0  0  0  0
   -4.1091    0.7917    0.0000 N   0  0  0  0  0  0  0  0  0  0  0  0
   -4.9161    0.6202    0.0000 C   0  0  0  0  0  0  0  0  0  0  0  0
   -3.8361   -1.2503    0.0000 C   0  0  0  0  0  0  0  0  0  0  0  0
   -3.0291   -1.0788    0.0000 S   0  0  0  0  0  0  0  0  0  0  0  0
   -2.9429   -0.2583    0.0000 C   0  0  0  0  0  0  0  0  0  0  0  0
   -5.5291    1.1722    0.0000 O   0  0  0  0  0  0  0  0  0  0  0  0
   -2.2284    0.1542    0.0000 C   0  0  0  0  0  0  0  0  0  0  0  0
   -1.5140   -0.2583    0.0000 C   0  0  0  0  0  0  0  0  0  0  0  0
   -0.7995    0.1542    0.0000 C   0  0  0  0  0  0  0  0  0  0  0  0
   -0.0850   -0.2583    0.0000 C   0  0  0  0  0  0  0  0  0  0  0  0
    0.6294    0.1542    0.0000 C   0  0  0  0  0  0  0  0  0  0  0  0
    0.6294    0.9792    0.0000 O   0  0  0  0  0  0  0  0  0  0  0  0
    1.3439   -0.2583    0.0000 N   0  0  0  0  0  0  0  0  0  0  0  0
    2.0584    0.1542    0.0000 C   0  0  0  0  0  0  0  0  0  0  0  0
    2.7729   -0.2583    0.0000 C   0  0  0  0  0  0  0  0  0  0  0  0
    3.4873    0.1542    0.0000 C   0  0  0  0  0  0  0  0  0  0  0  0
    4.2018   -0.2583    0.0000 C   0  0  0  0  0  0  0  0  0  0  0  0
    4.9163    0.1542    0.0000 C   0  0  0  0  0  0  0  0  0  0  0  0
    5.6307   -0.2583    0.0000 C   0  0  0  0  0  0  0  0  0  0  0  0
    6.3452    0.1542    0.0000 O   0  0  0  0  0  0  0  0  0  0  0  0
    5.6307   -1.0833    0.0000 O   0  0  0  0  0  0  0  0  0  0  0  0
  1  2  1  0
  1  5  1  0
  2  3  1  0
  2  6  1  6
  3  4  1  6
  3  8  1  0
  4  5  1  0
  5  9  2  0
  6  7  1  0
  7  8  1  0
  8 10  1  6
 10 11  1  0
 11 12  1  0
 12 13  1  0
 13 14  1  0
 14 15  2  0
 14 16  1  0
 16 17  1  0
 17 18  1  0
 18 19  1  0
 19 20  1  0
 20 21  1  0
 21 22  1  0
 22 23  1  0
 22 24  2  0
M  END
>  <DRUGBANK_ID>  (1) 
DB03139

>  <SECONDARY_ACCESSION_NUMBERS>  (1) 
EXPT00692

>  <COMMON_NAME>  (1) 
6-[5-(2-Oxo-Hexahydro-Thieno[3,4-D]Imidazol-4-Yl)-Pentanoylamino]-Hexanoic Acid

$$$$
