
     RDKit          2D

 12 11  0  0  0  0  0  0  0  0999 V2000
   -1.4367   -0.4152    0.0000 C   0  0  0  0  0  0  0  0  0  0  0  0
    0.7212   -0.8224    0.0000 C   0  0  0  0  0  0  0  0  0  0  0  0
    0.0057   -0.4117    0.0000 C   0  0  0  0  0  0  0  0  0  0  0  0
   -0.7211   -0.8259    0.0000 N   0  0  0  0  0  0  0  0  0  0  0  0
    0.0170    0.4131    0.0000 C   0  0  0  0  0  0  0  0  0  0  0  0
    1.4480   -0.4082    0.0000 C   0  0  0  0  0  0  0  0  0  0  0  0
   -1.4232    0.4060    0.0000 O   0  0  0  0  0  0  0  0  0  0  0  0
   -0.6964    0.8202    0.0000 O   0  0  0  0  0  0  0  0  0  0  0  0
    1.4558    0.4146    0.0000 O   0  0  0  0  0  0  0  0  0  0  0  0
   -2.1599   -0.8273    0.0000 N   0  0  0  0  0  0  0  0  0  0  0  0
    0.7439    0.8273    0.0000 O   0  0  0  0  0  0  0  0  0  0  0  0
    2.1599   -0.8210    0.0000 O   0  0  0  0  0  0  0  0  0  0  0  0
  3  2  1  6
  3  4  1  0
  4  1  1  0
  5  3  1  0
  6  2  1  0
  7  1  2  0
  8  5  2  0
  9  6  2  0
 10  1  1  0
 11  5  1  0
 12  6  1  0
M  END
>  <DRUGBANK_ID>  (1) 
DB04252

>  <SECONDARY_ACCESSION_NUMBERS>  (1) 
EXPT02310

>  <COMMON_NAME>  (1) 
N-Carbamoylaspartic acid

>  <CAS_NUMBER>  (1) 
13184-27-5

>  <UNII>  (1) 
R2521024DK

>  <SYNONYMS>  (1) 
2-Ureidobutanedioic acid; L-N-Carbamoylaspartic acid; N-Carbamoyl-S-aspartic acid; N-Carbamoylaspartic acid; Ureidosuccinic acid

$$$$
