XMK
     RDKit          2D

 31 34  0  0  0  0  0  0  0  0999 V2000
    1.1686    1.4081    0.0000 C   0  0  0  0  0  0  0  0  0  0  0  0
   -2.4038    4.2956    0.0000 C   0  0  0  0  0  0  0  0  0  0  0  0
   -0.9749    2.6456    0.0000 N   0  0  0  0  0  0  0  0  0  0  0  0
   -1.6893    3.0581    0.0000 C   0  0  0  0  0  0  0  0  0  0  0  0
   -1.6893    3.8831    0.0000 C   0  0  0  0  0  0  0  0  0  0  0  0
   -0.2604    3.0581    0.0000 C   0  0  0  0  0  0  0  0  0  0  0  0
   -2.4038    2.6456    0.0000 C   0  0  0  0  0  0  0  0  0  0  0  0
   -0.9749    1.8206    0.0000 C   0  0  0  0  0  0  0  0  0  0  0  0
    0.4541    1.8206    0.0000 C   0  0  0  0  0  0  0  0  0  0  0  0
    0.4541    2.6456    0.0000 C   0  0  0  0  0  0  0  0  0  0  0  0
   -3.1183    3.8831    0.0000 N   0  0  0  0  0  0  0  0  0  0  0  0
   -3.1183    3.0581    0.0000 C   0  0  0  0  0  0  0  0  0  0  0  0
   -0.2604    1.4081    0.0000 C   0  0  0  0  0  0  0  0  0  0  0  0
    0.4541   -3.1294    0.0000 C   0  0  0  0  0  0  0  0  0  0  0  0
    1.1686   -2.7169    0.0000 C   0  0  0  0  0  0  0  0  0  0  0  0
   -0.2604   -4.3669    0.0000 C   0  0  0  0  0  0  0  0  0  0  0  0
    1.1686   -1.8919    0.0000 S   0  0  0  0  0  0  0  0  0  0  0  0
    0.4541   -3.9544    0.0000 C   0  0  0  0  0  0  0  0  0  0  0  0
    0.4541   -6.4294    0.0000 Cl  0  0  0  0  0  0  0  0  0  0  0  0
    1.9936   -1.8919    0.0000 O   0  0  0  0  0  0  0  0  0  0  0  0
    1.8830    0.1706    0.0000 C   0  0  0  0  0  0  0  0  0  0  0  0
    1.8830   -0.6544    0.0000 C   0  0  0  0  0  0  0  0  0  0  0  0
    1.1686   -1.0669    0.0000 N   0  0  0  0  0  0  0  0  0  0  0  0
    1.1686   -4.3669    0.0000 C   0  0  0  0  0  0  0  0  0  0  0  0
    0.4541    0.1706    0.0000 C   0  0  0  0  0  0  0  0  0  0  0  0
    0.4541   -0.6544    0.0000 C   0  0  0  0  0  0  0  0  0  0  0  0
   -0.2604   -5.1919    0.0000 C   0  0  0  0  0  0  0  0  0  0  0  0
    1.1686    0.5831    0.0000 N   0  0  0  0  0  0  0  0  0  0  0  0
    1.1686   -5.1919    0.0000 C   0  0  0  0  0  0  0  0  0  0  0  0
    0.4541   -5.6044    0.0000 C   0  0  0  0  0  0  0  0  0  0  0  0
    0.3436   -1.8919    0.0000 O   0  0  0  0  0  0  0  0  0  0  0  0
  1  9  1  0
  1 28  1  0
  2  5  2  0
  2 11  1  0
  3  4  1  0
  3  6  1  0
  3  8  1  0
  4  5  1  0
  4  7  2  0
  6 10  1  0
  7 12  1  0
  8 13  1  0
  9 10  1  0
  9 13  1  0
 11 12  2  0
 14 15  2  0
 14 18  1  0
 15 17  1  0
 16 18  2  0
 16 27  1  0
 17 20  2  0
 17 23  1  0
 17 31  2  0
 18 24  1  0
 19 30  1  0
 21 22  1  0
 21 28  1  0
 22 23  1  0
 23 26  1  0
 24 29  2  0
 25 26  1  0
 25 28  1  0
 27 30  2  0
 29 30  1  0
M  END
>  <DRUGBANK_ID>  (1) 
DB08746

>  <COMMON_NAME>  (1) 
1-[[(1E)-2-(4-CHLOROPHENYL)ETHENYL]SULFONYL]-4-[[1-(4-PYRIDINYL)-4-PIPERIDINYL]METHYL]PIPERAZINE

$$$$
