PAY
     RDKit          2D

 20 19  0  0  0  0  0  0  0  0999 V2000
   -3.0977   -1.3172    0.0000 O   0  0  0  0  0  0  0  0  0  0  0  0
   -3.8121   -0.0797    0.0000 O   0  0  0  0  0  0  0  0  0  0  0  0
   -3.0977   -0.4922    0.0000 C   0  0  0  0  0  0  0  0  0  0  0  0
   -2.3832   -0.0797    0.0000 C   0  0  0  0  0  0  0  0  0  0  0  0
   -1.6687   -0.4922    0.0000 C   0  0  0  0  0  0  0  0  0  0  0  0
   -0.9543   -0.0797    0.0000 C   0  0  0  0  0  0  0  0  0  0  0  0
   -0.9543    0.7453    0.0000 C   0  0  0  0  0  0  0  0  0  0  0  0
   -0.2398    1.1578    0.0000 O   0  0  0  0  0  0  0  0  0  0  0  0
   -1.6687    1.1578    0.0000 O   0  0  0  0  0  0  0  0  0  0  0  0
   -0.2398   -0.4922    0.0000 C   0  0  0  0  0  0  0  0  0  0  0  0
    0.4747   -0.0797    0.0000 C   0  0  0  0  0  0  0  0  0  0  0  0
    0.4747    0.7453    0.0000 C   0  0  0  0  0  0  0  0  0  0  0  0
    0.1391    1.4990    0.0000 O   0  0  0  0  0  0  0  0  0  0  0  0
    1.1892    1.1578    0.0000 O   0  0  0  0  0  0  0  0  0  0  0  0
    1.1892   -0.4922    0.0000 C   0  0  0  0  0  0  0  0  0  0  0  0
    1.9036   -0.0797    0.0000 C   0  0  0  0  0  0  0  0  0  0  0  0
    1.9036    0.7453    0.0000 C   0  0  0  0  0  0  0  0  0  0  0  0
    2.6181   -0.4922    0.0000 C   0  0  0  0  0  0  0  0  0  0  0  0
    3.3326   -0.0797    0.0000 O   0  0  0  0  0  0  0  0  0  0  0  0
    2.6181   -1.3172    0.0000 O   0  0  0  0  0  0  0  0  0  0  0  0
  1  3  1  0
  2  3  2  0
  3  4  1  0
  4  5  1  0
  6  5  1  1
  6  7  1  0
  6 10  1  0
  7  8  2  0
  7  9  1  0
 11 10  1  6
 11 12  1  0
 11 15  1  0
 12 13  2  0
 12 14  1  0
 15 16  1  0
 16 17  1  6
 16 18  1  0
 18 19  1  0
 18 20  2  0
M  END
>  <DRUGBANK_ID>  (1) 
DB08368

>  <COMMON_NAME>  (1) 
OCTANE-1,3,5,7-TETRACARBOXYLIC ACID

$$$$
