304
     RDKit          2D

 24 25  0  0  0  0  0  0  0  0999 V2000
    3.1209    1.2704    0.0000 C   0  0  0  0  0  0  0  0  0  0  0  0
    2.9493    0.4635    0.0000 C   0  0  0  0  0  0  0  0  0  0  0  0
    1.7231    1.5675    0.0000 C   0  0  0  0  0  0  0  0  0  0  0  0
   -0.8566   -0.0714    0.0000 C   0  0  0  0  0  0  0  0  0  0  0  0
    2.5078    1.8225    0.0000 C   0  0  0  0  0  0  0  0  0  0  0  0
    2.1647    0.2085    0.0000 C   0  0  0  0  0  0  0  0  0  0  0  0
    1.5516    0.7606    0.0000 C   0  0  0  0  0  0  0  0  0  0  0  0
   -0.1892   -0.5563    0.0000 C   0  0  0  0  0  0  0  0  0  0  0  0
   -1.2691   -1.3409    0.0000 C   0  0  0  0  0  0  0  0  0  0  0  0
    2.6793    2.6294    0.0000 C   0  0  0  0  0  0  0  0  0  0  0  0
    0.5955   -0.3014    0.0000 C   0  0  0  0  0  0  0  0  0  0  0  0
    1.9932   -0.5985    0.0000 C   0  0  0  0  0  0  0  0  0  0  0  0
   -3.8799   -2.5033    0.0000 C   0  0  0  0  0  0  0  0  0  0  0  0
   -2.9101   -1.1684    0.0000 C   0  0  0  0  0  0  0  0  0  0  0  0
    3.6354    3.6913    0.0000 C   0  0  0  0  0  0  0  0  0  0  0  0
   -3.0594   -2.5896    0.0000 C   0  0  0  0  0  0  0  0  0  0  0  0
   -2.5745   -1.9221    0.0000 C   0  0  0  0  0  0  0  0  0  0  0  0
   -1.5240   -0.5563    0.0000 N   0  0  0  0  0  0  0  0  0  0  0  0
    0.7670    0.5056    0.0000 N   0  0  0  0  0  0  0  0  0  0  0  0
   -1.7540   -2.0084    0.0000 N   0  0  0  0  0  0  0  0  0  0  0  0
    3.4639    2.8844    0.0000 N   0  0  0  0  0  0  0  0  0  0  0  0
    2.0662    3.1815    0.0000 O   0  0  0  0  0  0  0  0  0  0  0  0
    1.2086   -0.8534    0.0000 O   0  0  0  0  0  0  0  0  0  0  0  0
   -0.4441   -1.3409    0.0000 S   0  0  0  0  0  0  0  0  0  0  0  0
  1  2  2  0
  1  5  1  0
  2  6  1  0
  3  5  2  0
  3  7  1  0
  4  8  2  0
  4 18  1  0
  5 10  1  0
  6  7  2  0
  6 12  1  0
  7 19  1  0
  8 11  1  0
  8 24  1  0
  9 18  2  0
  9 20  1  0
  9 24  1  0
 10 21  1  0
 10 22  2  0
 11 19  1  0
 11 23  2  0
 13 16  1  0
 15 21  1  0
 16 17  1  0
 17 14  1  1
 17 20  1  0
M  END
>  <DRUGBANK_ID>  (1) 
DB06991

>  <COMMON_NAME>  (1) 
N-[2-methyl-5-(methylcarbamoyl)phenyl]-2-{[(1R)-1-methylpropyl]amino}-1,3-thiazole-5-carboxamide

$$$$
