
     RDKit          2D

 25 24  0  0  0  0  0  0  0  0999 V2000
    0.3712   -0.2925    0.0000 Mg  0  0  0  0  0 15  0  0  0  0  0  0
   -2.2535   -1.1323    0.0000 O   0  0  0  0  0  0  0  0  0  0  0  0
    3.1009    0.0000    0.0000 O   0  0  0  0  0  0  0  0  0  0  0  0
   -0.4162   -0.0374    0.0000 O   0  0  0  0  0  0  0  0  0  0  0  0
    0.9787    0.2624    0.0000 O   0  0  0  0  0  0  0  0  0  0  0  0
   -1.6910    1.0049    0.0000 O   0  0  0  0  0  0  0  0  0  0  0  0
    1.7210    1.7323    0.0000 O   0  0  0  0  0  0  0  0  0  0  0  0
    3.1534    2.5572    0.0000 O   0  0  0  0  0  0  0  0  0  0  0  0
   -3.3334    1.1773    0.0000 O   0  0  0  0  0  0  0  0  0  0  0  0
   -0.2287   -1.8298    0.0000 O   0  0  0  0  0  0  0  0  0  0  0  0
    1.5336   -1.4473    0.0000 O   0  0  0  0  0  0  0  0  0  0  0  0
   -1.8710   -2.5572    0.0000 O   0  0  0  0  0  0  0  0  0  0  0  0
    3.3334   -1.4473    0.0000 O   0  0  0  0  0  0  0  0  0  0  0  0
   -1.8410   -0.4199    0.0000 C   0  0  0  0  0  0  0  0  0  0  0  0
    2.4335    0.4874    0.0000 C   0  0  0  0  0  0  0  0  0  0  0  0
   -2.1785    0.3375    0.0000 C   0  0  0  0  0  0  0  0  0  0  0  0
    2.4335    1.3123    0.0000 C   0  0  0  0  0  0  0  0  0  0  0  0
   -1.0311   -0.5924    0.0000 C   0  0  0  0  0  0  0  0  0  0  0  0
    1.7660    0.0000    0.0000 C   0  0  0  0  0  0  0  0  0  0  0  0
    3.1534    1.7323    0.0000 C   0  0  0  0  0  0  0  0  0  0  0  0
   -2.9960    0.4199    0.0000 C   0  0  0  0  0  0  0  0  0  0  0  0
   -0.9486   -1.4098    0.0000 C   0  0  0  0  0  0  0  0  0  0  0  0
    2.0210   -0.7799    0.0000 C   0  0  0  0  0  0  0  0  0  0  0  0
   -1.6986   -1.7473    0.0000 C   0  0  0  0  0  0  0  0  0  0  0  0
    2.8460   -0.7799    0.0000 C   0  0  0  0  0  0  0  0  0  0  0  0
 14  2  1  6
  2 24  1  0
 15  3  1  1
  3 25  1  0
  4 18  1  0
  5 19  1  0
  8 20  1  0
  9 21  1  0
 10 22  1  0
 11 23  1  0
 12 24  2  0
 13 25  2  0
 14 16  1  0
 14 18  1  0
 15 17  1  0
 15 19  1  0
 16  6  1  6
 16 21  1  0
 17  7  1  1
 17 20  1  0
 18 22  2  0
 19 23  2  0
 22 24  1  0
 23 25  1  0
M  CHG  3   1   2   4  -1   5  -1
M  END
>  <DRUGBANK_ID>  (1) 
DB14484

>  <SECONDARY_ACCESSION_NUMBERS>  (1) 
DBSALT002423

>  <COMMON_NAME>  (1) 
Magnesium ascorbate

>  <CAS_NUMBER>  (1) 
15431-40-0

>  <UNII>  (1) 
0N1G678593

>  <SYNONYMS>  (1) 
Ascorbic acid, magnesium salt; L(+)-ascorbic acid magnesium salt; Vitamin C magnesium salt

$$$$
