
     RDKit          2D

  6  3  0  0  0  0  0  0  0  0999 V2000
   -0.4190   -0.0017    0.0000 C   0  0  0  0  0  0  0  0  0  0  0  0
   -0.0035    0.7110    0.0000 O   0  0  0  0  0  0  0  0  0  0  0  0
    0.0201   -0.7110    0.0000 O   0  0  0  0  0  0  0  0  0  0  0  0
   -1.1892   -0.0017    0.0000 O   0  0  0  0  0  0  0  0  0  0  0  0
    1.1229    0.6827    0.0000 N   0  0  0  0  0  0  0  0  0  0  0  0
    1.1892   -0.5180    0.0000 N   0  0  0  0  0  0  0  0  0  0  0  0
  1  2  1  0
  1  3  1  0
  1  4  2  0
M  CHG  4   2  -1   3  -1   5   1   6   1
M  END
>  <DRUGBANK_ID>  (1) 
DB15926

>  <COMMON_NAME>  (1) 
Ammonium carbonate

>  <CAS_NUMBER>  (1) 
506-87-6

>  <UNII>  (1) 
PDP691CN28

>  <SYNONYMS>  (1) 
Carbonic acid, diammonium salt; Crystal ammonia; Diammonium carbonate

$$$$
