F10
     RDKit          2D

 23 26  0  0  0  0  0  0  0  0999 V2000
    3.0788    0.0803    0.0000 N   0  0  0  0  0  0  0  0  0  0  0  0
    2.3644   -1.1572    0.0000 O   0  0  0  0  0  0  0  0  0  0  0  0
   -1.6821   -1.6506    0.0000 C   0  0  0  0  0  0  0  0  0  0  0  0
   -0.8571   -0.2216    0.0000 C   0  0  0  0  0  0  0  0  0  0  0  0
   -2.0946   -2.3651    0.0000 C   0  0  0  0  0  0  0  0  0  0  0  0
    0.8653   -0.1746    0.0000 C   0  0  0  0  0  0  0  0  0  0  0  0
    3.0788    0.9053    0.0000 C   0  0  0  0  0  0  0  0  0  0  0  0
    2.3644    1.3178    0.0000 C   0  0  0  0  0  0  0  0  0  0  0  0
    1.6499    0.0803    0.0000 C   0  0  0  0  0  0  0  0  0  0  0  0
    2.3644   -0.3322    0.0000 C   0  0  0  0  0  0  0  0  0  0  0  0
   -0.8571    1.2073    0.0000 C   0  0  0  0  0  0  0  0  0  0  0  0
   -1.6821    1.2073    0.0000 C   0  0  0  0  0  0  0  0  0  0  0  0
    1.6499    0.9053    0.0000 C   0  0  0  0  0  0  0  0  0  0  0  0
   -0.4446    0.4928    0.0000 C   0  0  0  0  0  0  0  0  0  0  0  0
    0.3804    0.4928    0.0000 C   0  0  0  0  0  0  0  0  0  0  0  0
   -1.6821   -0.2216    0.0000 C   0  0  0  0  0  0  0  0  0  0  0  0
   -2.0946   -0.9361    0.0000 C   0  0  0  0  0  0  0  0  0  0  0  0
   -2.9196   -0.9361    0.0000 C   0  0  0  0  0  0  0  0  0  0  0  0
   -3.3321   -1.6506    0.0000 C   0  0  0  0  0  0  0  0  0  0  0  0
   -2.9196   -2.3651    0.0000 C   0  0  0  0  0  0  0  0  0  0  0  0
   -3.3321   -0.2216    0.0000 F   0  0  0  0  0  0  0  0  0  0  0  0
    0.8653    1.1603    0.0000 N   0  0  0  0  0  0  0  0  0  0  0  0
   -2.0946    0.4928    0.0000 N   0  0  0  0  0  0  0  0  0  0  0  0
  1 10  1  0
  1  7  1  0
  2 10  2  0
  3  5  2  0
  3 17  1  0
  4 16  2  0
  4 14  1  0
  5 20  1  0
  6 15  2  0
  6  9  1  0
  7  8  1  0
  8 13  1  0
  9 10  1  0
  9 13  2  0
 11 12  1  0
 11 14  2  0
 12 23  2  0
 13 22  1  0
 14 15  1  0
 15 22  1  0
 16 23  1  0
 16 17  1  0
 17 18  2  0
 18 19  1  0
 18 21  1  0
 19 20  2  0
M  END
>  <DRUGBANK_ID>  (1) 
DB07728

>  <COMMON_NAME>  (1) 
2-[2-(2-FLUOROPHENYL)PYRIDIN-4-YL]-1,5,6,7-TETRAHYDRO-4H-PYRROLO[3,2-C]PYRIDIN-4-ONE

$$$$
