4UN
     RDKit          2D

 32 35  0  0  0  0  0  0  0  0999 V2000
    1.7372    3.9352    0.0000 O   0  0  0  0  0  0  0  0  0  0  0  0
    1.9922    3.1506    0.0000 S   0  0  0  0  0  0  0  0  0  0  0  0
    1.2075    2.8957    0.0000 O   0  0  0  0  0  0  0  0  0  0  0  0
    2.7768    3.4056    0.0000 O   0  0  0  0  0  0  0  0  0  0  0  0
    2.2471    2.3660    0.0000 N   0  0  0  0  0  0  0  0  0  0  0  0
    1.6951    1.7529    0.0000 C   0  0  0  0  0  0  0  0  0  0  0  0
    1.9500    0.9683    0.0000 C   0  0  0  0  0  0  0  0  0  0  0  0
    1.3980    0.3552    0.0000 C   0  0  0  0  0  0  0  0  0  0  0  0
    0.5910    0.5267    0.0000 C   0  0  0  0  0  0  0  0  0  0  0  0
    0.3361    1.3113    0.0000 C   0  0  0  0  0  0  0  0  0  0  0  0
    0.8881    1.9244    0.0000 C   0  0  0  0  0  0  0  0  0  0  0  0
    0.0390   -0.0864    0.0000 C   0  0  0  0  0  0  0  0  0  0  0  0
    0.0390   -0.9114    0.0000 C   0  0  0  0  0  0  0  0  0  0  0  0
    0.0390   -1.7364    0.0000 C   0  0  0  0  0  0  0  0  0  0  0  0
    0.7064   -2.2213    0.0000 N   0  0  0  0  0  0  0  0  0  0  0  0
    0.4515   -3.0059    0.0000 O   0  0  0  0  0  0  0  0  0  0  0  0
   -0.3735   -3.0059    0.0000 C   0  0  0  0  0  0  0  0  0  0  0  0
   -0.8584   -3.6734    0.0000 C   0  0  0  0  0  0  0  0  0  0  0  0
   -0.6285   -2.2213    0.0000 N   0  0  0  0  0  0  0  0  0  0  0  0
    0.8640   -0.9114    0.0000 C   0  0  0  0  0  0  0  0  0  0  0  0
    1.3489   -0.2439    0.0000 N   0  0  0  0  0  0  0  0  0  0  0  0
    2.1335   -0.4989    0.0000 O   0  0  0  0  0  0  0  0  0  0  0  0
    2.1335   -1.3239    0.0000 C   0  0  0  0  0  0  0  0  0  0  0  0
    2.8010   -1.8088    0.0000 C   0  0  0  0  0  0  0  0  0  0  0  0
    1.3489   -1.5788    0.0000 N   0  0  0  0  0  0  0  0  0  0  0  0
   -0.7860   -0.9114    0.0000 C   0  0  0  0  0  0  0  0  0  0  0  0
   -1.1985   -0.1969    0.0000 C   0  0  0  0  0  0  0  0  0  0  0  0
   -2.0235   -0.1969    0.0000 C   0  0  0  0  0  0  0  0  0  0  0  0
   -2.4360    0.5176    0.0000 C   0  0  0  0  0  0  0  0  0  0  0  0
   -2.0235    1.2320    0.0000 C   0  0  0  0  0  0  0  0  0  0  0  0
   -1.1985    1.2320    0.0000 C   0  0  0  0  0  0  0  0  0  0  0  0
   -0.7860    0.5176    0.0000 C   0  0  0  0  0  0  0  0  0  0  0  0
  1  2  2  0
  2  3  2  0
  2  4  1  0
  2  5  1  0
  5  6  1  0
  6  7  2  0
  6 11  1  0
  7  8  1  0
  8  9  2  0
  9 10  1  0
  9 12  1  0
 10 11  2  0
 12 13  1  0
 13 14  1  0
 13 20  1  0
 13 26  1  0
 14 15  2  0
 14 19  1  0
 15 16  1  0
 16 17  1  0
 17 18  1  0
 17 19  2  0
 20 21  2  0
 20 25  1  0
 21 22  1  0
 22 23  1  0
 23 24  1  0
 23 25  2  0
 26 27  1  0
 27 28  2  0
 27 32  1  0
 28 29  1  0
 29 30  2  0
 30 31  1  0
 31 32  2  0
M  END
>  <DRUGBANK_ID>  (1) 
DB07127

>  <COMMON_NAME>  (1) 
{4-[2,2-BIS(5-METHYL-1,2,4-OXADIAZOL-3-YL)-3-PHENYLPROPYL]PHENYL}SULFAMIC ACID

$$$$
