
     RDKit          2D

 21 23  0  0  0  0  0  0  0  0999 V2000
    1.3743    2.2215    0.0000 C   0  0  0  0  0  0  0  0  0  0  0  0
    2.1989    2.2215    0.0000 C   0  0  0  0  0  0  0  0  0  0  0  0
    1.7865    1.5057    0.0000 C   0  0  0  0  0  0  0  0  0  0  0  0
   -0.3511    1.0852    0.0000 C   0  0  0  0  0  0  0  0  0  0  0  0
   -0.3523    0.2582    0.0000 C   0  0  0  0  0  0  0  0  0  0  0  0
    0.3621   -0.1544    0.0000 C   0  0  0  0  0  0  0  0  0  0  0  0
    1.0781    0.2587    0.0000 C   0  0  0  0  0  0  0  0  0  0  0  0
    1.0752    1.0887    0.0000 C   0  0  0  0  0  0  0  0  0  0  0  0
    0.3603    1.4977    0.0000 C   0  0  0  0  0  0  0  0  0  0  0  0
   -2.4919   -0.1600    0.0000 C   0  0  0  0  0  0  0  0  0  0  0  0
   -2.4930   -0.9870    0.0000 C   0  0  0  0  0  0  0  0  0  0  0  0
   -1.7786   -1.3997    0.0000 C   0  0  0  0  0  0  0  0  0  0  0  0
   -1.0625   -0.9865    0.0000 C   0  0  0  0  0  0  0  0  0  0  0  0
   -1.0653   -0.1564    0.0000 C   0  0  0  0  0  0  0  0  0  0  0  0
   -1.7804    0.2525    0.0000 C   0  0  0  0  0  0  0  0  0  0  0  0
   -3.2109   -1.3927    0.0000 Cl  0  0  0  0  0  0  0  0  0  0  0  0
   -1.7866   -2.2215    0.0000 Cl  0  0  0  0  0  0  0  0  0  0  0  0
   -1.0703    1.5015    0.0000 F   0  0  0  0  0  0  0  0  0  0  0  0
    2.4987    1.0934    0.0000 C   0  0  0  0  0  0  0  0  0  0  0  0
    3.2109    1.5099    0.0000 O   0  0  0  0  0  0  0  0  0  0  0  0
    2.4946    0.2688    0.0000 O   0  0  0  0  0  0  0  0  0  0  0  0
  1  3  1  0
  2  1  1  0
  3  2  1  0
  3 19  1  0
  4 18  1  0
  4  5  2  0
  5  6  1  0
  6  7  2  0
  7  8  1  0
  8  9  2  0
  8  3  1  0
  9  4  1  0
 10 11  2  0
 11 12  1  0
 11 16  1  0
 12 13  2  0
 12 17  1  0
 13 14  1  0
 14 15  2  0
 14  5  1  0
 15 10  1  0
 19 20  2  0
 19 21  1  0
M  END
>  <DRUGBANK_ID>  (1) 
DB16825

>  <COMMON_NAME>  (1) 
Itanapraced

>  <CAS_NUMBER>  (1) 
749269-83-8

>  <UNII>  (1) 
C35RF1MWQZ

>  <SYNONYMS>  (1) 
Itanapraced

$$$$
