
     RDKit          2D

 17 17  0  0  0  0  0  0  0  0999 V2000
   -1.7189   -3.0934    0.0000 C   0  0  0  0  0  0  0  0  0  0  0  0
    1.1486    1.8559    0.0000 C   0  0  0  0  0  0  0  0  0  0  0  0
   -1.7202   -3.7534    0.0000 C   0  0  0  0  0  0  0  0  0  0  0  0
    1.1486    2.6809    0.0000 C   0  0  0  0  0  0  0  0  0  0  0  0
    0.4342    1.4434    0.0000 C   0  0  0  0  0  0  0  0  0  0  0  0
   -0.2802    1.8559    0.0000 C   0  0  0  0  0  0  0  0  0  0  0  0
    0.4342    3.0934    0.0000 C   0  0  0  0  0  0  0  0  0  0  0  0
    1.7202    1.5259    0.0000 Cl  0  0  0  0  0  0  0  0  0  0  0  0
   -1.0017   -1.8563    0.0000 N   0  0  0  0  0  0  0  0  0  0  0  0
   -0.2802    2.6809    0.0000 C   0  0  0  0  0  0  0  0  0  0  0  0
    0.4342    3.7534    0.0000 Cl  0  0  0  0  0  0  0  0  0  0  0  0
   -1.7172   -2.2680    0.0000 C   0  0  0  0  0  0  0  0  0  0  0  0
    0.4325    0.6180    0.0000 O   0  0  0  0  0  0  0  0  0  0  0  0
   -0.2846   -0.6191    0.0000 C   0  0  0  0  0  0  0  0  0  0  0  0
   -1.0000   -1.0308    0.0000 C   0  0  0  0  0  0  0  0  0  0  0  0
   -0.2829    0.2063    0.0000 C   0  0  0  0  0  0  0  0  0  0  0  0
   -0.4307   -2.1872    0.0000 C   0  0  0  0  0  0  0  0  0  0  0  0
  1  3  3  0
  1 12  1  0
  2  4  2  0
  2  5  1  0
  2  8  1  0
  4  7  1  0
  5  6  2  0
  5 13  1  0
  6 10  1  0
  7 10  2  0
  7 11  1  0
  9 12  1  0
  9 15  1  0
  9 17  1  0
 13 16  1  0
 14 15  1  0
 14 16  1  0
M  END
>  <DRUGBANK_ID>  (1) 
DB04017

>  <SECONDARY_ACCESSION_NUMBERS>  (1) 
EXPT02182; DB14032

>  <COMMON_NAME>  (1) 
Clorgiline

>  <CAS_NUMBER>  (1) 
17780-72-2

>  <UNII>  (1) 
LYJ16FZU9Q

>  <SYNONYMS>  (1) 
Clorgilina; Clorgiline; Clorgilinum; Clorgyline

$$$$
