DK2
     RDKit          2D

 26 28  0  0  0  0  0  0  0  0999 V2000
    0.6711   -1.4293    0.0000 O   0  0  0  0  0  0  0  0  0  0  0  0
    0.9261   -0.6447    0.0000 C   0  0  0  0  0  0  0  0  0  0  0  0
    1.7107   -0.3897    0.0000 C   0  0  0  0  0  0  0  0  0  0  0  0
    1.7107    0.4353    0.0000 C   0  0  0  0  0  0  0  0  0  0  0  0
    2.4252    0.8478    0.0000 C   0  0  0  0  0  0  0  0  0  0  0  0
    2.4252   -0.8022    0.0000 C   0  0  0  0  0  0  0  0  0  0  0  0
    3.1396   -0.3897    0.0000 C   0  0  0  0  0  0  0  0  0  0  0  0
    3.1396    0.4353    0.0000 C   0  0  0  0  0  0  0  0  0  0  0  0
    3.8541    0.8478    0.0000 C   0  0  0  0  0  0  0  0  0  0  0  0
    4.5686    0.4353    0.0000 O   0  0  0  0  0  0  0  0  0  0  0  0
    3.8541    1.6728    0.0000 O   0  0  0  0  0  0  0  0  0  0  0  0
    0.4411    0.0228    0.0000 N   0  0  0  0  0  0  0  0  0  0  0  0
    0.9261    0.6902    0.0000 C   0  0  0  0  0  0  0  0  0  0  0  0
    0.6711    1.4748    0.0000 O   0  0  0  0  0  0  0  0  0  0  0  0
   -0.3839    0.0228    0.0000 C   0  0  0  0  0  0  0  0  0  0  0  0
   -0.7964    0.7372    0.0000 C   0  0  0  0  0  0  0  0  0  0  0  0
   -0.3839    1.4517    0.0000 O   0  0  0  0  0  0  0  0  0  0  0  0
   -1.6214    0.7372    0.0000 O   0  0  0  0  0  0  0  0  0  0  0  0
   -0.7964   -0.6917    0.0000 C   0  0  0  0  0  0  0  0  0  0  0  0
   -1.6214   -0.6917    0.0000 C   0  0  0  0  0  0  0  0  0  0  0  0
   -2.0339   -1.4062    0.0000 C   0  0  0  0  0  0  0  0  0  0  0  0
   -2.8589   -1.4062    0.0000 C   0  0  0  0  0  0  0  0  0  0  0  0
   -3.2714   -0.6917    0.0000 C   0  0  0  0  0  0  0  0  0  0  0  0
   -4.0964   -0.6917    0.0000 O   0  0  0  0  0  0  0  0  0  0  0  0
   -2.8589    0.0228    0.0000 C   0  0  0  0  0  0  0  0  0  0  0  0
   -2.0339    0.0228    0.0000 C   0  0  0  0  0  0  0  0  0  0  0  0
  1  2  2  0
  2 12  1  0
  2  3  1  0
  3  4  2  0
  3  6  1  0
  4 13  1  0
  4  5  1  0
  5  8  2  0
  6  7  2  0
  7  8  1  0
  8  9  1  0
  9 11  2  0
  9 10  1  0
 12 13  1  0
 13 14  2  0
 15 12  1  0
 15 16  1  0
 15 19  1  6
 16 18  2  0
 16 17  1  0
 19 20  1  0
 20 21  2  0
 20 26  1  0
 21 22  1  0
 22 23  2  0
 23 24  1  0
 23 25  1  0
 25 26  2  0
M  END
>  <DRUGBANK_ID>  (1) 
DB07663

>  <COMMON_NAME>  (1) 
2-[(1R)-1-CARBOXY-2-(4-HYDROXYPHENYL)ETHYL]-1,3-DIOXOISOINDOLINE-5-CARBOXYLIC ACID

$$$$
