MTB
     RDKit          2D

 22 23  0  0  0  0  0  0  0  0999 V2000
    0.9767   -1.9609    0.0000 C   0  0  0  0  0  0  0  0  0  0  0  0
    1.6912   -2.3734    0.0000 C   0  0  0  0  0  0  0  0  0  0  0  0
    1.6912   -3.1984    0.0000 C   0  0  0  0  0  0  0  0  0  0  0  0
    0.9767   -3.6109    0.0000 C   0  0  0  0  0  0  0  0  0  0  0  0
    0.2622   -3.1984    0.0000 C   0  0  0  0  0  0  0  0  0  0  0  0
    0.2622   -2.3734    0.0000 C   0  0  0  0  0  0  0  0  0  0  0  0
    0.2622    0.1016    0.0000 C   0  0  0  0  0  0  0  0  0  0  0  0
   -0.4522    0.5141    0.0000 C   0  0  0  0  0  0  0  0  0  0  0  0
   -0.4522    1.3391    0.0000 C   0  0  0  0  0  0  0  0  0  0  0  0
    0.2622    1.7516    0.0000 C   0  0  0  0  0  0  0  0  0  0  0  0
    0.9767    1.3391    0.0000 C   0  0  0  0  0  0  0  0  0  0  0  0
    0.9767    0.5141    0.0000 C   0  0  0  0  0  0  0  0  0  0  0  0
    2.4056   -1.9609    0.0000 C   0  0  0  0  0  0  0  0  0  0  0  0
   -1.1667    1.7516    0.0000 C   0  0  0  0  0  0  0  0  0  0  0  0
   -1.8812    2.1641    0.0000 C   0  0  0  0  0  0  0  0  0  0  0  0
   -0.7542    2.4660    0.0000 C   0  0  0  0  0  0  0  0  0  0  0  0
   -1.5792    1.0371    0.0000 C   0  0  0  0  0  0  0  0  0  0  0  0
    0.9767   -1.1359    0.0000 N   0  0  0  0  0  0  0  0  0  0  0  0
    0.2622   -0.7234    0.0000 N   0  0  0  0  0  0  0  0  0  0  0  0
    3.1201   -2.3734    0.0000 O   0  0  0  0  0  0  0  0  0  0  0  0
    2.4056   -1.1359    0.0000 O   0  0  0  0  0  0  0  0  0  0  0  0
    0.2622    2.5766    0.0000 O   0  0  0  0  0  0  0  0  0  0  0  0
  1  2  2  0
  1  6  1  0
  1 18  1  0
  2  3  1  0
  2 13  1  0
  3  4  2  0
  4  5  1  0
  5  6  2  0
  7  8  2  0
  7 12  1  0
  7 19  1  0
  8  9  1  0
  9 10  2  0
  9 14  1  0
 10 11  1  0
 10 22  1  0
 11 12  2  0
 13 20  2  0
 13 21  1  0
 14 15  1  0
 14 16  1  0
 14 17  1  0
 18 19  2  0
M  END
>  <DRUGBANK_ID>  (1) 
DB08216

>  <COMMON_NAME>  (1) 
2-((3'-TERTBUTYL-4'-HYDROXYPHENYL)AZO)BENZOIC ACID

$$$$
