LZG
     RDKit          2D

 33 36  0  0  0  0  0  0  0  0999 V2000
    8.5563   39.1029    0.0000 Cl  0  0  0  0  0  0  0  0  0  0  0  0
    8.5563   38.2779    0.0000 C   0  0  0  0  0  0  0  0  0  0  0  0
    9.2237   37.7930    0.0000 C   0  0  0  0  0  0  0  0  0  0  0  0
    8.9688   37.0084    0.0000 C   0  0  0  0  0  0  0  0  0  0  0  0
    7.8889   37.7930    0.0000 S   0  0  0  0  0  0  0  0  0  0  0  0
    8.1438   37.0084    0.0000 C   0  0  0  0  0  0  0  0  0  0  0  0
    7.6589   36.3410    0.0000 C   0  0  0  0  0  0  0  0  0  0  0  0
    7.9944   35.5873    0.0000 O   0  0  0  0  0  0  0  0  0  0  0  0
    6.8384   36.4272    0.0000 N   0  0  0  0  0  0  0  0  0  0  0  0
    6.3535   35.7597    0.0000 C   0  0  0  0  0  0  0  0  0  0  0  0
    6.6084   34.9751    0.0000 C   0  0  0  0  0  0  0  0  0  0  0  0
    7.3930   34.7202    0.0000 F   0  0  0  0  0  0  0  0  0  0  0  0
    5.9410   34.4902    0.0000 C   0  0  0  0  0  0  0  0  0  0  0  0
    5.5285   35.7597    0.0000 C   0  0  0  0  0  0  0  0  0  0  0  0
    5.2735   34.9751    0.0000 N   0  0  0  0  0  0  0  0  0  0  0  0
    4.4889   34.7202    0.0000 C   0  0  0  0  0  0  0  0  0  0  0  0
    4.3174   33.9132    0.0000 C   0  0  0  0  0  0  0  0  0  0  0  0
    4.9305   33.3612    0.0000 O   0  0  0  0  0  0  0  0  0  0  0  0
    3.5328   33.6583    0.0000 N   0  0  0  0  0  0  0  0  0  0  0  0
    3.3612   32.8513    0.0000 C   0  0  0  0  0  0  0  0  0  0  0  0
    3.9743   32.2993    0.0000 C   0  0  0  0  0  0  0  0  0  0  0  0
    4.7590   32.5542    0.0000 F   0  0  0  0  0  0  0  0  0  0  0  0
    2.5766   32.5964    0.0000 C   0  0  0  0  0  0  0  0  0  0  0  0
    2.4051   31.7894    0.0000 C   0  0  0  0  0  0  0  0  0  0  0  0
    3.0182   31.2374    0.0000 C   0  0  0  0  0  0  0  0  0  0  0  0
    3.8028   31.4923    0.0000 C   0  0  0  0  0  0  0  0  0  0  0  0
    2.8467   30.4304    0.0000 N   0  0  0  0  0  0  0  0  0  0  0  0
    3.4598   29.8784    0.0000 C   0  0  0  0  0  0  0  0  0  0  0  0
    4.2444   30.1333    0.0000 O   0  0  0  0  0  0  0  0  0  0  0  0
    3.2882   29.0714    0.0000 C   0  0  0  0  0  0  0  0  0  0  0  0
    2.5036   28.8164    0.0000 C   0  0  0  0  0  0  0  0  0  0  0  0
    1.8905   29.3685    0.0000 C   0  0  0  0  0  0  0  0  0  0  0  0
    2.0620   30.1755    0.0000 C   0  0  0  0  0  0  0  0  0  0  0  0
  1  2  1  0
  2  3  2  0
  2  5  1  0
  3  4  1  0
  4  6  2  0
  5  6  1  0
  6  7  1  0
  7  8  2  0
  7  9  1  0
 10  9  1  6
 10 11  1  0
 10 14  1  0
 11 12  1  1
 11 13  1  0
 13 15  1  0
 14 15  1  0
 15 16  1  0
 16 17  1  0
 17 18  2  0
 17 19  1  0
 19 20  1  0
 20 21  2  0
 20 23  1  0
 21 22  1  0
 21 26  1  0
 23 24  2  0
 24 25  1  0
 25 26  2  0
 25 27  1  0
 27 28  1  0
 27 33  1  0
 28 29  2  0
 28 30  1  0
 30 31  2  0
 31 32  1  0
 32 33  2  0
M  END
>  <DRUGBANK_ID>  (1) 
DB08143

>  <COMMON_NAME>  (1) 
5-CHLORO-THIOPHENE-2-CARBOXYLIC ACID ((3S,4S)-4-FLUORO- 1-{[2-FLUORO-4-(2-OXO-2H-PYRIDIN-1-YL)-PHENYLCARBAMOYL]-METHYL}-PYRROLIDIN-3-YL)-AMIDE

$$$$
