
     RDKit          2D

 36 39  0  0  0  0  0  0  0  0999 V2000
    2.8533   -1.4685    0.0000 C   0  0  0  0  0  0  0  0  0  0  0  0
    3.5654   -1.0555    0.0000 C   0  0  0  0  0  0  0  0  0  0  0  0
    4.2773   -1.4685    0.0000 O   0  0  0  0  0  0  0  0  0  0  0  0
    2.1403   -1.0555    0.0000 C   0  0  0  0  0  0  0  0  0  0  0  0
    2.1403   -0.2297    0.0000 C   0  0  0  0  0  0  0  0  0  0  0  0
    2.8560    0.1809    0.0000 O   0  0  0  0  0  0  0  0  0  0  0  0
    1.4288    0.1880    0.0000 C   0  0  0  0  0  0  0  0  0  0  0  0
    1.4288    1.0140    0.0000 O   0  0  0  0  0  0  0  0  0  0  0  0
    0.7128   -0.2297    0.0000 C   0  0  0  0  0  0  0  0  0  0  0  0
   -0.0028    0.1809    0.0000 O   0  0  0  0  0  0  0  0  0  0  0  0
    0.7128   -1.0555    0.0000 C   0  0  0  0  0  0  0  0  0  0  0  0
    0.7128   -1.8620    0.0000 O   0  0  0  0  0  0  0  0  0  0  0  0
   -0.7128   -1.8620    0.0000 C   0  0  0  0  0  0  0  0  0  0  0  0
   -1.4400   -2.2719    0.0000 C   0  0  0  0  0  0  0  0  0  0  0  0
   -2.1485   -1.8506    0.0000 C   0  0  0  0  0  0  0  0  0  0  0  0
   -2.1485   -1.0300    0.0000 O   0  0  0  0  0  0  0  0  0  0  0  0
   -1.4232   -0.6188    0.0000 C   0  0  0  0  0  0  0  0  0  0  0  0
   -0.7128   -1.0331    0.0000 C   0  0  0  0  0  0  0  0  0  0  0  0
    0.0021   -0.6293    0.0000 O   0  0  0  0  0  0  0  0  0  0  0  0
   -1.4232    0.2058    0.0000 O   0  0  0  0  0  0  0  0  0  0  0  0
   -2.1363    0.6200    0.0000 C   0  0  0  0  0  0  0  0  0  0  0  0
   -2.1363    1.4459    0.0000 C   0  0  0  0  0  0  0  0  0  0  0  0
   -1.4206    1.8564    0.0000 O   0  0  0  0  0  0  0  0  0  0  0  0
   -2.8477    1.8588    0.0000 C   0  0  0  0  0  0  0  0  0  0  0  0
   -3.5593    1.4459    0.0000 C   0  0  0  0  0  0  0  0  0  0  0  0
   -3.5593    0.6200    0.0000 C   0  0  0  0  0  0  0  0  0  0  0  0
   -4.2773    0.2058    0.0000 N   0  0  0  0  0  0  0  0  0  0  0  0
   -2.8477    0.2070    0.0000 C   0  0  0  0  0  0  0  0  0  0  0  0
   -2.8477   -0.6189    0.0000 O   0  0  0  0  0  0  0  0  0  0  0  0
   -2.8477    2.6847    0.0000 N   0  0  0  0  0  0  0  0  0  0  0  0
   -2.1335    3.0977    0.0000 C   0  0  0  0  0  0  0  0  0  0  0  0
   -2.8671   -2.2560    0.0000 C   0  0  0  0  0  0  0  0  0  0  0  0
   -3.5816   -1.8355    0.0000 O   0  0  0  0  0  0  0  0  0  0  0  0
   -1.4400   -3.0977    0.0000 O   0  0  0  0  0  0  0  0  0  0  0  0
    1.4288   -1.4636    0.0000 O   0  0  0  0  0  0  0  0  0  0  0  0
    2.8533   -2.2944    0.0000 N   0  0  0  0  0  0  0  0  0  0  0  0
  1  2  1  0
  1 36  1  6
  2  3  1  0
  4  1  1  0
  4  5  1  0
  5  6  1  1
  5  7  1  0
  7  8  1  1
  9  7  1  0
  9 10  1  6
  9 11  1  0
 11 19  1  0
 11 35  1  0
 12 11  1  0
 13 12  1  1
 14 13  1  0
 14 34  1  1
 15 14  1  0
 15 32  1  1
 16 15  1  0
 17 16  1  0
 17 18  1  0
 17 20  1  1
 18 13  1  0
 18 19  1  1
 21 20  1  6
 21 22  1  0
 22 23  1  1
 22 24  1  0
 24 30  1  6
 25 24  1  0
 25 26  1  0
 26 27  1  6
 26 28  1  0
 28 21  1  0
 28 29  1  1
 30 31  1  0
 32 33  1  0
  4 35  1  1
M  END
>  <DRUGBANK_ID>  (1) 
DB11520

>  <COMMON_NAME>  (1) 
Hygromycin B

>  <CAS_NUMBER>  (1) 
31282-04-9

>  <UNII>  (1) 
3XQ2233B0B

$$$$
