CDD
     RDKit          2D

 32 34  0  0  0  0  0  0  0  0999 V2000
   -1.5087    3.9574    0.0000 C   0  0  0  0  0  0  0  0  0  0  0  0
   -1.5087    3.1324    0.0000 N   0  0  0  0  0  0  0  0  0  0  0  0
   -2.2231    2.7199    0.0000 C   0  0  0  0  0  0  0  0  0  0  0  0
   -2.9376    3.1324    0.0000 C   0  0  0  0  0  0  0  0  0  0  0  0
   -2.9376    3.9574    0.0000 C   0  0  0  0  0  0  0  0  0  0  0  0
   -2.2231    4.3699    0.0000 C   0  0  0  0  0  0  0  0  0  0  0  0
   -2.2231    1.8949    0.0000 C   0  0  0  0  0  0  0  0  0  0  0  0
   -2.2231    1.0699    0.0000 C   0  0  0  0  0  0  0  0  0  0  0  0
   -3.0481    1.8949    0.0000 F   0  0  0  0  0  0  0  0  0  0  0  0
   -1.3981    1.8949    0.0000 F   0  0  0  0  0  0  0  0  0  0  0  0
   -1.5087    0.6574    0.0000 N   0  0  0  0  0  0  0  0  0  0  0  0
   -1.5087   -0.1676    0.0000 C   0  0  0  0  0  0  0  0  0  0  0  0
   -0.7942   -0.5801    0.0000 C   0  0  0  0  0  0  0  0  0  0  0  0
   -0.7942   -1.4051    0.0000 N   0  0  0  0  0  0  0  0  0  0  0  0
   -1.5087   -1.8176    0.0000 C   0  0  0  0  0  0  0  0  0  0  0  0
   -2.2231   -1.4051    0.0000 C   0  0  0  0  0  0  0  0  0  0  0  0
   -2.2231   -0.5801    0.0000 N   0  0  0  0  0  0  0  0  0  0  0  0
   -0.0797   -1.8176    0.0000 C   0  0  0  0  0  0  0  0  0  0  0  0
    0.6347   -1.4051    0.0000 C   0  0  0  0  0  0  0  0  0  0  0  0
    1.3492   -1.8176    0.0000 N   0  0  0  0  0  0  0  0  0  0  0  0
    2.0637   -1.4051    0.0000 C   0  0  0  0  0  0  0  0  0  0  0  0
    2.7781   -1.8176    0.0000 C   0  0  0  0  0  0  0  0  0  0  0  0
    3.4926   -1.4051    0.0000 C   0  0  0  0  0  0  0  0  0  0  0  0
    4.2071   -1.8176    0.0000 C   0  0  0  0  0  0  0  0  0  0  0  0
    4.2071   -2.6426    0.0000 C   0  0  0  0  0  0  0  0  0  0  0  0
    3.4926   -3.0551    0.0000 C   0  0  0  0  0  0  0  0  0  0  0  0
    2.7781   -2.6426    0.0000 C   0  0  0  0  0  0  0  0  0  0  0  0
   -0.0797   -0.1676    0.0000 O   0  0  0  0  0  0  0  0  0  0  0  0
   -1.5087   -2.6426    0.0000 Cl  0  0  0  0  0  0  0  0  0  0  0  0
    0.6347   -0.5801    0.0000 O   0  0  0  0  0  0  0  0  0  0  0  0
    2.0637   -3.0551    0.0000 F   0  0  0  0  0  0  0  0  0  0  0  0
   -0.7942    2.7199    0.0000 O   0  0  0  0  0  0  0  0  0  0  0  0
  1  2  2  0
  1  6  1  0
  2  3  1  0
  2 32  1  0
  3  4  2  0
  3  7  1  0
  4  5  1  0
  5  6  2  0
  7  8  1  0
  7  9  1  0
  7 10  1  0
  8 11  1  0
 11 12  1  0
 12 13  1  0
 12 17  2  0
 13 14  1  0
 13 28  2  0
 14 15  1  0
 14 18  1  0
 15 16  2  0
 15 29  1  0
 16 17  1  0
 18 19  1  0
 19 20  1  0
 19 30  2  0
 20 21  1  0
 21 22  1  0
 22 23  2  0
 22 27  1  0
 23 24  1  0
 24 25  2  0
 25 26  1  0
 26 27  2  0
 27 31  1  0
M  CHG  2   2   1  32  -1
M  END
>  <DRUGBANK_ID>  (1) 
DB07550

>  <COMMON_NAME>  (1) 
2-(6-CHLORO-3-{[2,2-DIFLUORO-2-(1-OXIDO-2-PYRIDINYL)ETHYL]AMINO}-2-OXO-1(2H)-PYRAZINYL)-N-[(2-FLUOROPHENYL)METHYL]ACETAMIDE

$$$$
