262
     RDKit          2D

 13 13  0  0  0  0  0  0  0  0999 V2000
    1.5657    0.0672    0.0000 C   0  0  0  0  0  0  0  0  0  0  0  0
    1.5657   -0.7578    0.0000 C   0  0  0  0  0  0  0  0  0  0  0  0
    0.8512   -1.1703    0.0000 C   0  0  0  0  0  0  0  0  0  0  0  0
    0.1367   -0.7578    0.0000 C   0  0  0  0  0  0  0  0  0  0  0  0
    0.1367    0.0672    0.0000 C   0  0  0  0  0  0  0  0  0  0  0  0
    0.8512    0.4797    0.0000 C   0  0  0  0  0  0  0  0  0  0  0  0
    0.8512    1.3047    0.0000 C   0  0  0  0  0  0  0  0  0  0  0  0
   -0.5778    0.4797    0.0000 O   0  0  0  0  0  0  0  0  0  0  0  0
   -1.2922    0.0672    0.0000 P   0  0  0  0  0  0  0  0  0  0  0  0
   -2.0067   -0.3453    0.0000 O   0  0  0  0  0  0  0  0  0  0  0  0
   -1.7047    0.7817    0.0000 O   0  0  0  0  0  0  0  0  0  0  0  0
   -0.8797   -0.6472    0.0000 O   0  0  0  0  0  0  0  0  0  0  0  0
    0.1367    1.7172    0.0000 O   0  0  0  0  0  0  0  0  0  0  0  0
  1  2  2  0
  1  6  1  0
  2  3  1  0
  3  4  2  0
  4  5  1  0
  5  6  2  0
  5  8  1  0
  6  7  1  0
  7 13  2  0
  8  9  1  0
  9 10  1  0
  9 11  1  0
  9 12  2  0
M  END
>  <DRUGBANK_ID>  (1) 
DB01947

>  <SECONDARY_ACCESSION_NUMBERS>  (1) 
EXPT00096

>  <COMMON_NAME>  (1) 
RU78262

>  <UNII>  (1) 
UP67646C7V

$$$$
