
     RDKit          2D

 13 13  0  0  1  0  0  0  0  0999 V2000
    2.1434    1.2375    0.0000 C   0  0  0  0  0  0  0  0  0  0  0  0
    1.4289    0.8250    0.0000 C   0  0  0  0  0  0  0  0  0  0  0  0
    0.7145    1.2375    0.0000 C   0  0  0  0  0  0  0  0  0  0  0  0
    0.0000    0.8250    0.0000 C   0  0  0  0  0  0  0  0  0  0  0  0
    0.0000    0.0000    0.0000 C   0  0  0  0  0  0  0  0  0  0  0  0
    0.7145   -0.4125    0.0000 C   0  0  0  0  0  0  0  0  0  0  0  0
    1.4289   -0.0000    0.0000 N   0  0  0  0  0  0  0  0  0  0  0  0
    0.7145   -1.2375    0.0000 N   0  0  0  0  0  0  0  0  0  0  0  0
    2.8579    0.8250    0.0000 O   0  0  0  0  0  0  0  0  0  0  0  0
    0.7145    2.0625    0.0000 O   0  0  0  0  0  0  0  0  0  0  0  0
   -0.7145    1.2375    0.0000 O   0  0  0  0  0  0  0  0  0  0  0  0
   -0.7145   -0.4125    0.0000 O   0  0  0  0  0  0  0  0  0  0  0  0
    1.4289   -1.6500    0.0000 O   0  0  0  0  0  0  0  0  0  0  0  0
  2  1  1  1
  3  2  1  0
  3 10  1  1
  4  3  1  0
  4 11  1  1
  5  4  1  0
  5 12  1  6
  6  5  1  0
  7  2  1  0
  7  6  2  0
  8  6  1  0
  9  1  1  0
 13  8  1  0
M  END
>  <DRUGBANK_ID>  (1) 
DB02525

>  <SECONDARY_ACCESSION_NUMBERS>  (1) 
EXPT01656

>  <COMMON_NAME>  (1) 
D-galactohydroximo-1,5-lactam

$$$$
