CCB
     RDKit          2D

 12 13  0  0  0  0  0  0  0  0999 V2000
    0.7488    0.1438    0.0000 N   0  0  0  0  0  0  0  0  0  0  0  0
    1.4633    0.5563    0.0000 C   0  0  0  0  0  0  0  0  0  0  0  0
    2.1777    0.1438    0.0000 O   0  0  0  0  0  0  0  0  0  0  0  0
    0.0343    0.5563    0.0000 C   0  0  0  0  0  0  0  0  0  0  0  0
    0.7488   -0.6812    0.0000 C   0  0  0  0  0  0  0  0  0  0  0  0
   -0.7194    0.2207    0.0000 C   0  0  0  0  0  0  0  0  0  0  0  0
   -1.2714    0.8338    0.0000 C   0  0  0  0  0  0  0  0  0  0  0  0
   -0.8589    1.5483    0.0000 C   0  0  0  0  0  0  0  0  0  0  0  0
   -0.0519    1.3768    0.0000 C   0  0  0  0  0  0  0  0  0  0  0  0
    1.3321   -1.2646    0.0000 C   0  0  0  0  0  0  0  0  0  0  0  0
    0.7488   -1.8479    0.0000 C   0  0  0  0  0  0  0  0  0  0  0  0
    0.1654   -1.2646    0.0000 C   0  0  0  0  0  0  0  0  0  0  0  0
  1  2  1  0
  1  4  1  0
  1  5  1  0
  2  3  2  0
  4  6  1  0
  4  9  1  0
  5 10  1  0
  5 12  1  0
  6  7  1  0
  7  8  1  0
  8  9  1  0
 10 11  1  0
 11 12  1  0
M  END
>  <DRUGBANK_ID>  (1) 
DB04065

>  <SECONDARY_ACCESSION_NUMBERS>  (1) 
EXPT00857

>  <COMMON_NAME>  (1) 
N-Cyclopentyl-N-Cyclobutylformamide

$$$$
