
     RDKit          2D

 39 42  0  0  1  0  0  0  0  0999 V2000
    3.8606   -0.3239    0.0000 O   0  0  0  0  0  0  0  0  0  0  0  0
    2.7805    2.2293    0.0000 O   0  0  0  0  0  0  0  0  0  0  0  0
    2.5886    0.8133    0.0000 O   0  0  0  0  0  0  0  0  0  0  0  0
    6.1088   -2.1487    0.0000 O   0  0  0  0  0  0  0  0  0  0  0  0
    7.1789   -3.8639    0.0000 O   0  0  0  0  0  0  0  0  0  0  0  0
    6.6569   -2.5337    0.0000 O   0  0  0  0  0  0  0  0  0  0  0  0
    5.1481   -0.9439    0.0000 N   0  0  0  0  0  0  0  0  0  0  0  0
    5.1208   -3.1365    0.0000 N   0  0  0  0  0  0  0  0  0  0  0  0
    5.0412    0.4811    0.0000 C   0  0  0  0  0  0  0  0  0  0  0  0
    5.7846    0.1231    0.0000 C   0  0  0  0  0  0  0  0  0  0  0  0
    5.1520    1.2987    0.0000 C   0  0  0  0  0  0  0  0  0  0  0  0
    4.2237    0.5919    0.0000 C   0  0  0  0  0  0  0  0  0  0  0  0
    6.3547    0.7194    0.0000 C   0  0  0  0  0  0  0  0  0  0  0  0
    5.9638    1.4459    0.0000 C   0  0  0  0  0  0  0  0  0  0  0  0
    3.9109    1.3552    0.0000 C   0  0  0  0  0  0  0  0  0  0  0  0
    4.6833   -0.2622    0.0000 C   0  0  0  0  0  0  0  0  0  0  0  0
    4.4155    2.0078    0.0000 C   0  0  0  0  0  0  0  0  0  0  0  0
    4.7901   -1.6872    0.0000 C   0  0  0  0  0  0  0  0  0  0  0  0
    3.0933    1.4660    0.0000 C   0  0  0  0  0  0  0  0  0  0  0  0
    4.1026    2.7712    0.0000 C   0  0  0  0  0  0  0  0  0  0  0  0
    3.9651   -1.6872    0.0000 C   0  0  0  0  0  0  0  0  0  0  0  0
    5.3045   -2.3322    0.0000 C   0  0  0  0  0  0  0  0  0  0  0  0
    3.4507   -2.3322    0.0000 C   0  0  0  0  0  0  0  0  0  0  0  0
    4.6074    3.4239    0.0000 C   0  0  0  0  0  0  0  0  0  0  0  0
    3.6343   -3.1365    0.0000 C   0  0  0  0  0  0  0  0  0  0  0  0
    4.3776   -3.4945    0.0000 C   0  0  0  0  0  0  0  0  0  0  0  0
    1.9629    2.3401    0.0000 C   0  0  0  0  0  0  0  0  0  0  0  0
    5.7659   -3.6509    0.0000 C   0  0  0  0  0  0  0  0  0  0  0  0
    4.2944    4.1873    0.0000 C   0  0  0  0  0  0  0  0  0  0  0  0
    5.4249    3.3132    0.0000 C   0  0  0  0  0  0  0  0  0  0  0  0
    2.9168   -3.6096    0.0000 C   0  0  0  0  0  0  0  0  0  0  0  0
    4.4550   -4.3504    0.0000 C   0  0  0  0  0  0  0  0  0  0  0  0
    1.6500    3.1034    0.0000 C   0  0  0  0  0  0  0  0  0  0  0  0
    2.9745   -4.4670    0.0000 C   0  0  0  0  0  0  0  0  0  0  0  0
    3.7487   -4.8399    0.0000 C   0  0  0  0  0  0  0  0  0  0  0  0
    4.7992    4.8399    0.0000 C   0  0  0  0  0  0  0  0  0  0  0  0
    5.9295    3.9657    0.0000 C   0  0  0  0  0  0  0  0  0  0  0  0
    6.5339   -3.3495    0.0000 C   0  0  0  0  0  0  0  0  0  0  0  0
    5.6167    4.7291    0.0000 C   0  0  0  0  0  0  0  0  0  0  0  0
  1 16  2  0
  2 19  1  0
  2 27  1  0
  3 19  2  0
  4 22  2  0
  5 38  1  0
  6 38  2  0
  7 16  1  0
  8 22  1  0
  8 26  1  0
  8 28  1  0
  9 10  1  0
  9 11  1  0
  9 12  1  0
  9 16  1  0
 10 13  1  0
 11 14  1  0
 15 12  1  6
 13 14  1  0
 15 17  1  0
 15 19  1  0
 17 20  1  0
 18  7  1  6
 18 21  1  0
 18 22  1  0
 20 24  1  0
 21 23  1  0
 23 25  1  0
 24 29  2  0
 24 30  1  0
 25 26  2  0
 25 31  1  0
 26 32  1  0
 27 33  1  0
 28 38  1  0
 29 36  1  0
 30 37  2  0
 31 34  2  0
 32 35  2  0
 34 35  1  0
 36 39  2  0
 37 39  1  0
M  END
>  <DRUGBANK_ID>  (1) 
DB05796

>  <SECONDARY_ACCESSION_NUMBERS>  (1) 
DB12995

>  <COMMON_NAME>  (1) 
Daglutril

>  <CAS_NUMBER>  (1) 
182821-27-8

>  <UNII>  (1) 
KKV299446X

>  <SYNONYMS>  (1) 
((3S)-3-{1-((2R)-2-Ethoxycarbonyl-4-phenylbutyl)cyclopentanecarboxamido}-2-oxo-2,3,4,5-tetrahydro-1H-1-benzazepin-1-yl)acetic acid; Daglutril

$$$$
