RDE
     RDKit          2D

 27 28  0  0  0  0  0  0  0  0999 V2000
   -0.6436   -1.4623    0.0000 C   0  0  0  0  0  0  0  0  0  0  0  0
   -1.3581   -1.0498    0.0000 O   0  0  0  0  0  0  0  0  0  0  0  0
   -1.3581   -0.2248    0.0000 C   0  0  0  0  0  0  0  0  0  0  0  0
   -2.0726    0.1877    0.0000 C   0  0  0  0  0  0  0  0  0  0  0  0
   -2.7871   -0.2248    0.0000 O   0  0  0  0  0  0  0  0  0  0  0  0
   -3.5015    0.1877    0.0000 C   0  0  0  0  0  0  0  0  0  0  0  0
   -2.0726    1.0127    0.0000 C   0  0  0  0  0  0  0  0  0  0  0  0
   -1.3581    1.4252    0.0000 C   0  0  0  0  0  0  0  0  0  0  0  0
   -1.3581    2.2502    0.0000 N   0  0  0  0  0  0  0  0  0  0  0  0
   -0.6436    1.0127    0.0000 C   0  0  0  0  0  0  0  0  0  0  0  0
    0.0708    1.4252    0.0000 O   0  0  0  0  0  0  0  0  0  0  0  0
    0.7853    1.0127    0.0000 C   0  0  0  0  0  0  0  0  0  0  0  0
   -0.6436    0.1877    0.0000 C   0  0  0  0  0  0  0  0  0  0  0  0
    0.0708   -0.2248    0.0000 C   0  0  0  0  0  0  0  0  0  0  0  0
    0.7853    0.1877    0.0000 C   0  0  0  0  0  0  0  0  0  0  0  0
    1.4998   -0.2248    0.0000 O   0  0  0  0  0  0  0  0  0  0  0  0
    2.2142    0.1877    0.0000 C   0  0  0  0  0  0  0  0  0  0  0  0
    2.2142    1.0127    0.0000 O   0  0  0  0  0  0  0  0  0  0  0  0
    2.9287   -0.2248    0.0000 C   0  0  0  0  0  0  0  0  0  0  0  0
    3.6432    0.1877    0.0000 C   0  0  0  0  0  0  0  0  0  0  0  0
    4.3577   -0.2248    0.0000 C   0  0  0  0  0  0  0  0  0  0  0  0
    5.0721    0.1877    0.0000 Cl  0  0  0  0  0  0  0  0  0  0  0  0
    4.3577   -1.0498    0.0000 C   0  0  0  0  0  0  0  0  0  0  0  0
    5.0721   -1.4623    0.0000 O   0  0  0  0  0  0  0  0  0  0  0  0
    3.6432   -1.4623    0.0000 C   0  0  0  0  0  0  0  0  0  0  0  0
    2.9287   -1.0498    0.0000 C   0  0  0  0  0  0  0  0  0  0  0  0
    2.2142   -1.4623    0.0000 O   0  0  0  0  0  0  0  0  0  0  0  0
  1  2  1  0
  2  3  1  0
  3  4  2  0
  3 13  1  0
  4  5  1  0
  4  7  1  0
  5  6  1  0
  7  8  2  0
  8  9  1  0
  8 10  1  0
 10 11  1  0
 10 13  2  0
 11 12  1  0
 13 14  1  0
 14 15  1  0
 15 16  1  0
 16 17  1  0
 17 18  2  0
 17 19  1  0
 19 20  2  0
 19 26  1  0
 20 21  1  0
 21 22  1  0
 21 23  2  0
 23 24  1  0
 23 25  1  0
 25 26  2  0
 26 27  1  0
M  END
>  <DRUGBANK_ID>  (1) 
DB08465

>  <COMMON_NAME>  (1) 
2-(3-AMINO-2,5,6-TRIMETHOXYPHENYL)ETHYL 5-CHLORO-2,4-DIHYDROXYBENZOATE

$$$$
