IBR
     RDKit          2D

 16 16  0  0  0  0  0  0  0  0999 V2000
   -1.2722   -1.3651    0.0000 C   0  0  0  0  0  0  0  0  0  0  0  0
   -1.9867   -1.7776    0.0000 O   0  0  0  0  0  0  0  0  0  0  0  0
   -0.5577   -0.1276    0.0000 C   0  0  0  0  0  0  0  0  0  0  0  0
   -1.2722   -0.5401    0.0000 C   0  0  0  0  0  0  0  0  0  0  0  0
   -1.9867   -0.1276    0.0000 C   0  0  0  0  0  0  0  0  0  0  0  0
   -1.9867    0.6974    0.0000 C   0  0  0  0  0  0  0  0  0  0  0  0
   -1.2722    1.1099    0.0000 C   0  0  0  0  0  0  0  0  0  0  0  0
   -0.5577    0.6974    0.0000 C   0  0  0  0  0  0  0  0  0  0  0  0
   -2.7011    1.1099    0.0000 N   0  0  0  0  0  0  0  0  0  0  0  0
    0.8712   -0.1276    0.0000 C   0  0  0  0  0  0  0  0  0  0  0  0
    0.1568   -0.5401    0.0000 C   0  0  0  0  0  0  0  0  0  0  0  0
    1.5857   -0.5401    0.0000 O   0  0  0  0  0  0  0  0  0  0  0  0
    0.8712    0.6974    0.0000 O   0  0  0  0  0  0  0  0  0  0  0  0
    3.0146   -0.5401    0.0000 C   0  0  0  0  0  0  0  0  0  0  0  0
    2.3002   -0.1276    0.0000 C   0  0  0  0  0  0  0  0  0  0  0  0
    3.7291   -0.1276    0.0000 Br  0  0  0  0  0  0  0  0  0  0  0  0
  1  2  2  0
  1  4  1  0
  3  4  2  0
  3  8  1  0
  3 11  1  0
  4  5  1  0
  5  6  2  0
  6  7  1  0
  6  9  1  0
  7  8  2  0
 10 11  1  0
 10 12  1  0
 10 13  2  0
 12 15  1  0
 14 15  1  0
 14 16  1  0
M  END
>  <DRUGBANK_ID>  (1) 
DB07955

>  <COMMON_NAME>  (1) 
(2-BROMOETHYL)(2-'FORMYL-4'-AMINOPHENYL) ACETATE

$$$$
