
     RDKit          2D

 31 33  0  0  0  0  0  0  0  0999 V2000
    0.5389    1.6559    0.0000 S   0  0  0  0  0  0  0  0  0  0  0  0
   -1.5521    0.2002    0.0000 O   0  0  0  0  0  0  0  0  0  0  0  0
   -2.5884    2.0666    0.0000 O   0  0  0  0  0  0  0  0  0  0  0  0
   -3.6460    0.6163    0.0000 O   0  0  0  0  0  0  0  0  0  0  0  0
    0.0551    2.3242    0.0000 O   0  0  0  0  0  0  0  0  0  0  0  0
    1.0226    0.9876    0.0000 O   0  0  0  0  0  0  0  0  0  0  0  0
    2.0451    0.9821    0.0000 O   0  0  0  0  0  0  0  0  0  0  0  0
   -2.5935   -0.8375    0.0000 N   0  0  0  0  0  0  0  0  0  0  0  0
   -0.1293    1.1721    0.0000 N   0  0  0  0  0  0  0  0  0  0  0  0
   -2.5935   -2.1653    0.0000 N   0  0  0  0  0  0  0  0  0  0  0  0
    1.2072    2.1397    0.0000 N   0  0  0  0  0  0  0  0  0  0  0  0
   -4.0886   -0.6764    0.0000 N   0  0  0  0  0  0  0  0  0  0  0  0
    2.5438    3.1072    0.0000 N   0  0  0  0  0  0  0  0  0  0  0  0
   -4.8031   -1.9139    0.0000 N   0  0  0  0  0  0  0  0  0  0  0  0
   -4.0886   -3.1514    0.0000 N   0  0  0  0  0  0  0  0  0  0  0  0
   -1.5506    1.0252    0.0000 C   0  0  0  0  0  0  0  0  0  0  0  0
   -2.3349    1.2815    0.0000 C   0  0  0  0  0  0  0  0  0  0  0  0
   -2.8210    0.6149    0.0000 C   0  0  0  0  0  0  0  0  0  0  0  0
   -2.3372   -0.0532    0.0000 C   0  0  0  0  0  0  0  0  0  0  0  0
   -0.8824    1.5090    0.0000 C   0  0  0  0  0  0  0  0  0  0  0  0
   -3.3741   -1.0889    0.0000 C   0  0  0  0  0  0  0  0  0  0  0  0
   -2.1120   -1.5014    0.0000 C   0  0  0  0  0  0  0  0  0  0  0  0
   -3.3741   -1.9139    0.0000 C   0  0  0  0  0  0  0  0  0  0  0  0
    3.3817    1.9497    0.0000 C   0  0  0  0  0  0  0  0  0  0  0  0
    2.6286    2.2866    0.0000 C   0  0  0  0  0  0  0  0  0  0  0  0
    4.0499    2.4335    0.0000 C   0  0  0  0  0  0  0  0  0  0  0  0
    1.9603    1.8028    0.0000 C   0  0  0  0  0  0  0  0  0  0  0  0
   -4.0886   -2.3264    0.0000 C   0  0  0  0  0  0  0  0  0  0  0  0
    3.4665    1.1291    0.0000 C   0  0  0  0  0  0  0  0  0  0  0  0
    4.8031    2.0966    0.0000 C   0  0  0  0  0  0  0  0  0  0  0  0
   -4.8031   -1.0889    0.0000 C   0  0  0  0  0  0  0  0  0  0  0  0
  1  5  2  0
  1  6  2  0
  1  9  1  0
  1 11  1  0
  2 16  1  0
  2 19  1  0
  7 27  2  0
  8 21  1  0
  8 22  1  0
  9 20  1  0
 10 22  2  0
 10 23  1  0
 11 27  1  0
 12 21  1  0
 12 31  2  0
 14 28  2  0
 14 31  1  0
 15 28  1  0
 16 17  1  0
 16 20  1  1
 17  3  1  6
 17 18  1  0
 18  4  1  6
 18 19  1  0
 19  8  1  1
 21 23  2  0
 23 28  1  0
 24 25  1  0
 24 26  1  0
 24 29  1  6
 25 13  1  1
 25 27  1  0
 26 30  1  0
M  END
>  <DRUGBANK_ID>  (1) 
DB01755

>  <SECONDARY_ACCESSION_NUMBERS>  (1) 
EXPT01859

>  <COMMON_NAME>  (1) 
N-[Isoleucinyl]-N'-[adenosyl]-diaminosufone

>  <SYNONYMS>  (1) 
5'-Deoxy-5'-[(L-isoleucylsulfamoyl)amino]adenosine

$$$$
