I06
     RDKit          2D

 20 22  0  0  0  0  0  0  0  0999 V2000
   -3.1962    0.0777    0.0000 C   0  0  0  0  0  0  0  0  0  0  0  0
   -2.4817   -0.3348    0.0000 C   0  0  0  0  0  0  0  0  0  0  0  0
   -1.7672    0.0777    0.0000 C   0  0  0  0  0  0  0  0  0  0  0  0
   -1.7672    0.9027    0.0000 C   0  0  0  0  0  0  0  0  0  0  0  0
   -2.4817    1.3152    0.0000 C   0  0  0  0  0  0  0  0  0  0  0  0
   -3.1962    0.9027    0.0000 C   0  0  0  0  0  0  0  0  0  0  0  0
   -1.0528   -0.3348    0.0000 C   0  0  0  0  0  0  0  0  0  0  0  0
   -1.0528   -1.1598    0.0000 O   0  0  0  0  0  0  0  0  0  0  0  0
   -0.3383    0.0777    0.0000 N   0  0  0  0  0  0  0  0  0  0  0  0
   -0.3383    0.9027    0.0000 N   0  0  0  0  0  0  0  0  0  0  0  0
   -1.0528    1.3152    0.0000 C   0  0  0  0  0  0  0  0  0  0  0  0
   -1.0528    2.1402    0.0000 O   0  0  0  0  0  0  0  0  0  0  0  0
    0.3762   -0.3348    0.0000 C   0  0  0  0  0  0  0  0  0  0  0  0
    1.0907    0.0777    0.0000 C   0  0  0  0  0  0  0  0  0  0  0  0
    1.8051   -0.3348    0.0000 C   0  0  0  0  0  0  0  0  0  0  0  0
    2.5196    0.0777    0.0000 C   0  0  0  0  0  0  0  0  0  0  0  0
    1.8051   -1.1598    0.0000 C   0  0  0  0  0  0  0  0  0  0  0  0
    3.2341   -0.3348    0.0000 C   0  0  0  0  0  0  0  0  0  0  0  0
    2.5196   -1.5723    0.0000 C   0  0  0  0  0  0  0  0  0  0  0  0
    3.2341   -1.1598    0.0000 C   0  0  0  0  0  0  0  0  0  0  0  0
  1  2  2  0
  1  6  1  0
  2  3  1  0
  3  4  2  0
  3  7  1  0
  4  5  1  0
  4 11  1  0
  5  6  2  0
  7  8  2  0
  7  9  1  0
  9 10  1  0
  9 13  1  0
 10 11  1  0
 11 12  2  0
 13 14  1  0
 14 15  1  0
 15 16  2  0
 15 17  1  0
 16 18  1  0
 17 19  2  0
 18 20  2  0
 19 20  1  0
M  END
>  <DRUGBANK_ID>  (1) 
DB03421

>  <SECONDARY_ACCESSION_NUMBERS>  (1) 
EXPT01806

>  <COMMON_NAME>  (1) 
2-Phenethyl-2,3-Dihydro-Phthalazine-1,4-Dione

$$$$
