
     RDKit          2D

 30 32  0  0  0  0  0  0  0  0999 V2000
    0.9155    1.6560    0.0000 S   0  0  0  0  0  0  0  0  0  0  0  0
   -1.1756    0.2002    0.0000 O   0  0  0  0  0  0  0  0  0  0  0  0
   -3.2696    0.6164    0.0000 O   0  0  0  0  0  0  0  0  0  0  0  0
   -2.2119    2.0666    0.0000 O   0  0  0  0  0  0  0  0  0  0  0  0
    0.2471    1.1721    0.0000 O   0  0  0  0  0  0  0  0  0  0  0  0
    1.3993    0.9876    0.0000 O   0  0  0  0  0  0  0  0  0  0  0  0
    0.4317    2.3243    0.0000 O   0  0  0  0  0  0  0  0  0  0  0  0
    4.4267    2.4336    0.0000 O   0  0  0  0  0  0  0  0  0  0  0  0
    2.4218    0.9822    0.0000 O   0  0  0  0  0  0  0  0  0  0  0  0
   -2.2169   -0.8375    0.0000 N   0  0  0  0  0  0  0  0  0  0  0  0
   -2.2169   -2.1653    0.0000 N   0  0  0  0  0  0  0  0  0  0  0  0
   -3.7122   -0.6764    0.0000 N   0  0  0  0  0  0  0  0  0  0  0  0
    1.5838    2.1397    0.0000 N   0  0  0  0  0  0  0  0  0  0  0  0
   -4.4267   -1.9139    0.0000 N   0  0  0  0  0  0  0  0  0  0  0  0
   -3.7122   -3.1515    0.0000 N   0  0  0  0  0  0  0  0  0  0  0  0
    2.9204    3.1073    0.0000 N   0  0  0  0  0  0  0  0  0  0  0  0
   -2.4445    0.6150    0.0000 C   0  0  0  0  0  0  0  0  0  0  0  0
   -1.9584    1.2815    0.0000 C   0  0  0  0  0  0  0  0  0  0  0  0
   -1.9607   -0.0532    0.0000 C   0  0  0  0  0  0  0  0  0  0  0  0
   -1.1741    1.0252    0.0000 C   0  0  0  0  0  0  0  0  0  0  0  0
   -0.5059    1.5091    0.0000 C   0  0  0  0  0  0  0  0  0  0  0  0
   -2.9976   -1.0889    0.0000 C   0  0  0  0  0  0  0  0  0  0  0  0
   -1.7355   -1.5015    0.0000 C   0  0  0  0  0  0  0  0  0  0  0  0
   -2.9976   -1.9139    0.0000 C   0  0  0  0  0  0  0  0  0  0  0  0
   -3.7122   -2.3265    0.0000 C   0  0  0  0  0  0  0  0  0  0  0  0
    3.0052    2.2867    0.0000 C   0  0  0  0  0  0  0  0  0  0  0  0
   -4.4267   -1.0889    0.0000 C   0  0  0  0  0  0  0  0  0  0  0  0
    2.3370    1.8028    0.0000 C   0  0  0  0  0  0  0  0  0  0  0  0
    3.7584    1.9497    0.0000 C   0  0  0  0  0  0  0  0  0  0  0  0
    3.8432    1.1291    0.0000 C   0  0  0  0  0  0  0  0  0  0  0  0
  1  5  1  0
  1  6  2  0
  1  7  2  0
  1 13  1  0
  2 19  1  0
  2 20  1  0
  5 21  1  0
  9 28  2  0
 10 22  1  0
 10 23  1  0
 11 23  2  0
 11 24  1  0
 12 22  1  0
 12 27  2  0
 13 28  1  0
 14 25  2  0
 14 27  1  0
 15 25  1  0
 17  3  1  6
 17 18  1  0
 17 19  1  0
 18  4  1  6
 18 20  1  0
 19 10  1  1
 20 21  1  1
 22 24  2  0
 24 25  1  0
 26 16  1  1
 26 28  1  0
 26 29  1  0
 29  8  1  0
 29 30  1  6
M  END
>  <DRUGBANK_ID>  (1) 
DB03355

>  <SECONDARY_ACCESSION_NUMBERS>  (1) 
EXPT03121

>  <COMMON_NAME>  (1) 
5'-O-(L-Threonylsulfamoyl)adenosine

$$$$
