
     RDKit          2D

 19 19  0  0  0  0  0  0  0  0999 V2000
   -2.5007    0.5231    0.0000 F   0  0  0  0  0  0  0  0  0  0  0  0
   -0.3572    0.1105    0.0000 O   0  0  0  0  0  0  0  0  0  0  0  0
   -1.0717   -1.9521    0.0000 O   0  0  0  0  0  0  0  0  0  0  0  0
   -2.5007   -1.1270    0.0000 O   0  0  0  0  0  0  0  0  0  0  0  0
   -1.4842    1.2376    0.0000 O   0  0  0  0  0  0  0  0  0  0  0  0
    0.3572   -1.9521    0.0000 O   0  0  0  0  0  0  0  0  0  0  0  0
    1.0717    0.1105    0.0000 O   0  0  0  0  0  0  0  0  0  0  0  0
    0.1658    1.2376    0.0000 O   0  0  0  0  0  0  0  0  0  0  0  0
    2.5007   -0.7145    0.0000 O   0  0  0  0  0  0  0  0  0  0  0  0
   -1.0717    1.9521    0.0000 O   0  0  0  0  0  0  0  0  0  0  0  0
   -0.3572   -0.7145    0.0000 C   0  0  0  0  0  0  0  0  0  0  0  0
   -1.0717   -1.1270    0.0000 C   0  0  0  0  0  0  0  0  0  0  0  0
   -1.7862   -0.7145    0.0000 C   0  0  0  0  0  0  0  0  0  0  0  0
   -1.7862    0.1105    0.0000 C   0  0  0  0  0  0  0  0  0  0  0  0
   -1.0717    0.5231    0.0000 C   0  0  0  0  0  0  0  0  0  0  0  0
    0.3572   -1.1270    0.0000 C   0  0  0  0  0  0  0  0  0  0  0  0
    1.0717   -0.7145    0.0000 C   0  0  0  0  0  0  0  0  0  0  0  0
   -0.6592    1.2376    0.0000 C   0  0  0  0  0  0  0  0  0  0  0  0
    1.7862   -1.1270    0.0000 C   0  0  0  0  0  0  0  0  0  0  0  0
 14  1  1  1
 11  2  1  1
  2 15  1  0
  8 18  1  0
  9 19  1  0
 10 18  2  0
 11 12  1  0
 11 16  1  0
 12  3  1  6
 12 13  1  0
 13  4  1  1
 13 14  1  0
 14 15  1  0
 15  5  1  6
 15 18  1  0
 16  6  1  1
 16 17  1  0
 17  7  1  6
 17 19  1  0
M  END
>  <DRUGBANK_ID>  (1) 
DB04694

>  <COMMON_NAME>  (1) 
2,6-anhydro-3-deoxy-3-fluoronononic acid

>  <SYNONYMS>  (1) 
3-deoxy-3-fluoro-D-erythro-Î±-L-manno-non-2-ulopyranosonic acid

$$$$
