
     RDKit          2D

 25 24  0  0  0  0  0  0  0  0999 V2000
   -1.9624   -4.5377    0.0000 C   0  0  0  0  0  0  0  0  0  0  0  0
   -0.5334   -4.5377    0.0000 C   0  0  0  0  0  0  0  0  0  0  0  0
   -1.9624   -5.3627    0.0000 C   0  0  0  0  0  0  0  0  0  0  0  0
   -0.5334   -5.3627    0.0000 C   0  0  0  0  0  0  0  0  0  0  0  0
   -1.2479   -5.7751    0.0000 C   0  0  0  0  0  0  0  0  0  0  0  0
   -1.2479   -3.3000    0.0000 C   0  0  0  0  0  0  0  0  0  0  0  0
    0.1810   -2.4750    0.0000 C   0  0  0  0  0  0  0  0  0  0  0  0
    0.1810   -1.6500    0.0000 C   0  0  0  0  0  0  0  0  0  0  0  0
    0.8954   -1.2376    0.0000 C   0  0  0  0  0  0  0  0  0  0  0  0
    0.8954   -0.4126    0.0000 C   0  0  0  0  0  0  0  0  0  0  0  0
    1.6100    0.0000    0.0000 C   0  0  0  0  0  0  0  0  0  0  0  0
    1.6100    0.8250    0.0000 C   0  0  0  0  0  0  0  0  0  0  0  0
    2.3245    1.2376    0.0000 C   0  0  0  0  0  0  0  0  0  0  0  0
    2.3245    2.0626    0.0000 C   0  0  0  0  0  0  0  0  0  0  0  0
    3.0389    2.4750    0.0000 C   0  0  0  0  0  0  0  0  0  0  0  0
    3.0389    3.3000    0.0000 C   0  0  0  0  0  0  0  0  0  0  0  0
    3.7534    3.7126    0.0000 C   0  0  0  0  0  0  0  0  0  0  0  0
    3.7534    4.5376    0.0000 C   0  0  0  0  0  0  0  0  0  0  0  0
    4.4679    4.9500    0.0000 C   0  0  0  0  0  0  0  0  0  0  0  0
   -0.9459   -2.1731    0.0000 C   0  0  0  0  0  0  0  0  0  0  0  0
   -0.1209   -3.6020    0.0000 C   0  0  0  0  0  0  0  0  0  0  0  0
    4.4679    5.7751    0.0000 C   0  0  0  0  0  0  0  0  0  0  0  0
   -1.2479   -4.1251    0.0000 C   0  0  0  0  0  0  0  0  0  0  0  0
   -0.5334   -2.8876    0.0000 N   0  0  0  0  0  0  0  0  0  0  0  0
   -4.4679   -0.2062    0.0000 Cl  0  0  0  0  0  0  0  0  0  0  0  0
  1 23  2  0
  1  3  1  0
  2 23  1  0
  2  4  2  0
  3  5  2  0
  4  5  1  0
  6 23  1  0
  6 24  1  0
  7 24  1  0
  7  8  1  0
  8  9  1  0
  9 10  1  0
 10 11  1  0
 11 12  1  0
 12 13  1  0
 13 14  1  0
 14 15  1  0
 15 16  1  0
 16 17  1  0
 17 18  1  0
 18 19  1  0
 19 22  1  0
 20 24  1  0
 21 24  1  0
M  CHG  2  24   1  25  -1
M  END
>  <DRUGBANK_ID>  (1) 
DB16590

>  <COMMON_NAME>  (1) 
N-Alkyl dimethyl benzyl ammonium chloride (C12-C18)

>  <CAS_NUMBER>  (1) 
68391-01-5

>  <UNII>  (1) 
9U1Q4T4ZYS

>  <SYNONYMS>  (1) 
(C12-C18) Alkyldimethylbenzyl ammonium chloride; (C12-C18)Alkylbenzyldimethylammonium chloride; (C12-C18)Alkyldimethylbenzylammonium chloride; Alkyl(C12-C18)benzyldimethylammonium chloride; C12-18-Alkyldimethylbenzyl ammonium chlorides

$$$$
