
     RDKit          2D

 27 29  0  0  0  0  0  0  0  0999 V2000
    1.9860    0.7381    0.0000 N   0  0  0  0  0  0  0  0  0  0  0  0
    1.9180   -0.7909    0.0000 C   0  0  0  0  0  0  0  0  0  0  0  0
    1.2005    0.9873    0.0000 C   0  0  0  0  0  0  0  0  0  0  0  0
    2.4693    1.3989    0.0000 C   0  0  0  0  0  0  0  0  0  0  0  0
    1.6726   -1.5612    0.0000 C   0  0  0  0  0  0  0  0  0  0  0  0
    1.2422   -0.3002    0.0000 O   0  0  0  0  0  0  0  0  0  0  0  0
    1.2005    1.8179    0.0000 C   0  0  0  0  0  0  0  0  0  0  0  0
    0.4794    0.5681    0.0000 N   0  0  0  0  0  0  0  0  0  0  0  0
    1.9897    2.0747    0.0000 N   0  0  0  0  0  0  0  0  0  0  0  0
    0.8382   -1.5612    0.0000 C   0  0  0  0  0  0  0  0  0  0  0  0
    2.1558   -2.2219    0.0000 O   0  0  0  0  0  0  0  0  0  0  0  0
    0.5776   -0.7796    0.0000 C   0  0  0  0  0  0  0  0  0  0  0  0
    0.4794    2.2295    0.0000 C   0  0  0  0  0  0  0  0  0  0  0  0
   -0.2340    0.9873    0.0000 C   0  0  0  0  0  0  0  0  0  0  0  0
    0.3663   -2.2295    0.0000 O   0  0  0  0  0  0  0  0  0  0  0  0
   -0.2416   -0.0812    0.0000 C   0  0  0  0  0  0  0  0  0  0  0  0
   -0.2340    1.8179    0.0000 N   0  0  0  0  0  0  0  0  0  0  0  0
    0.4757    3.0488    0.0000 N   0  0  0  0  0  0  0  0  0  0  0  0
   -0.4568   -2.2295    0.0000 P   0  0  0  0  0  0  0  0  0  0  0  0
   -0.8306   -0.6589    0.0000 O   0  0  0  0  0  0  0  0  0  0  0  0
   -1.2723   -2.2295    0.0000 O   0  0  0  0  0  0  0  0  0  0  0  0
   -0.4606   -3.0488    0.0000 O   0  0  0  0  0  0  0  0  0  0  0  0
   -0.4568   -1.4064    0.0000 O   0  0  0  0  0  0  0  0  0  0  0  0
   -1.6499   -0.6589    0.0000 P   0  0  0  0  0  0  0  0  0  0  0  0
   -2.4693   -0.6626    0.0000 O   0  0  0  0  0  0  0  0  0  0  0  0
   -1.6538   -1.4820    0.0000 O   0  0  0  0  0  0  0  0  0  0  0  0
   -1.6538    0.1604    0.0000 O   0  0  0  0  0  0  0  0  0  0  0  0
  1  3  1  0
  1  4  1  0
  2  1  1  1
  2  5  1  0
  2  6  1  0
  3  7  2  0
  3  8  1  0
  4  9  2  0
  5 10  1  0
  5 11  1  6
  6 12  1  0
  7 13  1  0
  7  9  1  0
  8 14  2  0
 10 15  1  6
 10 12  1  0
 12 16  1  1
 13 17  2  0
 13 18  1  0
 14 17  1  0
 15 19  1  0
 16 20  1  0
 19 21  1  0
 19 22  1  0
 19 23  2  0
 20 24  1  0
 24 25  1  0
 24 26  1  0
 24 27  2  0
M  END
>  <DRUGBANK_ID>  (1) 
DB01812

>  <SECONDARY_ACCESSION_NUMBERS>  (1) 
EXPT00370

>  <COMMON_NAME>  (1) 
Adenosine 3',5'-diphosphate

>  <CAS_NUMBER>  (1) 
1053-73-2

>  <UNII>  (1) 
C65F80D52U

>  <SYNONYMS>  (1) 
3'-Phosphoadenosine 5'-phosphate; 3',5'-ADP; Adenosine 3'-phosphate-5'-phosphate; Adenosine 3',5'-bismonophosphate; Phosphoadenosine phosphate

$$$$
