Uridine diphosphate acetylgalactosamine-4-sulfate.mol
     RDKit          2D

 25 26  0  0  0  0  0  0  0  0999 V2000
    1.5793    0.0074    0.0000 C   0  0  0  0  0  0  0  0  0  0  0  0
    0.8649   -0.4051    0.0000 C   0  0  0  0  0  0  0  0  0  0  0  0
    0.7786   -1.2256    0.0000 C   0  0  0  0  0  0  0  0  0  0  0  0
    1.3917   -1.7776    0.0000 O   0  0  0  0  0  0  0  0  0  0  0  0
   -0.0283   -1.3971    0.0000 C   0  0  0  0  0  0  0  0  0  0  0  0
   -0.3639   -2.1508    0.0000 O   0  0  0  0  0  0  0  0  0  0  0  0
   -0.4408   -0.6827    0.0000 C   0  0  0  0  0  0  0  0  0  0  0  0
    0.1112   -0.0696    0.0000 O   0  0  0  0  0  0  0  0  0  0  0  0
   -1.2613   -0.5964    0.0000 N   0  0  0  0  0  0  0  0  0  0  0  0
   -1.7462   -1.2639    0.0000 C   0  0  0  0  0  0  0  0  0  0  0  0
   -1.4107   -2.0175    0.0000 O   0  0  0  0  0  0  0  0  0  0  0  0
   -2.5667   -1.1776    0.0000 N   0  0  0  0  0  0  0  0  0  0  0  0
   -2.9023   -0.4239    0.0000 C   0  0  0  0  0  0  0  0  0  0  0  0
   -3.7228   -0.3377    0.0000 O   0  0  0  0  0  0  0  0  0  0  0  0
   -2.4174    0.2435    0.0000 C   0  0  0  0  0  0  0  0  0  0  0  0
   -1.5969    0.1573    0.0000 C   0  0  0  0  0  0  0  0  0  0  0  0
    3.0083    0.0074    0.0000 P   0  0  0  0  0  0  0  0  0  0  0  0
    3.7228    0.4199    0.0000 O   0  0  0  0  0  0  0  0  0  0  0  0
    2.2938   -0.4051    0.0000 O   0  0  0  0  0  0  0  0  0  0  0  0
    2.2938    1.8488    0.0000 O   0  0  0  0  0  0  0  0  0  0  0  0
    3.4208   -0.7071    0.0000 O   0  0  0  0  0  0  0  0  0  0  0  0
    2.5958    0.7219    0.0000 O   0  0  0  0  0  0  0  0  0  0  0  0
    3.0083    1.4363    0.0000 P   0  0  0  0  0  0  0  0  0  0  0  0
    3.4208    2.1508    0.0000 O   0  0  0  0  0  0  0  0  0  0  0  0
    3.7228    1.0238    0.0000 O   0  0  0  0  0  0  0  0  0  0  0  0
  1 19  1  0
  2  1  1  6
  2  3  1  0
  2  8  1  0
  3  4  1  1
  3  5  1  0
  5  6  1  1
  5  7  1  0
  7  8  1  0
  7  9  1  6
  9 10  1  0
  9 16  1  0
 10 11  2  0
 10 12  1  0
 12 13  1  0
 13 14  2  0
 13 15  1  0
 15 16  2  0
 17 18  2  0
 17 19  1  0
 17 21  1  0
 17 22  1  0
 20 23  1  0
 22 23  1  0
 23 24  2  0
 23 25  1  0
M  END
>  <DRUGBANK_ID>  (1) 
DB03435

>  <SECONDARY_ACCESSION_NUMBERS>  (1) 
EXPT03172

>  <COMMON_NAME>  (1) 
Uridine-5'-Diphosphate

>  <CAS_NUMBER>  (1) 
58-98-0

>  <UNII>  (1) 
5G0F599A1Y

$$$$
