
     RDKit          2D

 30 31  0  0  0  0  0  0  0  0999 V2000
    2.1434    4.1250    0.0000 O   0  0  0  0  0  0  0  0  0  0  0  0
    0.7145    4.1250    0.0000 O   0  0  0  0  0  0  0  0  0  0  0  0
   -2.1434   -4.1250    0.0000 O   0  0  0  0  0  0  0  0  0  0  0  0
   -0.7145   -4.1250    0.0000 O   0  0  0  0  0  0  0  0  0  0  0  0
    1.4289    2.0625    0.0000 O   0  0  0  0  0  0  0  0  0  0  0  0
   -1.4289   -2.0625    0.0000 O   0  0  0  0  0  0  0  0  0  0  0  0
    2.6664    5.2520    0.0000 O   0  0  0  0  0  0  0  0  0  0  0  0
   -2.6664   -5.2520    0.0000 O   0  0  0  0  0  0  0  0  0  0  0  0
    1.4289    5.9665    0.0000 O   0  0  0  0  0  0  0  0  0  0  0  0
   -1.4289   -5.9665    0.0000 O   0  0  0  0  0  0  0  0  0  0  0  0
    0.0000    2.0625    0.0000 O   0  0  0  0  0  0  0  0  0  0  0  0
    0.0000   -2.0625    0.0000 O   0  0  0  0  0  0  0  0  0  0  0  0
    0.7145    0.8250    0.0000 N   0  0  0  0  0  0  0  0  0  0  0  0
   -0.7145   -0.8250    0.0000 N   0  0  0  0  0  0  0  0  0  0  0  0
    1.4289    2.8875    0.0000 C   0  0  0  0  0  0  0  0  0  0  0  0
   -1.4289   -2.8875    0.0000 C   0  0  0  0  0  0  0  0  0  0  0  0
    1.4289    4.5375    0.0000 C   0  0  0  0  0  0  0  0  0  0  0  0
   -1.4289   -4.5375    0.0000 C   0  0  0  0  0  0  0  0  0  0  0  0
    2.1434    3.3000    0.0000 C   0  0  0  0  0  0  0  0  0  0  0  0
    0.7145    3.3000    0.0000 C   0  0  0  0  0  0  0  0  0  0  0  0
   -2.1434   -3.3000    0.0000 C   0  0  0  0  0  0  0  0  0  0  0  0
   -0.7145   -3.3000    0.0000 C   0  0  0  0  0  0  0  0  0  0  0  0
    1.0164    5.2520    0.0000 C   0  0  0  0  0  0  0  0  0  0  0  0
   -1.0164   -5.2520    0.0000 C   0  0  0  0  0  0  0  0  0  0  0  0
    1.8414    5.2520    0.0000 C   0  0  0  0  0  0  0  0  0  0  0  0
   -1.8414   -5.2520    0.0000 C   0  0  0  0  0  0  0  0  0  0  0  0
    0.7145    1.6500    0.0000 C   0  0  0  0  0  0  0  0  0  0  0  0
   -0.7145   -1.6500    0.0000 C   0  0  0  0  0  0  0  0  0  0  0  0
    0.0000    0.4125    0.0000 C   0  0  0  0  0  0  0  0  0  0  0  0
    0.0000   -0.4125    0.0000 C   0  0  0  0  0  0  0  0  0  0  0  0
  1 17  1  0
  1 19  1  0
  2 17  1  0
  2 20  1  0
  3 18  1  0
  3 21  1  0
  4 18  1  0
  4 22  1  0
  5 15  1  0
  5 27  1  0
  6 16  1  0
  6 28  1  0
  7 25  1  0
  8 26  1  0
  9 25  2  0
 10 26  2  0
 11 27  2  0
 12 28  2  0
 13 27  1  0
 13 29  1  0
 14 28  1  0
 14 30  1  0
 15 19  1  0
 15 20  1  0
 16 21  1  0
 16 22  1  0
 17 23  1  0
 17 25  1  0
 18 24  1  0
 18 26  1  0
 29 30  1  0
M  END
>  <DRUGBANK_ID>  (1) 
DB07579

>  <COMMON_NAME>  (1) 
Bis-1,2-{[(Z)-2-carboxy-2-methyl-1,3-dioxane]-5-yloxycarbamoyl}-ethane

$$$$
