
     RDKit          2D

 11 12  0  0  0  0  0  0  0  0999 V2000
   -1.4241    0.4084    0.0000 C   0  0  0  0  0  0  0  0  0  0  0  0
   -1.4241   -0.4166    0.0000 N   0  0  0  0  0  0  0  0  0  0  0  0
   -0.7121   -0.8249    0.0000 C   0  0  0  0  0  0  0  0  0  0  0  0
   -0.7121    0.8250    0.0000 C   0  0  0  0  0  0  0  0  0  0  0  0
   -0.0001    0.4084    0.0000 N   0  0  0  0  0  0  0  0  0  0  0  0
   -0.0036   -0.4166    0.0000 C   0  0  0  0  0  0  0  0  0  0  0  0
    1.4206   -0.4227    0.0000 C   0  0  0  0  0  0  0  0  0  0  0  0
    1.4241    0.4023    0.0000 C   0  0  0  0  0  0  0  0  0  0  0  0
    0.7115    0.8223    0.0000 C   0  0  0  0  0  0  0  0  0  0  0  0
   -0.7121    1.6500    0.0000 O   0  0  0  0  0  0  0  0  0  0  0  0
   -0.7112   -1.6500    0.0000 O   0  0  0  0  0  0  0  0  0  0  0  0
  1  2  1  0
  1  4  1  0
  2  3  1  0
  3  6  1  0
  3 11  2  0
  4 10  2  0
  5  4  1  0
  5  6  1  0
  6  7  1  1
  7  8  1  0
  8  9  1  0
  9  5  1  0
M  END
>  <DRUGBANK_ID>  (1) 
DB04541

>  <SECONDARY_ACCESSION_NUMBERS>  (1) 
EXPT01592

>  <COMMON_NAME>  (1) 
Cyclo(prolylglycyl)

>  <CAS_NUMBER>  (1) 
97011-16-0

>  <UNII>  (1) 
W7O69J5F2B

>  <SYNONYMS>  (1) 
(S)-Hexahydropyrrolo(1,2-a)pyrazine-1,4-dione-4-17O; Cyclo(pro-gly); Cyclo(pro-O-gly)

$$$$
