PB4
     RDKit          2D

 30 32  0  0  0  0  0  0  0  0999 V2000
   -0.5473    0.7414    0.0000 C   0  0  0  0  0  0  0  0  0  0  0  0
    0.1672    0.3289    0.0000 C   0  0  0  0  0  0  0  0  0  0  0  0
    0.1672   -0.4961    0.0000 C   0  0  0  0  0  0  0  0  0  0  0  0
    0.1672   -4.6211    0.0000 C   0  0  0  0  0  0  0  0  0  0  0  0
   -2.6907    2.8039    0.0000 C   0  0  0  0  0  0  0  0  0  0  0  0
    0.8817   -0.9086    0.0000 C   0  0  0  0  0  0  0  0  0  0  0  0
    1.5961   -2.1461    0.0000 C   0  0  0  0  0  0  0  0  0  0  0  0
    1.5961   -2.9711    0.0000 C   0  0  0  0  0  0  0  0  0  0  0  0
   -0.5473    1.5664    0.0000 C   0  0  0  0  0  0  0  0  0  0  0  0
    0.1672    2.8039    0.0000 C   0  0  0  0  0  0  0  0  0  0  0  0
   -0.5473    3.2164    0.0000 C   0  0  0  0  0  0  0  0  0  0  0  0
   -1.2617    2.8039    0.0000 C   0  0  0  0  0  0  0  0  0  0  0  0
   -1.9762    4.0414    0.0000 C   0  0  0  0  0  0  0  0  0  0  0  0
    2.3106   -3.3836    0.0000 C   0  0  0  0  0  0  0  0  0  0  0  0
    2.3106   -4.2086    0.0000 C   0  0  0  0  0  0  0  0  0  0  0  0
    1.5961   -4.6211    0.0000 C   0  0  0  0  0  0  0  0  0  0  0  0
    0.8817   -3.3836    0.0000 C   0  0  0  0  0  0  0  0  0  0  0  0
   -0.5473   -0.9086    0.0000 N   0  0  0  0  0  0  0  0  0  0  0  0
   -1.2617   -0.4961    0.0000 C   0  0  0  0  0  0  0  0  0  0  0  0
   -1.2617    0.3289    0.0000 N   0  0  0  0  0  0  0  0  0  0  0  0
    0.8817   -1.7336    0.0000 N   0  0  0  0  0  0  0  0  0  0  0  0
    0.1672    1.9789    0.0000 N   0  0  0  0  0  0  0  0  0  0  0  0
   -1.9762    3.2164    0.0000 C   0  0  0  0  0  0  0  0  0  0  0  0
   -1.2617    4.4539    0.0000 C   0  0  0  0  0  0  0  0  0  0  0  0
   -0.5473    4.0414    0.0000 C   0  0  0  0  0  0  0  0  0  0  0  0
    0.8817   -4.2086    0.0000 C   0  0  0  0  0  0  0  0  0  0  0  0
   -1.2617    1.9789    0.0000 O   0  0  0  0  0  0  0  0  0  0  0  0
    1.5961   -0.4961    0.0000 O   0  0  0  0  0  0  0  0  0  0  0  0
    1.5961   -5.4461    0.0000 F   0  0  0  0  0  0  0  0  0  0  0  0
   -2.6907    4.4539    0.0000 F   0  0  0  0  0  0  0  0  0  0  0  0
  1  2  2  0
  1  9  1  0
  1 20  1  0
  2  3  1  0
  3  6  1  0
  3 18  2  0
  4 26  1  0
  5 23  1  0
  6 21  1  0
  6 28  2  0
  7  8  1  0
  7 21  1  0
  8 14  2  0
  8 17  1  0
  9 22  1  0
  9 27  2  0
 10 11  1  0
 10 22  1  0
 11 12  2  0
 11 25  1  0
 12 23  1  0
 13 23  2  0
 13 24  1  0
 13 30  1  0
 14 15  1  0
 15 16  2  0
 16 26  1  0
 16 29  1  0
 17 26  2  0
 18 19  1  0
 19 20  2  0
 24 25  2  0
M  END
>  <DRUGBANK_ID>  (1) 
DB04760

>  <COMMON_NAME>  (1) 
PYRIMIDINE-4,6-DICARBOXYLIC ACID BIS-(4-FLUORO-3-METHYL-BENZYLAMIDE)

$$$$
