DZO
     RDKit          2D

 24 27  0  0  0  0  0  0  0  0999 V2000
   -1.6815   -0.8922    0.0000 C   0  0  0  0  0  0  0  0  0  0  0  0
    1.0170   -0.4797    0.0000 C   0  0  0  0  0  0  0  0  0  0  0  0
   -1.1966   -0.2248    0.0000 C   0  0  0  0  0  0  0  0  0  0  0  0
   -0.4119   -0.4797    0.0000 C   0  0  0  0  0  0  0  0  0  0  0  0
    3.1604   -0.0672    0.0000 C   0  0  0  0  0  0  0  0  0  0  0  0
    3.8749   -0.4797    0.0000 C   0  0  0  0  0  0  0  0  0  0  0  0
    4.5894   -0.0672    0.0000 Cl  0  0  0  0  0  0  0  0  0  0  0  0
    3.8749   -1.3047    0.0000 C   0  0  0  0  0  0  0  0  0  0  0  0
    3.1604   -1.7172    0.0000 C   0  0  0  0  0  0  0  0  0  0  0  0
    2.4460   -1.3047    0.0000 C   0  0  0  0  0  0  0  0  0  0  0  0
    2.4460   -0.4797    0.0000 C   0  0  0  0  0  0  0  0  0  0  0  0
    1.7315   -0.0672    0.0000 N   0  0  0  0  0  0  0  0  0  0  0  0
    1.0170   -1.3047    0.0000 C   0  0  0  0  0  0  0  0  0  0  0  0
    0.3025   -1.7172    0.0000 C   0  0  0  0  0  0  0  0  0  0  0  0
    0.3025   -0.0672    0.0000 N   0  0  0  0  0  0  0  0  0  0  0  0
   -0.4119   -1.3047    0.0000 N   0  0  0  0  0  0  0  0  0  0  0  0
   -1.1966   -1.5596    0.0000 N   0  0  0  0  0  0  0  0  0  0  0  0
   -1.4515    0.5599    0.0000 C   0  0  0  0  0  0  0  0  0  0  0  0
   -2.2585    0.7314    0.0000 C   0  0  0  0  0  0  0  0  0  0  0  0
   -0.8995    1.1729    0.0000 C   0  0  0  0  0  0  0  0  0  0  0  0
   -1.1544    1.9576    0.0000 C   0  0  0  0  0  0  0  0  0  0  0  0
   -1.9614    2.1291    0.0000 C   0  0  0  0  0  0  0  0  0  0  0  0
   -2.5134    1.5160    0.0000 C   0  0  0  0  0  0  0  0  0  0  0  0
   -3.3204    1.6875    0.0000 N   0  0  0  0  0  0  0  0  0  0  0  0
  1  3  1  0
  1 17  2  0
  2 12  1  0
  2 13  1  0
  2 15  2  0
  3  4  2  0
  3 18  1  0
  4 15  1  0
  4 16  1  0
  5  6  2  0
  5 11  1  0
  6  7  1  0
  6  8  1  0
  8  9  2  0
  9 10  1  0
 10 11  2  0
 11 12  1  0
 13 14  2  0
 14 16  1  0
 16 17  1  0
 18 19  2  0
 18 20  1  0
 19 23  1  0
 20 21  2  0
 21 22  1  0
 22 23  2  0
 23 24  1  0
M  END
>  <DRUGBANK_ID>  (1) 
DB07698

>  <COMMON_NAME>  (1) 
3-(3-aminophenyl)-N-(3-chlorophenyl)pyrazolo[1,5-a]pyrimidin-5-amine

$$$$
