
     RDKit          2D

 17 16  0  0  0  0  0  0  0  0999 V2000
    2.1486    2.0669    0.0000 O   0  0  0  0  0  0  0  0  0  0  0  0
    1.4310    0.8293    0.0000 O   0  0  0  0  0  0  0  0  0  0  0  0
    0.0000    0.8293    0.0000 N   0  0  0  0  0  0  0  0  0  0  0  0
    0.7175    2.0669    0.0000 N   0  0  0  0  0  0  0  0  0  0  0  0
   -0.7175    2.0669    0.0000 N   0  0  0  0  0  0  0  0  0  0  0  0
    1.4310    1.6544    0.0000 N   0  0  0  0  0  0  0  0  0  0  0  0
   -1.4310   -0.8250    0.0000 C   0  0  0  0  0  0  0  0  0  0  0  0
   -0.7175   -0.4125    0.0000 C   0  0  0  0  0  0  0  0  0  0  0  0
   -0.7175    0.4125    0.0000 C   0  0  0  0  0  0  0  0  0  0  0  0
    0.0000    1.6544    0.0000 C   0  0  0  0  0  0  0  0  0  0  0  0
   -1.4310   -1.6544    0.0000 C   0  0  0  0  0  0  0  0  0  0  0  0
   -0.7175   -2.0669    0.0000 C   0  0  0  0  0  0  0  0  0  0  0  0
    0.0000   -1.6544    0.0000 N   0  0  0  0  0  0  0  0  0  0  0  0
    0.7175   -2.0669    0.0000 C   0  0  0  0  0  0  0  0  0  0  0  0
    1.4310   -1.6544    0.0000 C   0  0  0  0  0  0  0  0  0  0  0  0
    2.1486   -2.0669    0.0000 N   0  0  0  0  0  0  0  0  0  0  0  0
   -2.1486   -2.0669    0.0000 N   0  0  0  0  0  0  0  0  0  0  0  0
  1  6  1  0
  2  6  2  0
  3  9  1  0
  3 10  1  0
  4  6  1  0
  4 10  1  0
  5 10  2  0
  7  8  1  0
  8  9  1  0
 11  7  1  0
 11 17  1  1
 11 12  1  0
 12 13  1  0
 13 14  1  0
 14 15  1  0
 15 16  1  0
M  CHG  2   1  -1   6   1
M  END
>  <DRUGBANK_ID>  (1) 
DB02027

>  <SECONDARY_ACCESSION_NUMBERS>  (1) 
EXPT01253

>  <COMMON_NAME>  (1) 
N-{(4S)-4-Amino-5-[(2-aminoethyl)amino]pentyl}-N'-nitroguanidine

>  <CAS_NUMBER>  (1) 
357965-98-1

>  <SYNONYMS>  (1) 
1-{(4S)-4-Amino-5-[(2-aminoethyl)amino]pentyl}-3-nitroguanidine

$$$$
