
     RDKit          2D

 29 31  0  0  0  0  0  0  0  0999 V2000
    0.7400    0.8260    0.0000 F   0  0  0  0  0  0  0  0  0  0  0  0
   -0.6883   -1.6349    0.0000 O   0  0  0  0  0  0  0  0  0  0  0  0
    0.0258    0.4216    0.0000 O   0  0  0  0  0  0  0  0  0  0  0  0
    4.3024    0.4043    0.0000 O   0  0  0  0  0  0  0  0  0  0  0  0
    3.5968    1.6349    0.0000 O   0  0  0  0  0  0  0  0  0  0  0  0
    0.7400   -0.8174    0.0000 N   0  0  0  0  0  0  0  0  0  0  0  0
   -3.5881   -0.7916    0.0000 C   0  0  0  0  0  0  0  0  0  0  0  0
   -3.5881    0.8518    0.0000 C   0  0  0  0  0  0  0  0  0  0  0  0
   -4.3024   -0.3786    0.0000 C   0  0  0  0  0  0  0  0  0  0  0  0
   -4.3024    0.4388    0.0000 C   0  0  0  0  0  0  0  0  0  0  0  0
   -2.8740   -0.3786    0.0000 C   0  0  0  0  0  0  0  0  0  0  0  0
   -2.8740    0.4388    0.0000 C   0  0  0  0  0  0  0  0  0  0  0  0
   -4.0012   -1.5058    0.0000 C   0  0  0  0  0  0  0  0  0  0  0  0
   -3.1751   -1.5058    0.0000 C   0  0  0  0  0  0  0  0  0  0  0  0
   -4.0012    1.5660    0.0000 C   0  0  0  0  0  0  0  0  0  0  0  0
   -3.1751    1.5660    0.0000 C   0  0  0  0  0  0  0  0  0  0  0  0
   -2.1426   -0.8174    0.0000 C   0  0  0  0  0  0  0  0  0  0  0  0
   -2.1426    0.8776    0.0000 C   0  0  0  0  0  0  0  0  0  0  0  0
   -1.3939   -0.3958    0.0000 C   0  0  0  0  0  0  0  0  0  0  0  0
   -1.3939    0.4560    0.0000 C   0  0  0  0  0  0  0  0  0  0  0  0
   -0.6883   -0.8088    0.0000 C   0  0  0  0  0  0  0  0  0  0  0  0
    0.0258   -0.4044    0.0000 C   0  0  0  0  0  0  0  0  0  0  0  0
    1.4542   -0.4130    0.0000 C   0  0  0  0  0  0  0  0  0  0  0  0
    1.4542    0.4130    0.0000 C   0  0  0  0  0  0  0  0  0  0  0  0
    2.1598   -0.8260    0.0000 C   0  0  0  0  0  0  0  0  0  0  0  0
    2.1684    0.8174    0.0000 C   0  0  0  0  0  0  0  0  0  0  0  0
    2.8740   -0.4130    0.0000 C   0  0  0  0  0  0  0  0  0  0  0  0
    2.8740    0.4043    0.0000 C   0  0  0  0  0  0  0  0  0  0  0  0
    3.5882    0.8174    0.0000 C   0  0  0  0  0  0  0  0  0  0  0  0
  1 24  1  0
  3 22  2  0
  4 29  1  0
  5 29  2  0
  6 22  1  0
  6 23  1  0
  7  9  1  0
  7 11  1  0
  7 13  1  0
  7 14  1  0
  8 10  1  0
  8 12  1  0
  8 15  1  0
  8 16  1  0
  9 10  1  0
 11 12  2  0
 11 17  1  0
 12 18  1  0
 17 19  2  0
 18 20  2  0
 19 20  1  0
 19 21  1  0
 21  2  1  1
 21 22  1  0
 23 24  2  0
 23 25  1  0
 24 26  1  0
 25 27  2  0
 26 28  2  0
 27 28  1  0
 28 29  1  0
M  END
>  <DRUGBANK_ID>  (1) 
DB07294

>  <COMMON_NAME>  (1) 
3-fluoro-4-[2-hydroxy-2-(5,5,8,8-tetramethyl-5,6,7,8,-tetrahydro-naphtalen-2-yl)-acetylamino]-benzoic acid

$$$$
