
     RDKit          2D

 28 30  0  0  0  0  0  0  0  0999 V2000
   -4.1016   -0.8156    0.0000 C   0  0  0  0  0  0  0  0  0  0  0  0
   -3.3866   -0.4048    0.0000 C   0  0  0  0  0  0  0  0  0  0  0  0
   -2.6717   -0.8156    0.0000 C   0  0  0  0  0  0  0  0  0  0  0  0
   -2.6717   -1.6460    0.0000 C   0  0  0  0  0  0  0  0  0  0  0  0
   -3.3866   -2.0565    0.0000 C   0  0  0  0  0  0  0  0  0  0  0  0
   -4.1016   -1.6460    0.0000 C   0  0  0  0  0  0  0  0  0  0  0  0
   -4.8163   -2.0565    0.0000 C   0  0  0  0  0  0  0  0  0  0  0  0
   -5.5312   -2.4719    0.0000 N   0  0  0  0  0  0  0  0  0  0  0  0
   -1.9522   -0.4048    0.0000 C   0  0  0  0  0  0  0  0  0  0  0  0
   -1.1982   -0.7394    0.0000 N   0  0  0  0  0  0  0  0  0  0  0  0
   -0.6445   -0.1256    0.0000 N   0  0  0  0  0  0  0  0  0  0  0  0
   -1.0595    0.5893    0.0000 C   0  0  0  0  0  0  0  0  0  0  0  0
   -1.8660    0.4183    0.0000 C   0  0  0  0  0  0  0  0  0  0  0  0
    0.1742   -0.2117    0.0000 C   0  0  0  0  0  0  0  0  0  0  0  0
    0.6629    0.4561    0.0000 C   0  0  0  0  0  0  0  0  0  0  0  0
    1.4816    0.3697    0.0000 N   0  0  0  0  0  0  0  0  0  0  0  0
    1.9703    1.0377    0.0000 C   0  0  0  0  0  0  0  0  0  0  0  0
    2.7890    0.9515    0.0000 C   0  0  0  0  0  0  0  0  0  0  0  0
    3.2042    0.2366    0.0000 N   0  0  0  0  0  0  0  0  0  0  0  0
    4.0106    0.4075    0.0000 N   0  0  0  0  0  0  0  0  0  0  0  0
    4.1015    1.2307    0.0000 C   0  0  0  0  0  0  0  0  0  0  0  0
    3.3427    1.5653    0.0000 C   0  0  0  0  0  0  0  0  0  0  0  0
    4.8163    1.6413    0.0000 C   0  0  0  0  0  0  0  0  0  0  0  0
    5.5312    1.2307    0.0000 C   0  0  0  0  0  0  0  0  0  0  0  0
    4.8163    2.4719    0.0000 O   0  0  0  0  0  0  0  0  0  0  0  0
    1.6312    1.7962    0.0000 O   0  0  0  0  0  0  0  0  0  0  0  0
    0.3238    1.2101    0.0000 C   0  0  0  0  0  0  0  0  0  0  0  0
   -4.8163   -0.4048    0.0000 Cl  0  0  0  0  0  0  0  0  0  0  0  0
  1  6  2  0
  1 28  1  0
  2  1  1  0
  3  2  2  0
  3  9  1  0
  4  3  1  0
  5  4  2  0
  6  5  1  0
  6  7  1  0
  7  8  3  0
 10  9  2  0
 10 11  1  0
 11 12  1  0
 11 14  1  0
 12 13  2  0
 13  9  1  0
 14 15  1  0
 15 16  1  0
 15 27  1  6
 16 17  1  0
 17 18  1  0
 17 26  2  0
 19 18  2  0
 19 20  1  0
 20 21  1  0
 21 22  2  0
 21 23  1  0
 22 18  1  0
 23 24  1  0
 23 25  1  0
M  END
>  <DRUGBANK_ID>  (1) 
DB12941

>  <COMMON_NAME>  (1) 
Darolutamide

>  <CAS_NUMBER>  (1) 
1297538-32-9

>  <UNII>  (1) 
X05U0N2RCO

>  <SYNONYMS>  (1) 
Darolutamide

$$$$
