
     RDKit          2D

 29 32  0  0  0  0  0  0  0  0999 V2000
   -0.8374   -0.4033    0.0000 C   0  0  0  0  0  0  0  0  0  0  0  0
   -0.8374   -1.2283    0.0000 C   0  0  0  0  0  0  0  0  0  0  0  0
   -0.1230   -1.6408    0.0000 C   0  0  0  0  0  0  0  0  0  0  0  0
    0.5915   -1.2283    0.0000 C   0  0  0  0  0  0  0  0  0  0  0  0
    0.5915   -0.4033    0.0000 C   0  0  0  0  0  0  0  0  0  0  0  0
   -0.1230    0.0092    0.0000 C   0  0  0  0  0  0  0  0  0  0  0  0
    1.2365    0.1111    0.0000 C   0  0  0  0  0  0  0  0  0  0  0  0
    1.0529    0.9154    0.0000 O   0  0  0  0  0  0  0  0  0  0  0  0
    2.0408   -0.0725    0.0000 N   0  0  0  0  0  0  0  0  0  0  0  0
    2.3988   -0.8158    0.0000 C   0  0  0  0  0  0  0  0  0  0  0  0
    2.0408   -1.5591    0.0000 C   0  0  0  0  0  0  0  0  0  0  0  0
    1.2365   -1.7427    0.0000 O   0  0  0  0  0  0  0  0  0  0  0  0
    3.2238   -0.8158    0.0000 Cl  0  0  0  0  0  0  0  0  0  0  0  0
    2.5552    0.5725    0.0000 C   0  0  0  0  0  0  0  0  0  0  0  0
    2.2538    1.3405    0.0000 C   0  0  0  0  0  0  0  0  0  0  0  0
    2.7682    1.9855    0.0000 C   0  0  0  0  0  0  0  0  0  0  0  0
    2.4668    2.7535    0.0000 C   0  0  0  0  0  0  0  0  0  0  0  0
    2.9812    3.3985    0.0000 N   0  0  0  0  0  0  0  0  0  0  0  0
    2.6798    4.1665    0.0000 C   0  0  0  0  0  0  0  0  0  0  0  0
    3.1941    4.8115    0.0000 C   0  0  0  0  0  0  0  0  0  0  0  0
    4.0099    4.6885    0.0000 C   0  0  0  0  0  0  0  0  0  0  0  0
    4.3113    3.9205    0.0000 C   0  0  0  0  0  0  0  0  0  0  0  0
    3.7969    3.2755    0.0000 C   0  0  0  0  0  0  0  0  0  0  0  0
    4.5243    5.3335    0.0000 C   0  0  0  0  0  0  0  0  0  0  0  0
    4.2229    6.1015    0.0000 C   0  0  0  0  0  0  0  0  0  0  0  0
    4.7373    6.7465    0.0000 C   0  0  0  0  0  0  0  0  0  0  0  0
    5.5531    6.6235    0.0000 C   0  0  0  0  0  0  0  0  0  0  0  0
    5.8545    5.8556    0.0000 C   0  0  0  0  0  0  0  0  0  0  0  0
    5.3401    5.2106    0.0000 N   0  0  0  0  0  0  0  0  0  0  0  0
  1  2  2  0
  1  6  1  0
  2  3  1  0
  3  4  2  0
  4  5  1  0
  4 12  1  0
  5  6  2  0
  5  7  1  0
  7  8  2  0
  7  9  1  0
  9 10  1  0
  9 14  1  0
 10 11  2  0
 10 13  1  0
 11 12  1  0
 14 15  1  0
 15 16  1  0
 16 17  1  0
 17 18  1  0
 18 19  1  0
 18 23  1  0
 19 20  1  0
 20 21  1  0
 21 22  2  0
 21 24  1  0
 22 23  1  0
 24 25  2  0
 24 29  1  0
 25 26  1  0
 26 27  2  0
 27 28  1  0
 28 29  2  0
M  END
>  <DRUGBANK_ID>  (1) 
DB12361

>  <COMMON_NAME>  (1) 
Piclozotan

>  <CAS_NUMBER>  (1) 
182415-09-4

>  <UNII>  (1) 
FQE44HS7AH

>  <SYNONYMS>  (1) 
Piclozotan

$$$$
