XAO
     RDKit          2D

 17 17  0  0  0  0  0  0  0  0999 V2000
    0.1452    0.1186    0.0000 C   0  0  0  0  0  0  0  0  0  0  0  0
    0.1452   -0.7064    0.0000 N   0  0  0  0  0  0  0  0  0  0  0  0
   -0.5693    0.5311    0.0000 C   0  0  0  0  0  0  0  0  0  0  0  0
   -0.5693    1.3561    0.0000 O   0  0  0  0  0  0  0  0  0  0  0  0
   -1.2837    0.1186    0.0000 C   0  0  0  0  0  0  0  0  0  0  0  0
   -1.2837   -0.7064    0.0000 O   0  0  0  0  0  0  0  0  0  0  0  0
   -1.9982    0.5311    0.0000 C   0  0  0  0  0  0  0  0  0  0  0  0
   -2.7127    0.1186    0.0000 C   0  0  0  0  0  0  0  0  0  0  0  0
   -3.4272    0.5311    0.0000 C   0  0  0  0  0  0  0  0  0  0  0  0
   -2.7127   -0.7064    0.0000 C   0  0  0  0  0  0  0  0  0  0  0  0
    0.8597    0.5311    0.0000 C   0  0  0  0  0  0  0  0  0  0  0  0
    1.5741    0.1186    0.0000 C   0  0  0  0  0  0  0  0  0  0  0  0
    2.2886    0.5311    0.0000 C   0  0  0  0  0  0  0  0  0  0  0  0
    1.5741   -0.7064    0.0000 C   0  0  0  0  0  0  0  0  0  0  0  0
    3.0031    0.1186    0.0000 C   0  0  0  0  0  0  0  0  0  0  0  0
    2.2886   -1.1189    0.0000 C   0  0  0  0  0  0  0  0  0  0  0  0
    3.0031   -0.7064    0.0000 C   0  0  0  0  0  0  0  0  0  0  0  0
  1  2  1  6
  1  3  1  0
  1 11  1  0
  3  4  1  6
  3  5  1  0
  5  6  1  1
  5  7  1  0
  7  8  1  0
  8  9  1  0
  8 10  1  0
 11 12  1  0
 12 13  1  0
 12 14  1  0
 13 15  1  0
 14 16  1  0
 15 17  1  0
 16 17  1  0
M  END
>  <DRUGBANK_ID>  (1) 
DB08740

>  <COMMON_NAME>  (1) 
CYCLOHEXYLMETHYL-2,3-DIHYDROXY-5-METHYL-HEXYLAMIDE

$$$$
