
     RDKit          2D

 15 16  0  0  1  0  0  0  0  0999 V2000
    2.2428   -2.5916    0.0000 N   0  0  0  0  0  0  0  0  0  0  0  0
    1.4358   -2.7631    0.0000 C   0  0  0  0  0  0  0  0  0  0  0  0
    0.8838   -2.1500    0.0000 C   0  0  0  0  0  0  0  0  0  0  0  0
    1.1387   -1.3654    0.0000 C   0  0  0  0  0  0  0  0  0  0  0  0
    0.6538   -0.6979    0.0000 C   0  0  0  0  0  0  0  0  0  0  0  0
    1.1387   -0.0305    0.0000 N   0  0  0  0  0  0  0  0  0  0  0  0
    1.9233   -0.2854    0.0000 C   0  0  0  0  0  0  0  0  0  0  0  0
    2.6378    0.1271    0.0000 C   0  0  0  0  0  0  0  0  0  0  0  0
    3.3523   -0.2854    0.0000 C   0  0  0  0  0  0  0  0  0  0  0  0
    3.3523   -1.1104    0.0000 C   0  0  0  0  0  0  0  0  0  0  0  0
    2.6378   -1.5229    0.0000 C   0  0  0  0  0  0  0  0  0  0  0  0
    1.9233   -1.1104    0.0000 C   0  0  0  0  0  0  0  0  0  0  0  0
    1.1809   -3.5477    0.0000 C   0  0  0  0  0  0  0  0  0  0  0  0
    1.7329   -4.1608    0.0000 O   0  0  0  0  0  0  0  0  0  0  0  0
    0.3739   -3.7192    0.0000 O   0  0  0  0  0  0  0  0  0  0  0  0
  2  1  1  1
  2  3  1  0
  2 13  1  0
  3  4  1  0
  4  5  2  0
  4 12  1  0
  5  6  1  0
  6  7  1  0
  7  8  1  0
  7 12  2  0
  8  9  2  0
  9 10  1  0
 10 11  2  0
 11 12  1  0
 13 14  1  0
 13 15  2  0
M  END
>  <DRUGBANK_ID>  (1) 
DB03225

>  <SECONDARY_ACCESSION_NUMBERS>  (1) 
EXPT01290

>  <COMMON_NAME>  (1) 
D-Tryptophan

>  <CAS_NUMBER>  (1) 
153-94-6

>  <UNII>  (1) 
7NS97N9H1G

>  <SYNONYMS>  (1) 
(2R)-2-amino-3-(1H-indol-3-yl)propanoic acid; (R)-tryptophan; DTR

$$$$
