NU5
     RDKit          2D

 34 37  0  0  0  0  0  0  0  0999 V2000
    2.6154   -1.1489    0.0000 O   0  0  0  0  0  0  0  0  0  0  0  0
    2.2029   -1.8634    0.0000 S   0  0  0  0  0  0  0  0  0  0  0  0
    1.7904   -2.5779    0.0000 O   0  0  0  0  0  0  0  0  0  0  0  0
    2.9174   -2.2759    0.0000 C   0  0  0  0  0  0  0  0  0  0  0  0
    3.6318   -1.8634    0.0000 C   0  0  0  0  0  0  0  0  0  0  0  0
    4.3463   -2.2759    0.0000 N   0  0  0  0  0  0  0  0  0  0  0  0
    5.0608   -1.8634    0.0000 C   0  0  0  0  0  0  0  0  0  0  0  0
    5.7753   -2.2759    0.0000 C   0  0  0  0  0  0  0  0  0  0  0  0
    6.4897   -1.8634    0.0000 C   0  0  0  0  0  0  0  0  0  0  0  0
    7.2042   -2.2759    0.0000 O   0  0  0  0  0  0  0  0  0  0  0  0
    1.4884   -1.4509    0.0000 C   0  0  0  0  0  0  0  0  0  0  0  0
    0.7740   -1.8634    0.0000 C   0  0  0  0  0  0  0  0  0  0  0  0
    0.0595   -1.4509    0.0000 C   0  0  0  0  0  0  0  0  0  0  0  0
    0.0595   -0.6259    0.0000 C   0  0  0  0  0  0  0  0  0  0  0  0
    0.7740   -0.2134    0.0000 C   0  0  0  0  0  0  0  0  0  0  0  0
    1.4884   -0.6259    0.0000 C   0  0  0  0  0  0  0  0  0  0  0  0
   -0.6550   -0.2134    0.0000 N   0  0  0  0  0  0  0  0  0  0  0  0
   -0.6550    0.6116    0.0000 C   0  0  0  0  0  0  0  0  0  0  0  0
   -1.3695    1.0241    0.0000 N   0  0  0  0  0  0  0  0  0  0  0  0
   -1.3695    1.8491    0.0000 C   0  0  0  0  0  0  0  0  0  0  0  0
   -0.6550    2.2616    0.0000 C   0  0  0  0  0  0  0  0  0  0  0  0
   -0.4835    3.0686    0.0000 N   0  0  0  0  0  0  0  0  0  0  0  0
    0.3370    3.1548    0.0000 C   0  0  0  0  0  0  0  0  0  0  0  0
    0.6726    2.4012    0.0000 N   0  0  0  0  0  0  0  0  0  0  0  0
    0.0595    1.8491    0.0000 C   0  0  0  0  0  0  0  0  0  0  0  0
    0.0595    1.0241    0.0000 N   0  0  0  0  0  0  0  0  0  0  0  0
   -2.0839    2.2616    0.0000 O   0  0  0  0  0  0  0  0  0  0  0  0
   -2.7984    1.8491    0.0000 C   0  0  0  0  0  0  0  0  0  0  0  0
   -3.5129    2.2616    0.0000 C   0  0  0  0  0  0  0  0  0  0  0  0
   -4.2273    1.8491    0.0000 C   0  0  0  0  0  0  0  0  0  0  0  0
   -4.9418    2.2616    0.0000 C   0  0  0  0  0  0  0  0  0  0  0  0
   -4.9418    3.0866    0.0000 C   0  0  0  0  0  0  0  0  0  0  0  0
   -4.2273    3.4991    0.0000 C   0  0  0  0  0  0  0  0  0  0  0  0
   -3.5129    3.0866    0.0000 C   0  0  0  0  0  0  0  0  0  0  0  0
  1  2  2  0
  2  3  2  0
  2  4  1  0
  2 11  1  0
  4  5  1  0
  5  6  1  0
  6  7  1  0
  7  8  1  0
  8  9  1  0
  9 10  1  0
 11 12  2  0
 11 16  1  0
 12 13  1  0
 13 14  2  0
 14 15  1  0
 14 17  1  0
 15 16  2  0
 17 18  1  0
 18 19  2  0
 18 26  1  0
 19 20  1  0
 20 21  2  0
 20 27  1  0
 21 22  1  0
 21 25  1  0
 22 23  2  0
 23 24  1  0
 24 25  1  0
 25 26  2  0
 27 28  1  0
 28 29  1  0
 29 30  1  0
 29 34  1  0
 30 31  1  0
 31 32  1  0
 32 33  1  0
 33 34  1  0
M  END
>  <DRUGBANK_ID>  (1) 
DB08309

>  <COMMON_NAME>  (1) 
3-({2-[(4-{[6-(CYCLOHEXYLMETHOXY)-9H-PURIN-2-YL]AMINO}PHENYL)SULFONYL]ETHYL}AMINO)PROPAN-1-OL

$$$$
