
     RDKit          2D

  1  0  0  0  0  0  0  0  0  0999 V2000
    0.0000    0.0000    0.0000 Xe  0  0  0  0  0 15  0  0  0  0  0  0
M  ISO  1   1 133
M  END
>  <DRUGBANK_ID>  (1) 
DB09315

>  <COMMON_NAME>  (1) 
Xenon-133

>  <CAS_NUMBER>  (1) 
14932-42-4

>  <UNII>  (1) 
X3P9A5HNYF

>  <SYNONYMS>  (1) 
Xenon (133 xe); Xenon (133Xe); Xenon (133Xe) gas; Xenon Xe 133; Xenon XE-133; Xenon, Xe-133

$$$$
