WBT
     RDKit          2D

 33 37  0  0  0  0  0  0  0  0999 V2000
    2.2281    1.9605    0.0000 F   0  0  0  0  0  0  0  0  0  0  0  0
    2.2281    1.1355    0.0000 C   0  0  0  0  0  0  0  0  0  0  0  0
    2.9425    0.7230    0.0000 C   0  0  0  0  0  0  0  0  0  0  0  0
    2.9425   -0.1020    0.0000 C   0  0  0  0  0  0  0  0  0  0  0  0
    2.2281   -0.5145    0.0000 C   0  0  0  0  0  0  0  0  0  0  0  0
    1.5136   -0.1020    0.0000 C   0  0  0  0  0  0  0  0  0  0  0  0
    1.5136    0.7230    0.0000 C   0  0  0  0  0  0  0  0  0  0  0  0
    0.7991   -0.5145    0.0000 C   0  0  0  0  0  0  0  0  0  0  0  0
    0.7991   -1.3395    0.0000 O   0  0  0  0  0  0  0  0  0  0  0  0
    0.0847   -0.1020    0.0000 N   0  0  0  0  0  0  0  0  0  0  0  0
   -0.6298   -0.5145    0.0000 C   0  0  0  0  0  0  0  0  0  0  0  0
   -0.6298   -1.3395    0.0000 C   0  0  0  0  0  0  0  0  0  0  0  0
   -1.3443   -1.7520    0.0000 C   0  0  0  0  0  0  0  0  0  0  0  0
   -2.0587   -1.3395    0.0000 C   0  0  0  0  0  0  0  0  0  0  0  0
   -2.8434   -1.5944    0.0000 C   0  0  0  0  0  0  0  0  0  0  0  0
   -3.3283   -0.9270    0.0000 C   0  0  0  0  0  0  0  0  0  0  0  0
   -2.8434   -0.2595    0.0000 N   0  0  0  0  0  0  0  0  0  0  0  0
   -3.0983    0.5251    0.0000 C   0  0  0  0  0  0  0  0  0  0  0  0
   -3.9053    0.6966    0.0000 C   0  0  0  0  0  0  0  0  0  0  0  0
   -4.1602    1.4812    0.0000 C   0  0  0  0  0  0  0  0  0  0  0  0
   -4.9672    1.6528    0.0000 C   0  0  0  0  0  0  0  0  0  0  0  0
   -5.2221    2.4374    0.0000 C   0  0  0  0  0  0  0  0  0  0  0  0
   -4.6701    3.0505    0.0000 N   0  0  0  0  0  0  0  0  0  0  0  0
   -3.8631    2.8789    0.0000 C   0  0  0  0  0  0  0  0  0  0  0  0
   -3.6082    2.0943    0.0000 C   0  0  0  0  0  0  0  0  0  0  0  0
   -2.0587   -0.5145    0.0000 C   0  0  0  0  0  0  0  0  0  0  0  0
   -1.3443   -0.1020    0.0000 C   0  0  0  0  0  0  0  0  0  0  0  0
    3.6570   -0.5145    0.0000 N   0  0  0  0  0  0  0  0  0  0  0  0
    4.3715   -0.1020    0.0000 C   0  0  0  0  0  0  0  0  0  0  0  0
    5.0860   -0.5145    0.0000 C   0  0  0  0  0  0  0  0  0  0  0  0
    5.0860   -1.3395    0.0000 O   0  0  0  0  0  0  0  0  0  0  0  0
    4.3715   -1.7520    0.0000 C   0  0  0  0  0  0  0  0  0  0  0  0
    3.6570   -1.3395    0.0000 C   0  0  0  0  0  0  0  0  0  0  0  0
  1  2  1  0
  2  3  2  0
  2  7  1  0
  3  4  1  0
  4  5  2  0
  4 28  1  0
  5  6  1  0
  6  7  2  0
  6  8  1  0
  8  9  2  0
  8 10  1  0
 10 11  1  0
 11 12  2  0
 11 27  1  0
 12 13  1  0
 13 14  2  0
 14 15  1  0
 14 26  1  0
 15 16  2  0
 16 17  1  0
 17 18  1  0
 17 26  1  0
 18 19  1  0
 19 20  1  0
 20 21  2  0
 20 25  1  0
 21 22  1  0
 22 23  2  0
 23 24  1  0
 24 25  2  0
 26 27  2  0
 28 29  1  0
 28 33  1  0
 29 30  1  0
 30 31  1  0
 31 32  1  0
 32 33  1  0
M  END
>  <DRUGBANK_ID>  (1) 
DB08730

>  <COMMON_NAME>  (1) 
3-FLUORO-5-MORPHOLIN-4-YL-N-[1-(2-PYRIDIN-4-YLETHYL)-1H-INDOL-6-YL]BENZAMIDE

$$$$
