ZAM
     RDKit          2D

 28 30  0  0  0  0  0  0  0  0999 V2000
   -1.0527    1.6779    0.0000 C   0  0  0  0  0  0  0  0  0  0  0  0
   -1.0527    3.1069    0.0000 C   0  0  0  0  0  0  0  0  0  0  0  0
   -1.0527   -1.1799    0.0000 C   0  0  0  0  0  0  0  0  0  0  0  0
    0.1848   -1.8944    0.0000 C   0  0  0  0  0  0  0  0  0  0  0  0
    0.1848   -0.4655    0.0000 C   0  0  0  0  0  0  0  0  0  0  0  0
   -2.2902    0.9635    0.0000 C   0  0  0  0  0  0  0  0  0  0  0  0
   -1.4652    0.9635    0.0000 C   0  0  0  0  0  0  0  0  0  0  0  0
   -1.0527    0.2490    0.0000 C   0  0  0  0  0  0  0  0  0  0  0  0
   -1.4652   -0.4655    0.0000 C   0  0  0  0  0  0  0  0  0  0  0  0
   -2.2902   -0.4655    0.0000 C   0  0  0  0  0  0  0  0  0  0  0  0
   -2.7027    0.2490    0.0000 C   0  0  0  0  0  0  0  0  0  0  0  0
   -2.7027    1.6779    0.0000 N   0  0  0  0  0  0  0  0  0  0  0  0
   -1.4652    2.3924    0.0000 N   0  0  0  0  0  0  0  0  0  0  0  0
   -2.2902    2.3924    0.0000 C   0  0  0  0  0  0  0  0  0  0  0  0
   -1.4652    3.8213    0.0000 O   0  0  0  0  0  0  0  0  0  0  0  0
   -0.2277    3.1069    0.0000 C   0  0  0  0  0  0  0  0  0  0  0  0
   -0.2277   -1.1799    0.0000 N   0  0  0  0  0  0  0  0  0  0  0  0
   -1.4652   -1.8944    0.0000 O   0  0  0  0  0  0  0  0  0  0  0  0
    1.0098   -1.8944    0.0000 C   0  0  0  0  0  0  0  0  0  0  0  0
    1.4947   -2.5619    0.0000 C   0  0  0  0  0  0  0  0  0  0  0  0
    2.2793   -2.3069    0.0000 C   0  0  0  0  0  0  0  0  0  0  0  0
    2.2793   -1.4819    0.0000 C   0  0  0  0  0  0  0  0  0  0  0  0
    1.4947   -1.2270    0.0000 N   0  0  0  0  0  0  0  0  0  0  0  0
    1.2397   -0.4424    0.0000 C   0  0  0  0  0  0  0  0  0  0  0  0
    2.9938   -2.7194    0.0000 C   0  0  0  0  0  0  0  0  0  0  0  0
    3.7082   -2.3069    0.0000 C   0  0  0  0  0  0  0  0  0  0  0  0
    2.9938   -1.0694    0.0000 C   0  0  0  0  0  0  0  0  0  0  0  0
    3.7082   -1.4819    0.0000 C   0  0  0  0  0  0  0  0  0  0  0  0
  1  7  1  0
  1 13  1  0
  2 13  1  0
  2 15  2  0
  2 16  1  0
  3  9  1  0
  3 17  1  0
  3 18  2  0
  4 17  1  0
  4 19  1  0
  5 17  1  0
  6  7  2  0
  6 11  1  0
  6 12  1  0
  7  8  1  0
  8  9  2  0
  9 10  1  0
 10 11  2  0
 13 14  1  0
 19 20  2  0
 19 23  1  0
 20 21  1  0
 21 22  2  0
 21 25  1  0
 22 23  1  0
 22 27  1  0
 23 24  1  0
 25 26  2  0
 26 28  1  0
 27 28  2  0
M  END
>  <DRUGBANK_ID>  (1) 
DB03534

>  <SECONDARY_ACCESSION_NUMBERS>  (1) 
EXPT03283

>  <COMMON_NAME>  (1) 
3-[(Acetyl-Methyl-Amino)-Methyl]-4-Amino-N-Methyl-N-(1-Methyl-1h-Indol-2-Ylmethyl)-Benzamide

$$$$
