
     RDKit          2D

  9  8  0  0  1  0  0  0  0  0999 V2000
    0.5230    1.1270    0.0000 C   0  0  0  0  0  0  0  0  0  0  0  0
    1.2375    0.7145    0.0000 C   0  0  0  0  0  0  0  0  0  0  0  0
    1.9520    1.1270    0.0000 C   0  0  0  0  0  0  0  0  0  0  0  0
    2.6664    0.7145    0.0000 C   0  0  0  0  0  0  0  0  0  0  0  0
    3.3809    1.1270    0.0000 O   0  0  0  0  0  0  0  0  0  0  0  0
    2.6664   -0.1105    0.0000 O   0  0  0  0  0  0  0  0  0  0  0  0
    1.9520    1.9520    0.0000 O   0  0  0  0  0  0  0  0  0  0  0  0
    1.2375   -0.1105    0.0000 O   0  0  0  0  0  0  0  0  0  0  0  0
   -0.1914    0.7145    0.0000 O   0  0  0  0  0  0  0  0  0  0  0  0
  1  2  1  0
  1  9  1  0
  2  3  1  0
  2  8  1  1
  3  4  1  0
  3  7  1  1
  4  5  2  0
  4  6  1  0
M  END
>  <DRUGBANK_ID>  (1) 
DB11192

>  <COMMON_NAME>  (1) 
L-threonic acid

>  <CAS_NUMBER>  (1) 
7306-96-9

>  <UNII>  (1) 
75B0PMW2JF

>  <SYNONYMS>  (1) 
(2R,3S)-2,3,4-trihydroxy-butanoic acid; L-threonate; L-threonic acid; Threonate

$$$$
