1502
     RDKit          2D

 24 25  0  0  1  0  0  0  0  0999 V2000
    5.9370   -1.4438    0.0000 O   0  0  0  0  0  0  0  0  0  0  0  0
    3.0791    0.2063    0.0000 N   0  0  0  0  0  0  0  0  0  0  0  0
    4.5080   -1.4438    0.0000 N   0  0  0  0  0  0  0  0  0  0  0  0
    3.7935   -0.2063    0.0000 C   0  0  0  0  0  0  0  0  0  0  0  0
    3.7935   -1.0313    0.0000 C   0  0  0  0  0  0  0  0  0  0  0  0
    3.0791    1.0313    0.0000 C   0  0  0  0  0  0  0  0  0  0  0  0
    4.5080    0.2063    0.0000 C   0  0  0  0  0  0  0  0  0  0  0  0
    2.3645    1.4438    0.0000 C   0  0  0  0  0  0  0  0  0  0  0  0
    2.3645   -0.2063    0.0000 C   0  0  0  0  0  0  0  0  0  0  0  0
    4.5080   -2.2688    0.0000 C   0  0  0  0  0  0  0  0  0  0  0  0
    2.3645    2.2688    0.0000 C   0  0  0  0  0  0  0  0  0  0  0  0
    5.2224   -1.0313    0.0000 C   0  0  0  0  0  0  0  0  0  0  0  0
    5.2224   -0.2063    0.0000 C   0  0  0  0  0  0  0  0  0  0  0  0
    5.2224   -2.6813    0.0000 C   0  0  0  0  0  0  0  0  0  0  0  0
    3.7935   -2.6813    0.0000 C   0  0  0  0  0  0  0  0  0  0  0  0
    1.6500    2.6813    0.0000 C   0  0  0  0  0  0  0  0  0  0  0  0
    3.0791    2.6813    0.0000 C   0  0  0  0  0  0  0  0  0  0  0  0
    5.9370    0.2063    0.0000 C   0  0  0  0  0  0  0  0  0  0  0  0
    5.2224   -3.5063    0.0000 C   0  0  0  0  0  0  0  0  0  0  0  0
    3.7935   -3.5063    0.0000 C   0  0  0  0  0  0  0  0  0  0  0  0
    1.6500    3.5063    0.0000 C   0  0  0  0  0  0  0  0  0  0  0  0
    3.0791    3.5063    0.0000 C   0  0  0  0  0  0  0  0  0  0  0  0
    4.5080   -3.9188    0.0000 C   0  0  0  0  0  0  0  0  0  0  0  0
    2.3645    3.9188    0.0000 C   0  0  0  0  0  0  0  0  0  0  0  0
  1 12  2  0
  2  4  1  0
  2  6  1  0
  2  9  1  0
  3  5  1  0
  3 10  1  0
  3 12  1  0
  4  5  1  0
  4  7  1  0
  6  8  1  0
  8 11  1  0
 10 14  2  0
 10 15  1  0
 11 16  2  0
 11 17  1  0
 12 13  1  0
 13 18  1  0
 14 19  1  0
 15 20  2  0
 16 21  1  0
 17 22  2  0
 19 23  2  0
 20 23  1  0
 21 24  2  0
 22 24  1  0
M  END
>  <DRUGBANK_ID>  (1) 
DB01502

>  <COMMON_NAME>  (1) 
Diampromide

>  <CAS_NUMBER>  (1) 
552-25-0

>  <UNII>  (1) 
26G7YC77BU

>  <SYNONYMS>  (1) 
Diampromide

$$$$
