D1T
     RDKit          2D

 11 10  0  0  0  0  0  0  0  0999 V2000
   -2.7947    0.2651    0.0000 C   0  0  0  0  0  0  0  0  0  0  0  0
   -2.0802   -0.1474    0.0000 C   0  0  0  0  0  0  0  0  0  0  0  0
   -1.3656    0.2651    0.0000 C   0  0  0  0  0  0  0  0  0  0  0  0
   -0.6511   -0.1474    0.0000 C   0  0  0  0  0  0  0  0  0  0  0  0
    0.0634    0.2651    0.0000 C   0  0  0  0  0  0  0  0  0  0  0  0
    0.7780   -0.1474    0.0000 C   0  0  0  0  0  0  0  0  0  0  0  0
    1.4924    0.2651    0.0000 C   0  0  0  0  0  0  0  0  0  0  0  0
    2.2070   -0.1474    0.0000 C   0  0  0  0  0  0  0  0  0  0  0  0
    2.9215    0.2651    0.0000 C   0  0  0  0  0  0  0  0  0  0  0  0
    3.6361   -0.1474    0.0000 C   0  0  0  0  0  0  0  0  0  0  0  0
    4.3505    0.2651    0.0000 S   0  0  0  0  0  0  0  0  0  0  0  0
  1  2  1  0
  2  3  1  0
  3  4  1  0
  4  5  1  0
  5  6  1  0
  6  7  1  0
  7  8  1  0
  8  9  1  0
  9 10  1  0
 10 11  1  0
M  END
>  <DRUGBANK_ID>  (1) 
DB07611

>  <COMMON_NAME>  (1) 
DECANE-1-THIOL

>  <UNII>  (1) 
A2H8YRB236

$$$$
