
     RDKit          2D

 27 28  0  0  0  0  0  0  0  0999 V2000
   -1.5665   -1.4375    0.0000 C   0  0  0  0  0  0  0  0  0  0  0  0
   -1.8440   -2.7432    0.0000 C   0  0  0  0  0  0  0  0  0  0  0  0
   -0.3289   -0.7230    0.0000 C   0  0  0  0  0  0  0  0  0  0  0  0
    1.3210    0.7058    0.0000 C   0  0  0  0  0  0  0  0  0  0  0  0
    1.3210    2.1347    0.0000 C   0  0  0  0  0  0  0  0  0  0  0  0
    0.9085    1.4203    0.0000 C   0  0  0  0  0  0  0  0  0  0  0  0
    0.0835    1.4203    0.0000 C   0  0  0  0  0  0  0  0  0  0  0  0
   -0.3289    2.1347    0.0000 C   0  0  0  0  0  0  0  0  0  0  0  0
    0.0835    2.8492    0.0000 C   0  0  0  0  0  0  0  0  0  0  0  0
    0.9085    2.8492    0.0000 C   0  0  0  0  0  0  0  0  0  0  0  0
    2.5585   -1.4375    0.0000 C   0  0  0  0  0  0  0  0  0  0  0  0
   -1.2308   -2.1912    0.0000 S   0  0  0  0  0  0  0  0  0  0  0  0
   -2.3869   -1.5238    0.0000 N   0  0  0  0  0  0  0  0  0  0  0  0
   -2.5584   -2.3307    0.0000 N   0  0  0  0  0  0  0  0  0  0  0  0
   -1.1539   -0.7230    0.0000 N   0  0  0  0  0  0  0  0  0  0  0  0
   -1.7577   -3.5637    0.0000 S   0  0  0  0  0  0  0  0  0  0  0  0
    0.0835   -1.4375    0.0000 O   0  0  0  0  0  0  0  0  0  0  0  0
    0.0835   -0.0086    0.0000 N   0  0  0  0  0  0  0  0  0  0  0  0
    0.9085   -0.0086    0.0000 C   0  0  0  0  0  0  0  0  0  0  0  0
    1.3210   -0.7230    0.0000 C   0  0  0  0  0  0  0  0  0  0  0  0
    0.9085   -1.4375    0.0000 O   0  0  0  0  0  0  0  0  0  0  0  0
    2.1460   -0.7230    0.0000 N   0  0  0  0  0  0  0  0  0  0  0  0
   -0.3289    0.7058    0.0000 F   0  0  0  0  0  0  0  0  0  0  0  0
   -1.1539    2.1347    0.0000 F   0  0  0  0  0  0  0  0  0  0  0  0
   -0.3289    3.5637    0.0000 F   0  0  0  0  0  0  0  0  0  0  0  0
    1.3210    3.5637    0.0000 F   0  0  0  0  0  0  0  0  0  0  0  0
    2.1460    2.1347    0.0000 F   0  0  0  0  0  0  0  0  0  0  0  0
  1 12  1  0
  1 13  2  0
  1 15  1  0
  2 12  1  0
  2 14  2  0
  2 16  1  0
  3 15  1  0
  3 17  2  0
  3 18  1  0
  4  6  1  0
  5  6  2  0
  5 27  1  0
  7  6  1  0
  7  8  2  0
  7 23  1  0
  8  9  1  0
  8 24  1  0
  9 10  2  0
  9 25  1  0
 10  5  1  0
 10 26  1  0
 11 22  1  0
 13 14  1  0
 19  4  1  1
 19 18  1  0
 19 20  1  0
 20 21  2  0
 20 22  1  0
M  END
>  <DRUGBANK_ID>  (1) 
DB07988

>  <COMMON_NAME>  (1) 
2-[3-(5-Mercapto-[1,3,4]thiadiazol-2yl)-ureido]-N-methyl-3-pentafluorophenyl-propionamide

$$$$
