FRV
     RDKit          2D

 27 30  0  0  0  0  0  0  0  0999 V2000
    2.3275   15.5103    0.0000 C   0  0  0  0  0  0  0  0  0  0  0  0
   -2.0915   15.4931    0.0000 N   0  0  0  0  0  0  0  0  0  0  0  0
   -2.0915   14.6681    0.0000 C   0  0  0  0  0  0  0  0  0  0  0  0
   -2.7590   15.9781    0.0000 C   0  0  0  0  0  0  0  0  0  0  0  0
   -3.5436   15.7231    0.0000 C   0  0  0  0  0  0  0  0  0  0  0  0
   -1.6790   13.9537    0.0000 C   0  0  0  0  0  0  0  0  0  0  0  0
   -0.4679   14.9161    0.0000 C   0  0  0  0  0  0  0  0  0  0  0  0
   -0.6395   15.7231    0.0000 C   0  0  0  0  0  0  0  0  0  0  0  0
   -1.4241   15.9781    0.0000 C   0  0  0  0  0  0  0  0  0  0  0  0
   -1.6790   16.7627    0.0000 C   0  0  0  0  0  0  0  0  0  0  0  0
    0.3167   14.6612    0.0000 C   0  0  0  0  0  0  0  0  0  0  0  0
    2.1560   16.3173    0.0000 C   0  0  0  0  0  0  0  0  0  0  0  0
    0.7583   16.0202    0.0000 C   0  0  0  0  0  0  0  0  0  0  0  0
   -0.0264   16.2752    0.0000 N   0  0  0  0  0  0  0  0  0  0  0  0
    5.9076   15.8496    0.0000 C   0  0  0  0  0  0  0  0  0  0  0  0
    2.7691   16.8693    0.0000 C   0  0  0  0  0  0  0  0  0  0  0  0
    3.5537   16.6144    0.0000 C   0  0  0  0  0  0  0  0  0  0  0  0
    3.7252   15.8074    0.0000 C   0  0  0  0  0  0  0  0  0  0  0  0
    4.7648   16.3371    0.0000 O   0  0  0  0  0  0  0  0  0  0  0  0
    4.5098   15.5525    0.0000 S   0  0  0  0  0  0  0  0  0  0  0  0
    4.2549   14.7679    0.0000 O   0  0  0  0  0  0  0  0  0  0  0  0
    5.2945   15.2975    0.0000 N   0  0  0  0  0  0  0  0  0  0  0  0
    3.1121   15.2554    0.0000 C   0  0  0  0  0  0  0  0  0  0  0  0
    1.3714   16.5722    0.0000 N   0  0  0  0  0  0  0  0  0  0  0  0
    0.9298   15.2132    0.0000 N   0  0  0  0  0  0  0  0  0  0  0  0
   -2.5040   16.7627    0.0000 N   0  0  0  0  0  0  0  0  0  0  0  0
   -2.5040   13.9537    0.0000 C   0  0  0  0  0  0  0  0  0  0  0  0
  2  4  1  0
  2  3  1  0
  3  6  1  0
  3 27  1  0
  4 26  2  0
  4  5  1  0
  6 27  1  0
  8 14  1  0
  8  7  2  0
  8  9  1  0
  9  2  1  0
  9 10  2  0
 11  7  1  0
 12 16  1  0
 12  1  2  0
 13 25  1  0
 13 24  1  0
 14 13  2  0
 16 17  2  0
 17 18  1  0
 18 23  2  0
 18 20  1  0
 20 22  1  0
 20 21  2  0
 20 19  2  0
 22 15  1  0
 23  1  1  0
 24 12  1  0
 25 11  2  0
 26 10  1  0
M  END
>  <DRUGBANK_ID>  (1) 
DB07791

>  <COMMON_NAME>  (1) 
4-{[4-(1-CYCLOPROPYL-2-METHYL-1H-IMIDAZOL-5-YL)PYRIMIDIN-2-YL]AMINO}-N-METHYLBENZENESULFONAMIDE

$$$$
