
     RDKit          2D

 14 15  0  0  0  0  0  0  0  0999 V2000
    0.9501   -0.4110    0.0000 O   0  0  0  0  0  0  0  0  0  0  0  0
    1.5763   -1.5402    0.0000 O   0  0  0  0  0  0  0  0  0  0  0  0
   -0.7115    0.1555    0.0000 C   0  0  0  0  0  0  0  0  0  0  0  0
   -0.8606    1.0886    0.0000 C   0  0  0  0  0  0  0  0  0  0  0  0
   -0.9629   -0.2833    0.0000 C   0  0  0  0  0  0  0  0  0  0  0  0
    0.2470   -0.4110    0.0000 C   0  0  0  0  0  0  0  0  0  0  0  0
    0.0042   -0.8115    0.0000 C   0  0  0  0  0  0  0  0  0  0  0  0
   -1.8406   -0.2833    0.0000 C   0  0  0  0  0  0  0  0  0  0  0  0
   -2.1302   -0.7476    0.0000 C   0  0  0  0  0  0  0  0  0  0  0  0
   -0.2556    0.5346    0.0000 C   0  0  0  0  0  0  0  0  0  0  0  0
   -1.6019    1.4506    0.0000 C   0  0  0  0  0  0  0  0  0  0  0  0
   -0.1704    1.5402    0.0000 C   0  0  0  0  0  0  0  0  0  0  0  0
    1.5763   -0.8372    0.0000 C   0  0  0  0  0  0  0  0  0  0  0  0
    2.1302   -0.3983    0.0000 C   0  0  0  0  0  0  0  0  0  0  0  0
  1 13  1  0
  2 13  2  0
  3  4  1  0
  3  6  1  0
  3  8  1  0
  3 10  1  6
  4 11  1  0
  4 12  1  0
  5  4  1  0
  5  7  1  6
  5  9  1  0
  6  1  1  6
  6  7  1  0
  8  9  1  0
 13 14  1  0
M  END
>  <DRUGBANK_ID>  (1) 
DB14665

>  <SECONDARY_ACCESSION_NUMBERS>  (1) 
DBSALT002203

>  <COMMON_NAME>  (1) 
Bornyl acetate

>  <CAS_NUMBER>  (1) 
76-49-3

>  <UNII>  (1) 
213431586X

>  <SYNONYMS>  (1) 
Bornyl acetate

$$$$
