
     RDKit          2D

 21 22  0  0  0  0  0  0  0  0999 V2000
   -0.2073   -0.3578    0.0000 C   0  0  0  0  0  0  0  0  0  0  0  0
    0.2052    0.3566    0.0000 C   0  0  0  0  0  0  0  0  0  0  0  0
    1.0303    0.3566    0.0000 C   0  0  0  0  0  0  0  0  0  0  0  0
   -1.0323   -0.3578    0.0000 C   0  0  0  0  0  0  0  0  0  0  0  0
    1.4411   -0.3600    0.0000 C   0  0  0  0  0  0  0  0  0  0  0  0
    2.2654   -0.3604    0.0000 C   0  0  0  0  0  0  0  0  0  0  0  0
    2.6788    0.3545    0.0000 C   0  0  0  0  0  0  0  0  0  0  0  0
    2.2619    1.0715    0.0000 C   0  0  0  0  0  0  0  0  0  0  0  0
    1.4388    1.0683    0.0000 C   0  0  0  0  0  0  0  0  0  0  0  0
   -1.4410    0.3599    0.0000 C   0  0  0  0  0  0  0  0  0  0  0  0
   -2.2654    0.3604    0.0000 C   0  0  0  0  0  0  0  0  0  0  0  0
   -2.6787   -0.3546    0.0000 C   0  0  0  0  0  0  0  0  0  0  0  0
   -2.2617   -1.0716    0.0000 C   0  0  0  0  0  0  0  0  0  0  0  0
   -1.4388   -1.0683    0.0000 C   0  0  0  0  0  0  0  0  0  0  0  0
   -1.0262    1.0732    0.0000 O   0  0  0  0  0  0  0  0  0  0  0  0
   -3.5038   -0.3557    0.0000 C   0  0  0  0  0  0  0  0  0  0  0  0
   -3.9173    0.3582    0.0000 N   0  0  0  0  0  0  0  0  0  0  0  0
   -3.9153   -1.0708    0.0000 N   0  0  0  0  0  0  0  0  0  0  0  0
    3.5038    0.3557    0.0000 C   0  0  0  0  0  0  0  0  0  0  0  0
    3.9173   -0.3582    0.0000 N   0  0  0  0  0  0  0  0  0  0  0  0
    3.9154    1.0707    0.0000 N   0  0  0  0  0  0  0  0  0  0  0  0
  1  4  1  0
  1  2  2  0
  2  3  1  0
  3  5  2  0
  4 10  2  0
  5  6  1  0
  6  7  2  0
  7  8  1  0
  7 19  1  0
  8  9  2  0
  9  3  1  0
 10 11  1  0
 10 15  1  0
 11 12  2  0
 12 16  1  0
 12 13  1  0
 13 14  2  0
 14  4  1  0
 16 17  2  0
 16 18  1  0
 19 20  2  0
 19 21  1  0
M  END
>  <DRUGBANK_ID>  (1) 
DB14753

>  <COMMON_NAME>  (1) 
Hydroxystilbamidine

>  <CAS_NUMBER>  (1) 
495-99-8

>  <UNII>  (1) 
39J262E49W

>  <SYNONYMS>  (1) 
2-Hydroxy-4,4'-diguanylstilbene; 2-Hydroxy-4,4'-stilbenedicarboxamidine; Hidroxiestilbamidina; Hydroxystilbamidine; Hydroxystilbamidinum; Idrossistilbamidina; Oxistilbamidinum

$$$$
