
     RDKit          2D

 26 28  0  0  0  0  0  0  0  0999 V2000
   -2.8650    1.2297    0.0000 C   0  0  0  0  0  0  0  0  0  0  0  0
   -2.8661    0.4024    0.0000 C   0  0  0  0  0  0  0  0  0  0  0  0
   -2.1513   -0.0104    0.0000 C   0  0  0  0  0  0  0  0  0  0  0  0
   -2.1531    1.6425    0.0000 C   0  0  0  0  0  0  0  0  0  0  0  0
   -1.4377    1.2334    0.0000 C   0  0  0  0  0  0  0  0  0  0  0  0
   -1.4343    0.4003    0.0000 C   0  0  0  0  0  0  0  0  0  0  0  0
   -0.7151   -0.0109    0.0000 N   0  0  0  0  0  0  0  0  0  0  0  0
   -0.7220    1.6552    0.0000 C   0  0  0  0  0  0  0  0  0  0  0  0
   -0.7265    2.4801    0.0000 N   0  0  0  0  0  0  0  0  0  0  0  0
   -2.1528   -0.8354    0.0000 C   0  0  0  0  0  0  0  0  0  0  0  0
    0.0092    1.2401    0.0000 C   0  0  0  0  0  0  0  0  0  0  0  0
    0.0035    0.4040    0.0000 N   0  0  0  0  0  0  0  0  0  0  0  0
    0.7236    1.6527    0.0000 C   0  0  0  0  0  0  0  0  0  0  0  0
    1.4381    1.2404    0.0000 N   0  0  0  0  0  0  0  0  0  0  0  0
    0.7234    2.4777    0.0000 O   0  0  0  0  0  0  0  0  0  0  0  0
    2.1525    1.6530    0.0000 C   0  0  0  0  0  0  0  0  0  0  0  0
    2.8671    1.2407    0.0000 C   0  0  0  0  0  0  0  0  0  0  0  0
    3.5815    1.6533    0.0000 C   0  0  0  0  0  0  0  0  0  0  0  0
   -2.8691   -1.2413    0.0000 C   0  0  0  0  0  0  0  0  0  0  0  0
   -2.8709   -2.0655    0.0000 C   0  0  0  0  0  0  0  0  0  0  0  0
   -2.1567   -2.4801    0.0000 C   0  0  0  0  0  0  0  0  0  0  0  0
   -1.4391   -2.0645    0.0000 C   0  0  0  0  0  0  0  0  0  0  0  0
   -1.4409   -1.2416    0.0000 C   0  0  0  0  0  0  0  0  0  0  0  0
   -3.5815   -0.8252    0.0000 O   0  0  0  0  0  0  0  0  0  0  0  0
   -3.5773   -0.0002    0.0000 C   0  0  0  0  0  0  0  0  0  0  0  0
   -0.7278   -0.8265    0.0000 F   0  0  0  0  0  0  0  0  0  0  0  0
  1  2  2  0
  2  3  1  0
  3  6  2  0
  3 10  1  0
  4  1  1  0
  5  8  1  0
  5  4  2  0
  5  6  1  0
  6  7  1  0
  7 12  2  0
  8  9  1  0
 10 19  2  0
 11 13  1  0
 11  8  2  0
 11 12  1  0
 13 14  1  0
 13 15  2  0
 14 16  1  0
 16 17  1  0
 17 18  1  0
 19 20  1  0
 19 24  1  0
 20 21  2  0
 21 22  1  0
 22 23  2  0
 23 10  1  0
 23 26  1  0
 24 25  1  0
M  END
>  <DRUGBANK_ID>  (1) 
DB13994

>  <COMMON_NAME>  (1) 
AZD-7325

>  <CAS_NUMBER>  (1) 
942437-37-8

>  <UNII>  (1) 
KNM216XOUH

$$$$
