BL6
     RDKit          2D

 22 25  0  0  0  0  0  0  0  0999 V2000
    1.0223    1.1193    0.0000 C   0  0  0  0  0  0  0  0  0  0  0  0
    0.3079    1.5318    0.0000 C   0  0  0  0  0  0  0  0  0  0  0  0
   -0.4066    1.1193    0.0000 C   0  0  0  0  0  0  0  0  0  0  0  0
   -1.1912    1.3742    0.0000 C   0  0  0  0  0  0  0  0  0  0  0  0
   -1.6762    0.7068    0.0000 C   0  0  0  0  0  0  0  0  0  0  0  0
    1.7368    1.5318    0.0000 C   0  0  0  0  0  0  0  0  0  0  0  0
    2.4513    0.2943    0.0000 C   0  0  0  0  0  0  0  0  0  0  0  0
    1.0223    0.2943    0.0000 C   0  0  0  0  0  0  0  0  0  0  0  0
   -0.4066    0.2943    0.0000 C   0  0  0  0  0  0  0  0  0  0  0  0
   -1.4462   -0.7453    0.0000 C   0  0  0  0  0  0  0  0  0  0  0  0
   -0.8941   -1.3584    0.0000 C   0  0  0  0  0  0  0  0  0  0  0  0
   -1.1491   -2.1430    0.0000 C   0  0  0  0  0  0  0  0  0  0  0  0
   -2.2531   -0.9168    0.0000 C   0  0  0  0  0  0  0  0  0  0  0  0
    0.3079    2.3568    0.0000 O   0  0  0  0  0  0  0  0  0  0  0  0
   -0.4928    1.9398    0.0000 O   0  0  0  0  0  0  0  0  0  0  0  0
   -1.1912    0.0393    0.0000 N   0  0  0  0  0  0  0  0  0  0  0  0
   -2.5081   -1.7014    0.0000 C   0  0  0  0  0  0  0  0  0  0  0  0
   -1.9560   -2.3145    0.0000 C   0  0  0  0  0  0  0  0  0  0  0  0
    0.3079   -0.1182    0.0000 N   0  0  0  0  0  0  0  0  0  0  0  0
    1.7368   -0.1182    0.0000 C   0  0  0  0  0  0  0  0  0  0  0  0
    3.1657   -0.1182    0.0000 C   0  0  0  0  0  0  0  0  0  0  0  0
    2.4513    1.1193    0.0000 C   0  0  0  0  0  0  0  0  0  0  0  0
  1  2  1  0
  1  6  1  0
  1  8  2  0
  2  3  1  0
  2 14  2  0
  3  4  1  0
  3  9  1  0
  3 15  1  6
  4  5  1  0
  5 16  1  0
  6 22  2  0
  7 20  2  0
  7 21  1  0
  7 22  1  0
  8 19  1  0
  8 20  1  0
  9 16  1  0
  9 19  2  0
 10 11  2  0
 10 13  1  0
 10 16  1  0
 11 12  1  0
 12 18  2  0
 13 17  2  0
 17 18  1  0
M  END
>  <DRUGBANK_ID>  (1) 
DB07469

>  <COMMON_NAME>  (1) 
(3aS)-3a-hydroxy-7-methyl-1-phenyl-1,2,3,3a-tetrahydro-4H-pyrrolo[2,3-b]quinolin-4-one

$$$$
