
     RDKit          2D

 16 15  0  0  0  0  0  0  0  0999 V2000
   -1.7312    0.0000    0.0000 C   0  0  0  0  0  0  0  0  0  0  0  0
   -1.7312    0.8250    0.0000 P   0  0  0  0  0  0  0  0  0  0  0  0
   -1.7312   -0.8250    0.0000 P   0  0  0  0  0  0  0  0  0  0  0  0
   -0.9437    0.8916    0.0000 O   0  0  0  0  0  0  0  0  0  0  0  0
   -1.7354   -1.6500    0.0000 O   0  0  0  0  0  0  0  0  0  0  0  0
   -2.5562    0.0041    0.0000 O   0  0  0  0  0  0  0  0  0  0  0  0
    2.5562    0.0000    0.0000 N   0  0  0  0  0  0  0  0  0  0  0  0
   -1.7354    1.6499    0.0000 O   0  0  0  0  0  0  0  0  0  0  0  0
   -0.9062   -0.8250    0.0000 O   0  0  0  0  0  0  0  0  0  0  0  0
   -2.5562   -0.8207    0.0000 O   0  0  0  0  0  0  0  0  0  0  0  0
   -2.5562    0.8250    0.0000 O   0  0  0  0  0  0  0  0  0  0  0  0
   -1.0187    0.4124    0.0000 C   0  0  0  0  0  0  0  0  0  0  0  0
    1.8437    0.4124    0.0000 C   0  0  0  0  0  0  0  0  0  0  0  0
   -0.3062    0.0000    0.0000 C   0  0  0  0  0  0  0  0  0  0  0  0
    1.1270    0.0000    0.0000 C   0  0  0  0  0  0  0  0  0  0  0  0
    0.4145    0.4124    0.0000 C   0  0  0  0  0  0  0  0  0  0  0  0
  2  1  1  0
  3  1  1  0
  4  2  2  0
  5  3  2  0
  6  1  1  0
  7 13  1  0
  8  2  1  0
  9  3  1  0
 10  3  1  0
 11  2  1  0
 12  1  1  0
 13 15  1  0
 14 12  1  0
 15 16  1  0
 16 14  1  0
M  END
>  <DRUGBANK_ID>  (1) 
DB11620

>  <COMMON_NAME>  (1) 
Neridronic Acid

>  <CAS_NUMBER>  (1) 
79778-41-9

>  <UNII>  (1) 
8U27U3RIN4

>  <SYNONYMS>  (1) 
(6-amino-1-hydroxyhexylidene)diphosphonic acid; Neridronate; Neridronic Acid

$$$$
