
     RDKit          2D

 30 33  0  0  1  0  0  0  0  0999 V2000
   -4.7121   -6.6343    0.0000 N   0  0  0  0  0  0  0  0  0  0  0  0
   -4.0446   -6.1494    0.0000 C   0  0  0  0  0  0  0  0  0  0  0  0
   -3.2910   -6.4850    0.0000 N   0  0  0  0  0  0  0  0  0  0  0  0
   -4.1309   -5.3289    0.0000 C   0  0  0  0  0  0  0  0  0  0  0  0
   -4.8845   -4.9934    0.0000 C   0  0  0  0  0  0  0  0  0  0  0  0
   -4.9708   -4.1729    0.0000 C   0  0  0  0  0  0  0  0  0  0  0  0
   -4.3033   -3.6880    0.0000 C   0  0  0  0  0  0  0  0  0  0  0  0
   -4.3896   -2.8675    0.0000 O   0  0  0  0  0  0  0  0  0  0  0  0
   -3.5497   -4.0235    0.0000 C   0  0  0  0  0  0  0  0  0  0  0  0
   -2.8822   -3.5386    0.0000 C   0  0  0  0  0  0  0  0  0  0  0  0
   -2.9685   -2.7181    0.0000 N   0  0  0  0  0  0  0  0  0  0  0  0
   -3.6829   -2.3056    0.0000 C   0  0  0  0  0  0  0  0  0  0  0  0
   -3.5114   -1.4986    0.0000 C   0  0  0  0  0  0  0  0  0  0  0  0
   -2.6909   -1.4124    0.0000 C   0  0  0  0  0  0  0  0  0  0  0  0
   -2.2784   -0.6979    0.0000 N   0  0  0  0  0  0  0  0  0  0  0  0
   -1.4534   -0.6979    0.0000 S   0  0  0  0  0  0  0  0  0  0  0  0
   -1.4534   -1.5229    0.0000 O   0  0  0  0  0  0  0  0  0  0  0  0
   -1.4534    0.1271    0.0000 O   0  0  0  0  0  0  0  0  0  0  0  0
   -0.6284   -0.6979    0.0000 C   0  0  0  0  0  0  0  0  0  0  0  0
   -0.1435   -1.3654    0.0000 C   0  0  0  0  0  0  0  0  0  0  0  0
    0.6411   -1.1104    0.0000 C   0  0  0  0  0  0  0  0  0  0  0  0
    0.6411   -0.2854    0.0000 C   0  0  0  0  0  0  0  0  0  0  0  0
   -0.1435   -0.0305    0.0000 S   0  0  0  0  0  0  0  0  0  0  0  0
    1.3556    0.1271    0.0000 C   0  0  0  0  0  0  0  0  0  0  0  0
    2.0701   -0.2854    0.0000 C   0  0  0  0  0  0  0  0  0  0  0  0
    2.0701   -1.1104    0.0000 C   0  0  0  0  0  0  0  0  0  0  0  0
    1.3556   -1.5229    0.0000 N   0  0  0  0  0  0  0  0  0  0  0  0
   -2.3554   -2.1661    0.0000 C   0  0  0  0  0  0  0  0  0  0  0  0
   -1.5484   -2.3376    0.0000 O   0  0  0  0  0  0  0  0  0  0  0  0
   -3.4634   -4.8440    0.0000 C   0  0  0  0  0  0  0  0  0  0  0  0
  1  2  1  0
  2  3  2  0
  2  4  1  0
  4  5  2  0
  4 30  1  0
  5  6  1  0
  6  7  2  0
  7  8  1  0
  7  9  1  0
  9 10  1  0
  9 30  2  0
 10 11  1  0
 11 12  1  0
 11 28  1  0
 12 13  1  0
 13 14  1  0
 14 15  1  6
 14 28  1  0
 15 16  1  0
 16 17  2  0
 16 18  2  0
 16 19  1  0
 19 20  2  0
 19 23  1  0
 20 21  1  0
 21 22  2  0
 21 27  1  0
 22 23  1  0
 22 24  1  0
 24 25  2  0
 25 26  1  0
 26 27  2  0
 28 29  2  0
M  END
>  <DRUGBANK_ID>  (1) 
DB02744

>  <SECONDARY_ACCESSION_NUMBERS>  (1) 
EXPT02653

>  <COMMON_NAME>  (1) 
RPR131247

$$$$
