
     RDKit          2D

 29 32  0  0  0  0  0  0  0  0999 V2000
   -0.1014    2.1518    0.0000 C   0  0  0  0  0  0  0  0  0  0  0  0
    0.4507    2.7649    0.0000 C   0  0  0  0  0  0  0  0  0  0  0  0
    1.2577    2.5934    0.0000 C   0  0  0  0  0  0  0  0  0  0  0  0
    1.5126    1.8088    0.0000 N   0  0  0  0  0  0  0  0  0  0  0  0
    0.9606    1.1957    0.0000 C   0  0  0  0  0  0  0  0  0  0  0  0
    0.1536    1.3672    0.0000 C   0  0  0  0  0  0  0  0  0  0  0  0
   -0.3984    0.7541    0.0000 C   0  0  0  0  0  0  0  0  0  0  0  0
   -0.1435   -0.0305    0.0000 C   0  0  0  0  0  0  0  0  0  0  0  0
   -0.6284   -0.6979    0.0000 C   0  0  0  0  0  0  0  0  0  0  0  0
   -0.1435   -1.3654    0.0000 N   0  0  0  0  0  0  0  0  0  0  0  0
    0.6411   -1.1104    0.0000 C   0  0  0  0  0  0  0  0  0  0  0  0
    0.6411   -0.2854    0.0000 C   0  0  0  0  0  0  0  0  0  0  0  0
    1.3556    0.1271    0.0000 C   0  0  0  0  0  0  0  0  0  0  0  0
    2.0701   -0.2854    0.0000 C   0  0  0  0  0  0  0  0  0  0  0  0
    2.0701   -1.1104    0.0000 C   0  0  0  0  0  0  0  0  0  0  0  0
    1.3556   -1.5229    0.0000 N   0  0  0  0  0  0  0  0  0  0  0  0
    2.7845    0.1271    0.0000 Cl  0  0  0  0  0  0  0  0  0  0  0  0
    1.8097    3.2065    0.0000 N   0  0  0  0  0  0  0  0  0  0  0  0
    1.5547    3.9911    0.0000 C   0  0  0  0  0  0  0  0  0  0  0  0
    2.1068    4.6042    0.0000 C   0  0  0  0  0  0  0  0  0  0  0  0
    1.8518    5.3888    0.0000 C   0  0  0  0  0  0  0  0  0  0  0  0
    2.4039    6.0019    0.0000 C   0  0  0  0  0  0  0  0  0  0  0  0
    3.2108    5.8304    0.0000 C   0  0  0  0  0  0  0  0  0  0  0  0
    3.4658    5.0458    0.0000 N   0  0  0  0  0  0  0  0  0  0  0  0
    2.9138    4.4327    0.0000 C   0  0  0  0  0  0  0  0  0  0  0  0
    3.7629    6.4435    0.0000 C   0  0  0  0  0  0  0  0  0  0  0  0
    4.3149    7.0566    0.0000 F   0  0  0  0  0  0  0  0  0  0  0  0
    4.3760    5.8915    0.0000 F   0  0  0  0  0  0  0  0  0  0  0  0
    3.1498    6.9955    0.0000 F   0  0  0  0  0  0  0  0  0  0  0  0
  1  2  2  0
  1  6  1  0
  2  3  1  0
  3  4  2  0
  3 18  1  0
  4  5  1  0
  5  6  2  0
  6  7  1  0
  7  8  1  0
  8  9  2  0
  8 12  1  0
  9 10  1  0
 10 11  1  0
 11 12  2  0
 11 16  1  0
 12 13  1  0
 13 14  2  0
 14 15  1  0
 14 17  1  0
 15 16  2  0
 18 19  1  0
 19 20  1  0
 20 21  2  0
 20 25  1  0
 21 22  1  0
 22 23  2  0
 23 24  1  0
 23 26  1  0
 24 25  2  0
 26 27  1  0
 26 28  1  0
 26 29  1  0
M  END
>  <DRUGBANK_ID>  (1) 
DB12978

>  <COMMON_NAME>  (1) 
Pexidartinib

>  <CAS_NUMBER>  (1) 
1029044-16-3

>  <UNII>  (1) 
6783M2LV5X

>  <SYNONYMS>  (1) 
Pexidartinib

$$$$
