
     RDKit          2D

 19 20  0  0  1  0  0  0  0  0999 V2000
    1.3501    4.9592    0.0000 C   0  0  0  0  0  0  0  0  0  0  0  0
   -2.1360    3.2034    0.0000 C   0  0  0  0  0  0  0  0  0  0  0  0
   -2.0363    6.0596    0.0000 C   0  0  0  0  0  0  0  0  0  0  0  0
    0.6086    4.5976    0.0000 C   0  0  0  0  0  0  0  0  0  0  0  0
   -0.8744    1.3993    0.0000 C   0  0  0  0  0  0  0  0  0  0  0  0
   -0.1599    1.8118    0.0000 C   0  0  0  0  0  0  0  0  0  0  0  0
   -1.5888    1.8118    0.0000 C   0  0  0  0  0  0  0  0  0  0  0  0
   -0.1599    2.6368    0.0000 C   0  0  0  0  0  0  0  0  0  0  0  0
   -1.5888    2.6368    0.0000 C   0  0  0  0  0  0  0  0  0  0  0  0
   -0.4372    4.5739    0.0000 C   0  0  0  0  0  0  0  0  0  0  0  0
   -0.8245    5.3024    0.0000 C   0  0  0  0  0  0  0  0  0  0  0  0
   -2.0862    4.6315    0.0000 C   0  0  0  0  0  0  0  0  0  0  0  0
   -1.6989    3.9031    0.0000 C   0  0  0  0  0  0  0  0  0  0  0  0
   -0.8744    3.0493    0.0000 C   0  0  0  0  0  0  0  0  0  0  0  0
    0.5511    3.7746    0.0000 C   0  0  0  0  0  0  0  0  0  0  0  0
   -0.8744    3.8743    0.0000 C   0  0  0  0  0  0  0  0  0  0  0  0
   -1.6490    5.3311    0.0000 N   0  0  0  0  0  0  0  0  0  0  0  0
    1.2351    3.3133    0.0000 O   0  0  0  0  0  0  0  0  0  0  0  0
   -0.1904    3.4129    0.0000 O   0  0  0  0  0  0  0  0  0  0  0  0
  4  1  1  0
  6  5  2  0
  7  5  1  0
  8  6  1  0
  9  7  2  0
 11 10  1  0
 13  2  1  6
 13 12  1  0
 14  8  2  0
 14  9  1  0
 15  4  1  0
 16 10  1  0
 16 13  1  0
 16 14  1  0
 16 19  1  1
 17  3  1  0
 17 11  1  0
 17 12  1  0
 18 15  2  0
 19 15  1  0
M  END
>  <DRUGBANK_ID>  (1) 
DB01473

>  <COMMON_NAME>  (1) 
Betaprodine

>  <CAS_NUMBER>  (1) 
468-59-7

>  <UNII>  (1) 
21J54X4Z4Z

>  <SYNONYMS>  (1) 
beta-Prodine; Betaprodina; Betaprodine; Betaprodinum

$$$$
