
     RDKit          2D

 41 45  0  0  0  0  0  0  0  0999 V2000
   -4.7534    3.5889    0.0000 C   0  0  0  0  0  0  0  0  0  0  0  0
   -4.3409    2.8744    0.0000 N   0  0  0  0  0  0  0  0  0  0  0  0
   -5.0554    2.4619    0.0000 C   0  0  0  0  0  0  0  0  0  0  0  0
   -3.6265    3.2869    0.0000 C   0  0  0  0  0  0  0  0  0  0  0  0
   -3.9284    2.1599    0.0000 C   0  0  0  0  0  0  0  0  0  0  0  0
   -3.1034    2.1599    0.0000 C   0  0  0  0  0  0  0  0  0  0  0  0
   -2.6909    1.4455    0.0000 C   0  0  0  0  0  0  0  0  0  0  0  0
   -3.1034    0.7310    0.0000 C   0  0  0  0  0  0  0  0  0  0  0  0
   -2.6909    0.0165    0.0000 C   0  0  0  0  0  0  0  0  0  0  0  0
   -1.8659    0.0165    0.0000 N   0  0  0  0  0  0  0  0  0  0  0  0
   -1.4534   -0.6979    0.0000 C   0  0  0  0  0  0  0  0  0  0  0  0
   -1.8659   -1.4124    0.0000 O   0  0  0  0  0  0  0  0  0  0  0  0
   -0.6284   -0.6979    0.0000 C   0  0  0  0  0  0  0  0  0  0  0  0
   -0.1435   -1.3654    0.0000 C   0  0  0  0  0  0  0  0  0  0  0  0
    0.6411   -1.1104    0.0000 C   0  0  0  0  0  0  0  0  0  0  0  0
    0.6411   -0.2854    0.0000 C   0  0  0  0  0  0  0  0  0  0  0  0
    1.3556    0.1271    0.0000 C   0  0  0  0  0  0  0  0  0  0  0  0
    2.0701   -0.2854    0.0000 C   0  0  0  0  0  0  0  0  0  0  0  0
    2.0701   -1.1104    0.0000 C   0  0  0  0  0  0  0  0  0  0  0  0
    2.7845   -1.5229    0.0000 O   0  0  0  0  0  0  0  0  0  0  0  0
    2.7845   -2.3479    0.0000 C   0  0  0  0  0  0  0  0  0  0  0  0
    2.0701   -2.7604    0.0000 C   0  0  0  0  0  0  0  0  0  0  0  0
    2.0701   -3.5854    0.0000 C   0  0  0  0  0  0  0  0  0  0  0  0
    1.3556   -3.9979    0.0000 C   0  0  0  0  0  0  0  0  0  0  0  0
    0.6411   -3.5854    0.0000 C   0  0  0  0  0  0  0  0  0  0  0  0
    0.6411   -2.7604    0.0000 C   0  0  0  0  0  0  0  0  0  0  0  0
    1.3556   -2.3479    0.0000 C   0  0  0  0  0  0  0  0  0  0  0  0
    1.3556   -1.5229    0.0000 C   0  0  0  0  0  0  0  0  0  0  0  0
   -0.1435   -0.0305    0.0000 N   0  0  0  0  0  0  0  0  0  0  0  0
   -0.3984    0.7541    0.0000 C   0  0  0  0  0  0  0  0  0  0  0  0
    0.1536    1.3672    0.0000 C   0  0  0  0  0  0  0  0  0  0  0  0
   -0.1014    2.1518    0.0000 C   0  0  0  0  0  0  0  0  0  0  0  0
    0.4507    2.7649    0.0000 C   0  0  0  0  0  0  0  0  0  0  0  0
    1.2577    2.5934    0.0000 C   0  0  0  0  0  0  0  0  0  0  0  0
    1.5126    1.8088    0.0000 C   0  0  0  0  0  0  0  0  0  0  0  0
    0.9606    1.1957    0.0000 C   0  0  0  0  0  0  0  0  0  0  0  0
    2.3196    1.6373    0.0000 C   0  0  0  0  0  0  0  0  0  0  0  0
    2.5745    0.8526    0.0000 N   0  0  0  0  0  0  0  0  0  0  0  0
    2.8716    2.2503    0.0000 N   0  0  0  0  0  0  0  0  0  0  0  0
   -3.9284    0.7310    0.0000 C   0  0  0  0  0  0  0  0  0  0  0  0
   -4.3409    1.4455    0.0000 C   0  0  0  0  0  0  0  0  0  0  0  0
  1  2  1  0
  2  3  1  0
  2  4  1  0
  2  5  1  0
  5  6  2  0
  5 41  1  0
  6  7  1  0
  7  8  2  0
  8  9  1  0
  8 40  1  0
  9 10  1  0
 10 11  1  0
 11 12  2  0
 11 13  1  0
 13 14  2  0
 13 29  1  0
 14 15  1  0
 15 16  2  0
 15 28  1  0
 16 17  1  0
 16 29  1  0
 17 18  2  0
 18 19  1  0
 19 20  1  0
 19 28  2  0
 20 21  1  0
 21 22  1  0
 22 23  2  0
 22 27  1  0
 23 24  1  0
 24 25  2  0
 25 26  1  0
 26 27  2  0
 29 30  1  0
 30 31  1  0
 31 32  2  0
 31 36  1  0
 32 33  1  0
 33 34  2  0
 34 35  1  0
 35 36  2  0
 35 37  1  0
 37 38  1  0
 37 39  2  0
 40 41  2  0
M  CHG  1   2   1
M  END
>  <DRUGBANK_ID>  (1) 
DB02269

>  <SECONDARY_ACCESSION_NUMBERS>  (1) 
EXPT01864

>  <COMMON_NAME>  (1) 
[4-({[5-Benzyloxy-1-(3-Carbamimidoyl-Benzyl)-1h-Indole-2-Carbonyl]-Amino}-Methyl)-Phenyl]-Trimethyl-Ammonium

$$$$
