
     RDKit          2D

 27 28  0  0  0  0  0  0  0  0999 V2000
   -2.1434   -0.9239    0.0000 N   0  0  0  0  0  0  0  0  0  0  0  0
   -1.4289   -0.5114    0.0000 C   0  0  0  0  0  0  0  0  0  0  0  0
   -0.7145   -0.9239    0.0000 N   0  0  0  0  0  0  0  0  0  0  0  0
   -1.4289    0.3135    0.0000 O   0  0  0  0  0  0  0  0  0  0  0  0
    0.0000   -0.5114    0.0000 C   0  0  0  0  0  0  0  0  0  0  0  0
    0.7145   -0.9239    0.0000 N   0  0  0  0  0  0  0  0  0  0  0  0
    1.4289   -0.5114    0.0000 C   0  0  0  0  0  0  0  0  0  0  0  0
    2.1434   -0.9239    0.0000 N   0  0  0  0  0  0  0  0  0  0  0  0
    1.4289    0.3135    0.0000 O   0  0  0  0  0  0  0  0  0  0  0  0
    2.8579   -0.5114    0.0000 C   0  0  0  0  0  0  0  0  0  0  0  0
    2.8579    0.3135    0.0000 N   0  0  0  0  0  0  0  0  0  0  0  0
    3.6425   -0.7663    0.0000 C   0  0  0  0  0  0  0  0  0  0  0  0
    3.6425    0.5684    0.0000 C   0  0  0  0  0  0  0  0  0  0  0  0
    2.1434    0.7260    0.0000 C   0  0  0  0  0  0  0  0  0  0  0  0
    4.1274   -0.0989    0.0000 N   0  0  0  0  0  0  0  0  0  0  0  0
    3.8974   -1.5510    0.0000 O   0  0  0  0  0  0  0  0  0  0  0  0
    3.8974    1.3531    0.0000 O   0  0  0  0  0  0  0  0  0  0  0  0
    2.1434    1.5510    0.0000 O   0  0  0  0  0  0  0  0  0  0  0  0
   -2.8579   -0.5114    0.0000 C   0  0  0  0  0  0  0  0  0  0  0  0
   -2.8579    0.3135    0.0000 N   0  0  0  0  0  0  0  0  0  0  0  0
   -3.6425   -0.7663    0.0000 C   0  0  0  0  0  0  0  0  0  0  0  0
   -3.6425    0.5684    0.0000 C   0  0  0  0  0  0  0  0  0  0  0  0
   -2.1434    0.7260    0.0000 C   0  0  0  0  0  0  0  0  0  0  0  0
   -4.1274   -0.0989    0.0000 N   0  0  0  0  0  0  0  0  0  0  0  0
   -3.8974   -1.5510    0.0000 O   0  0  0  0  0  0  0  0  0  0  0  0
   -3.8974    1.3531    0.0000 O   0  0  0  0  0  0  0  0  0  0  0  0
   -2.1434    1.5510    0.0000 O   0  0  0  0  0  0  0  0  0  0  0  0
  1 19  1  0
  2  1  1  0
  3  2  1  0
  4  2  2  0
  5  3  1  0
  6  5  1  0
  7  6  1  0
  8  7  1  0
  9  7  2  0
 10  8  1  0
 11 10  1  0
 12 10  1  0
 13 11  1  0
 14 11  1  0
 15 12  1  0
 15 13  1  0
 16 12  2  0
 17 13  2  0
 18 14  1  0
 20 19  1  0
 21 19  1  0
 22 20  1  0
 23 20  1  0
 24 21  1  0
 24 22  1  0
 25 21  2  0
 26 22  2  0
 27 23  1  0
M  END
>  <DRUGBANK_ID>  (1) 
DB14075

>  <COMMON_NAME>  (1) 
Imidurea

>  <CAS_NUMBER>  (1) 
39236-46-9

>  <UNII>  (1) 
M629807ATL

>  <SYNONYMS>  (1) 
Imidazolidinyl urea

$$$$
