
     RDKit          2D

 27 30  0  0  1  0  0  0  0  0999 V2000
    5.2520    1.1270    0.0000 C   0  0  0  0  0  0  0  0  0  0  0  0
    4.8395    1.8414    0.0000 C   0  0  0  0  0  0  0  0  0  0  0  0
    2.3645   -1.0164    0.0000 C   0  0  0  0  0  0  0  0  0  0  0  0
    1.5395   -1.0164    0.0000 C   0  0  0  0  0  0  0  0  0  0  0  0
   -2.2051    0.8250    0.0000 C   0  0  0  0  0  0  0  0  0  0  0  0
    3.6020   -0.3020    0.0000 C   0  0  0  0  0  0  0  0  0  0  0  0
    2.7770    1.1270    0.0000 C   0  0  0  0  0  0  0  0  0  0  0  0
    1.1270    1.1270    0.0000 C   0  0  0  0  0  0  0  0  0  0  0  0
   -2.8725   -0.4849    0.0000 C   0  0  0  0  0  0  0  0  0  0  0  0
   -1.4205   -0.2549    0.0000 C   0  0  0  0  0  0  0  0  0  0  0  0
    0.3020   -0.3020    0.0000 C   0  0  0  0  0  0  0  0  0  0  0  0
   -2.2051   -0.0000    0.0000 C   0  0  0  0  0  0  0  0  0  0  0  0
    2.7770   -0.3020    0.0000 C   0  0  0  0  0  0  0  0  0  0  0  0
    2.3645    0.4125    0.0000 C   0  0  0  0  0  0  0  0  0  0  0  0
    0.3020    1.1270    0.0000 C   0  0  0  0  0  0  0  0  0  0  0  0
    1.5395    0.4125    0.0000 C   0  0  0  0  0  0  0  0  0  0  0  0
   -0.1105    0.4125    0.0000 C   0  0  0  0  0  0  0  0  0  0  0  0
    4.0145    0.4125    0.0000 C   0  0  0  0  0  0  0  0  0  0  0  0
    3.6020    1.1270    0.0000 C   0  0  0  0  0  0  0  0  0  0  0  0
   -1.4205    1.0799    0.0000 C   0  0  0  0  0  0  0  0  0  0  0  0
   -2.7863   -1.3054    0.0000 F   0  0  0  0  0  0  0  0  0  0  0  0
   -0.1105    1.8414    0.0000 N   0  0  0  0  0  0  0  0  0  0  0  0
    1.1270   -0.3020    0.0000 N   0  0  0  0  0  0  0  0  0  0  0  0
   -0.9355    0.4125    0.0000 N   0  0  0  0  0  0  0  0  0  0  0  0
   -1.1655    1.8646    0.0000 O   0  0  0  0  0  0  0  0  0  0  0  0
    4.8395    0.4125    0.0000 O   0  0  0  0  0  0  0  0  0  0  0  0
    4.0145    1.8414    0.0000 O   0  0  0  0  0  0  0  0  0  0  0  0
  4  3  1  0
 12  5  1  0
 12  9  1  1
 12 10  1  0
 13  3  1  0
 13  6  2  0
 14  7  2  0
 14 13  1  0
 15  8  1  0
 15 22  1  1
 16  8  1  1
 16 14  1  0
 17 11  1  0
 17 15  1  0
 17 24  1  6
 18  6  1  0
 19  7  1  0
 19 18  2  0
 20  5  1  0
 21  9  1  0
 23  4  1  0
 23 11  1  0
 23 16  1  0
 24 10  1  0
 24 20  1  0
 25 20  2  0
 26  1  1  0
 26 18  1  0
 27  2  1  0
 27 19  1  0
M  END
>  <DRUGBANK_ID>  (1) 
DB12268

>  <COMMON_NAME>  (1) 
Carmegliptin

>  <CAS_NUMBER>  (1) 
813452-18-5

>  <UNII>  (1) 
9Z723VGH7J

>  <SYNONYMS>  (1) 
Carmegliptin

$$$$
