
     RDKit          2D

 14 14  0  0  0  0  0  0  0  0999 V2000
    1.3913    1.4268    0.0000 C   0  0  0  0  0  0  0  0  0  0  0  0
    1.4277    0.6024    0.0000 C   0  0  0  0  0  0  0  0  0  0  0  0
    2.1594    0.2219    0.0000 C   0  0  0  0  0  0  0  0  0  0  0  0
    2.1960   -0.6025    0.0000 C   0  0  0  0  0  0  0  0  0  0  0  0
    1.5006   -1.0462    0.0000 C   0  0  0  0  0  0  0  0  0  0  0  0
    0.7689   -0.6656    0.0000 C   0  0  0  0  0  0  0  0  0  0  0  0
    0.7324    0.1586    0.0000 C   0  0  0  0  0  0  0  0  0  0  0  0
    2.0866    1.8705    0.0000 O   0  0  0  0  0  0  0  0  0  0  0  0
    0.6594    1.8073    0.0000 O   0  0  0  0  0  0  0  0  0  0  0  0
    1.5371   -1.8705    0.0000 O   0  0  0  0  0  0  0  0  0  0  0  0
   -0.0363    1.3638    0.0000 C   0  0  0  0  0  0  0  0  0  0  0  0
   -0.7683    1.7444    0.0000 C   0  0  0  0  0  0  0  0  0  0  0  0
   -1.4640    1.3007    0.0000 C   0  0  0  0  0  0  0  0  0  0  0  0
   -2.1960    1.6815    0.0000 C   0  0  0  0  0  0  0  0  0  0  0  0
  1  8  2  0
  1  9  1  0
  1  2  1  0
  2  7  2  0
  2  3  1  0
  3  4  2  0
  4  5  1  0
  5  6  2  0
  5 10  1  0
  6  7  1  0
  9 11  1  0
 11 12  1  0
 12 13  1  0
 13 14  1  0
M  END
>  <DRUGBANK_ID>  (1) 
DB14084

>  <COMMON_NAME>  (1) 
Butylparaben

>  <CAS_NUMBER>  (1) 
94-26-8

>  <UNII>  (1) 
3QPI1U3FV8

>  <SYNONYMS>  (1) 
Butyl 4-hydroxybenzoate; Butyl hydroxybenzoate; Butyl p-hydroxy benzoate; Butyl parahydroxybenzoate

$$$$
