ZZ0
     RDKit          2D

 17 18  0  0  0  0  0  0  0  0999 V2000
    1.8237    0.6004    0.0000 C   0  0  0  0  0  0  0  0  0  0  0  0
    2.5382    0.1879    0.0000 C   0  0  0  0  0  0  0  0  0  0  0  0
    2.5382   -0.6371    0.0000 C   0  0  0  0  0  0  0  0  0  0  0  0
    3.2527   -1.0496    0.0000 Cl  0  0  0  0  0  0  0  0  0  0  0  0
    1.8237   -1.0496    0.0000 C   0  0  0  0  0  0  0  0  0  0  0  0
    1.1093   -0.6371    0.0000 C   0  0  0  0  0  0  0  0  0  0  0  0
    1.1093    0.1879    0.0000 C   0  0  0  0  0  0  0  0  0  0  0  0
    0.3948    0.6004    0.0000 N   0  0  0  0  0  0  0  0  0  0  0  0
   -0.3197    0.1879    0.0000 C   0  0  0  0  0  0  0  0  0  0  0  0
   -0.3197   -0.6371    0.0000 N   0  0  0  0  0  0  0  0  0  0  0  0
   -1.0341   -1.0496    0.0000 C   0  0  0  0  0  0  0  0  0  0  0  0
   -1.7486   -0.6371    0.0000 C   0  0  0  0  0  0  0  0  0  0  0  0
   -1.7486    0.1879    0.0000 C   0  0  0  0  0  0  0  0  0  0  0  0
   -1.0341    0.6004    0.0000 C   0  0  0  0  0  0  0  0  0  0  0  0
   -1.0341    1.4254    0.0000 C   0  0  0  0  0  0  0  0  0  0  0  0
   -1.7486    1.8379    0.0000 O   0  0  0  0  0  0  0  0  0  0  0  0
   -0.3197    1.8379    0.0000 O   0  0  0  0  0  0  0  0  0  0  0  0
  1  2  2  0
  1  7  1  0
  2  3  1  0
  3  4  1  0
  3  5  2  0
  5  6  1  0
  6  7  2  0
  7  8  1  0
  8  9  1  0
  9 10  2  0
  9 14  1  0
 10 11  1  0
 11 12  2  0
 12 13  1  0
 13 14  2  0
 14 15  1  0
 15 16  2  0
 15 17  1  0
M  END
>  <DRUGBANK_ID>  (1) 
DB08784

>  <COMMON_NAME>  (1) 
2-(4-CHLORO-PHENYLAMINO)-NICOTINIC ACID

$$$$
