
     RDKit          2D

 21 23  0  0  0  0  0  0  0  0999 V2000
    1.4934    1.1502    0.0000 C   0  0  0  0  0  0  0  0  0  0  0  0
    1.4934    0.3252    0.0000 N   0  0  0  0  0  0  0  0  0  0  0  0
    2.2222    1.6079    0.0000 C   0  0  0  0  0  0  0  0  0  0  0  0
    0.7768    1.5657    0.0000 N   0  0  0  0  0  0  0  0  0  0  0  0
    0.0481    0.3252    0.0000 C   0  0  0  0  0  0  0  0  0  0  0  0
   -2.1138   -0.9394    0.0000 C   0  0  0  0  0  0  0  0  0  0  0  0
    3.5230    1.6079    0.0000 N   0  0  0  0  0  0  0  0  0  0  0  0
    0.0481    1.1502    0.0000 C   0  0  0  0  0  0  0  0  0  0  0  0
   -0.6684   -0.0783    0.0000 C   0  0  0  0  0  0  0  0  0  0  0  0
   -2.1138   -0.0783    0.0000 N   0  0  0  0  0  0  0  0  0  0  0  0
    2.8665    2.7461    0.0000 S   0  0  0  0  0  0  0  0  0  0  0  0
    3.5230    2.3245    0.0000 C   0  0  0  0  0  0  0  0  0  0  0  0
    2.2222    2.3245    0.0000 C   0  0  0  0  0  0  0  0  0  0  0  0
   -1.3791    0.3252    0.0000 C   0  0  0  0  0  0  0  0  0  0  0  0
   -1.3730   -1.3791    0.0000 O   0  0  0  0  0  0  0  0  0  0  0  0
   -2.8364   -1.4092    0.0000 O   0  0  0  0  0  0  0  0  0  0  0  0
   -0.6684    1.5657    0.0000 C   0  0  0  0  0  0  0  0  0  0  0  0
   -1.3791    1.1502    0.0000 C   0  0  0  0  0  0  0  0  0  0  0  0
   -2.8364   -2.2644    0.0000 C   0  0  0  0  0  0  0  0  0  0  0  0
   -3.5230   -2.7461    0.0000 C   0  0  0  0  0  0  0  0  0  0  0  0
   -2.0776   -2.6558    0.0000 C   0  0  0  0  0  0  0  0  0  0  0  0
  2  1  2  0
  3  1  1  0
  4  1  1  0
  5  2  1  0
  5  8  2  0
  6 10  1  0
  7  3  1  0
  8  4  1  0
  9  5  1  0
 10 14  1  0
 11 13  1  0
 11 12  1  0
 12  7  2  0
 13  3  2  0
 14  9  2  0
 14 18  1  0
 15  6  2  0
 16  6  1  0
 17  8  1  0
 18 17  2  0
 19 16  1  0
 20 19  1  0
 21 19  1  0
M  END
>  <DRUGBANK_ID>  (1) 
DB11380

>  <COMMON_NAME>  (1) 
Cambendazole

>  <CAS_NUMBER>  (1) 
26097-80-3

>  <UNII>  (1) 
079X63S3DU

>  <SYNONYMS>  (1) 
Cambendazol; Cambendazole; Cambendazolum

$$$$
