
     RDKit          2D

 21 23  0  0  0  0  0  0  0  0999 V2000
    0.2987   -2.1703    0.0000 C   0  0  0  0  0  0  0  0  0  0  0  0
    0.2987   -1.3453    0.0000 C   0  0  0  0  0  0  0  0  0  0  0  0
    1.0132   -0.9328    0.0000 C   0  0  0  0  0  0  0  0  0  0  0  0
    1.7277   -1.3453    0.0000 C   0  0  0  0  0  0  0  0  0  0  0  0
    1.7277   -2.1703    0.0000 C   0  0  0  0  0  0  0  0  0  0  0  0
    1.0132   -2.5828    0.0000 C   0  0  0  0  0  0  0  0  0  0  0  0
   -0.0031    1.1616    0.0000 C   0  0  0  0  0  0  0  0  0  0  0  0
    0.2517    0.3770    0.0000 N   0  0  0  0  0  0  0  0  0  0  0  0
   -0.4156   -0.1078    0.0000 N   0  0  0  0  0  0  0  0  0  0  0  0
   -0.8281    1.1616    0.0000 C   0  0  0  0  0  0  0  0  0  0  0  0
   -1.0831    0.3770    0.0000 C   0  0  0  0  0  0  0  0  0  0  0  0
    0.4817    1.8291    0.0000 C   0  0  0  0  0  0  0  0  0  0  0  0
   -0.4156   -0.9328    0.0000 C   0  0  0  0  0  0  0  0  0  0  0  0
    0.1461    2.5828    0.0000 O   0  0  0  0  0  0  0  0  0  0  0  0
    1.3022    1.7428    0.0000 O   0  0  0  0  0  0  0  0  0  0  0  0
   -1.3802    1.7747    0.0000 C   0  0  0  0  0  0  0  0  0  0  0  0
    2.4421   -2.5828    0.0000 Cl  0  0  0  0  0  0  0  0  0  0  0  0
   -1.8901    0.2055    0.0000 C   0  0  0  0  0  0  0  0  0  0  0  0
   -2.1871    1.6032    0.0000 C   0  0  0  0  0  0  0  0  0  0  0  0
   -2.4421    0.8186    0.0000 C   0  0  0  0  0  0  0  0  0  0  0  0
   -0.4156   -2.5828    0.0000 Cl  0  0  0  0  0  0  0  0  0  0  0  0
  1 21  1  0
  1  2  2  0
  2 13  1  0
  3  2  1  0
  4  3  2  0
  5  4  1  0
  6  1  1  0
  6  5  2  0
  8  7  2  0
  9  8  1  0
 10  7  1  0
 11  9  1  0
 11 10  2  0
 12  7  1  0
 13  9  1  0
 14 12  2  0
 15 12  1  0
 16 10  1  0
 17  5  1  0
 18 11  1  0
 19 16  2  0
 20 18  2  0
 20 19  1  0
M  END
>  <DRUGBANK_ID>  (1) 
DB06266

>  <SECONDARY_ACCESSION_NUMBERS>  (1) 
DB03762

>  <COMMON_NAME>  (1) 
Lonidamine

>  <CAS_NUMBER>  (1) 
50264-69-2

>  <UNII>  (1) 
U78804BIDR

>  <SYNONYMS>  (1) 
1-(2,4-dichlorbenzyl)-indazole-3-carboxylic acid; DICA; diclondazolic acid; Doridamina; Lonidamin; lonidamina; Lonidamine; lonidaminum

$$$$
