
     RDKit          2D

  5  3  0  0  0  0  0  0  0  0999 V2000
   -1.1959    0.6180    0.0000 K   0  0  0  0  0 15  0  0  0  0  0  0
    1.1959    0.6180    0.0000 O   0  0  0  0  0  0  0  0  0  0  0  0
    0.4534   -0.6180    0.0000 O   0  0  0  0  0  0  0  0  0  0  0  0
    0.4534    0.2070    0.0000 C   0  0  0  0  0  0  0  0  0  0  0  0
   -0.2059    0.6180    0.0000 O   0  0  0  0  0  0  0  0  0  0  0  0
  2  4  2  0
  3  4  1  0
  4  5  1  0
M  CHG  2   1   1   3  -1
M  END
>  <DRUGBANK_ID>  (1) 
DB11098

>  <COMMON_NAME>  (1) 
Potassium bicarbonate

>  <CAS_NUMBER>  (1) 
298-14-6

>  <UNII>  (1) 
HM5Z15LEBN

>  <SYNONYMS>  (1) 
Carbonic acid, monopotassium salt; Potassium bicarbonate; Potassium hydrogen carbonate

$$$$
