NP2
     RDKit          2D

 14 14  0  0  0  0  0  0  0  0999 V2000
   -2.3896   -0.5702    0.0000 N   0  0  0  0  0  0  0  0  0  0  0  0
   -1.6750   -0.1577    0.0000 C   0  0  0  0  0  0  0  0  0  0  0  0
   -0.9606   -0.5702    0.0000 C   0  0  0  0  0  0  0  0  0  0  0  0
   -0.2460   -0.1577    0.0000 C   0  0  0  0  0  0  0  0  0  0  0  0
    0.4685   -0.5702    0.0000 N   0  0  0  0  0  0  0  0  0  0  0  0
    1.1831   -0.1577    0.0000 C   0  0  0  0  0  0  0  0  0  0  0  0
    1.1831    0.6673    0.0000 C   0  0  0  0  0  0  0  0  0  0  0  0
    1.8975   -0.5702    0.0000 C   0  0  0  0  0  0  0  0  0  0  0  0
    1.8975   -1.3953    0.0000 N   0  0  0  0  0  0  0  0  0  0  0  0
    2.6121   -1.8078    0.0000 O   0  0  0  0  0  0  0  0  0  0  0  0
    1.1831   -1.8078    0.0000 O   0  0  0  0  0  0  0  0  0  0  0  0
    1.8975    1.0799    0.0000 C   0  0  0  0  0  0  0  0  0  0  0  0
    2.6121   -0.1577    0.0000 C   0  0  0  0  0  0  0  0  0  0  0  0
    2.6121    0.6673    0.0000 C   0  0  0  0  0  0  0  0  0  0  0  0
  1  2  1  0
  2  3  1  0
  3  4  1  0
  4  5  1  0
  5  6  1  0
  6  7  2  0
  6  8  1  0
  7 12  1  0
  8  9  1  0
  8 13  2  0
  9 10  2  0
  9 11  1  0
 12 14  2  0
 13 14  1  0
M  CHG  2   9   1  11  -1
M  END
>  <DRUGBANK_ID>  (1) 
DB08291

>  <COMMON_NAME>  (1) 
N-(3-AMINOPROPYL)-2-NITROBENZENAMINE

>  <UNII>  (1) 
KSJ78WBX6K

$$$$
