
     RDKit          2D

  6  6  0  0  0  0  0  0  0  0999 V2000
    0.5678    1.9391    0.0000 C   0  0  0  0  0  0  0  0  0  0  0  0
    0.5678    1.1141    0.0000 N   0  0  0  0  0  0  0  0  0  0  0  0
    1.2350    0.6294    0.0000 C   0  0  0  0  0  0  0  0  0  0  0  0
    0.9801   -0.1553    0.0000 C   0  0  0  0  0  0  0  0  0  0  0  0
    0.1553   -0.1553    0.0000 N   0  0  0  0  0  0  0  0  0  0  0  0
   -0.0997    0.6294    0.0000 C   0  0  0  0  0  0  0  0  0  0  0  0
  1  2  1  0
  2  3  1  0
  2  6  1  0
  3  4  2  0
  4  5  1  0
  5  6  2  0
M  CHG  1   5   1
M  END
>  <DRUGBANK_ID>  (1) 
DB02671

>  <SECONDARY_ACCESSION_NUMBERS>  (1) 
EXPT00077

>  <COMMON_NAME>  (1) 
1-Methylimidazole

>  <CAS_NUMBER>  (1) 
616-47-7

>  <UNII>  (1) 
P4617QS63Y

$$$$
