
     RDKit          2D

 32 35  0  0  0  0  0  0  0  0999 V2000
   -1.4550   -0.6874    0.0000 C   0  0  0  0  0  0  0  0  0  0  0  0
   -1.4530    0.1376    0.0000 C   0  0  0  0  0  0  0  0  0  0  0  0
   -0.7375    0.5485    0.0000 C   0  0  0  0  0  0  0  0  0  0  0  0
   -0.0239    0.1341    0.0000 C   0  0  0  0  0  0  0  0  0  0  0  0
   -0.0258   -0.6909    0.0000 C   0  0  0  0  0  0  0  0  0  0  0  0
   -0.7415   -1.1016    0.0000 C   0  0  0  0  0  0  0  0  0  0  0  0
   -2.0274   -1.0160    0.0000 Cl  0  0  0  0  0  0  0  0  0  0  0  0
    0.6871   -1.1068    0.0000 O   0  0  0  0  0  0  0  0  0  0  0  0
    0.6840   -1.9324    0.0000 C   0  0  0  0  0  0  0  0  0  0  0  0
   -0.0391   -2.3443    0.0000 C   0  0  0  0  0  0  0  0  0  0  0  0
   -0.0391   -3.1678    0.0000 C   0  0  0  0  0  0  0  0  0  0  0  0
    0.6840   -3.5796    0.0000 N   0  0  0  0  0  0  0  0  0  0  0  0
    1.3971   -2.3443    0.0000 C   0  0  0  0  0  0  0  0  0  0  0  0
    1.3971   -3.1678    0.0000 C   0  0  0  0  0  0  0  0  0  0  0  0
    2.1102   -3.5796    0.0000 C   0  0  0  0  0  0  0  0  0  0  0  0
    2.8233   -3.1678    0.0000 C   0  0  0  0  0  0  0  0  0  0  0  0
    2.8233   -2.3443    0.0000 C   0  0  0  0  0  0  0  0  0  0  0  0
    2.1102   -1.9324    0.0000 C   0  0  0  0  0  0  0  0  0  0  0  0
    3.5374   -3.5820    0.0000 O   0  0  0  0  0  0  0  0  0  0  0  0
    3.5374   -1.9300    0.0000 O   0  0  0  0  0  0  0  0  0  0  0  0
    3.5363   -1.1044    0.0000 C   0  0  0  0  0  0  0  0  0  0  0  0
   -2.1661    0.5537    0.0000 N   0  0  0  0  0  0  0  0  0  0  0  0
   -2.1629    1.3792    0.0000 C   0  0  0  0  0  0  0  0  0  0  0  0
   -2.8759    1.7952    0.0000 N   0  0  0  0  0  0  0  0  0  0  0  0
   -1.5898    1.7068    0.0000 O   0  0  0  0  0  0  0  0  0  0  0  0
   -2.8727    2.6207    0.0000 C   0  0  0  0  0  0  0  0  0  0  0  0
   -3.5374    3.0976    0.0000 N   0  0  0  0  0  0  0  0  0  0  0  0
   -3.2778    3.8809    0.0000 O   0  0  0  0  0  0  0  0  0  0  0  0
   -2.4528    3.8760    0.0000 C   0  0  0  0  0  0  0  0  0  0  0  0
   -2.2025    3.0898    0.0000 C   0  0  0  0  0  0  0  0  0  0  0  0
   -2.0616    4.4076    0.0000 C   0  0  0  0  0  0  0  0  0  0  0  0
    3.5363   -4.4076    0.0000 C   0  0  0  0  0  0  0  0  0  0  0  0
  1  2  2  0
  1  7  1  0
  2  3  1  0
  2 22  1  0
  3  4  2  0
  4  5  1  0
  5  6  2  0
  5  8  1  0
  6  1  1  0
  8  9  1  0
  9 10  2  0
 10 11  1  0
 11 12  2  0
 12 14  1  0
 13  9  1  0
 13 14  2  0
 14 15  1  0
 15 16  2  0
 16 17  1  0
 16 19  1  0
 17 18  2  0
 17 20  1  0
 18 13  1  0
 19 32  1  0
 20 21  1  0
 22 23  1  0
 23 24  1  0
 23 25  2  0
 24 26  1  0
 26 27  2  0
 27 28  1  0
 28 29  1  0
 29 30  2  0
 29 31  1  0
 30 26  1  0
M  END
>  <DRUGBANK_ID>  (1) 
DB11800

>  <COMMON_NAME>  (1) 
Tivozanib

>  <CAS_NUMBER>  (1) 
475108-18-0

>  <UNII>  (1) 
172030934T

>  <SYNONYMS>  (1) 
Tivozanib

$$$$
