
     RDKit          2D

 34 38  0  0  1  0  0  0  0  0999 V2000
    3.8072   -2.7719    0.0000 Na  0  0  0  0  0 15  0  0  0  0  0  0
    3.8391   -0.4387    0.0000 Na  0  0  0  0  0 15  0  0  0  0  0  0
    3.3297    0.7924    0.0000 C   0  0  0  0  0  0  0  0  0  0  0  0
    3.1053   -0.0015    0.0000 C   0  0  0  0  0  0  0  0  0  0  0  0
    2.3055   -0.2042    0.0000 C   0  0  0  0  0  0  0  0  0  0  0  0
    1.5058   -0.4068    0.0000 O   0  0  0  0  0  0  0  0  0  0  0  0
    1.7302    0.3871    0.0000 C   0  0  0  0  0  0  0  0  0  0  0  0
    0.9305    0.1845    0.0000 C   0  0  0  0  0  0  0  0  0  0  0  0
    0.7061   -0.6094    0.0000 O   0  0  0  0  0  0  0  0  0  0  0  0
    1.2814   -1.2007    0.0000 C   0  0  0  0  0  0  0  0  0  0  0  0
    2.0812   -0.9981    0.0000 O   0  0  0  0  0  0  0  0  0  0  0  0
    2.6565   -1.5893    0.0000 P   0  0  0  0  0  0  0  0  0  0  0  0
    3.2318   -2.1806    0.0000 O   0  0  0  0  0  0  0  0  0  0  0  0
    3.2478   -1.0140    0.0000 O   0  0  0  0  0  0  0  0  0  0  0  0
    2.0652   -2.1647    0.0000 O   0  0  0  0  0  0  0  0  0  0  0  0
    0.3551    0.7758    0.0000 C   0  0  0  0  0  0  0  0  0  0  0  0
   -0.2202    1.3671    0.0000 O   0  0  0  0  0  0  0  0  0  0  0  0
    0.5795    1.5697    0.0000 C   0  0  0  0  0  0  0  0  0  0  0  0
    1.3793    1.7723    0.0000 C   0  0  0  0  0  0  0  0  0  0  0  0
    2.1790    1.9749    0.0000 O   0  0  0  0  0  0  0  0  0  0  0  0
    1.9546    1.1810    0.0000 C   0  0  0  0  0  0  0  0  0  0  0  0
    2.7543    1.3836    0.0000 C   0  0  0  0  0  0  0  0  0  0  0  0
    2.6364    2.2002    0.0000 C   0  0  0  0  0  0  0  0  0  0  0  0
    2.9787    2.1775    0.0000 C   0  0  0  0  0  0  0  0  0  0  0  0
    3.7785    2.3802    0.0000 C   0  0  0  0  0  0  0  0  0  0  0  0
    4.3538    1.7889    0.0000 C   0  0  0  0  0  0  0  0  0  0  0  0
    4.1294    0.9950    0.0000 C   0  0  0  0  0  0  0  0  0  0  0  0
    4.8151    0.5362    0.0000 C   0  0  0  0  0  0  0  0  0  0  0  0
    5.4633    1.0466    0.0000 O   0  0  0  0  0  0  0  0  0  0  0  0
    5.1782    1.8208    0.0000 C   0  0  0  0  0  0  0  0  0  0  0  0
    5.6369    2.5065    0.0000 O   0  0  0  0  0  0  0  0  0  0  0  0
   -0.2361    0.2004    0.0000 C   0  0  0  0  0  0  0  0  0  0  0  0
   -1.0300    0.4248    0.0000 C   0  0  0  0  0  0  0  0  0  0  0  0
   -0.0335   -0.5993    0.0000 C   0  0  0  0  0  0  0  0  0  0  0  0
  3  4  1  6
  3 27  1  0
  5  4  1  6
  5  6  1  0
  7  6  1  6
  7  5  1  0
  7  8  1  0
  7 21  1  0
  8  9  1  6
  8 16  1  0
  9 10  1  0
 10 11  1  0
 11 12  1  0
 12 13  1  0
 12 14  1  0
 12 15  2  0
 16 17  1  0
 16 18  1  0
 16 32  1  6
 18 17  1  1
 19 18  1  0
 19 20  1  6
 21 20  1  6
 21 19  1  0
 21 22  1  0
 22  3  1  0
 22 23  1  6
 22 24  1  0
 24 25  1  0
 25 26  1  0
 26 27  2  0
 26 30  1  0
 27 28  1  0
 28 29  1  0
 29 30  1  0
 30 31  2  0
 32 33  1  0
 32 34  1  0
M  CHG  4   1   1   2   1  13  -1  14  -1
M  END
>  <DRUGBANK_ID>  (1) 
DB17309

>  <COMMON_NAME>  (1) 
Minnelide

>  <CAS_NUMBER>  (1) 
1254702-87-8

>  <UNII>  (1) 
1CIV2UMO40

>  <SYNONYMS>  (1) 
14-o-phosphonooxymethyltriptolide disodium salt; Trisoxireno(4b,5:6,7:8a,9)phenanthro(1,2-c)furan-1(3h)-one, 3b,4,4a,6,6a,7a,7b,8b,9,10-decahydro-8b-methyl-6a-(1-methylethyl)-6-((phosphonooxy)methoxy)-, sodium salt (1:2), (3bs,4as,5ar,6r,6as,7as,7bs,8as,8bs)-

$$$$
