
     RDKit          2D

 11 12  0  0  0  0  0  0  0  0999 V2000
    2.0416   -1.0596    0.0000 N   0  0  0  0  0  0  0  0  0  0  0  0
    1.3270   -0.6472    0.0000 C   0  0  0  0  0  0  0  0  0  0  0  0
    1.2413    0.1735    0.0000 N   0  0  0  0  0  0  0  0  0  0  0  0
    0.4328    0.3450    0.0000 C   0  0  0  0  0  0  0  0  0  0  0  0
    0.0204    1.0596    0.0000 C   0  0  0  0  0  0  0  0  0  0  0  0
   -0.8044    1.0596    0.0000 C   0  0  0  0  0  0  0  0  0  0  0  0
   -1.2167    0.3450    0.0000 C   0  0  0  0  0  0  0  0  0  0  0  0
   -2.0416    0.3450    0.0000 O   0  0  0  0  0  0  0  0  0  0  0  0
   -0.8044   -0.3695    0.0000 C   0  0  0  0  0  0  0  0  0  0  0  0
    0.0204   -0.3695    0.0000 C   0  0  0  0  0  0  0  0  0  0  0  0
    0.5716   -0.9820    0.0000 N   0  0  0  0  0  0  0  0  0  0  0  0
  1  2  1  0
  2  3  2  0
  2 11  1  0
  3  4  1  0
  4  5  2  0
  4 10  1  0
  5  6  1  0
  6  7  2  0
  7  8  1  0
  7  9  1  0
  9 10  2  0
 10 11  1  0
M  END
>  <DRUGBANK_ID>  (1) 
DB03729

>  <SECONDARY_ACCESSION_NUMBERS>  (1) 
EXPT00052

>  <COMMON_NAME>  (1) 
2-Amino-1H-benzimidazol-5-ol

>  <CAS_NUMBER>  (1) 
51276-85-8

>  <SYNONYMS>  (1) 
5-Hydroxy-2-aminobenzimidazole

$$$$
