
     RDKit          2D

 22 24  0  0  1  0  0  0  0  0999 V2000
   -0.1184   -0.2999    0.0000 C   0  0  0  0  0  0  0  0  0  0  0  0
    0.6781   -0.5150    0.0000 C   0  0  0  0  0  0  0  0  0  0  0  0
    1.3202    0.0030    0.0000 C   0  0  0  0  0  0  0  0  0  0  0  0
    1.2787    0.8269    0.0000 C   0  0  0  0  0  0  0  0  0  0  0  0
    0.5444    1.2029    0.0000 N   0  0  0  0  0  0  0  0  0  0  0  0
   -0.1484    0.7549    0.0000 O   0  0  0  0  0  0  0  0  0  0  0  0
    0.5028    2.0269    0.0000 C   0  0  0  0  0  0  0  0  0  0  0  0
   -0.2315    2.4029    0.0000 N   0  0  0  0  0  0  0  0  0  0  0  0
    1.1956    2.4748    0.0000 O   0  0  0  0  0  0  0  0  0  0  0  0
    2.0113   -0.4477    0.0000 C   0  0  0  0  0  0  0  0  0  0  0  0
    2.8086   -0.2358    0.0000 C   0  0  0  0  0  0  0  0  0  0  0  0
    3.0237    0.5607    0.0000 C   0  0  0  0  0  0  0  0  0  0  0  0
    3.3908   -0.8203    0.0000 C   0  0  0  0  0  0  0  0  0  0  0  0
    3.9753   -0.2381    0.0000 C   0  0  0  0  0  0  0  0  0  0  0  0
    4.1872   -1.0354    0.0000 C   0  0  0  0  0  0  0  0  0  0  0  0
    3.1757   -1.6168    0.0000 C   0  0  0  0  0  0  0  0  0  0  0  0
    3.9974   -1.6903    0.0000 C   0  0  0  0  0  0  0  0  0  0  0  0
    3.2459   -2.4388    0.0000 O   0  0  0  0  0  0  0  0  0  0  0  0
    2.3784   -1.8287    0.0000 C   0  0  0  0  0  0  0  0  0  0  0  0
    2.1633   -2.6252    0.0000 O   0  0  0  0  0  0  0  0  0  0  0  0
    1.7962   -1.2442    0.0000 C   0  0  0  0  0  0  0  0  0  0  0  0
    0.9722   -1.2858    0.0000 C   0  0  0  0  0  0  0  0  0  0  0  0
  1  2  1  0
  2  3  2  0
  2 22  1  0
  3  4  1  0
  3 10  1  0
  4  5  1  0
  5  6  1  0
  5  7  1  0
  7  8  1  0
  7  9  2  0
 10 11  2  0
 10 21  1  0
 11 12  1  0
 11 13  1  0
 13 14  1  0
 13 15  1  0
 14 15  1  0
 16 13  1  0
 16 17  1  6
 16 18  1  0
 16 19  1  0
 19 20  2  0
 19 21  1  0
 21 22  2  0
M  END
>  <DRUGBANK_ID>  (1) 
DB18215

>  <COMMON_NAME>  (1) 
LP-184

>  <CAS_NUMBER>  (1) 
924835-67-6

>  <UNII>  (1) 
L683VC69K8

>  <SYNONYMS>  (1) 
(R)-1-HYDROXY-1-((6'-HYDROXY-2',4',6'-TRIMETHYL-7'-OXO-6',7'-DIHYDROSPIRO(CYCLOPROPANE-1,5'-INDEN)-3'-YL)METHYL)UREA; Hydroxyurea methylacylfulvene; N-(((6'R)-6',7'-DIHYDRO-6'-HYDROXY-2',4',6'-TRIMETHYL-7'-OXOSPIRO(CYCLOPROPANE-1,5'-(5H)INDEN)-3'-YL)METHYL)-N-HYDROXYUREA; N-HYDROXY-N-(METHYLACYLFULVENE)UREA; UREA, N-(((6'R)-6',7'-DIHYDRO-6'-HYDROXY-2',4',6'-TRIMETHYL-7'-OXOSPIRO(CYCLOPROPANE-1,5'-(5H)INDEN)-3'-YL)METHYL)-N-HYDROXY-

$$$$
