8MR
     RDKit          2D

 19 19  0  0  0  0  0  0  0  0999 V2000
   -1.3926   -2.3639    0.0000 C   0  0  0  0  0  0  0  0  0  0  0  0
   -0.6781   -1.9514    0.0000 O   0  0  0  0  0  0  0  0  0  0  0  0
   -0.6781   -1.1264    0.0000 C   0  0  0  0  0  0  0  0  0  0  0  0
    0.0363   -0.7139    0.0000 C   0  0  0  0  0  0  0  0  0  0  0  0
    0.0363    0.1111    0.0000 C   0  0  0  0  0  0  0  0  0  0  0  0
   -1.3926   -0.7139    0.0000 C   0  0  0  0  0  0  0  0  0  0  0  0
   -1.3926    0.1111    0.0000 C   0  0  0  0  0  0  0  0  0  0  0  0
   -0.6781    0.5236    0.0000 C   0  0  0  0  0  0  0  0  0  0  0  0
   -0.6781    1.3486    0.0000 S   0  0  0  0  0  0  0  0  0  0  0  0
    0.1469    1.3486    0.0000 O   0  0  0  0  0  0  0  0  0  0  0  0
   -1.5031    1.3486    0.0000 O   0  0  0  0  0  0  0  0  0  0  0  0
   -0.6781    2.1736    0.0000 C   0  0  0  0  0  0  0  0  0  0  0  0
    0.0363    2.5861    0.0000 C   0  0  0  0  0  0  0  0  0  0  0  0
    0.7508    2.1736    0.0000 F   0  0  0  0  0  0  0  0  0  0  0  0
    0.0363    3.4111    0.0000 F   0  0  0  0  0  0  0  0  0  0  0  0
   -1.3926    2.5861    0.0000 C   0  0  0  0  0  0  0  0  0  0  0  0
   -1.3926    3.4111    0.0000 C   0  0  0  0  0  0  0  0  0  0  0  0
   -2.1071    3.8236    0.0000 O   0  0  0  0  0  0  0  0  0  0  0  0
   -0.6781    3.8236    0.0000 O   0  0  0  0  0  0  0  0  0  0  0  0
  1  2  1  0
  2  3  1  0
  3  6  2  0
  3  4  1  0
  4  5  2  0
  5  8  1  0
  6  7  1  0
  7  8  2  0
  8  9  1  0
  9 10  2  0
  9 11  2  0
 12  9  1  0
 12 16  1  6
 12 13  1  0
 13 15  1  0
 13 14  1  0
 16 17  1  0
 17 18  2  0
 17 19  1  0
M  END
>  <DRUGBANK_ID>  (1) 
DB07285

>  <COMMON_NAME>  (1) 
(3R)-4,4-DIFLUORO-3-[(4-METHOXYPHENYL)SULFONYL]BUTANOIC ACID

$$$$
