
     RDKit          2D

 25 26  0  0  0  0  0  0  0  0999 V2000
   -0.8250    8.8539    0.0000 C   0  0  0  0  0  0  0  0  0  0  0  0
    1.1270    6.9020    0.0000 C   0  0  0  0  0  0  0  0  0  0  0  0
   -0.9355    7.6164    0.0000 C   0  0  0  0  0  0  0  0  0  0  0  0
   -0.1105    8.4414    0.0000 C   0  0  0  0  0  0  0  0  0  0  0  0
    0.7145    7.6164    0.0000 C   0  0  0  0  0  0  0  0  0  0  0  0
    1.3184    1.8414    0.0000 C   0  0  0  0  0  0  0  0  0  0  0  0
    3.7934    4.3164    0.0000 C   0  0  0  0  0  0  0  0  0  0  0  0
    2.0329    2.2539    0.0000 C   0  0  0  0  0  0  0  0  0  0  0  0
    0.6039    2.2539    0.0000 C   0  0  0  0  0  0  0  0  0  0  0  0
    3.3809    5.0309    0.0000 C   0  0  0  0  0  0  0  0  0  0  0  0
    3.3809    3.6020    0.0000 C   0  0  0  0  0  0  0  0  0  0  0  0
    2.0329    3.0789    0.0000 C   0  0  0  0  0  0  0  0  0  0  0  0
    0.6039    3.0789    0.0000 C   0  0  0  0  0  0  0  0  0  0  0  0
    2.5559    5.0309    0.0000 C   0  0  0  0  0  0  0  0  0  0  0  0
    2.5559    3.6020    0.0000 C   0  0  0  0  0  0  0  0  0  0  0  0
   -0.1105    6.7914    0.0000 C   0  0  0  0  0  0  0  0  0  0  0  0
    0.6039    6.3789    0.0000 C   0  0  0  0  0  0  0  0  0  0  0  0
    1.3184    3.4914    0.0000 C   0  0  0  0  0  0  0  0  0  0  0  0
    2.1434    4.3164    0.0000 C   0  0  0  0  0  0  0  0  0  0  0  0
    1.3184    5.1414    0.0000 C   0  0  0  0  0  0  0  0  0  0  0  0
    1.3184    4.3164    0.0000 C   0  0  0  0  0  0  0  0  0  0  0  0
   -0.1105    7.6164    0.0000 N   0  0  0  0  0  0  0  0  0  0  0  0
    2.0329    5.5539    0.0000 O   0  0  0  0  0  0  0  0  0  0  0  0
    0.4934    4.3164    0.0000 O   0  0  0  0  0  0  0  0  0  0  0  0
    0.6039    5.5539    0.0000 O   0  0  0  0  0  0  0  0  0  0  0  0
  4  1  1  0
  5  2  1  0
  8  6  2  0
  9  6  1  0
 10  7  2  0
 11  7  1  0
 12  8  1  0
 13  9  2  0
 14 10  1  0
 15 11  2  0
 17 16  1  0
 18 12  2  0
 18 13  1  0
 19 14  2  0
 19 15  1  0
 21 18  1  0
 21 19  1  0
 21 20  1  0
 22  3  1  0
 22  4  1  0
 22  5  1  0
 22 16  1  0
 23 20  2  0
 24 21  1  0
 25 17  1  0
 25 20  1  0
M  CHG  1  22   1
M  END
>  <DRUGBANK_ID>  (1) 
DB13181

>  <COMMON_NAME>  (1) 
Methylbenactyzium

>  <CAS_NUMBER>  (1) 
13473-61-5

>  <UNII>  (1) 
38C3R34UK2

$$$$
