252
     RDKit          2D

 18 17  0  0  0  0  0  0  0  0999 V2000
   -2.6565    1.0060    0.0000 C   0  0  0  0  0  0  0  0  0  0  0  0
   -2.0610    0.4350    0.0000 C   0  0  0  0  0  0  0  0  0  0  0  0
   -1.2688    0.6652    0.0000 C   0  0  0  0  0  0  0  0  0  0  0  0
   -0.6733    0.0942    0.0000 C   0  0  0  0  0  0  0  0  0  0  0  0
    0.1189    0.3244    0.0000 C   0  0  0  0  0  0  0  0  0  0  0  0
    0.7144   -0.2466    0.0000 C   0  0  0  0  0  0  0  0  0  0  0  0
    1.5066   -0.0164    0.0000 C   0  0  0  0  0  0  0  0  0  0  0  0
    2.1021   -0.5874    0.0000 C   0  0  0  0  0  0  0  0  0  0  0  0
    2.8943   -0.3572    0.0000 C   0  0  0  0  0  0  0  0  0  0  0  0
    3.1245   -1.1495    0.0000 P   0  0  0  0  0  0  0  0  0  0  0  0
    3.9168   -0.9193    0.0000 O   0  0  0  0  0  0  0  0  0  0  0  0
    2.3323   -1.3797    0.0000 O   0  0  0  0  0  0  0  0  0  0  0  0
    3.3547   -1.9417    0.0000 O   0  0  0  0  0  0  0  0  0  0  0  0
    2.6641    0.4350    0.0000 P   0  0  0  0  0  0  0  0  0  0  0  0
    2.4339    1.2272    0.0000 O   0  0  0  0  0  0  0  0  0  0  0  0
    3.4564    0.6652    0.0000 O   0  0  0  0  0  0  0  0  0  0  0  0
    1.8719    0.2048    0.0000 O   0  0  0  0  0  0  0  0  0  0  0  0
    3.6866   -0.1270    0.0000 O   0  0  0  0  0  0  0  0  0  0  0  0
  1  2  1  0
  2  3  1  0
  3  4  1  0
  4  5  1  0
  5  6  1  0
  6  7  1  0
  7  8  1  0
  8  9  1  0
  9 10  1  0
  9 18  1  0
  9 14  1  0
 10 13  2  0
 10 11  1  0
 10 12  1  0
 14 16  2  0
 14 17  1  0
 14 15  1  0
M  END
>  <DRUGBANK_ID>  (1) 
DB06931

>  <COMMON_NAME>  (1) 
(1-HYDROXYNONANE-1,1-DIYL)BIS(PHOSPHONIC ACID)

$$$$
