
     RDKit          2D

 20 20  0  0  0  0  0  0  0  0999 V2000
   -0.2567   -1.0903    0.0000 C   0  0  0  0  0  0  0  0  0  0  0  0
   -0.4867    0.3616    0.0000 C   0  0  0  0  0  0  0  0  0  0  0  0
   -2.0516   -1.0903    0.0000 C   0  0  0  0  0  0  0  0  0  0  0  0
    0.4143    0.4169    0.0000 C   0  0  0  0  0  0  0  0  0  0  0  0
   -1.5667   -0.4229    0.0000 C   0  0  0  0  0  0  0  0  0  0  0  0
    0.5637   -1.0041    0.0000 C   0  0  0  0  0  0  0  0  0  0  0  0
   -1.1542    0.8465    0.0000 C   0  0  0  0  0  0  0  0  0  0  0  0
    0.8992   -0.2504    0.0000 C   0  0  0  0  0  0  0  0  0  0  0  0
   -1.8216    0.3616    0.0000 C   0  0  0  0  0  0  0  0  0  0  0  0
   -0.7417   -0.4229    0.0000 N   0  0  0  0  0  0  0  0  0  0  0  0
   -2.8721   -1.0041    0.0000 O   0  0  0  0  0  0  0  0  0  0  0  0
    0.7498    1.1706    0.0000 O   0  0  0  0  0  0  0  0  0  0  0  0
    1.0486   -1.6715    0.0000 O   0  0  0  0  0  0  0  0  0  0  0  0
   -1.1542    1.6715    0.0000 O   0  0  0  0  0  0  0  0  0  0  0  0
   -2.6062    0.6166    0.0000 O   0  0  0  0  0  0  0  0  0  0  0  0
    2.6895   -1.4991    0.0000 O   0  0  0  0  0  0  0  0  0  0  0  0
    1.5372   -1.3166    0.0000 O   0  0  0  0  0  0  0  0  0  0  0  0
    2.8721   -0.3467    0.0000 O   0  0  0  0  0  0  0  0  0  0  0  0
    1.7197   -0.1642    0.0000 O   0  0  0  0  0  0  0  0  0  0  0  0
    2.2046   -0.8316    0.0000 S   0  0  0  0  0  0  0  0  0  0  0  0
  5  3  1  6
  5 10  1  0
  6  1  1  0
  6  8  1  0
  6 13  1  6
  7  2  1  0
  7 14  1  6
  8  4  1  0
  9  5  1  0
  9  7  1  0
  9 15  1  1
 10  1  1  0
 10  2  1  0
 11  3  1  0
 12  4  1  0
 19  8  1  0
 20 16  1  0
 20 17  1  0
 20 18  1  0
 20 19  1  0
M  CHG  3  16  -1  17  -1  18  -1
M  END
>  <DRUGBANK_ID>  (1) 
DB02492

>  <SECONDARY_ACCESSION_NUMBERS>  (1) 
EXPT01590

>  <COMMON_NAME>  (1) 
Ghavamiol

$$$$
