5ID
     RDKit          2D

 20 22  0  0  0  0  0  0  0  0999 V2000
   -2.4978   -2.3653    0.0000 O   0  0  0  0  0  0  0  0  0  0  0  0
   -2.5840   -1.5448    0.0000 C   0  0  0  0  0  0  0  0  0  0  0  0
   -1.9166   -1.0599    0.0000 C   0  0  0  0  0  0  0  0  0  0  0  0
   -1.9166   -0.2349    0.0000 O   0  0  0  0  0  0  0  0  0  0  0  0
   -1.1320    0.0201    0.0000 C   0  0  0  0  0  0  0  0  0  0  0  0
   -0.8770    0.8047    0.0000 N   0  0  0  0  0  0  0  0  0  0  0  0
   -1.3619    1.4721    0.0000 C   0  0  0  0  0  0  0  0  0  0  0  0
   -0.8770    2.1396    0.0000 C   0  0  0  0  0  0  0  0  0  0  0  0
   -0.0924    1.8846    0.0000 C   0  0  0  0  0  0  0  0  0  0  0  0
    0.6221    2.2971    0.0000 C   0  0  0  0  0  0  0  0  0  0  0  0
    1.3365    1.8846    0.0000 N   0  0  0  0  0  0  0  0  0  0  0  0
    1.3365    1.0596    0.0000 C   0  0  0  0  0  0  0  0  0  0  0  0
    0.6221    0.6471    0.0000 N   0  0  0  0  0  0  0  0  0  0  0  0
   -0.0924    1.0596    0.0000 C   0  0  0  0  0  0  0  0  0  0  0  0
    0.6221    3.1221    0.0000 N   0  0  0  0  0  0  0  0  0  0  0  0
   -0.6470   -0.6474    0.0000 C   0  0  0  0  0  0  0  0  0  0  0  0
    0.1780   -0.6474    0.0000 O   0  0  0  0  0  0  0  0  0  0  0  0
   -1.1320   -1.3148    0.0000 C   0  0  0  0  0  0  0  0  0  0  0  0
   -0.8770   -2.0994    0.0000 O   0  0  0  0  0  0  0  0  0  0  0  0
   -1.1320    2.9242    0.0000 I   0  0  0  0  0  0  0  0  0  0  0  0
  1  2  1  0
  3  2  1  1
  3  4  1  0
  3 18  1  0
  4  5  1  0
  5  6  1  1
  5 16  1  0
  6  7  1  0
  6 14  1  0
  7  8  2  0
  8  9  1  0
  8 20  1  0
  9 10  1  0
  9 14  2  0
 10 11  2  0
 10 15  1  0
 11 12  1  0
 12 13  2  0
 13 14  1  0
 16 17  1  6
 16 18  1  0
 18 19  1  6
M  END
>  <DRUGBANK_ID>  (1) 
DB04604

>  <COMMON_NAME>  (1) 
5-iodotubercidin

>  <CAS_NUMBER>  (1) 
24386-93-4

$$$$
