ZYX
     RDKit          2D

 13 13  0  0  0  0  0  0  0  0999 V2000
    1.9519   -0.2718    0.0000 C   0  0  0  0  0  0  0  0  0  0  0  0
    1.2375    0.1407    0.0000 C   0  0  0  0  0  0  0  0  0  0  0  0
    0.5230   -0.2718    0.0000 C   0  0  0  0  0  0  0  0  0  0  0  0
    0.5230   -1.0968    0.0000 C   0  0  0  0  0  0  0  0  0  0  0  0
    1.2375   -1.5093    0.0000 C   0  0  0  0  0  0  0  0  0  0  0  0
    1.9519   -1.0968    0.0000 C   0  0  0  0  0  0  0  0  0  0  0  0
    2.6664    0.1407    0.0000 S   0  0  0  0  0  0  0  0  0  0  0  0
    3.3809    0.5532    0.0000 O   0  0  0  0  0  0  0  0  0  0  0  0
    2.2539    0.8552    0.0000 O   0  0  0  0  0  0  0  0  0  0  0  0
    3.0789   -0.5737    0.0000 N   0  0  0  0  0  0  0  0  0  0  0  0
   -0.1915   -1.5093    0.0000 C   0  0  0  0  0  0  0  0  0  0  0  0
   -0.9060   -1.0968    0.0000 C   0  0  0  0  0  0  0  0  0  0  0  0
   -1.6204   -1.5093    0.0000 N   0  0  0  0  0  0  0  0  0  0  0  0
  1  6  2  0
  1  2  1  0
  1  7  1  0
  2  3  2  0
  3  4  1  0
  4 11  1  0
  4  5  2  0
  5  6  1  0
  7 10  1  0
  7  8  2  0
  7  9  2  0
 11 12  1  0
 12 13  1  0
M  END
>  <DRUGBANK_ID>  (1) 
DB08782

>  <COMMON_NAME>  (1) 
4-(2-AMINOETHYL)BENZENESULFONAMIDE

>  <UNII>  (1) 
WIA59Y34CJ

$$$$
