OBP
     RDKit          2D

 16 17  0  0  0  0  0  0  0  0999 V2000
    1.1816    0.2110    0.0000 C   0  0  0  0  0  0  0  0  0  0  0  0
    0.4671   -0.2015    0.0000 C   0  0  0  0  0  0  0  0  0  0  0  0
    0.4671   -1.0265    0.0000 C   0  0  0  0  0  0  0  0  0  0  0  0
    1.1816   -1.4390    0.0000 C   0  0  0  0  0  0  0  0  0  0  0  0
    1.8961   -1.0265    0.0000 C   0  0  0  0  0  0  0  0  0  0  0  0
    1.8961   -0.2015    0.0000 C   0  0  0  0  0  0  0  0  0  0  0  0
   -0.2473    0.2110    0.0000 C   0  0  0  0  0  0  0  0  0  0  0  0
   -0.9618   -0.2015    0.0000 C   0  0  0  0  0  0  0  0  0  0  0  0
   -1.6763    0.2110    0.0000 C   0  0  0  0  0  0  0  0  0  0  0  0
   -1.6763    1.0360    0.0000 C   0  0  0  0  0  0  0  0  0  0  0  0
   -0.9618    1.4485    0.0000 C   0  0  0  0  0  0  0  0  0  0  0  0
   -0.2473    1.0360    0.0000 C   0  0  0  0  0  0  0  0  0  0  0  0
    0.4671    1.4485    0.0000 O   0  0  0  0  0  0  0  0  0  0  0  0
   -0.2473   -1.4390    0.0000 S   0  0  0  0  0  0  0  0  0  0  0  0
   -0.9618   -1.0265    0.0000 O   0  0  0  0  0  0  0  0  0  0  0  0
   -0.2473   -2.2640    0.0000 O   0  0  0  0  0  0  0  0  0  0  0  0
  1  2  2  0
  1  6  1  0
  2  3  1  0
  2  7  1  0
  3  4  2  0
  3 14  1  0
  4  5  1  0
  5  6  2  0
  7  8  2  0
  7 12  1  0
  8  9  1  0
  9 10  2  0
 10 11  1  0
 11 12  2  0
 12 13  1  0
 14 15  2  0
 14 16  1  0
M  END
>  <DRUGBANK_ID>  (1) 
DB08319

>  <COMMON_NAME>  (1) 
2'-HYDROXY-1,1'-BIPHENYL-2-SULFINIC ACID

$$$$
