
     RDKit          2D

 13 13  0  0  0  0  0  0  0  0999 V2000
   -0.7863    0.4099    0.0000 Se  0  0  0  0  0  2  0  0  0  0  0  0
   -0.3738   -0.8595    0.0000 N   0  0  0  0  0  0  0  0  0  0  0  0
   -1.8258   -0.6296    0.0000 N   0  0  0  0  0  0  0  0  0  0  0  0
    1.0782   -0.6296    0.0000 C   0  0  0  0  0  0  0  0  0  0  0  0
    1.2497   -1.4365    0.0000 C   0  0  0  0  0  0  0  0  0  0  0  0
    0.2936   -0.3747    0.0000 C   0  0  0  0  0  0  0  0  0  0  0  0
    0.0386    0.4099    0.0000 C   0  0  0  0  0  0  0  0  0  0  0  0
    0.5236    1.0773    0.0000 C   0  0  0  0  0  0  0  0  0  0  0  0
    2.0344   -1.6914    0.0000 C   0  0  0  0  0  0  0  0  0  0  0  0
    0.1881    1.8310    0.0000 C   0  0  0  0  0  0  0  0  0  0  0  0
    2.2059   -2.4985    0.0000 C   0  0  0  0  0  0  0  0  0  0  0  0
   -1.0412   -0.3747    0.0000 C   0  0  0  0  0  0  0  0  0  0  0  0
    0.6730    2.4985    0.0000 C   0  0  0  0  0  0  0  0  0  0  0  0
  1  7  1  0
  1 12  1  0
  2  6  1  0
  2 12  2  0
  3 12  1  0
  4  5  1  0
  4  6  1  0
  5  9  1  0
  6  7  2  0
  7  8  1  0
  8 10  1  0
  9 11  1  0
 10 13  1  0
M  END
>  <DRUGBANK_ID>  (1) 
DB01740

>  <SECONDARY_ACCESSION_NUMBERS>  (1) 
EXPT02885

>  <COMMON_NAME>  (1) 
4-butyl-5-propyl-1,3-selenazol-2-amine

>  <SYNONYMS>  (1) 
2-amino-4-butyl-5-propylselenazole

$$$$
