AT2
     RDKit          2D

 19 20  0  0  0  0  0  0  0  0999 V2000
    2.5653    1.4639    0.0000 C   0  0  0  0  0  0  0  0  0  0  0  0
    2.5653    0.6389    0.0000 C   0  0  0  0  0  0  0  0  0  0  0  0
    3.2798    0.2264    0.0000 C   0  0  0  0  0  0  0  0  0  0  0  0
    3.2798   -0.5986    0.0000 C   0  0  0  0  0  0  0  0  0  0  0  0
    1.8509   -0.5986    0.0000 C   0  0  0  0  0  0  0  0  0  0  0  0
    1.8509    0.2264    0.0000 C   0  0  0  0  0  0  0  0  0  0  0  0
    0.4219   -0.5986    0.0000 C   0  0  0  0  0  0  0  0  0  0  0  0
   -0.2925   -1.0111    0.0000 C   0  0  0  0  0  0  0  0  0  0  0  0
   -1.0070   -0.5986    0.0000 C   0  0  0  0  0  0  0  0  0  0  0  0
    2.5653   -1.0111    0.0000 N   0  0  0  0  0  0  0  0  0  0  0  0
    1.1364   -1.0111    0.0000 N   0  0  0  0  0  0  0  0  0  0  0  0
   -1.0070    0.2264    0.0000 N   0  0  0  0  0  0  0  0  0  0  0  0
   -0.2925    0.6389    0.0000 C   0  0  0  0  0  0  0  0  0  0  0  0
    0.4219    0.2264    0.0000 C   0  0  0  0  0  0  0  0  0  0  0  0
   -1.7215    0.6389    0.0000 C   0  0  0  0  0  0  0  0  0  0  0  0
   -1.7215    1.4639    0.0000 O   0  0  0  0  0  0  0  0  0  0  0  0
   -2.4360    0.2264    0.0000 O   0  0  0  0  0  0  0  0  0  0  0  0
   -3.1504    0.6389    0.0000 C   0  0  0  0  0  0  0  0  0  0  0  0
   -3.8649    0.2264    0.0000 C   0  0  0  0  0  0  0  0  0  0  0  0
  1  2  1  0
  2  3  2  0
  2  6  1  0
  3  4  1  0
  4 10  2  0
  5  6  2  0
  5 10  1  0
  5 11  1  0
  7  8  1  0
  7 11  1  0
  7 14  1  0
  8  9  1  0
  9 12  1  0
 12 13  1  0
 12 15  1  0
 13 14  1  0
 15 16  2  0
 15 17  1  0
 17 18  1  0
 18 19  1  0
M  END
>  <DRUGBANK_ID>  (1) 
DB07388

>  <COMMON_NAME>  (1) 
ETHYL 4-[(4-METHYLPYRIDIN-2-YL)AMINO]PIPERIDINE-1-CARBOXYLATE

$$$$
