
     RDKit          2D

 36 39  0  0  1  0  0  0  0  0999 V2000
   -0.7145    1.2375    0.0000 C   0  0  0  0  0  0  0  0  0  0  0  0
   -0.7145    2.0625    0.0000 C   0  0  0  0  0  0  0  0  0  0  0  0
    2.8579    6.6000    0.0000 C   0  0  0  0  0  0  0  0  0  0  0  0
    3.5724    6.1875    0.0000 C   0  0  0  0  0  0  0  0  0  0  0  0
    5.7158    2.4750    0.0000 C   0  0  0  0  0  0  0  0  0  0  0  0
    5.0013    2.8875    0.0000 C   0  0  0  0  0  0  0  0  0  0  0  0
   -0.0000    0.8250    0.0000 C   0  0  0  0  0  0  0  0  0  0  0  0
    0.0000    2.4750    0.0000 C   0  0  0  0  0  0  0  0  0  0  0  0
    6.4302    2.8875    0.0000 C   0  0  0  0  0  0  0  0  0  0  0  0
    2.1434    6.1875    0.0000 C   0  0  0  0  0  0  0  0  0  0  0  0
    1.4289    0.8250    0.0000 C   0  0  0  0  0  0  0  0  0  0  0  0
    2.1434    1.2375    0.0000 C   0  0  0  0  0  0  0  0  0  0  0  0
    3.5724    5.3625    0.0000 C   0  0  0  0  0  0  0  0  0  0  0  0
    5.7158    4.1250    0.0000 C   0  0  0  0  0  0  0  0  0  0  0  0
    4.2868    4.1250    0.0000 C   0  0  0  0  0  0  0  0  0  0  0  0
    1.4289    2.4750    0.0000 C   0  0  0  0  0  0  0  0  0  0  0  0
    5.0013    3.7125    0.0000 C   0  0  0  0  0  0  0  0  0  0  0  0
    0.7145    1.2375    0.0000 C   0  0  0  0  0  0  0  0  0  0  0  0
    0.7145    2.0625    0.0000 C   0  0  0  0  0  0  0  0  0  0  0  0
    6.4302    3.7125    0.0000 C   0  0  0  0  0  0  0  0  0  0  0  0
    2.1434    2.0625    0.0000 C   0  0  0  0  0  0  0  0  0  0  0  0
    3.5724    3.7125    0.0000 C   0  0  0  0  0  0  0  0  0  0  0  0
    2.1434    5.3625    0.0000 C   0  0  0  0  0  0  0  0  0  0  0  0
    7.1447    4.1250    0.0000 C   0  0  0  0  0  0  0  0  0  0  0  0
    2.8579    4.1250    0.0000 C   0  0  0  0  0  0  0  0  0  0  0  0
    1.4289    4.9500    0.0000 C   0  0  0  0  0  0  0  0  0  0  0  0
    7.8592    3.7125    0.0000 N   0  0  0  0  0  0  0  0  0  0  0  0
    7.1447    4.9500    0.0000 N   0  0  0  0  0  0  0  0  0  0  0  0
    3.5724    2.8875    0.0000 N   0  0  0  0  0  0  0  0  0  0  0  0
    2.8579    4.9500    0.0000 N   0  0  0  0  0  0  0  0  0  0  0  0
    2.1434    3.7125    0.0000 O   0  0  0  0  0  0  0  0  0  0  0  0
    1.4289    4.1250    0.0000 O   0  0  0  0  0  0  0  0  0  0  0  0
    0.7145    5.3625    0.0000 O   0  0  0  0  0  0  0  0  0  0  0  0
    3.2704    1.7605    0.0000 O   0  0  0  0  0  0  0  0  0  0  0  0
    2.4454    3.1895    0.0000 O   0  0  0  0  0  0  0  0  0  0  0  0
    2.8579    2.4750    0.0000 S   0  0  0  0  0  0  0  0  0  0  0  0
  2  1  2  0
  4  3  1  0
  6  5  2  0
  7  1  1  0
  8  2  1  0
  9  5  1  0
 10  3  1  0
 12 11  2  0
 13  4  1  0
 17  6  1  0
 17 14  2  0
 17 15  1  0
 18  7  2  0
 18 11  1  0
 19  8  2  0
 19 16  1  0
 19 18  1  0
 20  9  2  0
 20 14  1  0
 21 12  1  0
 21 16  2  0
 22 15  1  6
 22 29  1  0
 23 10  1  0
 23 26  1  1
 24 20  1  0
 25 22  1  0
 27 24  2  0
 28 24  1  0
 30 13  1  0
 30 23  1  0
 30 25  1  0
 31 25  2  0
 32 26  2  0
 33 26  1  0
 36 21  1  0
 36 29  1  0
 36 34  2  0
 36 35  2  0
M  END
>  <DRUGBANK_ID>  (1) 
DB04238

>  <SECONDARY_ACCESSION_NUMBERS>  (1) 
EXPT01409

>  <COMMON_NAME>  (1) 
N-Alpha-(2-Naphthylsulfonyl)-N-(3-Amidino-L-Phenylalaninyl)-D-Pipecolinic Acid

$$$$
