
     RDKit          2D

 11 12  0  0  1  0  0  0  0  0999 V2000
    2.4183    1.6060    0.0000 C   0  0  0  0  0  0  0  0  0  0  0  0
    0.1363    0.7073    0.0000 C   0  0  0  0  0  0  0  0  0  0  0  0
    0.1363   -0.3533    0.0000 C   0  0  0  0  0  0  0  0  0  0  0  0
    2.4183    0.1770    0.0000 C   0  0  0  0  0  0  0  0  0  0  0  0
    1.3594    0.1770    0.0000 C   0  0  0  0  0  0  0  0  0  0  0  0
    2.0058    0.8915    0.0000 C   0  0  0  0  0  0  0  0  0  0  0  0
    1.1808    0.8915    0.0000 C   0  0  0  0  0  0  0  0  0  0  0  0
    1.1808   -0.5375    0.0000 C   0  0  0  0  0  0  0  0  0  0  0  0
    2.0058   -0.5375    0.0000 C   0  0  0  0  0  0  0  0  0  0  0  0
    0.7683    0.1770    0.0000 C   0  0  0  0  0  0  0  0  0  0  0  0
    2.4183   -1.2519    0.0000 O   0  0  0  0  0  0  0  0  0  0  0  0
  6  1  1  0
  6  4  2  0
  7  5  1  1
  7  6  1  0
  8  5  1  1
  9  4  1  0
  9  8  1  0
 10  2  1  0
 10  3  1  0
 10  7  1  0
 10  8  1  0
 11  9  2  0
M  END
>  <DRUGBANK_ID>  (1) 
DB13391

>  <COMMON_NAME>  (1) 
Levoverbenone

>  <CAS_NUMBER>  (1) 
1196-01-6

>  <UNII>  (1) 
2XP0J7754U

$$$$
