
     RDKit          2D

 25 24  0  0  1  0  0  0  0  0999 V2000
    6.7618    3.0789    0.0000 C   0  0  0  0  0  0  0  0  0  0  0  0
    6.7618    3.9039    0.0000 C   0  0  0  0  0  0  0  0  0  0  0  0
    6.0474    4.3164    0.0000 C   0  0  0  0  0  0  0  0  0  0  0  0
    6.0474    5.1414    0.0000 C   0  0  0  0  0  0  0  0  0  0  0  0
    5.3329    5.5539    0.0000 C   0  0  0  0  0  0  0  0  0  0  0  0
    5.3329    6.3789    0.0000 C   0  0  0  0  0  0  0  0  0  0  0  0
    4.6184    6.7914    0.0000 C   0  0  0  0  0  0  0  0  0  0  0  0
    3.9039    6.3789    0.0000 C   0  0  0  0  0  0  0  0  0  0  0  0
    3.9039    5.5539    0.0000 C   0  0  0  0  0  0  0  0  0  0  0  0
    3.1895    5.1414    0.0000 C   0  0  0  0  0  0  0  0  0  0  0  0
    3.1895    4.3164    0.0000 C   0  0  0  0  0  0  0  0  0  0  0  0
    2.4750    3.9039    0.0000 C   0  0  0  0  0  0  0  0  0  0  0  0
    2.4750    3.0789    0.0000 C   0  0  0  0  0  0  0  0  0  0  0  0
    1.7605    2.6664    0.0000 C   0  0  0  0  0  0  0  0  0  0  0  0
    1.7605    1.8414    0.0000 C   0  0  0  0  0  0  0  0  0  0  0  0
    2.4750    1.4289    0.0000 C   0  0  0  0  0  0  0  0  0  0  0  0
    3.1895    1.8414    0.0000 C   0  0  0  0  0  0  0  0  0  0  0  0
    3.9039    1.4289    0.0000 C   0  0  0  0  0  0  0  0  0  0  0  0
    4.6184    1.8414    0.0000 C   0  0  0  0  0  0  0  0  0  0  0  0
    5.3329    1.4289    0.0000 C   0  0  0  0  0  0  0  0  0  0  0  0
    6.0474    1.8414    0.0000 O   0  0  0  0  0  0  0  0  0  0  0  0
    5.3329    0.6039    0.0000 O   0  0  0  0  0  0  0  0  0  0  0  0
    2.4750    0.6039    0.0000 O   0  0  0  0  0  0  0  0  0  0  0  0
    4.6184    5.1414    0.0000 O   0  0  0  0  0  0  0  0  0  0  0  0
    5.3329    3.9039    0.0000 O   0  0  0  0  0  0  0  0  0  0  0  0
  1  2  1  0
  2  3  1  0
  3  4  1  0
  3 25  1  1
  4  5  2  0
  5  6  1  0
  6  7  2  0
  7  8  1  0
  8  9  1  0
  9 10  1  0
  9 24  1  1
 10 11  2  0
 11 12  1  0
 12 13  2  0
 13 14  1  0
 14 15  2  0
 15 16  1  0
 16 17  1  0
 16 23  1  6
 17 18  1  0
 18 19  1  0
 19 20  1  0
 20 21  2  0
 20 22  1  0
M  END
>  <DRUGBANK_ID>  (1) 
DB13105

>  <COMMON_NAME>  (1) 
Resolvin E1

>  <CAS_NUMBER>  (1) 
552830-51-0

>  <UNII>  (1) 
GND3JH08JA

>  <SYNONYMS>  (1) 
(5S,6Z,8E,10E,12R,14Z,16E,18R)-5,12,18-TRIHYDROXY-6,8,10,14,16-EICOSAPENTAENOIC ACID; 5S,12R,18R-TRIHYDROXY-6Z,8E,10E,14Z,16E-EICOSAPENTAENOIC ACID; 6,8,10,14,16-EICOSAPENTAENOIC ACID, 5,12,18-TRIHYDROXY-, (5S,6Z,8E,10E,12R,14Z,16E,18R)-; RVE1

$$$$
