
     RDKit          2D

 31 33  0  0  0  0  0  0  0  0999 V2000
   -1.8414    2.3793    0.0000 F   0  0  0  0  0  0  0  0  0  0  0  0
   -1.0164    3.8082    0.0000 F   0  0  0  0  0  0  0  0  0  0  0  0
    3.5724   -3.0938    0.0000 F   0  0  0  0  0  0  0  0  0  0  0  0
   -0.7145    0.2062    0.0000 O   0  0  0  0  0  0  0  0  0  0  0  0
    2.1434   -0.6187    0.0000 O   0  0  0  0  0  0  0  0  0  0  0  0
    0.7145    0.2062    0.0000 N   0  0  0  0  0  0  0  0  0  0  0  0
   -0.7145    1.8562    0.0000 N   0  0  0  0  0  0  0  0  0  0  0  0
    0.7145    1.8562    0.0000 N   0  0  0  0  0  0  0  0  0  0  0  0
    1.4289   -1.8562    0.0000 N   0  0  0  0  0  0  0  0  0  0  0  0
   -2.8579    3.0938    0.0000 N   0  0  0  0  0  0  0  0  0  0  0  0
    1.4289   -3.5063    0.0000 N   0  0  0  0  0  0  0  0  0  0  0  0
    0.7145   -0.6187    0.0000 C   0  0  0  0  0  0  0  0  0  0  0  0
    1.4289    0.6187    0.0000 C   0  0  0  0  0  0  0  0  0  0  0  0
   -0.7145    2.6813    0.0000 C   0  0  0  0  0  0  0  0  0  0  0  0
    0.0000    1.4437    0.0000 C   0  0  0  0  0  0  0  0  0  0  0  0
    0.0000    0.6187    0.0000 C   0  0  0  0  0  0  0  0  0  0  0  0
   -1.4289    3.0938    0.0000 C   0  0  0  0  0  0  0  0  0  0  0  0
    1.4289   -1.0312    0.0000 C   0  0  0  0  0  0  0  0  0  0  0  0
    1.4289    1.4437    0.0000 C   0  0  0  0  0  0  0  0  0  0  0  0
    2.1434    0.2062    0.0000 C   0  0  0  0  0  0  0  0  0  0  0  0
   -2.1434    3.5063    0.0000 C   0  0  0  0  0  0  0  0  0  0  0  0
    2.1434   -2.2687    0.0000 C   0  0  0  0  0  0  0  0  0  0  0  0
   -2.1434    4.3313    0.0000 C   0  0  0  0  0  0  0  0  0  0  0  0
    2.1434   -3.0938    0.0000 C   0  0  0  0  0  0  0  0  0  0  0  0
   -2.8579    4.7438    0.0000 C   0  0  0  0  0  0  0  0  0  0  0  0
    2.8579   -3.5063    0.0000 C   0  0  0  0  0  0  0  0  0  0  0  0
   -3.5724    3.5063    0.0000 C   0  0  0  0  0  0  0  0  0  0  0  0
   -3.5724    4.3313    0.0000 C   0  0  0  0  0  0  0  0  0  0  0  0
    2.8579   -4.3313    0.0000 C   0  0  0  0  0  0  0  0  0  0  0  0
    1.4289   -4.3313    0.0000 C   0  0  0  0  0  0  0  0  0  0  0  0
    2.1434   -4.7438    0.0000 C   0  0  0  0  0  0  0  0  0  0  0  0
  1 17  1  0
  2 17  1  0
  3 26  1  0
  4 16  2  0
  5 18  2  0
  6 12  1  0
  6 13  1  0
  6 16  1  0
  7 14  1  0
  7 15  1  0
  8 15  2  0
  8 19  1  0
  9 18  1  0
  9 22  1  0
 10 21  2  0
 10 27  1  0
 11 24  2  0
 11 30  1  0
 12 18  1  0
 13 19  2  0
 13 20  1  0
 14 17  1  0
 15 16  1  0
 17 21  1  0
 21 23  1  0
 22 24  1  0
 23 25  2  0
 24 26  1  0
 25 28  1  0
 26 29  2  0
 27 28  2  0
 29 31  1  0
 30 31  2  0
M  END
>  <DRUGBANK_ID>  (1) 
DB07548

>  <COMMON_NAME>  (1) 
2-(6-Chloro-3-{[2,2-difluoro-2-(2-pyridinyl)ethyl]amino}-2-oxo-1(2H)-pyrazinyl)-N-[(2-fluoro-6-pyridinyl)methyl]acetamide

>  <CAS_NUMBER>  (1) 
312904-60-2

$$$$
