
     RDKit          2D

 25 27  0  0  0  0  0  0  0  0999 V2000
    2.8882   -4.0491    0.0000 C   0  0  0  0  0  0  0  0  0  0  0  0
    2.8882   -4.8741    0.0000 C   0  0  0  0  0  0  0  0  0  0  0  0
    2.0632   -4.8741    0.0000 C   0  0  0  0  0  0  0  0  0  0  0  0
    3.7132   -4.8741    0.0000 C   0  0  0  0  0  0  0  0  0  0  0  0
    2.8882   -5.6991    0.0000 C   0  0  0  0  0  0  0  0  0  0  0  0
    3.5557   -6.1840    0.0000 C   0  0  0  0  0  0  0  0  0  0  0  0
    3.3007   -6.9686    0.0000 N   0  0  0  0  0  0  0  0  0  0  0  0
    2.4757   -6.9686    0.0000 C   0  0  0  0  0  0  0  0  0  0  0  0
    2.2208   -6.1840    0.0000 O   0  0  0  0  0  0  0  0  0  0  0  0
    1.9908   -7.6361    0.0000 C   0  0  0  0  0  0  0  0  0  0  0  0
    1.1703   -7.5498    0.0000 S   0  0  0  0  0  0  0  0  0  0  0  0
    0.6854   -8.2173    0.0000 C   0  0  0  0  0  0  0  0  0  0  0  0
    0.9403   -9.0019    0.0000 C   0  0  0  0  0  0  0  0  0  0  0  0
    0.2729   -9.4868    0.0000 N   0  0  0  0  0  0  0  0  0  0  0  0
   -0.3945   -9.0019    0.0000 C   0  0  0  0  0  0  0  0  0  0  0  0
   -0.1396   -8.2173    0.0000 S   0  0  0  0  0  0  0  0  0  0  0  0
   -1.1792   -9.2568    0.0000 N   0  0  0  0  0  0  0  0  0  0  0  0
   -1.3507  -10.0638    0.0000 C   0  0  0  0  0  0  0  0  0  0  0  0
   -0.7376  -10.6158    0.0000 O   0  0  0  0  0  0  0  0  0  0  0  0
   -2.1353  -10.3187    0.0000 C   0  0  0  0  0  0  0  0  0  0  0  0
   -2.3068  -11.1257    0.0000 C   0  0  0  0  0  0  0  0  0  0  0  0
   -3.0915  -11.3806    0.0000 C   0  0  0  0  0  0  0  0  0  0  0  0
   -3.7045  -10.8286    0.0000 N   0  0  0  0  0  0  0  0  0  0  0  0
   -3.5330  -10.0216    0.0000 C   0  0  0  0  0  0  0  0  0  0  0  0
   -2.7484   -9.7667    0.0000 C   0  0  0  0  0  0  0  0  0  0  0  0
  1  2  1  0
  2  3  1  0
  2  4  1  0
  2  5  1  0
  5  6  2  0
  5  9  1  0
  6  7  1  0
  7  8  2  0
  8  9  1  0
  8 10  1  0
 10 11  1  0
 11 12  1  0
 12 13  2  0
 12 16  1  0
 13 14  1  0
 14 15  2  0
 15 16  1  0
 15 17  1  0
 17 18  1  0
 18 19  2  0
 18 20  1  0
 20 21  1  0
 20 25  1  0
 21 22  1  0
 22 23  1  0
 23 24  1  0
 24 25  1  0
M  END
>  <DRUGBANK_ID>  (1) 
DB05969

>  <COMMON_NAME>  (1) 
SNS-032

>  <CAS_NUMBER>  (1) 
345627-80-7

>  <UNII>  (1) 
9979I93686

$$$$
