
     RDKit          2D

 31 34  0  0  0  0  0  0  0  0999 V2000
   -1.4395   -0.4020    0.0000 C   0  0  0  0  0  0  0  0  0  0  0  0
   -0.7177   -0.8249    0.0000 C   0  0  0  0  0  0  0  0  0  0  0  0
   -0.7164   -1.6499    0.0000 C   0  0  0  0  0  0  0  0  0  0  0  0
   -1.4407    0.4229    0.0000 C   0  0  0  0  0  0  0  0  0  0  0  0
    0.0025   -0.4230    0.0000 O   0  0  0  0  0  0  0  0  0  0  0  0
    0.0051   -2.0728    0.0000 C   0  0  0  0  0  0  0  0  0  0  0  0
   -2.1624    0.8459    0.0000 O   0  0  0  0  0  0  0  0  0  0  0  0
    0.7242   -0.8460    0.0000 C   0  0  0  0  0  0  0  0  0  0  0  0
   -0.7204    0.8248    0.0000 C   0  0  0  0  0  0  0  0  0  0  0  0
    0.7255   -1.6709    0.0000 C   0  0  0  0  0  0  0  0  0  0  0  0
   -0.7217    1.6498    0.0000 C   0  0  0  0  0  0  0  0  0  0  0  0
   -2.1597   -0.8038    0.0000 C   0  0  0  0  0  0  0  0  0  0  0  0
   -1.4369   -2.0518    0.0000 C   0  0  0  0  0  0  0  0  0  0  0  0
   -1.4432    2.0727    0.0000 C   0  0  0  0  0  0  0  0  0  0  0  0
   -2.1637    1.6708    0.0000 C   0  0  0  0  0  0  0  0  0  0  0  0
   -2.1585   -1.6288    0.0000 C   0  0  0  0  0  0  0  0  0  0  0  0
    1.4446   -0.4440    0.0000 C   0  0  0  0  0  0  0  0  0  0  0  0
    0.0064   -2.8976    0.0000 O   0  0  0  0  0  0  0  0  0  0  0  0
    0.0012    0.4019    0.0000 O   0  0  0  0  0  0  0  0  0  0  0  0
    2.1663   -0.8670    0.0000 C   0  0  0  0  0  0  0  0  0  0  0  0
    1.4432    0.3808    0.0000 C   0  0  0  0  0  0  0  0  0  0  0  0
   -0.0012    2.0517    0.0000 O   0  0  0  0  0  0  0  0  0  0  0  0
   -2.8815   -0.3809    0.0000 O   0  0  0  0  0  0  0  0  0  0  0  0
   -1.4334   -2.8731    0.0000 O   0  0  0  0  0  0  0  0  0  0  0  0
   -1.4446    2.8976    0.0000 O   0  0  0  0  0  0  0  0  0  0  0  0
    2.8854    0.3598    0.0000 C   0  0  0  0  0  0  0  0  0  0  0  0
    2.1637    0.7826    0.0000 C   0  0  0  0  0  0  0  0  0  0  0  0
    2.8830   -0.4630    0.0000 C   0  0  0  0  0  0  0  0  0  0  0  0
   -2.8854    2.0938    0.0000 C   0  0  0  0  0  0  0  0  0  0  0  0
    3.6022    0.7638    0.0000 O   0  0  0  0  0  0  0  0  0  0  0  0
   -3.6022    1.6899    0.0000 O   0  0  0  0  0  0  0  0  0  0  0  0
  2  1  2  0
  3  2  1  0
  3 13  2  0
  4  1  1  6
  5  2  1  0
  6  3  1  0
  6 10  1  0
  7  4  1  0
  8  5  1  0
  9  4  1  0
  9 19  1  1
 10  8  2  0
 11  9  1  0
 11 22  1  6
 12  1  1  0
 13 16  1  0
 14 11  1  0
 14 25  1  1
 15  7  1  0
 15 29  1  6
 15 14  1  0
 16 12  2  0
 17  8  1  0
 18  6  2  0
 20 17  2  0
 21 17  1  0
 23 12  1  0
 24 13  1  0
 26 27  1  0
 27 21  2  0
 28 20  1  0
 28 26  2  0
 30 26  1  0
 31 29  1  0
M  END
>  <DRUGBANK_ID>  (1) 
DB16836

>  <COMMON_NAME>  (1) 
Vitexin

>  <CAS_NUMBER>  (1) 
3681-93-4

>  <UNII>  (1) 
9VP70K75OK

>  <SYNONYMS>  (1) 
Apigenin 8-C-glucoside

$$$$
