MRK
     RDKit          2D

 23 25  0  0  0  0  0  0  0  0999 V2000
    1.7479   -3.0195    0.0000 S   0  0  0  0  0  0  0  0  0  0  0  0
    1.4930   -3.8041    0.0000 C   0  0  0  0  0  0  0  0  0  0  0  0
    0.6680   -3.8041    0.0000 C   0  0  0  0  0  0  0  0  0  0  0  0
    0.4130   -3.0195    0.0000 N   0  0  0  0  0  0  0  0  0  0  0  0
    1.0805   -2.5346    0.0000 C   0  0  0  0  0  0  0  0  0  0  0  0
    1.0805   -1.7096    0.0000 N   0  0  0  0  0  0  0  0  0  0  0  0
    0.3660   -1.2971    0.0000 C   0  0  0  0  0  0  0  0  0  0  0  0
   -0.3485   -1.7096    0.0000 O   0  0  0  0  0  0  0  0  0  0  0  0
    1.0805   -0.0596    0.0000 C   0  0  0  0  0  0  0  0  0  0  0  0
    0.3660   -0.4721    0.0000 C   0  0  0  0  0  0  0  0  0  0  0  0
   -0.3485   -0.0596    0.0000 C   0  0  0  0  0  0  0  0  0  0  0  0
   -0.3485    0.7654    0.0000 C   0  0  0  0  0  0  0  0  0  0  0  0
    0.3660    1.1779    0.0000 C   0  0  0  0  0  0  0  0  0  0  0  0
    0.3660    2.0029    0.0000 F   0  0  0  0  0  0  0  0  0  0  0  0
    1.0805    0.7654    0.0000 C   0  0  0  0  0  0  0  0  0  0  0  0
   -1.0630    1.1779    0.0000 S   0  0  0  0  0  0  0  0  0  0  0  0
   -1.7304    2.4878    0.0000 N   0  0  0  0  0  0  0  0  0  0  0  0
   -1.0630    2.0029    0.0000 C   0  0  0  0  0  0  0  0  0  0  0  0
   -0.3955    2.4878    0.0000 N   0  0  0  0  0  0  0  0  0  0  0  0
   -0.6505    3.2725    0.0000 C   0  0  0  0  0  0  0  0  0  0  0  0
   -1.4755    3.2725    0.0000 C   0  0  0  0  0  0  0  0  0  0  0  0
   -2.5150    2.2329    0.0000 C   0  0  0  0  0  0  0  0  0  0  0  0
    1.7949   -0.4721    0.0000 N   0  0  0  0  0  0  0  0  0  0  0  0
  1  2  1  0
  1  5  1  0
  2  3  2  0
  3  4  1  0
  4  5  2  0
  5  6  1  0
  6  7  1  0
  7  8  2  0
  7 10  1  0
  9 10  2  0
  9 15  1  0
  9 23  1  0
 10 11  1  0
 11 12  2  0
 12 13  1  0
 12 16  1  0
 13 14  1  0
 13 15  2  0
 16 18  1  0
 17 18  1  0
 17 21  1  0
 17 22  1  0
 18 19  2  0
 19 20  1  0
 20 21  2  0
M  END
>  <DRUGBANK_ID>  (1) 
DB08210

>  <COMMON_NAME>  (1) 
2-AMINO-4-FLUORO-5-[(1-METHYL-1H-IMIDAZOL-2-YL)SULFANYL]-N-(1,3-THIAZOL-2-YL)BENZAMIDE

$$$$
