
     RDKit          2D

 37 40  0  0  0  0  0  0  0  0999 V2000
    5.6091    1.5884    0.0000 O   0  0  0  0  0  0  0  0  0  0  0  0
    4.8946    1.1759    0.0000 C   0  0  0  0  0  0  0  0  0  0  0  0
    4.1801    0.7634    0.0000 C   0  0  0  0  0  0  0  0  0  0  0  0
    3.4656    1.1759    0.0000 N   0  0  0  0  0  0  0  0  0  0  0  0
    2.7512    0.7634    0.0000 C   0  0  0  0  0  0  0  0  0  0  0  0
    2.7512   -0.0616    0.0000 N   0  0  0  0  0  0  0  0  0  0  0  0
    2.0367   -0.4741    0.0000 C   0  0  0  0  0  0  0  0  0  0  0  0
    1.3222   -0.0616    0.0000 N   0  0  0  0  0  0  0  0  0  0  0  0
    1.3222    0.7634    0.0000 C   0  0  0  0  0  0  0  0  0  0  0  0
    2.0367    1.1759    0.0000 C   0  0  0  0  0  0  0  0  0  0  0  0
    2.0367    2.0009    0.0000 F   0  0  0  0  0  0  0  0  0  0  0  0
    2.0367   -1.2991    0.0000 C   0  0  0  0  0  0  0  0  0  0  0  0
    1.3693   -1.7840    0.0000 N   0  0  0  0  0  0  0  0  0  0  0  0
    1.6242   -2.5687    0.0000 N   0  0  0  0  0  0  0  0  0  0  0  0
    1.1393   -3.2361    0.0000 C   0  0  0  0  0  0  0  0  0  0  0  0
    0.3188   -3.1499    0.0000 C   0  0  0  0  0  0  0  0  0  0  0  0
   -0.1661   -3.8173    0.0000 C   0  0  0  0  0  0  0  0  0  0  0  0
    0.1694   -4.5710    0.0000 F   0  0  0  0  0  0  0  0  0  0  0  0
   -0.9866   -3.7311    0.0000 C   0  0  0  0  0  0  0  0  0  0  0  0
   -1.3222   -2.9774    0.0000 C   0  0  0  0  0  0  0  0  0  0  0  0
   -0.8372   -2.3099    0.0000 C   0  0  0  0  0  0  0  0  0  0  0  0
   -0.0168   -2.3962    0.0000 C   0  0  0  0  0  0  0  0  0  0  0  0
    2.4492   -2.5687    0.0000 C   0  0  0  0  0  0  0  0  0  0  0  0
    2.7041   -1.7840    0.0000 C   0  0  0  0  0  0  0  0  0  0  0  0
    2.9341   -3.2361    0.0000 C   0  0  0  0  0  0  0  0  0  0  0  0
    2.6792   -4.0207    0.0000 N   0  0  0  0  0  0  0  0  0  0  0  0
    3.3466   -4.5056    0.0000 O   0  0  0  0  0  0  0  0  0  0  0  0
    4.0141   -4.0207    0.0000 C   0  0  0  0  0  0  0  0  0  0  0  0
    3.7591   -3.2361    0.0000 C   0  0  0  0  0  0  0  0  0  0  0  0
    5.3071    0.4614    0.0000 C   0  0  0  0  0  0  0  0  0  0  0  0
    5.7196   -0.2530    0.0000 F   0  0  0  0  0  0  0  0  0  0  0  0
    4.5926    0.0489    0.0000 F   0  0  0  0  0  0  0  0  0  0  0  0
    6.0216    0.8739    0.0000 F   0  0  0  0  0  0  0  0  0  0  0  0
    4.4821    1.8904    0.0000 C   0  0  0  0  0  0  0  0  0  0  0  0
    4.0696    2.6048    0.0000 F   0  0  0  0  0  0  0  0  0  0  0  0
    5.1966    2.3029    0.0000 F   0  0  0  0  0  0  0  0  0  0  0  0
    3.7676    1.4779    0.0000 F   0  0  0  0  0  0  0  0  0  0  0  0
  1  2  1  0
  2  3  1  0
  2 30  1  0
  2 34  1  0
  3  4  1  0
  4  5  1  0
  5  6  2  0
  5 10  1  0
  6  7  1  0
  7  8  2  0
  7 12  1  0
  8  9  1  0
  9 10  2  0
 10 11  1  0
 12 13  2  0
 12 24  1  0
 13 14  1  0
 14 15  1  0
 14 23  1  0
 15 16  1  0
 16 17  2  0
 16 22  1  0
 17 18  1  0
 17 19  1  0
 19 20  2  0
 20 21  1  0
 21 22  2  0
 23 24  2  0
 23 25  1  0
 25 26  2  0
 25 29  1  0
 26 27  1  0
 27 28  1  0
 28 29  2  0
 30 31  1  0
 30 32  1  0
 30 33  1  0
 34 35  1  0
 34 36  1  0
 34 37  1  0
M  END
>  <DRUGBANK_ID>  (1) 
DB16300

>  <COMMON_NAME>  (1) 
Praliciguat

>  <CAS_NUMBER>  (1) 
1628730-49-3

>  <UNII>  (1) 
R1S0H458SA

>  <SYNONYMS>  (1) 
Praliciguat

$$$$
