INL
     RDKit          2D

 30 33  0  0  0  0  0  0  0  0999 V2000
   -3.9334    0.3596    0.0000 S   0  0  0  0  0  0  0  0  0  0  0  0
   -4.7584    0.3596    0.0000 O   0  0  0  0  0  0  0  0  0  0  0  0
   -3.9334   -0.4654    0.0000 O   0  0  0  0  0  0  0  0  0  0  0  0
   -3.9334    1.1846    0.0000 N   0  0  0  0  0  0  0  0  0  0  0  0
   -3.1084    0.3596    0.0000 C   0  0  0  0  0  0  0  0  0  0  0  0
   -2.6235   -0.3079    0.0000 C   0  0  0  0  0  0  0  0  0  0  0  0
   -1.8389   -0.0529    0.0000 C   0  0  0  0  0  0  0  0  0  0  0  0
   -1.8389    0.7721    0.0000 C   0  0  0  0  0  0  0  0  0  0  0  0
   -2.6235    1.0270    0.0000 S   0  0  0  0  0  0  0  0  0  0  0  0
   -1.1244   -0.4654    0.0000 C   0  0  0  0  0  0  0  0  0  0  0  0
   -0.4099   -0.0529    0.0000 C   0  0  0  0  0  0  0  0  0  0  0  0
   -0.4099    0.7721    0.0000 N   0  0  0  0  0  0  0  0  0  0  0  0
   -1.1244    1.1846    0.0000 S   0  0  0  0  0  0  0  0  0  0  0  0
   -1.5117    1.9130    0.0000 O   0  0  0  0  0  0  0  0  0  0  0  0
   -0.7371    1.9130    0.0000 O   0  0  0  0  0  0  0  0  0  0  0  0
    0.3045   -0.4654    0.0000 C   0  0  0  0  0  0  0  0  0  0  0  0
    1.0190   -1.7029    0.0000 C   0  0  0  0  0  0  0  0  0  0  0  0
    1.0190   -2.5279    0.0000 C   0  0  0  0  0  0  0  0  0  0  0  0
    0.3045   -2.9404    0.0000 O   0  0  0  0  0  0  0  0  0  0  0  0
   -0.4099   -2.5279    0.0000 C   0  0  0  0  0  0  0  0  0  0  0  0
   -0.4099   -1.7029    0.0000 C   0  0  0  0  0  0  0  0  0  0  0  0
    0.3045   -1.2904    0.0000 N   0  0  0  0  0  0  0  0  0  0  0  0
    1.0190    0.7721    0.0000 C   0  0  0  0  0  0  0  0  0  0  0  0
    0.3045    1.1846    0.0000 C   0  0  0  0  0  0  0  0  0  0  0  0
    0.3045    2.0096    0.0000 C   0  0  0  0  0  0  0  0  0  0  0  0
    1.0190    2.4221    0.0000 C   0  0  0  0  0  0  0  0  0  0  0  0
    1.7335    2.0096    0.0000 C   0  0  0  0  0  0  0  0  0  0  0  0
    1.7335    1.1846    0.0000 C   0  0  0  0  0  0  0  0  0  0  0  0
    2.4479    0.7721    0.0000 O   0  0  0  0  0  0  0  0  0  0  0  0
    3.1624    1.1846    0.0000 C   0  0  0  0  0  0  0  0  0  0  0  0
  1  2  2  0
  1  3  2  0
  1  4  1  0
  1  5  1  0
  5  6  2  0
  5  9  1  0
  6  7  1  0
  7  8  2  0
  7 10  1  0
  8  9  1  0
  8 13  1  0
 10 11  2  0
 11 12  1  0
 11 16  1  0
 12 13  1  0
 12 24  1  0
 13 14  2  0
 13 15  2  0
 16 22  1  0
 17 18  1  0
 17 22  1  0
 18 19  1  0
 19 20  1  0
 20 21  1  0
 21 22  1  0
 23 24  2  0
 23 28  1  0
 24 25  1  0
 25 26  2  0
 26 27  1  0
 27 28  2  0
 28 29  1  0
 29 30  1  0
M  END
>  <DRUGBANK_ID>  (1) 
DB03598

>  <SECONDARY_ACCESSION_NUMBERS>  (1) 
EXPT01889

>  <COMMON_NAME>  (1) 
Al-6629, [2h-Thieno[3,2-E]-1,2-Thiazine-6-Sulfonamide,2-(3-Methoxyphenyl)-3-(4-Morpholinyl)-, 1,1-Dioxide]

$$$$
