
     RDKit          2D

 19 20  0  0  0  0  0  0  0  0999 V2000
    0.4021   -0.1695    0.0000 C   0  0  0  0  0  0  0  0  0  0  0  0
    1.1238    0.2471    0.0000 C   0  0  0  0  0  0  0  0  0  0  0  0
   -0.3100    0.2471    0.0000 C   0  0  0  0  0  0  0  0  0  0  0  0
   -0.0047   -0.8817    0.0000 O   0  0  0  0  0  0  0  0  0  0  0  0
    0.4117    1.4826    0.0000 N   0  0  0  0  0  0  0  0  0  0  0  0
    1.1238    1.0659    0.0000 C   0  0  0  0  0  0  0  0  0  0  0  0
   -0.8236   -0.8817    0.0000 C   0  0  0  0  0  0  0  0  0  0  0  0
    0.8235   -0.8817    0.0000 C   0  0  0  0  0  0  0  0  0  0  0  0
   -0.3100    1.0659    0.0000 C   0  0  0  0  0  0  0  0  0  0  0  0
   -1.2306   -0.1598    0.0000 O   0  0  0  0  0  0  0  0  0  0  0  0
    1.8264   -0.1695    0.0000 C   0  0  0  0  0  0  0  0  0  0  0  0
    0.4117    2.3109    0.0000 C   0  0  0  0  0  0  0  0  0  0  0  0
   -1.2402   -1.5939    0.0000 C   0  0  0  0  0  0  0  0  0  0  0  0
    0.4021   -1.5987    0.0000 C   0  0  0  0  0  0  0  0  0  0  0  0
    1.6471   -0.8817    0.0000 C   0  0  0  0  0  0  0  0  0  0  0  0
   -2.0590   -1.5939    0.0000 C   0  0  0  0  0  0  0  0  0  0  0  0
    0.8235   -2.3109    0.0000 C   0  0  0  0  0  0  0  0  0  0  0  0
    2.0590   -1.5987    0.0000 C   0  0  0  0  0  0  0  0  0  0  0  0
    1.6471   -2.3109    0.0000 C   0  0  0  0  0  0  0  0  0  0  0  0
  1  4  1  1
  2  1  1  0
  2 11  1  1
  3  1  1  0
  5  9  1  0
  5  6  1  0
  6  2  1  0
  7  4  1  0
  8  1  1  0
  9  3  1  0
 10  7  2  0
 12  5  1  0
 13  7  1  0
 14  8  2  0
 15  8  1  0
 16 13  1  0
 17 14  1  0
 18 15  2  0
 18 19  1  0
 19 17  2  0
M  END
>  <DRUGBANK_ID>  (1) 
DB13160

>  <COMMON_NAME>  (1) 
Alphaprodine

>  <CAS_NUMBER>  (1) 
77-20-3

>  <UNII>  (1) 
001O2254AC

>  <SYNONYMS>  (1) 
Alphaprodine; dl-alpha-prodine

$$$$
