LL2
     RDKit          2D

 13 14  0  0  0  0  0  0  0  0999 V2000
   -1.0496    0.3765    0.0000 C   0  0  0  0  0  0  0  0  0  0  0  0
   -1.7641    0.7890    0.0000 C   0  0  0  0  0  0  0  0  0  0  0  0
   -1.7641    1.6140    0.0000 C   0  0  0  0  0  0  0  0  0  0  0  0
   -1.0496    2.0265    0.0000 C   0  0  0  0  0  0  0  0  0  0  0  0
   -0.3351    1.6140    0.0000 C   0  0  0  0  0  0  0  0  0  0  0  0
   -0.3351    0.7890    0.0000 C   0  0  0  0  0  0  0  0  0  0  0  0
    0.3793    0.3765    0.0000 C   0  0  0  0  0  0  0  0  0  0  0  0
    0.3793   -0.4485    0.0000 C   0  0  0  0  0  0  0  0  0  0  0  0
    1.0468   -0.9334    0.0000 S   0  0  0  0  0  0  0  0  0  0  0  0
   -0.2881   -0.9334    0.0000 C   0  0  0  0  0  0  0  0  0  0  0  0
   -0.0332   -1.7180    0.0000 N   0  0  0  0  0  0  0  0  0  0  0  0
    0.7918   -1.7180    0.0000 C   0  0  0  0  0  0  0  0  0  0  0  0
    1.2768   -2.3854    0.0000 N   0  0  0  0  0  0  0  0  0  0  0  0
  1  2  2  0
  1  6  1  0
  2  3  1  0
  3  4  2  0
  4  5  1  0
  5  6  2  0
  6  7  1  0
  7  8  1  0
  8  9  1  0
  8 10  2  0
  9 12  1  0
 10 11  1  0
 11 12  2  0
 12 13  1  0
M  END
>  <DRUGBANK_ID>  (1) 
DB08114

>  <COMMON_NAME>  (1) 
5-benzyl-1,3-thiazol-2-amine

>  <UNII>  (1) 
80LHQ4O8WW

$$$$
