
     RDKit          2D

 10  9  0  0  1  0  0  0  0  0999 V2000
    0.0000    0.8250    0.0000 C   0  0  0  0  0  0  0  0  0  0  0  0
    0.7145    1.2375    0.0000 C   0  0  0  0  0  0  0  0  0  0  0  0
    0.7145    2.0625    0.0000 C   0  0  0  0  0  0  0  0  0  0  0  0
    1.4289    0.8250    0.0000 N   0  0  0  0  0  0  0  0  0  0  0  0
    1.4289    2.4750    0.0000 O   0  0  0  0  0  0  0  0  0  0  0  0
    0.0000    2.4750    0.0000 O   0  0  0  0  0  0  0  0  0  0  0  0
   -0.0000   -0.8250    0.0000 O   0  0  0  0  0  0  0  0  0  0  0  0
   -0.8250    0.0000    0.0000 O   0  0  0  0  0  0  0  0  0  0  0  0
    0.8250    0.0000    0.0000 O   0  0  0  0  0  0  0  0  0  0  0  0
    0.0000    0.0000    0.0000 P   0  0  0  0  0  0  0  0  0  0  0  0
  2  1  1  0
  2  4  1  6
  3  2  1  0
  5  3  2  0
  6  3  1  0
 10  1  1  0
 10  7  1  0
 10  8  1  0
 10  9  2  0
M  END
>  <DRUGBANK_ID>  (1) 
DB03292

>  <SECONDARY_ACCESSION_NUMBERS>  (1) 
EXPT00542

>  <COMMON_NAME>  (1) 
3-Phosphono-D-alanine

>  <CAS_NUMBER>  (1) 
128241-72-5

>  <UNII>  (1) 
ZL1D9LZ2KD

>  <SYNONYMS>  (1) 
(S)-2-Amino-3-phosphonopropanoic acid; D-2-Amino-3-phosphonopropionic acid

$$$$
