
     RDKit          2D

 23 25  0  0  1  0  0  0  0  0999 V2000
    3.1574    2.9900    0.0000 C   0  0  0  0  0  0  0  0  0  0  0  0
    2.6430    2.3449    0.0000 O   0  0  0  0  0  0  0  0  0  0  0  0
    2.9444    1.5770    0.0000 C   0  0  0  0  0  0  0  0  0  0  0  0
    3.7602    1.4540    0.0000 O   0  0  0  0  0  0  0  0  0  0  0  0
    2.4300    0.9320    0.0000 C   0  0  0  0  0  0  0  0  0  0  0  0
    1.6257    1.1155    0.0000 C   0  0  0  0  0  0  0  0  0  0  0  0
    0.9807    0.6012    0.0000 C   0  0  0  0  0  0  0  0  0  0  0  0
    0.9807   -0.2238    0.0000 C   0  0  0  0  0  0  0  0  0  0  0  0
    1.6257   -0.7382    0.0000 C   0  0  0  0  0  0  0  0  0  0  0  0
    2.4300   -0.5546    0.0000 C   0  0  0  0  0  0  0  0  0  0  0  0
    2.7880    0.1887    0.0000 C   0  0  0  0  0  0  0  0  0  0  0  0
    3.6130    0.1887    0.0000 C   0  0  0  0  0  0  0  0  0  0  0  0
    4.0255    0.9031    0.0000 C   0  0  0  0  0  0  0  0  0  0  0  0
    4.8505    0.9031    0.0000 C   0  0  0  0  0  0  0  0  0  0  0  0
    5.2630    0.1887    0.0000 C   0  0  0  0  0  0  0  0  0  0  0  0
    6.0880    0.1887    0.0000 F   0  0  0  0  0  0  0  0  0  0  0  0
    4.8505   -0.5258    0.0000 C   0  0  0  0  0  0  0  0  0  0  0  0
    4.0255   -0.5258    0.0000 C   0  0  0  0  0  0  0  0  0  0  0  0
    1.3940    0.1887    0.0000 N   0  0  0  0  0  0  0  0  0  0  0  0
    0.5690    0.1887    0.0000 C   0  0  0  0  0  0  0  0  0  0  0  0
    0.1565   -0.5258    0.0000 C   0  0  0  0  0  0  0  0  0  0  0  0
   -0.6685   -0.5258    0.0000 C   0  0  0  0  0  0  0  0  0  0  0  0
   -1.0810   -1.2403    0.0000 I   0  0  0  0  0  0  0  0  0  0  0  0
  1  2  1  0
  2  3  1  0
  3  4  2  0
  5  3  1  1
  5  6  1  0
  5 11  1  0
  6  7  1  6
  6 19  1  0
  7  8  1  0
  9  8  1  6
  9 10  1  0
  9 19  1  0
 11 10  1  0
 11 12  1  1
 12 13  2  0
 12 18  1  0
 13 14  1  0
 14 15  2  0
 15 16  1  0
 15 17  1  0
 17 18  2  0
 19 20  1  0
 20 21  1  0
 21 22  2  0
 22 23  1  0
M  ISO  1  23 123
M  END
>  <DRUGBANK_ID>  (1) 
DB15144

>  <COMMON_NAME>  (1) 
Altropane I-123

>  <CAS_NUMBER>  (1) 
208517-65-1

>  <UNII>  (1) 
D20OLL8HWU

$$$$
