
     RDKit          2D

 26 27  0  0  0  0  0  0  0  0999 V2000
   -2.4498   -0.0102    0.0000 C   0  0  0  0  0  0  0  0  0  0  0  0
   -1.7326   -0.4206    0.0000 C   0  0  0  0  0  0  0  0  0  0  0  0
   -3.1635   -0.4241    0.0000 C   0  0  0  0  0  0  0  0  0  0  0  0
   -2.4498    0.8206    0.0000 C   0  0  0  0  0  0  0  0  0  0  0  0
   -1.0223   -0.0033    0.0000 N   0  0  0  0  0  0  0  0  0  0  0  0
   -3.8808   -0.0102    0.0000 N   0  0  0  0  0  0  0  0  0  0  0  0
   -3.1635   -1.2482    0.0000 N   0  0  0  0  0  0  0  0  0  0  0  0
   -3.1670    1.2309    0.0000 N   0  0  0  0  0  0  0  0  0  0  0  0
   -0.3051   -0.4102    0.0000 C   0  0  0  0  0  0  0  0  0  0  0  0
   -1.0258    0.8206    0.0000 C   0  0  0  0  0  0  0  0  0  0  0  0
   -3.8773    0.8172    0.0000 C   0  0  0  0  0  0  0  0  0  0  0  0
    0.4051    0.0068    0.0000 C   0  0  0  0  0  0  0  0  0  0  0  0
   -0.3016   -1.2378    0.0000 C   0  0  0  0  0  0  0  0  0  0  0  0
   -0.3154    1.2378    0.0000 O   0  0  0  0  0  0  0  0  0  0  0  0
   -4.5946    1.2309    0.0000 C   0  0  0  0  0  0  0  0  0  0  0  0
    1.1223   -0.4033    0.0000 S   0  0  0  0  0  0  0  0  0  0  0  0
    0.4017    0.8309    0.0000 C   0  0  0  0  0  0  0  0  0  0  0  0
    1.8361    0.0137    0.0000 S   0  0  0  0  0  0  0  0  0  0  0  0
    1.1119    1.2482    0.0000 C   0  0  0  0  0  0  0  0  0  0  0  0
    2.5532   -0.3930    0.0000 C   0  0  0  0  0  0  0  0  0  0  0  0
    1.8292    0.8378    0.0000 O   0  0  0  0  0  0  0  0  0  0  0  0
    3.2601    0.0240    0.0000 C   0  0  0  0  0  0  0  0  0  0  0  0
    3.5153    0.8103    0.0000 C   0  0  0  0  0  0  0  0  0  0  0  0
    3.9255   -0.4620    0.0000 O   0  0  0  0  0  0  0  0  0  0  0  0
    4.3394    0.8103    0.0000 C   0  0  0  0  0  0  0  0  0  0  0  0
    4.5946    0.0240    0.0000 C   0  0  0  0  0  0  0  0  0  0  0  0
  1  2  1  0
  1  3  2  0
  1  4  1  0
  2  5  1  0
  3  6  1  0
  3  7  1  0
  4  8  2  0
  5  9  1  0
  5 10  1  0
  6 11  2  0
  8 11  1  0
  9 12  2  0
  9 13  1  0
 10 14  2  0
 11 15  1  0
 12 16  1  0
 12 17  1  0
 16 18  1  0
 17 19  1  0
 18 20  1  0
 19 21  1  0
 20 22  1  0
 22 23  1  0
 22 24  1  0
 23 25  1  0
 24 26  1  0
 25 26  1  0
M  END
>  <DRUGBANK_ID>  (1) 
DB08966

>  <COMMON_NAME>  (1) 
Fursultiamine

>  <CAS_NUMBER>  (1) 
804-30-8

>  <UNII>  (1) 
05J61265PX

>  <SYNONYMS>  (1) 
Fursultiamina; Fursultiamine; Fursultiaminum; Thiamin tetrahydrofurfuryl disulfide; Thiamine tetrahydrofurfuryl disulfide; TTFD

$$$$
