
     RDKit          2D

  6  5  0  0  0  0  0  0  0  0999 V2000
    0.1105   -1.2375    0.0000 C   0  0  0  0  0  0  0  0  0  0  0  0
    0.8250   -0.8250    0.0000 C   0  0  0  0  0  0  0  0  0  0  0  0
    0.8250    0.0000    0.0000 Si  0  0  0  0  0  4  0  0  0  0  0  0
    0.8250    0.8250    0.0000 C   0  0  0  0  0  0  0  0  0  0  0  0
    1.6500    0.0000    0.0000 C   0  0  0  0  0  0  0  0  0  0  0  0
    0.0000    0.0000    0.0000 C   0  0  0  0  0  0  0  0  0  0  0  0
  1  2  1  0
  2  3  1  0
  3  4  1  0
  3  5  1  0
  3  6  1  0
M  END
>  <DRUGBANK_ID>  (1) 
DB02265

>  <SECONDARY_ACCESSION_NUMBERS>  (1) 
EXPT00892

>  <COMMON_NAME>  (1) 
Ethyl-Trimethyl-Silane

>  <CAS_NUMBER>  (1) 
3439-38-1

>  <UNII>  (1) 
O72DFI3IWO

$$$$
