IZD
     RDKit          2D

 34 36  0  0  0  0  0  0  0  0999 V2000
   -6.1293    3.8993    0.0000 C   0  0  0  0  0  0  0  0  0  0  0  0
   -6.8830    3.5637    0.0000 C   0  0  0  0  0  0  0  0  0  0  0  0
   -7.4350    4.1768    0.0000 C   0  0  0  0  0  0  0  0  0  0  0  0
   -7.0225    4.8913    0.0000 N   0  0  0  0  0  0  0  0  0  0  0  0
   -6.2155    4.7198    0.0000 S   0  0  0  0  0  0  0  0  0  0  0  0
   -5.4104    4.8997    0.0000 O   0  0  0  0  0  0  0  0  0  0  0  0
   -5.9524    5.5017    0.0000 O   0  0  0  0  0  0  0  0  0  0  0  0
   -8.2555    4.0906    0.0000 O   0  0  0  0  0  0  0  0  0  0  0  0
   -5.4148    3.4868    0.0000 C   0  0  0  0  0  0  0  0  0  0  0  0
   -4.7003    3.8993    0.0000 C   0  0  0  0  0  0  0  0  0  0  0  0
   -3.9859    3.4868    0.0000 C   0  0  0  0  0  0  0  0  0  0  0  0
   -3.9859    2.6618    0.0000 C   0  0  0  0  0  0  0  0  0  0  0  0
   -4.7003    2.2493    0.0000 C   0  0  0  0  0  0  0  0  0  0  0  0
   -5.4148    2.6618    0.0000 C   0  0  0  0  0  0  0  0  0  0  0  0
   -3.2714    2.2493    0.0000 C   0  0  0  0  0  0  0  0  0  0  0  0
   -2.5569    2.6618    0.0000 C   0  0  0  0  0  0  0  0  0  0  0  0
   -2.5569    3.4868    0.0000 C   0  0  0  0  0  0  0  0  0  0  0  0
   -3.2714    3.8993    0.0000 O   0  0  0  0  0  0  0  0  0  0  0  0
   -1.8424    3.8993    0.0000 N   0  0  0  0  0  0  0  0  0  0  0  0
   -1.8424    2.2493    0.0000 N   0  0  0  0  0  0  0  0  0  0  0  0
   -1.1280    2.6618    0.0000 C   0  0  0  0  0  0  0  0  0  0  0  0
   -0.4135    2.2493    0.0000 C   0  0  0  0  0  0  0  0  0  0  0  0
   -1.1280    3.4868    0.0000 O   0  0  0  0  0  0  0  0  0  0  0  0
    0.3010    2.6618    0.0000 N   0  0  0  0  0  0  0  0  0  0  0  0
   -0.4135    1.4243    0.0000 C   0  0  0  0  0  0  0  0  0  0  0  0
   -1.1280    1.0118    0.0000 C   0  0  0  0  0  0  0  0  0  0  0  0
   -1.1280    0.1868    0.0000 C   0  0  0  0  0  0  0  0  0  0  0  0
   -1.8424   -0.2257    0.0000 C   0  0  0  0  0  0  0  0  0  0  0  0
   -2.5569    0.1868    0.0000 C   0  0  0  0  0  0  0  0  0  0  0  0
   -2.5569    1.0118    0.0000 C   0  0  0  0  0  0  0  0  0  0  0  0
   -1.8424    1.4243    0.0000 C   0  0  0  0  0  0  0  0  0  0  0  0
    0.3010    3.4868    0.0000 C   0  0  0  0  0  0  0  0  0  0  0  0
    1.0154    3.8993    0.0000 O   0  0  0  0  0  0  0  0  0  0  0  0
   -0.4135    3.8993    0.0000 C   0  0  0  0  0  0  0  0  0  0  0  0
  1  2  1  0
  1  5  1  0
  1  9  1  6
  2  3  1  0
  3  4  1  0
  3  8  2  0
  4  5  1  0
  5  6  2  0
  5  7  2  0
  9 10  2  0
  9 14  1  0
 10 11  1  0
 11 12  2  0
 12 13  1  0
 12 15  1  0
 13 14  2  0
 16 15  1  1
 16 17  1  0
 16 20  1  0
 17 18  2  0
 17 19  1  0
 20 21  1  0
 21 22  1  0
 21 23  2  0
 22 24  1  0
 22 25  1  1
 24 32  1  0
 25 26  1  0
 26 27  2  0
 26 31  1  0
 27 28  1  0
 28 29  2  0
 29 30  1  0
 30 31  2  0
 32 33  2  0
 32 34  1  0
M  END
>  <DRUGBANK_ID>  (1) 
DB08003

>  <COMMON_NAME>  (1) 
ISOTHIAZOLIDINONE ANALOG

$$$$
