
     RDKit          2D

 16 15  0  0  0  0  0  0  0  0999 V2000
   -2.9427    1.7861    0.0000 C   0  0  0  0  0  0  0  0  0  0  0  0
   -3.2447    0.6592    0.0000 C   0  0  0  0  0  0  0  0  0  0  0  0
   -1.8157    1.4842    0.0000 C   0  0  0  0  0  0  0  0  0  0  0  0
   -2.1177    0.3572    0.0000 C   0  0  0  0  0  0  0  0  0  0  0  0
   -1.2927    0.3572    0.0000 C   0  0  0  0  0  0  0  0  0  0  0  0
    2.4197   -1.7861    0.0000 C   0  0  0  0  0  0  0  0  0  0  0  0
    1.1822   -1.0717    0.0000 C   0  0  0  0  0  0  0  0  0  0  0  0
    2.0072   -1.0717    0.0000 C   0  0  0  0  0  0  0  0  0  0  0  0
   -2.5302    1.0717    0.0000 N   0  0  0  0  0  0  0  0  0  0  0  0
    3.2447   -1.7861    0.0000 O   0  0  0  0  0  0  0  0  0  0  0  0
    2.4197   -0.3572    0.0000 O   0  0  0  0  0  0  0  0  0  0  0  0
   -0.0552   -1.1822    0.0000 O   0  0  0  0  0  0  0  0  0  0  0  0
   -0.0552    0.4677    0.0000 O   0  0  0  0  0  0  0  0  0  0  0  0
   -0.8802   -0.3572    0.0000 O   0  0  0  0  0  0  0  0  0  0  0  0
    0.7697   -0.3572    0.0000 O   0  0  0  0  0  0  0  0  0  0  0  0
   -0.0552   -0.3572    0.0000 P   0  0  0  0  0  0  0  0  0  0  0  0
  5  4  1  0
  8  6  1  0
  8  7  1  0
  8 11  1  6
  9  1  1  0
  9  2  1  0
  9  3  1  0
  9  4  1  0
 10  6  1  0
 14  5  1  0
 15  7  1  0
 16 12  2  0
 16 13  1  0
 16 14  1  0
 16 15  1  0
M  CHG  2   9   1  13  -1
M  END
>  <DRUGBANK_ID>  (1) 
DB04660

>  <COMMON_NAME>  (1) 
Choline alfoscerate

>  <CAS_NUMBER>  (1) 
28319-77-9

>  <UNII>  (1) 
60M22SGW66

>  <SYNONYMS>  (1) 
(2R)-2,3-dihydroxypropyl 2-(trimethylammonio)ethyl phosphate; alpha-Glycerophosphorylcholine; Choline alfoscerate; Choline alphoscerate; Choline glycerophosphate; Cholini glycerophosphas; Glicerofosfato de colina; Glycerol phosphorylcholine; Glycerol-3-phosphatidylcholine; glycerol-3-phosphocholine; Glycerophosphate de choline; Glycerophosphocholine; Glycerophosphorylcholine; GPCho; L-alpha-Glycerophosphocholine; L-alpha-Glycerophosphorylcholine; sn-3-GPC; sn-Glycero-3-phosphocholine

$$$$
