
     RDKit          2D

  8  8  0  0  1  0  0  0  0  0999 V2000
   -1.1908    1.7138    0.0000 C   0  0  0  0  0  0  0  0  0  0  0  0
   -0.1743    0.1743    0.0000 C   0  0  0  0  0  0  0  0  0  0  0  0
    0.6507    0.1743    0.0000 C   0  0  0  0  0  0  0  0  0  0  0  0
    0.2382    1.7138    0.0000 C   0  0  0  0  0  0  0  0  0  0  0  0
   -0.4763    2.9513    0.0000 C   0  0  0  0  0  0  0  0  0  0  0  0
   -0.4763    2.1263    0.0000 C   0  0  0  0  0  0  0  0  0  0  0  0
    0.2382    0.8888    0.0000 C   0  0  0  0  0  0  0  0  0  0  0  0
   -1.1908    3.3638    0.0000 O   0  0  0  0  0  0  0  0  0  0  0  0
  3  2  1  0
  6  1  1  6
  6  4  1  0
  6  5  1  0
  7  2  1  0
  7  3  1  0
  7  4  1  0
  8  5  2  0
M  END
>  <DRUGBANK_ID>  (1) 
DB03736

>  <SECONDARY_ACCESSION_NUMBERS>  (1) 
EXPT01002

>  <COMMON_NAME>  (1) 
2-Cyclopropylmethylenepropanal

$$$$
