1173
     RDKit          2D

 20 21  0  0  1  0  0  0  0  0999 V2000
    3.0791    0.2063    0.0000 O   0  0  0  0  0  0  0  0  0  0  0  0
    2.3645    2.2688    0.0000 N   0  0  0  0  0  0  0  0  0  0  0  0
    3.7935   -0.2063    0.0000 C   0  0  0  0  0  0  0  0  0  0  0  0
    3.7935   -1.0313    0.0000 C   0  0  0  0  0  0  0  0  0  0  0  0
    4.5080    0.2063    0.0000 C   0  0  0  0  0  0  0  0  0  0  0  0
    3.0791    1.0313    0.0000 C   0  0  0  0  0  0  0  0  0  0  0  0
    3.0791   -1.4438    0.0000 C   0  0  0  0  0  0  0  0  0  0  0  0
    2.3645    1.4438    0.0000 C   0  0  0  0  0  0  0  0  0  0  0  0
    4.5080   -1.4438    0.0000 C   0  0  0  0  0  0  0  0  0  0  0  0
    4.5080    1.0313    0.0000 C   0  0  0  0  0  0  0  0  0  0  0  0
    5.2224   -0.2063    0.0000 C   0  0  0  0  0  0  0  0  0  0  0  0
    3.0791   -2.2688    0.0000 C   0  0  0  0  0  0  0  0  0  0  0  0
    2.3645   -1.0313    0.0000 C   0  0  0  0  0  0  0  0  0  0  0  0
    4.5080   -2.2688    0.0000 C   0  0  0  0  0  0  0  0  0  0  0  0
    3.7935   -2.6813    0.0000 C   0  0  0  0  0  0  0  0  0  0  0  0
    5.2224    1.4438    0.0000 C   0  0  0  0  0  0  0  0  0  0  0  0
    5.9370    0.2063    0.0000 C   0  0  0  0  0  0  0  0  0  0  0  0
    1.6500    2.6813    0.0000 C   0  0  0  0  0  0  0  0  0  0  0  0
    3.0791    2.6813    0.0000 C   0  0  0  0  0  0  0  0  0  0  0  0
    5.9370    1.0313    0.0000 C   0  0  0  0  0  0  0  0  0  0  0  0
  1  3  1  0
  1  6  1  0
  2  8  1  0
  2 18  1  0
  2 19  1  0
  3  4  1  0
  3  5  1  0
  4  7  2  0
  4  9  1  0
  5 10  2  0
  5 11  1  0
  6  8  1  0
  7 12  1  0
  7 13  1  0
  9 14  2  0
 10 16  1  0
 11 17  2  0
 12 15  2  0
 14 15  1  0
 16 20  2  0
 17 20  1  0
M  END
>  <DRUGBANK_ID>  (1) 
DB01173

>  <SECONDARY_ACCESSION_NUMBERS>  (1) 
APRD00097

>  <COMMON_NAME>  (1) 
Orphenadrine

>  <CAS_NUMBER>  (1) 
83-98-7

>  <UNII>  (1) 
AL805O9OG9

>  <SYNONYMS>  (1) 
2-(phenyl-o-tolylmethoxy)ethyldimethylamine; 2-methyldiphenhydramine; beta-Dimethylaminoethyl 2-methylbenzhydryl ether; Dimethyl-[2-(phenyl-o-tolyl-methoxy)-ethyl]-amine; N,N-Dimethyl-2-(alpha-2-tolylbenzoyloxy)ethylamine; N,N-dimethyl-2-(phenyl(o-tolyl)methoxy)ethanamine; N,N-dimethyl-2-[(o-methyl-α-phenylbenzyl)oxy]ethylamine; o-methyldiphenhydramine; o-monomethyldiphenhydramine; Orfenadrina; Orphenadrine; Orphenadrinum; phenyl-o-tolylmethyl dimethyaminoethyl ether; β-dimethylaminoethyl 2-methylbenzhydryl ether

$$$$
