
     RDKit          2D

 30 33  0  0  1  0  0  0  0  0999 V2000
   -0.7145   -1.2375    0.0000 C   0  0  0  0  0  0  0  0  0  0  0  0
    0.0000   -1.6500    0.0000 C   0  0  0  0  0  0  0  0  0  0  0  0
    0.0000   -2.4750    0.0000 C   0  0  0  0  0  0  0  0  0  0  0  0
    0.8250   -2.4750    0.0000 C   0  0  0  0  0  0  0  0  0  0  0  0
    1.2375   -3.1895    0.0000 N   0  0  0  0  0  0  0  0  0  0  0  0
    0.9019   -3.9431    0.0000 C   0  0  0  0  0  0  0  0  0  0  0  0
    1.5150   -4.4952    0.0000 N   0  0  0  0  0  0  0  0  0  0  0  0
    2.2295   -4.0827    0.0000 C   0  0  0  0  0  0  0  0  0  0  0  0
    2.0580   -3.2757    0.0000 N   0  0  0  0  0  0  0  0  0  0  0  0
   -0.8250   -2.4750    0.0000 C   0  0  0  0  0  0  0  0  0  0  0  0
   -1.2375   -1.7605    0.0000 C   0  0  0  0  0  0  0  0  0  0  0  0
   -2.0625   -1.7605    0.0000 C   0  0  0  0  0  0  0  0  0  0  0  0
   -2.4750   -2.4750    0.0000 C   0  0  0  0  0  0  0  0  0  0  0  0
   -2.0625   -3.1895    0.0000 C   0  0  0  0  0  0  0  0  0  0  0  0
   -1.2375   -3.1895    0.0000 C   0  0  0  0  0  0  0  0  0  0  0  0
   -0.8250   -3.9039    0.0000 F   0  0  0  0  0  0  0  0  0  0  0  0
   -3.3000   -2.4750    0.0000 F   0  0  0  0  0  0  0  0  0  0  0  0
    0.0000   -3.3000    0.0000 O   0  0  0  0  0  0  0  0  0  0  0  0
    0.7145   -1.2375    0.0000 N   0  0  0  0  0  0  0  0  0  0  0  0
    0.7145   -0.4125    0.0000 C   0  0  0  0  0  0  0  0  0  0  0  0
    1.4289    0.0000    0.0000 N   0  0  0  0  0  0  0  0  0  0  0  0
    2.1434   -0.4125    0.0000 C   0  0  0  0  0  0  0  0  0  0  0  0
    2.8579    0.0000    0.0000 C   0  0  0  0  0  0  0  0  0  0  0  0
    3.5724   -0.4125    0.0000 C   0  0  0  0  0  0  0  0  0  0  0  0
    3.5724   -1.2375    0.0000 C   0  0  0  0  0  0  0  0  0  0  0  0
    2.8579   -1.6500    0.0000 C   0  0  0  0  0  0  0  0  0  0  0  0
    2.1434   -1.2375    0.0000 C   0  0  0  0  0  0  0  0  0  0  0  0
    1.4289   -1.6500    0.0000 C   0  0  0  0  0  0  0  0  0  0  0  0
    1.4289   -2.4750    0.0000 O   0  0  0  0  0  0  0  0  0  0  0  0
    4.2868   -0.0000    0.0000 Cl  0  0  0  0  0  0  0  0  0  0  0  0
  2  1  1  1
  2  3  1  0
  2 19  1  0
  3  4  1  0
  3 10  1  0
  3 18  1  1
  4  5  1  0
  5  6  1  0
  5  9  1  0
  6  7  2  0
  7  8  1  0
  8  9  2  0
 10 11  2  0
 10 15  1  0
 11 12  1  0
 12 13  2  0
 13 14  1  0
 13 17  1  0
 14 15  2  0
 15 16  1  0
 19 20  1  0
 19 28  1  0
 20 21  2  0
 21 22  1  0
 22 23  2  0
 22 27  1  0
 23 24  1  0
 24 25  2  0
 24 30  1  0
 25 26  1  0
 26 27  2  0
 27 28  1  0
 28 29  2  0
M  END
>  <DRUGBANK_ID>  (1) 
DB12073

>  <COMMON_NAME>  (1) 
Albaconazole

>  <CAS_NUMBER>  (1) 
187949-02-6

>  <UNII>  (1) 
YDW24Y8IAB

>  <SYNONYMS>  (1) 
Albaconazole

$$$$
