
     RDKit          2D

 30 32  0  0  1  0  0  0  0  0999 V2000
   -1.1258    0.9365    0.0000 C   0  0  0  0  0  0  0  0  0  0  0  0
   -1.6158    1.6013    0.0000 N   0  0  0  0  0  0  0  0  0  0  0  0
   -1.6109    0.2620    0.0000 C   0  0  0  0  0  0  0  0  0  0  0  0
   -2.4020    1.3393    0.0000 C   0  0  0  0  0  0  0  0  0  0  0  0
   -2.3972    0.5144    0.0000 C   0  0  0  0  0  0  0  0  0  0  0  0
   -0.3007    0.9413    0.0000 C   0  0  0  0  0  0  0  0  0  0  0  0
    3.4162    0.2524    0.0000 C   0  0  0  0  0  0  0  0  0  0  0  0
   -1.6158   -0.5580    0.0000 C   0  0  0  0  0  0  0  0  0  0  0  0
    2.5912    0.2475    0.0000 C   0  0  0  0  0  0  0  0  0  0  0  0
    0.1067    1.6595    0.0000 C   0  0  0  0  0  0  0  0  0  0  0  0
   -1.2179    2.3243    0.0000 C   0  0  0  0  0  0  0  0  0  0  0  0
    3.8286   -0.4609    0.0000 O   0  0  0  0  0  0  0  0  0  0  0  0
    3.8238    0.9656    0.0000 O   0  0  0  0  0  0  0  0  0  0  0  0
    2.1739    0.9558    0.0000 C   0  0  0  0  0  0  0  0  0  0  0  0
    1.3489    0.9511    0.0000 C   0  0  0  0  0  0  0  0  0  0  0  0
   -2.3388   -0.9607    0.0000 C   0  0  0  0  0  0  0  0  0  0  0  0
   -0.9122   -0.9752    0.0000 C   0  0  0  0  0  0  0  0  0  0  0  0
   -1.6353   -2.2078    0.0000 C   0  0  0  0  0  0  0  0  0  0  0  0
    0.9316    1.6644    0.0000 C   0  0  0  0  0  0  0  0  0  0  0  0
   -3.1152    1.7518    0.0000 C   0  0  0  0  0  0  0  0  0  0  0  0
   -3.1152    0.0970    0.0000 C   0  0  0  0  0  0  0  0  0  0  0  0
   -2.3486   -1.7856    0.0000 C   0  0  0  0  0  0  0  0  0  0  0  0
   -0.9171   -1.7954    0.0000 C   0  0  0  0  0  0  0  0  0  0  0  0
   -1.6450   -3.0329    0.0000 F   0  0  0  0  0  0  0  0  0  0  0  0
    2.5815    1.6741    0.0000 O   0  0  0  0  0  0  0  0  0  0  0  0
    1.3392    2.3826    0.0000 O   0  0  0  0  0  0  0  0  0  0  0  0
   -1.6401    3.0329    0.0000 C   0  0  0  0  0  0  0  0  0  0  0  0
   -0.3930    2.3341    0.0000 C   0  0  0  0  0  0  0  0  0  0  0  0
   -3.8286    0.5094    0.0000 C   0  0  0  0  0  0  0  0  0  0  0  0
   -3.8286    1.3393    0.0000 C   0  0  0  0  0  0  0  0  0  0  0  0
  2  1  1  0
  3  1  2  0
  4  2  1  0
  5  3  1  0
  5  4  2  0
  6  1  1  0
  7  9  1  0
  8  3  1  0
  9 14  1  0
 10  6  2  0
 11  2  1  0
 12  7  1  0
 13  7  2  0
 14 15  1  0
 14 25  1  0
 15 19  1  0
 16  8  2  0
 17  8  1  0
 18 22  2  0
 19 10  1  0
 19 26  1  0
 20  4  1  0
 21  5  1  0
 22 16  1  0
 23 17  2  0
 23 18  1  0
 24 18  1  0
 27 11  1  0
 28 11  1  0
 29 21  2  0
 29 30  1  0
 30 20  2  0
M  END
>  <DRUGBANK_ID>  (1) 
DB01095

>  <SECONDARY_ACCESSION_NUMBERS>  (1) 
APRD00346

>  <COMMON_NAME>  (1) 
Fluvastatin

>  <CAS_NUMBER>  (1) 
93957-54-1

>  <UNII>  (1) 
4L066368AS

>  <SYNONYMS>  (1) 
Fluvastatin; fluvastatina; fluvastatine; fluvastatinum

$$$$
