LZJ
     RDKit          2D

 20 22  0  0  0  0  0  0  0  0999 V2000
    0.5458  -12.8439    0.0000 Br  0  0  0  0  0  0  0  0  0  0  0  0
    0.5458  -12.0189    0.0000 C   0  0  0  0  0  0  0  0  0  0  0  0
   -0.1687  -11.6064    0.0000 C   0  0  0  0  0  0  0  0  0  0  0  0
   -0.1687  -10.7814    0.0000 C   0  0  0  0  0  0  0  0  0  0  0  0
    0.5458  -10.3689    0.0000 C   0  0  0  0  0  0  0  0  0  0  0  0
    1.2603  -10.7814    0.0000 C   0  0  0  0  0  0  0  0  0  0  0  0
    1.9747  -10.3689    0.0000 Br  0  0  0  0  0  0  0  0  0  0  0  0
    1.2603  -11.6064    0.0000 C   0  0  0  0  0  0  0  0  0  0  0  0
    1.9747  -12.0189    0.0000 C   0  0  0  0  0  0  0  0  0  0  0  0
    2.6892  -11.6064    0.0000 C   0  0  0  0  0  0  0  0  0  0  0  0
    3.4037  -12.0189    0.0000 C   0  0  0  0  0  0  0  0  0  0  0  0
    4.1181  -11.6064    0.0000 C   0  0  0  0  0  0  0  0  0  0  0  0
    4.8326  -12.0189    0.0000 N   0  0  0  0  0  0  0  0  0  0  0  0
    1.9747  -12.8439    0.0000 C   0  0  0  0  0  0  0  0  0  0  0  0
    1.2603  -13.2564    0.0000 N   0  0  0  0  0  0  0  0  0  0  0  0
    2.6892  -13.2564    0.0000 N   0  0  0  0  0  0  0  0  0  0  0  0
    3.4037  -12.8439    0.0000 C   0  0  0  0  0  0  0  0  0  0  0  0
    4.1181  -13.2564    0.0000 N   0  0  0  0  0  0  0  0  0  0  0  0
    4.8326  -12.8439    0.0000 C   0  0  0  0  0  0  0  0  0  0  0  0
    5.5471  -13.2564    0.0000 N   0  0  0  0  0  0  0  0  0  0  0  0
  1  2  1  0
  2  3  2  0
  2  8  1  0
  3  4  1  0
  4  5  2  0
  5  6  1  0
  6  7  1  0
  6  8  2  0
  8  9  1  0
  9 10  2  0
  9 14  1  0
 10 11  1  0
 11 12  2  0
 11 17  1  0
 12 13  1  0
 13 19  2  0
 14 15  1  0
 14 16  2  0
 16 17  1  0
 17 18  2  0
 18 19  1  0
 19 20  1  0
M  END
>  <DRUGBANK_ID>  (1) 
DB08144

>  <COMMON_NAME>  (1) 
6-(2,6-dibromophenyl)pyrido[2,3-d]pyrimidine-2,7-diamine

$$$$
