
     RDKit          2D

  6  5  0  0  0  0  0  0  0  0999 V2000
   -1.0716   -0.1509    0.0000 C   0  0  0  0  0  0  0  0  0  0  0  0
   -0.3571   -0.5634    0.0000 C   0  0  0  0  0  0  0  0  0  0  0  0
    0.3572   -0.1509    0.0000 S   0  0  0  0  0  0  0  0  0  0  0  0
    1.0716   -0.5634    0.0000 O   0  0  0  0  0  0  0  0  0  0  0  0
    0.7697    0.5634    0.0000 O   0  0  0  0  0  0  0  0  0  0  0  0
   -0.0552    0.5634    0.0000 O   0  0  0  0  0  0  0  0  0  0  0  0
  1  2  1  0
  2  3  1  0
  3  4  1  0
  5  3  2  0
  6  3  2  0
M  END
>  <DRUGBANK_ID>  (1) 
DB03635

>  <SECONDARY_ACCESSION_NUMBERS>  (1) 
EXPT01359

>  <COMMON_NAME>  (1) 
Ethanesulfonic acid

>  <CAS_NUMBER>  (1) 
594-45-6

>  <UNII>  (1) 
599310E3U2

>  <SYNONYMS>  (1) 
1-ethanesulfonic acid; 2-ethanesulfonic acid; Ethane sulphonic acid; Ethanesulphonic acid; Ethylsulfonic acid; Ethylsulphonic acid

$$$$
