00G
     RDKit          2D

 17 19  0  0  0  0  0  0  0  0999 V2000
    2.0731    0.5560    0.0000 C   0  0  0  0  0  0  0  0  0  0  0  0
    2.8801    0.7275    0.0000 C   0  0  0  0  0  0  0  0  0  0  0  0
    3.2926    0.0130    0.0000 C   0  0  0  0  0  0  0  0  0  0  0  0
    2.7405   -0.6001    0.0000 C   0  0  0  0  0  0  0  0  0  0  0  0
    1.9869   -0.2645    0.0000 N   0  0  0  0  0  0  0  0  0  0  0  0
    1.2724   -0.6770    0.0000 C   0  0  0  0  0  0  0  0  0  0  0  0
    0.5579   -0.2645    0.0000 C   0  0  0  0  0  0  0  0  0  0  0  0
   -0.1565   -0.6770    0.0000 O   0  0  0  0  0  0  0  0  0  0  0  0
   -0.8710   -0.2645    0.0000 C   0  0  0  0  0  0  0  0  0  0  0  0
   -0.8710    0.5605    0.0000 C   0  0  0  0  0  0  0  0  0  0  0  0
   -1.5855   -0.6770    0.0000 C   0  0  0  0  0  0  0  0  0  0  0  0
   -2.3000   -0.2645    0.0000 C   0  0  0  0  0  0  0  0  0  0  0  0
   -3.0846   -0.5195    0.0000 C   0  0  0  0  0  0  0  0  0  0  0  0
   -3.5695    0.1480    0.0000 C   0  0  0  0  0  0  0  0  0  0  0  0
   -3.0846    0.8154    0.0000 N   0  0  0  0  0  0  0  0  0  0  0  0
   -2.3000    0.5605    0.0000 C   0  0  0  0  0  0  0  0  0  0  0  0
   -1.5855    0.9730    0.0000 C   0  0  0  0  0  0  0  0  0  0  0  0
  1  2  2  0
  3  2  1  0
  4  3  2  0
  4  5  1  0
  5  1  1  0
  6  5  1  0
  6  7  1  0
  7  8  1  0
  8  9  1  0
  9 11  1  0
  9 10  2  0
 10 17  1  0
 11 12  2  0
 12 13  1  0
 12 16  1  0
 13 14  2  0
 14 15  1  0
 16 15  1  0
 17 16  2  0
M  END
>  <DRUGBANK_ID>  (1) 
DB06828

>  <COMMON_NAME>  (1) 
5-[2-(1H-pyrrol-1-yl)ethoxy]-1H-indole

$$$$
