
     RDKit          2D

 17 17  0  0  0  0  0  0  0  0999 V2000
    1.0683    0.6167    0.0000 C   0  0  0  0  0  0  0  0  0  0  0  0
    1.7820    1.0306    0.0000 C   0  0  0  0  0  0  0  0  0  0  0  0
    1.0698   -0.2082    0.0000 N   0  0  0  0  0  0  0  0  0  0  0  0
    1.7850   -0.6194    0.0000 C   0  0  0  0  0  0  0  0  0  0  0  0
    0.3530    1.0279    0.0000 C   0  0  0  0  0  0  0  0  0  0  0  0
    1.7805    1.8556    0.0000 O   0  0  0  0  0  0  0  0  0  0  0  0
    2.2847   -0.3297    0.0000 O   0  0  0  0  0  0  0  0  0  0  0  0
   -0.3606    0.6141    0.0000 C   0  0  0  0  0  0  0  0  0  0  0  0
    2.4972    0.6194    0.0000 O   0  0  0  0  0  0  0  0  0  0  0  0
   -1.7881   -0.2135    0.0000 C   0  0  0  0  0  0  0  0  0  0  0  0
    2.5018   -1.8556    0.0000 N   0  0  0  0  0  0  0  0  0  0  0  0
   -1.0758    1.0253    0.0000 C   0  0  0  0  0  0  0  0  0  0  0  0
   -0.3591   -0.2108    0.0000 C   0  0  0  0  0  0  0  0  0  0  0  0
   -1.0728   -0.6247    0.0000 C   0  0  0  0  0  0  0  0  0  0  0  0
   -1.7896    0.6115    0.0000 C   0  0  0  0  0  0  0  0  0  0  0  0
   -2.5018   -0.6272    0.0000 O   0  0  0  0  0  0  0  0  0  0  0  0
    1.7866   -1.4444    0.0000 C   0  0  0  0  0  0  0  0  0  0  0  0
  1  3  1  0
  2  1  1  0
  4  3  1  0
  1  5  1  1
  6  2  1  0
  7  4  2  0
  8  5  1  0
  9  2  2  0
 10 14  1  0
 11 17  1  0
 12  8  2  0
 13  8  1  0
 14 13  2  0
 15 12  1  0
 15 10  2  0
 16 10  1  0
 17  4  1  0
M  END
>  <DRUGBANK_ID>  (1) 
DB15991

>  <COMMON_NAME>  (1) 
Glycyltyrosine

>  <CAS_NUMBER>  (1) 
658-79-7

>  <UNII>  (1) 
A226496H4O

$$$$
