NIU
     RDKit          2D

 22 24  0  0  0  0  0  0  0  0999 V2000
   -0.6139   -0.4904    0.0000 C   0  0  0  0  0  0  0  0  0  0  0  0
   -0.6139   -1.3154    0.0000 C   0  0  0  0  0  0  0  0  0  0  0  0
   -1.3284   -1.7279    0.0000 O   0  0  0  0  0  0  0  0  0  0  0  0
    0.1005   -1.7279    0.0000 O   0  0  0  0  0  0  0  0  0  0  0  0
    0.8150   -1.3154    0.0000 C   0  0  0  0  0  0  0  0  0  0  0  0
    0.8150   -0.4904    0.0000 C   0  0  0  0  0  0  0  0  0  0  0  0
    0.1005   -0.0779    0.0000 C   0  0  0  0  0  0  0  0  0  0  0  0
    0.1005    0.7471    0.0000 O   0  0  0  0  0  0  0  0  0  0  0  0
   -1.3284    0.7471    0.0000 C   0  0  0  0  0  0  0  0  0  0  0  0
   -2.0429    1.1596    0.0000 C   0  0  0  0  0  0  0  0  0  0  0  0
   -2.0429    1.9846    0.0000 C   0  0  0  0  0  0  0  0  0  0  0  0
   -1.3284    2.3971    0.0000 C   0  0  0  0  0  0  0  0  0  0  0  0
   -0.6139    1.9846    0.0000 C   0  0  0  0  0  0  0  0  0  0  0  0
   -0.6139    1.1596    0.0000 C   0  0  0  0  0  0  0  0  0  0  0  0
   -1.3284   -0.0779    0.0000 C   0  0  0  0  0  0  0  0  0  0  0  0
   -2.0429   -0.4904    0.0000 C   0  0  0  0  0  0  0  0  0  0  0  0
   -2.7574   -0.0779    0.0000 C   0  0  0  0  0  0  0  0  0  0  0  0
    1.4600   -1.8298    0.0000 C   0  0  0  0  0  0  0  0  0  0  0  0
    2.2643   -1.6462    0.0000 C   0  0  0  0  0  0  0  0  0  0  0  0
    2.6223   -0.9029    0.0000 C   0  0  0  0  0  0  0  0  0  0  0  0
    2.2643   -0.1596    0.0000 C   0  0  0  0  0  0  0  0  0  0  0  0
    1.4600    0.0239    0.0000 C   0  0  0  0  0  0  0  0  0  0  0  0
  1  2  1  0
  1  7  2  0
  1 15  1  0
  2  3  2  0
  2  4  1  0
  4  5  1  0
  5  6  2  0
  5 18  1  0
  6  7  1  0
  6 22  1  0
  7  8  1  0
  9 10  2  0
  9 14  1  0
  9 15  1  0
 10 11  1  0
 11 12  2  0
 12 13  1  0
 13 14  2  0
 15 16  1  1
 16 17  1  0
 18 19  1  0
 19 20  1  0
 20 21  1  0
 21 22  1  0
M  END
>  <DRUGBANK_ID>  (1) 
DB08274

>  <COMMON_NAME>  (1) 
6,7,8,9-TETRAHYDRO-4-HYDROXY-3-(1-PHENYLPROPYL)CYCLOHEPTA[B]PYRAN-2-ONE

$$$$
