
     RDKit          2D

 19 21  0  0  1  0  0  0  0  0999 V2000
   -0.6284   -0.6979    0.0000 C   0  0  0  0  0  0  0  0  0  0  0  0
   -0.1435   -1.3654    0.0000 C   0  0  0  0  0  0  0  0  0  0  0  0
    0.6411   -1.1104    0.0000 C   0  0  0  0  0  0  0  0  0  0  0  0
    0.6411   -0.2854    0.0000 C   0  0  0  0  0  0  0  0  0  0  0  0
   -0.1435   -0.0305    0.0000 N   0  0  0  0  0  0  0  0  0  0  0  0
    1.3556    0.1271    0.0000 C   0  0  0  0  0  0  0  0  0  0  0  0
    1.3556    0.9521    0.0000 O   0  0  0  0  0  0  0  0  0  0  0  0
    2.0701   -0.2854    0.0000 N   0  0  0  0  0  0  0  0  0  0  0  0
    2.0701   -1.1104    0.0000 C   0  0  0  0  0  0  0  0  0  0  0  0
    1.3556   -1.5229    0.0000 N   0  0  0  0  0  0  0  0  0  0  0  0
   -0.3984   -2.1500    0.0000 C   0  0  0  0  0  0  0  0  0  0  0  0
   -1.2054   -2.3215    0.0000 N   0  0  0  0  0  0  0  0  0  0  0  0
   -1.5410   -3.0752    0.0000 C   0  0  0  0  0  0  0  0  0  0  0  0
   -2.3615   -2.9890    0.0000 C   0  0  0  0  0  0  0  0  0  0  0  0
   -2.5330   -2.1820    0.0000 C   0  0  0  0  0  0  0  0  0  0  0  0
   -1.8185   -1.7695    0.0000 C   0  0  0  0  0  0  0  0  0  0  0  0
   -3.2867   -1.8464    0.0000 O   0  0  0  0  0  0  0  0  0  0  0  0
   -2.9135   -3.6021    0.0000 C   0  0  0  0  0  0  0  0  0  0  0  0
   -2.6586   -4.3867    0.0000 O   0  0  0  0  0  0  0  0  0  0  0  0
  1  2  2  0
  1  5  1  0
  2  3  1  0
  2 11  1  0
  3  4  2  0
  3 10  1  0
  4  5  1  0
  4  6  1  0
  6  7  2  0
  6  8  1  0
  8  9  1  0
  9 10  2  0
 11 12  1  0
 12 13  1  0
 12 16  1  0
 13 14  1  0
 14 15  1  0
 14 18  1  6
 15 16  1  0
 15 17  1  1
 18 19  1  0
M  END
>  <DRUGBANK_ID>  (1) 
DB12353

>  <SECONDARY_ACCESSION_NUMBERS>  (1) 
DB05568

>  <COMMON_NAME>  (1) 
Ulodesine

>  <CAS_NUMBER>  (1) 
548486-59-5

>  <UNII>  (1) 
JNG8L9460Y

>  <SYNONYMS>  (1) 
4H-PYRROLO(3,2-D)PYRIMIDIN-4-ONE, 1,5-DIHYDRO-7-(((3R,4R)-3-HYDROXY-4-(HYDROXYMETHYL)-1-PYRROLIDINYL)METHYL)-; 7-(((3R,4R)-3-HYDROXY-4-(HYDROXYMETHYL)PYRROLIDIN-1-YL)METHYL(-1,5-DIHYDRO-4H-PYRROLO(3,2-D)PYRIMIDIN-4-ONE; 7-(((3R,4R)-3-HYDROXY-4-(HYDROXYMETHYL)PYRROLIDIN-1-YL)METHYL)-3,5-DIHYDRO-4H-PYRROLO(3,2-D)PYRIMIDIN-4-ONE; DADME-IMMUCILLIN H; Ulodesine

$$$$
