
     RDKit          2D

 23 23  0  0  0  0  0  0  0  0999 V2000
    0.0000   -0.8250    0.0000 C   0  0  0  0  0  0  0  0  0  0  0  0
    4.2868    1.6500    0.0000 C   0  0  0  0  0  0  0  0  0  0  0  0
    1.4289   -2.4750    0.0000 C   0  0  0  0  0  0  0  0  0  0  0  0
    2.8579   -0.8250    0.0000 C   0  0  0  0  0  0  0  0  0  0  0  0
    2.8579   -2.4750    0.0000 C   0  0  0  0  0  0  0  0  0  0  0  0
    0.7145   -1.2375    0.0000 C   0  0  0  0  0  0  0  0  0  0  0  0
    3.5724    1.2375    0.0000 C   0  0  0  0  0  0  0  0  0  0  0  0
    2.1434   -2.0625    0.0000 C   0  0  0  0  0  0  0  0  0  0  0  0
    2.1434   -1.2375    0.0000 C   0  0  0  0  0  0  0  0  0  0  0  0
    3.5724    0.4125    0.0000 C   0  0  0  0  0  0  0  0  0  0  0  0
    1.4289   -0.8250    0.0000 C   0  0  0  0  0  0  0  0  0  0  0  0
    4.2868    0.0000    0.0000 C   0  0  0  0  0  0  0  0  0  0  0  0
    0.7145   -2.0625    0.0000 N   0  0  0  0  0  0  0  0  0  0  0  0
    2.8579    0.0000    0.0000 N   0  0  0  0  0  0  0  0  0  0  0  0
    2.8579    1.6500    0.0000 O   0  0  0  0  0  0  0  0  0  0  0  0
    1.4289    0.0000    0.0000 O   0  0  0  0  0  0  0  0  0  0  0  0
    5.0013    0.4125    0.0000 O   0  0  0  0  0  0  0  0  0  0  0  0
    4.2868   -0.8250    0.0000 O   0  0  0  0  0  0  0  0  0  0  0  0
    4.2868   -4.1250    0.0000 O   0  0  0  0  0  0  0  0  0  0  0  0
    3.1599   -4.4270    0.0000 O   0  0  0  0  0  0  0  0  0  0  0  0
    3.9849   -2.9980    0.0000 O   0  0  0  0  0  0  0  0  0  0  0  0
    2.8579   -3.3000    0.0000 O   0  0  0  0  0  0  0  0  0  0  0  0
    3.5724   -3.7125    0.0000 P   0  0  0  0  0  0  0  0  0  0  0  0
  6  1  1  0
  7  2  1  0
  8  3  2  0
  8  5  1  0
  9  4  1  0
  9  8  1  0
 10  7  1  0
 11  6  1  0
 11  9  2  0
 12 10  1  0
 13  3  1  0
 13  6  2  0
 14  4  1  0
 14 10  1  0
 15  7  1  0
 16 11  1  0
 17 12  2  0
 18 12  1  0
 22  5  1  0
 23 19  1  0
 23 20  1  0
 23 21  2  0
 23 22  1  0
M  END
>  <DRUGBANK_ID>  (1) 
DB03576

>  <SECONDARY_ACCESSION_NUMBERS>  (1) 
EXPT03066

>  <COMMON_NAME>  (1) 
N-Pyridoxyl-Threonine-5-Monophosphate

$$$$
