
     RDKit          2D

 26 27  0  0  0  0  0  0  0  0999 V2000
    3.5195   -6.0490    0.0000 C   0  0  0  0  0  0  0  0  0  0  0  0
    2.8050   -6.4615    0.0000 C   0  0  0  0  0  0  0  0  0  0  0  0
    2.8050   -7.2865    0.0000 C   0  0  0  0  0  0  0  0  0  0  0  0
    3.5195   -7.6990    0.0000 C   0  0  0  0  0  0  0  0  0  0  0  0
    4.2340   -7.2865    0.0000 C   0  0  0  0  0  0  0  0  0  0  0  0
    4.2340   -6.4615    0.0000 C   0  0  0  0  0  0  0  0  0  0  0  0
    4.9484   -6.0490    0.0000 C   0  0  0  0  0  0  0  0  0  0  0  0
    5.6629   -6.4615    0.0000 C   0  0  0  0  0  0  0  0  0  0  0  0
    6.3774   -6.0490    0.0000 C   0  0  0  0  0  0  0  0  0  0  0  0
    7.0918   -6.4615    0.0000 C   0  0  0  0  0  0  0  0  0  0  0  0
    7.8063   -6.0490    0.0000 C   0  0  0  0  0  0  0  0  0  0  0  0
    8.5208   -4.8115    0.0000 C   0  0  0  0  0  0  0  0  0  0  0  0
    7.8063   -5.2240    0.0000 C   0  0  0  0  0  0  0  0  0  0  0  0
    8.5208   -6.4615    0.0000 C   0  0  0  0  0  0  0  0  0  0  0  0
    9.2353   -6.0490    0.0000 C   0  0  0  0  0  0  0  0  0  0  0  0
    9.2353   -5.2240    0.0000 C   0  0  0  0  0  0  0  0  0  0  0  0
    8.5208   -3.9865    0.0000 O   0  0  0  0  0  0  0  0  0  0  0  0
    9.2353   -3.5740    0.0000 C   0  0  0  0  0  0  0  0  0  0  0  0
    9.9497   -4.8115    0.0000 O   0  0  0  0  0  0  0  0  0  0  0  0
    6.3774   -5.2240    0.0000 C   0  0  0  0  0  0  0  0  0  0  0  0
    7.0919   -4.8115    0.0000 O   0  0  0  0  0  0  0  0  0  0  0  0
    5.6629   -7.2865    0.0000 C   0  0  0  0  0  0  0  0  0  0  0  0
    4.9484   -7.6990    0.0000 O   0  0  0  0  0  0  0  0  0  0  0  0
    3.5195   -8.5240    0.0000 O   0  0  0  0  0  0  0  0  0  0  0  0
    2.8050   -8.9365    0.0000 C   0  0  0  0  0  0  0  0  0  0  0  0
    2.0906   -7.6990    0.0000 O   0  0  0  0  0  0  0  0  0  0  0  0
  1  2  2  0
  1  6  1  0
  2  3  1  0
  3  4  2  0
  3 26  1  0
  4  5  1  0
  4 24  1  0
  5  6  2  0
  6  7  1  0
  8  7  1  6
  8  9  1  0
  8 22  1  0
  9 10  1  6
  9 20  1  0
 10 11  1  0
 11 14  2  0
 12 13  2  0
 12 16  1  0
 12 17  1  0
 13 11  1  0
 14 15  1  0
 15 16  2  0
 16 19  1  0
 17 18  1  0
 20 21  1  0
 22 23  1  0
 24 25  1  0
M  END
>  <DRUGBANK_ID>  (1) 
DB12179

>  <COMMON_NAME>  (1) 
Secoisolariciresinol

>  <CAS_NUMBER>  (1) 
29388-59-8

>  <UNII>  (1) 
M8QRJ7JEJH

$$$$
