IID
     RDKit          2D

 30 33  0  0  0  0  0  0  0  0999 V2000
    3.1531    0.8766    0.0000 C   0  0  0  0  0  0  0  0  0  0  0  0
    2.4386    0.4641    0.0000 C   0  0  0  0  0  0  0  0  0  0  0  0
    1.7241    0.8766    0.0000 C   0  0  0  0  0  0  0  0  0  0  0  0
    1.7241    1.7016    0.0000 C   0  0  0  0  0  0  0  0  0  0  0  0
    2.4386    2.1141    0.0000 C   0  0  0  0  0  0  0  0  0  0  0  0
    3.1531    1.7016    0.0000 C   0  0  0  0  0  0  0  0  0  0  0  0
    0.9395    0.6217    0.0000 N   0  0  0  0  0  0  0  0  0  0  0  0
    0.4546    1.2891    0.0000 C   0  0  0  0  0  0  0  0  0  0  0  0
    0.9395    1.9566    0.0000 C   0  0  0  0  0  0  0  0  0  0  0  0
   -0.3704    1.2891    0.0000 C   0  0  0  0  0  0  0  0  0  0  0  0
   -0.7829    0.5747    0.0000 N   0  0  0  0  0  0  0  0  0  0  0  0
   -1.6079    0.5747    0.0000 C   0  0  0  0  0  0  0  0  0  0  0  0
   -2.0204   -0.1398    0.0000 C   0  0  0  0  0  0  0  0  0  0  0  0
    0.6845   -0.1629    0.0000 C   0  0  0  0  0  0  0  0  0  0  0  0
    1.2366   -0.7760    0.0000 C   0  0  0  0  0  0  0  0  0  0  0  0
    2.0436   -0.6045    0.0000 C   0  0  0  0  0  0  0  0  0  0  0  0
    2.5956   -1.2176    0.0000 C   0  0  0  0  0  0  0  0  0  0  0  0
    2.3406   -2.0022    0.0000 C   0  0  0  0  0  0  0  0  0  0  0  0
    1.5337   -2.1737    0.0000 C   0  0  0  0  0  0  0  0  0  0  0  0
    0.9816   -1.5606    0.0000 C   0  0  0  0  0  0  0  0  0  0  0  0
   -2.8454   -0.1398    0.0000 C   0  0  0  0  0  0  0  0  0  0  0  0
    1.2787   -2.9584    0.0000 O   0  0  0  0  0  0  0  0  0  0  0  0
   -0.7829    2.0036    0.0000 O   0  0  0  0  0  0  0  0  0  0  0  0
    1.8308   -3.5715    0.0000 C   0  0  0  0  0  0  0  0  0  0  0  0
   -2.0204    1.2891    0.0000 C   0  0  0  0  0  0  0  0  0  0  0  0
   -2.8454    1.2891    0.0000 C   0  0  0  0  0  0  0  0  0  0  0  0
   -3.2579    0.5747    0.0000 N   0  0  0  0  0  0  0  0  0  0  0  0
   -4.0829    0.5747    0.0000 C   0  0  0  0  0  0  0  0  0  0  0  0
   -4.4954   -0.1398    0.0000 C   0  0  0  0  0  0  0  0  0  0  0  0
   -4.4954    1.2891    0.0000 C   0  0  0  0  0  0  0  0  0  0  0  0
  1  2  2  0
  1  6  1  0
  2  3  1  0
  3  4  2  0
  3  7  1  0
  4  5  1  0
  4  9  1  0
  5  6  2  0
  7  8  1  0
  7 14  1  0
  8  9  2  0
  8 10  1  0
 10 11  1  0
 10 23  2  0
 11 12  1  0
 12 13  1  0
 12 25  1  0
 13 21  1  0
 14 15  1  0
 15 16  2  0
 15 20  1  0
 16 17  1  0
 17 18  2  0
 18 19  1  0
 19 20  2  0
 19 22  1  0
 21 27  1  0
 22 24  1  0
 25 26  1  0
 26 27  1  0
 27 28  1  0
 28 29  1  0
 28 30  1  0
M  END
>  <DRUGBANK_ID>  (1) 
DB07973

>  <COMMON_NAME>  (1) 
N-(1-ISOPROPYLPIPERIDIN-4-YL)-1-(3-METHOXYBENZYL)-1H-INDOLE-2-CARBOXAMIDE

$$$$
