
     RDKit          2D

 41 44  0  0  0  0  0  0  0  0999 V2000
   -4.8879    6.1914    0.0000 C   0  0  0  0  0  0  0  0  0  0  0  0
   -4.9038    5.3666    0.0000 C   0  0  0  0  0  0  0  0  0  0  0  0
   -4.1975    4.9403    0.0000 C   0  0  0  0  0  0  0  0  0  0  0  0
   -4.2134    4.1155    0.0000 C   0  0  0  0  0  0  0  0  0  0  0  0
   -3.5070    3.6893    0.0000 O   0  0  0  0  0  0  0  0  0  0  0  0
   -3.5230    2.8644    0.0000 C   0  0  0  0  0  0  0  0  0  0  0  0
   -2.8166    2.4382    0.0000 N   0  0  0  0  0  0  0  0  0  0  0  0
   -2.8325    1.6134    0.0000 C   0  0  0  0  0  0  0  0  0  0  0  0
   -3.5548    1.2147    0.0000 C   0  0  0  0  0  0  0  0  0  0  0  0
   -3.3989    0.4046    0.0000 N   0  0  0  0  0  0  0  0  0  0  0  0
   -2.5803    0.3025    0.0000 C   0  0  0  0  0  0  0  0  0  0  0  0
   -2.1816   -0.4198    0.0000 O   0  0  0  0  0  0  0  0  0  0  0  0
   -2.2302    1.0496    0.0000 N   0  0  0  0  0  0  0  0  0  0  0  0
   -1.4201    1.2055    0.0000 C   0  0  0  0  0  0  0  0  0  0  0  0
   -1.1500    1.9851    0.0000 C   0  0  0  0  0  0  0  0  0  0  0  0
   -0.3399    2.1410    0.0000 C   0  0  0  0  0  0  0  0  0  0  0  0
    0.2002    1.5173    0.0000 N   0  0  0  0  0  0  0  0  0  0  0  0
    1.0103    1.6732    0.0000 C   0  0  0  0  0  0  0  0  0  0  0  0
    1.5504    1.0496    0.0000 C   0  0  0  0  0  0  0  0  0  0  0  0
    2.3606    1.2055    0.0000 C   0  0  0  0  0  0  0  0  0  0  0  0
    2.9006    0.5819    0.0000 N   0  0  0  0  0  0  0  0  0  0  0  0
    3.7108    0.7378    0.0000 C   0  0  0  0  0  0  0  0  0  0  0  0
    4.2509    0.1141    0.0000 C   0  0  0  0  0  0  0  0  0  0  0  0
    3.9808   -0.6654    0.0000 O   0  0  0  0  0  0  0  0  0  0  0  0
    3.1707   -0.8213    0.0000 C   0  0  0  0  0  0  0  0  0  0  0  0
    2.6306   -0.1977    0.0000 C   0  0  0  0  0  0  0  0  0  0  0  0
   -0.0698    0.7378    0.0000 C   0  0  0  0  0  0  0  0  0  0  0  0
    0.4702    0.1141    0.0000 C   0  0  0  0  0  0  0  0  0  0  0  0
    1.2804    0.2700    0.0000 C   0  0  0  0  0  0  0  0  0  0  0  0
    1.8205   -0.3536    0.0000 C   0  0  0  0  0  0  0  0  0  0  0  0
    1.5504   -1.1331    0.0000 C   0  0  0  0  0  0  0  0  0  0  0  0
    0.7403   -1.2891    0.0000 C   0  0  0  0  0  0  0  0  0  0  0  0
    0.4702   -2.0686    0.0000 C   0  0  0  0  0  0  0  0  0  0  0  0
    1.0103   -2.6923    0.0000 C   0  0  0  0  0  0  0  0  0  0  0  0
    1.8205   -2.5363    0.0000 O   0  0  0  0  0  0  0  0  0  0  0  0
    0.7403   -3.4718    0.0000 O   0  0  0  0  0  0  0  0  0  0  0  0
    1.2804   -4.0954    0.0000 C   0  0  0  0  0  0  0  0  0  0  0  0
    0.2002   -0.6654    0.0000 C   0  0  0  0  0  0  0  0  0  0  0  0
   -4.2612    1.6410    0.0000 C   0  0  0  0  0  0  0  0  0  0  0  0
   -4.9835    1.2423    0.0000 N   0  0  0  0  0  0  0  0  0  0  0  0
   -4.2453    2.4658    0.0000 N   0  0  0  0  0  0  0  0  0  0  0  0
  1  2  1  0
  2  3  1  0
  3  4  1  0
  4  5  1  0
  5  6  1  0
  6  7  2  0
  6 41  1  0
  7  8  1  0
  8  9  2  0
  8 13  1  0
  9 10  1  0
  9 39  1  0
 10 11  1  0
 11 12  2  0
 11 13  1  0
 13 14  1  0
 14 15  1  0
 15 16  1  0
 16 17  1  0
 17 18  1  0
 17 27  1  0
 18 19  1  0
 19 20  1  0
 20 21  1  0
 21 22  1  0
 21 26  1  0
 22 23  1  0
 23 24  1  0
 24 25  1  0
 25 26  1  0
 27 28  1  0
 28 29  2  0
 28 38  1  0
 29 30  1  0
 30 31  2  0
 31 32  1  0
 32 33  1  0
 32 38  2  0
 33 34  1  0
 34 35  2  0
 34 36  1  0
 36 37  1  0
 39 40  1  0
 39 41  2  0
M  END
>  <DRUGBANK_ID>  (1) 
DB14868

>  <COMMON_NAME>  (1) 
AZD-8848

>  <CAS_NUMBER>  (1) 
866269-28-5

>  <UNII>  (1) 
322ZMR6920

$$$$
