C27
     RDKit          2D

 26 28  0  0  0  0  0  0  0  0999 V2000
    3.5186    1.7782    0.0000 C   0  0  0  0  0  0  0  0  0  0  0  0
    2.8041    1.3657    0.0000 O   0  0  0  0  0  0  0  0  0  0  0  0
    2.8041    0.5407    0.0000 C   0  0  0  0  0  0  0  0  0  0  0  0
    3.5186    0.1282    0.0000 C   0  0  0  0  0  0  0  0  0  0  0  0
    3.5186   -0.6968    0.0000 C   0  0  0  0  0  0  0  0  0  0  0  0
    2.8041   -1.1093    0.0000 C   0  0  0  0  0  0  0  0  0  0  0  0
    2.0896   -0.6968    0.0000 C   0  0  0  0  0  0  0  0  0  0  0  0
    2.0896    0.1282    0.0000 C   0  0  0  0  0  0  0  0  0  0  0  0
    1.3751   -1.1093    0.0000 C   0  0  0  0  0  0  0  0  0  0  0  0
    1.3751   -1.9343    0.0000 C   0  0  0  0  0  0  0  0  0  0  0  0
    0.6607   -2.3468    0.0000 C   0  0  0  0  0  0  0  0  0  0  0  0
   -0.0538   -1.9343    0.0000 C   0  0  0  0  0  0  0  0  0  0  0  0
   -0.0538   -1.1093    0.0000 C   0  0  0  0  0  0  0  0  0  0  0  0
   -0.7683   -0.6968    0.0000 C   0  0  0  0  0  0  0  0  0  0  0  0
   -0.7683    0.1282    0.0000 C   0  0  0  0  0  0  0  0  0  0  0  0
   -1.4827    0.5407    0.0000 C   0  0  0  0  0  0  0  0  0  0  0  0
   -0.9524    1.1727    0.0000 C   0  0  0  0  0  0  0  0  0  0  0  0
   -1.7649   -0.2345    0.0000 C   0  0  0  0  0  0  0  0  0  0  0  0
   -2.5774   -0.3778    0.0000 C   0  0  0  0  0  0  0  0  0  0  0  0
   -2.8595   -1.1530    0.0000 O   0  0  0  0  0  0  0  0  0  0  0  0
   -3.1077    0.2542    0.0000 N   0  0  0  0  0  0  0  0  0  0  0  0
   -3.9201    0.1110    0.0000 C   0  0  0  0  0  0  0  0  0  0  0  0
   -2.8255    1.0295    0.0000 C   0  0  0  0  0  0  0  0  0  0  0  0
   -2.0130    1.1727    0.0000 N   0  0  0  0  0  0  0  0  0  0  0  0
   -3.3558    1.6614    0.0000 N   0  0  0  0  0  0  0  0  0  0  0  0
    0.6607   -0.6968    0.0000 C   0  0  0  0  0  0  0  0  0  0  0  0
  1  2  1  0
  2  3  1  0
  3  4  2  0
  3  8  1  0
  4  5  1  0
  5  6  2  0
  6  7  1  0
  7  8  2  0
  7  9  1  0
  9 10  2  0
  9 26  1  0
 10 11  1  0
 11 12  2  0
 12 13  1  0
 13 14  1  0
 13 26  2  0
 14 15  1  0
 16 15  1  0
 16 17  1  1
 16 18  1  0
 16 24  1  0
 18 19  1  0
 19 20  2  0
 19 21  1  0
 21 22  1  0
 21 23  1  0
 23 24  2  0
 23 25  1  0
M  END
>  <DRUGBANK_ID>  (1) 
DB07519

>  <COMMON_NAME>  (1) 
(6R)-2-amino-6-[2-(3'-methoxybiphenyl-3-yl)ethyl]-3,6-dimethyl-5,6-dihydropyrimidin-4(3H)-one

$$$$
