
     RDKit          2D

  1  0  0  0  0  0  0  0  0  0999 V2000
    1.5395    0.4125    0.0000 Se  0  0  0  0  0 15  0  0  0  0  0  0
M  END
>  <DRUGBANK_ID>  (1) 
DB11135

>  <COMMON_NAME>  (1) 
Selenium

>  <CAS_NUMBER>  (1) 
7782-49-2

>  <UNII>  (1) 
H6241UJ22B

>  <SYNONYMS>  (1) 
Selen; Selenio; Sélénium; Selenium elemental; Selenium metallicum; Selenium, elemental

$$$$
