
     RDKit          2D

 14 13  0  0  0  0  0  0  0  0999 V2000
    2.5005    0.8249    0.0000 O   0  0  0  0  0  0  0  0  0  0  0  0
    2.5005    0.0000    0.0000 C   0  0  0  0  0  0  0  0  0  0  0  0
    3.2150   -0.4125    0.0000 O   0  0  0  0  0  0  0  0  0  0  0  0
    1.7862   -0.4125    0.0000 C   0  0  0  0  0  0  0  0  0  0  0  0
    1.7862   -1.2374    0.0000 N   0  0  0  0  0  0  0  0  0  0  0  0
    1.0717    0.0000    0.0000 C   0  0  0  0  0  0  0  0  0  0  0  0
    0.3572   -0.4125    0.0000 C   0  0  0  0  0  0  0  0  0  0  0  0
   -0.3571    0.0000    0.0000 C   0  0  0  0  0  0  0  0  0  0  0  0
   -1.0716   -0.4125    0.0000 N   0  0  0  0  0  0  0  0  0  0  0  0
   -1.7861    0.0000    0.0000 C   0  0  0  0  0  0  0  0  0  0  0  0
   -1.7861    0.8249    0.0000 N   0  0  0  0  0  0  0  0  0  0  0  0
   -2.5005   -0.4125    0.0000 N   0  0  0  0  0  0  0  0  0  0  0  0
   -1.0716    1.2374    0.0000 C   0  0  0  0  0  0  0  0  0  0  0  0
   -3.2150    0.0000    0.0000 C   0  0  0  0  0  0  0  0  0  0  0  0
  2  1  2  0
  3  2  1  0
  4  2  1  0
  4  5  1  1
  6  4  1  0
  7  6  1  0
  7  8  1  0
  9  8  1  0
 10  9  1  0
 11 10  2  0
 11 13  1  0
 12 10  1  0
 12 14  1  0
M  END
>  <DRUGBANK_ID>  (1) 
DB02302

>  <SECONDARY_ACCESSION_NUMBERS>  (1) 
EXPT00132

>  <COMMON_NAME>  (1) 
Symmetric dimethylarginine

>  <CAS_NUMBER>  (1) 
30344-00-4

>  <UNII>  (1) 
49787G1ULV

>  <SYNONYMS>  (1) 
(S)-2-amino-5-(N',N''-dimethylguanidino)pentanoic acid; Guanidino-N(1),N(2)-dimethylarginine; N(G1),N(G2)-Dimethylarginine; N3,N4-dimethyl-L-arginine; N3,N4-dimethylarginine; NG,N'G-dimethylarginine; SDMA

$$$$
