
     RDKit          2D

 30 33  0  0  0  0  0  0  0  0999 V2000
    4.7842   -0.8901    0.0000 Cl  0  0  0  0  0  0  0  0  0  0  0  0
    4.0697   -1.3027    0.0000 C   0  0  0  0  0  0  0  0  0  0  0  0
    4.0697   -2.1277    0.0000 C   0  0  0  0  0  0  0  0  0  0  0  0
    3.3553   -2.5402    0.0000 C   0  0  0  0  0  0  0  0  0  0  0  0
    2.6408   -2.1277    0.0000 C   0  0  0  0  0  0  0  0  0  0  0  0
    1.8562   -2.3826    0.0000 N   0  0  0  0  0  0  0  0  0  0  0  0
    2.6408   -1.3027    0.0000 C   0  0  0  0  0  0  0  0  0  0  0  0
    3.3553   -0.8901    0.0000 C   0  0  0  0  0  0  0  0  0  0  0  0
    1.8562   -1.0477    0.0000 C   0  0  0  0  0  0  0  0  0  0  0  0
    1.3713   -1.7152    0.0000 C   0  0  0  0  0  0  0  0  0  0  0  0
    0.5463   -1.7152    0.0000 S   0  0  0  0  0  0  0  0  0  0  0  0
    0.5463   -0.8901    0.0000 O   0  0  0  0  0  0  0  0  0  0  0  0
    0.5463   -2.5402    0.0000 O   0  0  0  0  0  0  0  0  0  0  0  0
   -0.2786   -1.7152    0.0000 N   0  0  0  0  0  0  0  0  0  0  0  0
   -0.6911   -1.0006    0.0000 C   0  0  0  0  0  0  0  0  0  0  0  0
   -1.5116   -0.9145    0.0000 C   0  0  0  0  0  0  0  0  0  0  0  0
   -2.0637   -1.5274    0.0000 O   0  0  0  0  0  0  0  0  0  0  0  0
   -0.3556   -0.2470    0.0000 C   0  0  0  0  0  0  0  0  0  0  0  0
   -0.9687    0.3050    0.0000 C   0  0  0  0  0  0  0  0  0  0  0  0
   -1.6832   -0.1074    0.0000 N   0  0  0  0  0  0  0  0  0  0  0  0
   -2.4368    0.2281    0.0000 C   0  0  0  0  0  0  0  0  0  0  0  0
   -3.1044   -0.2567    0.0000 C   0  0  0  0  0  0  0  0  0  0  0  0
   -2.5231    1.0486    0.0000 C   0  0  0  0  0  0  0  0  0  0  0  0
   -1.8556    1.5335    0.0000 O   0  0  0  0  0  0  0  0  0  0  0  0
   -3.2767    1.3841    0.0000 N   0  0  0  0  0  0  0  0  0  0  0  0
   -3.3631    2.2046    0.0000 C   0  0  0  0  0  0  0  0  0  0  0  0
   -4.1167    2.5402    0.0000 C   0  0  0  0  0  0  0  0  0  0  0  0
   -4.7842    2.0552    0.0000 O   0  0  0  0  0  0  0  0  0  0  0  0
   -4.6979    1.2347    0.0000 C   0  0  0  0  0  0  0  0  0  0  0  0
   -3.9443    0.8992    0.0000 C   0  0  0  0  0  0  0  0  0  0  0  0
  2  1  1  0
  2  3  2  0
  4  3  1  0
  4  5  2  0
  5  6  1  0
  7  5  1  0
  8  2  1  0
  8  7  2  0
  9  7  1  0
 10  6  1  0
 10  9  2  0
 10 11  1  0
 12 11  2  0
 13 11  2  0
 14 11  1  0
 15 14  1  6
 15 16  1  0
 15 18  1  0
 16 17  2  0
 16 20  1  0
 18 19  1  0
 19 20  1  0
 21 20  1  0
 21 22  1  1
 21 23  1  0
 23 24  2  0
 23 25  1  0
 26 25  1  0
 26 27  1  0
 27 28  1  0
 29 28  1  0
 30 25  1  0
 30 29  1  0
M  END
>  <DRUGBANK_ID>  (1) 
DB07848

>  <COMMON_NAME>  (1) 
5-Chloro-N-{(3S)-1-[(2S)-1-(4-morpholinyl)-1-oxo-2-propanyl]-2-oxo-3-pyrrolidinyl}-1H-indole-2-sulfonamide

$$$$
