
     RDKit          2D

 20 18  0  0  1  0  0  0  0  0999 V2000
   -1.5004    1.1963    0.0000 C   0  0  0  0  0  0  0  0  0  0  0  0
   -0.7859    0.7837    0.0000 C   0  0  0  0  0  0  0  0  0  0  0  0
   -0.0714    1.1963    0.0000 O   0  0  0  0  0  0  0  0  0  0  0  0
   -0.7859   -0.0413    0.0000 N   0  0  0  0  0  0  0  0  0  0  0  0
   -0.0714   -0.4538    0.0000 C   0  0  0  0  0  0  0  0  0  0  0  0
   -0.0714   -1.2788    0.0000 C   0  0  0  0  0  0  0  0  0  0  0  0
    0.6430   -1.6913    0.0000 S   0  0  0  0  0  0  0  0  0  0  0  0
    0.6430   -0.0412    0.0000 C   0  0  0  0  0  0  0  0  0  0  0  0
    0.6430    0.7838    0.0000 O   0  0  0  0  0  0  0  0  0  0  0  0
    1.3575   -0.4538    0.0000 O   0  0  0  0  0  0  0  0  0  0  0  0
    3.7146   -0.2062    0.0000 N   0  0  0  0  0  0  0  0  0  0  0  0
    4.4291    0.2063    0.0000 C   0  0  0  0  0  0  0  0  0  0  0  0
    5.1436   -0.2063    0.0000 C   0  0  0  0  0  0  0  0  0  0  0  0
    5.8581    0.2062    0.0000 C   0  0  0  0  0  0  0  0  0  0  0  0
    6.5725   -0.2063    0.0000 C   0  0  0  0  0  0  0  0  0  0  0  0
    7.2870    0.2062    0.0000 C   0  0  0  0  0  0  0  0  0  0  0  0
    7.2870    1.0312    0.0000 N   0  0  0  0  0  0  0  0  0  0  0  0
    8.0015   -0.2063    0.0000 C   0  0  0  0  0  0  0  0  0  0  0  0
    8.7159    0.2062    0.0000 O   0  0  0  0  0  0  0  0  0  0  0  0
    8.0015   -1.0313    0.0000 O   0  0  0  0  0  0  0  0  0  0  0  0
  1  2  1  0
  2  3  2  0
  2  4  1  0
  5  4  1  0
  5  6  1  6
  5  8  1  0
  6  7  1  0
  8  9  1  0
  8 10  2  0
 11 12  1  0
 12 13  1  0
 13 14  1  0
 14 15  1  0
 16 15  1  0
 16 17  1  6
 16 18  1  0
 18 19  1  0
 18 20  2  0
M  END
>  <DRUGBANK_ID>  (1) 
DB17839

>  <COMMON_NAME>  (1) 
Nacystelyn

>  <CAS_NUMBER>  (1) 
89344-48-9

>  <UNII>  (1) 
8G1KV0RT1P

>  <SYNONYMS>  (1) 
Acetylcysteine lysine; L-lysine, compd. with n-acetyl-l-cysteine; Lysine acetylcysteinate; Lysine acetylcysteinate salt; N-acetylcysteinate lysine

$$$$
