
     RDKit          2D

 39 42  0  0  1  0  0  0  0  0999 V2000
    9.2396    6.2215    0.0000 S   0  0  0  0  0  0  0  0  0  0  0  0
    9.8230    7.5259    0.0000 Na  0  0  0  0  0 15  0  0  0  0  0  0
    4.9763    4.1040    0.0000 O   0  0  0  0  0  0  0  0  0  0  0  0
    2.3059    3.4800    0.0000 O   0  0  0  0  0  0  0  0  0  0  0  0
    5.8134    4.6233    0.0000 O   0  0  0  0  0  0  0  0  0  0  0  0
    7.3196    3.9496    0.0000 O   0  0  0  0  0  0  0  0  0  0  0  0
    0.0000    0.5493    0.0000 O   0  0  0  0  0  0  0  0  0  0  0  0
    8.1575    2.7921    0.0000 O   0  0  0  0  0  0  0  0  0  0  0  0
    9.1548    7.0421    0.0000 O   0  0  0  0  0  0  0  0  0  0  0  0
    8.4190    6.1367    0.0000 O   0  0  0  0  0  0  0  0  0  0  0  0
   10.0602    6.3063    0.0000 O   0  0  0  0  0  0  0  0  0  0  0  0
    4.4493    3.0675    0.0000 C   0  0  0  0  0  0  0  0  0  0  0  0
    4.4493    2.2425    0.0000 C   0  0  0  0  0  0  0  0  0  0  0  0
    3.7349    1.8300    0.0000 C   0  0  0  0  0  0  0  0  0  0  0  0
    3.0203    2.2425    0.0000 C   0  0  0  0  0  0  0  0  0  0  0  0
    5.2299    3.3189    0.0000 C   0  0  0  0  0  0  0  0  0  0  0  0
    3.7349    3.4800    0.0000 C   0  0  0  0  0  0  0  0  0  0  0  0
    5.2299    1.9911    0.0000 C   0  0  0  0  0  0  0  0  0  0  0  0
    3.0203    3.0675    0.0000 C   0  0  0  0  0  0  0  0  0  0  0  0
    2.2696    1.8243    0.0000 C   0  0  0  0  0  0  0  0  0  0  0  0
    5.7114    2.6550    0.0000 C   0  0  0  0  0  0  0  0  0  0  0  0
    3.7481    0.9708    0.0000 C   0  0  0  0  0  0  0  0  0  0  0  0
    4.4493    3.8925    0.0000 C   0  0  0  0  0  0  0  0  0  0  0  0
    3.0072    0.5353    0.0000 C   0  0  0  0  0  0  0  0  0  0  0  0
    2.2630    0.9650    0.0000 C   0  0  0  0  0  0  0  0  0  0  0  0
    5.8982    3.8027    0.0000 C   0  0  0  0  0  0  0  0  0  0  0  0
    2.2759    2.6493    0.0000 C   0  0  0  0  0  0  0  0  0  0  0  0
    1.5050    2.2897    0.0000 C   0  0  0  0  0  0  0  0  0  0  0  0
    1.4913    0.5115    0.0000 C   0  0  0  0  0  0  0  0  0  0  0  0
    6.6513    3.4658    0.0000 C   0  0  0  0  0  0  0  0  0  0  0  0
    0.7229    1.8542    0.0000 C   0  0  0  0  0  0  0  0  0  0  0  0
    0.7160    0.9591    0.0000 C   0  0  0  0  0  0  0  0  0  0  0  0
    8.0727    3.6127    0.0000 C   0  0  0  0  0  0  0  0  0  0  0  0
    8.7410    4.0965    0.0000 C   0  0  0  0  0  0  0  0  0  0  0  0
    8.6562    4.9171    0.0000 C   0  0  0  0  0  0  0  0  0  0  0  0
    9.4940    3.7596    0.0000 C   0  0  0  0  0  0  0  0  0  0  0  0
    9.3244    5.4009    0.0000 C   0  0  0  0  0  0  0  0  0  0  0  0
   10.1624    4.2434    0.0000 C   0  0  0  0  0  0  0  0  0  0  0  0
   10.0775    5.0640    0.0000 C   0  0  0  0  0  0  0  0  0  0  0  0
  1  9  1  0
  1 10  2  0
  1 11  2  0
  1 37  1  0
  3 16  1  0
  4 19  1  0
  5 26  2  0
  6 30  1  0
  6 33  1  0
  7 32  2  0
  8 33  2  0
 12 13  1  0
 12 16  1  0
 12 17  1  0
 12 23  1  0
 13 14  1  0
 13 18  1  0
 14 15  1  0
 14 22  1  0
 15 19  1  0
 15 20  1  0
 16 21  1  0
 16 26  1  0
 17 19  1  0
 18 21  1  0
 20 25  1  0
 20 27  1  0
 20 28  1  0
 22 24  1  0
 24 25  1  0
 25 29  2  0
 26 30  1  0
 28 31  2  0
 29 32  1  0
 31 32  1  0
 33 34  1  0
 34 35  2  0
 34 36  1  0
 35 37  1  0
 36 38  2  0
 37 39  2  0
 38 39  1  0
M  CHG  2   2   1   9  -1
M  END
>  <DRUGBANK_ID>  (1) 
DB05340

>  <COMMON_NAME>  (1) 
ATL-2502

>  <UNII>  (1) 
D345THM53T

$$$$
