
     RDKit          2D

 21 24  0  0  0  0  0  0  0  0999 V2000
   -2.0602   -0.3162    0.0000 C   0  0  0  0  0  0  0  0  0  0  0  0
   -2.0602   -1.1472    0.0000 C   0  0  0  0  0  0  0  0  0  0  0  0
   -1.3496   -1.5576    0.0000 C   0  0  0  0  0  0  0  0  0  0  0  0
   -0.6340   -1.1472    0.0000 C   0  0  0  0  0  0  0  0  0  0  0  0
   -0.6340   -0.3162    0.0000 C   0  0  0  0  0  0  0  0  0  0  0  0
   -1.3496    0.0943    0.0000 C   0  0  0  0  0  0  0  0  0  0  0  0
    0.0765    0.0943    0.0000 C   0  0  0  0  0  0  0  0  0  0  0  0
    0.7923   -0.3162    0.0000 C   0  0  0  0  0  0  0  0  0  0  0  0
    0.7923   -1.1472    0.0000 C   0  0  0  0  0  0  0  0  0  0  0  0
    0.0765   -1.5576    0.0000 C   0  0  0  0  0  0  0  0  0  0  0  0
    1.5080    0.0943    0.0000 C   0  0  0  0  0  0  0  0  0  0  0  0
    1.5080    0.9154    0.0000 C   0  0  0  0  0  0  0  0  0  0  0  0
    0.7923    1.3266    0.0000 C   0  0  0  0  0  0  0  0  0  0  0  0
    0.0765    0.9154    0.0000 C   0  0  0  0  0  0  0  0  0  0  0  0
    2.2875    1.1683    0.0000 C   0  0  0  0  0  0  0  0  0  0  0  0
    2.7760    0.5047    0.0000 C   0  0  0  0  0  0  0  0  0  0  0  0
    2.2875   -0.1631    0.0000 C   0  0  0  0  0  0  0  0  0  0  0  0
    2.5450    1.9577    0.0000 O   0  0  0  0  0  0  0  0  0  0  0  0
    1.5080    1.7418    0.0000 C   0  0  0  0  0  0  0  0  0  0  0  0
   -0.6340    0.5047    0.0000 C   0  0  0  0  0  0  0  0  0  0  0  0
   -2.7760   -1.5576    0.0000 O   0  0  0  0  0  0  0  0  0  0  0  0
  1  2  1  0
  1  6  2  0
  2  3  1  0
  2 21  1  1
  4  3  1  1
  4  5  1  0
  4 10  1  0
  5  6  1  0
  5  7  1  0
  5 20  1  1
  7 14  1  1
  8  7  1  0
  8 11  1  0
  8  9  1  6
 10  9  1  0
 11 12  1  0
 11 17  1  1
 12 13  1  0
 12 15  1  0
 12 19  1  1
 13 14  1  0
 15 18  1  1
 16 15  1  0
 17 16  1  0
M  END
>  <DRUGBANK_ID>  (1) 
DB01503

>  <COMMON_NAME>  (1) 
1-Androstenediol

>  <CAS_NUMBER>  (1) 
5323-27-3

>  <UNII>  (1) 
V7W74907I7

$$$$
