
     RDKit          2D

 25 24  0  0  0  0  0  0  0  0999 V2000
   -0.1914   -0.7145    0.0000 C   0  0  0  0  0  0  0  0  0  0  0  0
    0.5230   -1.1270    0.0000 C   0  0  0  0  0  0  0  0  0  0  0  0
    1.2375   -0.7145    0.0000 C   0  0  0  0  0  0  0  0  0  0  0  0
    1.9520   -1.1270    0.0000 C   0  0  0  0  0  0  0  0  0  0  0  0
    2.6664   -0.7145    0.0000 C   0  0  0  0  0  0  0  0  0  0  0  0
    3.3809   -1.1270    0.0000 C   0  0  0  0  0  0  0  0  0  0  0  0
    4.0954   -0.7145    0.0000 C   0  0  0  0  0  0  0  0  0  0  0  0
    4.0954    0.1105    0.0000 C   0  0  0  0  0  0  0  0  0  0  0  0
    4.8099    0.5230    0.0000 C   0  0  0  0  0  0  0  0  0  0  0  0
    4.8099    1.3480    0.0000 C   0  0  0  0  0  0  0  0  0  0  0  0
    4.0954    1.7605    0.0000 C   0  0  0  0  0  0  0  0  0  0  0  0
    3.3809    1.3480    0.0000 C   0  0  0  0  0  0  0  0  0  0  0  0
    2.6664    1.7605    0.0000 C   0  0  0  0  0  0  0  0  0  0  0  0
    2.6664    2.5855    0.0000 C   0  0  0  0  0  0  0  0  0  0  0  0
    3.3809    2.9980    0.0000 C   0  0  0  0  0  0  0  0  0  0  0  0
    3.3809    3.8230    0.0000 C   0  0  0  0  0  0  0  0  0  0  0  0
    2.6664    4.2355    0.0000 C   0  0  0  0  0  0  0  0  0  0  0  0
    2.6664    5.0605    0.0000 C   0  0  0  0  0  0  0  0  0  0  0  0
    1.9520    5.4730    0.0000 C   0  0  0  0  0  0  0  0  0  0  0  0
    1.9520    6.2980    0.0000 C   0  0  0  0  0  0  0  0  0  0  0  0
    2.6664    6.7105    0.0000 O   0  0  0  0  0  0  0  0  0  0  0  0
    1.2375    6.7105    0.0000 C   0  0  0  0  0  0  0  0  0  0  0  0
    0.5230    7.1230    0.0000 F   0  0  0  0  0  0  0  0  0  0  0  0
    1.6500    7.4250    0.0000 F   0  0  0  0  0  0  0  0  0  0  0  0
    0.8250    5.9961    0.0000 F   0  0  0  0  0  0  0  0  0  0  0  0
  1  2  1  0
  2  3  1  0
  3  4  1  0
  4  5  1  0
  5  6  1  0
  6  7  2  0
  7  8  1  0
  8  9  1  0
  9 10  2  0
 10 11  1  0
 11 12  1  0
 12 13  2  0
 13 14  1  0
 14 15  1  0
 15 16  2  0
 16 17  1  0
 17 18  1  0
 18 19  1  0
 19 20  1  0
 20 21  2  0
 20 22  1  0
 22 23  1  0
 22 24  1  0
 22 25  1  0
M  END
>  <DRUGBANK_ID>  (1) 
DB17022

>  <COMMON_NAME>  (1) 
Arachidonyltrifluoromethane

>  <CAS_NUMBER>  (1) 
149301-79-1

>  <UNII>  (1) 
00XIW1CR0F

>  <SYNONYMS>  (1) 
6,9,12,15-heneicosatetraen-2-one, 1,1,1-trifluoro-, (6z,9z,12z,15z)-; Aacocf3; Arachidonyl trifluoromethyl ketone

$$$$
