
     RDKit          2D

 35 37  0  0  0  0  0  0  0  0999 V2000
   -1.4641    2.7601    0.0000 C   0  0  0  0  0  0  0  0  0  0  0  0
   -1.4641    1.1101    0.0000 C   0  0  0  0  0  0  0  0  0  0  0  0
    0.0350    1.2677    0.0000 C   0  0  0  0  0  0  0  0  0  0  0  0
    0.5199    1.9352    0.0000 C   0  0  0  0  0  0  0  0  0  0  0  0
   -2.1786    2.3475    0.0000 C   0  0  0  0  0  0  0  0  0  0  0  0
   -1.4641    0.2851    0.0000 C   0  0  0  0  0  0  0  0  0  0  0  0
   -2.1786    1.5226    0.0000 C   0  0  0  0  0  0  0  0  0  0  0  0
   -2.1786   -0.1274    0.0000 C   0  0  0  0  0  0  0  0  0  0  0  0
   -2.1786   -0.9524    0.0000 C   0  0  0  0  0  0  0  0  0  0  0  0
   -1.4641   -1.3649    0.0000 C   0  0  0  0  0  0  0  0  0  0  0  0
   -2.8931   -1.3649    0.0000 C   0  0  0  0  0  0  0  0  0  0  0  0
   -0.7495   -0.9524    0.0000 C   0  0  0  0  0  0  0  0  0  0  0  0
   -2.8931   -2.1899    0.0000 C   0  0  0  0  0  0  0  0  0  0  0  0
   -2.1786   -2.6024    0.0000 C   0  0  0  0  0  0  0  0  0  0  0  0
   -3.6075   -2.6024    0.0000 O   0  0  0  0  0  0  0  0  0  0  0  0
   -0.6795    3.8401    0.0000 C   0  0  0  0  0  0  0  0  0  0  0  0
    0.0350    3.4277    0.0000 C   0  0  0  0  0  0  0  0  0  0  0  0
    0.7495    3.8401    0.0000 C   0  0  0  0  0  0  0  0  0  0  0  0
    1.4639    3.4277    0.0000 C   0  0  0  0  0  0  0  0  0  0  0  0
    3.6075    3.8401    0.0000 C   0  0  0  0  0  0  0  0  0  0  0  0
    2.8930    2.6026    0.0000 C   0  0  0  0  0  0  0  0  0  0  0  0
    2.1786    3.8401    0.0000 C   0  0  0  0  0  0  0  0  0  0  0  0
    0.0350    2.6026    0.0000 C   0  0  0  0  0  0  0  0  0  0  0  0
   -0.7495    1.5226    0.0000 C   0  0  0  0  0  0  0  0  0  0  0  0
   -0.7495    2.3475    0.0000 C   0  0  0  0  0  0  0  0  0  0  0  0
   -0.7495    3.1726    0.0000 C   0  0  0  0  0  0  0  0  0  0  0  0
    2.8930    3.4277    0.0000 C   0  0  0  0  0  0  0  0  0  0  0  0
    3.6075    3.0151    0.0000 O   0  0  0  0  0  0  0  0  0  0  0  0
   -1.4641   -2.1899    0.0000 C   0  0  0  0  0  0  0  0  0  0  0  0
   -0.7495   -2.6024    0.0000 O   0  0  0  0  0  0  0  0  0  0  0  0
   -2.1787   -3.4275    0.0000 O   0  0  0  0  0  0  0  0  0  0  0  0
   -1.4641   -3.8400    0.0000 C   0  0  0  0  0  0  0  0  0  0  0  0
   -0.7496   -3.4276    0.0000 C   0  0  0  0  0  0  0  0  0  0  0  0
   -0.0351   -3.8401    0.0000 C   0  0  0  0  0  0  0  0  0  0  0  0
    0.6794   -3.4277    0.0000 O   0  0  0  0  0  0  0  0  0  0  0  0
  1  5  1  0
  2  6  2  0
  2  7  1  0
  3  4  1  0
  5  7  1  0
  6  8  1  0
  8  9  2  0
  9 10  1  0
  9 11  1  0
 10 29  1  0
 10 12  2  0
 11 13  1  0
 13 15  1  6
 13 14  1  0
 14 31  1  6
 17 16  1  6
 17 18  1  0
 18 19  1  0
 19 22  1  0
 22 27  1  0
 23  4  1  1
 23 17  1  0
 24 25  1  0
 24  2  1  0
 24  3  1  1
 25 23  1  0
 25  1  1  0
 25 26  1  1
 27 20  1  0
 27 21  1  0
 27 28  1  0
 29 14  1  0
 29 30  1  1
 31 32  1  0
 32 33  1  0
 33 34  1  0
 34 35  1  0
M  END
>  <DRUGBANK_ID>  (1) 
DB05295

>  <COMMON_NAME>  (1) 
Eldecalcitol

>  <CAS_NUMBER>  (1) 
104121-92-8

>  <UNII>  (1) 
I2JP8UE90H

>  <SYNONYMS>  (1) 
1α,25-dihydroxy-2β-(3-hydroxypropoxy)cholecalciferol; Eldecalcitol

$$$$
