
     RDKit          2D

 41 45  0  0  1  0  0  0  0  0999 V2000
   -2.2664   -5.3533    0.0000 C   0  0  0  0  0  0  0  0  0  0  0  0
   -2.9808   -4.9408    0.0000 N   0  0  0  0  0  0  0  0  0  0  0  0
   -2.9808   -4.1158    0.0000 C   0  0  0  0  0  0  0  0  0  0  0  0
   -2.2664   -3.7033    0.0000 O   0  0  0  0  0  0  0  0  0  0  0  0
   -3.6953   -3.7033    0.0000 C   0  0  0  0  0  0  0  0  0  0  0  0
   -4.4098   -4.1158    0.0000 C   0  0  0  0  0  0  0  0  0  0  0  0
   -5.1243   -3.7033    0.0000 C   0  0  0  0  0  0  0  0  0  0  0  0
   -5.1243   -2.8783    0.0000 C   0  0  0  0  0  0  0  0  0  0  0  0
   -4.4098   -2.4658    0.0000 C   0  0  0  0  0  0  0  0  0  0  0  0
   -3.6953   -2.8783    0.0000 C   0  0  0  0  0  0  0  0  0  0  0  0
   -2.9808   -2.4658    0.0000 N   0  0  0  0  0  0  0  0  0  0  0  0
   -2.9808   -1.6408    0.0000 C   0  0  0  0  0  0  0  0  0  0  0  0
   -3.6953   -1.2283    0.0000 C   0  0  0  0  0  0  0  0  0  0  0  0
   -3.6953   -0.4033    0.0000 C   0  0  0  0  0  0  0  0  0  0  0  0
   -2.9808    0.0092    0.0000 N   0  0  0  0  0  0  0  0  0  0  0  0
   -2.2664   -0.4033    0.0000 C   0  0  0  0  0  0  0  0  0  0  0  0
   -2.2664   -1.2283    0.0000 N   0  0  0  0  0  0  0  0  0  0  0  0
   -1.5519    0.0092    0.0000 N   0  0  0  0  0  0  0  0  0  0  0  0
   -0.8374   -0.4033    0.0000 C   0  0  0  0  0  0  0  0  0  0  0  0
   -0.8374   -1.2283    0.0000 C   0  0  0  0  0  0  0  0  0  0  0  0
   -0.1230   -1.6408    0.0000 C   0  0  0  0  0  0  0  0  0  0  0  0
    0.5915   -1.2283    0.0000 C   0  0  0  0  0  0  0  0  0  0  0  0
    0.5915   -0.4033    0.0000 C   0  0  0  0  0  0  0  0  0  0  0  0
   -0.1230    0.0092    0.0000 C   0  0  0  0  0  0  0  0  0  0  0  0
   -0.1230    0.8342    0.0000 O   0  0  0  0  0  0  0  0  0  0  0  0
   -0.8374    1.2467    0.0000 C   0  0  0  0  0  0  0  0  0  0  0  0
    1.2365    0.1111    0.0000 C   0  0  0  0  0  0  0  0  0  0  0  0
    2.0408   -0.0725    0.0000 C   0  0  0  0  0  0  0  0  0  0  0  0
    2.3988   -0.8158    0.0000 C   0  0  0  0  0  0  0  0  0  0  0  0
    2.0408   -1.5591    0.0000 C   0  0  0  0  0  0  0  0  0  0  0  0
    1.2365   -1.7427    0.0000 C   0  0  0  0  0  0  0  0  0  0  0  0
    2.5552   -2.2041    0.0000 N   0  0  0  0  0  0  0  0  0  0  0  0
    3.3710   -2.0811    0.0000 C   0  0  0  0  0  0  0  0  0  0  0  0
    3.8854   -2.7261    0.0000 C   0  0  0  0  0  0  0  0  0  0  0  0
    3.5840   -3.4941    0.0000 N   0  0  0  0  0  0  0  0  0  0  0  0
    2.7682   -3.6171    0.0000 C   0  0  0  0  0  0  0  0  0  0  0  0
    2.2538   -2.9721    0.0000 C   0  0  0  0  0  0  0  0  0  0  0  0
    4.0984   -4.1391    0.0000 C   0  0  0  0  0  0  0  0  0  0  0  0
    4.9141   -4.0162    0.0000 C   0  0  0  0  0  0  0  0  0  0  0  0
    5.2155   -3.2482    0.0000 O   0  0  0  0  0  0  0  0  0  0  0  0
   -4.4098   -1.6408    0.0000 Cl  0  0  0  0  0  0  0  0  0  0  0  0
  1  2  1  0
  2  3  1  0
  3  4  2  0
  3  5  1  0
  5  6  2  0
  5 10  1  0
  6  7  1  0
  7  8  2  0
  8  9  1  0
  9 10  2  0
 10 11  1  0
 11 12  1  0
 12 13  2  0
 12 17  1  0
 13 14  1  0
 13 41  1  0
 14 15  2  0
 15 16  1  0
 16 17  2  0
 16 18  1  0
 18 19  1  0
 19 20  2  0
 19 24  1  0
 20 21  1  0
 21 22  2  0
 22 23  1  0
 22 31  1  0
 23 24  2  0
 23 27  1  0
 24 25  1  0
 25 26  1  0
 27 28  1  0
 28 29  1  0
 29 30  1  0
 30 31  1  0
 30 32  1  6
 32 33  1  0
 32 37  1  0
 33 34  1  0
 34 35  1  0
 35 36  1  0
 35 38  1  0
 36 37  1  0
 38 39  1  0
 39 40  1  0
M  END
>  <DRUGBANK_ID>  (1) 
DB13060

>  <COMMON_NAME>  (1) 
CEP-37440

>  <CAS_NUMBER>  (1) 
1391712-60-9

>  <UNII>  (1) 
O3MNS8782H

$$$$
