
     RDKit          2D

 11 11  0  0  0  0  0  0  0  0999 V2000
    0.3361   -0.0042    0.0000 C   0  0  0  0  0  0  0  0  0  0  0  0
   -0.3732    0.4053    0.0000 C   0  0  0  0  0  0  0  0  0  0  0  0
    0.3415   -0.8228    0.0000 C   0  0  0  0  0  0  0  0  0  0  0  0
    1.0533    0.4099    0.0000 C   0  0  0  0  0  0  0  0  0  0  0  0
   -1.0849    0.0007    0.0000 C   0  0  0  0  0  0  0  0  0  0  0  0
   -0.3732    1.2335    0.0000 O   0  0  0  0  0  0  0  0  0  0  0  0
   -0.3739   -1.2338    0.0000 C   0  0  0  0  0  0  0  0  0  0  0  0
    1.8014    0.0677    0.0000 C   0  0  0  0  0  0  0  0  0  0  0  0
    1.1314    1.2402    0.0000 C   0  0  0  0  0  0  0  0  0  0  0  0
   -1.0831   -0.8243    0.0000 C   0  0  0  0  0  0  0  0  0  0  0  0
   -1.8014   -1.2402    0.0000 C   0  0  0  0  0  0  0  0  0  0  0  0
  1  2  1  0
  1  3  1  0
  1  4  1  0
  2  5  1  0
  2  6  2  0
  3  7  1  0
  4  8  1  0
  4  9  1  0
  5 10  1  0
  7 10  1  0
 10 11  1  0
M  END
>  <DRUGBANK_ID>  (1) 
DB15920

>  <COMMON_NAME>  (1) 
Menthone

>  <CAS_NUMBER>  (1) 
89-80-5

>  <UNII>  (1) 
9NH5J4V8FN

>  <SYNONYMS>  (1) 
DL-Menthone; Menthone G

$$$$
