
     RDKit          2D

 17 17  0  0  1  0  0  0  0  0999 V2000
   -4.6213    1.2717    0.0000 C   0  0  0  0  0  0  0  0  0  0  0  0
   -4.1363    1.9391    0.0000 C   0  0  0  0  0  0  0  0  0  0  0  0
   -4.4719    2.6928    0.0000 N   0  0  0  0  0  0  0  0  0  0  0  0
   -5.2924    2.7790    0.0000 O   0  0  0  0  0  0  0  0  0  0  0  0
   -3.3159    1.8529    0.0000 C   0  0  0  0  0  0  0  0  0  0  0  0
   -2.7638    2.4660    0.0000 N   0  0  0  0  0  0  0  0  0  0  0  0
   -2.0101    2.1304    0.0000 C   0  0  0  0  0  0  0  0  0  0  0  0
   -2.0964    1.3099    0.0000 C   0  0  0  0  0  0  0  0  0  0  0  0
   -2.9034    1.1384    0.0000 N   0  0  0  0  0  0  0  0  0  0  0  0
   -1.2957    2.5429    0.0000 C   0  0  0  0  0  0  0  0  0  0  0  0
   -0.5812    2.1304    0.0000 C   0  0  0  0  0  0  0  0  0  0  0  0
    0.1333    2.5429    0.0000 C   0  0  0  0  0  0  0  0  0  0  0  0
    0.8477    2.1304    0.0000 C   0  0  0  0  0  0  0  0  0  0  0  0
    1.5622    2.5429    0.0000 O   0  0  0  0  0  0  0  0  0  0  0  0
    0.1333    3.3679    0.0000 O   0  0  0  0  0  0  0  0  0  0  0  0
   -0.5812    1.3054    0.0000 O   0  0  0  0  0  0  0  0  0  0  0  0
   -1.2957    3.3679    0.0000 O   0  0  0  0  0  0  0  0  0  0  0  0
  1  2  1  0
  2  3  2  0
  2  5  1  0
  3  4  1  0
  5  6  1  0
  5  9  2  0
  6  7  1  0
  7  8  2  0
  8  9  1  0
 10  7  1  0
 10 17  1  1
 11 10  1  0
 11 12  1  0
 11 16  1  1
 12 13  1  0
 12 15  1  6
 13 14  1  0
M  END
>  <DRUGBANK_ID>  (1) 
DB06297

>  <COMMON_NAME>  (1) 
LX-2931

>  <CAS_NUMBER>  (1) 
948840-25-3

>  <UNII>  (1) 
C5AGI979T7

$$$$
