
     RDKit          2D

 18 19  0  0  0  0  0  0  0  0999 V2000
    0.1333    1.6763    0.0000 S   0  0  0  0  0  0  0  0  0  0  0  0
    0.0471   -0.7940    0.0000 O   0  0  0  0  0  0  0  0  0  0  0  0
   -0.6673    0.4434    0.0000 N   0  0  0  0  0  0  0  0  0  0  0  0
    0.8007    0.5203    0.0000 N   0  0  0  0  0  0  0  0  0  0  0  0
   -2.0962   -2.8564    0.0000 N   0  0  0  0  0  0  0  0  0  0  0  0
    1.2758    2.6015    0.0000 C   0  0  0  0  0  0  0  0  0  0  0  0
    0.9402    1.8478    0.0000 C   0  0  0  0  0  0  0  0  0  0  0  0
    0.7908    3.2689    0.0000 C   0  0  0  0  0  0  0  0  0  0  0  0
    2.0962    2.6877    0.0000 C   0  0  0  0  0  0  0  0  0  0  0  0
    1.3527    1.1334    0.0000 C   0  0  0  0  0  0  0  0  0  0  0  0
    0.0471    0.8558    0.0000 C   0  0  0  0  0  0  0  0  0  0  0  0
   -1.3818   -0.7940    0.0000 C   0  0  0  0  0  0  0  0  0  0  0  0
   -0.6673   -0.3815    0.0000 C   0  0  0  0  0  0  0  0  0  0  0  0
   -1.3818   -1.6189    0.0000 C   0  0  0  0  0  0  0  0  0  0  0  0
   -0.6673   -2.0314    0.0000 C   0  0  0  0  0  0  0  0  0  0  0  0
   -2.0962   -2.0314    0.0000 C   0  0  0  0  0  0  0  0  0  0  0  0
   -0.6673   -2.8564    0.0000 C   0  0  0  0  0  0  0  0  0  0  0  0
   -1.3818   -3.2689    0.0000 C   0  0  0  0  0  0  0  0  0  0  0  0
  1  7  1  0
  1 11  1  0
  2 13  2  0
  3 11  1  0
  3 13  1  0
  4 10  1  0
  4 11  2  0
  5 16  2  0
  5 18  1  0
  6  7  1  0
  6  8  1  0
  6  9  1  0
  7 10  2  0
 12 13  1  0
 12 14  1  0
 14 15  2  0
 14 16  1  0
 15 17  1  0
 17 18  2  0
M  END
>  <DRUGBANK_ID>  (1) 
DB08677

>  <COMMON_NAME>  (1) 
N-(5-Isopropyl-thiazol-2-YL)-2-pyridin-3-YL-acetamide

$$$$
