
     RDKit          2D

 33 40  0  0  1  0  0  0  0  0999 V2000
    3.6801    0.5871    0.0000 C   0  0  0  0  0  0  0  0  0  0  0  0
    4.4694    0.3470    0.0000 C   0  0  0  0  0  0  0  0  0  0  0  0
    4.7625    1.1760    0.0000 C   0  0  0  0  0  0  0  0  0  0  0  0
    5.6318    1.1723    0.0000 C   0  0  0  0  0  0  0  0  0  0  0  0
    5.9245    0.3491    0.0000 C   0  0  0  0  0  0  0  0  0  0  0  0
    5.1989    0.2664    0.0000 O   0  0  0  0  0  0  0  0  0  0  0  0
    6.1477   -0.5117    0.0000 N   0  0  0  0  0  0  0  0  0  0  0  0
    6.9186   -0.8612    0.0000 C   0  0  0  0  0  0  0  0  0  0  0  0
    7.6615   -0.5025    0.0000 C   0  0  0  0  0  0  0  0  0  0  0  0
    8.3436   -0.9667    0.0000 C   0  0  0  0  0  0  0  0  0  0  0  0
    8.2827   -1.7894    0.0000 C   0  0  0  0  0  0  0  0  0  0  0  0
    7.5397   -2.1480    0.0000 C   0  0  0  0  0  0  0  0  0  0  0  0
    6.8577   -1.6839    0.0000 C   0  0  0  0  0  0  0  0  0  0  0  0
    6.0487   -1.9157    0.0000 C   0  0  0  0  0  0  0  0  0  0  0  0
    5.6256   -1.1951    0.0000 C   0  0  0  0  0  0  0  0  0  0  0  0
    4.7753   -1.1951    0.0000 C   0  0  0  0  0  0  0  0  0  0  0  0
    4.2486   -0.5147    0.0000 N   0  0  0  0  0  0  0  0  0  0  0  0
    3.4683   -0.8578    0.0000 C   0  0  0  0  0  0  0  0  0  0  0  0
    2.7235   -0.5029    0.0000 C   0  0  0  0  0  0  0  0  0  0  0  0
    2.0438   -0.9704    0.0000 C   0  0  0  0  0  0  0  0  0  0  0  0
    2.1088   -1.7928    0.0000 C   0  0  0  0  0  0  0  0  0  0  0  0
    2.8536   -2.1477    0.0000 C   0  0  0  0  0  0  0  0  0  0  0  0
    3.5333   -1.6802    0.0000 C   0  0  0  0  0  0  0  0  0  0  0  0
    4.3453   -1.9097    0.0000 C   0  0  0  0  0  0  0  0  0  0  0  0
    4.7742   -2.6304    0.0000 C   0  0  0  0  0  0  0  0  0  0  0  0
    5.5992   -2.6323    0.0000 C   0  0  0  0  0  0  0  0  0  0  0  0
    5.8523   -3.4176    0.0000 C   0  0  0  0  0  0  0  0  0  0  0  0
    6.6364   -3.6743    0.0000 O   0  0  0  0  0  0  0  0  0  0  0  0
    5.1838   -3.9009    0.0000 N   0  0  0  0  0  0  0  0  0  0  0  0
    4.5175   -3.4144    0.0000 C   0  0  0  0  0  0  0  0  0  0  0  0
    4.0185    1.5324    0.0000 C   0  0  0  0  0  0  0  0  0  0  0  0
    3.3378    1.0663    0.0000 O   0  0  0  0  0  0  0  0  0  0  0  0
    4.6779    1.9966    0.0000 O   0  0  0  0  0  0  0  0  0  0  0  0
  2  1  1  1
  2  3  1  0
  2  6  1  0
  2 17  1  0
  3  4  1  0
  3 31  1  0
  3 33  1  6
  5  4  1  6
  5  6  1  0
  5  7  1  0
  7  8  1  0
  7 15  1  0
  8  9  2  0
  8 13  1  0
  9 10  1  0
 10 11  2  0
 11 12  1  0
 12 13  2  0
 13 14  1  0
 14 15  1  0
 14 26  2  0
 15 16  2  0
 16 17  1  0
 16 24  1  0
 17 18  1  0
 18 19  2  0
 18 23  1  0
 19 20  1  0
 20 21  2  0
 21 22  1  0
 22 23  2  0
 23 24  1  0
 24 25  2  0
 25 26  1  0
 25 30  1  0
 26 27  1  0
 27 28  2  0
 27 29  1  0
 29 30  1  0
 31 32  1  0
M  END
>  <DRUGBANK_ID>  (1) 
DB06469

>  <COMMON_NAME>  (1) 
Lestaurtinib

>  <CAS_NUMBER>  (1) 
111358-88-4

>  <UNII>  (1) 
DO989GC5D1

>  <SYNONYMS>  (1) 
Lestaurtinib

$$$$
