
     RDKit          2D

 23 23  0  0  0  0  0  0  0  0999 V2000
    0.3555    0.0020    0.0000 C   0  0  0  0  0  0  0  0  0  0  0  0
    0.3555   -0.8253    0.0000 C   0  0  0  0  0  0  0  0  0  0  0  0
    1.0665    0.4137    0.0000 C   0  0  0  0  0  0  0  0  0  0  0  0
   -0.3554    0.4095    0.0000 C   0  0  0  0  0  0  0  0  0  0  0  0
   -1.0706   -0.0020    0.0000 C   0  0  0  0  0  0  0  0  0  0  0  0
    1.7815    0.0020    0.0000 C   0  0  0  0  0  0  0  0  0  0  0  0
    1.0665   -1.2370    0.0000 C   0  0  0  0  0  0  0  0  0  0  0  0
    1.7815   -0.8253    0.0000 C   0  0  0  0  0  0  0  0  0  0  0  0
   -1.7815    0.4095    0.0000 C   0  0  0  0  0  0  0  0  0  0  0  0
   -4.6337    0.4095    0.0000 C   0  0  0  0  0  0  0  0  0  0  0  0
   -3.9228   -0.0020    0.0000 C   0  0  0  0  0  0  0  0  0  0  0  0
   -0.3595   -1.2370    0.0000 O   0  0  0  0  0  0  0  0  0  0  0  0
    1.0623    1.2370    0.0000 O   0  0  0  0  0  0  0  0  0  0  0  0
   -3.2077    0.4095    0.0000 C   0  0  0  0  0  0  0  0  0  0  0  0
   -2.4968   -0.0020    0.0000 C   0  0  0  0  0  0  0  0  0  0  0  0
   -1.7815    1.2327    0.0000 C   0  0  0  0  0  0  0  0  0  0  0  0
   -4.6337    1.2327    0.0000 C   0  0  0  0  0  0  0  0  0  0  0  0
   -5.3489   -0.0020    0.0000 C   0  0  0  0  0  0  0  0  0  0  0  0
    2.4968   -1.2370    0.0000 C   0  0  0  0  0  0  0  0  0  0  0  0
    3.2077   -0.8211    0.0000 C   0  0  0  0  0  0  0  0  0  0  0  0
    4.6338   -0.8211    0.0000 C   0  0  0  0  0  0  0  0  0  0  0  0
    3.9229   -1.2327    0.0000 C   0  0  0  0  0  0  0  0  0  0  0  0
    5.3489   -1.2327    0.0000 C   0  0  0  0  0  0  0  0  0  0  0  0
  2  1  2  0
  3  1  1  0
  4  1  1  0
  5  4  1  0
  6  3  2  0
  6  8  1  0
  7  2  1  0
  8  7  2  0
  9  5  2  0
 10 11  2  3
 11 14  1  0
 12  2  1  0
 13  3  1  0
 14 15  1  0
 15  9  1  0
 16  9  1  0
 17 10  1  0
 18 10  1  0
 19  8  1  0
 20 19  1  0
 21 22  1  0
 22 20  1  0
 23 21  1  0
M  END
>  <DRUGBANK_ID>  (1) 
DB14734

>  <COMMON_NAME>  (1) 
Cannabigerol

>  <CAS_NUMBER>  (1) 
25654-31-3

>  <UNII>  (1) 
J1K406072N

$$$$
