
     RDKit          2D

 15 16  0  0  0  0  0  0  0  0999 V2000
    1.8985    0.2626    0.0000 C   0  0  0  0  0  0  0  0  0  0  0  0
    1.8985    1.0877    0.0000 O   0  0  0  0  0  0  0  0  0  0  0  0
    1.1839   -0.1498    0.0000 C   0  0  0  0  0  0  0  0  0  0  0  0
    0.4693    0.2626    0.0000 C   0  0  0  0  0  0  0  0  0  0  0  0
    1.1839   -0.9749    0.0000 N   0  0  0  0  0  0  0  0  0  0  0  0
   -0.2451   -0.1498    0.0000 C   0  0  0  0  0  0  0  0  0  0  0  0
   -0.3313   -0.9704    0.0000 C   0  0  0  0  0  0  0  0  0  0  0  0
   -1.1384   -1.1419    0.0000 N   0  0  0  0  0  0  0  0  0  0  0  0
   -1.5509   -0.4273    0.0000 C   0  0  0  0  0  0  0  0  0  0  0  0
   -0.9988    0.1856    0.0000 C   0  0  0  0  0  0  0  0  0  0  0  0
   -1.2538    0.9704    0.0000 C   0  0  0  0  0  0  0  0  0  0  0  0
   -2.3579   -0.2558    0.0000 C   0  0  0  0  0  0  0  0  0  0  0  0
   -2.6129    0.5287    0.0000 C   0  0  0  0  0  0  0  0  0  0  0  0
   -2.0608    1.1419    0.0000 C   0  0  0  0  0  0  0  0  0  0  0  0
    2.6129   -0.1498    0.0000 N   0  0  0  0  0  0  0  0  0  0  0  0
  1  2  2  0
  1  3  1  0
  3  4  1  0
  3  5  1  1
  4  6  1  0
  6  7  2  0
  6 10  1  0
  7  8  1  0
  8  9  1  0
  9 10  2  0
  9 12  1  0
 10 11  1  0
 11 14  2  0
 12 13  2  0
 13 14  1  0
 15  1  1  0
M  END
>  <DRUGBANK_ID>  (1) 
DB04537

>  <SECONDARY_ACCESSION_NUMBERS>  (1) 
EXPT02063

>  <COMMON_NAME>  (1) 
Tryptophanamide

>  <CAS_NUMBER>  (1) 
20696-57-5

>  <UNII>  (1) 
0K2B9SB26H

>  <SYNONYMS>  (1) 
(S)-alpha-Amino-1H-indole-3-propionamide; L-tryptophan amide; L-tryptophanamide

$$$$
