TIO
     RDKit          2D

 17 17  0  0  0  0  0  0  0  0999 V2000
    0.4267    0.9767    0.0000 S   0  0  0  0  0  0  0  0  0  0  0  0
   -0.2877    0.5642    0.0000 C   0  0  0  0  0  0  0  0  0  0  0  0
   -0.2877   -0.2608    0.0000 C   0  0  0  0  0  0  0  0  0  0  0  0
   -1.0022   -0.6733    0.0000 C   0  0  0  0  0  0  0  0  0  0  0  0
   -1.0022   -1.4983    0.0000 O   0  0  0  0  0  0  0  0  0  0  0  0
    0.4267   -0.6733    0.0000 C   0  0  0  0  0  0  0  0  0  0  0  0
    1.1412   -0.2608    0.0000 C   0  0  0  0  0  0  0  0  0  0  0  0
    1.1412    0.5642    0.0000 C   0  0  0  0  0  0  0  0  0  0  0  0
    1.8557   -0.6733    0.0000 C   0  0  0  0  0  0  0  0  0  0  0  0
    1.8557    0.9767    0.0000 C   0  0  0  0  0  0  0  0  0  0  0  0
    2.5701   -0.2608    0.0000 C   0  0  0  0  0  0  0  0  0  0  0  0
    2.5701    0.5642    0.0000 C   0  0  0  0  0  0  0  0  0  0  0  0
   -1.7167   -0.2608    0.0000 N   0  0  0  0  0  0  0  0  0  0  0  0
   -2.4311   -0.6733    0.0000 C   0  0  0  0  0  0  0  0  0  0  0  0
   -3.1456   -0.2608    0.0000 C   0  0  0  0  0  0  0  0  0  0  0  0
   -3.8601   -0.6733    0.0000 O   0  0  0  0  0  0  0  0  0  0  0  0
   -3.1456    0.5642    0.0000 O   0  0  0  0  0  0  0  0  0  0  0  0
  1  2  1  0
  3  2  1  1
  3  4  1  0
  3  6  1  0
  4  5  2  0
  4 13  1  0
  6  7  1  0
  7  8  2  0
  7  9  1  0
  8 10  1  0
  9 11  2  0
 10 12  2  0
 11 12  1  0
 13 14  1  0
 14 15  1  0
 15 16  2  0
 15 17  1  0
M  END
>  <DRUGBANK_ID>  (1) 
DB08626

>  <SECONDARY_ACCESSION_NUMBERS>  (1) 
DB01654

>  <COMMON_NAME>  (1) 
Thiorphan

>  <CAS_NUMBER>  (1) 
76721-89-6

>  <UNII>  (1) 
XJ8Z52GK3X

$$$$
