
     RDKit          2D

 19 19  0  0  0  0  0  0  0  0999 V2000
    0.0007   -1.0265    0.0000 C   0  0  0  0  0  0  0  0  0  0  0  0
    0.0007   -1.8515    0.0000 C   0  0  0  0  0  0  0  0  0  0  0  0
   -0.7168   -0.6084    0.0000 C   0  0  0  0  0  0  0  0  0  0  0  0
    0.7155   -0.6178    0.0000 C   0  0  0  0  0  0  0  0  0  0  0  0
    0.0007   -0.2015    0.0000 O   0  0  0  0  0  0  0  0  0  0  0  0
   -0.7186   -2.2614    0.0000 C   0  0  0  0  0  0  0  0  0  0  0  0
    0.7197   -1.4493    0.0000 C   0  0  0  0  0  0  0  0  0  0  0  0
   -0.0044   -2.6855    0.0000 C   0  0  0  0  0  0  0  0  0  0  0  0
   -1.4285   -1.0188    0.0000 C   0  0  0  0  0  0  0  0  0  0  0  0
   -0.7151    0.2196    0.0000 C   0  0  0  0  0  0  0  0  0  0  0  0
    0.7232    0.2066    0.0000 C   0  0  0  0  0  0  0  0  0  0  0  0
   -1.4363   -1.8433    0.0000 C   0  0  0  0  0  0  0  0  0  0  0  0
    1.4379    0.6154    0.0000 C   0  0  0  0  0  0  0  0  0  0  0  0
   -2.1557   -2.2533    0.0000 O   0  0  0  0  0  0  0  0  0  0  0  0
    1.4457    1.4399    0.0000 C   0  0  0  0  0  0  0  0  0  0  0  0
    2.1557    0.1973    0.0000 C   0  0  0  0  0  0  0  0  0  0  0  0
    0.7327    1.8592    0.0000 C   0  0  0  0  0  0  0  0  0  0  0  0
    0.7375    2.6855    0.0000 O   0  0  0  0  0  0  0  0  0  0  0  0
    0.0103    1.4510    0.0000 O   0  0  0  0  0  0  0  0  0  0  0  0
  1  2  1  0
  1  3  1  0
  1  4  1  0
  1  5  1  1
  2  6  1  0
  2  7  1  0
  2  8  1  0
  3  9  2  0
  3 10  1  0
  4 11  2  0
  6 12  1  0
  9 12  1  0
 11 13  1  0
 12 14  2  0
 13 15  2  0
 13 16  1  0
 15 17  1  0
 17 18  2  0
 17 19  1  0
M  END
>  <DRUGBANK_ID>  (1) 
DB16829

>  <COMMON_NAME>  (1) 
Abscisic Acid

>  <CAS_NUMBER>  (1) 
21293-29-8

>  <UNII>  (1) 
72S9A8J5GW

>  <SYNONYMS>  (1) 
Abscisin II; Acide abscisique

$$$$
