IPC
     RDKit          2D

 27 29  0  0  0  0  0  0  0  0999 V2000
    0.2903    0.3015    0.0000 N   0  0  0  0  0  0  0  0  0  0  0  0
    1.0047    0.7140    0.0000 C   0  0  0  0  0  0  0  0  0  0  0  0
    1.0047    1.5390    0.0000 C   0  0  0  0  0  0  0  0  0  0  0  0
    1.7192    0.3015    0.0000 C   0  0  0  0  0  0  0  0  0  0  0  0
   -0.4242    0.7140    0.0000 C   0  0  0  0  0  0  0  0  0  0  0  0
   -1.1387    0.3015    0.0000 O   0  0  0  0  0  0  0  0  0  0  0  0
   -0.4242    1.5390    0.0000 C   0  0  0  0  0  0  0  0  0  0  0  0
   -1.1387    1.9515    0.0000 C   0  0  0  0  0  0  0  0  0  0  0  0
   -1.1387    2.7765    0.0000 C   0  0  0  0  0  0  0  0  0  0  0  0
   -0.4242    3.1890    0.0000 C   0  0  0  0  0  0  0  0  0  0  0  0
    0.2903    2.7765    0.0000 C   0  0  0  0  0  0  0  0  0  0  0  0
    0.2903    1.9515    0.0000 C   0  0  0  0  0  0  0  0  0  0  0  0
   -0.4242    4.0140    0.0000 C   0  0  0  0  0  0  0  0  0  0  0  0
    0.2903   -0.5235    0.0000 C   0  0  0  0  0  0  0  0  0  0  0  0
    0.9577   -1.0085    0.0000 C   0  0  0  0  0  0  0  0  0  0  0  0
    0.7028   -1.7931    0.0000 S   0  0  0  0  0  0  0  0  0  0  0  0
   -0.1222   -1.7931    0.0000 C   0  0  0  0  0  0  0  0  0  0  0  0
   -0.3772   -1.0085    0.0000 C   0  0  0  0  0  0  0  0  0  0  0  0
    1.7423   -0.7535    0.0000 C   0  0  0  0  0  0  0  0  0  0  0  0
    1.9139    0.0534    0.0000 O   0  0  0  0  0  0  0  0  0  0  0  0
    2.3554   -1.3056    0.0000 O   0  0  0  0  0  0  0  0  0  0  0  0
   -0.6072   -2.4605    0.0000 C   0  0  0  0  0  0  0  0  0  0  0  0
   -0.2716   -3.2142    0.0000 C   0  0  0  0  0  0  0  0  0  0  0  0
   -0.7565   -3.8816    0.0000 C   0  0  0  0  0  0  0  0  0  0  0  0
   -1.5770   -3.7954    0.0000 C   0  0  0  0  0  0  0  0  0  0  0  0
   -1.9126   -3.0417    0.0000 C   0  0  0  0  0  0  0  0  0  0  0  0
   -1.4276   -2.3743    0.0000 C   0  0  0  0  0  0  0  0  0  0  0  0
  1  2  1  0
  1  5  1  0
  1 14  1  0
  2  3  1  0
  2  4  1  0
  5  6  2  0
  5  7  1  0
  7  8  2  0
  7 12  1  0
  8  9  1  0
  9 10  2  0
 10 11  1  0
 10 13  1  0
 11 12  2  0
 14 15  2  0
 14 18  1  0
 15 16  1  0
 15 19  1  0
 16 17  1  0
 17 18  2  0
 17 22  1  0
 19 20  1  0
 19 21  2  0
 22 23  2  0
 22 27  1  0
 23 24  1  0
 24 25  2  0
 25 26  1  0
 26 27  2  0
M  END
>  <DRUGBANK_ID>  (1) 
DB03647

>  <SECONDARY_ACCESSION_NUMBERS>  (1) 
EXPT01914

>  <COMMON_NAME>  (1) 
3-[Isopropyl(4-Methylbenzoyl)Amino]-5-Phenylthiophene-2-Carboxylic Acid

$$$$
