
     RDKit          2D

 43 50  0  0  1  0  0  0  0  0999 V2000
    1.7977   -2.4583    0.0000 C   0  0  0  0  0  0  0  0  0  0  0  0
    1.7947   -3.2833    0.0000 C   0  0  0  0  0  0  0  0  0  0  0  0
    2.5121   -3.6975    0.0000 C   0  0  0  0  0  0  0  0  0  0  0  0
    3.2249   -3.2867    0.0000 C   0  0  0  0  0  0  0  0  0  0  0  0
    4.0548   -3.4481    0.0000 N   0  0  0  0  0  0  0  0  0  0  0  0
    4.4911   -2.6890    0.0000 C   0  0  0  0  0  0  0  0  0  0  0  0
    3.9351   -2.0593    0.0000 C   0  0  0  0  0  0  0  0  0  0  0  0
    2.5123   -2.0492    0.0000 C   0  0  0  0  0  0  0  0  0  0  0  0
    3.2250   -2.4653    0.0000 C   0  0  0  0  0  0  0  0  0  0  0  0
    3.9439   -1.2338    0.0000 C   0  0  0  0  0  0  0  0  0  0  0  0
    2.5123   -1.2262    0.0000 C   0  0  0  0  0  0  0  0  0  0  0  0
    3.2270   -0.8149    0.0000 C   0  0  0  0  0  0  0  0  0  0  0  0
    3.2280    0.0051    0.0000 N   0  0  0  0  0  0  0  0  0  0  0  0
    2.5161    0.4201    0.0000 C   0  0  0  0  0  0  0  0  0  0  0  0
    1.8015    0.0087    0.0000 C   0  0  0  0  0  0  0  0  0  0  0  0
    1.7987   -0.8174    0.0000 C   0  0  0  0  0  0  0  0  0  0  0  0
    1.0862    0.4240    0.0000 C   0  0  0  0  0  0  0  0  0  0  0  0
    0.3691    0.0123    0.0000 N   0  0  0  0  0  0  0  0  0  0  0  0
    3.9456    0.4167    0.0000 C   0  0  0  0  0  0  0  0  0  0  0  0
    1.0883    1.2510    0.0000 O   0  0  0  0  0  0  0  0  0  0  0  0
   -0.3534    0.4167    0.0000 C   0  0  0  0  0  0  0  0  0  0  0  0
   -0.8488    1.0830    0.0000 C   0  0  0  0  0  0  0  0  0  0  0  0
   -0.8362   -0.2550    0.0000 O   0  0  0  0  0  0  0  0  0  0  0  0
   -1.6252   -0.0070    0.0000 C   0  0  0  0  0  0  0  0  0  0  0  0
   -1.6287    0.8157    0.0000 N   0  0  0  0  0  0  0  0  0  0  0  0
   -2.3390    1.2218    0.0000 C   0  0  0  0  0  0  0  0  0  0  0  0
   -3.0504    0.8097    0.0000 C   0  0  0  0  0  0  0  0  0  0  0  0
   -2.3320   -0.4237    0.0000 C   0  0  0  0  0  0  0  0  0  0  0  0
   -3.0484   -0.0147    0.0000 N   0  0  0  0  0  0  0  0  0  0  0  0
   -3.6585   -0.5698    0.0000 C   0  0  0  0  0  0  0  0  0  0  0  0
   -3.3193   -1.3218    0.0000 C   0  0  0  0  0  0  0  0  0  0  0  0
   -2.4994   -1.2313    0.0000 C   0  0  0  0  0  0  0  0  0  0  0  0
   -1.6204   -0.8379    0.0000 O   0  0  0  0  0  0  0  0  0  0  0  0
   -0.6037    1.8730    0.0000 O   0  0  0  0  0  0  0  0  0  0  0  0
   -3.7674    1.2218    0.0000 O   0  0  0  0  0  0  0  0  0  0  0  0
   -2.3413    2.0489    0.0000 C   0  0  0  0  0  0  0  0  0  0  0  0
   -3.0587    2.4604    0.0000 C   0  0  0  0  0  0  0  0  0  0  0  0
   -3.0584    3.2860    0.0000 C   0  0  0  0  0  0  0  0  0  0  0  0
   -3.7750    3.6975    0.0000 C   0  0  0  0  0  0  0  0  0  0  0  0
   -4.4911    3.2819    0.0000 C   0  0  0  0  0  0  0  0  0  0  0  0
   -4.4861    2.4505    0.0000 C   0  0  0  0  0  0  0  0  0  0  0  0
   -3.7689    2.0427    0.0000 C   0  0  0  0  0  0  0  0  0  0  0  0
    0.1617    0.9270    0.0000 C   0  0  0  0  0  0  0  0  0  0  0  0
  1  2  2  0
  2  3  1  0
  3  4  2  0
  4  5  1  0
  5  6  1  0
  6  7  2  0
  7 10  1  0
  7  9  1  0
  8  1  1  0
  8  9  2  0
  8 11  1  0
  9  4  1  0
 12 10  1  6
 11 12  1  0
 11 16  1  1
 12 13  1  0
 13 14  1  0
 13 19  1  0
 14 15  1  0
 15 16  1  0
 15 17  1  1
 17 18  1  0
 17 20  2  0
 21 22  1  0
 21 43  1  1
 21 18  1  0
 22 25  1  0
 22 34  2  0
 23 21  1  0
 24 23  1  0
 24 25  1  0
 24 28  1  0
 24 33  1  6
 25 26  1  0
 26 27  1  0
 26 36  1  6
 27 29  1  0
 27 35  2  0
 28 29  1  0
 29 30  1  0
 30 31  1  0
 31 32  1  0
 28 32  1  6
 36 37  1  0
 37 38  2  0
 38 39  1  0
 39 40  2  0
 40 41  1  0
 41 42  2  0
 42 37  1  0
M  END
>  <DRUGBANK_ID>  (1) 
DB00320

>  <SECONDARY_ACCESSION_NUMBERS>  (1) 
APRD00476; DB05743

>  <COMMON_NAME>  (1) 
Dihydroergotamine

>  <CAS_NUMBER>  (1) 
511-12-6

>  <UNII>  (1) 
436O5HM03C

>  <SYNONYMS>  (1) 
(2R,4R,7R)-N-[(1S,2S,4R,7S)-7-benzyl-2-hydroxy-4-methyl-5,8-dioxo-3-oxa-6,9-diazatricyclo[7.3.0.02,6]dodecan-4-yl]-6-methyl-6,11-diazatetracyclo[7.6.1.02,7.012,16]hexadeca-1(16),9,12,14-tetraene-4-carboxamide; 5'-benzyl-12'-hydroxy-2'-methyl-3',6',18-trioxo-9,10-dihydroergotaman; 9,10-dihydro-12'-hydroxy-2'-methyl-5'-(phenylmethyl)ergotoman-3',6',18-trione; 9,10-dihydroergotamine; Dihidroergotamina; Dihydroergotamin; Dihydroergotamine; Dihydroergotaminum; Diidroergotamina

$$$$
