B65
     RDKit          2D

 25 26  0  0  0  0  0  0  0  0999 V2000
   -2.7963   -2.0105    0.0000 C   0  0  0  0  0  0  0  0  0  0  0  0
   -3.2088   -2.7250    0.0000 C   0  0  0  0  0  0  0  0  0  0  0  0
   -4.0338   -2.7250    0.0000 C   0  0  0  0  0  0  0  0  0  0  0  0
   -4.4463   -2.0105    0.0000 C   0  0  0  0  0  0  0  0  0  0  0  0
   -4.0338   -1.2960    0.0000 C   0  0  0  0  0  0  0  0  0  0  0  0
   -3.2088   -1.2960    0.0000 C   0  0  0  0  0  0  0  0  0  0  0  0
   -2.7963   -0.5815    0.0000 O   0  0  0  0  0  0  0  0  0  0  0  0
   -1.9713   -0.5815    0.0000 C   0  0  0  0  0  0  0  0  0  0  0  0
   -1.5588    0.1329    0.0000 C   0  0  0  0  0  0  0  0  0  0  0  0
   -1.5588   -1.2960    0.0000 C   0  0  0  0  0  0  0  0  0  0  0  0
   -0.7338   -1.2960    0.0000 C   0  0  0  0  0  0  0  0  0  0  0  0
   -0.3213   -0.5815    0.0000 C   0  0  0  0  0  0  0  0  0  0  0  0
   -0.7338    0.1329    0.0000 C   0  0  0  0  0  0  0  0  0  0  0  0
   -0.3213    0.8474    0.0000 C   0  0  0  0  0  0  0  0  0  0  0  0
    0.5037    0.8474    0.0000 C   0  0  0  0  0  0  0  0  0  0  0  0
    0.9162    1.5619    0.0000 C   0  0  0  0  0  0  0  0  0  0  0  0
    1.7412    1.5619    0.0000 C   0  0  0  0  0  0  0  0  0  0  0  0
    2.1537    2.2763    0.0000 P   0  0  0  0  0  0  0  0  0  0  0  0
    2.5662    2.9908    0.0000 O   0  0  0  0  0  0  0  0  0  0  0  0
    2.8681    1.8638    0.0000 O   0  0  0  0  0  0  0  0  0  0  0  0
    1.4392    2.6888    0.0000 O   0  0  0  0  0  0  0  0  0  0  0  0
    2.1537    0.8474    0.0000 S   0  0  0  0  0  0  0  0  0  0  0  0
    1.4392    0.4349    0.0000 O   0  0  0  0  0  0  0  0  0  0  0  0
    2.8681    1.2599    0.0000 O   0  0  0  0  0  0  0  0  0  0  0  0
    2.5662    0.1329    0.0000 O   0  0  0  0  0  0  0  0  0  0  0  0
  1  2  2  0
  1  6  1  0
  2  3  1  0
  3  4  2  0
  4  5  1  0
  5  6  2  0
  6  7  1  0
  7  8  1  0
  8  9  2  0
  8 10  1  0
  9 13  1  0
 10 11  2  0
 11 12  1  0
 12 13  2  0
 13 14  1  0
 14 15  1  0
 15 16  1  0
 17 16  1  6
 17 18  1  0
 17 22  1  0
 18 19  1  0
 18 20  1  0
 18 21  2  0
 22 23  2  0
 22 24  2  0
 22 25  1  0
M  END
>  <DRUGBANK_ID>  (1) 
DB07420

>  <COMMON_NAME>  (1) 
(1R)-4-(3-phenoxyphenyl)-1-phosphonobutane-1-sulfonic acid

>  <UNII>  (1) 
J6VPP7AB3T

$$$$
