4DI
     RDKit          2D

 11 10  0  0  0  0  0  0  0  0999 V2000
   -2.0472    0.0754    0.0000 C   0  0  0  0  0  0  0  0  0  0  0  0
   -1.3326   -0.3371    0.0000 S   0  0  0  0  0  0  0  0  0  0  0  0
   -0.6180    0.0754    0.0000 C   0  0  0  0  0  0  0  0  0  0  0  0
    0.0965   -0.3371    0.0000 C   0  0  0  0  0  0  0  0  0  0  0  0
    0.8110    0.0754    0.0000 C   0  0  0  0  0  0  0  0  0  0  0  0
    1.5255   -0.3371    0.0000 C   0  0  0  0  0  0  0  0  0  0  0  0
    2.2401    0.0754    0.0000 N   0  0  0  0  0  0  0  0  0  0  0  0
    2.9545   -0.3371    0.0000 C   0  0  0  0  0  0  0  0  0  0  0  0
    2.2401    0.9005    0.0000 C   0  0  0  0  0  0  0  0  0  0  0  0
   -2.7616   -0.3371    0.0000 N   0  0  0  0  0  0  0  0  0  0  0  0
   -2.0472    0.9005    0.0000 N   0  0  0  0  0  0  0  0  0  0  0  0
  1  2  1  0
  1 10  1  0
  1 11  2  0
  2  3  1  0
  3  4  1  0
  4  5  1  0
  5  6  1  0
  6  7  1  0
  7  8  1  0
  7  9  1  0
M  END
>  <DRUGBANK_ID>  (1) 
DB07106

>  <COMMON_NAME>  (1) 
SKF-91488

>  <CAS_NUMBER>  (1) 
68643-23-2

>  <UNII>  (1) 
1I4LVX494H

>  <SYNONYMS>  (1) 
Homodimaprit

$$$$
