
     RDKit          2D

 21 22  0  0  0  0  0  0  0  0999 V2000
   -0.6947   -2.6185    0.0000 P   0  0  0  0  0  0  0  0  0  0  0  0
    0.5345   -0.4127    0.0000 O   0  0  0  0  0  0  0  0  0  0  0  0
   -1.0303   -1.8648    0.0000 O   0  0  0  0  0  0  0  0  0  0  0  0
   -1.5850   -0.1578    0.0000 O   0  0  0  0  0  0  0  0  0  0  0  0
    1.5850   -1.7786    0.0000 O   0  0  0  0  0  0  0  0  0  0  0  0
   -1.4484   -2.9541    0.0000 O   0  0  0  0  0  0  0  0  0  0  0  0
   -0.3592   -3.3722    0.0000 O   0  0  0  0  0  0  0  0  0  0  0  0
   -1.5618    0.8972    0.0000 O   0  0  0  0  0  0  0  0  0  0  0  0
    0.0589   -2.2829    0.0000 O   0  0  0  0  0  0  0  0  0  0  0  0
   -0.1329    3.3722    0.0000 O   0  0  0  0  0  0  0  0  0  0  0  0
   -0.1329    0.8972    0.0000 N   0  0  0  0  0  0  0  0  0  0  0  0
   -0.8473    2.1347    0.0000 N   0  0  0  0  0  0  0  0  0  0  0  0
   -0.5454   -1.1974    0.0000 C   0  0  0  0  0  0  0  0  0  0  0  0
   -0.8003   -0.4127    0.0000 C   0  0  0  0  0  0  0  0  0  0  0  0
    0.2795   -1.1974    0.0000 C   0  0  0  0  0  0  0  0  0  0  0  0
   -0.1329    0.0721    0.0000 C   0  0  0  0  0  0  0  0  0  0  0  0
    0.7645   -1.8648    0.0000 C   0  0  0  0  0  0  0  0  0  0  0  0
   -0.8473    1.3097    0.0000 C   0  0  0  0  0  0  0  0  0  0  0  0
    0.5815    1.3097    0.0000 C   0  0  0  0  0  0  0  0  0  0  0  0
    0.5815    2.1347    0.0000 C   0  0  0  0  0  0  0  0  0  0  0  0
   -0.1329    2.5472    0.0000 C   0  0  0  0  0  0  0  0  0  0  0  0
  1  3  1  0
  1  6  1  0
  1  7  1  0
  1  9  2  0
  2 15  1  0
  2 16  1  0
  5 17  1  0
  8 18  2  0
 10 21  2  0
 11 18  1  0
 11 19  1  0
 12 18  1  0
 12 21  1  0
 13  3  1  1
 13 14  1  0
 13 15  1  0
 14  4  1  6
 14 16  1  0
 15 17  1  6
 16 11  1  6
 19 20  2  0
 20 21  1  0
M  END
>  <DRUGBANK_ID>  (1) 
DB02805

>  <SECONDARY_ACCESSION_NUMBERS>  (1) 
EXPT03163

>  <COMMON_NAME>  (1) 
Arabinouridine 3'-phosphate

>  <SYNONYMS>  (1) 
1-(3-O-phosphono-beta-L-arabinofuranosyl)Pyrimidine-2,4(1H,3H)-Dione; Arabinouridine 3'-Phosphate; Uracil arabinose-3'-phosphate

$$$$
