
     RDKit          2D

 35 38  0  0  1  0  0  0  0  0999 V2000
    3.1170   -6.6848    0.0000 C   0  0  0  0  0  0  0  0  0  0  0  0
    3.8315   -6.2723    0.0000 C   0  0  0  0  0  0  0  0  0  0  0  0
   -3.1419   -8.0686    0.0000 C   0  0  0  0  0  0  0  0  0  0  0  0
    2.4025   -6.2723    0.0000 C   0  0  0  0  0  0  0  0  0  0  0  0
    3.8315   -5.4473    0.0000 C   0  0  0  0  0  0  0  0  0  0  0  0
   -2.5371   -7.5075    0.0000 C   0  0  0  0  0  0  0  0  0  0  0  0
    0.2591   -5.0348    0.0000 C   0  0  0  0  0  0  0  0  0  0  0  0
    0.9736   -6.2723    0.0000 C   0  0  0  0  0  0  0  0  0  0  0  0
   -0.4554   -5.4473    0.0000 C   0  0  0  0  0  0  0  0  0  0  0  0
    0.2591   -6.6848    0.0000 C   0  0  0  0  0  0  0  0  0  0  0  0
   -5.2154   -4.6769    0.0000 C   0  0  0  0  0  0  0  0  0  0  0  0
   -4.6934   -6.0071    0.0000 C   0  0  0  0  0  0  0  0  0  0  0  0
   -5.9834   -4.9783    0.0000 C   0  0  0  0  0  0  0  0  0  0  0  0
   -5.4614   -6.3085    0.0000 C   0  0  0  0  0  0  0  0  0  0  0  0
   -3.9577   -7.9456    0.0000 C   0  0  0  0  0  0  0  0  0  0  0  0
   -4.0688   -6.4632    0.0000 C   0  0  0  0  0  0  0  0  0  0  0  0
    0.9736   -5.4473    0.0000 C   0  0  0  0  0  0  0  0  0  0  0  0
   -4.5704   -5.1913    0.0000 C   0  0  0  0  0  0  0  0  0  0  0  0
   -0.4554   -6.2723    0.0000 C   0  0  0  0  0  0  0  0  0  0  0  0
   -6.1064   -5.7941    0.0000 C   0  0  0  0  0  0  0  0  0  0  0  0
    2.4025   -5.4473    0.0000 C   0  0  0  0  0  0  0  0  0  0  0  0
   -3.2804   -6.2200    0.0000 C   0  0  0  0  0  0  0  0  0  0  0  0
    3.1170   -5.0348    0.0000 C   0  0  0  0  0  0  0  0  0  0  0  0
   -2.5988   -6.6848    0.0000 C   0  0  0  0  0  0  0  0  0  0  0  0
    1.6881   -5.0348    0.0000 C   0  0  0  0  0  0  0  0  0  0  0  0
   -3.8025   -4.8899    0.0000 C   0  0  0  0  0  0  0  0  0  0  0  0
   -1.1698   -6.6848    0.0000 C   0  0  0  0  0  0  0  0  0  0  0  0
   -4.3702   -7.2312    0.0000 N   0  0  0  0  0  0  0  0  0  0  0  0
   -3.1575   -5.4042    0.0000 N   0  0  0  0  0  0  0  0  0  0  0  0
   -6.8743   -6.0955    0.0000 O   0  0  0  0  0  0  0  0  0  0  0  0
    3.1170   -4.2098    0.0000 O   0  0  0  0  0  0  0  0  0  0  0  0
    1.6881   -4.2098    0.0000 O   0  0  0  0  0  0  0  0  0  0  0  0
   -3.6795   -4.0741    0.0000 O   0  0  0  0  0  0  0  0  0  0  0  0
   -1.1698   -7.5098    0.0000 O   0  0  0  0  0  0  0  0  0  0  0  0
   -1.8843   -6.2723    0.0000 O   0  0  0  0  0  0  0  0  0  0  0  0
  2  1  2  0
  4  1  1  0
  5  2  1  0
  6  3  1  0
  9  7  2  0
 10  8  1  0
 13 11  2  0
 14 12  1  0
 15  3  1  0
 17  7  1  0
 17  8  2  0
 18 11  1  0
 18 12  2  0
 19  9  1  0
 19 10  2  0
 20 13  1  0
 20 14  2  0
 21  4  2  0
 22 16  1  0
 22 29  1  1
 23  5  2  0
 23 21  1  0
 24  6  1  0
 24 22  1  0
 24 35  1  6
 25 17  1  0
 25 21  1  0
 26 18  1  0
 27 19  1  0
 28 15  1  0
 28 16  1  0
 29 26  1  0
 30 20  1  0
 31 23  1  0
 32 25  2  0
 33 26  2  0
 34 27  2  0
 35 27  1  0
M  END
>  <DRUGBANK_ID>  (1) 
DB01940

>  <SECONDARY_ACCESSION_NUMBERS>  (1) 
EXPT00646

>  <COMMON_NAME>  (1) 
Balanol Analog 2

$$$$
