HSG
     RDKit          2D

 20 20  0  0  0  0  0  0  0  0999 V2000
   -4.2759    0.5143    0.0000 C   0  0  0  0  0  0  0  0  0  0  0  0
   -3.5614    0.1018    0.0000 C   0  0  0  0  0  0  0  0  0  0  0  0
   -2.8469    0.5143    0.0000 C   0  0  0  0  0  0  0  0  0  0  0  0
   -2.1325    0.1018    0.0000 C   0  0  0  0  0  0  0  0  0  0  0  0
   -1.4180    0.5143    0.0000 C   0  0  0  0  0  0  0  0  0  0  0  0
   -0.7035    0.1018    0.0000 C   0  0  0  0  0  0  0  0  0  0  0  0
    0.0110    0.5143    0.0000 C   0  0  0  0  0  0  0  0  0  0  0  0
    0.7254    0.1018    0.0000 C   0  0  0  0  0  0  0  0  0  0  0  0
    1.4399    0.5143    0.0000 O   0  0  0  0  0  0  0  0  0  0  0  0
    2.1544    0.1018    0.0000 C   0  0  0  0  0  0  0  0  0  0  0  0
    2.8688    0.5143    0.0000 O   0  0  0  0  0  0  0  0  0  0  0  0
    3.5833    0.1018    0.0000 C   0  0  0  0  0  0  0  0  0  0  0  0
    4.2978    0.5143    0.0000 C   0  0  0  0  0  0  0  0  0  0  0  0
    4.2978    1.3393    0.0000 O   0  0  0  0  0  0  0  0  0  0  0  0
    3.5833   -0.7232    0.0000 C   0  0  0  0  0  0  0  0  0  0  0  0
    4.2978   -1.1357    0.0000 O   0  0  0  0  0  0  0  0  0  0  0  0
    2.8688   -1.1357    0.0000 C   0  0  0  0  0  0  0  0  0  0  0  0
    2.8688   -1.9607    0.0000 O   0  0  0  0  0  0  0  0  0  0  0  0
    2.1544   -0.7232    0.0000 C   0  0  0  0  0  0  0  0  0  0  0  0
    1.4399   -1.1357    0.0000 O   0  0  0  0  0  0  0  0  0  0  0  0
  1  2  1  0
  2  3  1  0
  3  4  1  0
  4  5  1  0
  5  6  1  0
  6  7  1  0
  7  8  1  0
  8  9  1  0
 10  9  1  6
 10 11  1  0
 10 19  1  0
 11 12  1  0
 12 13  1  1
 12 15  1  0
 13 14  1  0
 15 16  1  6
 15 17  1  0
 17 18  1  6
 17 19  1  0
 19 20  1  1
M  END
>  <DRUGBANK_ID>  (1) 
DB07923

>  <COMMON_NAME>  (1) 
octyl alpha-L-altropyranoside

$$$$
