
     RDKit          2D

 27 30  0  0  0  0  0  0  0  0999 V2000
    1.8129    1.2488    0.0000 O   0  0  0  0  0  0  0  0  0  0  0  0
    3.4797    1.2488    0.0000 C   0  0  0  0  0  0  0  0  0  0  0  0
    1.0984    0.8374    0.0000 C   0  0  0  0  0  0  0  0  0  0  0  0
    3.8932    1.9634    0.0000 C   0  0  0  0  0  0  0  0  0  0  0  0
    3.8932    0.5364    0.0000 O   0  0  0  0  0  0  0  0  0  0  0  0
    1.0984    1.6624    0.0000 C   0  0  0  0  0  0  0  0  0  0  0  0
    0.3860    0.4217    0.0000 C   0  0  0  0  0  0  0  0  0  0  0  0
    1.8109    0.4217    0.0000 C   0  0  0  0  0  0  0  0  0  0  0  0
    1.8129    2.0740    0.0000 C   0  0  0  0  0  0  0  0  0  0  0  0
    0.3839    2.0740    0.0000 O   0  0  0  0  0  0  0  0  0  0  0  0
    0.3860    1.2467    0.0000 C   0  0  0  0  0  0  0  0  0  0  0  0
    0.3860   -0.4115    0.0000 C   0  0  0  0  0  0  0  0  0  0  0  0
   -0.3264    0.8374    0.0000 C   0  0  0  0  0  0  0  0  0  0  0  0
    2.5276    0.8333    0.0000 C   0  0  0  0  0  0  0  0  0  0  0  0
    1.8109   -0.4115    0.0000 C   0  0  0  0  0  0  0  0  0  0  0  0
   -0.3264   -0.8272    0.0000 C   0  0  0  0  0  0  0  0  0  0  0  0
   -1.0390    0.4217    0.0000 C   0  0  0  0  0  0  0  0  0  0  0  0
   -1.0390   -0.4115    0.0000 C   0  0  0  0  0  0  0  0  0  0  0  0
   -0.3264   -1.6584    0.0000 C   0  0  0  0  0  0  0  0  0  0  0  0
   -1.7516   -0.8272    0.0000 C   0  0  0  0  0  0  0  0  0  0  0  0
   -1.0390   -2.0740    0.0000 C   0  0  0  0  0  0  0  0  0  0  0  0
   -1.7516   -1.6584    0.0000 C   0  0  0  0  0  0  0  0  0  0  0  0
   -2.4640   -0.4115    0.0000 C   0  0  0  0  0  0  0  0  0  0  0  0
   -2.4640   -2.0740    0.0000 C   0  0  0  0  0  0  0  0  0  0  0  0
   -3.1767   -0.8272    0.0000 C   0  0  0  0  0  0  0  0  0  0  0  0
   -3.1767   -1.6584    0.0000 C   0  0  0  0  0  0  0  0  0  0  0  0
   -3.8932   -2.0699    0.0000 O   0  0  0  0  0  0  0  0  0  0  0  0
  1  2  1  0
  2  4  1  0
  2  5  2  0
  3  1  1  6
  3  6  1  0
  3  8  1  0
  6  9  1  0
  6 10  2  0
  7  3  1  0
  7 11  1  1
  7 13  1  0
  8 14  2  0
  8 15  1  0
 12  7  1  0
 12 15  1  1
 12 16  1  0
 13 17  1  0
 16 18  1  0
 16 19  1  6
 18 17  1  1
 18 20  1  0
 19 21  1  0
 20 22  1  0
 20 23  1  6
 21 22  1  0
 22 24  2  0
 23 25  1  0
 24 26  1  0
 25 26  1  0
 26 27  2  0
M  END
>  <DRUGBANK_ID>  (1) 
DB14583

>  <COMMON_NAME>  (1) 
Segesterone acetate

>  <CAS_NUMBER>  (1) 
7759-35-5

>  <UNII>  (1) 
9AMX4Q13CC

>  <SYNONYMS>  (1) 
16-Methylene-17-alpha-acetoxy-19-nor-4-pregnene-3,20-dione; 17-Hydroxy-16-methylene-19-norpregn-4-ene-3,20-dione acetate; Elcometrine; Nestorone; Segesterone acetate

$$$$
