
     RDKit          2D

 21 24  0  0  0  0  0  0  0  0999 V2000
    1.1270   -2.4909    0.0000 C   0  0  0  0  0  0  0  0  0  0  0  0
    1.3819   -1.7063    0.0000 C   0  0  0  0  0  0  0  0  0  0  0  0
    0.7144   -1.2214    0.0000 N   0  0  0  0  0  0  0  0  0  0  0  0
    0.0470   -1.7063    0.0000 C   0  0  0  0  0  0  0  0  0  0  0  0
    0.3020   -2.4909    0.0000 C   0  0  0  0  0  0  0  0  0  0  0  0
   -2.1433    1.2534    0.0000 C   0  0  0  0  0  0  0  0  0  0  0  0
   -2.1433    2.0784    0.0000 C   0  0  0  0  0  0  0  0  0  0  0  0
   -1.4289    2.4909    0.0000 C   0  0  0  0  0  0  0  0  0  0  0  0
   -1.4288    0.8409    0.0000 C   0  0  0  0  0  0  0  0  0  0  0  0
   -0.7144    1.2535    0.0000 C   0  0  0  0  0  0  0  0  0  0  0  0
   -0.7144    2.0784    0.0000 C   0  0  0  0  0  0  0  0  0  0  0  0
    0.0000    2.4909    0.0000 S   0  0  0  0  0  0  0  0  0  0  0  0
    0.0000    0.8410    0.0000 N   0  0  0  0  0  0  0  0  0  0  0  0
    0.7144    1.2535    0.0000 C   0  0  0  0  0  0  0  0  0  0  0  0
    0.7144    2.0784    0.0000 C   0  0  0  0  0  0  0  0  0  0  0  0
    1.4288    2.4909    0.0000 C   0  0  0  0  0  0  0  0  0  0  0  0
    2.1433    2.0784    0.0000 C   0  0  0  0  0  0  0  0  0  0  0  0
    2.1433    1.2535    0.0000 C   0  0  0  0  0  0  0  0  0  0  0  0
    1.4288    0.8410    0.0000 C   0  0  0  0  0  0  0  0  0  0  0  0
    0.0000    0.0160    0.0000 C   0  0  0  0  0  0  0  0  0  0  0  0
    0.7144   -0.3964    0.0000 C   0  0  0  0  0  0  0  0  0  0  0  0
  1  5  1  0
  1  2  1  0
  2  3  1  0
  3  4  1  0
  4  5  1  0
  6  7  2  0
  7  8  1  0
  8 11  2  0
  9  6  1  0
 10 13  1  0
 10  9  2  0
 10 11  1  0
 11 12  1  0
 12 15  1  0
 13 20  1  0
 14 13  1  0
 14 15  2  0
 15 16  1  0
 16 17  2  0
 17 18  1  0
 18 19  2  0
 19 14  1  0
 20 21  1  0
 21  3  1  0
M  END
>  <DRUGBANK_ID>  (1) 
DB15978

>  <COMMON_NAME>  (1) 
Parathiazine

>  <CAS_NUMBER>  (1) 
84-08-2

>  <UNII>  (1) 
2305SQ56Z2

>  <SYNONYMS>  (1) 
Parathiazine; Paratiazina; Pyrathiazine

$$$$
