371
     RDKit          2D

 28 31  0  0  0  0  0  0  0  0999 V2000
   -0.1050   -2.3389    0.0000 O   0  0  0  0  0  0  0  0  0  0  0  0
   -0.8195   -2.7514    0.0000 C   0  0  0  0  0  0  0  0  0  0  0  0
   -0.8195   -3.5764    0.0000 C   0  0  0  0  0  0  0  0  0  0  0  0
   -0.1050   -3.9889    0.0000 C   0  0  0  0  0  0  0  0  0  0  0  0
    1.3239   -3.9889    0.0000 C   0  0  0  0  0  0  0  0  0  0  0  0
    2.0384   -3.5764    0.0000 C   0  0  0  0  0  0  0  0  0  0  0  0
    2.0384   -2.7514    0.0000 C   0  0  0  0  0  0  0  0  0  0  0  0
    1.3239   -2.3389    0.0000 C   0  0  0  0  0  0  0  0  0  0  0  0
    0.6094   -2.7514    0.0000 C   0  0  0  0  0  0  0  0  0  0  0  0
    0.6094   -3.5764    0.0000 C   0  0  0  0  0  0  0  0  0  0  0  0
   -0.1050   -4.8139    0.0000 O   0  0  0  0  0  0  0  0  0  0  0  0
   -1.5340   -2.3389    0.0000 C   0  0  0  0  0  0  0  0  0  0  0  0
   -2.2484   -2.7514    0.0000 C   0  0  0  0  0  0  0  0  0  0  0  0
   -2.9629   -2.3389    0.0000 C   0  0  0  0  0  0  0  0  0  0  0  0
   -2.9629   -1.5139    0.0000 C   0  0  0  0  0  0  0  0  0  0  0  0
   -2.2484   -1.1014    0.0000 C   0  0  0  0  0  0  0  0  0  0  0  0
   -1.5340   -1.5139    0.0000 C   0  0  0  0  0  0  0  0  0  0  0  0
    2.7529   -3.9889    0.0000 C   0  0  0  0  0  0  0  0  0  0  0  0
   -1.5340   -3.9889    0.0000 O   0  0  0  0  0  0  0  0  0  0  0  0
   -2.2484   -0.2764    0.0000 O   0  0  0  0  0  0  0  0  0  0  0  0
   -3.6774   -1.1014    0.0000 O   0  0  0  0  0  0  0  0  0  0  0  0
    0.9114   -0.2443    0.0000 C   0  0  0  0  0  0  0  0  0  0  0  0
    0.6565   -1.0289    0.0000 C   0  0  0  0  0  0  0  0  0  0  0  0
    1.3239   -1.5139    0.0000 N   0  0  0  0  0  0  0  0  0  0  0  0
    1.9914   -1.0289    0.0000 S   0  0  0  0  0  0  0  0  0  0  0  0
    1.7364   -0.2443    0.0000 C   0  0  0  0  0  0  0  0  0  0  0  0
    2.5498   -1.6362    0.0000 O   0  0  0  0  0  0  0  0  0  0  0  0
    2.8001   -0.8659    0.0000 O   0  0  0  0  0  0  0  0  0  0  0  0
  1  2  1  0
  1  9  1  0
  2 12  1  0
  2  3  2  0
  3 19  1  0
  3  4  1  0
  4 10  1  0
  4 11  2  0
  5 10  2  0
  5  6  1  0
  6  7  2  0
  6 18  1  0
  7  8  1  0
  8 24  1  0
  8  9  2  0
  9 10  1  0
 12 13  2  0
 12 17  1  0
 13 14  1  0
 14 15  2  0
 15 21  1  0
 15 16  1  0
 16 20  1  0
 16 17  2  0
 22 26  1  0
 22 23  1  0
 23 24  1  0
 24 25  1  0
 25 26  1  0
 25 27  2  0
 25 28  2  0
M  END
>  <DRUGBANK_ID>  (1) 
DB07024

>  <COMMON_NAME>  (1) 
2-(3,4-DIHYDROXYPHENYL)-8-(1,1-DIOXIDOISOTHIAZOLIDIN-2-YL)-3-HYDROXY-6-METHYL-4H-CHROMEN-4-ONE

$$$$
