
     RDKit          2D

 16 15  0  0  0  0  0  0  0  0999 V2000
   -3.2151    0.2062    0.0000 O   0  0  0  0  0  0  0  0  0  0  0  0
   -2.5006   -0.2062    0.0000 C   0  0  0  0  0  0  0  0  0  0  0  0
   -1.7861    0.2062    0.0000 C   0  0  0  0  0  0  0  0  0  0  0  0
   -1.0717   -0.2062    0.0000 C   0  0  0  0  0  0  0  0  0  0  0  0
   -0.3572    0.2062    0.0000 C   0  0  0  0  0  0  0  0  0  0  0  0
    0.3572   -0.2062    0.0000 C   0  0  0  0  0  0  0  0  0  0  0  0
    1.0716    0.2062    0.0000 C   0  0  0  0  0  0  0  0  0  0  0  0
    1.7861   -0.2062    0.0000 O   0  0  0  0  0  0  0  0  0  0  0  0
    2.5006    0.2062    0.0000 P   0  0  0  0  0  0  0  0  0  0  0  0
    3.2151   -0.2062    0.0000 O   0  0  0  0  0  0  0  0  0  0  0  0
   -1.7861    1.0312    0.0000 O   0  0  0  0  0  0  0  0  0  0  0  0
   -1.0717   -1.0312    0.0000 O   0  0  0  0  0  0  0  0  0  0  0  0
   -0.3572    1.0312    0.0000 O   0  0  0  0  0  0  0  0  0  0  0  0
    0.3572   -1.0312    0.0000 O   0  0  0  0  0  0  0  0  0  0  0  0
    2.5006    1.0312    0.0000 O   0  0  0  0  0  0  0  0  0  0  0  0
    2.5006   -0.6187    0.0000 O   0  0  0  0  0  0  0  0  0  0  0  0
  1  2  2  0
  2  3  1  0
  3  4  1  0
  3 11  1  6
  4  5  1  0
  4 12  1  6
  5  6  1  0
  5 13  1  6
  6  7  1  0
  6 14  1  1
  7  8  1  0
  8  9  1  0
  9 10  1  0
  9 15  2  0
  9 16  1  0
M  END
>  <DRUGBANK_ID>  (1) 
DB03581

>  <SECONDARY_ACCESSION_NUMBERS>  (1) 
EXPT01538

>  <COMMON_NAME>  (1) 
Glucose-6-Phosphate

>  <CAS_NUMBER>  (1) 
56-73-5

>  <UNII>  (1) 
375AW34SQA

$$$$
