982
     RDKit          2D

 17 18  0  0  0  0  0  0  0  0999 V2000
    1.5325    0.3557    0.0000 C   0  0  0  0  0  0  0  0  0  0  0  0
    2.2469   -0.0568    0.0000 C   0  0  0  0  0  0  0  0  0  0  0  0
    2.2469   -0.8818    0.0000 C   0  0  0  0  0  0  0  0  0  0  0  0
    1.5325   -1.2943    0.0000 N   0  0  0  0  0  0  0  0  0  0  0  0
    0.8180   -0.8818    0.0000 C   0  0  0  0  0  0  0  0  0  0  0  0
    0.8180   -0.0568    0.0000 C   0  0  0  0  0  0  0  0  0  0  0  0
    0.0334   -1.1368    0.0000 S   0  0  0  0  0  0  0  0  0  0  0  0
   -0.4515   -0.4693    0.0000 C   0  0  0  0  0  0  0  0  0  0  0  0
    0.0334    0.1981    0.0000 C   0  0  0  0  0  0  0  0  0  0  0  0
   -1.2765   -0.4693    0.0000 C   0  0  0  0  0  0  0  0  0  0  0  0
   -1.6890    0.2451    0.0000 O   0  0  0  0  0  0  0  0  0  0  0  0
   -0.2216    0.9827    0.0000 O   0  0  0  0  0  0  0  0  0  0  0  0
   -1.0285    1.1543    0.0000 C   0  0  0  0  0  0  0  0  0  0  0  0
   -1.2835    1.9389    0.0000 C   0  0  0  0  0  0  0  0  0  0  0  0
   -2.0904    2.1104    0.0000 O   0  0  0  0  0  0  0  0  0  0  0  0
   -1.6890   -1.1838    0.0000 O   0  0  0  0  0  0  0  0  0  0  0  0
   -0.7314    2.5520    0.0000 O   0  0  0  0  0  0  0  0  0  0  0  0
  1  2  2  0
  1  6  1  0
  2  3  1  0
  3  4  2  0
  4  5  1  0
  5  6  2  0
  5  7  1  0
  6  9  1  0
  7  8  1  0
  8  9  2  0
  8 10  1  0
  9 12  1  0
 10 11  2  0
 10 16  1  0
 12 13  1  0
 13 14  1  0
 14 15  2  0
 14 17  1  0
M  END
>  <DRUGBANK_ID>  (1) 
DB07298

>  <COMMON_NAME>  (1) 
3-(CARBOXYMETHOXY)THIENO[2,3-B]PYRIDINE-2-CARBOXYLIC ACID

$$$$
