
     RDKit          2D

 15 13  0  0  0  0  0  0  0  0999 V2000
    0.0000   -0.2062    0.0000 C   0  0  0  0  0  0  0  0  0  0  0  0
   -0.7144    0.2062    0.0000 C   0  0  0  0  0  0  0  0  0  0  0  0
    0.7144    0.2062    0.0000 C   0  0  0  0  0  0  0  0  0  0  0  0
   -1.4289   -0.2062    0.0000 C   0  0  0  0  0  0  0  0  0  0  0  0
    1.4289   -0.2062    0.0000 C   0  0  0  0  0  0  0  0  0  0  0  0
   -2.1434    0.2062    0.0000 C   0  0  0  0  0  0  0  0  0  0  0  0
    0.0000   -1.0312    0.0000 O   0  0  0  0  0  0  0  0  0  0  0  0
   -0.7144    1.0312    0.0000 O   0  0  0  0  0  0  0  0  0  0  0  0
    0.7144    1.0312    0.0000 O   0  0  0  0  0  0  0  0  0  0  0  0
   -1.4289   -1.0312    0.0000 O   0  0  0  0  0  0  0  0  0  0  0  0
    1.4289   -1.0312    0.0000 O   0  0  0  0  0  0  0  0  0  0  0  0
    2.1434    0.2062    0.0000 O   0  0  0  0  0  0  0  0  0  0  0  0
   -2.8578   -0.2062    0.0000 O   0  0  0  0  0  0  0  0  0  0  0  0
   -2.1434    1.0312    0.0000 O   0  0  0  0  0  0  0  0  0  0  0  0
    2.8578    0.6187    0.0000 Ca  0  0  0  0  0 15  0  0  0  0  0  0
  1  2  1  0
  1  3  1  0
  1  7  1  1
  2  4  1  0
  2  8  1  1
  3  5  1  0
  3  9  1  6
  4  6  1  0
  4 10  1  1
 11  5  2  0
 12  5  1  0
 13  6  2  0
 14  6  1  0
M  CHG  3  12  -1  14  -1  15   2
M  END
>  <DRUGBANK_ID>  (1) 
DB13962

>  <COMMON_NAME>  (1) 
Calcium saccharate

>  <CAS_NUMBER>  (1) 
5793-88-4

>  <UNII>  (1) 
SST07NLK7J

>  <SYNONYMS>  (1) 
Calcii saccharas; Calcium D-glucarate; Calcium D-saccharate; Calcium glucarate; Calcium saccharate; Sacarato calcico; Saccharate de calcium; Saccharated lime

$$$$
