TST
     RDKit          2D

 27 28  0  0  0  0  0  0  0  0999 V2000
    1.6010   -0.5816    0.0000 S   0  0  0  0  0  0  0  0  0  0  0  0
    1.1885   -1.2961    0.0000 C   0  0  0  0  0  0  0  0  0  0  0  0
    0.3635   -1.2961    0.0000 C   0  0  0  0  0  0  0  0  0  0  0  0
   -0.0490   -0.5816    0.0000 N   0  0  0  0  0  0  0  0  0  0  0  0
    0.3635    0.1329    0.0000 C   0  0  0  0  0  0  0  0  0  0  0  0
    1.1885    0.1329    0.0000 C   0  0  0  0  0  0  0  0  0  0  0  0
   -0.0490    0.8474    0.0000 C   0  0  0  0  0  0  0  0  0  0  0  0
    0.3635    1.5618    0.0000 N   0  0  0  0  0  0  0  0  0  0  0  0
   -0.8740    0.8474    0.0000 O   0  0  0  0  0  0  0  0  0  0  0  0
    1.1885    1.5618    0.0000 C   0  0  0  0  0  0  0  0  0  0  0  0
    1.6010    0.8474    0.0000 C   0  0  0  0  0  0  0  0  0  0  0  0
    1.6010    2.2763    0.0000 C   0  0  0  0  0  0  0  0  0  0  0  0
    2.4260    2.2763    0.0000 O   0  0  0  0  0  0  0  0  0  0  0  0
    1.1885    2.9908    0.0000 O   0  0  0  0  0  0  0  0  0  0  0  0
    2.4260    0.8474    0.0000 C   0  0  0  0  0  0  0  0  0  0  0  0
    2.8385    0.1329    0.0000 C   0  0  0  0  0  0  0  0  0  0  0  0
   -0.8740   -0.5816    0.0000 S   0  0  0  0  0  0  0  0  0  0  0  0
   -1.6990   -0.5816    0.0000 C   0  0  0  0  0  0  0  0  0  0  0  0
   -2.1115   -1.2961    0.0000 C   0  0  0  0  0  0  0  0  0  0  0  0
   -2.9365   -1.2961    0.0000 C   0  0  0  0  0  0  0  0  0  0  0  0
   -3.3490   -0.5816    0.0000 C   0  0  0  0  0  0  0  0  0  0  0  0
   -2.9365    0.1329    0.0000 C   0  0  0  0  0  0  0  0  0  0  0  0
   -2.1115    0.1329    0.0000 C   0  0  0  0  0  0  0  0  0  0  0  0
   -4.1740   -0.5816    0.0000 C   0  0  0  0  0  0  0  0  0  0  0  0
   -0.8740    0.2434    0.0000 O   0  0  0  0  0  0  0  0  0  0  0  0
   -0.8740   -1.4066    0.0000 O   0  0  0  0  0  0  0  0  0  0  0  0
    2.8385    1.5618    0.0000 C   0  0  0  0  0  0  0  0  0  0  0  0
  1  2  1  0
  1  6  1  0
  2  3  1  0
  3  4  1  0
  4  5  1  0
  4 17  1  0
  5  6  1  0
  5  7  1  6
  7  8  1  0
  7  9  2  0
 10  8  1  0
 10 11  1  6
 10 12  1  0
 11 15  1  0
 12 13  1  0
 12 14  2  0
 15 16  1  0
 15 27  1  0
 17 18  1  0
 17 25  2  0
 17 26  2  0
 18 19  2  0
 18 23  1  0
 19 20  1  0
 20 21  2  0
 21 22  1  0
 21 24  1  0
 22 23  2  0
M  END
>  <DRUGBANK_ID>  (1) 
DB04012

>  <SECONDARY_ACCESSION_NUMBERS>  (1) 
EXPT03124

>  <COMMON_NAME>  (1) 
(3r)-4-(P-Toluenesulfonyl)-1,4-Thiazane-3-Carboxylicacid-L-Leucine

$$$$
