46937143
     RDKit          2D

 21 22  0  0  1  0  0  0  0  0999 V2000
    4.5080   -0.5635    0.0000 O   0  0  0  0  0  0  0  0  0  0  0  0
    4.5080    1.0865    0.0000 O   0  0  0  0  0  0  0  0  0  0  0  0
    3.0790    1.9116    0.0000 N   0  0  0  0  0  0  0  0  0  0  0  0
    6.0032   -2.8775    0.0000 N   0  0  0  0  0  0  0  0  0  0  0  0
    8.1347   -2.2135    0.0000 N   0  0  0  0  0  0  0  0  0  0  0  0
    2.3645    2.3241    0.0000 C   0  0  0  0  0  0  0  0  0  0  0  0
    3.0790    1.0865    0.0000 C   0  0  0  0  0  0  0  0  0  0  0  0
    3.7935    0.6740    0.0000 C   0  0  0  0  0  0  0  0  0  0  0  0
    1.6500    2.7366    0.0000 C   0  0  0  0  0  0  0  0  0  0  0  0
    2.7770    3.0385    0.0000 C   0  0  0  0  0  0  0  0  0  0  0  0
    1.9520    1.6096    0.0000 C   0  0  0  0  0  0  0  0  0  0  0  0
    3.7935   -0.1510    0.0000 C   0  0  0  0  0  0  0  0  0  0  0  0
    5.2224   -1.8010    0.0000 C   0  0  0  0  0  0  0  0  0  0  0  0
    4.5080   -1.3885    0.0000 C   0  0  0  0  0  0  0  0  0  0  0  0
    6.0032   -1.5496    0.0000 C   0  0  0  0  0  0  0  0  0  0  0  0
    5.2224   -2.6260    0.0000 C   0  0  0  0  0  0  0  0  0  0  0  0
    3.7935   -1.8010    0.0000 C   0  0  0  0  0  0  0  0  0  0  0  0
    6.4846   -2.2135    0.0000 C   0  0  0  0  0  0  0  0  0  0  0  0
    4.5080   -3.0385    0.0000 C   0  0  0  0  0  0  0  0  0  0  0  0
    3.7935   -2.6260    0.0000 C   0  0  0  0  0  0  0  0  0  0  0  0
    7.3097   -2.2135    0.0000 C   0  0  0  0  0  0  0  0  0  0  0  0
  1 12  1  0
  1 14  1  0
  3  6  1  0
  3  7  1  0
  4 16  1  0
  4 18  2  0
  5 21  3  0
  6  9  1  0
  6 10  1  0
  6 11  1  0
  7  8  1  0
  8  2  1  6
  8 12  1  0
 13 14  1  0
 13 15  1  0
 13 16  2  0
 14 17  2  0
 15 18  1  0
 16 19  1  0
 17 20  1  0
 18 21  1  0
 19 20  2  0
M  END
>  <DRUGBANK_ID>  (1) 
DB08347

>  <COMMON_NAME>  (1) 
4-{[(2S)-3-(tert-butylamino)-2-hydroxypropyl]oxy}-3H-indole-2-carbonitrile

$$$$
