
     RDKit          2D

 30 34  0  0  0  0  0  0  0  0999 V2000
   -0.4081    3.1004    0.0000 C   0  0  0  0  0  0  0  0  0  0  0  0
    0.0768    2.4330    0.0000 C   0  0  0  0  0  0  0  0  0  0  0  0
   -0.2587    1.6793    0.0000 C   0  0  0  0  0  0  0  0  0  0  0  0
    0.0768    0.9256    0.0000 C   0  0  0  0  0  0  0  0  0  0  0  0
   -0.5363    0.3736    0.0000 N   0  0  0  0  0  0  0  0  0  0  0  0
   -1.2508    0.7861    0.0000 N   0  0  0  0  0  0  0  0  0  0  0  0
   -1.0792    1.5931    0.0000 C   0  0  0  0  0  0  0  0  0  0  0  0
   -1.5642    2.2605    0.0000 N   0  0  0  0  0  0  0  0  0  0  0  0
   -1.2286    3.0142    0.0000 C   0  0  0  0  0  0  0  0  0  0  0  0
    0.8838    0.7541    0.0000 C   0  0  0  0  0  0  0  0  0  0  0  0
    1.1387   -0.0305    0.0000 N   0  0  0  0  0  0  0  0  0  0  0  0
    1.9233   -0.2854    0.0000 C   0  0  0  0  0  0  0  0  0  0  0  0
    2.6378    0.1271    0.0000 C   0  0  0  0  0  0  0  0  0  0  0  0
    3.3523   -0.2854    0.0000 C   0  0  0  0  0  0  0  0  0  0  0  0
    3.3523   -1.1104    0.0000 C   0  0  0  0  0  0  0  0  0  0  0  0
    2.6378   -1.5229    0.0000 C   0  0  0  0  0  0  0  0  0  0  0  0
    1.9233   -1.1104    0.0000 C   0  0  0  0  0  0  0  0  0  0  0  0
    1.1387   -1.3654    0.0000 C   0  0  0  0  0  0  0  0  0  0  0  0
    0.6538   -0.6979    0.0000 N   0  0  0  0  0  0  0  0  0  0  0  0
    2.6378   -2.3479    0.0000 O   0  0  0  0  0  0  0  0  0  0  0  0
    1.9233   -2.7604    0.0000 C   0  0  0  0  0  0  0  0  0  0  0  0
    1.9233   -3.5854    0.0000 C   0  0  0  0  0  0  0  0  0  0  0  0
    1.2089   -3.9979    0.0000 C   0  0  0  0  0  0  0  0  0  0  0  0
    0.4944   -3.5854    0.0000 C   0  0  0  0  0  0  0  0  0  0  0  0
    0.4944   -2.7604    0.0000 C   0  0  0  0  0  0  0  0  0  0  0  0
    1.2089   -2.3479    0.0000 C   0  0  0  0  0  0  0  0  0  0  0  0
   -0.2201   -2.3479    0.0000 Cl  0  0  0  0  0  0  0  0  0  0  0  0
    1.2089   -4.8229    0.0000 C   0  0  0  0  0  0  0  0  0  0  0  0
    1.2089   -5.6479    0.0000 N   0  0  0  0  0  0  0  0  0  0  0  0
    4.0668   -1.5229    0.0000 Cl  0  0  0  0  0  0  0  0  0  0  0  0
  1  2  2  0
  1  9  1  0
  2  3  1  0
  3  4  1  0
  3  7  2  0
  4  5  2  0
  4 10  1  0
  5  6  1  0
  6  7  1  0
  7  8  1  0
  8  9  2  0
 10 11  1  0
 11 12  1  0
 11 19  1  0
 12 13  2  0
 12 17  1  0
 13 14  1  0
 14 15  2  0
 15 16  1  0
 15 30  1  0
 16 17  2  0
 16 20  1  0
 17 18  1  0
 18 19  2  0
 20 21  1  0
 21 22  2  0
 21 26  1  0
 22 23  1  0
 23 24  2  0
 23 28  1  0
 24 25  1  0
 25 26  2  0
 25 27  1  0
 28 29  3  0
M  END
>  <DRUGBANK_ID>  (1) 
DB12999

>  <COMMON_NAME>  (1) 
MK-6186

>  <CAS_NUMBER>  (1) 
1034474-19-5

>  <UNII>  (1) 
K3978U665M

$$$$
