MR6
     RDKit          2D

 17 19  0  0  0  0  0  0  0  0999 V2000
   -1.8344   -1.4231    0.0000 C   0  0  0  0  0  0  0  0  0  0  0  0
   -1.4219   -0.7086    0.0000 C   0  0  0  0  0  0  0  0  0  0  0  0
   -0.5969   -0.7086    0.0000 C   0  0  0  0  0  0  0  0  0  0  0  0
   -1.8344    0.0058    0.0000 C   0  0  0  0  0  0  0  0  0  0  0  0
   -1.4219    0.7203    0.0000 C   0  0  0  0  0  0  0  0  0  0  0  0
   -1.8344    1.4348    0.0000 C   0  0  0  0  0  0  0  0  0  0  0  0
   -0.5969    0.7203    0.0000 C   0  0  0  0  0  0  0  0  0  0  0  0
   -0.1844    0.0058    0.0000 C   0  0  0  0  0  0  0  0  0  0  0  0
    0.6406    0.0058    0.0000 C   0  0  0  0  0  0  0  0  0  0  0  0
    1.1255   -0.6616    0.0000 O   0  0  0  0  0  0  0  0  0  0  0  0
    1.9101   -0.4067    0.0000 C   0  0  0  0  0  0  0  0  0  0  0  0
    2.6246   -0.8192    0.0000 C   0  0  0  0  0  0  0  0  0  0  0  0
    3.3391   -0.4067    0.0000 C   0  0  0  0  0  0  0  0  0  0  0  0
    3.3391    0.4183    0.0000 C   0  0  0  0  0  0  0  0  0  0  0  0
    2.6246    0.8308    0.0000 C   0  0  0  0  0  0  0  0  0  0  0  0
    1.9101    0.4183    0.0000 C   0  0  0  0  0  0  0  0  0  0  0  0
    1.1255    0.6733    0.0000 N   0  0  0  0  0  0  0  0  0  0  0  0
  1  2  1  0
  2  4  2  0
  2  3  1  0
  3  8  2  0
  4  5  1  0
  5  6  1  0
  5  7  2  0
  7  8  1  0
  8  9  1  0
  9 10  1  0
  9 17  2  0
 10 11  1  0
 11 16  2  0
 11 12  1  0
 12 13  2  0
 13 14  1  0
 14 15  2  0
 15 16  1  0
 16 17  1  0
M  END
>  <DRUGBANK_ID>  (1) 
DB08207

>  <COMMON_NAME>  (1) 
2-(3,5-DIMETHYLPHENYL)-1,3-BENZOXAZOLE

>  <UNII>  (1) 
M3R7JN0FDL

$$$$
