103
     RDKit          2D

 21 23  0  0  0  0  0  0  0  0999 V2000
   -0.4436   -2.5011    0.0000 P   0  0  0  0  0  0  0  0  0  0  0  0
   -0.9956   -3.1142    0.0000 O   0  0  0  0  0  0  0  0  0  0  0  0
    0.1695   -3.0532    0.0000 O   0  0  0  0  0  0  0  0  0  0  0  0
   -1.0567   -1.9491    0.0000 O   0  0  0  0  0  0  0  0  0  0  0  0
   -1.5986   -1.3334    0.0000 C   0  0  0  0  0  0  0  0  0  0  0  0
   -0.9311   -0.8485    0.0000 C   0  0  0  0  0  0  0  0  0  0  0  0
   -0.9311   -0.0235    0.0000 O   0  0  0  0  0  0  0  0  0  0  0  0
   -0.1465   -1.1034    0.0000 C   0  0  0  0  0  0  0  0  0  0  0  0
    0.1084   -1.8880    0.0000 O   0  0  0  0  0  0  0  0  0  0  0  0
    0.3384   -0.4360    0.0000 C   0  0  0  0  0  0  0  0  0  0  0  0
   -0.1465    0.2315    0.0000 C   0  0  0  0  0  0  0  0  0  0  0  0
    0.1084    1.0161    0.0000 N   0  0  0  0  0  0  0  0  0  0  0  0
   -0.3765    1.6835    0.0000 C   0  0  0  0  0  0  0  0  0  0  0  0
    0.1084    2.3510    0.0000 N   0  0  0  0  0  0  0  0  0  0  0  0
    0.8931    2.0960    0.0000 C   0  0  0  0  0  0  0  0  0  0  0  0
    1.6075    2.5085    0.0000 C   0  0  0  0  0  0  0  0  0  0  0  0
    1.6075    3.3335    0.0000 N   0  0  0  0  0  0  0  0  0  0  0  0
    2.3220    2.0960    0.0000 N   0  0  0  0  0  0  0  0  0  0  0  0
    2.3220    1.2710    0.0000 C   0  0  0  0  0  0  0  0  0  0  0  0
    1.6075    0.8585    0.0000 N   0  0  0  0  0  0  0  0  0  0  0  0
    0.8931    1.2710    0.0000 C   0  0  0  0  0  0  0  0  0  0  0  0
  1  2  2  0
  1  3  1  0
  1  4  1  0
  1  9  1  0
  6  5  1  1
  6  7  1  0
  6  8  1  0
  7 11  1  0
  8  9  1  6
  8 10  1  0
 10 11  1  0
 11 12  1  1
 12 13  1  0
 12 21  1  0
 13 14  2  0
 14 15  1  0
 15 16  1  0
 15 21  2  0
 16 17  1  0
 16 18  2  0
 18 19  1  0
 19 20  2  0
 20 21  1  0
M  END
>  <DRUGBANK_ID>  (1) 
DB06843

>  <COMMON_NAME>  (1) 
2',5'-DIDEOXY-ADENOSINE 3'-MONOPHOSPHATE

$$$$
