
     RDKit          2D

 28 31  0  0  1  0  0  0  0  0999 V2000
   -2.1434    2.8875    0.0000 C   0  0  0  0  0  0  0  0  0  0  0  0
   -2.1434    2.0625    0.0000 C   0  0  0  0  0  0  0  0  0  0  0  0
   -1.4289    1.6500    0.0000 C   0  0  0  0  0  0  0  0  0  0  0  0
   -0.7145    2.0625    0.0000 C   0  0  0  0  0  0  0  0  0  0  0  0
   -0.7145    2.8875    0.0000 C   0  0  0  0  0  0  0  0  0  0  0  0
   -1.4289    3.3000    0.0000 C   0  0  0  0  0  0  0  0  0  0  0  0
   -0.0000    3.3000    0.0000 C   0  0  0  0  0  0  0  0  0  0  0  0
    0.7145    2.8875    0.0000 C   0  0  0  0  0  0  0  0  0  0  0  0
    0.7145    2.0625    0.0000 C   0  0  0  0  0  0  0  0  0  0  0  0
   -0.0000    1.6500    0.0000 O   0  0  0  0  0  0  0  0  0  0  0  0
    1.4289    1.6500    0.0000 C   0  0  0  0  0  0  0  0  0  0  0  0
    2.1434    2.0625    0.0000 N   0  0  0  0  0  0  0  0  0  0  0  0
    2.8579    1.6500    0.0000 C   0  0  0  0  0  0  0  0  0  0  0  0
    3.5724    2.0625    0.0000 C   0  0  0  0  0  0  0  0  0  0  0  0
    4.2868    1.6500    0.0000 C   0  0  0  0  0  0  0  0  0  0  0  0
    5.0013    2.0625    0.0000 C   0  0  0  0  0  0  0  0  0  0  0  0
    5.7158    1.6500    0.0000 N   0  0  0  0  0  0  0  0  0  0  0  0
    6.4694    1.9856    0.0000 C   0  0  0  0  0  0  0  0  0  0  0  0
    6.6410    2.7925    0.0000 O   0  0  0  0  0  0  0  0  0  0  0  0
    7.0215    1.3725    0.0000 C   0  0  0  0  0  0  0  0  0  0  0  0
    7.8465    1.3725    0.0000 C   0  0  0  0  0  0  0  0  0  0  0  0
    8.2590    0.6580    0.0000 C   0  0  0  0  0  0  0  0  0  0  0  0
    7.8465   -0.0565    0.0000 C   0  0  0  0  0  0  0  0  0  0  0  0
    7.0215   -0.0565    0.0000 C   0  0  0  0  0  0  0  0  0  0  0  0
    6.6090    0.6580    0.0000 C   0  0  0  0  0  0  0  0  0  0  0  0
    5.8020    0.8295    0.0000 S   0  0  0  0  0  0  0  0  0  0  0  0
    5.5389    0.0476    0.0000 O   0  0  0  0  0  0  0  0  0  0  0  0
    4.9969    0.6496    0.0000 O   0  0  0  0  0  0  0  0  0  0  0  0
  1  2  2  0
  1  6  1  0
  2  3  1  0
  3  4  2  0
  4  5  1  0
  4 10  1  0
  5  6  2  0
  5  7  1  0
  7  8  1  0
  8  9  1  0
  9 10  1  0
  9 11  1  6
 11 12  1  0
 12 13  1  0
 13 14  1  0
 14 15  1  0
 15 16  1  0
 16 17  1  0
 17 18  1  0
 17 26  1  0
 18 19  2  0
 18 20  1  0
 20 21  1  0
 20 25  2  0
 21 22  2  0
 22 23  1  0
 23 24  2  0
 24 25  1  0
 25 26  1  0
 26 27  2  0
 26 28  2  0
M  END
>  <DRUGBANK_ID>  (1) 
DB06506

>  <COMMON_NAME>  (1) 
Repinotan

>  <CAS_NUMBER>  (1) 
144980-29-0

>  <UNII>  (1) 
05PB82Z52L

>  <SYNONYMS>  (1) 
Repinotan

$$$$
