3A3
     RDKit          2D

 25 27  0  0  0  0  0  0  0  0999 V2000
    4.7191    0.9358    0.0000 O   0  0  0  0  0  0  0  0  0  0  0  0
    4.1670    0.3227    0.0000 C   0  0  0  0  0  0  0  0  0  0  0  0
    4.4220   -0.4619    0.0000 O   0  0  0  0  0  0  0  0  0  0  0  0
    3.3601    0.4942    0.0000 C   0  0  0  0  0  0  0  0  0  0  0  0
    2.8080   -0.1189    0.0000 O   0  0  0  0  0  0  0  0  0  0  0  0
    2.0011    0.0527    0.0000 C   0  0  0  0  0  0  0  0  0  0  0  0
    1.4490   -0.5604    0.0000 C   0  0  0  0  0  0  0  0  0  0  0  0
    1.7461    0.8373    0.0000 C   0  0  0  0  0  0  0  0  0  0  0  0
    0.9391    1.0088    0.0000 C   0  0  0  0  0  0  0  0  0  0  0  0
    0.3871    0.3957    0.0000 C   0  0  0  0  0  0  0  0  0  0  0  0
    0.6420   -0.3889    0.0000 C   0  0  0  0  0  0  0  0  0  0  0  0
   -0.0254   -0.8738    0.0000 C   0  0  0  0  0  0  0  0  0  0  0  0
   -0.0254   -1.6988    0.0000 N   0  0  0  0  0  0  0  0  0  0  0  0
   -0.7399   -2.1113    0.0000 O   0  0  0  0  0  0  0  0  0  0  0  0
   -0.6928   -0.3889    0.0000 C   0  0  0  0  0  0  0  0  0  0  0  0
   -1.4998   -0.5604    0.0000 C   0  0  0  0  0  0  0  0  0  0  0  0
   -0.4379    0.3957    0.0000 C   0  0  0  0  0  0  0  0  0  0  0  0
   -0.9899    1.0088    0.0000 C   0  0  0  0  0  0  0  0  0  0  0  0
   -1.7969    0.8373    0.0000 C   0  0  0  0  0  0  0  0  0  0  0  0
   -2.0518    0.0527    0.0000 C   0  0  0  0  0  0  0  0  0  0  0  0
   -2.8588   -0.1189    0.0000 O   0  0  0  0  0  0  0  0  0  0  0  0
   -3.1137   -0.9035    0.0000 C   0  0  0  0  0  0  0  0  0  0  0  0
   -3.9207   -1.0750    0.0000 C   0  0  0  0  0  0  0  0  0  0  0  0
   -4.1757   -1.8596    0.0000 O   0  0  0  0  0  0  0  0  0  0  0  0
   -4.4727   -0.4619    0.0000 O   0  0  0  0  0  0  0  0  0  0  0  0
  1  2  1  0
  2  3  2  0
  2  4  1  0
  4  5  1  0
  5  6  1  0
  6  7  2  0
  6  8  1  0
  7 11  1  0
  8  9  2  0
  9 10  1  0
 10 11  2  0
 10 17  1  0
 11 12  1  0
 12 13  2  3
 12 15  1  0
 13 14  1  0
 15 16  1  0
 15 17  2  0
 16 20  2  0
 17 18  1  0
 18 19  2  0
 19 20  1  0
 20 21  1  0
 21 22  1  0
 22 23  1  0
 23 24  1  0
 23 25  2  0
M  END
>  <DRUGBANK_ID>  (1) 
DB07034

>  <COMMON_NAME>  (1) 
2,2'-{[9-(HYDROXYIMINO)-9H-FLUORENE-2,7-DIYL]BIS(OXY)}DIACETIC ACID

$$$$
