
     RDKit          2D

 30 33  0  0  0  0  0  0  0  0999 V2000
   -2.2337   -8.5571    0.0000 C   0  0  0  0  0  0  0  0  0  0  0  0
   -1.8212   -7.8427    0.0000 O   0  0  0  0  0  0  0  0  0  0  0  0
   -2.2337   -7.1282    0.0000 C   0  0  0  0  0  0  0  0  0  0  0  0
   -3.0587   -7.1282    0.0000 C   0  0  0  0  0  0  0  0  0  0  0  0
   -3.4712   -6.4137    0.0000 C   0  0  0  0  0  0  0  0  0  0  0  0
   -3.0587   -5.6992    0.0000 C   0  0  0  0  0  0  0  0  0  0  0  0
   -2.2337   -5.6992    0.0000 C   0  0  0  0  0  0  0  0  0  0  0  0
   -1.8212   -4.9848    0.0000 C   0  0  0  0  0  0  0  0  0  0  0  0
   -2.2337   -4.2703    0.0000 N   0  0  0  0  0  0  0  0  0  0  0  0
   -1.8212   -3.5558    0.0000 C   0  0  0  0  0  0  0  0  0  0  0  0
   -2.2337   -2.8414    0.0000 C   0  0  0  0  0  0  0  0  0  0  0  0
   -1.8212   -2.1269    0.0000 C   0  0  0  0  0  0  0  0  0  0  0  0
   -0.9962   -2.1269    0.0000 C   0  0  0  0  0  0  0  0  0  0  0  0
   -0.5837   -2.8414    0.0000 C   0  0  0  0  0  0  0  0  0  0  0  0
   -0.9962   -3.5558    0.0000 C   0  0  0  0  0  0  0  0  0  0  0  0
   -0.5837   -1.4124    0.0000 S   0  0  0  0  0  0  0  0  0  0  0  0
    0.1308   -1.8249    0.0000 O   0  0  0  0  0  0  0  0  0  0  0  0
   -1.2982   -0.9999    0.0000 O   0  0  0  0  0  0  0  0  0  0  0  0
   -0.1712   -0.6979    0.0000 N   0  0  0  0  0  0  0  0  0  0  0  0
    0.6538   -0.6979    0.0000 C   0  0  0  0  0  0  0  0  0  0  0  0
    1.1387   -0.0305    0.0000 N   0  0  0  0  0  0  0  0  0  0  0  0
    1.9233   -0.2854    0.0000 C   0  0  0  0  0  0  0  0  0  0  0  0
    2.6378    0.1271    0.0000 C   0  0  0  0  0  0  0  0  0  0  0  0
    3.3523   -0.2854    0.0000 C   0  0  0  0  0  0  0  0  0  0  0  0
    3.3523   -1.1104    0.0000 C   0  0  0  0  0  0  0  0  0  0  0  0
    2.6378   -1.5229    0.0000 C   0  0  0  0  0  0  0  0  0  0  0  0
    1.9233   -1.1104    0.0000 C   0  0  0  0  0  0  0  0  0  0  0  0
    1.1387   -1.3654    0.0000 S   0  0  0  0  0  0  0  0  0  0  0  0
   -1.8212   -6.4137    0.0000 C   0  0  0  0  0  0  0  0  0  0  0  0
   -0.9962   -6.4137    0.0000 O   0  0  0  0  0  0  0  0  0  0  0  0
  1  2  1  0
  2  3  1  0
  3  4  2  0
  3 29  1  0
  4  5  1  0
  5  6  2  0
  6  7  1  0
  7  8  1  0
  7 29  2  0
  8  9  1  0
  9 10  1  0
 10 11  2  0
 10 15  1  0
 11 12  1  0
 12 13  2  0
 13 14  1  0
 13 16  1  0
 14 15  2  0
 16 17  2  0
 16 18  2  0
 16 19  1  0
 19 20  1  0
 20 21  2  0
 20 28  1  0
 21 22  1  0
 22 23  2  0
 22 27  1  0
 23 24  1  0
 24 25  2  0
 25 26  1  0
 26 27  2  0
 27 28  1  0
 29 30  1  0
M  END
>  <DRUGBANK_ID>  (1) 
DB18307

>  <COMMON_NAME>  (1) 
VLX-1005

>  <CAS_NUMBER>  (1) 
1532593-30-8

>  <UNII>  (1) 
JKU4XCC48Y

>  <SYNONYMS>  (1) 
Benzenesulfonamide, n-2-benzothiazolyl-4-(((2-hydroxy-3-methoxyphenyl)methyl)amino)-; N-2-benzothiazolyl-4-(((2-hydroxy-3-methoxyphenyl)methyl)amino)benzenesulfonamide; N-Benzothiazol-2-yl-4-(2-hydroxy-3-methoxy-benzylamino)-bezenesulfonamide

$$$$
