
     RDKit          2D

 13 13  0  0  0  0  0  0  0  0999 V2000
    1.4289   -0.4125    0.0000 C   0  0  0  0  0  0  0  0  0  0  0  0
    1.4289    0.4125    0.0000 O   0  0  0  0  0  0  0  0  0  0  0  0
    0.7145   -0.8249    0.0000 C   0  0  0  0  0  0  0  0  0  0  0  0
    2.1434   -0.8249    0.0000 O   0  0  0  0  0  0  0  0  0  0  0  0
    0.7145   -1.6499    0.0000 N   0  0  0  0  0  0  0  0  0  0  0  0
    0.0001   -0.4125    0.0000 C   0  0  0  0  0  0  0  0  0  0  0  0
   -0.7143   -0.8249    0.0000 C   0  0  0  0  0  0  0  0  0  0  0  0
    0.0000    0.4125    0.0000 C   0  0  0  0  0  0  0  0  0  0  0  0
   -1.4288   -0.4125    0.0000 C   0  0  0  0  0  0  0  0  0  0  0  0
   -0.7146    0.8250    0.0000 C   0  0  0  0  0  0  0  0  0  0  0  0
   -1.4288    0.4125    0.0000 C   0  0  0  0  0  0  0  0  0  0  0  0
   -0.7146    1.6499    0.0000 O   0  0  0  0  0  0  0  0  0  0  0  0
   -2.1434   -0.8249    0.0000 O   0  0  0  0  0  0  0  0  0  0  0  0
  1  2  2  0
  1  3  1  0
  3  5  1  1
  3  6  1  0
  4  1  1  0
  7  6  2  0
  8  6  1  0
  9  7  1  0
  9 13  1  0
 10  8  2  0
 10 12  1  0
 11  9  2  0
 11 10  1  0
M  END
>  <DRUGBANK_ID>  (1) 
DB04228

>  <SECONDARY_ACCESSION_NUMBERS>  (1) 
EXPT01095

>  <COMMON_NAME>  (1) 
Dihydroxyphenylglycine

>  <CAS_NUMBER>  (1) 
162870-29-3

>  <UNII>  (1) 
CF5G2G268A

>  <SYNONYMS>  (1) 
(S)-3,5-dihydroxyphenylglycine; 3,5-Dihydroxy-L-phenylglycine; DHPG; L-3,5-Dihydroxyphenylglycine; S-DHPG

$$$$
