HMDB02124.mol
     RDKit          2D

 20 22  0  0  0  0  0  0  0  0999 V2000
   -2.4992    0.2064    0.0000 C   0  0  0  0  0  0  0  0  0  0  0  0
   -2.4992   -0.6193    0.0000 C   0  0  0  0  0  0  0  0  0  0  0  0
   -1.7850   -1.0322    0.0000 C   0  0  0  0  0  0  0  0  0  0  0  0
   -1.0721   -0.6193    0.0000 C   0  0  0  0  0  0  0  0  0  0  0  0
   -1.0721    0.2064    0.0000 C   0  0  0  0  0  0  0  0  0  0  0  0
   -1.7850    0.6179    0.0000 C   0  0  0  0  0  0  0  0  0  0  0  0
   -0.3578   -1.0322    0.0000 C   0  0  0  0  0  0  0  0  0  0  0  0
    0.3551   -0.6193    0.0000 C   0  0  0  0  0  0  0  0  0  0  0  0
    0.3551    0.2064    0.0000 C   0  0  0  0  0  0  0  0  0  0  0  0
   -0.3578    0.6179    0.0000 O   0  0  0  0  0  0  0  0  0  0  0  0
   -0.3578   -1.8579    0.0000 O   0  0  0  0  0  0  0  0  0  0  0  0
    1.0707    0.6193    0.0000 C   0  0  0  0  0  0  0  0  0  0  0  0
    1.7863    0.2064    0.0000 C   0  0  0  0  0  0  0  0  0  0  0  0
    2.5006    0.6193    0.0000 C   0  0  0  0  0  0  0  0  0  0  0  0
    2.5006    1.4437    0.0000 C   0  0  0  0  0  0  0  0  0  0  0  0
    1.7863    1.8551    0.0000 C   0  0  0  0  0  0  0  0  0  0  0  0
    1.0707    1.4437    0.0000 C   0  0  0  0  0  0  0  0  0  0  0  0
    3.2149    1.8565    0.0000 O   0  0  0  0  0  0  0  0  0  0  0  0
   -1.7850   -1.8579    0.0000 O   0  0  0  0  0  0  0  0  0  0  0  0
   -3.2135    0.6193    0.0000 O   0  0  0  0  0  0  0  0  0  0  0  0
  1  2  2  0
  1  6  1  0
  1 20  1  0
  2  3  1  0
  3  4  2  0
  3 19  1  0
  4  5  1  0
  4  7  1  0
  5  6  2  0
  5 10  1  0
  7  8  1  0
  7 11  2  0
  8  9  2  0
  9 10  1  0
  9 12  1  0
 12 13  2  0
 12 17  1  0
 13 14  1  0
 14 15  2  0
 15 16  1  0
 15 18  1  0
 16 17  2  0
M  END
>  <DRUGBANK_ID>  (1) 
DB07352

>  <COMMON_NAME>  (1) 
Apigenin

>  <CAS_NUMBER>  (1) 
520-36-5

>  <UNII>  (1) 
7V515PI7F6

$$$$
