
     RDKit          2D

 10  9  0  0  0  0  0  0  0  0999 V2000
   -1.7862    0.2062    0.0000 O   0  0  0  0  0  0  0  0  0  0  0  0
   -1.0717   -0.2062    0.0000 C   0  0  0  0  0  0  0  0  0  0  0  0
    1.0717    0.2063    0.0000 C   0  0  0  0  0  0  0  0  0  0  0  0
    0.3572   -0.2061    0.0000 C   0  0  0  0  0  0  0  0  0  0  0  0
   -0.3572    0.2062    0.0000 C   0  0  0  0  0  0  0  0  0  0  0  0
    1.7862   -0.2061    0.0000 O   0  0  0  0  0  0  0  0  0  0  0  0
    1.0717    1.0312    0.0000 O   0  0  0  0  0  0  0  0  0  0  0  0
   -1.0717   -1.0312    0.0000 O   0  0  0  0  0  0  0  0  0  0  0  0
    0.3572   -1.0312    0.0000 O   0  0  0  0  0  0  0  0  0  0  0  0
   -0.3572    1.0312    0.0000 O   0  0  0  0  0  0  0  0  0  0  0  0
  1  2  1  0
  2  5  1  0
  4  3  1  0
  4  9  1  1
  5  4  1  0
  5 10  1  1
  6  3  1  0
  7  3  2  0
  8  2  2  0
M  END
>  <DRUGBANK_ID>  (1) 
DB01694

>  <SECONDARY_ACCESSION_NUMBERS>  (1) 
EXPT03007

>  <COMMON_NAME>  (1) 
D-tartaric acid

>  <CAS_NUMBER>  (1) 
147-71-7

>  <UNII>  (1) 
RRX6A4PL3C

>  <SYNONYMS>  (1) 
(-)-Tartaric acid; (−)-(S,S)-tartaric acid; (−)-D-tartaric acid; (−)-Weinsäure; (2S,3S)-(−)-tartaric acid; (2S,3S)-tartaric acid; (S,S)-(−)-tartaric acid; (S,S)-Tartaric acid; D-(−)-tartaric acid; D-tartaric acid; D-threaric acid; Linksweinsäure

$$$$
