
     RDKit          2D

  1  0  0  0  0  0  0  0  0  0999 V2000
    0.0000    0.0000    0.0000 In  0  0  0  0  0  3  0  0  0  0  0  0
M  ISO  1   1 111
M  END
>  <DRUGBANK_ID>  (1) 
DB11916

>  <COMMON_NAME>  (1) 
Indium In-111

>  <CAS_NUMBER>  (1) 
15750-15-9

>  <UNII>  (1) 
E9NGC49E0T

>  <SYNONYMS>  (1) 
Indium (111 In)

$$$$
