
     RDKit          2D

 28 31  0  0  0  0  0  0  0  0999 V2000
    6.2093   -5.7486    0.0000 C   0  0  0  0  0  0  0  0  0  0  0  0
    5.7244   -5.0811    0.0000 C   0  0  0  0  0  0  0  0  0  0  0  0
    6.0599   -4.3274    0.0000 C   0  0  0  0  0  0  0  0  0  0  0  0
    6.8804   -4.2412    0.0000 C   0  0  0  0  0  0  0  0  0  0  0  0
    7.3653   -4.9086    0.0000 C   0  0  0  0  0  0  0  0  0  0  0  0
    7.0298   -5.6623    0.0000 C   0  0  0  0  0  0  0  0  0  0  0  0
    8.1858   -4.8224    0.0000 Cl  0  0  0  0  0  0  0  0  0  0  0  0
    5.5750   -3.6600    0.0000 N   0  0  0  0  0  0  0  0  0  0  0  0
    4.7545   -3.7462    0.0000 C   0  0  0  0  0  0  0  0  0  0  0  0
    4.4190   -4.4999    0.0000 O   0  0  0  0  0  0  0  0  0  0  0  0
    4.2696   -3.0788    0.0000 N   0  0  0  0  0  0  0  0  0  0  0  0
    3.4491   -3.1650    0.0000 C   0  0  0  0  0  0  0  0  0  0  0  0
    3.0366   -3.8795    0.0000 N   0  0  0  0  0  0  0  0  0  0  0  0
    2.2296   -3.7080    0.0000 C   0  0  0  0  0  0  0  0  0  0  0  0
    2.1434   -2.8875    0.0000 C   0  0  0  0  0  0  0  0  0  0  0  0
    2.8971   -2.5519    0.0000 S   0  0  0  0  0  0  0  0  0  0  0  0
    1.4289   -2.4750    0.0000 C   0  0  0  0  0  0  0  0  0  0  0  0
    1.4289   -1.6500    0.0000 C   0  0  0  0  0  0  0  0  0  0  0  0
    0.7145   -1.2375    0.0000 N   0  0  0  0  0  0  0  0  0  0  0  0
    0.7145   -0.4125    0.0000 C   0  0  0  0  0  0  0  0  0  0  0  0
   -0.0000   -0.0000    0.0000 C   0  0  0  0  0  0  0  0  0  0  0  0
   -0.0000    0.8250    0.0000 C   0  0  0  0  0  0  0  0  0  0  0  0
   -0.7846    1.0799    0.0000 C   0  0  0  0  0  0  0  0  0  0  0  0
   -1.2695    0.4125    0.0000 C   0  0  0  0  0  0  0  0  0  0  0  0
   -0.7846   -0.2549    0.0000 S   0  0  0  0  0  0  0  0  0  0  0  0
    0.7145    1.2375    0.0000 N   0  0  0  0  0  0  0  0  0  0  0  0
    1.4289    0.8250    0.0000 C   0  0  0  0  0  0  0  0  0  0  0  0
    1.4289    0.0000    0.0000 N   0  0  0  0  0  0  0  0  0  0  0  0
  1  2  2  0
  1  6  1  0
  2  3  1  0
  3  4  2  0
  3  8  1  0
  4  5  1  0
  5  6  2  0
  5  7  1  0
  8  9  1  0
  9 10  2  0
  9 11  1  0
 11 12  1  0
 12 13  2  0
 12 16  1  0
 13 14  1  0
 14 15  2  0
 15 16  1  0
 15 17  1  0
 17 18  1  0
 18 19  1  0
 19 20  1  0
 20 21  1  0
 20 28  2  0
 21 22  2  0
 21 25  1  0
 22 23  1  0
 22 26  1  0
 23 24  2  0
 24 25  1  0
 26 27  2  0
 27 28  1  0
M  END
>  <DRUGBANK_ID>  (1) 
DB06134

>  <SECONDARY_ACCESSION_NUMBERS>  (1) 
DB07361

>  <COMMON_NAME>  (1) 
SNS-314

>  <CAS_NUMBER>  (1) 
1057249-41-8

>  <UNII>  (1) 
802IFJ0Z8X

>  <SYNONYMS>  (1) 
1-(3-chlorophenyl)-3-{5-[2-(thieno[3,2-d]pyrimidin-4-ylamino)ethyl]-1,3-thiazol-2-yl}urea

$$$$
