
     RDKit          2D

 20 21  0  0  0  0  0  0  0  0999 V2000
    2.9092   -2.6240    0.0000 C   0  0  0  0  0  0  0  0  0  0  0  0
    3.2448   -1.8703    0.0000 C   0  0  0  0  0  0  0  0  0  0  0  0
    2.0887   -2.7102    0.0000 C   0  0  0  0  0  0  0  0  0  0  0  0
   -1.1014    1.8852    0.0000 C   0  0  0  0  0  0  0  0  0  0  0  0
    2.7599   -1.2029    0.0000 C   0  0  0  0  0  0  0  0  0  0  0  0
    1.6038   -2.0428    0.0000 C   0  0  0  0  0  0  0  0  0  0  0  0
   -1.8158    1.4727    0.0000 C   0  0  0  0  0  0  0  0  0  0  0  0
   -0.3869    1.4727    0.0000 C   0  0  0  0  0  0  0  0  0  0  0  0
    1.0419    1.4727    0.0000 C   0  0  0  0  0  0  0  0  0  0  0  0
    1.9394   -1.2891    0.0000 C   0  0  0  0  0  0  0  0  0  0  0  0
    1.0419    0.6477    0.0000 C   0  0  0  0  0  0  0  0  0  0  0  0
   -2.5303    1.8852    0.0000 C   0  0  0  0  0  0  0  0  0  0  0  0
    1.4544   -0.6217    0.0000 C   0  0  0  0  0  0  0  0  0  0  0  0
    0.3745    0.1628    0.0000 C   0  0  0  0  0  0  0  0  0  0  0  0
    0.3275    1.8852    0.0000 N   0  0  0  0  0  0  0  0  0  0  0  0
    1.7094    0.1628    0.0000 N   0  0  0  0  0  0  0  0  0  0  0  0
   -3.2448    1.4727    0.0000 O   0  0  0  0  0  0  0  0  0  0  0  0
   -2.5303    2.7102    0.0000 O   0  0  0  0  0  0  0  0  0  0  0  0
   -0.4100    0.4178    0.0000 O   0  0  0  0  0  0  0  0  0  0  0  0
    0.6294   -0.6217    0.0000 O   0  0  0  0  0  0  0  0  0  0  0  0
  2  1  2  0
  3  1  1  0
  5  2  1  0
  6  3  2  0
  7  4  1  0
  8  4  1  0
  9 15  1  0
 10  5  2  0
 10  6  1  0
 11  9  2  3
 12  7  1  0
 13 10  1  0
 14 11  1  0
 15  8  1  0
 16 11  1  0
 16 13  2  0
 17 12  2  0
 18 12  1  0
 19 14  2  0
 20 13  1  0
 20 14  1  0
M  END
>  <DRUGBANK_ID>  (1) 
DB08396

>  <COMMON_NAME>  (1) 
4-{[(Z)-(5-oxo-2-phenyl-1,3-oxazol-4(5H)-ylidene)methyl]amino}butanoic acid

$$$$
