
     RDKit          2D

 12 12  0  0  0  0  0  0  0  0999 V2000
   -1.5088   -0.2117    0.0000 C   0  0  0  0  0  0  0  0  0  0  0  0
   -1.6616   -0.9891    0.0000 C   0  0  0  0  0  0  0  0  0  0  0  0
   -2.1874    0.2411    0.0000 S   0  0  0  0  0  0  0  0  0  0  0  0
   -0.7817    0.1786    0.0000 C   0  0  0  0  0  0  0  0  0  0  0  0
   -2.5396   -0.9891    0.0000 C   0  0  0  0  0  0  0  0  0  0  0  0
   -2.7912   -0.3002    0.0000 S   0  0  0  0  0  0  0  0  0  0  0  0
   -0.0616   -0.2239    0.0000 C   0  0  0  0  0  0  0  0  0  0  0  0
    0.6168    0.1665    0.0000 C   0  0  0  0  0  0  0  0  0  0  0  0
    1.3353   -0.2430    0.0000 C   0  0  0  0  0  0  0  0  0  0  0  0
    2.0711    0.1162    0.0000 C   0  0  0  0  0  0  0  0  0  0  0  0
    2.7912   -0.2742    0.0000 N   0  0  0  0  0  0  0  0  0  0  0  0
    2.0642    0.9891    0.0000 O   0  0  0  0  0  0  0  0  0  0  0  0
  1  2  1  0
  1  3  1  0
  1  4  1  0
  2  5  1  0
  3  6  1  0
  4  7  1  0
  5  6  1  0
  7  8  1  0
  8  9  1  0
  9 10  1  0
 10 11  1  0
 10 12  2  0
M  END
>  <DRUGBANK_ID>  (1) 
DB15963

>  <COMMON_NAME>  (1) 
Thioctamide

>  <CAS_NUMBER>  (1) 
940-69-2

>  <UNII>  (1) 
Q1GT04827L

>  <SYNONYMS>  (1) 
Lipoamide; Thioctic acid amide

$$$$
