
     RDKit          2D

 17 16  0  0  1  0  0  0  0  0999 V2000
    4.5080    2.2688    0.0000 Cl  0  0  0  0  0  0  0  0  0  0  0  0
    4.5080   -0.2063    0.0000 S   0  0  0  0  0  0  0  0  0  0  0  0
    2.3645    0.2063    0.0000 S   0  0  0  0  0  0  0  0  0  0  0  0
    4.9205    0.5082    0.0000 O   0  0  0  0  0  0  0  0  0  0  0  0
    4.0955   -0.9207    0.0000 O   0  0  0  0  0  0  0  0  0  0  0  0
    1.9520   -0.5082    0.0000 O   0  0  0  0  0  0  0  0  0  0  0  0
    2.7770    0.9207    0.0000 O   0  0  0  0  0  0  0  0  0  0  0  0
    3.7935   -1.4438    0.0000 O   0  0  0  0  0  0  0  0  0  0  0  0
    3.7935    0.2063    0.0000 N   0  0  0  0  0  0  0  0  0  0  0  0
    3.0791   -0.2063    0.0000 N   0  0  0  0  0  0  0  0  0  0  0  0
    2.3645   -1.4438    0.0000 N   0  0  0  0  0  0  0  0  0  0  0  0
    3.7935    1.0313    0.0000 C   0  0  0  0  0  0  0  0  0  0  0  0
    5.2224   -0.6188    0.0000 C   0  0  0  0  0  0  0  0  0  0  0  0
    4.5080    1.4438    0.0000 C   0  0  0  0  0  0  0  0  0  0  0  0
    3.0791   -1.0313    0.0000 C   0  0  0  0  0  0  0  0  0  0  0  0
    1.6500    0.6188    0.0000 C   0  0  0  0  0  0  0  0  0  0  0  0
    2.3645   -2.2688    0.0000 C   0  0  0  0  0  0  0  0  0  0  0  0
  1 14  1  0
  2  4  2  0
  2  5  2  0
  2  9  1  0
  2 13  1  0
  3  6  2  0
  3  7  2  0
  3 10  1  0
  3 16  1  0
  8 15  2  0
  9 10  1  0
  9 12  1  0
 10 15  1  0
 11 15  1  0
 11 17  1  0
 12 14  1  0
M  END
>  <DRUGBANK_ID>  (1) 
DB05817

>  <SECONDARY_ACCESSION_NUMBERS>  (1) 
DB12324

>  <COMMON_NAME>  (1) 
Laromustine

>  <CAS_NUMBER>  (1) 
173424-77-6

>  <UNII>  (1) 
14J2G0U3NQ

>  <SYNONYMS>  (1) 
Cloretazine; Laromustine; Onrigin

$$$$
