
     RDKit          2D

 24 26  0  0  0  0  0  0  0  0999 V2000
   -1.7950   -1.3190    0.0000 N   0  0  0  0  0  0  0  0  0  0  0  0
   -1.0806   -1.7315    0.0000 C   0  0  0  0  0  0  0  0  0  0  0  0
   -1.0806   -2.5565    0.0000 O   0  0  0  0  0  0  0  0  0  0  0  0
   -0.3660   -1.3190    0.0000 N   0  0  0  0  0  0  0  0  0  0  0  0
   -0.3660   -0.4940    0.0000 C   0  0  0  0  0  0  0  0  0  0  0  0
    0.3484   -0.0815    0.0000 O   0  0  0  0  0  0  0  0  0  0  0  0
   -1.0806   -0.0815    0.0000 C   0  0  0  0  0  0  0  0  0  0  0  0
   -1.7950   -0.4940    0.0000 C   0  0  0  0  0  0  0  0  0  0  0  0
   -2.5095   -0.0815    0.0000 O   0  0  0  0  0  0  0  0  0  0  0  0
   -0.4870    0.4915    0.0000 N   0  0  0  0  0  0  0  0  0  0  0  0
    0.3059    0.2641    0.0000 C   0  0  0  0  0  0  0  0  0  0  0  0
    0.8994    0.8372    0.0000 C   0  0  0  0  0  0  0  0  0  0  0  0
    0.6998    1.6377    0.0000 C   0  0  0  0  0  0  0  0  0  0  0  0
   -0.0932    1.8651    0.0000 C   0  0  0  0  0  0  0  0  0  0  0  0
   -0.6866    1.2920    0.0000 C   0  0  0  0  0  0  0  0  0  0  0  0
    1.2932    2.2108    0.0000 C   0  0  0  0  0  0  0  0  0  0  0  0
    2.0863    1.9833    0.0000 C   0  0  0  0  0  0  0  0  0  0  0  0
    2.6797    2.5564    0.0000 O   0  0  0  0  0  0  0  0  0  0  0  0
   -1.4678    0.6468    0.0000 C   0  0  0  0  0  0  0  0  0  0  0  0
   -1.0307    1.3464    0.0000 C   0  0  0  0  0  0  0  0  0  0  0  0
   -2.2923    0.6756    0.0000 C   0  0  0  0  0  0  0  0  0  0  0  0
   -1.4180    2.0749    0.0000 C   0  0  0  0  0  0  0  0  0  0  0  0
   -2.6797    1.4040    0.0000 C   0  0  0  0  0  0  0  0  0  0  0  0
   -2.2425    2.1037    0.0000 C   0  0  0  0  0  0  0  0  0  0  0  0
  2  1  2  0
  2  3  1  0
  2  4  1  0
  5  4  1  0
  5  6  2  0
  5  7  1  0
  7  8  1  0
  7 10  1  0
  7 19  1  1
  8  1  1  0
  8  9  2  0
 11 10  1  0
 11 12  1  0
 12 13  1  0
 13 14  1  0
 13 16  1  0
 14 15  1  0
 15 10  1  0
 16 17  1  0
 17 18  1  0
 20 19  2  0
 20 22  1  0
 21 19  1  0
 21 23  2  0
 22 24  2  0
 23 24  1  0
M  END
>  <DRUGBANK_ID>  (1) 
DB03622

>  <SECONDARY_ACCESSION_NUMBERS>  (1) 
EXPT00635

>  <COMMON_NAME>  (1) 
5-[4-(2-Hydroxyethyl)-1-piperidinyl]-5-phenyl-2,4,6(1H,3H,5H)-pyrimidinetrione

$$$$
