
     RDKit          2D

 31 36  0  0  0  0  0  0  0  0999 V2000
   -0.4097   -1.1662    0.0000 C   0  0  0  0  0  0  0  0  0  0  0  0
   -0.8222   -0.4517    0.0000 F   0  0  0  0  0  0  0  0  0  0  0  0
    0.0027   -0.4517    0.0000 F   0  0  0  0  0  0  0  0  0  0  0  0
    0.3046   -1.5786    0.0000 C   0  0  0  0  0  0  0  0  0  0  0  0
    1.0583   -1.2431    0.0000 N   0  0  0  0  0  0  0  0  0  0  0  0
    1.6103   -1.8561    0.0000 C   0  0  0  0  0  0  0  0  0  0  0  0
    1.1978   -2.5706    0.0000 N   0  0  0  0  0  0  0  0  0  0  0  0
    0.3909   -2.3991    0.0000 N   0  0  0  0  0  0  0  0  0  0  0  0
    2.4173   -1.6846    0.0000 C   0  0  0  0  0  0  0  0  0  0  0  0
    2.6723   -0.9000    0.0000 C   0  0  0  0  0  0  0  0  0  0  0  0
    2.1202   -0.2869    0.0000 C   0  0  0  0  0  0  0  0  0  0  0  0
    1.3132   -0.4585    0.0000 N   0  0  0  0  0  0  0  0  0  0  0  0
    2.3752    0.4975    0.0000 C   0  0  0  0  0  0  0  0  0  0  0  0
    3.1598    0.7525    0.0000 C   0  0  0  0  0  0  0  0  0  0  0  0
    3.1598    1.5775    0.0000 N   0  0  0  0  0  0  0  0  0  0  0  0
    2.3752    1.8325    0.0000 N   0  0  0  0  0  0  0  0  0  0  0  0
    1.8902    1.1651    0.0000 C   0  0  0  0  0  0  0  0  0  0  0  0
    3.8272    2.0624    0.0000 C   0  0  0  0  0  0  0  0  0  0  0  0
    4.1628    2.8161    0.0000 C   0  0  0  0  0  0  0  0  0  0  0  0
    4.6477    2.1487    0.0000 C   0  0  0  0  0  0  0  0  0  0  0  0
   -1.1242   -1.5786    0.0000 C   0  0  0  0  0  0  0  0  0  0  0  0
   -1.8386   -1.1662    0.0000 C   0  0  0  0  0  0  0  0  0  0  0  0
   -2.5531   -1.5786    0.0000 C   0  0  0  0  0  0  0  0  0  0  0  0
   -2.5531   -2.4036    0.0000 C   0  0  0  0  0  0  0  0  0  0  0  0
   -1.8386   -2.8161    0.0000 C   0  0  0  0  0  0  0  0  0  0  0  0
   -1.1242   -2.4036    0.0000 C   0  0  0  0  0  0  0  0  0  0  0  0
   -0.4097   -2.8161    0.0000 F   0  0  0  0  0  0  0  0  0  0  0  0
   -3.3377   -2.6586    0.0000 N   0  0  0  0  0  0  0  0  0  0  0  0
   -3.8227   -1.9912    0.0000 N   0  0  0  0  0  0  0  0  0  0  0  0
   -3.3377   -1.3237    0.0000 C   0  0  0  0  0  0  0  0  0  0  0  0
   -4.6477   -1.9912    0.0000 C   0  0  0  0  0  0  0  0  0  0  0  0
  1  2  1  0
  1  3  1  0
  1  4  1  0
  1 21  1  0
  4  5  1  0
  4  8  2  0
  5  6  1  0
  5 12  1  0
  6  7  2  0
  6  9  1  0
  8  7  1  0
  9 10  2  0
 11 10  1  0
 11 13  1  0
 12 11  2  0
 13 14  2  0
 13 17  1  0
 14 15  1  0
 15 16  1  0
 15 18  1  0
 17 16  2  0
 18 19  1  0
 18 20  1  0
 19 20  1  0
 21 22  2  0
 21 26  1  0
 22 23  1  0
 23 24  1  0
 23 30  2  0
 24 28  2  0
 25 24  1  0
 26 25  2  0
 26 27  1  0
 28 29  1  0
 29 31  1  0
 30 29  1  0
M  END
>  <DRUGBANK_ID>  (1) 
DB16823

>  <COMMON_NAME>  (1) 
Vebreltinib

>  <CAS_NUMBER>  (1) 
1440964-89-5

>  <UNII>  (1) 
2WZP8A9VFN

>  <SYNONYMS>  (1) 
Bozitinib; Vebreltinib

$$$$
