
     RDKit          2D

 17 18  0  0  1  0  0  0  0  0999 V2000
   -0.2792   -2.0451    0.0000 B   0  0  0  0  0  0  0  0  0  0  0  0
   -0.2792   -2.8701    0.0000 C   0  0  0  0  0  0  0  0  0  0  0  0
    0.3883   -3.3550    0.0000 C   0  0  0  0  0  0  0  0  0  0  0  0
    0.1333   -4.1397    0.0000 C   0  0  0  0  0  0  0  0  0  0  0  0
   -0.6917   -4.1397    0.0000 C   0  0  0  0  0  0  0  0  0  0  0  0
   -0.9466   -3.3550    0.0000 N   0  0  0  0  0  0  0  0  0  0  0  0
   -1.7312   -3.1001    0.0000 C   0  0  0  0  0  0  0  0  0  0  0  0
   -1.9027   -2.2931    0.0000 O   0  0  0  0  0  0  0  0  0  0  0  0
   -2.3443   -3.6521    0.0000 C   0  0  0  0  0  0  0  0  0  0  0  0
   -3.1289   -3.3972    0.0000 N   0  0  0  0  0  0  0  0  0  0  0  0
   -3.7420   -3.9492    0.0000 C   0  0  0  0  0  0  0  0  0  0  0  0
   -3.6558   -4.7697    0.0000 C   0  0  0  0  0  0  0  0  0  0  0  0
   -4.4095   -5.1053    0.0000 C   0  0  0  0  0  0  0  0  0  0  0  0
   -4.9615   -4.4922    0.0000 N   0  0  0  0  0  0  0  0  0  0  0  0
   -4.5490   -3.7777    0.0000 C   0  0  0  0  0  0  0  0  0  0  0  0
   -0.9936   -1.6326    0.0000 O   0  0  0  0  0  0  0  0  0  0  0  0
    0.4353   -1.6326    0.0000 O   0  0  0  0  0  0  0  0  0  0  0  0
  1 16  1  0
  1 17  1  0
  2  1  1  6
  2  3  1  0
  2  6  1  0
  3  4  1  0
  4  5  1  0
  5  6  1  0
  6  7  1  0
  7  8  2  0
  7  9  1  0
  9 10  1  0
 11 10  1  6
 11 12  1  0
 11 15  1  0
 12 13  1  0
 13 14  1  0
 14 15  1  0
M  END
>  <DRUGBANK_ID>  (1) 
DB11723

>  <SECONDARY_ACCESSION_NUMBERS>  (1) 
DB05065

>  <COMMON_NAME>  (1) 
Dutogliptin

>  <CAS_NUMBER>  (1) 
852329-66-9

>  <UNII>  (1) 
38EAO245ZX

>  <SYNONYMS>  (1) 
Dutogliptin

$$$$
