IH6
     RDKit          2D

 26 27  0  0  0  0  0  0  0  0999 V2000
   -0.0616    5.5379    0.0000 C   0  0  0  0  0  0  0  0  0  0  0  0
   -0.0616    4.7129    0.0000 C   0  0  0  0  0  0  0  0  0  0  0  0
   -0.0616    3.8879    0.0000 C   0  0  0  0  0  0  0  0  0  0  0  0
   -0.0616    3.0629    0.0000 C   0  0  0  0  0  0  0  0  0  0  0  0
    0.6529    2.6504    0.0000 O   0  0  0  0  0  0  0  0  0  0  0  0
    0.6529    1.8254    0.0000 C   0  0  0  0  0  0  0  0  0  0  0  0
    1.3674    1.4129    0.0000 C   0  0  0  0  0  0  0  0  0  0  0  0
    1.3674    0.5879    0.0000 C   0  0  0  0  0  0  0  0  0  0  0  0
    0.6529    0.1754    0.0000 C   0  0  0  0  0  0  0  0  0  0  0  0
   -0.0616    0.5879    0.0000 C   0  0  0  0  0  0  0  0  0  0  0  0
   -0.0616    1.4129    0.0000 C   0  0  0  0  0  0  0  0  0  0  0  0
    0.6529   -0.6496    0.0000 S   0  0  0  0  0  0  0  0  0  0  0  0
   -0.1721   -0.6496    0.0000 O   0  0  0  0  0  0  0  0  0  0  0  0
    1.4779   -0.6496    0.0000 O   0  0  0  0  0  0  0  0  0  0  0  0
    0.6529   -1.4746    0.0000 N   0  0  0  0  0  0  0  0  0  0  0  0
    1.3674   -1.8871    0.0000 C   0  0  0  0  0  0  0  0  0  0  0  0
    1.3674   -2.7121    0.0000 C   0  0  0  0  0  0  0  0  0  0  0  0
    0.6529   -3.1246    0.0000 S   0  0  0  0  0  0  0  0  0  0  0  0
   -0.0616   -2.7121    0.0000 C   0  0  0  0  0  0  0  0  0  0  0  0
   -0.0616   -1.8871    0.0000 C   0  0  0  0  0  0  0  0  0  0  0  0
   -0.7761   -1.4746    0.0000 C   0  0  0  0  0  0  0  0  0  0  0  0
   -1.4905   -1.8871    0.0000 O   0  0  0  0  0  0  0  0  0  0  0  0
   -0.7761   -0.6496    0.0000 N   0  0  0  0  0  0  0  0  0  0  0  0
   -1.4905   -0.2371    0.0000 O   0  0  0  0  0  0  0  0  0  0  0  0
   -0.4988   -3.4117    0.0000 C   0  0  0  0  0  0  0  0  0  0  0  0
   -0.8861   -2.7409    0.0000 C   0  0  0  0  0  0  0  0  0  0  0  0
  1  2  1  0
  2  3  3  0
  3  4  1  0
  4  5  1  0
  5  6  1  0
  6  7  2  0
  6 11  1  0
  7  8  1  0
  8  9  2  0
  9 10  1  0
  9 12  1  0
 10 11  2  0
 12 13  2  0
 12 14  2  0
 12 15  1  0
 15 16  1  0
 15 20  1  0
 16 17  1  0
 17 18  1  0
 18 19  1  0
 19 20  1  0
 19 25  1  0
 19 26  1  0
 20 21  1  6
 21 22  2  0
 21 23  1  0
 23 24  1  0
M  END
>  <DRUGBANK_ID>  (1) 
DB07964

>  <COMMON_NAME>  (1) 
(3S)-4-{[4-(BUT-2-YNYLOXY)PHENYL]SULFONYL}-N-HYDROXY-2,2-DIMETHYLTHIOMORPHOLINE-3-CARBOXAMIDE

$$$$
