
     RDKit          2D

 22 22  0  0  0  0  0  0  0  0999 V2000
    5.1295    1.3406    0.0000 O   0  0  0  0  0  0  0  0  0  0  0  0
    0.8426    0.5156    0.0000 O   0  0  0  0  0  0  0  0  0  0  0  0
    0.8426   -1.1343    0.0000 O   0  0  0  0  0  0  0  0  0  0  0  0
    4.4150    0.1030    0.0000 N   0  0  0  0  0  0  0  0  0  0  0  0
    7.2729    0.1031    0.0000 C   0  0  0  0  0  0  0  0  0  0  0  0
    6.5585    0.5156    0.0000 C   0  0  0  0  0  0  0  0  0  0  0  0
    7.9874    0.5156    0.0000 C   0  0  0  0  0  0  0  0  0  0  0  0
    5.8440    0.1031    0.0000 C   0  0  0  0  0  0  0  0  0  0  0  0
   10.1309    0.1031    0.0000 C   0  0  0  0  0  0  0  0  0  0  0  0
    8.7020    0.1030    0.0000 C   0  0  0  0  0  0  0  0  0  0  0  0
    5.1296    0.5156    0.0000 C   0  0  0  0  0  0  0  0  0  0  0  0
    9.4165    0.5156    0.0000 C   0  0  0  0  0  0  0  0  0  0  0  0
    3.7006    0.5155    0.0000 C   0  0  0  0  0  0  0  0  0  0  0  0
    2.9861    0.1031    0.0000 C   0  0  0  0  0  0  0  0  0  0  0  0
   10.8454    0.5156    0.0000 C   0  0  0  0  0  0  0  0  0  0  0  0
   10.1309   -0.7219    0.0000 C   0  0  0  0  0  0  0  0  0  0  0  0
    2.2716    0.5156    0.0000 C   0  0  0  0  0  0  0  0  0  0  0  0
    2.9861   -0.7218    0.0000 C   0  0  0  0  0  0  0  0  0  0  0  0
    1.5571    0.1031    0.0000 C   0  0  0  0  0  0  0  0  0  0  0  0
    2.2716   -1.1344    0.0000 C   0  0  0  0  0  0  0  0  0  0  0  0
    1.5571   -0.7218    0.0000 C   0  0  0  0  0  0  0  0  0  0  0  0
    0.8426    1.3406    0.0000 C   0  0  0  0  0  0  0  0  0  0  0  0
  1 11  2  0
  2 19  1  0
  2 22  1  0
  3 21  1  0
  4 11  1  0
  4 13  1  0
  5  6  1  0
  5  7  1  0
  6  8  1  0
  7 10  1  0
  8 11  1  0
  9 12  1  0
  9 15  1  0
  9 16  1  0
 10 12  2  0
 13 14  1  0
 14 17  2  0
 14 18  1  0
 17 19  1  0
 18 20  2  0
 19 21  2  0
 20 21  1  0
M  END
>  <DRUGBANK_ID>  (1) 
DB06774

>  <SECONDARY_ACCESSION_NUMBERS>  (1) 
DB05674; DB05318

>  <COMMON_NAME>  (1) 
Capsaicin

>  <CAS_NUMBER>  (1) 
404-86-4

>  <UNII>  (1) 
S07O44R1ZM

>  <SYNONYMS>  (1) 
(E)-8-Methyl-N-vanillyl-6-nonenamide; Capsaicin; Capsaicina; Isodecenoic acid vanillylamide; trans-8-Methyl-N-vanillyl-6-nonenamide

$$$$
