
     RDKit          2D

 23 23  0  0  0  0  0  0  0  0999 V2000
   -1.7750   -0.2091    0.0000 C   0  0  0  0  0  0  0  0  0  0  0  0
   -1.7750   -1.0456    0.0000 C   0  0  0  0  0  0  0  0  0  0  0  0
   -1.0641   -1.4639    0.0000 C   0  0  0  0  0  0  0  0  0  0  0  0
   -0.3531   -1.0456    0.0000 C   0  0  0  0  0  0  0  0  0  0  0  0
   -0.3531   -0.2091    0.0000 C   0  0  0  0  0  0  0  0  0  0  0  0
   -1.0641    0.2091    0.0000 O   0  0  0  0  0  0  0  0  0  0  0  0
   -2.5279    0.2091    0.0000 C   0  0  0  0  0  0  0  0  0  0  0  0
    0.3997   -1.4639    0.0000 O   0  0  0  0  0  0  0  0  0  0  0  0
   -2.5279   -1.4639    0.0000 O   0  0  0  0  0  0  0  0  0  0  0  0
   -1.0641   -2.3003    0.0000 O   0  0  0  0  0  0  0  0  0  0  0  0
    0.3997    0.2091    0.0000 O   0  0  0  0  0  0  0  0  0  0  0  0
    0.3579    1.0456    0.0000 C   0  0  0  0  0  0  0  0  0  0  0  0
    1.1107    1.4639    0.0000 C   0  0  0  0  0  0  0  0  0  0  0  0
    1.8218    1.0456    0.0000 C   0  0  0  0  0  0  0  0  0  0  0  0
    2.5327    1.4639    0.0000 C   0  0  0  0  0  0  0  0  0  0  0  0
    3.2438    1.0456    0.0000 O   0  0  0  0  0  0  0  0  0  0  0  0
   -0.3531    1.4639    0.0000 C   0  0  0  0  0  0  0  0  0  0  0  0
   -1.0641    1.0456    0.0000 C   0  0  0  0  0  0  0  0  0  0  0  0
   -1.7750    1.4639    0.0000 O   0  0  0  0  0  0  0  0  0  0  0  0
    1.1107    2.3003    0.0000 O   0  0  0  0  0  0  0  0  0  0  0  0
    1.8218    0.2091    0.0000 O   0  0  0  0  0  0  0  0  0  0  0  0
   -0.3531    2.3003    0.0000 O   0  0  0  0  0  0  0  0  0  0  0  0
   -3.2438   -0.2200    0.0000 O   0  0  0  0  0  0  0  0  0  0  0  0
  1  7  1  1
  1  2  1  0
  2  9  1  1
  2  3  1  0
  3 10  1  1
  3  4  1  0
  4  5  1  0
  4  8  1  6
  5  6  1  0
  5 11  1  1
  6  1  1  0
  7 23  1  0
 12 11  1  6
 12 13  1  0
 12 17  1  0
 13 14  1  0
 13 20  1  6
 14 15  1  0
 14 21  1  6
 15 16  1  0
 17 18  1  0
 17 22  1  1
 18 19  1  0
M  END
>  <DRUGBANK_ID>  (1) 
DB12942

>  <COMMON_NAME>  (1) 
Lactitol

>  <CAS_NUMBER>  (1) 
585-86-4

>  <UNII>  (1) 
L2B0WJF7ZY

>  <SYNONYMS>  (1) 
Lactitol; Lactitolum

$$$$
