
     RDKit          2D

 26 26  0  0  0  0  0  0  0  0999 V2000
    0.7740    0.7219    0.0000 C   0  0  0  0  0  0  0  0  0  0  0  0
    0.7740   -0.1031    0.0000 C   0  0  0  0  0  0  0  0  0  0  0  0
    0.0595   -0.5156    0.0000 C   0  0  0  0  0  0  0  0  0  0  0  0
   -0.6549   -0.1031    0.0000 C   0  0  0  0  0  0  0  0  0  0  0  0
   -0.6549    0.7219    0.0000 C   0  0  0  0  0  0  0  0  0  0  0  0
    0.0595    1.1344    0.0000 C   0  0  0  0  0  0  0  0  0  0  0  0
    0.0595    1.9594    0.0000 C   0  0  0  0  0  0  0  0  0  0  0  0
   -0.6549    2.3719    0.0000 N   0  0  0  0  0  0  0  0  0  0  0  0
    0.0595   -1.3406    0.0000 S   0  0  0  0  0  0  0  0  0  0  0  0
    0.0595   -2.1656    0.0000 O   0  0  0  0  0  0  0  0  0  0  0  0
   -0.7655   -1.3406    0.0000 O   0  0  0  0  0  0  0  0  0  0  0  0
    0.8845   -1.3406    0.0000 N   0  0  0  0  0  0  0  0  0  0  0  0
    5.3851    1.4732    0.0000 C   0  0  0  0  0  0  0  0  0  0  0  0
    5.3851    0.6482    0.0000 C   0  0  0  0  0  0  0  0  0  0  0  0
    4.6706    0.2357    0.0000 C   0  0  0  0  0  0  0  0  0  0  0  0
    3.9562    0.6482    0.0000 C   0  0  0  0  0  0  0  0  0  0  0  0
    3.9562    1.4732    0.0000 C   0  0  0  0  0  0  0  0  0  0  0  0
    4.6706    1.8857    0.0000 C   0  0  0  0  0  0  0  0  0  0  0  0
    4.6706    2.7107    0.0000 N   0  0  0  0  0  0  0  0  0  0  0  0
    4.6706   -0.5893    0.0000 S   0  0  0  0  0  0  0  0  0  0  0  0
    3.8456   -0.5893    0.0000 O   0  0  0  0  0  0  0  0  0  0  0  0
    5.4956   -0.5893    0.0000 O   0  0  0  0  0  0  0  0  0  0  0  0
    4.6706   -1.4143    0.0000 N   0  0  0  0  0  0  0  0  0  0  0  0
    3.9562   -1.8268    0.0000 C   0  0  0  0  0  0  0  0  0  0  0  0
    3.9562   -2.6518    0.0000 S   0  0  0  0  0  0  0  0  0  0  0  0
    3.2417   -1.4143    0.0000 N   0  0  0  0  0  0  0  0  0  0  0  0
  1  2  2  0
  1  6  1  0
  2  3  1  0
  3  4  2  0
  3  9  1  0
  4  5  1  0
  5  6  2  0
  6  7  1  0
  7  8  1  0
  9 10  2  0
  9 11  2  0
  9 12  1  0
 13 14  2  0
 13 18  1  0
 14 15  1  0
 15 16  2  0
 15 20  1  0
 16 17  1  0
 17 18  2  0
 18 19  1  0
 20 21  2  0
 20 22  2  0
 20 23  1  0
 23 24  1  0
 24 25  2  0
 24 26  1  0
M  END
>  <DRUGBANK_ID>  (1) 
DB13547

>  <COMMON_NAME>  (1) 
Sulfatolamide

>  <CAS_NUMBER>  (1) 
1161-88-2

>  <UNII>  (1) 
3OLH2HAK9F

>  <SYNONYMS>  (1) 
Sulfatolamide

$$$$
