
     RDKit          2D

 22 25  0  0  0  0  0  0  0  0999 V2000
    8.9947    2.0625    0.0000 C   0  0  0  0  0  0  0  0  0  0  0  0
    3.9934    0.8250    0.0000 C   0  0  0  0  0  0  0  0  0  0  0  0
    3.2789    1.2375    0.0000 C   0  0  0  0  0  0  0  0  0  0  0  0
    8.2802    2.4750    0.0000 C   0  0  0  0  0  0  0  0  0  0  0  0
    8.9947    1.2375    0.0000 C   0  0  0  0  0  0  0  0  0  0  0  0
    6.1368   -0.4125    0.0000 C   0  0  0  0  0  0  0  0  0  0  0  0
    5.4223    0.8250    0.0000 C   0  0  0  0  0  0  0  0  0  0  0  0
    6.8513   -0.0000    0.0000 C   0  0  0  0  0  0  0  0  0  0  0  0
    6.1368    1.2375    0.0000 C   0  0  0  0  0  0  0  0  0  0  0  0
    3.2789   -0.4125    0.0000 C   0  0  0  0  0  0  0  0  0  0  0  0
    4.7079   -0.4125    0.0000 C   0  0  0  0  0  0  0  0  0  0  0  0
    1.2949    0.4125    0.0000 C   0  0  0  0  0  0  0  0  0  0  0  0
    3.9934    0.0000    0.0000 C   0  0  0  0  0  0  0  0  0  0  0  0
    2.5645    0.8250    0.0000 C   0  0  0  0  0  0  0  0  0  0  0  0
    2.5645    0.0000    0.0000 C   0  0  0  0  0  0  0  0  0  0  0  0
    7.5658    1.2375    0.0000 C   0  0  0  0  0  0  0  0  0  0  0  0
    7.5658    2.0625    0.0000 N   0  0  0  0  0  0  0  0  0  0  0  0
    8.2802    0.8250    0.0000 N   0  0  0  0  0  0  0  0  0  0  0  0
    5.4223   -0.0000    0.0000 N   0  0  0  0  0  0  0  0  0  0  0  0
    6.8513    0.8250    0.0000 N   0  0  0  0  0  0  0  0  0  0  0  0
    1.7798    1.0799    0.0000 O   0  0  0  0  0  0  0  0  0  0  0  0
    1.7798   -0.2549    0.0000 O   0  0  0  0  0  0  0  0  0  0  0  0
  3  2  2  0
  4  1  2  0
  5  1  1  0
  8  6  1  0
  9  7  1  0
 13  2  1  0
 13 10  2  0
 13 11  1  0
 14  3  1  0
 15 10  1  0
 15 14  2  0
 17  4  1  0
 17 16  2  0
 18  5  2  0
 18 16  1  0
 19  6  1  0
 19  7  1  0
 19 11  1  0
 20  8  1  0
 20  9  1  0
 20 16  1  0
 21 12  1  0
 21 14  1  0
 22 12  1  0
 22 15  1  0
M  END
>  <DRUGBANK_ID>  (1) 
DB12478

>  <COMMON_NAME>  (1) 
Piribedil

>  <CAS_NUMBER>  (1) 
3605-01-4

>  <UNII>  (1) 
DO22K1PRDJ

>  <SYNONYMS>  (1) 
Piribedil

$$$$
