
     RDKit          2D

 32 35  0  0  0  0  0  0  0  0999 V2000
    0.0000    0.8250    0.0000 C   0  0  0  0  0  0  0  0  0  0  0  0
    0.7145    0.4125    0.0000 C   0  0  0  0  0  0  0  0  0  0  0  0
    0.7145   -0.4125    0.0000 C   0  0  0  0  0  0  0  0  0  0  0  0
    0.0000   -0.8250    0.0000 C   0  0  0  0  0  0  0  0  0  0  0  0
   -0.7145   -0.4125    0.0000 C   0  0  0  0  0  0  0  0  0  0  0  0
   -0.7145    0.4125    0.0000 C   0  0  0  0  0  0  0  0  0  0  0  0
    2.1434   -2.0625    0.0000 C   0  0  0  0  0  0  0  0  0  0  0  0
    2.1434   -2.8875    0.0000 C   0  0  0  0  0  0  0  0  0  0  0  0
    2.9684   -2.8875    0.0000 N   0  0  0  0  0  0  0  0  0  0  0  0
    2.9684   -2.0625    0.0000 C   0  0  0  0  0  0  0  0  0  0  0  0
    3.7530   -3.1424    0.0000 C   0  0  0  0  0  0  0  0  0  0  0  0
    4.2380   -2.4750    0.0000 C   0  0  0  0  0  0  0  0  0  0  0  0
    3.7530   -1.8076    0.0000 S   0  0  0  0  0  0  0  0  0  0  0  0
    4.9567   -2.8800    0.0000 C   0  0  0  0  0  0  0  0  0  0  0  0
    4.9567   -2.0700    0.0000 C   0  0  0  0  0  0  0  0  0  0  0  0
    4.0080   -3.9271    0.0000 C   0  0  0  0  0  0  0  0  0  0  0  0
    4.8149   -4.0986    0.0000 O   0  0  0  0  0  0  0  0  0  0  0  0
    3.4559   -4.5402    0.0000 O   0  0  0  0  0  0  0  0  0  0  0  0
    1.4289   -1.6500    0.0000 N   0  0  0  0  0  0  0  0  0  0  0  0
    0.7145   -2.0625    0.0000 C   0  0  0  0  0  0  0  0  0  0  0  0
    0.7145   -2.8875    0.0000 O   0  0  0  0  0  0  0  0  0  0  0  0
    0.0000   -1.6500    0.0000 C   0  0  0  0  0  0  0  0  0  0  0  0
   -0.7145   -2.0625    0.0000 N   0  0  0  0  0  0  0  0  0  0  0  0
   -1.4289   -1.6500    0.0000 C   0  0  0  0  0  0  0  0  0  0  0  0
   -1.4289   -0.8250    0.0000 O   0  0  0  0  0  0  0  0  0  0  0  0
    1.5600   -3.4709    0.0000 O   0  0  0  0  0  0  0  0  0  0  0  0
   -3.4130   -2.4749    0.0000 N   0  0  0  0  0  0  0  0  0  0  0  0
   -2.9280   -1.8075    0.0000 C   0  0  0  0  0  0  0  0  0  0  0  0
   -2.1434   -2.0625    0.0000 N   0  0  0  0  0  0  0  0  0  0  0  0
   -2.1434   -2.8875    0.0000 C   0  0  0  0  0  0  0  0  0  0  0  0
   -2.9281   -3.1424    0.0000 C   0  0  0  0  0  0  0  0  0  0  0  0
   -3.1829   -1.0229    0.0000 O   0  0  0  0  0  0  0  0  0  0  0  0
  1  2  2  0
  2  3  1  0
  4  5  1  0
  4  3  2  0
  5  6  2  0
  6  1  1  0
  7  8  1  0
  7 19  1  1
  8  9  1  0
  8 26  2  0
  9 11  1  0
 10  9  1  0
 10  7  1  0
 10 13  1  1
 11 12  1  0
 11 16  1  6
 12 13  1  0
 12 14  1  0
 12 15  1  0
 16 17  1  0
 16 18  2  0
 19 20  1  0
 20 21  2  0
 22  4  1  0
 22 20  1  0
 22 23  1  6
 23 24  1  0
 24 29  1  0
 24 25  2  0
 27 28  1  0
 27 31  1  0
 28 29  1  0
 28 32  2  0
 29 30  1  0
 30 31  1  0
M  END
>  <DRUGBANK_ID>  (1) 
DB01061

>  <SECONDARY_ACCESSION_NUMBERS>  (1) 
APRD00814

>  <COMMON_NAME>  (1) 
Azlocillin

>  <CAS_NUMBER>  (1) 
37091-66-0

>  <UNII>  (1) 
HUM6H389W0

>  <SYNONYMS>  (1) 
(2S,5R,6R)-3,3-dimethyl-7-oxo-6-{[(2R)-2-{[(2-oxoimidazolidin-1-yl)carbonyl]amino}-2-phenylacetyl]amino}-4-thia-1-azabicyclo[3.2.0]heptane-2-carboxylic acid; Azlocilina; Azlocillin; Azlocilline; Azlocillinum

$$$$
