
     RDKit          2D

 29 32  0  0  1  0  0  0  0  0999 V2000
    7.1428   -0.8317    0.0000 C   0  0  0  0  0  0  0  0  0  0  0  0
    7.0301   -0.0144    0.0000 N   0  0  0  0  0  0  0  0  0  0  0  0
    6.2660    0.2967    0.0000 C   0  0  0  0  0  0  0  0  0  0  0  0
    5.6146   -0.2096    0.0000 O   0  0  0  0  0  0  0  0  0  0  0  0
    6.1533    1.1139    0.0000 C   0  0  0  0  0  0  0  0  0  0  0  0
    5.3892    1.4250    0.0000 C   0  0  0  0  0  0  0  0  0  0  0  0
    4.7378    0.9187    0.0000 N   0  0  0  0  0  0  0  0  0  0  0  0
    4.8505    0.1015    0.0000 C   0  0  0  0  0  0  0  0  0  0  0  0
    4.1990   -0.4048    0.0000 C   0  0  0  0  0  0  0  0  0  0  0  0
    3.4349   -0.0937    0.0000 C   0  0  0  0  0  0  0  0  0  0  0  0
    3.3222    0.7235    0.0000 C   0  0  0  0  0  0  0  0  0  0  0  0
    3.9736    1.2298    0.0000 C   0  0  0  0  0  0  0  0  0  0  0  0
    3.5476   -0.9110    0.0000 O   0  0  0  0  0  0  0  0  0  0  0  0
    2.8962   -1.4172    0.0000 C   0  0  0  0  0  0  0  0  0  0  0  0
    2.1321   -1.1062    0.0000 C   0  0  0  0  0  0  0  0  0  0  0  0
    2.0194   -0.2889    0.0000 C   0  0  0  0  0  0  0  0  0  0  0  0
    2.6708    0.2173    0.0000 C   0  0  0  0  0  0  0  0  0  0  0  0
    2.3906    0.9933    0.0000 S   0  0  0  0  0  0  0  0  0  0  0  0
    1.5661    0.9666    0.0000 C   0  0  0  0  0  0  0  0  0  0  0  0
    1.0598    1.6181    0.0000 F   0  0  0  0  0  0  0  0  0  0  0  0
    1.3366    0.1742    0.0000 C   0  0  0  0  0  0  0  0  0  0  0  0
    6.8047    1.6201    0.0000 C   0  0  0  0  0  0  0  0  0  0  0  0
    7.5689    1.3091    0.0000 C   0  0  0  0  0  0  0  0  0  0  0  0
    7.6816    0.4918    0.0000 C   0  0  0  0  0  0  0  0  0  0  0  0
    8.4457    0.1808    0.0000 C   0  0  0  0  0  0  0  0  0  0  0  0
    9.0971    0.6870    0.0000 C   0  0  0  0  0  0  0  0  0  0  0  0
    8.9844    1.5043    0.0000 C   0  0  0  0  0  0  0  0  0  0  0  0
    8.2203    1.8153    0.0000 C   0  0  0  0  0  0  0  0  0  0  0  0
    8.1076    2.6326    0.0000 F   0  0  0  0  0  0  0  0  0  0  0  0
  1  2  1  0
  2  3  1  0
  3  4  2  0
  5  3  1  0
  5  6  1  6
  5 22  1  0
  6  7  1  0
  7  8  1  0
  7 12  1  0
  8  9  1  0
  9 10  1  0
 10 11  1  0
 10 13  1  0
 10 17  1  0
 11 12  1  0
 13 14  1  0
 14 15  1  0
 15 16  1  0
 16 17  2  0
 16 21  1  0
 17 18  1  0
 18 19  1  0
 19 20  1  0
 19 21  2  0
 22 23  1  0
 23 24  2  0
 23 28  1  0
 24 25  1  0
 25 26  2  0
 26 27  1  0
 27 28  2  0
 28 29  1  0
M  END
>  <DRUGBANK_ID>  (1) 
DB15208

>  <COMMON_NAME>  (1) 
NOP-1A

>  <CAS_NUMBER>  (1) 
1283095-70-4

>  <UNII>  (1) 
DQY244459T

$$$$
