
     RDKit          2D

 24 25  0  0  0  0  0  0  0  0999 V2000
    5.1757    0.2014    0.0000 C   0  0  0  0  0  0  0  0  0  0  0  0
    5.7158    0.8250    0.0000 C   0  0  0  0  0  0  0  0  0  0  0  0
    6.5259    0.6691    0.0000 C   0  0  0  0  0  0  0  0  0  0  0  0
   11.9268    0.3573    0.0000 C   0  0  0  0  0  0  0  0  0  0  0  0
   10.8466    3.4755    0.0000 C   0  0  0  0  0  0  0  0  0  0  0  0
   11.6567    1.1368    0.0000 C   0  0  0  0  0  0  0  0  0  0  0  0
   11.3867   -0.2664    0.0000 C   0  0  0  0  0  0  0  0  0  0  0  0
   10.0365    3.6314    0.0000 C   0  0  0  0  0  0  0  0  0  0  0  0
   11.1167    2.6959    0.0000 C   0  0  0  0  0  0  0  0  0  0  0  0
   10.8466    1.2927    0.0000 C   0  0  0  0  0  0  0  0  0  0  0  0
   10.5766   -0.1105    0.0000 C   0  0  0  0  0  0  0  0  0  0  0  0
    9.4964    3.0077    0.0000 C   0  0  0  0  0  0  0  0  0  0  0  0
   10.5766    2.0723    0.0000 C   0  0  0  0  0  0  0  0  0  0  0  0
    7.0660    1.2927    0.0000 C   0  0  0  0  0  0  0  0  0  0  0  0
   10.3065    0.6691    0.0000 C   0  0  0  0  0  0  0  0  0  0  0  0
    9.7664    2.2282    0.0000 C   0  0  0  0  0  0  0  0  0  0  0  0
    7.8761    1.1368    0.0000 C   0  0  0  0  0  0  0  0  0  0  0  0
    8.4162    1.7605    0.0000 C   0  0  0  0  0  0  0  0  0  0  0  0
    8.1462    0.3573    0.0000 C   0  0  0  0  0  0  0  0  0  0  0  0
    9.4964    0.8250    0.0000 N   0  0  0  0  0  0  0  0  0  0  0  0
    9.2263    1.6046    0.0000 N   0  0  0  0  0  0  0  0  0  0  0  0
    8.1462    2.5400    0.0000 O   0  0  0  0  0  0  0  0  0  0  0  0
    8.9563    0.2014    0.0000 O   0  0  0  0  0  0  0  0  0  0  0  0
    7.6061   -0.2664    0.0000 O   0  0  0  0  0  0  0  0  0  0  0  0
  2  1  1  0
  3  2  1  0
  6  4  2  0
  7  4  1  0
  8  5  2  0
  9  5  1  0
 10  6  1  0
 11  7  2  0
 12  8  1  0
 13  9  2  0
 14  3  1  0
 15 10  2  0
 15 11  1  0
 16 12  2  0
 16 13  1  0
 17 14  1  0
 18 17  1  0
 19 17  1  0
 20 15  1  0
 21 16  1  0
 21 18  1  0
 21 20  1  0
 22 18  2  0
 23 19  2  0
 24 19  1  0
M  END
>  <DRUGBANK_ID>  (1) 
DB13286

>  <COMMON_NAME>  (1) 
Bumadizone

>  <CAS_NUMBER>  (1) 
3583-64-0

>  <UNII>  (1) 
ATD81G944M

>  <SYNONYMS>  (1) 
bumadizona; Bumadizone

$$$$
