
     RDKit          2D

 27 30  0  0  0  0  0  0  0  0999 V2000
    1.6500   -0.1043    0.0000 Cl  0  0  0  0  0  0  0  0  0  0  0  0
    5.4772    2.7456    0.0000 O   0  0  0  0  0  0  0  0  0  0  0  0
    6.5391    1.7894    0.0000 O   0  0  0  0  0  0  0  0  0  0  0  0
    6.2196    0.3082    0.0000 N   0  0  0  0  0  0  0  0  0  0  0  0
    7.4818   -0.1043    0.0000 C   0  0  0  0  0  0  0  0  0  0  0  0
    7.0004    0.5596    0.0000 C   0  0  0  0  0  0  0  0  0  0  0  0
    7.0004   -0.7683    0.0000 C   0  0  0  0  0  0  0  0  0  0  0  0
    6.2196   -0.5168    0.0000 C   0  0  0  0  0  0  0  0  0  0  0  0
    5.4351    0.5632    0.0000 C   0  0  0  0  0  0  0  0  0  0  0  0
    5.4351   -0.7717    0.0000 C   0  0  0  0  0  0  0  0  0  0  0  0
    8.1493    0.3807    0.0000 C   0  0  0  0  0  0  0  0  0  0  0  0
    8.1493   -0.5892    0.0000 C   0  0  0  0  0  0  0  0  0  0  0  0
    4.9501   -0.1043    0.0000 C   0  0  0  0  0  0  0  0  0  0  0  0
    5.1801    1.3478    0.0000 C   0  0  0  0  0  0  0  0  0  0  0  0
    5.1801   -1.5564    0.0000 C   0  0  0  0  0  0  0  0  0  0  0  0
    4.1251   -0.1043    0.0000 C   0  0  0  0  0  0  0  0  0  0  0  0
    5.7321   -2.1695    0.0000 C   0  0  0  0  0  0  0  0  0  0  0  0
    4.3731   -1.7279    0.0000 C   0  0  0  0  0  0  0  0  0  0  0  0
    5.7321    1.9609    0.0000 C   0  0  0  0  0  0  0  0  0  0  0  0
    3.7126   -0.8187    0.0000 C   0  0  0  0  0  0  0  0  0  0  0  0
    3.7126    0.6102    0.0000 C   0  0  0  0  0  0  0  0  0  0  0  0
    5.4772   -2.9541    0.0000 C   0  0  0  0  0  0  0  0  0  0  0  0
    4.1182   -2.5126    0.0000 C   0  0  0  0  0  0  0  0  0  0  0  0
    2.8876   -0.8187    0.0000 C   0  0  0  0  0  0  0  0  0  0  0  0
    2.8876    0.6102    0.0000 C   0  0  0  0  0  0  0  0  0  0  0  0
    4.6702   -3.1257    0.0000 C   0  0  0  0  0  0  0  0  0  0  0  0
    2.4751   -0.1043    0.0000 C   0  0  0  0  0  0  0  0  0  0  0  0
  1 27  1  0
  2 19  1  0
  3 19  2  0
  4  6  1  0
  4  8  1  0
  4  9  1  0
  5  6  1  0
  5  7  1  0
  5 11  1  0
  5 12  1  0
  7  8  1  0
  8 10  2  0
  9 13  2  0
  9 14  1  0
 10 13  1  0
 10 15  1  0
 13 16  1  0
 14 19  1  0
 15 17  2  0
 15 18  1  0
 16 20  2  0
 16 21  1  0
 17 22  1  0
 18 23  2  0
 20 24  1  0
 21 25  2  0
 22 26  2  0
 23 26  1  0
 24 27  2  0
 25 27  1  0
M  END
>  <DRUGBANK_ID>  (1) 
DB04725

>  <COMMON_NAME>  (1) 
Licofelone

>  <CAS_NUMBER>  (1) 
156897-06-2

>  <UNII>  (1) 
P5T6BYS22Y

>  <SYNONYMS>  (1) 
Licofelone

$$$$
