
     RDKit          2D

 15 14  0  0  1  0  0  0  0  0999 V2000
    9.2913   -6.3422    0.0000 C   0  0  0  0  0  0  0  0  0  0  0  0
   10.0057   -6.7547    0.0000 C   0  0  0  0  0  0  0  0  0  0  0  0
   10.7202   -6.3422    0.0000 C   0  0  0  0  0  0  0  0  0  0  0  0
   11.4347   -6.7547    0.0000 C   0  0  0  0  0  0  0  0  0  0  0  0
   12.1491   -6.3422    0.0000 C   0  0  0  0  0  0  0  0  0  0  0  0
   12.8636   -6.7547    0.0000 C   0  0  0  0  0  0  0  0  0  0  0  0
   13.5781   -6.3422    0.0000 C   0  0  0  0  0  0  0  0  0  0  0  0
   14.2926   -6.7547    0.0000 C   0  0  0  0  0  0  0  0  0  0  0  0
   15.0071   -6.3422    0.0000 C   0  0  0  0  0  0  0  0  0  0  0  0
   15.7215   -6.7547    0.0000 O   0  0  0  0  0  0  0  0  0  0  0  0
   15.0071   -5.5172    0.0000 O   0  0  0  0  0  0  0  0  0  0  0  0
    8.5768   -6.7547    0.0000 C   0  0  0  0  0  0  0  0  0  0  0  0
    7.8623   -6.3422    0.0000 C   0  0  0  0  0  0  0  0  0  0  0  0
    7.1478   -6.7547    0.0000 C   0  0  0  0  0  0  0  0  0  0  0  0
   12.9209   -5.6151    0.0000 O   0  0  0  0  0  0  0  0  0  0  0  0
  1 12  1  0
  2  1  1  0
  3  2  1  0
  4  3  1  0
  5  4  1  0
  6  5  1  0
  7  6  1  0
  7 15  1  1
  8  7  1  0
  9  8  1  0
 10  9  2  0
 11  9  1  0
 12 13  1  0
 13 14  1  0
M  END
>  <DRUGBANK_ID>  (1) 
DB07930

>  <COMMON_NAME>  (1) 
(3R)-3-HYDROXYDODECANOIC ACID

$$$$
