LJ2
     RDKit          2D

 17 18  0  0  0  0  0  0  0  0999 V2000
    2.8096    0.1813    0.0000 C   0  0  0  0  0  0  0  0  0  0  0  0
    3.5241   -0.2313    0.0000 C   0  0  0  0  0  0  0  0  0  0  0  0
    4.2385    0.1812    0.0000 Br  0  0  0  0  0  0  0  0  0  0  0  0
    3.5241   -1.0563    0.0000 C   0  0  0  0  0  0  0  0  0  0  0  0
    4.2385   -1.4688    0.0000 O   0  0  0  0  0  0  0  0  0  0  0  0
    2.8096   -1.4688    0.0000 C   0  0  0  0  0  0  0  0  0  0  0  0
    2.8096   -2.2938    0.0000 Br  0  0  0  0  0  0  0  0  0  0  0  0
    2.0951   -1.0562    0.0000 C   0  0  0  0  0  0  0  0  0  0  0  0
    2.0951   -0.2312    0.0000 C   0  0  0  0  0  0  0  0  0  0  0  0
    1.3806    0.1813    0.0000 C   0  0  0  0  0  0  0  0  0  0  0  0
    0.6662   -0.2313    0.0000 C   0  0  0  0  0  0  0  0  0  0  0  0
   -0.0483    0.1812    0.0000 C   0  0  0  0  0  0  0  0  0  0  0  0
   -0.7628   -0.2313    0.0000 C   0  0  0  0  0  0  0  0  0  0  0  0
   -1.4772    0.1812    0.0000 C   0  0  0  0  0  0  0  0  0  0  0  0
   -1.4772    1.0062    0.0000 C   0  0  0  0  0  0  0  0  0  0  0  0
   -0.7628    1.4187    0.0000 C   0  0  0  0  0  0  0  0  0  0  0  0
   -0.0483    1.0062    0.0000 C   0  0  0  0  0  0  0  0  0  0  0  0
  1  2  2  0
  1  9  1  0
  2  3  1  0
  2  4  1  0
  4  5  1  0
  4  6  2  0
  6  7  1  0
  6  8  1  0
  8  9  2  0
  9 10  1  0
 10 11  2  0
 11 12  1  0
 12 13  2  0
 12 17  1  0
 13 14  1  0
 14 15  2  0
 15 16  1  0
 16 17  2  0
M  END
>  <DRUGBANK_ID>  (1) 
DB08101

>  <COMMON_NAME>  (1) 
2,6-dibromo-4-[(E)-2-phenylethenyl]phenol

$$$$
