B18
     RDKit          2D

 31 34  0  0  0  0  0  0  0  0999 V2000
   -2.1335    1.2964    0.0000 C   0  0  0  0  0  0  0  0  0  0  0  0
   -2.4691    0.5427    0.0000 C   0  0  0  0  0  0  0  0  0  0  0  0
   -3.2896    0.4564    0.0000 C   0  0  0  0  0  0  0  0  0  0  0  0
   -3.7745    1.1239    0.0000 C   0  0  0  0  0  0  0  0  0  0  0  0
   -3.4389    1.8776    0.0000 C   0  0  0  0  0  0  0  0  0  0  0  0
   -2.6185    1.9638    0.0000 C   0  0  0  0  0  0  0  0  0  0  0  0
   -3.7745   -0.2110    0.0000 C   0  0  0  0  0  0  0  0  0  0  0  0
   -4.5591    0.0439    0.0000 C   0  0  0  0  0  0  0  0  0  0  0  0
   -4.5591    0.8689    0.0000 N   0  0  0  0  0  0  0  0  0  0  0  0
   -3.6030   -1.0180    0.0000 C   0  0  0  0  0  0  0  0  0  0  0  0
   -4.2161   -1.5700    0.0000 C   0  0  0  0  0  0  0  0  0  0  0  0
   -5.0007   -1.3151    0.0000 N   0  0  0  0  0  0  0  0  0  0  0  0
   -5.1722   -0.5081    0.0000 C   0  0  0  0  0  0  0  0  0  0  0  0
   -5.9568   -0.2532    0.0000 O   0  0  0  0  0  0  0  0  0  0  0  0
   -1.3131    1.3826    0.0000 C   0  0  0  0  0  0  0  0  0  0  0  0
   -0.9775    2.1363    0.0000 O   0  0  0  0  0  0  0  0  0  0  0  0
   -0.8281    0.7151    0.0000 N   0  0  0  0  0  0  0  0  0  0  0  0
   -0.0077    0.8014    0.0000 C   0  0  0  0  0  0  0  0  0  0  0  0
    0.4048    1.5159    0.0000 S   0  0  0  0  0  0  0  0  0  0  0  0
    1.2118    1.3443    0.0000 C   0  0  0  0  0  0  0  0  0  0  0  0
    1.2981    0.5238    0.0000 C   0  0  0  0  0  0  0  0  0  0  0  0
    0.5444    0.1883    0.0000 N   0  0  0  0  0  0  0  0  0  0  0  0
    2.0125    0.1113    0.0000 C   0  0  0  0  0  0  0  0  0  0  0  0
    2.7270    0.5238    0.0000 N   0  0  0  0  0  0  0  0  0  0  0  0
    2.0125   -0.7137    0.0000 O   0  0  0  0  0  0  0  0  0  0  0  0
    3.4415    0.1113    0.0000 C   0  0  0  0  0  0  0  0  0  0  0  0
    4.1559    0.5238    0.0000 C   0  0  0  0  0  0  0  0  0  0  0  0
    4.8704    0.1113    0.0000 N   0  0  0  0  0  0  0  0  0  0  0  0
    5.5849    0.5238    0.0000 C   0  0  0  0  0  0  0  0  0  0  0  0
    4.8704   -0.7137    0.0000 C   0  0  0  0  0  0  0  0  0  0  0  0
   -2.8184   -1.2729    0.0000 C   0  0  0  0  0  0  0  0  0  0  0  0
  1 15  1  0
  1  6  1  0
  1  2  2  0
  2  3  1  0
  3  4  2  0
  3  7  1  0
  4  5  1  0
  4  9  1  0
  5  6  2  0
  7 10  1  0
  7  8  2  0
  8  9  1  0
  8 13  1  0
 10 31  1  1
 10 11  1  0
 11 12  1  0
 12 13  1  0
 13 14  2  0
 15 16  2  0
 15 17  1  0
 17 18  1  0
 18 19  1  0
 18 22  2  0
 19 20  1  0
 20 21  2  0
 21 23  1  0
 21 22  1  0
 23 25  2  0
 23 24  1  0
 24 26  1  0
 26 27  1  0
 27 28  1  0
 28 30  1  0
 28 29  1  0
M  END
>  <DRUGBANK_ID>  (1) 
DB07406

>  <COMMON_NAME>  (1) 
(4R)-N-[4-({[2-(DIMETHYLAMINO)ETHYL]AMINO}CARBONYL)-1,3-THIAZOL-2-YL]-4-METHYL-1-OXO-2,3,4,9-TETRAHYDRO-1H-BETA-CARBOLINE-6-CARBOXAMIDE

$$$$
