TCK
     RDKit          2D

 21 21  0  0  0  0  0  0  0  0999 V2000
   -0.9577    0.8730    0.0000 S   0  0  0  0  0  0  0  0  0  0  0  0
   -0.9577    1.6980    0.0000 O   0  0  0  0  0  0  0  0  0  0  0  0
   -0.9577    0.0480    0.0000 O   0  0  0  0  0  0  0  0  0  0  0  0
   -1.7827    0.8730    0.0000 C   0  0  0  0  0  0  0  0  0  0  0  0
   -2.1952    0.1586    0.0000 C   0  0  0  0  0  0  0  0  0  0  0  0
   -3.0202    0.1586    0.0000 C   0  0  0  0  0  0  0  0  0  0  0  0
   -3.4327    0.8730    0.0000 C   0  0  0  0  0  0  0  0  0  0  0  0
   -3.0202    1.5875    0.0000 C   0  0  0  0  0  0  0  0  0  0  0  0
   -2.1952    1.5875    0.0000 C   0  0  0  0  0  0  0  0  0  0  0  0
   -4.2577    0.8730    0.0000 C   0  0  0  0  0  0  0  0  0  0  0  0
   -0.1327    0.8730    0.0000 N   0  0  0  0  0  0  0  0  0  0  0  0
    0.2798    0.1586    0.0000 C   0  0  0  0  0  0  0  0  0  0  0  0
   -0.1327   -0.5559    0.0000 C   0  0  0  0  0  0  0  0  0  0  0  0
   -0.9577   -0.5559    0.0000 O   0  0  0  0  0  0  0  0  0  0  0  0
    1.1048    0.1586    0.0000 C   0  0  0  0  0  0  0  0  0  0  0  0
    1.5173   -0.5559    0.0000 C   0  0  0  0  0  0  0  0  0  0  0  0
    2.3423   -0.5559    0.0000 C   0  0  0  0  0  0  0  0  0  0  0  0
    2.7548   -1.2704    0.0000 C   0  0  0  0  0  0  0  0  0  0  0  0
    3.5798   -1.2704    0.0000 N   0  0  0  0  0  0  0  0  0  0  0  0
    0.2798   -1.2704    0.0000 C   0  0  0  0  0  0  0  0  0  0  0  0
   -0.1327   -1.9848    0.0000 Cl  0  0  0  0  0  0  0  0  0  0  0  0
  1  2  2  0
  1  4  1  0
  3  1  2  0
  4  5  2  0
  4  9  1  0
  5  6  1  0
  6  7  2  0
  7  8  1  0
  7 10  1  0
  8  9  2  0
 11  1  1  0
 12 11  1  0
 12 13  1  0
 12 15  1  1
 13 14  2  0
 13 20  1  0
 15 16  1  0
 16 17  1  0
 17 18  1  0
 18 19  1  0
 20 21  1  0
M  END
>  <DRUGBANK_ID>  (1) 
DB08603

>  <COMMON_NAME>  (1) 
N-[(1S)-5-amino-1-(chloroacetyl)pentyl]-4-methylbenzenesulfonamide

$$$$
