
     RDKit          2D

 17 17  0  0  0  0  0  0  0  0999 V2000
    0.0145   -0.6229    0.0000 C   0  0  0  0  0  0  0  0  0  0  0  0
    0.0145   -1.4479    0.0000 C   0  0  0  0  0  0  0  0  0  0  0  0
    0.7267   -1.8564    0.0000 C   0  0  0  0  0  0  0  0  0  0  0  0
    1.4387   -1.4479    0.0000 C   0  0  0  0  0  0  0  0  0  0  0  0
    1.4387   -0.6229    0.0000 C   0  0  0  0  0  0  0  0  0  0  0  0
    0.7267   -0.2062    0.0000 C   0  0  0  0  0  0  0  0  0  0  0  0
   -0.7022   -1.8564    0.0000 C   0  0  0  0  0  0  0  0  0  0  0  0
    2.1480   -0.2062    0.0000 C   0  0  0  0  0  0  0  0  0  0  0  0
    2.1439    0.6188    0.0000 C   0  0  0  0  0  0  0  0  0  0  0  0
    2.8607   -0.6188    0.0000 C   0  0  0  0  0  0  0  0  0  0  0  0
    0.7267    0.6188    0.0000 O   0  0  0  0  0  0  0  0  0  0  0  0
    0.0062    1.0313    0.0000 C   0  0  0  0  0  0  0  0  0  0  0  0
    0.0033    1.8564    0.0000 O   0  0  0  0  0  0  0  0  0  0  0  0
   -0.7069    0.6163    0.0000 C   0  0  0  0  0  0  0  0  0  0  0  0
   -1.4272    1.0313    0.0000 O   0  0  0  0  0  0  0  0  0  0  0  0
   -2.1439    0.6230    0.0000 C   0  0  0  0  0  0  0  0  0  0  0  0
   -2.8607    1.0355    0.0000 C   0  0  0  0  0  0  0  0  0  0  0  0
  1  2  1  0
  1  6  1  0
  2  7  1  1
  2  3  1  0
  3  4  1  0
  4  5  1  0
  5  6  1  0
  5  8  1  6
  6 11  1  1
  8  9  1  0
  8 10  1  0
 11 12  1  0
 12 13  2  0
 12 14  1  0
 14 15  1  0
 15 16  1  0
 16 17  1  0
M  END
>  <DRUGBANK_ID>  (1) 
DB15983

>  <COMMON_NAME>  (1) 
Menglytate

>  <CAS_NUMBER>  (1) 
579-94-2

>  <UNII>  (1) 
C3B9R0E116

>  <SYNONYMS>  (1) 
Menglitato; Menglytate; Menglytatum; Menthol ethylglycolate

$$$$
