
     RDKit          2D

 18 18  0  0  0  0  0  0  0  0999 V2000
   14.9839  -13.3590    0.0000 C   0  0  0  0  0  0  0  0  0  0  0  0
   14.9839  -12.5340    0.0000 C   0  0  0  0  0  0  0  0  0  0  0  0
   14.2693  -12.1215    0.0000 O   0  0  0  0  0  0  0  0  0  0  0  0
   14.2693  -11.2965    0.0000 P   0  0  0  0  0  0  0  0  0  0  0  0
   14.2693  -10.4715    0.0000 O   0  0  0  0  0  0  0  0  0  0  0  0
   15.0943  -11.2965    0.0000 O   0  0  0  0  0  0  0  0  0  0  0  0
   15.5068  -12.0104    0.0000 C   0  0  0  0  0  0  0  0  0  0  0  0
   16.3318  -12.0104    0.0000 C   0  0  0  0  0  0  0  0  0  0  0  0
   13.4442  -11.2965    0.0000 O   0  0  0  0  0  0  0  0  0  0  0  0
   13.0317  -10.5819    0.0000 C   0  0  0  0  0  0  0  0  0  0  0  0
   13.4442   -9.8672    0.0000 C   0  0  0  0  0  0  0  0  0  0  0  0
   13.0317   -9.1527    0.0000 C   0  0  0  0  0  0  0  0  0  0  0  0
   12.2067   -9.1527    0.0000 C   0  0  0  0  0  0  0  0  0  0  0  0
   11.7942   -9.8672    0.0000 C   0  0  0  0  0  0  0  0  0  0  0  0
   12.2067  -10.5819    0.0000 C   0  0  0  0  0  0  0  0  0  0  0  0
   11.7942   -8.4381    0.0000 N   0  0  0  0  0  0  0  0  0  0  0  0
   12.2067   -7.7241    0.0000 O   0  0  0  0  0  0  0  0  0  0  0  0
   10.9692   -8.4381    0.0000 O   0  0  0  0  0  0  0  0  0  0  0  0
  1  2  1  0
  2  3  1  0
  3  4  1  0
  4  5  2  0
  4  6  1  0
  4  9  1  0
  6  7  1  0
  7  8  1  0
  9 10  1  0
 10 11  2  0
 10 15  1  0
 11 12  1  0
 12 13  2  0
 13 14  1  0
 13 16  1  0
 14 15  2  0
 16 17  1  0
 16 18  2  0
M  CHG  2  16   1  17  -1
M  END
>  <DRUGBANK_ID>  (1) 
DB13495

>  <COMMON_NAME>  (1) 
Paraoxon

>  <CAS_NUMBER>  (1) 
311-45-5

>  <UNII>  (1) 
Q9CX8P80JW

$$$$
