
     RDKit          2D

 22 24  0  0  1  0  0  0  0  0999 V2000
    0.4929    2.6585    0.0000 C   0  0  0  0  0  0  0  0  0  0  0  0
   -0.0592    1.7023    0.0000 C   0  0  0  0  0  0  0  0  0  0  0  0
    2.8785    0.1674    0.0000 C   0  0  0  0  0  0  0  0  0  0  0  0
    1.1561    0.2144    0.0000 C   0  0  0  0  0  0  0  0  0  0  0  0
    3.2910    0.8818    0.0000 C   0  0  0  0  0  0  0  0  0  0  0  0
    2.8785    1.5963    0.0000 C   0  0  0  0  0  0  0  0  0  0  0  0
    2.0535    1.5963    0.0000 C   0  0  0  0  0  0  0  0  0  0  0  0
    0.7478    1.8738    0.0000 C   0  0  0  0  0  0  0  0  0  0  0  0
    1.6410    0.8818    0.0000 C   0  0  0  0  0  0  0  0  0  0  0  0
   -0.6342   -1.0343    0.0000 N   0  0  0  0  0  0  0  0  0  0  0  0
    0.5181   -0.8517    0.0000 O   0  0  0  0  0  0  0  0  0  0  0  0
   -0.8167    0.1181    0.0000 O   0  0  0  0  0  0  0  0  0  0  0  0
    4.9912    1.7023    0.0000 O   0  0  0  0  0  0  0  0  0  0  0  0
    4.4392    2.6585    0.0000 O   0  0  0  0  0  0  0  0  0  0  0  0
    2.0535    0.1674    0.0000 O   0  0  0  0  0  0  0  0  0  0  0  0
    0.3356    0.3006    0.0000 O   0  0  0  0  0  0  0  0  0  0  0  0
    1.5015    2.2094    0.0000 O   0  0  0  0  0  0  0  0  0  0  0  0
    4.0980    1.0534    0.0000 O   0  0  0  0  0  0  0  0  0  0  0  0
    3.4306    2.2094    0.0000 O   0  0  0  0  0  0  0  0  0  0  0  0
    0.8341    1.0534    0.0000 O   0  0  0  0  0  0  0  0  0  0  0  0
   -0.1493   -0.3668    0.0000 S   0  0  0  0  0  0  0  0  0  0  0  0
    4.1842    1.8738    0.0000 S   0  0  0  0  0  0  0  0  0  0  0  0
  5  3  1  6
  6  5  1  0
  7  6  1  0
  8  1  1  0
  8  2  1  0
  9  4  1  6
  9  7  1  0
 15  3  1  0
 15  9  1  0
 16  4  1  0
  7 17  1  1
 17  8  1  0
 18  5  1  0
  6 19  1  6
 20  8  1  0
 20  9  1  0
 21 10  1  0
 21 11  2  0
 21 12  2  0
 21 16  1  0
 22 13  2  0
 22 14  2  0
 22 18  1  0
 22 19  1  0
M  END
>  <DRUGBANK_ID>  (1) 
DB02894

>  <SECONDARY_ACCESSION_NUMBERS>  (1) 
EXPT02924

>  <COMMON_NAME>  (1) 
Sulfamic Acid 2,3-O-(1-Methylethylidene)-4,5-O-Sulfonyl-Beta-Fructopyranose Ester

$$$$
