
     RDKit          2D

 44 49  0  0  0  0  0  0  0  0999 V2000
    2.0701   -6.3146    0.0000 C   0  0  0  0  0  0  0  0  0  0  0  0
    2.7845   -6.7271    0.0000 C   0  0  0  0  0  0  0  0  0  0  0  0
    2.7845   -7.5521    0.0000 C   0  0  0  0  0  0  0  0  0  0  0  0
    3.4990   -6.3146    0.0000 O   0  0  0  0  0  0  0  0  0  0  0  0
    3.4990   -5.4896    0.0000 C   0  0  0  0  0  0  0  0  0  0  0  0
    2.7845   -5.0771    0.0000 C   0  0  0  0  0  0  0  0  0  0  0  0
    2.7845   -4.2521    0.0000 C   0  0  0  0  0  0  0  0  0  0  0  0
    3.4990   -3.8396    0.0000 C   0  0  0  0  0  0  0  0  0  0  0  0
    3.4990   -3.0146    0.0000 C   0  0  0  0  0  0  0  0  0  0  0  0
    4.2135   -2.6021    0.0000 O   0  0  0  0  0  0  0  0  0  0  0  0
    2.7845   -2.6021    0.0000 N   0  0  0  0  0  0  0  0  0  0  0  0
    2.7845   -1.7771    0.0000 C   0  0  0  0  0  0  0  0  0  0  0  0
    3.4990   -1.3646    0.0000 C   0  0  0  0  0  0  0  0  0  0  0  0
    3.4990   -0.5396    0.0000 C   0  0  0  0  0  0  0  0  0  0  0  0
    2.7845   -0.1271    0.0000 C   0  0  0  0  0  0  0  0  0  0  0  0
    2.7845    0.6979    0.0000 O   0  0  0  0  0  0  0  0  0  0  0  0
    2.0701    1.1104    0.0000 C   0  0  0  0  0  0  0  0  0  0  0  0
    1.3556    0.6979    0.0000 C   0  0  0  0  0  0  0  0  0  0  0  0
    0.6411    1.1104    0.0000 C   0  0  0  0  0  0  0  0  0  0  0  0
   -0.1435    0.8555    0.0000 C   0  0  0  0  0  0  0  0  0  0  0  0
   -0.6284    1.5229    0.0000 N   0  0  0  0  0  0  0  0  0  0  0  0
   -0.1435    2.1904    0.0000 N   0  0  0  0  0  0  0  0  0  0  0  0
   -0.3984    2.9750    0.0000 C   0  0  0  0  0  0  0  0  0  0  0  0
    0.6411    1.9354    0.0000 C   0  0  0  0  0  0  0  0  0  0  0  0
    1.3556    2.3479    0.0000 C   0  0  0  0  0  0  0  0  0  0  0  0
    2.0701    1.9354    0.0000 C   0  0  0  0  0  0  0  0  0  0  0  0
    2.7845    2.3479    0.0000 C   0  0  0  0  0  0  0  0  0  0  0  0
    2.8708    3.1684    0.0000 C   0  0  0  0  0  0  0  0  0  0  0  0
    3.6777    3.3400    0.0000 N   0  0  0  0  0  0  0  0  0  0  0  0
    4.0902    2.6255    0.0000 N   0  0  0  0  0  0  0  0  0  0  0  0
    3.5382    2.0124    0.0000 C   0  0  0  0  0  0  0  0  0  0  0  0
    2.0701   -0.5396    0.0000 C   0  0  0  0  0  0  0  0  0  0  0  0
    1.3556   -0.1271    0.0000 F   0  0  0  0  0  0  0  0  0  0  0  0
    2.0701   -1.3646    0.0000 C   0  0  0  0  0  0  0  0  0  0  0  0
    4.2135   -4.2521    0.0000 C   0  0  0  0  0  0  0  0  0  0  0  0
    4.9279   -3.8396    0.0000 O   0  0  0  0  0  0  0  0  0  0  0  0
    4.2135   -5.0771    0.0000 N   0  0  0  0  0  0  0  0  0  0  0  0
    4.9279   -5.4896    0.0000 C   0  0  0  0  0  0  0  0  0  0  0  0
    5.6424   -5.0771    0.0000 C   0  0  0  0  0  0  0  0  0  0  0  0
    6.3569   -5.4896    0.0000 C   0  0  0  0  0  0  0  0  0  0  0  0
    6.3569   -6.3146    0.0000 C   0  0  0  0  0  0  0  0  0  0  0  0
    7.0714   -6.7271    0.0000 F   0  0  0  0  0  0  0  0  0  0  0  0
    5.6424   -6.7271    0.0000 C   0  0  0  0  0  0  0  0  0  0  0  0
    4.9279   -6.3146    0.0000 C   0  0  0  0  0  0  0  0  0  0  0  0
  1  2  1  0
  2  3  1  0
  2  4  1  0
  4  5  1  0
  5  6  2  0
  5 37  1  0
  6  7  1  0
  7  8  2  0
  8  9  1  0
  8 35  1  0
  9 10  2  0
  9 11  1  0
 11 12  1  0
 12 13  2  0
 12 34  1  0
 13 14  1  0
 14 15  2  0
 15 16  1  0
 15 32  1  0
 16 17  1  0
 17 18  2  0
 17 26  1  0
 18 19  1  0
 19 20  1  0
 19 24  2  0
 20 21  2  0
 21 22  1  0
 22 23  1  0
 22 24  1  0
 24 25  1  0
 25 26  2  0
 26 27  1  0
 27 28  1  0
 27 31  2  0
 28 29  2  0
 29 30  1  0
 30 31  1  0
 32 33  1  0
 32 34  2  0
 35 36  2  0
 35 37  1  0
 37 38  1  0
 38 39  2  0
 38 44  1  0
 39 40  1  0
 40 41  2  0
 41 42  1  0
 41 43  1  0
 43 44  2  0
M  END
>  <DRUGBANK_ID>  (1) 
DB18306

>  <COMMON_NAME>  (1) 
TSN-084

>  <CAS_NUMBER>  (1) 
2412309-60-3

>  <UNII>  (1) 
9FJ3MBL7XW

>  <SYNONYMS>  (1) 
3-PYRIDINECARBOXAMIDE, N-(3-FLUORO-4-((1-METHYL-6-(1H-PYRAZOL-4-YL)-1H-INDAZOL-5-YL)OXY)PHENYL)-1-(4-FLUOROPHENYL)-1,2-DIHYDRO-6-(1-METHYLETHOXY)-2-OXO-; N-[3-fluoro-4-[[1-methyl-6-(1H-pyrazol-4-yl)-1H-indazol-5-yl]oxy]phenyl]-1-(4-fluorophenyl)-1,2-dihydro-6-(1-methylethoxy)-2-oxo-3-pyridinecarboxamide

$$$$
