
     RDKit          2D

 12 13  0  0  0  0  0  0  0  0999 V2000
    1.7861    1.2375    0.0000 O   0  0  0  0  0  0  0  0  0  0  0  0
    1.0717    0.8250    0.0000 Bi  0  0  0  0  0  3  0  0  0  0  0  0
    1.0717    0.0000    0.0000 O   0  0  0  0  0  0  0  0  0  0  0  0
    0.3572   -0.4125    0.0000 C   0  0  0  0  0  0  0  0  0  0  0  0
    0.3572   -1.2375    0.0000 O   0  0  0  0  0  0  0  0  0  0  0  0
   -0.3572    0.0000    0.0000 C   0  0  0  0  0  0  0  0  0  0  0  0
   -1.0717   -0.4125    0.0000 C   0  0  0  0  0  0  0  0  0  0  0  0
   -1.7861    0.0000    0.0000 C   0  0  0  0  0  0  0  0  0  0  0  0
   -1.7861    0.8250    0.0000 C   0  0  0  0  0  0  0  0  0  0  0  0
   -1.0717    1.2375    0.0000 C   0  0  0  0  0  0  0  0  0  0  0  0
   -0.3572    0.8250    0.0000 C   0  0  0  0  0  0  0  0  0  0  0  0
    0.3572    1.2375    0.0000 O   0  0  0  0  0  0  0  0  0  0  0  0
  1  2  1  0
  2  3  1  0
  2 12  1  0
  3  4  1  0
  4  5  2  0
  4  6  1  0
  6  7  1  0
  6 11  2  0
  7  8  2  0
  8  9  1  0
  9 10  2  0
 10 11  1  0
 11 12  1  0
M  END
>  <DRUGBANK_ID>  (1) 
DB01294

>  <SECONDARY_ACCESSION_NUMBERS>  (1) 
DB01402

>  <COMMON_NAME>  (1) 
Bismuth subsalicylate

>  <CAS_NUMBER>  (1) 
14882-18-9

>  <UNII>  (1) 
62TEY51RR1

>  <SYNONYMS>  (1) 
2-Hydroxy-benzo[1,3,2]dioxabismin-4-one; Basic bismuth salicylate; Bismuth oxide salicylate; Bismuth oxysalicylate; Bismuth subsalicylate; Pink bismuth; Wismutsubsalicylat

$$$$
