
     RDKit          2D

 42 47  0  0  0  0  0  0  0  0999 V2000
   -0.5837   -1.4124    0.0000 C   0  0  0  0  0  0  0  0  0  0  0  0
   -0.1712   -0.6979    0.0000 C   0  0  0  0  0  0  0  0  0  0  0  0
    0.6538   -0.6979    0.0000 C   0  0  0  0  0  0  0  0  0  0  0  0
    1.1387   -0.0305    0.0000 C   0  0  0  0  0  0  0  0  0  0  0  0
    0.8838    0.7541    0.0000 N   0  0  0  0  0  0  0  0  0  0  0  0
    1.4358    1.3672    0.0000 C   0  0  0  0  0  0  0  0  0  0  0  0
    0.0768    0.9256    0.0000 C   0  0  0  0  0  0  0  0  0  0  0  0
   -0.5363    0.3736    0.0000 N   0  0  0  0  0  0  0  0  0  0  0  0
   -1.2508    0.7861    0.0000 C   0  0  0  0  0  0  0  0  0  0  0  0
   -1.0792    1.5931    0.0000 C   0  0  0  0  0  0  0  0  0  0  0  0
   -0.2587    1.6793    0.0000 S   0  0  0  0  0  0  0  0  0  0  0  0
   -1.6313    2.2062    0.0000 C   0  0  0  0  0  0  0  0  0  0  0  0
   -2.1833    2.8193    0.0000 N   0  0  0  0  0  0  0  0  0  0  0  0
   -2.0044    0.4506    0.0000 C   0  0  0  0  0  0  0  0  0  0  0  0
   -2.0907   -0.3699    0.0000 C   0  0  0  0  0  0  0  0  0  0  0  0
   -2.8443   -0.7055    0.0000 C   0  0  0  0  0  0  0  0  0  0  0  0
   -3.5118   -0.2206    0.0000 C   0  0  0  0  0  0  0  0  0  0  0  0
   -4.2655   -0.5561    0.0000 F   0  0  0  0  0  0  0  0  0  0  0  0
   -3.4255    0.5999    0.0000 C   0  0  0  0  0  0  0  0  0  0  0  0
   -2.6719    0.9355    0.0000 C   0  0  0  0  0  0  0  0  0  0  0  0
    1.9233   -0.2854    0.0000 N   0  0  0  0  0  0  0  0  0  0  0  0
    2.6378    0.1271    0.0000 C   0  0  0  0  0  0  0  0  0  0  0  0
    3.3523   -0.2854    0.0000 C   0  0  0  0  0  0  0  0  0  0  0  0
    3.3523   -1.1104    0.0000 C   0  0  0  0  0  0  0  0  0  0  0  0
    2.6378   -1.5229    0.0000 C   0  0  0  0  0  0  0  0  0  0  0  0
    2.6378   -2.3479    0.0000 C   0  0  0  0  0  0  0  0  0  0  0  0
    1.9233   -1.1104    0.0000 C   0  0  0  0  0  0  0  0  0  0  0  0
    1.1387   -1.3654    0.0000 N   0  0  0  0  0  0  0  0  0  0  0  0
    4.0668    0.1271    0.0000 N   0  0  0  0  0  0  0  0  0  0  0  0
    4.0668    0.9521    0.0000 C   0  0  0  0  0  0  0  0  0  0  0  0
    4.7812    1.3646    0.0000 C   0  0  0  0  0  0  0  0  0  0  0  0
    5.4957    0.9521    0.0000 N   0  0  0  0  0  0  0  0  0  0  0  0
    6.2102    1.3646    0.0000 C   0  0  0  0  0  0  0  0  0  0  0  0
    6.2102    2.1896    0.0000 C   0  0  0  0  0  0  0  0  0  0  0  0
    5.4957    2.6021    0.0000 O   0  0  0  0  0  0  0  0  0  0  0  0
    6.9246    2.6021    0.0000 N   0  0  0  0  0  0  0  0  0  0  0  0
    7.1382    3.3989    0.0000 C   0  0  0  0  0  0  0  0  0  0  0  0
    7.9351    3.1854    0.0000 C   0  0  0  0  0  0  0  0  0  0  0  0
    8.6495    3.5979    0.0000 O   0  0  0  0  0  0  0  0  0  0  0  0
    7.7215    2.3885    0.0000 C   0  0  0  0  0  0  0  0  0  0  0  0
    5.4957    0.1271    0.0000 C   0  0  0  0  0  0  0  0  0  0  0  0
    4.7812   -0.2854    0.0000 C   0  0  0  0  0  0  0  0  0  0  0  0
  1  2  1  0
  2  3  1  0
  3  4  2  0
  3 28  1  0
  4  5  1  0
  4 21  1  0
  5  6  1  0
  5  7  1  0
  7  8  2  0
  7 11  1  0
  8  9  1  0
  9 10  2  0
  9 14  1  0
 10 11  1  0
 10 12  1  0
 12 13  3  0
 14 15  2  0
 14 20  1  0
 15 16  1  0
 16 17  2  0
 17 18  1  0
 17 19  1  0
 19 20  2  0
 21 22  1  0
 21 27  1  0
 22 23  2  0
 23 24  1  0
 23 29  1  0
 24 25  2  0
 25 26  1  0
 25 27  1  0
 27 28  2  0
 29 30  1  0
 29 42  1  0
 30 31  1  0
 31 32  1  0
 32 33  1  0
 32 41  1  0
 33 34  1  0
 34 35  2  0
 34 36  1  0
 36 37  1  0
 36 40  1  0
 37 38  1  0
 38 39  1  0
 38 40  1  0
 41 42  1  0
M  END
>  <DRUGBANK_ID>  (1) 
DB15403

>  <COMMON_NAME>  (1) 
Ziritaxestat

>  <CAS_NUMBER>  (1) 
1628260-79-6

>  <UNII>  (1) 
I02418V13W

>  <SYNONYMS>  (1) 
2-((2-ethyl-6-(4-(2-(3-hydroxyazetidin-1-yl)-2-oxoethyl)-piperazin-1-yl)-8-methylimidazo[1,2-a]pyridin-3-yl)-(methyl)amino)-4-(4-fluorophenyl)-thiazole-5-carbonitrile; Ziritaxestat

$$$$
