SYR
     RDKit          2D

 15 15  0  0  0  0  0  0  0  0999 V2000
    1.9783    0.3279    0.0000 O   0  0  0  0  0  0  0  0  0  0  0  0
    1.2639    0.7404    0.0000 C   0  0  0  0  0  0  0  0  0  0  0  0
    1.2639    1.5654    0.0000 O   0  0  0  0  0  0  0  0  0  0  0  0
    1.9783    1.9779    0.0000 C   0  0  0  0  0  0  0  0  0  0  0  0
    0.5494    0.3279    0.0000 C   0  0  0  0  0  0  0  0  0  0  0  0
    0.5494   -0.4971    0.0000 C   0  0  0  0  0  0  0  0  0  0  0  0
   -0.1651   -0.9096    0.0000 C   0  0  0  0  0  0  0  0  0  0  0  0
   -0.1651   -1.7346    0.0000 O   0  0  0  0  0  0  0  0  0  0  0  0
    0.5494   -2.1471    0.0000 C   0  0  0  0  0  0  0  0  0  0  0  0
   -0.1651    0.7404    0.0000 C   0  0  0  0  0  0  0  0  0  0  0  0
   -0.8796    0.3279    0.0000 C   0  0  0  0  0  0  0  0  0  0  0  0
   -1.5940    0.7404    0.0000 O   0  0  0  0  0  0  0  0  0  0  0  0
   -2.3085    0.3279    0.0000 C   0  0  0  0  0  0  0  0  0  0  0  0
   -0.8796   -0.4971    0.0000 C   0  0  0  0  0  0  0  0  0  0  0  0
   -1.5940   -0.9096    0.0000 O   0  0  0  0  0  0  0  0  0  0  0  0
  1  2  2  0
  2  3  1  0
  2  5  1  0
  3  4  1  0
  5  6  2  0
  5 10  1  0
  6  7  1  0
  7  8  1  0
  7 14  2  0
  8  9  1  0
 10 11  2  0
 11 12  1  0
 11 14  1  0
 12 13  1  0
 14 15  1  0
M  END
>  <DRUGBANK_ID>  (1) 
DB08589

>  <COMMON_NAME>  (1) 
SYRINGATE

>  <UNII>  (1) 
W5A196MP8A

$$$$
