
     RDKit          2D

 21 22  0  0  0  0  0  0  0  0999 V2000
    0.6467    0.0025    0.0000 N   0  0  0  0  0  0  0  0  0  0  0  0
    2.0988    0.2325    0.0000 C   0  0  0  0  0  0  0  0  0  0  0  0
    2.2703   -0.5744    0.0000 O   0  0  0  0  0  0  0  0  0  0  0  0
    1.3142    0.4875    0.0000 C   0  0  0  0  0  0  0  0  0  0  0  0
   -0.0206    0.4875    0.0000 C   0  0  0  0  0  0  0  0  0  0  0  0
    0.2343    1.2722    0.0000 C   0  0  0  0  0  0  0  0  0  0  0  0
    1.0593    1.2721    0.0000 C   0  0  0  0  0  0  0  0  0  0  0  0
    2.7119    0.7845    0.0000 O   0  0  0  0  0  0  0  0  0  0  0  0
    0.6671   -0.8229    0.0000 C   0  0  0  0  0  0  0  0  0  0  0  0
   -0.0438   -1.2413    0.0000 C   0  0  0  0  0  0  0  0  0  0  0  0
    1.3984   -1.2291    0.0000 O   0  0  0  0  0  0  0  0  0  0  0  0
   -0.0438   -2.1027    0.0000 C   0  0  0  0  0  0  0  0  0  0  0  0
   -0.7751   -0.8350    0.0000 C   0  0  0  0  0  0  0  0  0  0  0  0
   -0.7548   -2.5212    0.0000 S   0  0  0  0  0  0  0  0  0  0  0  0
   -0.2504    1.9397    0.0000 S   0  0  0  0  0  0  0  0  0  0  0  0
   -1.0709    1.8536    0.0000 C   0  0  0  0  0  0  0  0  0  0  0  0
   -1.5557    2.5212    0.0000 C   0  0  0  0  0  0  0  0  0  0  0  0
   -1.4066    1.1000    0.0000 C   0  0  0  0  0  0  0  0  0  0  0  0
   -2.3762    2.4351    0.0000 C   0  0  0  0  0  0  0  0  0  0  0  0
   -2.2271    1.0140    0.0000 C   0  0  0  0  0  0  0  0  0  0  0  0
   -2.7119    1.6815    0.0000 C   0  0  0  0  0  0  0  0  0  0  0  0
  1  5  1  0
  1  9  1  0
  2  3  2  0
  4  2  1  1
  4  1  1  0
  4  7  1  0
  5  6  1  0
  6  7  1  0
  6 15  1  1
  8  2  1  0
  9 10  1  0
  9 11  2  0
 10 12  1  0
 10 13  1  1
 12 14  1  0
 15 16  1  0
 17 16  2  0
 18 16  1  0
 19 17  1  0
 20 18  2  0
 21 19  2  0
 21 20  1  0
M  END
>  <DRUGBANK_ID>  (1) 
DB08766

>  <COMMON_NAME>  (1) 
Zofenoprilat

>  <CAS_NUMBER>  (1) 
75176-37-3

>  <UNII>  (1) 
4G4WDK2YBS

>  <SYNONYMS>  (1) 
Zofenoprilat

$$$$
