
     RDKit          2D

 20 23  0  0  0  0  0  0  0  0999 V2000
    2.5976    1.7531    0.0000 O   0  0  0  0  0  0  0  0  0  0  0  0
   -2.7870   -1.7307    0.0000 O   0  0  0  0  0  0  0  0  0  0  0  0
    1.5218   -0.1198    0.0000 C   0  0  0  0  0  0  0  0  0  0  0  0
    0.8139   -0.5268    0.0000 C   0  0  0  0  0  0  0  0  0  0  0  0
    1.5218    0.7052    0.0000 C   0  0  0  0  0  0  0  0  0  0  0  0
    0.1004   -0.1031    0.0000 C   0  0  0  0  0  0  0  0  0  0  0  0
    2.3188    0.9670    0.0000 C   0  0  0  0  0  0  0  0  0  0  0  0
    2.3188   -0.3817    0.0000 C   0  0  0  0  0  0  0  0  0  0  0  0
   -0.6187   -0.5211    0.0000 C   0  0  0  0  0  0  0  0  0  0  0  0
    0.8139    1.1121    0.0000 C   0  0  0  0  0  0  0  0  0  0  0  0
    0.8139   -1.3351    0.0000 C   0  0  0  0  0  0  0  0  0  0  0  0
    0.1004    0.7052    0.0000 C   0  0  0  0  0  0  0  0  0  0  0  0
    2.7870    0.3093    0.0000 C   0  0  0  0  0  0  0  0  0  0  0  0
   -0.6187   -1.3462    0.0000 C   0  0  0  0  0  0  0  0  0  0  0  0
    1.5218    1.5301    0.0000 C   0  0  0  0  0  0  0  0  0  0  0  0
    0.1004   -1.7531    0.0000 C   0  0  0  0  0  0  0  0  0  0  0  0
   -1.3433   -0.1031    0.0000 C   0  0  0  0  0  0  0  0  0  0  0  0
   -1.3433   -1.7531    0.0000 C   0  0  0  0  0  0  0  0  0  0  0  0
   -2.0513   -1.3351    0.0000 C   0  0  0  0  0  0  0  0  0  0  0  0
   -2.0513   -0.5268    0.0000 C   0  0  0  0  0  0  0  0  0  0  0  0
  2 19  2  0
  3  4  1  0
  3  5  1  0
  3  8  1  1
  4  6  1  0
  4 11  1  6
  5  7  1  0
  5 10  1  0
  5 15  1  1
  6  9  2  0
  6 12  1  0
  7  1  1  1
  7 13  1  0
  8 13  1  0
  9 14  1  0
  9 17  1  0
 10 12  2  0
 11 16  1  0
 14 16  1  0
 14 18  2  0
 17 20  1  0
 18 19  1  0
 19 20  1  0
M  END
>  <DRUGBANK_ID>  (1) 
DB11551

>  <COMMON_NAME>  (1) 
Trenbolone

>  <CAS_NUMBER>  (1) 
10161-33-8

>  <UNII>  (1) 
P53R4420TR

>  <SYNONYMS>  (1) 
17-b-Hydroxyestra-4,9,11-trien-3-one; 17-beta-Hydroxyestra-4,9,11-trien-3-one; 17-Î²-hydroxyestra-4,9,11-trien-3-one; Trenbolone

$$$$
