
     RDKit          2D

 32 35  0  0  1  0  0  0  0  0999 V2000
  -10.5619    0.1594    0.0000 C   0  0  0  0  0  0  0  0  0  0  0  0
   -9.8474    0.5719    0.0000 C   0  0  0  0  0  0  0  0  0  0  0  0
   -9.0937    0.2363    0.0000 C   0  0  0  0  0  0  0  0  0  0  0  0
   -8.5417    0.8494    0.0000 C   0  0  0  0  0  0  0  0  0  0  0  0
   -8.9542    1.5639    0.0000 C   0  0  0  0  0  0  0  0  0  0  0  0
   -9.7612    1.3924    0.0000 N   0  0  0  0  0  0  0  0  0  0  0  0
   -8.5417    2.2784    0.0000 C   0  0  0  0  0  0  0  0  0  0  0  0
   -7.7167    2.2784    0.0000 C   0  0  0  0  0  0  0  0  0  0  0  0
   -7.3042    1.5639    0.0000 C   0  0  0  0  0  0  0  0  0  0  0  0
   -7.7167    0.8494    0.0000 C   0  0  0  0  0  0  0  0  0  0  0  0
   -7.3042    0.1350    0.0000 F   0  0  0  0  0  0  0  0  0  0  0  0
   -6.4792    1.5639    0.0000 O   0  0  0  0  0  0  0  0  0  0  0  0
   -6.0667    0.8494    0.0000 C   0  0  0  0  0  0  0  0  0  0  0  0
   -5.2417    0.8494    0.0000 C   0  0  0  0  0  0  0  0  0  0  0  0
   -4.6897    1.4625    0.0000 C   0  0  0  0  0  0  0  0  0  0  0  0
   -3.9360    1.1270    0.0000 C   0  0  0  0  0  0  0  0  0  0  0  0
   -4.0222    0.3065    0.0000 C   0  0  0  0  0  0  0  0  0  0  0  0
   -4.8292    0.1350    0.0000 N   0  0  0  0  0  0  0  0  0  0  0  0
   -5.2417   -0.5795    0.0000 N   0  0  0  0  0  0  0  0  0  0  0  0
   -6.0667   -0.5795    0.0000 C   0  0  0  0  0  0  0  0  0  0  0  0
   -6.4792    0.1350    0.0000 N   0  0  0  0  0  0  0  0  0  0  0  0
   -3.2215    1.5395    0.0000 O   0  0  0  0  0  0  0  0  0  0  0  0
   -2.5070    1.1270    0.0000 C   0  0  0  0  0  0  0  0  0  0  0  0
   -1.7926    1.5395    0.0000 C   0  0  0  0  0  0  0  0  0  0  0  0
   -1.7926    2.3645    0.0000 C   0  0  0  0  0  0  0  0  0  0  0  0
   -1.0781    1.1270    0.0000 O   0  0  0  0  0  0  0  0  0  0  0  0
   -0.3636    1.5395    0.0000 C   0  0  0  0  0  0  0  0  0  0  0  0
   -0.3636    2.3645    0.0000 O   0  0  0  0  0  0  0  0  0  0  0  0
    0.3508    1.1270    0.0000 C   0  0  0  0  0  0  0  0  0  0  0  0
    1.0653    1.5395    0.0000 C   0  0  0  0  0  0  0  0  0  0  0  0
    0.3508    0.3020    0.0000 N   0  0  0  0  0  0  0  0  0  0  0  0
   -4.8612    2.2695    0.0000 C   0  0  0  0  0  0  0  0  0  0  0  0
  1  2  1  0
  2  3  2  0
  2  6  1  0
  3  4  1  0
  4  5  2  0
  4 10  1  0
  5  6  1  0
  5  7  1  0
  7  8  2  0
  8  9  1  0
  9 10  2  0
  9 12  1  0
 10 11  1  0
 12 13  1  0
 13 14  1  0
 13 21  2  0
 14 15  2  0
 14 18  1  0
 15 16  1  0
 15 32  1  0
 16 17  2  0
 16 22  1  0
 17 18  1  0
 18 19  1  0
 19 20  2  0
 20 21  1  0
 22 23  1  0
 23 24  1  0
 24 25  1  1
 24 26  1  0
 26 27  1  0
 27 28  2  0
 27 29  1  0
 29 30  1  6
 29 31  1  0
M  END
>  <DRUGBANK_ID>  (1) 
DB11865

>  <COMMON_NAME>  (1) 
Brivanib alaninate

>  <CAS_NUMBER>  (1) 
649735-63-7

>  <UNII>  (1) 
U2Y5OFN795

>  <SYNONYMS>  (1) 
Brivanib alaninate

$$$$
