BPD
     RDKit          2D

 30 33  0  0  0  0  0  0  0  0999 V2000
    2.0091   -3.0153    0.0000 F   0  0  0  0  0  0  0  0  0  0  0  0
    1.7071   -1.8883    0.0000 F   0  0  0  0  0  0  0  0  0  0  0  0
    0.8821   -3.3173    0.0000 F   0  0  0  0  0  0  0  0  0  0  0  0
   -0.1343    1.5222    0.0000 O   0  0  0  0  0  0  0  0  0  0  0  0
    0.5801    2.7597    0.0000 O   0  0  0  0  0  0  0  0  0  0  0  0
    2.0091    2.7597    0.0000 O   0  0  0  0  0  0  0  0  0  0  0  0
   -0.8488    2.7597    0.0000 O   0  0  0  0  0  0  0  0  0  0  0  0
   -2.2778    2.7597    0.0000 O   0  0  0  0  0  0  0  0  0  0  0  0
   -0.1343   -0.1278    0.0000 N   0  0  0  0  0  0  0  0  0  0  0  0
    1.2946   -2.6028    0.0000 C   0  0  0  0  0  0  0  0  0  0  0  0
    0.5801   -2.1903    0.0000 C   0  0  0  0  0  0  0  0  0  0  0  0
   -0.1343   -2.6028    0.0000 C   0  0  0  0  0  0  0  0  0  0  0  0
   -0.8488   -2.1903    0.0000 C   0  0  0  0  0  0  0  0  0  0  0  0
   -0.8488   -1.3653    0.0000 C   0  0  0  0  0  0  0  0  0  0  0  0
   -0.1343   -0.9528    0.0000 C   0  0  0  0  0  0  0  0  0  0  0  0
    0.5801   -1.3653    0.0000 C   0  0  0  0  0  0  0  0  0  0  0  0
    0.5801    0.2847    0.0000 C   0  0  0  0  0  0  0  0  0  0  0  0
    1.2946   -0.1278    0.0000 C   0  0  0  0  0  0  0  0  0  0  0  0
    2.0091    0.2847    0.0000 C   0  0  0  0  0  0  0  0  0  0  0  0
    2.0091    1.1097    0.0000 C   0  0  0  0  0  0  0  0  0  0  0  0
    1.2946    1.5222    0.0000 C   0  0  0  0  0  0  0  0  0  0  0  0
    0.5801    1.1097    0.0000 C   0  0  0  0  0  0  0  0  0  0  0  0
    1.2946    2.3472    0.0000 C   0  0  0  0  0  0  0  0  0  0  0  0
   -0.8488    0.2847    0.0000 C   0  0  0  0  0  0  0  0  0  0  0  0
   -1.5633   -0.1278    0.0000 C   0  0  0  0  0  0  0  0  0  0  0  0
   -2.2778    0.2847    0.0000 C   0  0  0  0  0  0  0  0  0  0  0  0
   -2.2778    1.1097    0.0000 C   0  0  0  0  0  0  0  0  0  0  0  0
   -1.5633    1.5222    0.0000 C   0  0  0  0  0  0  0  0  0  0  0  0
   -0.8488    1.1097    0.0000 C   0  0  0  0  0  0  0  0  0  0  0  0
   -1.5633    2.3472    0.0000 C   0  0  0  0  0  0  0  0  0  0  0  0
  1 10  1  0
  2 10  1  0
  3 10  1  0
  4 22  1  0
  4 29  1  0
  5 23  2  0
  6 23  1  0
  7 30  2  0
  8 30  1  0
  9 15  1  0
  9 17  1  0
  9 24  1  0
 10 11  1  0
 11 12  2  0
 11 16  1  0
 12 13  1  0
 13 14  2  0
 14 15  1  0
 15 16  2  0
 17 18  2  0
 17 22  1  0
 18 19  1  0
 19 20  2  0
 20 21  1  0
 21 22  2  0
 21 23  1  0
 24 25  1  0
 24 29  2  0
 25 26  2  0
 26 27  1  0
 27 28  2  0
 28 29  1  0
 28 30  1  0
M  END
>  <DRUGBANK_ID>  (1) 
DB02698

>  <SECONDARY_ACCESSION_NUMBERS>  (1) 
EXPT00744

>  <COMMON_NAME>  (1) 
N-(M-Trifluoromethylphenyl) Phenoxazine-4,6-Dicarboxylic Acid

$$$$
