
     RDKit          2D

 17 20  0  0  0  0  0  0  0  0999 V2000
   -1.2200    0.0098    0.0000 N   0  0  0  0  0  0  0  0  0  0  0  0
    1.2348    0.0000    0.0000 N   0  0  0  0  0  0  0  0  0  0  0  0
    0.0147   -0.8116    0.0000 C   0  0  0  0  0  0  0  0  0  0  0  0
    0.0049    0.8609    0.0000 C   0  0  0  0  0  0  0  0  0  0  0  0
   -0.8068   -0.7035    0.0000 C   0  0  0  0  0  0  0  0  0  0  0  0
    0.8166    0.7133    0.0000 C   0  0  0  0  0  0  0  0  0  0  0  0
    0.4132    0.0000    0.0000 C   0  0  0  0  0  0  0  0  0  0  0  0
   -0.8166    0.7133    0.0000 C   0  0  0  0  0  0  0  0  0  0  0  0
    0.8166   -0.7035    0.0000 C   0  0  0  0  0  0  0  0  0  0  0  0
   -1.2150   -1.4216    0.0000 C   0  0  0  0  0  0  0  0  0  0  0  0
    1.2200    1.4216    0.0000 C   0  0  0  0  0  0  0  0  0  0  0  0
   -2.0465    0.0098    0.0000 C   0  0  0  0  0  0  0  0  0  0  0  0
    2.0514    0.0000    0.0000 C   0  0  0  0  0  0  0  0  0  0  0  0
   -2.0465   -1.4216    0.0000 C   0  0  0  0  0  0  0  0  0  0  0  0
    2.0415    1.4216    0.0000 C   0  0  0  0  0  0  0  0  0  0  0  0
   -2.4597   -0.7035    0.0000 C   0  0  0  0  0  0  0  0  0  0  0  0
    2.4597    0.7133    0.0000 C   0  0  0  0  0  0  0  0  0  0  0  0
  1  5  1  0
  1  8  1  0
  1 12  1  0
  2  6  1  0
  2  9  1  0
  2 13  1  0
  3  5  1  0
  3  7  1  0
  3  9  1  1
  4  6  1  0
  4  7  1  0
  4  8  1  1
  5 10  1  6
  6 11  1  6
 10 14  1  0
 11 15  1  0
 12 16  1  0
 13 17  1  0
 14 16  1  0
 15 17  1  0
M  END
>  <DRUGBANK_ID>  (1) 
DB14755

>  <COMMON_NAME>  (1) 
beta-Isosparteine

>  <CAS_NUMBER>  (1) 
24915-04-6

>  <UNII>  (1) 
HPV1ED2WZQ

>  <SYNONYMS>  (1) 
(-)-beta-Isosparteine; (+)-beta-isosparteine; (+)-Î²-isosparteine; Nonalupine

$$$$
