
     RDKit          2D

  9  8  0  0  0  0  0  0  0  0999 V2000
    2.5007    1.0675    0.0000 N   0  0  0  0  0  0  0  0  0  0  0  0
    1.7862    0.6550    0.0000 C   0  0  0  0  0  0  0  0  0  0  0  0
    1.0718    1.0675    0.0000 C   0  0  0  0  0  0  0  0  0  0  0  0
    0.3572    0.6550    0.0000 C   0  0  0  0  0  0  0  0  0  0  0  0
   -0.3571    1.0675    0.0000 C   0  0  0  0  0  0  0  0  0  0  0  0
   -1.0716    0.6550    0.0000 N   0  0  0  0  0  0  0  0  0  0  0  0
   -1.7861    1.0675    0.0000 C   0  0  0  0  0  0  0  0  0  0  0  0
   -2.5006    0.6550    0.0000 N   0  0  0  0  0  0  0  0  0  0  0  0
   -1.7861    1.8925    0.0000 N   0  0  0  0  0  0  0  0  0  0  0  0
  1  2  1  0
  2  3  1  0
  3  4  1  0
  4  5  1  0
  5  6  1  0
  6  7  1  0
  7  8  1  0
  7  9  2  0
M  END
>  <DRUGBANK_ID>  (1) 
DB08838

>  <COMMON_NAME>  (1) 
Agmatine

>  <CAS_NUMBER>  (1) 
306-60-5

>  <UNII>  (1) 
70J407ZL5Q

>  <SYNONYMS>  (1) 
(4-aminobutyl) guanidine; (4-aminobutyl)guanidine; 1-amino-4-guanidobutane; N-(4-aminobutyl)guanidine

$$$$
