1506
     RDKit          2D

 13 14  0  0  0  0  0  0  0  0999 V2000
    2.1615    0.7145    0.0000 N   0  0  0  0  0  0  0  0  0  0  0  0
    2.5741    0.0000    0.0000 C   0  0  0  0  0  0  0  0  0  0  0  0
    3.2885   -0.4125    0.0000 C   0  0  0  0  0  0  0  0  0  0  0  0
    1.8596   -0.4125    0.0000 C   0  0  0  0  0  0  0  0  0  0  0  0
    3.2885   -1.2375    0.0000 C   0  0  0  0  0  0  0  0  0  0  0  0
    1.8596   -1.2375    0.0000 C   0  0  0  0  0  0  0  0  0  0  0  0
    2.5741   -1.6500    0.0000 C   0  0  0  0  0  0  0  0  0  0  0  0
    3.2885    0.4125    0.0000 C   0  0  0  0  0  0  0  0  0  0  0  0
    4.0031    0.0000    0.0000 C   0  0  0  0  0  0  0  0  0  0  0  0
    3.2885    1.2375    0.0000 C   0  0  0  0  0  0  0  0  0  0  0  0
    4.7175    0.4125    0.0000 C   0  0  0  0  0  0  0  0  0  0  0  0
    4.0031    1.6500    0.0000 C   0  0  0  0  0  0  0  0  0  0  0  0
    4.7175    1.2375    0.0000 C   0  0  0  0  0  0  0  0  0  0  0  0
  1  2  1  0
  2  3  1  0
  2  4  1  0
  2  8  1  0
  3  5  1  0
  4  6  1  0
  5  7  1  0
  6  7  1  0
  8  9  2  0
  8 10  1  0
  9 11  1  0
 10 12  2  0
 11 13  2  0
 12 13  1  0
M  END
>  <DRUGBANK_ID>  (1) 
DB01506

>  <COMMON_NAME>  (1) 
1-Phenylcyclohexylamine

>  <CAS_NUMBER>  (1) 
2201-24-3

>  <UNII>  (1) 
HBO2D49I2S

$$$$
