B2F
     RDKit          2D

 12 12  0  0  0  0  0  0  0  0999 V2000
   -0.1554    1.2074    0.0000 N   0  0  0  0  0  0  0  0  0  0  0  0
    0.5591    0.7949    0.0000 C   0  0  0  0  0  0  0  0  0  0  0  0
    0.5591   -0.0301    0.0000 C   0  0  0  0  0  0  0  0  0  0  0  0
   -0.1554   -0.4426    0.0000 C   0  0  0  0  0  0  0  0  0  0  0  0
   -0.1554   -1.2676    0.0000 C   0  0  0  0  0  0  0  0  0  0  0  0
   -0.8699   -0.0301    0.0000 C   0  0  0  0  0  0  0  0  0  0  0  0
   -0.8699   -1.6801    0.0000 C   0  0  0  0  0  0  0  0  0  0  0  0
   -1.5843   -0.4426    0.0000 C   0  0  0  0  0  0  0  0  0  0  0  0
   -1.5843   -1.2676    0.0000 C   0  0  0  0  0  0  0  0  0  0  0  0
    1.2736    1.2074    0.0000 B   0  0  0  0  0  0  0  0  0  0  0  0
    1.2736    2.0324    0.0000 O   0  0  0  0  0  0  0  0  0  0  0  0
    1.9880    0.7949    0.0000 O   0  0  0  0  0  0  0  0  0  0  0  0
  2  1  1  6
  2  3  1  0
  2 10  1  0
  3  4  1  0
  4  5  2  0
  4  6  1  0
  5  7  1  0
  6  8  2  0
  7  9  2  0
  8  9  1  0
 10 11  1  0
 10 12  1  0
M  END
>  <DRUGBANK_ID>  (1) 
DB07411

>  <COMMON_NAME>  (1) 
PHENYLALANINE BORONIC ACID

$$$$
