
     RDKit          2D

 32 36  0  0  0  0  0  0  0  0999 V2000
    4.5928    4.1449    0.0000 C   0  0  0  0  0  0  0  0  0  0  0  0
    1.5704    1.7945    0.0000 C   0  0  0  0  0  0  0  0  0  0  0  0
    5.0776    3.2076    0.0000 C   0  0  0  0  0  0  0  0  0  0  0  0
    6.2637    2.4106    0.0000 C   0  0  0  0  0  0  0  0  0  0  0  0
    4.6175    2.5229    0.0000 C   0  0  0  0  0  0  0  0  0  0  0  0
    5.8035    1.7258    0.0000 C   0  0  0  0  0  0  0  0  0  0  0  0
    4.4230   -0.3284    0.0000 C   0  0  0  0  0  0  0  0  0  0  0  0
    3.6971    1.1534    0.0000 C   0  0  0  0  0  0  0  0  0  0  0  0
    6.3609    3.8362    0.0000 C   0  0  0  0  0  0  0  0  0  0  0  0
    5.1853    4.7190    0.0000 C   0  0  0  0  0  0  0  0  0  0  0  0
    1.7292    0.9850    0.0000 C   0  0  0  0  0  0  0  0  0  0  0  0
    3.5999   -0.2722    0.0000 C   0  0  0  0  0  0  0  0  0  0  0  0
    4.8832    0.3564    0.0000 C   0  0  0  0  0  0  0  0  0  0  0  0
    3.2370    0.4686    0.0000 C   0  0  0  0  0  0  0  0  0  0  0  0
    4.5202    1.0972    0.0000 C   0  0  0  0  0  0  0  0  0  0  0  0
    5.9980    4.5771    0.0000 C   0  0  0  0  0  0  0  0  0  0  0  0
    2.3167   -0.9008    0.0000 C   0  0  0  0  0  0  0  0  0  0  0  0
    3.1397   -0.9570    0.0000 C   0  0  0  0  0  0  0  0  0  0  0  0
    1.9537   -0.1600    0.0000 C   0  0  0  0  0  0  0  0  0  0  0  0
    1.8565   -1.5856    0.0000 C   0  0  0  0  0  0  0  0  0  0  0  0
    5.8099    5.8987    0.0000 C   0  0  0  0  0  0  0  0  0  0  0  0
    5.7062    0.3002    0.0000 F   0  0  0  0  0  0  0  0  0  0  0  0
    5.9007    3.1515    0.0000 N   0  0  0  0  0  0  0  0  0  0  0  0
    4.9804    1.7820    0.0000 N   0  0  0  0  0  0  0  0  0  0  0  0
    2.4139    0.5248    0.0000 N   0  0  0  0  0  0  0  0  0  0  0  0
    3.5027   -1.6979    0.0000 O   0  0  0  0  0  0  0  0  0  0  0  0
    1.0334   -1.5294    0.0000 O   0  0  0  0  0  0  0  0  0  0  0  0
    2.2194   -2.3265    0.0000 O   0  0  0  0  0  0  0  0  0  0  0  0
    5.9518    6.7114    0.0000 O   0  0  0  0  0  0  0  0  0  0  0  0
    5.0691    5.5357    0.0000 O   0  0  0  0  0  0  0  0  0  0  0  0
    6.3840    5.3062    0.0000 O   0  0  0  0  0  0  0  0  0  0  0  0
    1.2690    0.3002    0.0000 S   0  0  0  0  0  0  0  0  0  0  0  0
  5  3  1  0
  6  4  1  0
 10  1  1  0
 11  2  1  0
 12  7  2  0
 13  7  1  0
 14  8  2  0
 14 12  1  0
 15  8  1  0
 15 13  2  0
 16  9  1  0
 16 10  2  0
 18 12  1  0
 18 17  1  0
 19 17  2  0
 20 17  1  0
 22 13  1  0
 23  3  1  0
 23  4  1  0
 23  9  1  0
 24  5  1  0
 24  6  1  0
 24 15  1  0
 25 11  1  0
 25 14  1  0
 25 19  1  0
 26 18  2  0
 27 20  2  0
 28 20  1  0
 29 21  2  0
 30 10  1  0
 30 21  1  0
 31 16  1  0
 31 21  1  0
 32 11  1  0
 32 19  1  0
M  END
>  <DRUGBANK_ID>  (1) 
DB11892

>  <COMMON_NAME>  (1) 
Prulifloxacin

>  <CAS_NUMBER>  (1) 
123447-62-1

>  <UNII>  (1) 
J42298IESW

>  <SYNONYMS>  (1) 
Prulifloxacin

$$$$
