F9F
     RDKit          2D

 22 22  0  0  0  0  0  0  0  0999 V2000
   -2.2914   -0.8599    0.0000 C   0  0  0  0  0  0  0  0  0  0  0  0
   -2.2914   -0.0349    0.0000 C   0  0  0  0  0  0  0  0  0  0  0  0
   -1.5770    0.3776    0.0000 C   0  0  0  0  0  0  0  0  0  0  0  0
   -0.8625   -0.0349    0.0000 C   0  0  0  0  0  0  0  0  0  0  0  0
   -0.8625   -0.8599    0.0000 C   0  0  0  0  0  0  0  0  0  0  0  0
   -1.5770   -1.2724    0.0000 C   0  0  0  0  0  0  0  0  0  0  0  0
   -3.0059   -1.2724    0.0000 O   0  0  0  0  0  0  0  0  0  0  0  0
   -3.0059   -2.0974    0.0000 C   0  0  0  0  0  0  0  0  0  0  0  0
   -3.0059   -2.9224    0.0000 F   0  0  0  0  0  0  0  0  0  0  0  0
   -2.1809   -2.0974    0.0000 F   0  0  0  0  0  0  0  0  0  0  0  0
   -3.8309   -2.0974    0.0000 F   0  0  0  0  0  0  0  0  0  0  0  0
   -0.1480    0.3776    0.0000 S   0  0  0  0  0  0  0  0  0  0  0  0
    0.5664    0.7901    0.0000 N   0  0  0  0  0  0  0  0  0  0  0  0
    1.2809    0.3776    0.0000 C   0  0  0  0  0  0  0  0  0  0  0  0
    1.9954    0.7901    0.0000 C   0  0  0  0  0  0  0  0  0  0  0  0
    2.7099    0.3776    0.0000 O   0  0  0  0  0  0  0  0  0  0  0  0
    3.4243    0.7901    0.0000 P   0  0  0  0  0  0  0  0  0  0  0  0
    4.1388    1.2026    0.0000 O   0  0  0  0  0  0  0  0  0  0  0  0
    3.8368    0.0757    0.0000 O   0  0  0  0  0  0  0  0  0  0  0  0
    3.0118    1.5046    0.0000 O   0  0  0  0  0  0  0  0  0  0  0  0
    0.2645   -0.3368    0.0000 O   0  0  0  0  0  0  0  0  0  0  0  0
   -0.5605    1.0921    0.0000 O   0  0  0  0  0  0  0  0  0  0  0  0
  1  2  2  0
  1  6  1  0
  1  7  1  0
  2  3  1  0
  3  4  2  0
  4  5  1  0
  4 12  1  0
  5  6  2  0
  7  8  1  0
  8  9  1  0
  8 10  1  0
  8 11  1  0
 12 13  1  0
 12 21  2  0
 12 22  2  0
 13 14  1  0
 14 15  1  0
 15 16  1  0
 16 17  1  0
 17 18  1  0
 17 19  2  0
 17 20  1  0
M  END
>  <DRUGBANK_ID>  (1) 
DB07748

>  <COMMON_NAME>  (1) 
2-({[4-(TRIFLUOROMETHOXY)PHENYL]SULFONYL}AMINO)ETHYL DIHYDROGEN PHOSPHATE

$$$$
