PUZ
     RDKit          2D

 27 29  0  0  0  0  0  0  0  0999 V2000
   -4.3829    0.8609    0.0000 C   0  0  0  0  0  0  0  0  0  0  0  0
   -3.6685    0.4484    0.0000 C   0  0  0  0  0  0  0  0  0  0  0  0
   -2.9540    0.0359    0.0000 C   0  0  0  0  0  0  0  0  0  0  0  0
   -2.2395    0.4484    0.0000 C   0  0  0  0  0  0  0  0  0  0  0  0
   -1.5250    0.0359    0.0000 C   0  0  0  0  0  0  0  0  0  0  0  0
   -0.8106    0.4484    0.0000 N   0  0  0  0  0  0  0  0  0  0  0  0
   -0.7243    1.2689    0.0000 C   0  0  0  0  0  0  0  0  0  0  0  0
   -1.2764    1.8820    0.0000 N   0  0  0  0  0  0  0  0  0  0  0  0
    0.0826    1.4404    0.0000 C   0  0  0  0  0  0  0  0  0  0  0  0
    0.3376    2.2251    0.0000 C   0  0  0  0  0  0  0  0  0  0  0  0
    1.1446    2.3966    0.0000 N   0  0  0  0  0  0  0  0  0  0  0  0
   -0.2145    2.8381    0.0000 N   0  0  0  0  0  0  0  0  0  0  0  0
   -1.0214    2.6666    0.0000 C   0  0  0  0  0  0  0  0  0  0  0  0
   -1.5735    3.2797    0.0000 F   0  0  0  0  0  0  0  0  0  0  0  0
    0.4951    0.7260    0.0000 N   0  0  0  0  0  0  0  0  0  0  0  0
   -0.0569    0.1129    0.0000 C   0  0  0  0  0  0  0  0  0  0  0  0
    0.1146   -0.6941    0.0000 C   0  0  0  0  0  0  0  0  0  0  0  0
    0.8993   -0.9490    0.0000 C   0  0  0  0  0  0  0  0  0  0  0  0
    1.5124   -0.3970    0.0000 C   0  0  0  0  0  0  0  0  0  0  0  0
    1.3408    0.4100    0.0000 O   0  0  0  0  0  0  0  0  0  0  0  0
    1.9539    0.9620    0.0000 C   0  0  0  0  0  0  0  0  0  0  0  0
    2.2970   -0.6520    0.0000 C   0  0  0  0  0  0  0  0  0  0  0  0
    2.4685   -1.4589    0.0000 C   0  0  0  0  0  0  0  0  0  0  0  0
    1.8554   -2.0110    0.0000 C   0  0  0  0  0  0  0  0  0  0  0  0
    1.0708   -1.7560    0.0000 C   0  0  0  0  0  0  0  0  0  0  0  0
    2.0269   -2.8179    0.0000 O   0  0  0  0  0  0  0  0  0  0  0  0
    2.8116   -3.0729    0.0000 C   0  0  0  0  0  0  0  0  0  0  0  0
  1  2  3  0
  2  3  1  0
  3  4  1  0
  4  5  1  0
  5  6  1  0
  6  7  1  0
  6 16  1  0
  7  8  2  0
  7  9  1  0
  8 13  1  0
  9 10  2  0
  9 15  1  0
 10 11  1  0
 10 12  1  0
 12 13  2  0
 13 14  1  0
 15 16  2  0
 16 17  1  0
 17 18  1  0
 18 19  2  0
 18 25  1  0
 19 20  1  0
 19 22  1  0
 20 21  1  0
 22 23  2  0
 23 24  1  0
 24 25  2  0
 24 26  1  0
 26 27  1  0
M  END
>  <DRUGBANK_ID>  (1) 
DB03137

>  <SECONDARY_ACCESSION_NUMBERS>  (1) 
EXPT02704

>  <COMMON_NAME>  (1) 
8-(2,5-Dimethoxy-Benzyl)-2-Fluoro-9-Pent-9h-Purin-6-Ylamine

$$$$
