DZ3
     RDKit          2D

 21 22  0  0  0  0  0  0  0  0999 V2000
   -2.5911    1.9966    0.0000 C   0  0  0  0  0  0  0  0  0  0  0  0
   -2.5911    1.1716    0.0000 C   0  0  0  0  0  0  0  0  0  0  0  0
   -1.8767    0.7591    0.0000 C   0  0  0  0  0  0  0  0  0  0  0  0
   -3.3056    0.7591    0.0000 C   0  0  0  0  0  0  0  0  0  0  0  0
   -4.0201    1.1716    0.0000 O   0  0  0  0  0  0  0  0  0  0  0  0
   -3.3056   -0.0659    0.0000 C   0  0  0  0  0  0  0  0  0  0  0  0
   -4.0201   -0.4784    0.0000 C   0  0  0  0  0  0  0  0  0  0  0  0
   -2.5911   -0.4784    0.0000 C   0  0  0  0  0  0  0  0  0  0  0  0
   -1.8767   -0.0659    0.0000 C   0  0  0  0  0  0  0  0  0  0  0  0
   -1.1622   -0.4784    0.0000 C   0  0  0  0  0  0  0  0  0  0  0  0
   -1.1622   -1.3034    0.0000 O   0  0  0  0  0  0  0  0  0  0  0  0
   -0.4477   -0.0659    0.0000 N   0  0  0  0  0  0  0  0  0  0  0  0
    0.2668   -0.4784    0.0000 C   0  0  0  0  0  0  0  0  0  0  0  0
    0.9812   -0.0659    0.0000 C   0  0  0  0  0  0  0  0  0  0  0  0
    1.6957   -0.4784    0.0000 C   0  0  0  0  0  0  0  0  0  0  0  0
    2.4102   -0.0659    0.0000 Br  0  0  0  0  0  0  0  0  0  0  0  0
    1.6957   -1.3034    0.0000 C   0  0  0  0  0  0  0  0  0  0  0  0
    2.4102   -1.7159    0.0000 O   0  0  0  0  0  0  0  0  0  0  0  0
    0.9812   -1.7159    0.0000 C   0  0  0  0  0  0  0  0  0  0  0  0
    0.9812   -2.5409    0.0000 Br  0  0  0  0  0  0  0  0  0  0  0  0
    0.2668   -1.3034    0.0000 C   0  0  0  0  0  0  0  0  0  0  0  0
  1  2  1  0
  2  3  2  0
  2  4  1  0
  3  9  1  0
  4  5  1  0
  4  6  2  0
  6  7  1  0
  6  8  1  0
  8  9  2  0
  9 10  1  0
 10 11  2  0
 10 12  1  0
 12 13  1  0
 13 14  2  0
 13 21  1  0
 14 15  1  0
 15 16  1  0
 15 17  2  0
 17 18  1  0
 17 19  1  0
 19 20  1  0
 19 21  2  0
M  END
>  <DRUGBANK_ID>  (1) 
DB07695

>  <COMMON_NAME>  (1) 
N-(3,5-dibromo-4-hydroxyphenyl)-4-hydroxy-3,5-dimethylbenzamide

>  <UNII>  (1) 
QS55UAN7H7

$$$$
