
     RDKit          2D

 23 24  0  0  0  0  0  0  0  0999 V2000
   -2.2393   -2.2098    0.0000 O   0  0  0  0  0  0  0  0  0  0  0  0
   -2.9538   -2.6223    0.0000 C   0  0  0  0  0  0  0  0  0  0  0  0
   -2.9538   -3.4473    0.0000 C   0  0  0  0  0  0  0  0  0  0  0  0
   -2.2393   -3.8598    0.0000 C   0  0  0  0  0  0  0  0  0  0  0  0
   -1.5248   -3.4473    0.0000 C   0  0  0  0  0  0  0  0  0  0  0  0
   -1.5248   -2.6223    0.0000 C   0  0  0  0  0  0  0  0  0  0  0  0
   -0.8103   -2.2098    0.0000 O   0  0  0  0  0  0  0  0  0  0  0  0
   -0.8103   -3.8598    0.0000 O   0  0  0  0  0  0  0  0  0  0  0  0
   -2.2393   -4.6848    0.0000 O   0  0  0  0  0  0  0  0  0  0  0  0
   -3.6682   -3.8598    0.0000 O   0  0  0  0  0  0  0  0  0  0  0  0
   -3.6682   -2.2098    0.0000 C   0  0  0  0  0  0  0  0  0  0  0  0
   -4.3827   -2.6223    0.0000 O   0  0  0  0  0  0  0  0  0  0  0  0
    0.6186   -0.5598    0.0000 O   0  0  0  0  0  0  0  0  0  0  0  0
   -0.0959   -0.9723    0.0000 C   0  0  0  0  0  0  0  0  0  0  0  0
   -0.0959   -1.7973    0.0000 C   0  0  0  0  0  0  0  0  0  0  0  0
    0.6186   -2.2098    0.0000 C   0  0  0  0  0  0  0  0  0  0  0  0
    1.3331   -1.7973    0.0000 C   0  0  0  0  0  0  0  0  0  0  0  0
    1.3331   -0.9723    0.0000 C   0  0  0  0  0  0  0  0  0  0  0  0
    2.0475   -0.5598    0.0000 O   0  0  0  0  0  0  0  0  0  0  0  0
    2.0475   -2.2098    0.0000 O   0  0  0  0  0  0  0  0  0  0  0  0
    0.6186   -3.0348    0.0000 O   0  0  0  0  0  0  0  0  0  0  0  0
   -0.8103   -0.5598    0.0000 C   0  0  0  0  0  0  0  0  0  0  0  0
   -1.5248   -0.9723    0.0000 O   0  0  0  0  0  0  0  0  0  0  0  0
  1  2  1  0
  1  6  1  0
  2  3  1  0
  2 11  1  1
  3  4  1  0
  3 10  1  6
  4  5  1  0
  4  9  1  1
  5  6  1  0
  5  8  1  1
  6  7  1  1
 11 12  1  0
 13 14  1  0
 13 18  1  0
 14 15  1  0
 14 22  1  1
 15  7  1  6
 15 16  1  0
 16 17  1  0
 16 21  1  1
 17 18  1  0
 17 20  1  1
 18 19  1  1
 22 23  1  0
M  END
>  <DRUGBANK_ID>  (1) 
DB01687

>  <SECONDARY_ACCESSION_NUMBERS>  (1) 
EXPT02103

>  <COMMON_NAME>  (1) 
beta-Mannobiose

>  <SYNONYMS>  (1) 
4-O-β-D-mannopyranosyl-β-D-mannopyranose; β-mannobiose

$$$$
