TSP
     RDKit          2D

 21 22  0  0  0  0  0  0  0  0999 V2000
   -1.0847    2.8750    0.0000 P   0  0  0  0  0  0  0  0  0  0  0  0
   -1.0847    3.7000    0.0000 O   0  0  0  0  0  0  0  0  0  0  0  0
   -1.9097    2.8750    0.0000 O   0  0  0  0  0  0  0  0  0  0  0  0
   -0.2597    2.8750    0.0000 O   0  0  0  0  0  0  0  0  0  0  0  0
   -1.0847    2.0500    0.0000 O   0  0  0  0  0  0  0  0  0  0  0  0
   -0.3702    1.6375    0.0000 C   0  0  0  0  0  0  0  0  0  0  0  0
   -0.3702    0.8125    0.0000 C   0  0  0  0  0  0  0  0  0  0  0  0
    0.2972    0.3276    0.0000 O   0  0  0  0  0  0  0  0  0  0  0  0
   -1.0377    0.3276    0.0000 C   0  0  0  0  0  0  0  0  0  0  0  0
   -1.8223    0.5826    0.0000 S   0  0  0  0  0  0  0  0  0  0  0  0
   -0.7827   -0.4570    0.0000 C   0  0  0  0  0  0  0  0  0  0  0  0
    0.0423   -0.4570    0.0000 C   0  0  0  0  0  0  0  0  0  0  0  0
    0.5272   -1.1244    0.0000 N   0  0  0  0  0  0  0  0  0  0  0  0
    1.3477   -1.0382    0.0000 C   0  0  0  0  0  0  0  0  0  0  0  0
    1.6832   -0.2845    0.0000 O   0  0  0  0  0  0  0  0  0  0  0  0
    1.8326   -1.7056    0.0000 N   0  0  0  0  0  0  0  0  0  0  0  0
    1.4970   -2.4593    0.0000 C   0  0  0  0  0  0  0  0  0  0  0  0
    1.9820   -3.1268    0.0000 O   0  0  0  0  0  0  0  0  0  0  0  0
    0.6766   -2.5456    0.0000 C   0  0  0  0  0  0  0  0  0  0  0  0
    0.3410   -3.2992    0.0000 C   0  0  0  0  0  0  0  0  0  0  0  0
    0.1916   -1.8781    0.0000 C   0  0  0  0  0  0  0  0  0  0  0  0
  1  2  2  0
  1  3  1  0
  1  4  1  0
  1  5  1  0
  5  6  1  0
  7  6  1  1
  7  8  1  0
  7  9  1  0
  8 12  1  0
  9 10  1  6
  9 11  1  0
 11 12  1  0
 12 13  1  1
 13 14  1  0
 13 21  1  0
 14 15  2  0
 14 16  1  0
 16 17  1  0
 17 18  2  0
 17 19  1  0
 19 20  1  0
 19 21  2  0
M  END
>  <DRUGBANK_ID>  (1) 
DB08651

>  <COMMON_NAME>  (1) 
3'-THIO-THYMIDINE-5'-PHOSPHATE

$$$$
