1213
     RDKit          2D

  6  6  0  0  0  0  0  0  0  0999 V2000
    2.3176   -0.7128    0.0000 N   0  0  0  0  0  0  0  0  0  0  0  0
    1.6501   -0.2278    0.0000 N   0  0  0  0  0  0  0  0  0  0  0  0
    2.7301    0.5568    0.0000 C   0  0  0  0  0  0  0  0  0  0  0  0
    2.9850   -0.2278    0.0000 C   0  0  0  0  0  0  0  0  0  0  0  0
    3.2150    1.2243    0.0000 C   0  0  0  0  0  0  0  0  0  0  0  0
    1.9050    0.5568    0.0000 C   0  0  0  0  0  0  0  0  0  0  0  0
  1  2  1  0
  1  4  1  0
  2  6  2  0
  3  4  2  0
  3  5  1  0
  3  6  1  0
M  END
>  <DRUGBANK_ID>  (1) 
DB01213

>  <SECONDARY_ACCESSION_NUMBERS>  (1) 
APRD00985

>  <COMMON_NAME>  (1) 
Fomepizole

>  <CAS_NUMBER>  (1) 
7554-65-6

>  <UNII>  (1) 
83LCM6L2BY

>  <SYNONYMS>  (1) 
4-methylpyrazol; 4-methylpyrazole; Fomepizol; Fomepizole; Fomepizolum

$$$$
