TP3
     RDKit          2D

 29 30  0  0  0  0  0  0  0  0999 V2000
   -4.0513   -1.1244    0.0000 C   0  0  0  0  0  0  0  0  0  0  0  0
   -3.4992   -0.5113    0.0000 C   0  0  0  0  0  0  0  0  0  0  0  0
   -2.7456   -0.8468    0.0000 N   0  0  0  0  0  0  0  0  0  0  0  0
   -2.8318   -1.6673    0.0000 C   0  0  0  0  0  0  0  0  0  0  0  0
   -3.6388   -1.8388    0.0000 C   0  0  0  0  0  0  0  0  0  0  0  0
   -2.2187   -2.2193    0.0000 C   0  0  0  0  0  0  0  0  0  0  0  0
   -2.3902   -3.0263    0.0000 O   0  0  0  0  0  0  0  0  0  0  0  0
   -1.4341   -1.9644    0.0000 O   0  0  0  0  0  0  0  0  0  0  0  0
   -2.0311   -0.4343    0.0000 S   0  0  0  0  0  0  0  0  0  0  0  0
   -1.3166   -0.0218    0.0000 C   0  0  0  0  0  0  0  0  0  0  0  0
   -1.6186   -1.1488    0.0000 O   0  0  0  0  0  0  0  0  0  0  0  0
   -2.4436    0.2802    0.0000 O   0  0  0  0  0  0  0  0  0  0  0  0
   -1.3166    0.8032    0.0000 C   0  0  0  0  0  0  0  0  0  0  0  0
   -0.6021    1.2157    0.0000 C   0  0  0  0  0  0  0  0  0  0  0  0
    0.1123    0.8032    0.0000 C   0  0  0  0  0  0  0  0  0  0  0  0
    0.1123   -0.0218    0.0000 C   0  0  0  0  0  0  0  0  0  0  0  0
   -0.6021   -0.4343    0.0000 C   0  0  0  0  0  0  0  0  0  0  0  0
    0.8268    1.2157    0.0000 C   0  0  0  0  0  0  0  0  0  0  0  0
    1.5413    0.8032    0.0000 N   0  0  0  0  0  0  0  0  0  0  0  0
    2.2557    1.2157    0.0000 C   0  0  0  0  0  0  0  0  0  0  0  0
    2.9702    0.8032    0.0000 C   0  0  0  0  0  0  0  0  0  0  0  0
    3.6847    1.2157    0.0000 C   0  0  0  0  0  0  0  0  0  0  0  0
    4.3992    0.8032    0.0000 C   0  0  0  0  0  0  0  0  0  0  0  0
    0.8268    2.0407    0.0000 O   0  0  0  0  0  0  0  0  0  0  0  0
    2.2557    2.0407    0.0000 C   0  0  0  0  0  0  0  0  0  0  0  0
    2.9702    2.4532    0.0000 O   0  0  0  0  0  0  0  0  0  0  0  0
    1.5413    2.4532    0.0000 O   0  0  0  0  0  0  0  0  0  0  0  0
    5.1136    1.2157    0.0000 O   0  0  0  0  0  0  0  0  0  0  0  0
    4.3992   -0.0218    0.0000 O   0  0  0  0  0  0  0  0  0  0  0  0
  1  2  1  0
  1  5  1  0
  2  3  1  0
  3  4  1  0
  3  9  1  0
  4  5  1  0
  4  6  1  1
  6  7  2  0
  6  8  1  0
  9 10  1  0
  9 11  2  0
  9 12  2  0
 10 13  2  0
 10 17  1  0
 13 14  1  0
 14 15  2  0
 15 16  1  0
 15 18  1  0
 16 17  2  0
 18 19  1  0
 18 24  2  0
 20 19  1  0
 20 21  1  6
 20 25  1  0
 21 22  1  0
 22 23  1  0
 23 28  1  0
 23 29  2  0
 25 26  2  0
 25 27  1  0
M  END
>  <DRUGBANK_ID>  (1) 
DB04503

>  <SECONDARY_ACCESSION_NUMBERS>  (1) 
EXPT03086

>  <COMMON_NAME>  (1) 
Sp-722

$$$$
