
     RDKit          2D

 29 28  0  0  0  0  0  0  0  0999 V2000
    4.7586   -3.5724    0.0000 C   0  0  0  0  0  0  0  0  0  0  0  0
   20.4769   -3.5724    0.0000 C   0  0  0  0  0  0  0  0  0  0  0  0
   20.1749   -4.6993    0.0000 C   0  0  0  0  0  0  0  0  0  0  0  0
   19.3499   -3.2704    0.0000 C   0  0  0  0  0  0  0  0  0  0  0  0
    5.4730   -3.9849    0.0000 C   0  0  0  0  0  0  0  0  0  0  0  0
    6.1875   -3.5724    0.0000 C   0  0  0  0  0  0  0  0  0  0  0  0
    6.9020   -3.9849    0.0000 C   0  0  0  0  0  0  0  0  0  0  0  0
    7.6164   -3.5724    0.0000 C   0  0  0  0  0  0  0  0  0  0  0  0
    8.3309   -3.9849    0.0000 C   0  0  0  0  0  0  0  0  0  0  0  0
    9.0454   -3.5724    0.0000 C   0  0  0  0  0  0  0  0  0  0  0  0
    9.7599   -3.9849    0.0000 C   0  0  0  0  0  0  0  0  0  0  0  0
   10.4743   -3.5724    0.0000 C   0  0  0  0  0  0  0  0  0  0  0  0
   11.1888   -3.9849    0.0000 C   0  0  0  0  0  0  0  0  0  0  0  0
   11.9033   -3.5724    0.0000 C   0  0  0  0  0  0  0  0  0  0  0  0
   19.0480   -4.3974    0.0000 C   0  0  0  0  0  0  0  0  0  0  0  0
   18.3335   -3.9849    0.0000 C   0  0  0  0  0  0  0  0  0  0  0  0
   14.0467   -3.9849    0.0000 C   0  0  0  0  0  0  0  0  0  0  0  0
   15.4756   -3.9849    0.0000 C   0  0  0  0  0  0  0  0  0  0  0  0
   14.7612   -3.5724    0.0000 C   0  0  0  0  0  0  0  0  0  0  0  0
   12.6177   -3.9849    0.0000 C   0  0  0  0  0  0  0  0  0  0  0  0
   19.7624   -3.9849    0.0000 N   0  0  0  0  0  0  0  0  0  0  0  0
   14.7612   -2.7474    0.0000 O   0  0  0  0  0  0  0  0  0  0  0  0
   12.6177   -4.8099    0.0000 O   0  0  0  0  0  0  0  0  0  0  0  0
   16.4921   -4.6993    0.0000 O   0  0  0  0  0  0  0  0  0  0  0  0
   17.3171   -3.2704    0.0000 O   0  0  0  0  0  0  0  0  0  0  0  0
   13.3322   -3.5724    0.0000 O   0  0  0  0  0  0  0  0  0  0  0  0
   17.6190   -4.3974    0.0000 O   0  0  0  0  0  0  0  0  0  0  0  0
   16.1901   -3.5724    0.0000 O   0  0  0  0  0  0  0  0  0  0  0  0
   16.9046   -3.9849    0.0000 P   0  0  0  0  0  0  0  0  0  0  0  0
  5  1  1  0
  6  5  1  0
  7  6  1  0
  8  7  1  0
  9  8  1  0
 10  9  1  0
 11 10  1  0
 12 11  1  0
 13 12  1  0
 14 13  1  0
 16 15  1  0
 19 17  1  0
 19 18  1  0
 20 14  1  0
 21  2  1  0
 21  3  1  0
 21  4  1  0
 21 15  1  0
 22 19  1  0
 23 20  2  0
 26 17  1  0
 26 20  1  0
 27 16  1  0
 28 18  1  0
 29 24  2  0
 29 25  1  0
 29 27  1  0
 29 28  1  0
M  CHG  1  21   1
M  END
>  <DRUGBANK_ID>  (1) 
DB01707

>  <SECONDARY_ACCESSION_NUMBERS>  (1) 
EXPT02003

>  <COMMON_NAME>  (1) 
L-Alfa-Lysophosphatidylcholine, Lauroyl

>  <UNII>  (1) 
V4Z2U6E9RE

$$$$
