
     RDKit          2D

 32 33  0  0  1  0  0  0  0  0999 V2000
    4.4913    8.8490    0.0000 C   0  0  0  0  0  0  0  0  0  0  0  0
    5.2058    9.2615    0.0000 C   0  0  0  0  0  0  0  0  0  0  0  0
    5.9203    8.8490    0.0000 C   0  0  0  0  0  0  0  0  0  0  0  0
    6.6348    9.2615    0.0000 C   0  0  0  0  0  0  0  0  0  0  0  0
    7.3492    8.8490    0.0000 C   0  0  0  0  0  0  0  0  0  0  0  0
    8.0637    9.2615    0.0000 C   0  0  0  0  0  0  0  0  0  0  0  0
    8.7782    8.8490    0.0000 C   0  0  0  0  0  0  0  0  0  0  0  0
   16.4514    7.7878    0.0000 C   0  0  0  0  0  0  0  0  0  0  0  0
   10.9216    9.2615    0.0000 C   0  0  0  0  0  0  0  0  0  0  0  0
   13.4938    9.1845    0.0000 C   0  0  0  0  0  0  0  0  0  0  0  0
   15.7840    8.2727    0.0000 C   0  0  0  0  0  0  0  0  0  0  0  0
   11.6361    8.8490    0.0000 C   0  0  0  0  0  0  0  0  0  0  0  0
    9.4926    9.2615    0.0000 C   0  0  0  0  0  0  0  0  0  0  0  0
   15.8702    9.0932    0.0000 C   0  0  0  0  0  0  0  0  0  0  0  0
   11.7223    8.0285    0.0000 C   0  0  0  0  0  0  0  0  0  0  0  0
   15.2028    9.5781    0.0000 C   0  0  0  0  0  0  0  0  0  0  0  0
   14.4491    9.2426    0.0000 C   0  0  0  0  0  0  0  0  0  0  0  0
   12.5293    7.8570    0.0000 C   0  0  0  0  0  0  0  0  0  0  0  0
   14.3629    8.4221    0.0000 C   0  0  0  0  0  0  0  0  0  0  0  0
   12.9418    8.5714    0.0000 C   0  0  0  0  0  0  0  0  0  0  0  0
   17.2051    8.1233    0.0000 O   0  0  0  0  0  0  0  0  0  0  0  0
   13.2389    9.9692    0.0000 O   0  0  0  0  0  0  0  0  0  0  0  0
    9.4926   10.0865    0.0000 O   0  0  0  0  0  0  0  0  0  0  0  0
   16.6239    9.4287    0.0000 O   0  0  0  0  0  0  0  0  0  0  0  0
   11.1092    7.4765    0.0000 O   0  0  0  0  0  0  0  0  0  0  0  0
   15.2890   10.3986    0.0000 O   0  0  0  0  0  0  0  0  0  0  0  0
   13.7817    9.7275    0.0000 O   0  0  0  0  0  0  0  0  0  0  0  0
   12.8648    7.1033    0.0000 O   0  0  0  0  0  0  0  0  0  0  0  0
   10.2071    8.8490    0.0000 O   0  0  0  0  0  0  0  0  0  0  0  0
   15.0303    7.9372    0.0000 O   0  0  0  0  0  0  0  0  0  0  0  0
   12.3897    9.1845    0.0000 O   0  0  0  0  0  0  0  0  0  0  0  0
   13.6092    8.0865    0.0000 O   0  0  0  0  0  0  0  0  0  0  0  0
  2  1  1  0
  3  2  1  0
  4  3  1  0
  5  4  1  0
  6  5  1  0
  7  6  1  0
 11  8  1  1
 12  9  1  1
 13  7  1  0
 14 11  1  0
 14 24  1  6
 15 12  1  0
 15 25  1  6
 16 14  1  0
 16 26  1  1
 17 16  1  0
 17 27  1  6
 18 15  1  0
 18 28  1  1
 19 17  1  0
 19 32  1  6
 20 10  1  6
 20 18  1  0
 20 32  1  0
 21  8  1  0
 22 10  1  0
 23 13  2  0
 29  9  1  0
 29 13  1  0
 30 11  1  0
 30 19  1  0
 31 12  1  0
 31 20  1  0
M  END
>  <DRUGBANK_ID>  (1) 
DB03190

>  <SECONDARY_ACCESSION_NUMBERS>  (1) 
EXPT02451

>  <COMMON_NAME>  (1) 
6-o-Capryloylsucrose

>  <CAS_NUMBER>  (1) 
136152-82-4

>  <UNII>  (1) 
NA2JF794IZ

>  <SYNONYMS>  (1) 
alpha-D-Glucopyranoside, 6-O-(1-oxooctyl)-beta-D-fructofuranosyl

$$$$
