LJ1
     RDKit          2D

 17 18  0  0  0  0  0  0  0  0999 V2000
   -1.2474    2.0037    0.0000 C   0  0  0  0  0  0  0  0  0  0  0  0
   -1.2474    1.1787    0.0000 C   0  0  0  0  0  0  0  0  0  0  0  0
   -0.5329    0.7662    0.0000 C   0  0  0  0  0  0  0  0  0  0  0  0
   -1.9618    0.7662    0.0000 C   0  0  0  0  0  0  0  0  0  0  0  0
   -2.6763    1.1787    0.0000 O   0  0  0  0  0  0  0  0  0  0  0  0
   -1.9618   -0.0588    0.0000 C   0  0  0  0  0  0  0  0  0  0  0  0
   -2.6763   -0.4713    0.0000 C   0  0  0  0  0  0  0  0  0  0  0  0
   -1.2474   -0.4713    0.0000 C   0  0  0  0  0  0  0  0  0  0  0  0
   -0.5329   -0.0588    0.0000 C   0  0  0  0  0  0  0  0  0  0  0  0
    0.1816   -0.4713    0.0000 C   0  0  0  0  0  0  0  0  0  0  0  0
    0.8961   -0.0588    0.0000 C   0  0  0  0  0  0  0  0  0  0  0  0
    1.6105   -0.4713    0.0000 C   0  0  0  0  0  0  0  0  0  0  0  0
    2.3250   -0.0588    0.0000 C   0  0  0  0  0  0  0  0  0  0  0  0
    3.0395   -0.4713    0.0000 C   0  0  0  0  0  0  0  0  0  0  0  0
    3.0395   -1.2963    0.0000 C   0  0  0  0  0  0  0  0  0  0  0  0
    2.3250   -1.7088    0.0000 C   0  0  0  0  0  0  0  0  0  0  0  0
    1.6105   -1.2963    0.0000 C   0  0  0  0  0  0  0  0  0  0  0  0
  1  2  1  0
  2  3  2  0
  2  4  1  0
  3  9  1  0
  4  5  1  0
  4  6  2  0
  6  7  1  0
  6  8  1  0
  8  9  2  0
  9 10  1  0
 10 11  2  0
 11 12  1  0
 12 13  2  0
 12 17  1  0
 13 14  1  0
 14 15  2  0
 15 16  1  0
 16 17  2  0
M  END
>  <DRUGBANK_ID>  (1) 
DB08100

>  <COMMON_NAME>  (1) 
2,6-dimethyl-4-[(E)-2-phenylethenyl]phenol

>  <UNII>  (1) 
1JVW0GEF1L

$$$$
