
     RDKit          2D

 18 20  0  0  1  0  0  0  0  0999 V2000
   17.8634   -3.4800    0.0000 O   0  0  0  0  0  0  0  0  0  0  0  0
   20.7758   -3.4600    0.0000 O   0  0  0  0  0  0  0  0  0  0  0  0
   14.2909   -6.3675    0.0000 O   0  0  0  0  0  0  0  0  0  0  0  0
   17.1487   -4.7175    0.0000 C   0  0  0  0  0  0  0  0  0  0  0  0
   17.8634   -5.1300    0.0000 C   0  0  0  0  0  0  0  0  0  0  0  0
   17.1487   -3.8925    0.0000 C   0  0  0  0  0  0  0  0  0  0  0  0
   18.5778   -4.7175    0.0000 C   0  0  0  0  0  0  0  0  0  0  0  0
   16.4343   -5.1300    0.0000 C   0  0  0  0  0  0  0  0  0  0  0  0
   18.5778   -3.8925    0.0000 C   0  0  0  0  0  0  0  0  0  0  0  0
   19.3152   -5.1587    0.0000 C   0  0  0  0  0  0  0  0  0  0  0  0
   15.7199   -4.7175    0.0000 C   0  0  0  0  0  0  0  0  0  0  0  0
   16.4343   -5.9550    0.0000 C   0  0  0  0  0  0  0  0  0  0  0  0
   19.3152   -3.4514    0.0000 C   0  0  0  0  0  0  0  0  0  0  0  0
   20.0628   -4.7346    0.0000 C   0  0  0  0  0  0  0  0  0  0  0  0
   20.0628   -3.8753    0.0000 C   0  0  0  0  0  0  0  0  0  0  0  0
   15.0055   -5.1300    0.0000 C   0  0  0  0  0  0  0  0  0  0  0  0
   15.7199   -6.3675    0.0000 C   0  0  0  0  0  0  0  0  0  0  0  0
   15.0055   -5.9550    0.0000 C   0  0  0  0  0  0  0  0  0  0  0  0
  1  6  1  0
  1  9  1  0
  2 15  1  0
  3 18  1  0
  4  5  1  0
  4  6  1  0
  4  8  1  1
  5  7  1  0
  7  9  2  0
  7 10  1  0
  8 11  2  0
  8 12  1  0
  9 13  1  0
 10 14  2  0
 11 16  1  0
 12 17  2  0
 13 15  2  0
 14 15  1  0
 16 18  2  0
 17 18  1  0
M  END
>  <DRUGBANK_ID>  (1) 
DB11674

>  <COMMON_NAME>  (1) 
Equol

>  <CAS_NUMBER>  (1) 
531-95-3

>  <UNII>  (1) 
2T6D2HPX7Q

>  <SYNONYMS>  (1) 
S-equol

$$$$
