
     RDKit          2D

 21 20  0  0  0  0  0  0  0  0999 V2000
    2.9980    7.5059    0.0000 C   0  0  0  0  0  0  0  0  0  0  0  0
    2.2836    7.0934    0.0000 C   0  0  0  0  0  0  0  0  0  0  0  0
    2.2836    6.2684    0.0000 C   0  0  0  0  0  0  0  0  0  0  0  0
    1.5691    5.8559    0.0000 C   0  0  0  0  0  0  0  0  0  0  0  0
    1.5691    5.0309    0.0000 C   0  0  0  0  0  0  0  0  0  0  0  0
    0.8546    4.6184    0.0000 C   0  0  0  0  0  0  0  0  0  0  0  0
    0.8546    3.7934    0.0000 C   0  0  0  0  0  0  0  0  0  0  0  0
    1.5691    3.3809    0.0000 C   0  0  0  0  0  0  0  0  0  0  0  0
    1.5691    2.5559    0.0000 C   0  0  0  0  0  0  0  0  0  0  0  0
    2.2836    2.1434    0.0000 C   0  0  0  0  0  0  0  0  0  0  0  0
    2.9980    2.5559    0.0000 C   0  0  0  0  0  0  0  0  0  0  0  0
    3.7125    2.1434    0.0000 C   0  0  0  0  0  0  0  0  0  0  0  0
    4.4270    2.5559    0.0000 C   0  0  0  0  0  0  0  0  0  0  0  0
    5.1414    2.1434    0.0000 C   0  0  0  0  0  0  0  0  0  0  0  0
    5.8559    2.5559    0.0000 C   0  0  0  0  0  0  0  0  0  0  0  0
    6.5704    2.1434    0.0000 C   0  0  0  0  0  0  0  0  0  0  0  0
    7.2849    2.5559    0.0000 C   0  0  0  0  0  0  0  0  0  0  0  0
    7.2849    3.3809    0.0000 O   0  0  0  0  0  0  0  0  0  0  0  0
    7.9993    2.1434    0.0000 C   0  0  0  0  0  0  0  0  0  0  0  0
    8.7138    2.5559    0.0000 O   0  0  0  0  0  0  0  0  0  0  0  0
    7.9993    1.3184    0.0000 O   0  0  0  0  0  0  0  0  0  0  0  0
  1  2  1  0
  2  3  1  0
  3  4  1  0
  4  5  1  0
  5  6  1  0
  6  7  2  0
  7  8  1  0
  8  9  1  0
  9 10  2  0
 10 11  1  0
 11 12  1  0
 12 13  1  0
 13 14  1  0
 14 15  1  0
 15 16  1  0
 16 17  1  0
 17 18  1  0
 17 19  1  0
 19 20  1  0
 19 21  2  0
M  END
>  <DRUGBANK_ID>  (1) 
DB16027

>  <COMMON_NAME>  (1) 
alpha-Hydroxylinoleic acid

>  <CAS_NUMBER>  (1) 
57818-44-7

>  <UNII>  (1) 
0DE74TJ7EZ

>  <SYNONYMS>  (1) 
.ALPHA.-HYDROXYLINOLEIC ACID; (9Z,12Z)-2-HYDROXY-9,12-OCTADECADIENOIC ACID; 9,12-OCTADECADIENOIC ACID, 2-HYDROXY-, (9Z,12Z)-

$$$$
