
     RDKit          2D

 29 32  0  0  0  0  0  0  0  0999 V2000
   -1.0716    2.6260    0.0000 C   0  0  0  0  0  0  0  0  0  0  0  0
   -1.0716    1.8009    0.0000 C   0  0  0  0  0  0  0  0  0  0  0  0
   -0.3572    1.3884    0.0000 N   0  0  0  0  0  0  0  0  0  0  0  0
    0.3572    1.8009    0.0000 C   0  0  0  0  0  0  0  0  0  0  0  0
    0.3572    2.6260    0.0000 C   0  0  0  0  0  0  0  0  0  0  0  0
   -0.3572    3.0385    0.0000 O   0  0  0  0  0  0  0  0  0  0  0  0
   -0.3572    0.5634    0.0000 C   0  0  0  0  0  0  0  0  0  0  0  0
   -1.0716    0.1509    0.0000 N   0  0  0  0  0  0  0  0  0  0  0  0
   -1.0716   -0.6740    0.0000 C   0  0  0  0  0  0  0  0  0  0  0  0
   -0.3572   -1.0865    0.0000 C   0  0  0  0  0  0  0  0  0  0  0  0
    0.3572   -0.6740    0.0000 C   0  0  0  0  0  0  0  0  0  0  0  0
    0.3572    0.1509    0.0000 N   0  0  0  0  0  0  0  0  0  0  0  0
   -1.7861   -1.0865    0.0000 N   0  0  0  0  0  0  0  0  0  0  0  0
    1.0717   -1.0865    0.0000 C   0  0  0  0  0  0  0  0  0  0  0  0
    1.0717   -1.9115    0.0000 C   0  0  0  0  0  0  0  0  0  0  0  0
    1.7861   -2.3240    0.0000 C   0  0  0  0  0  0  0  0  0  0  0  0
    2.5006   -1.9115    0.0000 C   0  0  0  0  0  0  0  0  0  0  0  0
    2.5006   -1.0865    0.0000 N   0  0  0  0  0  0  0  0  0  0  0  0
    1.7861   -0.6740    0.0000 C   0  0  0  0  0  0  0  0  0  0  0  0
    0.3572   -2.3240    0.0000 C   0  0  0  0  0  0  0  0  0  0  0  0
    3.2151   -2.3240    0.0000 N   0  0  0  0  0  0  0  0  0  0  0  0
   -2.5006   -0.6740    0.0000 C   0  0  0  0  0  0  0  0  0  0  0  0
   -3.2151   -1.0865    0.0000 C   0  0  0  0  0  0  0  0  0  0  0  0
   -3.2151   -1.9115    0.0000 O   0  0  0  0  0  0  0  0  0  0  0  0
   -2.5006   -2.3240    0.0000 C   0  0  0  0  0  0  0  0  0  0  0  0
   -1.7861   -1.9115    0.0000 C   0  0  0  0  0  0  0  0  0  0  0  0
    0.7697   -3.0385    0.0000 F   0  0  0  0  0  0  0  0  0  0  0  0
   -0.3572   -2.7365    0.0000 F   0  0  0  0  0  0  0  0  0  0  0  0
   -0.0552   -1.6095    0.0000 F   0  0  0  0  0  0  0  0  0  0  0  0
  1  2  1  0
  1  6  1  0
  2  3  1  0
  3  7  1  0
  3  4  1  0
  4  5  1  0
  5  6  1  0
  7  8  2  0
  8  9  1  0
  9 10  2  0
  9 13  1  0
 10 11  1  0
 11 14  1  0
 11 12  2  0
 12  7  1  0
 13 22  1  0
 13 26  1  0
 14 15  2  0
 15 16  1  0
 15 20  1  0
 16 17  2  0
 17 18  1  0
 17 21  1  0
 18 19  2  0
 19 14  1  0
 20 27  1  0
 20 28  1  0
 20 29  1  0
 22 23  1  0
 23 24  1  0
 24 25  1  0
 25 26  1  0
M  END
>  <DRUGBANK_ID>  (1) 
DB11666

>  <COMMON_NAME>  (1) 
Buparlisib

>  <CAS_NUMBER>  (1) 
944396-07-0

>  <UNII>  (1) 
0ZM2Z182GD

>  <SYNONYMS>  (1) 
Buparlisib; Buparlisibum

$$$$
