
     RDKit          2D

 36 40  0  0  1  0  0  0  0  0999 V2000
    5.7076    2.4249    0.0000 C   0  0  0  0  0  0  0  0  0  0  0  0
    5.1436    3.0270    0.0000 O   0  0  0  0  0  0  0  0  0  0  0  0
    4.3402    2.8396    0.0000 C   0  0  0  0  0  0  0  0  0  0  0  0
    4.1008    2.0501    0.0000 N   0  0  0  0  0  0  0  0  0  0  0  0
    3.2973    1.8627    0.0000 C   0  0  0  0  0  0  0  0  0  0  0  0
    3.0579    1.0732    0.0000 O   0  0  0  0  0  0  0  0  0  0  0  0
    3.6219    0.4712    0.0000 C   0  0  0  0  0  0  0  0  0  0  0  0
    2.7333    2.4648    0.0000 C   0  0  0  0  0  0  0  0  0  0  0  0
    2.9727    3.2543    0.0000 C   0  0  0  0  0  0  0  0  0  0  0  0
    2.2959    3.7260    0.0000 O   0  0  0  0  0  0  0  0  0  0  0  0
    1.6381    3.2280    0.0000 C   0  0  0  0  0  0  0  0  0  0  0  0
    0.8133    3.2118    0.0000 C   0  0  0  0  0  0  0  0  0  0  0  0
    0.5739    2.4223    0.0000 C   0  0  0  0  0  0  0  0  0  0  0  0
   -0.2056    2.1519    0.0000 C   0  0  0  0  0  0  0  0  0  0  0  0
   -0.3612    1.3417    0.0000 N   0  0  0  0  0  0  0  0  0  0  0  0
    0.2627    0.8019    0.0000 C   0  0  0  0  0  0  0  0  0  0  0  0
   -1.1406    1.0713    0.0000 C   0  0  0  0  0  0  0  0  0  0  0  0
    1.2507    1.9506    0.0000 C   0  0  0  0  0  0  0  0  0  0  0  0
    1.2670    1.1257    0.0000 O   0  0  0  0  0  0  0  0  0  0  0  0
    1.9085    2.4486    0.0000 C   0  0  0  0  0  0  0  0  0  0  0  0
    2.1788    1.6691    0.0000 O   0  0  0  0  0  0  0  0  0  0  0  0
    0.1364    3.6834    0.0000 C   0  0  0  0  0  0  0  0  0  0  0  0
   -0.6105    3.3331    0.0000 C   0  0  0  0  0  0  0  0  0  0  0  0
   -1.2874    3.8047    0.0000 C   0  0  0  0  0  0  0  0  0  0  0  0
   -1.2173    4.6268    0.0000 C   0  0  0  0  0  0  0  0  0  0  0  0
   -0.4704    4.9771    0.0000 C   0  0  0  0  0  0  0  0  0  0  0  0
    0.2065    4.5054    0.0000 C   0  0  0  0  0  0  0  0  0  0  0  0
    1.3678    4.0075    0.0000 C   0  0  0  0  0  0  0  0  0  0  0  0
    0.5576    4.1630    0.0000 C   0  0  0  0  0  0  0  0  0  0  0  0
    0.2872    4.9425    0.0000 C   0  0  0  0  0  0  0  0  0  0  0  0
    0.8270    5.5663    0.0000 C   0  0  0  0  0  0  0  0  0  0  0  0
    1.6372    5.4108    0.0000 C   0  0  0  0  0  0  0  0  0  0  0  0
    1.9076    4.6313    0.0000 C   0  0  0  0  0  0  0  0  0  0  0  0
    0.5567    6.3458    0.0000 C   0  0  0  0  0  0  0  0  0  0  0  0
    0.2863    7.1252    0.0000 N   0  0  0  0  0  0  0  0  0  0  0  0
    3.7762    3.4417    0.0000 C   0  0  0  0  0  0  0  0  0  0  0  0
  1  2  1  0
  2  3  1  0
  3  4  2  0
  3 36  1  0
  4  5  1  0
  5  6  1  0
  5  8  2  0
  6  7  1  0
  8  9  1  0
  9 10  1  0
  9 36  2  0
 11 10  1  0
 11 12  1  0
 11 20  1  0
 11 28  1  1
 12 13  1  0
 12 22  1  1
 13 14  1  6
 13 18  1  0
 14 15  1  0
 15 16  1  0
 15 17  1  0
 18 19  1  6
 20 18  1  0
 20  8  1  0
 20 21  1  1
 22 23  2  0
 22 27  1  0
 23 24  1  0
 24 25  2  0
 25 26  1  0
 26 27  2  0
 28 29  2  0
 28 33  1  0
 29 30  1  0
 30 31  2  0
 31 32  1  0
 31 34  1  0
 32 33  2  0
 34 35  3  0
M  END
>  <DRUGBANK_ID>  (1) 
DB16408

>  <COMMON_NAME>  (1) 
Zotatifin

>  <CAS_NUMBER>  (1) 
2098191-53-6

>  <UNII>  (1) 
2EWN8Z05CN

>  <SYNONYMS>  (1) 
Zotatifin

$$$$
