C2M
     RDKit          2D

 17 18  0  0  0  0  0  0  0  0999 V2000
    2.1930   -0.2197    0.0000 N   0  0  0  0  0  0  0  0  0  0  0  0
    2.1930   -1.0447    0.0000 C   0  0  0  0  0  0  0  0  0  0  0  0
    1.4785   -1.4572    0.0000 N   0  0  0  0  0  0  0  0  0  0  0  0
    0.7640   -1.0447    0.0000 C   0  0  0  0  0  0  0  0  0  0  0  0
    0.7640   -0.2197    0.0000 C   0  0  0  0  0  0  0  0  0  0  0  0
    1.4785    0.1928    0.0000 C   0  0  0  0  0  0  0  0  0  0  0  0
    0.0496    0.1928    0.0000 C   0  0  0  0  0  0  0  0  0  0  0  0
   -0.6649   -0.2197    0.0000 C   0  0  0  0  0  0  0  0  0  0  0  0
   -1.3794    0.1928    0.0000 C   0  0  0  0  0  0  0  0  0  0  0  0
   -1.3794    1.0178    0.0000 C   0  0  0  0  0  0  0  0  0  0  0  0
   -0.6649    1.4303    0.0000 C   0  0  0  0  0  0  0  0  0  0  0  0
    0.0496    1.0178    0.0000 C   0  0  0  0  0  0  0  0  0  0  0  0
    2.9074   -1.4572    0.0000 N   0  0  0  0  0  0  0  0  0  0  0  0
    0.0496   -1.4572    0.0000 N   0  0  0  0  0  0  0  0  0  0  0  0
    1.4785    1.0178    0.0000 C   0  0  0  0  0  0  0  0  0  0  0  0
   -2.0939    1.4303    0.0000 Cl  0  0  0  0  0  0  0  0  0  0  0  0
   -2.0939   -0.2197    0.0000 Cl  0  0  0  0  0  0  0  0  0  0  0  0
  1  2  2  0
  1  6  1  0
  2  3  1  0
  2 13  1  0
  3  4  2  0
  4  5  1  0
  4 14  1  0
  5  6  2  0
  5  7  1  0
  6 15  1  0
  7  8  2  0
  7 12  1  0
  8  9  1  0
  9 10  2  0
  9 17  1  0
 10 11  1  0
 10 16  1  0
 11 12  2  0
M  END
>  <DRUGBANK_ID>  (1) 
DB04655

>  <COMMON_NAME>  (1) 
Metoprine

>  <CAS_NUMBER>  (1) 
7761-45-7

>  <UNII>  (1) 
2L9RKX796Q

>  <SYNONYMS>  (1) 
Metoprine

$$$$
