
     RDKit          2D

 17 18  0  0  0  0  0  0  0  0999 V2000
   -0.1767    0.7455    0.0000 C   0  0  0  0  0  0  0  0  0  0  0  0
   -1.2567   -0.0390    0.0000 N   0  0  0  0  0  0  0  0  0  0  0  0
   -2.0537   -0.2527    0.0000 C   0  0  0  0  0  0  0  0  0  0  0  0
   -1.0018    0.7455    0.0000 C   0  0  0  0  0  0  0  0  0  0  0  0
   -1.4142    1.4599    0.0000 C   0  0  0  0  0  0  0  0  0  0  0  0
   -0.5891   -0.5240    0.0000 N   0  0  0  0  0  0  0  0  0  0  0  0
   -0.5891   -1.3490    0.0000 C   0  0  0  0  0  0  0  0  0  0  0  0
   -0.5891   -2.9991    0.0000 C   0  0  0  0  0  0  0  0  0  0  0  0
    0.1252   -2.5866    0.0000 C   0  0  0  0  0  0  0  0  0  0  0  0
    0.1252   -1.7616    0.0000 C   0  0  0  0  0  0  0  0  0  0  0  0
   -1.3037   -1.7616    0.0000 C   0  0  0  0  0  0  0  0  0  0  0  0
   -1.3037   -2.5866    0.0000 C   0  0  0  0  0  0  0  0  0  0  0  0
    0.0782   -0.0390    0.0000 C   0  0  0  0  0  0  0  0  0  0  0  0
    0.8751   -0.2527    0.0000 O   0  0  0  0  0  0  0  0  0  0  0  0
    0.2359    1.4599    0.0000 N   0  0  0  0  0  0  0  0  0  0  0  0
    1.0610    1.4599    0.0000 C   0  0  0  0  0  0  0  0  0  0  0  0
   -0.1767    2.1745    0.0000 C   0  0  0  0  0  0  0  0  0  0  0  0
  1  4  2  0
  1 15  1  0
  2  3  1  0
  4  2  1  0
  4  5  1  0
  6 13  1  0
  6  2  1  0
  6  7  1  0
  7 11  1  0
  8  9  2  0
  8 12  1  0
  9 10  1  0
 10  7  2  0
 11 12  2  0
 13  1  1  0
 13 14  2  0
 15 16  1  0
 15 17  1  0
M  END
>  <DRUGBANK_ID>  (1) 
DB01424

>  <COMMON_NAME>  (1) 
Aminophenazone

>  <CAS_NUMBER>  (1) 
58-15-1

>  <UNII>  (1) 
01704YP3MO

>  <SYNONYMS>  (1) 
(Dimethylamino)phenazone; 1-Phenyl-2,3-dimethyl-4-(dimethylamino)-5-pyrazolone; 1-Phenyl-2,3-dimethyl-4-dimethylaminopyrazol-5-one; 1,5-Dimethyl-4-dimethylamino-2-phenyl-3-pyrazolone; 2,3-Dimethyl-4-dimethylamino-1-phenyl-5-pyrazolone; 3-Keto-1,5-dimethyl-4-dimethylamino-2-phenyl-2,3-dihydropyrazole; 4-(Dimethylamino)-1,2-dihydro-1,5-dimethyl-2-phenyl-3H-pyrazol-3-one; 4-(Dimethylamino)-1,5-dimethyl-2-phenyl-1,2-dihydro-3H-pyrazol-3-one; 4-(Dimethylamino)antipyrine; 4-Dimethylamino-1-phenyl-2,3-dimethylpyrazolone; 4-Dimethylamino-2,3-dimethyl-1-phenyl-3-pyrazolin-5-one; 4-Dimethylamino-2,3-dimethyl-1-phenyl-5-pyrazolone; 4-Dimethylaminoantipyrine; 4-Dimethylaminophenazone; Aminofenazona; Aminofenazone; Aminophenazon; Aminophenazone; Aminophenazonum; Aminopyrine; Dimethylaminoantipyrine; Dimethylaminoazophene; Dimethylaminophenazon; Dimethylaminophenazone; Dimethylaminophenyldimethylpyrazolone; Dipyrine

$$$$
