
     RDKit          2D

 22 25  0  0  0  0  0  0  0  0999 V2000
    2.9514    1.6015    0.0000 O   0  0  0  0  0  0  0  0  0  0  0  0
   -2.9514   -1.6524    0.0000 O   0  0  0  0  0  0  0  0  0  0  0  0
    1.4995    0.8628    0.0000 C   0  0  0  0  0  0  0  0  0  0  0  0
    1.4995    0.0413    0.0000 C   0  0  0  0  0  0  0  0  0  0  0  0
    0.7863   -0.3725    0.0000 C   0  0  0  0  0  0  0  0  0  0  0  0
    0.0732    0.0413    0.0000 C   0  0  0  0  0  0  0  0  0  0  0  0
   -0.6781   -0.3789    0.0000 C   0  0  0  0  0  0  0  0  0  0  0  0
    2.2828    1.1175    0.0000 C   0  0  0  0  0  0  0  0  0  0  0  0
    0.7863    1.2767    0.0000 C   0  0  0  0  0  0  0  0  0  0  0  0
    0.0732    0.8628    0.0000 C   0  0  0  0  0  0  0  0  0  0  0  0
    2.2828   -0.2133    0.0000 C   0  0  0  0  0  0  0  0  0  0  0  0
    0.7991   -1.2321    0.0000 C   0  0  0  0  0  0  0  0  0  0  0  0
   -0.6845   -1.2385    0.0000 C   0  0  0  0  0  0  0  0  0  0  0  0
    2.7603    0.4489    0.0000 C   0  0  0  0  0  0  0  0  0  0  0  0
    0.0541   -1.6715    0.0000 C   0  0  0  0  0  0  0  0  0  0  0  0
    1.4995    1.6906    0.0000 C   0  0  0  0  0  0  0  0  0  0  0  0
   -0.6717    0.4489    0.0000 C   0  0  0  0  0  0  0  0  0  0  0  0
    2.0280    1.9007    0.0000 C   0  0  0  0  0  0  0  0  0  0  0  0
   -1.4486    0.0859    0.0000 C   0  0  0  0  0  0  0  0  0  0  0  0
   -1.4613   -1.6906    0.0000 C   0  0  0  0  0  0  0  0  0  0  0  0
   -2.2255   -0.3469    0.0000 C   0  0  0  0  0  0  0  0  0  0  0  0
   -2.2382   -1.2448    0.0000 C   0  0  0  0  0  0  0  0  0  0  0  0
  2 22  2  0
  3  4  1  0
  3  8  1  0
  3  9  1  0
  3 16  1  1
  4  5  1  0
  4 11  1  1
  5  6  1  0
  5 12  1  6
  6  7  1  0
  6 10  1  1
  7 13  1  0
  7 17  1  1
  7 19  1  0
  8  1  1  0
  8 14  1  0
  8 18  1  6
  9 10  1  0
 11 14  1  0
 12 15  1  0
 13 15  1  1
 13 20  1  0
 19 21  2  0
 20 22  1  0
 21 22  1  0
M  END
>  <DRUGBANK_ID>  (1) 
DB01572

>  <COMMON_NAME>  (1) 
Methyl-1-testosterone

>  <CAS_NUMBER>  (1) 
65-04-3

>  <UNII>  (1) 
21O907N0NH

>  <SYNONYMS>  (1) 
(+)-Methyl-1-testosterone; (5α,17β)-17-Hydroxy-17-methylandrost-1-en-3-one; 17alpha-Methyl-17beta-hydroxy-5alpha-androst-1-en-3-one; 17alpha-Methyl-17beta-hydroxy-delta1-5alpha-androsten-3-one; 17beta-Hydroxy-17alpha-methyl-5alpha-androst-1-ene-3-one

$$$$
