
     RDKit          2D

 31 34  0  0  0  0  0  0  0  0999 V2000
   -2.4045   -4.5861    0.0000 C   0  0  0  0  0  0  0  0  0  0  0  0
    1.1828   -1.3652    0.0000 C   0  0  0  0  0  0  0  0  0  0  0  0
    2.0078   -1.3652    0.0000 C   0  0  0  0  0  0  0  0  0  0  0  0
   -0.9129   -2.9925    0.0000 C   0  0  0  0  0  0  0  0  0  0  0  0
   -0.5774   -2.2389    0.0000 C   0  0  0  0  0  0  0  0  0  0  0  0
    1.1828    3.9187    0.0000 C   0  0  0  0  0  0  0  0  0  0  0  0
    0.9279    3.1341    0.0000 C   0  0  0  0  0  0  0  0  0  0  0  0
    1.5953    0.1741    0.0000 C   0  0  0  0  0  0  0  0  0  0  0  0
   -2.2183   -2.4113    0.0000 C   0  0  0  0  0  0  0  0  0  0  0  0
    2.2627    3.1341    0.0000 C   0  0  0  0  0  0  0  0  0  0  0  0
    1.5953   -0.6508    0.0000 C   0  0  0  0  0  0  0  0  0  0  0  0
    2.0078    3.9187    0.0000 C   0  0  0  0  0  0  0  0  0  0  0  0
   -1.7334   -3.0788    0.0000 C   0  0  0  0  0  0  0  0  0  0  0  0
   -1.0623   -1.5714    0.0000 C   0  0  0  0  0  0  0  0  0  0  0  0
    0.8808    0.5866    0.0000 C   0  0  0  0  0  0  0  0  0  0  0  0
   -1.8828   -1.6577    0.0000 C   0  0  0  0  0  0  0  0  0  0  0  0
    0.8808    1.4116    0.0000 C   0  0  0  0  0  0  0  0  0  0  0  0
   -0.7267   -0.8178    0.0000 C   0  0  0  0  0  0  0  0  0  0  0  0
    0.1664    0.1741    0.0000 C   0  0  0  0  0  0  0  0  0  0  0  0
    1.5953    1.8241    0.0000 C   0  0  0  0  0  0  0  0  0  0  0  0
    2.4927    4.5861    0.0000 F   0  0  0  0  0  0  0  0  0  0  0  0
   -2.3677   -0.9902    0.0000 F   0  0  0  0  0  0  0  0  0  0  0  0
    0.1664    1.8241    0.0000 N   0  0  0  0  0  0  0  0  0  0  0  0
    0.0801   -0.6462    0.0000 N   0  0  0  0  0  0  0  0  0  0  0  0
   -1.1392   -0.1033    0.0000 N   0  0  0  0  0  0  0  0  0  0  0  0
    1.5953    2.6491    0.0000 N   0  0  0  0  0  0  0  0  0  0  0  0
    2.3098    1.4116    0.0000 O   0  0  0  0  0  0  0  0  0  0  0  0
   -1.3153   -4.1680    0.0000 O   0  0  0  0  0  0  0  0  0  0  0  0
   -2.8226   -3.4969    0.0000 O   0  0  0  0  0  0  0  0  0  0  0  0
   -0.5872    0.5097    0.0000 O   0  0  0  0  0  0  0  0  0  0  0  0
   -2.0690   -3.8325    0.0000 S   0  0  0  0  0  0  0  0  0  0  0  0
  3  2  1  0
  5  4  2  0
  7  6  1  0
 11  2  1  0
 11  3  1  0
 11  8  1  0
 12  6  1  0
 12 10  1  0
 12 21  1  6
 13  4  1  0
 13  9  2  0
 14  5  1  0
 15  8  1  6
 15 17  1  0
 15 19  1  0
 16  9  1  0
 16 14  2  0
 17 20  1  0
 17 23  1  6
 18 14  1  1
 18 24  1  0
 18 25  1  0
 22 16  1  0
 24 19  1  0
 26  7  1  0
 26 10  1  0
 26 20  1  0
 27 20  2  0
 30 19  1  0
 30 25  1  0
 31  1  1  0
 31 13  1  0
 31 28  2  0
 31 29  2  0
M  END
>  <DRUGBANK_ID>  (1) 
DB06993

>  <COMMON_NAME>  (1) 
(2S,3S)-4-cyclopropyl-3-{(3R,5R)-3-[2-fluoro-4-(methylsulfonyl)phenyl]-1,2,4-oxadiazolidin-5-yl}-1-[(3S)-3-fluoropyrrolidin-1-yl]-1-oxobutan-2-amine

$$$$
