
     RDKit          2D

 33 37  0  0  0  0  0  0  0  0999 V2000
   -2.1349   -0.4687    0.0000 C   0  0  0  0  0  0  0  0  0  0  0  0
   -2.8512   -0.8812    0.0000 C   0  0  0  0  0  0  0  0  0  0  0  0
   -2.8512   -1.7062    0.0000 C   0  0  0  0  0  0  0  0  0  0  0  0
   -2.1349   -2.1188    0.0000 C   0  0  0  0  0  0  0  0  0  0  0  0
   -1.4229   -0.8812    0.0000 C   0  0  0  0  0  0  0  0  0  0  0  0
   -1.4229   -1.7062    0.0000 C   0  0  0  0  0  0  0  0  0  0  0  0
   -0.7067   -2.1188    0.0000 C   0  0  0  0  0  0  0  0  0  0  0  0
    0.0093   -1.7062    0.0000 C   0  0  0  0  0  0  0  0  0  0  0  0
   -0.7067   -0.4687    0.0000 C   0  0  0  0  0  0  0  0  0  0  0  0
    0.0093   -0.8812    0.0000 C   0  0  0  0  0  0  0  0  0  0  0  0
    0.0093    0.7687    0.0000 C   0  0  0  0  0  0  0  0  0  0  0  0
   -0.7067    0.3562    0.0000 C   0  0  0  0  0  0  0  0  0  0  0  0
    0.7214    0.3562    0.0000 C   0  0  0  0  0  0  0  0  0  0  0  0
    0.7194   -0.4687    0.0000 C   0  0  0  0  0  0  0  0  0  0  0  0
    1.4290   -0.8806    0.0000 C   0  0  0  0  0  0  0  0  0  0  0  0
    2.1450   -0.4721    0.0000 C   0  0  0  0  0  0  0  0  0  0  0  0
    1.4328    0.7693    0.0000 C   0  0  0  0  0  0  0  0  0  0  0  0
    2.1464    0.3501    0.0000 C   0  0  0  0  0  0  0  0  0  0  0  0
    2.8622    0.7563    0.0000 C   0  0  0  0  0  0  0  0  0  0  0  0
    2.8707    1.5832    0.0000 C   0  0  0  0  0  0  0  0  0  0  0  0
    2.1571    2.0024    0.0000 C   0  0  0  0  0  0  0  0  0  0  0  0
    1.4351    1.5946    0.0000 C   0  0  0  0  0  0  0  0  0  0  0  0
    2.1530    2.8312    0.0000 C   0  0  0  0  0  0  0  0  0  0  0  0
    0.7154    2.0103    0.0000 C   0  0  0  0  0  0  0  0  0  0  0  0
    2.8571   -0.0604    0.0000 C   0  0  0  0  0  0  0  0  0  0  0  0
   -3.5678   -2.1146    0.0000 O   0  0  0  0  0  0  0  0  0  0  0  0
   -1.7303   -2.8312    0.0000 C   0  0  0  0  0  0  0  0  0  0  0  0
   -2.5553   -2.8312    0.0000 C   0  0  0  0  0  0  0  0  0  0  0  0
   -1.4303   -0.0562    0.0000 C   0  0  0  0  0  0  0  0  0  0  0  0
    0.0029   -0.0562    0.0000 C   0  0  0  0  0  0  0  0  0  0  0  0
    0.7113   -1.2896    0.0000 C   0  0  0  0  0  0  0  0  0  0  0  0
    2.8566   -0.8807    0.0000 O   0  0  0  0  0  0  0  0  0  0  0  0
    3.5678    0.3501    0.0000 O   0  0  0  0  0  0  0  0  0  0  0  0
  1  2  1  0
  2  3  1  0
  3 26  1  1
  3  4  1  0
  4 27  1  0
  4 28  1  0
  4  6  1  0
  5  1  1  0
  5  6  1  0
  5 29  1  1
  6  7  1  1
  7  8  1  0
  8 10  1  0
  9  5  1  0
  9 10  1  0
 10 14  1  0
 10 30  1  1
 11 12  1  0
  9 12  1  1
 13 11  2  0
 13 14  1  0
 17 13  1  6
 14 31  1  6
 14 15  1  0
 15 16  1  0
 16 18  1  0
 17 18  1  0
 17 22  1  0
 18 19  1  0
 18 25  1  1
 19 20  1  0
 20 21  1  0
 21 22  1  0
 21 23  1  6
 22 24  1  1
 25 32  1  0
 25 33  2  0
M  END
>  <DRUGBANK_ID>  (1) 
DB15588

>  <COMMON_NAME>  (1) 
Ursolic acid

>  <CAS_NUMBER>  (1) 
77-52-1

>  <UNII>  (1) 
P3M2575F3F

>  <SYNONYMS>  (1) 
Malol; Prunol; Urson

$$$$
