
     RDKit          2D

 32 33  0  0  0  0  0  0  0  0999 V2000
    0.0000    2.4750    0.0000 C   0  0  0  0  0  0  0  0  0  0  0  0
   -3.5723   -1.2375    0.0000 C   0  0  0  0  0  0  0  0  0  0  0  0
   -2.1434    1.2375    0.0000 C   0  0  0  0  0  0  0  0  0  0  0  0
   -3.5723   -0.4125    0.0000 C   0  0  0  0  0  0  0  0  0  0  0  0
    0.0000   -1.6500    0.0000 C   0  0  0  0  0  0  0  0  0  0  0  0
    0.7144   -1.2375    0.0000 C   0  0  0  0  0  0  0  0  0  0  0  0
    0.0000    0.0000    0.0000 C   0  0  0  0  0  0  0  0  0  0  0  0
    0.0000    0.8250    0.0000 C   0  0  0  0  0  0  0  0  0  0  0  0
   -1.4289   -1.6500    0.0000 C   0  0  0  0  0  0  0  0  0  0  0  0
   -0.7144   -0.4125    0.0000 C   0  0  0  0  0  0  0  0  0  0  0  0
   -0.7144   -1.2375    0.0000 C   0  0  0  0  0  0  0  0  0  0  0  0
    0.7144   -0.4125    0.0000 C   0  0  0  0  0  0  0  0  0  0  0  0
    0.7144    1.2375    0.0000 C   0  0  0  0  0  0  0  0  0  0  0  0
   -2.1434   -1.2375    0.0000 C   0  0  0  0  0  0  0  0  0  0  0  0
   -1.4289    0.0000    0.0000 C   0  0  0  0  0  0  0  0  0  0  0  0
    1.4289    0.0000    0.0000 C   0  0  0  0  0  0  0  0  0  0  0  0
   -2.1434   -0.4125    0.0000 C   0  0  0  0  0  0  0  0  0  0  0  0
    1.4289    0.8250    0.0000 C   0  0  0  0  0  0  0  0  0  0  0  0
    2.9684   -1.2375    0.0000 O   0  0  0  0  0  0  0  0  0  0  0  0
    1.3184   -1.2375    0.0000 O   0  0  0  0  0  0  0  0  0  0  0  0
    2.1434   -2.0625    0.0000 O   0  0  0  0  0  0  0  0  0  0  0  0
    3.5723    0.4125    0.0000 O   0  0  0  0  0  0  0  0  0  0  0  0
    3.2703    1.5394    0.0000 O   0  0  0  0  0  0  0  0  0  0  0  0
    2.4453    0.1105    0.0000 O   0  0  0  0  0  0  0  0  0  0  0  0
    0.7144    2.0625    0.0000 O   0  0  0  0  0  0  0  0  0  0  0  0
   -2.8578   -1.6500    0.0000 O   0  0  0  0  0  0  0  0  0  0  0  0
   -1.4289    0.8250    0.0000 O   0  0  0  0  0  0  0  0  0  0  0  0
   -2.8578    0.0000    0.0000 O   0  0  0  0  0  0  0  0  0  0  0  0
    2.1434   -0.4125    0.0000 O   0  0  0  0  0  0  0  0  0  0  0  0
    2.1434    1.2375    0.0000 O   0  0  0  0  0  0  0  0  0  0  0  0
    2.1434   -1.2375    0.0000 P   0  0  0  0  0  0  0  0  0  0  0  0
    2.8578    0.8250    0.0000 P   0  0  0  0  0  0  0  0  0  0  0  0
  6  5  2  0
  8  7  2  0
 11  5  1  0
 11  9  2  0
 11 10  1  0
 12  6  1  0
 12  7  1  0
 13  8  1  0
 14  9  1  0
 15 10  2  0
 16 12  2  0
 17 14  2  0
 17 15  1  0
 18 13  2  0
 18 16  1  0
 25  1  1  0
 25 13  1  0
 26  2  1  0
 26 14  1  0
 27  3  1  0
 27 15  1  0
 28  4  1  0
 28 17  1  0
 29 16  1  0
 30 18  1  0
 31 19  1  0
 31 20  1  0
 31 21  2  0
 31 29  1  0
 32 22  1  0
 32 23  1  0
 32 24  2  0
 32 30  1  0
M  END
>  <DRUGBANK_ID>  (1) 
DB05143

>  <COMMON_NAME>  (1) 
OXI-4503

>  <CAS_NUMBER>  (1) 
288847-35-8

>  <UNII>  (1) 
JH6Z94GLUD

>  <SYNONYMS>  (1) 
CA1P; Combretastatin A-1 bis(phosphate); Combretastatin A1 diphosphate; OXI4503

$$$$
