
     RDKit          2D

 18 19  0  0  1  0  0  0  0  0999 V2000
    0.7145    6.7661    0.0000 N   0  0  0  0  0  0  0  0  0  0  0  0
    0.7145    5.9411    0.0000 C   0  0  0  0  0  0  0  0  0  0  0  0
    1.4289    5.5286    0.0000 N   0  0  0  0  0  0  0  0  0  0  0  0
    1.4289    4.7036    0.0000 C   0  0  0  0  0  0  0  0  0  0  0  0
    2.1434    4.2911    0.0000 O   0  0  0  0  0  0  0  0  0  0  0  0
    0.7145    4.2911    0.0000 N   0  0  0  0  0  0  0  0  0  0  0  0
    0.0000    4.7036    0.0000 C   0  0  0  0  0  0  0  0  0  0  0  0
   -0.0000    5.5286    0.0000 C   0  0  0  0  0  0  0  0  0  0  0  0
    0.7145    3.4661    0.0000 C   0  0  0  0  0  0  0  0  0  0  0  0
    1.3819    2.9812    0.0000 C   0  0  0  0  0  0  0  0  0  0  0  0
    2.1665    3.2361    0.0000 O   0  0  0  0  0  0  0  0  0  0  0  0
    1.1270    2.1965    0.0000 C   0  0  0  0  0  0  0  0  0  0  0  0
    1.6119    1.5291    0.0000 O   0  0  0  0  0  0  0  0  0  0  0  0
    0.3020    2.1965    0.0000 C   0  0  0  0  0  0  0  0  0  0  0  0
   -0.1830    1.5291    0.0000 C   0  0  0  0  0  0  0  0  0  0  0  0
    0.1526    0.7754    0.0000 O   0  0  0  0  0  0  0  0  0  0  0  0
    0.0470    2.9812    0.0000 C   0  0  0  0  0  0  0  0  0  0  0  0
   -0.7376    3.2361    0.0000 F   0  0  0  0  0  0  0  0  0  0  0  0
  1  2  1  0
  2  3  2  0
  2  8  1  0
  3  4  1  0
  4  5  2  0
  4  6  1  0
  6  7  1  0
  7  8  2  0
  9  6  1  1
  9 17  1  0
 10  9  1  0
 10 11  1  6
 10 12  1  0
 12 13  1  6
 12 14  1  0
 14 15  1  0
 14 17  2  0
 15 16  1  0
 17 18  1  0
M  END
>  <DRUGBANK_ID>  (1) 
DB16168

>  <COMMON_NAME>  (1) 
Fluorocyclopentenylcytosine

>  <CAS_NUMBER>  (1) 
865838-26-2

>  <UNII>  (1) 
0Z4A82I0JO

>  <SYNONYMS>  (1) 
4-amino-1-[(1S,4R,5S)-2-fluoro-4,5-dihydroxy-3-(hydroxymethyl) cyclopent-2-en-1-yl] pyrimidin-2-one; Fluorocyclopentenylcytosine; Roducitabine

$$$$
