
     RDKit          2D

 27 29  0  0  0  0  0  0  0  0999 V2000
    3.1255    0.3856    0.0000 N   0  0  0  0  0  0  0  0  0  0  0  0
    2.4189    0.7906    0.0000 C   0  0  0  0  0  0  0  0  0  0  0  0
    3.1370   -1.4015    0.0000 C   0  0  0  0  0  0  0  0  0  0  0  0
    3.8282    0.7944    0.0000 C   0  0  0  0  0  0  0  0  0  0  0  0
    2.4152    1.6156    0.0000 C   0  0  0  0  0  0  0  0  0  0  0  0
    1.7124    0.3896    0.0000 N   0  0  0  0  0  0  0  0  0  0  0  0
    2.1209   -0.8362    0.0000 O   0  0  0  0  0  0  0  0  0  0  0  0
    2.7436   -2.1693    0.0000 C   0  0  0  0  0  0  0  0  0  0  0  0
    3.8245    1.6194    0.0000 N   0  0  0  0  0  0  0  0  0  0  0  0
    1.7085    2.0127    0.0000 C   0  0  0  0  0  0  0  0  0  0  0  0
    1.0134    0.7906    0.0000 C   0  0  0  0  0  0  0  0  0  0  0  0
    1.1090   -1.4015    0.0000 C   0  0  0  0  0  0  0  0  0  0  0  0
    1.4869   -2.1693    0.0000 C   0  0  0  0  0  0  0  0  0  0  0  0
    2.9613   -2.8264    0.0000 O   0  0  0  0  0  0  0  0  0  0  0  0
    1.0134    1.6118    0.0000 N   0  0  0  0  0  0  0  0  0  0  0  0
    1.7085    2.8264    0.0000 N   0  0  0  0  0  0  0  0  0  0  0  0
    0.5016   -0.8860    0.0000 C   0  0  0  0  0  0  0  0  0  0  0  0
    1.2044   -2.8264    0.0000 O   0  0  0  0  0  0  0  0  0  0  0  0
   -0.4394   -1.2361    0.0000 O   0  0  0  0  0  0  0  0  0  0  0  0
   -1.3889   -0.8592    0.0000 P   0  0  0  0  0  0  0  0  0  0  0  0
   -2.1944   -1.2946    0.0000 O   0  0  0  0  0  0  0  0  0  0  0  0
   -1.3889   -0.1222    0.0000 O   0  0  0  0  0  0  0  0  0  0  0  0
   -1.3889   -1.6041    0.0000 O   0  0  0  0  0  0  0  0  0  0  0  0
   -3.0160   -0.8286    0.0000 P   0  0  0  0  0  0  0  0  0  0  0  0
   -3.8282   -1.2129    0.0000 O   0  0  0  0  0  0  0  0  0  0  0  0
   -3.0160   -0.1106    0.0000 O   0  0  0  0  0  0  0  0  0  0  0  0
   -3.0364   -1.6348    0.0000 O   0  0  0  0  0  0  0  0  0  0  0  0
  1  2  1  0
  1  4  1  0
  2  5  2  0
  2  6  1  0
  3  1  1  1
  3  7  1  0
  3  8  1  0
  4  9  2  0
  5 10  1  0
  5  9  1  0
  6 11  2  0
  7 12  1  0
  8 13  1  0
  8 14  1  6
 10 15  2  0
 10 16  1  0
 11 15  1  0
 12 17  1  1
 12 13  1  0
 13 18  1  6
 17 19  1  0
 19 20  1  0
 20 21  1  0
 20 22  2  0
 20 23  1  0
 21 24  1  0
 24 25  1  0
 24 26  2  0
 24 27  1  0
M  END
>  <DRUGBANK_ID>  (1) 
DB16833

>  <COMMON_NAME>  (1) 
Adenosine disphosphate

>  <CAS_NUMBER>  (1) 
58-64-0

>  <UNII>  (1) 
61D2G4IYVH

>  <SYNONYMS>  (1) 
ADP

$$$$
