LJ5
     RDKit          2D

 18 19  0  0  0  0  0  0  0  0999 V2000
    2.7358    0.1613    0.0000 C   0  0  0  0  0  0  0  0  0  0  0  0
    3.4502   -0.2513    0.0000 C   0  0  0  0  0  0  0  0  0  0  0  0
    4.1647    0.1612    0.0000 Br  0  0  0  0  0  0  0  0  0  0  0  0
    3.4502   -1.0763    0.0000 C   0  0  0  0  0  0  0  0  0  0  0  0
    4.1647   -1.4888    0.0000 O   0  0  0  0  0  0  0  0  0  0  0  0
    2.7358   -1.4888    0.0000 C   0  0  0  0  0  0  0  0  0  0  0  0
    2.7358   -2.3137    0.0000 Br  0  0  0  0  0  0  0  0  0  0  0  0
    2.0213   -1.0762    0.0000 C   0  0  0  0  0  0  0  0  0  0  0  0
    2.0213   -0.2512    0.0000 C   0  0  0  0  0  0  0  0  0  0  0  0
    1.3068    0.1613    0.0000 N   0  0  0  0  0  0  0  0  0  0  0  0
    0.5923   -0.2512    0.0000 C   0  0  0  0  0  0  0  0  0  0  0  0
    0.5923   -1.0762    0.0000 O   0  0  0  0  0  0  0  0  0  0  0  0
   -0.1221    0.1613    0.0000 C   0  0  0  0  0  0  0  0  0  0  0  0
   -0.8366   -0.2513    0.0000 C   0  0  0  0  0  0  0  0  0  0  0  0
   -1.5511    0.1612    0.0000 C   0  0  0  0  0  0  0  0  0  0  0  0
   -1.5511    0.9862    0.0000 C   0  0  0  0  0  0  0  0  0  0  0  0
   -0.8366    1.3987    0.0000 C   0  0  0  0  0  0  0  0  0  0  0  0
   -0.1221    0.9863    0.0000 C   0  0  0  0  0  0  0  0  0  0  0  0
  1  2  2  0
  1  9  1  0
  2  3  1  0
  2  4  1  0
  4  5  1  0
  4  6  2  0
  6  7  1  0
  6  8  1  0
  8  9  2  0
  9 10  1  0
 10 11  1  0
 11 12  2  0
 11 13  1  0
 13 14  2  0
 13 18  1  0
 14 15  1  0
 15 16  2  0
 16 17  1  0
 17 18  2  0
M  END
>  <DRUGBANK_ID>  (1) 
DB08104

>  <COMMON_NAME>  (1) 
N-(3,5-dibromo-4-hydroxyphenyl)benzamide

$$$$
