PM5
     RDKit          2D

 29 28  0  0  0  0  0  0  0  0999 V2000
   -6.6920   -0.0440    0.0000 O   0  0  0  0  0  0  0  0  0  0  0  0
   -5.9774   -0.4565    0.0000 P   0  0  0  0  0  0  0  0  0  0  0  0
   -5.9774   -1.2816    0.0000 O   0  0  0  0  0  0  0  0  0  0  0  0
   -5.2630   -0.0440    0.0000 O   0  0  0  0  0  0  0  0  0  0  0  0
   -4.5484   -0.4565    0.0000 C   0  0  0  0  0  0  0  0  0  0  0  0
   -3.8339   -0.0440    0.0000 C   0  0  0  0  0  0  0  0  0  0  0  0
   -3.4214   -0.7585    0.0000 C   0  0  0  0  0  0  0  0  0  0  0  0
   -4.2464    0.6705    0.0000 C   0  0  0  0  0  0  0  0  0  0  0  0
   -3.1194    0.3685    0.0000 C   0  0  0  0  0  0  0  0  0  0  0  0
   -3.1194    1.1936    0.0000 O   0  0  0  0  0  0  0  0  0  0  0  0
   -2.4049   -0.0440    0.0000 C   0  0  0  0  0  0  0  0  0  0  0  0
   -2.4049   -0.8691    0.0000 O   0  0  0  0  0  0  0  0  0  0  0  0
   -1.6903    0.3685    0.0000 N   0  0  0  0  0  0  0  0  0  0  0  0
   -0.9758   -0.0440    0.0000 C   0  0  0  0  0  0  0  0  0  0  0  0
   -0.2613    0.3685    0.0000 C   0  0  0  0  0  0  0  0  0  0  0  0
    0.4532   -0.0440    0.0000 C   0  0  0  0  0  0  0  0  0  0  0  0
    0.4532   -0.8691    0.0000 O   0  0  0  0  0  0  0  0  0  0  0  0
    1.1678    0.3685    0.0000 N   0  0  0  0  0  0  0  0  0  0  0  0
    1.8822   -0.0440    0.0000 C   0  0  0  0  0  0  0  0  0  0  0  0
    2.5968    0.3685    0.0000 C   0  0  0  0  0  0  0  0  0  0  0  0
    3.3113   -0.0440    0.0000 S   0  0  0  0  0  0  0  0  0  0  0  0
    4.0259    0.3685    0.0000 C   0  0  0  0  0  0  0  0  0  0  0  0
    4.0259    1.1936    0.0000 O   0  0  0  0  0  0  0  0  0  0  0  0
    4.7404   -0.0440    0.0000 C   0  0  0  0  0  0  0  0  0  0  0  0
    5.4549    0.3685    0.0000 C   0  0  0  0  0  0  0  0  0  0  0  0
    6.1695   -0.0440    0.0000 C   0  0  0  0  0  0  0  0  0  0  0  0
    6.8839    0.3685    0.0000 C   0  0  0  0  0  0  0  0  0  0  0  0
    7.5985   -0.0440    0.0000 C   0  0  0  0  0  0  0  0  0  0  0  0
    8.3130    0.3685    0.0000 C   0  0  0  0  0  0  0  0  0  0  0  0
  2  1  1  1
  2  3  2  0
  2  4  1  0
  4  5  1  0
  5  6  1  0
  6  7  1  0
  6  8  1  0
  6  9  1  0
  9 10  1  1
  9 11  1  0
 11 12  2  0
 11 13  1  0
 13 14  1  0
 14 15  1  0
 15 16  1  0
 16 17  2  0
 16 18  1  0
 18 19  1  0
 19 20  1  0
 20 21  1  0
 21 22  1  0
 22 23  2  0
 22 24  1  0
 24 25  1  0
 25 26  1  0
 26 27  1  0
 27 28  1  0
 28 29  1  0
M  END
>  <DRUGBANK_ID>  (1) 
DB08405

>  <COMMON_NAME>  (1) 
S-(2-{[N-(2-HYDROXY-4-{[HYDROXY(OXIDO)PHOSPHINO]OXY}-3,3-DIMETHYLBUTANOYL)-BETA-ALANYL]AMINO}ETHYL) HEPTANETHIOATE

$$$$
