
     RDKit          2D

 27 26  0  0  0  0  0  0  0  0999 V2000
    1.4289    0.2062    0.0000 C   0  0  0  0  0  0  0  0  0  0  0  0
    2.1433   -0.2062    0.0000 C   0  0  0  0  0  0  0  0  0  0  0  0
    2.8580    0.2062    0.0000 C   0  0  0  0  0  0  0  0  0  0  0  0
    3.5724   -0.2062    0.0000 C   0  0  0  0  0  0  0  0  0  0  0  0
    4.2869    0.2062    0.0000 C   0  0  0  0  0  0  0  0  0  0  0  0
    5.0014   -0.2062    0.0000 C   0  0  0  0  0  0  0  0  0  0  0  0
    5.7161    0.2062    0.0000 C   0  0  0  0  0  0  0  0  0  0  0  0
    1.4289    1.0312    0.0000 O   0  0  0  0  0  0  0  0  0  0  0  0
    0.7143   -0.2062    0.0000 N   0  0  0  0  0  0  0  0  0  0  0  0
    0.0000    0.2062    0.0000 C   0  0  0  0  0  0  0  0  0  0  0  0
   -0.7143   -0.2062    0.0000 C   0  0  0  0  0  0  0  0  0  0  0  0
   -0.7143   -1.0312    0.0000 O   0  0  0  0  0  0  0  0  0  0  0  0
    0.0000    1.0312    0.0000 O   0  0  0  0  0  0  0  0  0  0  0  0
   -1.4288    0.2062    0.0000 N   0  0  0  0  0  0  0  0  0  0  0  0
   -2.1433   -0.2062    0.0000 C   0  0  0  0  0  0  0  0  0  0  0  0
   -2.8580    0.2062    0.0000 C   0  0  0  0  0  0  0  0  0  0  0  0
   -3.5724   -0.2062    0.0000 C   0  0  0  0  0  0  0  0  0  0  0  0
   -4.2869    0.2062    0.0000 C   0  0  0  0  0  0  0  0  0  0  0  0
   -5.0014   -0.2062    0.0000 N   0  0  0  0  0  0  0  0  0  0  0  0
   -5.7160    0.2062    0.0000 C   0  0  0  0  0  0  0  0  0  0  0  0
   -6.4305   -0.2062    0.0000 C   0  0  0  0  0  0  0  0  0  0  0  0
   -7.1451    0.2062    0.0000 C   0  0  0  0  0  0  0  0  0  0  0  0
   -7.8596   -0.2062    0.0000 N   0  0  0  0  0  0  0  0  0  0  0  0
    6.4306   -0.2062    0.0000 N   0  0  0  0  0  0  0  0  0  0  0  0
    7.1451    0.2062    0.0000 C   0  0  0  0  0  0  0  0  0  0  0  0
    7.1451    1.0312    0.0000 N   0  0  0  0  0  0  0  0  0  0  0  0
    7.8596   -0.2062    0.0000 N   0  0  0  0  0  0  0  0  0  0  0  0
  1  2  1  0
  1  8  2  0
  1  9  1  0
  2  3  1  0
  3  4  1  0
  4  5  1  0
  5  6  1  0
  6  7  1  0
  7 24  1  0
  9 10  1  0
 10 11  1  0
 10 13  1  0
 11 12  2  0
 11 14  1  0
 14 15  1  0
 15 16  1  0
 16 17  1  0
 17 18  1  0
 18 19  1  0
 19 20  1  0
 20 21  1  0
 21 22  1  0
 22 23  1  0
 24 25  1  0
 25 26  2  0
 25 27  1  0
M  END
>  <DRUGBANK_ID>  (1) 
DB12692

>  <COMMON_NAME>  (1) 
Gusperimus

>  <CAS_NUMBER>  (1) 
98629-43-7

>  <UNII>  (1) 
UJ0ZJ76DO9

>  <SYNONYMS>  (1) 
Gusperimus

$$$$
