
     RDKit          2D

 33 34  0  0  1  0  0  0  0  0999 V2000
    9.6144   -1.6775    0.0000 C   0  0  0  0  0  0  0  0  0  0  0  0
   10.5076   -1.0286    0.0000 C   0  0  0  0  0  0  0  0  0  0  0  0
   10.7171    3.7125    0.0000 C   0  0  0  0  0  0  0  0  0  0  0  0
   11.4315    0.0000    0.0000 C   0  0  0  0  0  0  0  0  0  0  0  0
   12.8605    2.4750    0.0000 C   0  0  0  0  0  0  0  0  0  0  0  0
   12.1460    2.8875    0.0000 C   0  0  0  0  0  0  0  0  0  0  0  0
   12.8605    1.6500    0.0000 C   0  0  0  0  0  0  0  0  0  0  0  0
    7.1447    1.6500    0.0000 C   0  0  0  0  0  0  0  0  0  0  0  0
    6.4302    1.2375    0.0000 C   0  0  0  0  0  0  0  0  0  0  0  0
   11.4315    2.4750    0.0000 C   0  0  0  0  0  0  0  0  0  0  0  0
   12.1460    1.2375    0.0000 C   0  0  0  0  0  0  0  0  0  0  0  0
   11.4315    1.6500    0.0000 C   0  0  0  0  0  0  0  0  0  0  0  0
    9.2881    1.2375    0.0000 C   0  0  0  0  0  0  0  0  0  0  0  0
    8.8756   -0.8570    0.0000 C   0  0  0  0  0  0  0  0  0  0  0  0
   10.7171    1.2375    0.0000 C   0  0  0  0  0  0  0  0  0  0  0  0
    9.2881    0.4125    0.0000 C   0  0  0  0  0  0  0  0  0  0  0  0
    5.7158    1.6500    0.0000 C   0  0  0  0  0  0  0  0  0  0  0  0
    8.3907   -1.5245    0.0000 C   0  0  0  0  0  0  0  0  0  0  0  0
    8.5737    1.6500    0.0000 C   0  0  0  0  0  0  0  0  0  0  0  0
    9.7006   -0.8570    0.0000 C   0  0  0  0  0  0  0  0  0  0  0  0
    6.4302    0.4125    0.0000 N   0  0  0  0  0  0  0  0  0  0  0  0
   10.0026    1.6500    0.0000 N   0  0  0  0  0  0  0  0  0  0  0  0
    8.6207   -0.0724    0.0000 N   0  0  0  0  0  0  0  0  0  0  0  0
   10.7171    0.4125    0.0000 O   0  0  0  0  0  0  0  0  0  0  0  0
    5.0013    1.2375    0.0000 O   0  0  0  0  0  0  0  0  0  0  0  0
    5.7158    2.4750    0.0000 O   0  0  0  0  0  0  0  0  0  0  0  0
    7.5702   -1.4382    0.0000 O   0  0  0  0  0  0  0  0  0  0  0  0
    8.7263   -2.2782    0.0000 O   0  0  0  0  0  0  0  0  0  0  0  0
    8.5737    2.4750    0.0000 O   0  0  0  0  0  0  0  0  0  0  0  0
   10.7171    2.8875    0.0000 O   0  0  0  0  0  0  0  0  0  0  0  0
   12.1460    0.4125    0.0000 O   0  0  0  0  0  0  0  0  0  0  0  0
    7.8592    1.2375    0.0000 O   0  0  0  0  0  0  0  0  0  0  0  0
    9.9556   -0.0724    0.0000 S   0  0  0  0  0  0  0  0  0  0  0  0
  6  5  2  0
  7  5  1  0
  9  8  1  0
  9 21  1  6
 10  6  1  0
 11  7  2  0
 12 10  2  0
 12 11  1  0
 13 22  1  1
 14 18  1  6
 15 12  1  0
 15 24  1  0
 16 13  1  0
 17  9  1  0
 19 13  1  0
 20  1  1  0
 20  2  1  0
 20 14  1  0
 22 15  2  3
 23 14  1  0
 16 23  1  1
 25 17  2  0
 26 17  1  0
 27 18  2  0
 28 18  1  0
 29 19  2  0
 30  3  1  0
 30 10  1  0
 31  4  1  0
 31 11  1  0
 32  8  1  0
 32 19  1  0
 33 16  1  0
 33 20  1  0
M  CHG  2  24  -1  26  -1
M  END
>  <DRUGBANK_ID>  (1) 
DB02443

>  <SECONDARY_ACCESSION_NUMBERS>  (1) 
EXPT02130

>  <COMMON_NAME>  (1) 
Methicillin Acyl-Serine

$$$$
