
     RDKit          2D

 26 28  0  0  0  0  0  0  0  0999 V2000
    2.2273    0.8897    0.0000 C   0  0  0  0  0  0  0  0  0  0  0  0
    0.7983    0.8897    0.0000 C   0  0  0  0  0  0  0  0  0  0  0  0
    2.2273    1.7147    0.0000 C   0  0  0  0  0  0  0  0  0  0  0  0
    0.7983    1.7147    0.0000 C   0  0  0  0  0  0  0  0  0  0  0  0
   -0.1107    0.2291    0.0000 C   0  0  0  0  0  0  0  0  0  0  0  0
   -0.5523   -1.1298    0.0000 C   0  0  0  0  0  0  0  0  0  0  0  0
   -0.8953    0.4841    0.0000 C   0  0  0  0  0  0  0  0  0  0  0  0
   -1.3369   -0.8748    0.0000 C   0  0  0  0  0  0  0  0  0  0  0  0
    2.1802   -0.8327    0.0000 C   0  0  0  0  0  0  0  0  0  0  0  0
    1.5128    0.4772    0.0000 C   0  0  0  0  0  0  0  0  0  0  0  0
    1.5128    2.1272    0.0000 C   0  0  0  0  0  0  0  0  0  0  0  0
    0.0607   -0.5777    0.0000 C   0  0  0  0  0  0  0  0  0  0  0  0
   -1.5084   -0.0678    0.0000 C   0  0  0  0  0  0  0  0  0  0  0  0
    1.5128   -0.3477    0.0000 C   0  0  0  0  0  0  0  0  0  0  0  0
    1.9253   -1.6173    0.0000 C   0  0  0  0  0  0  0  0  0  0  0  0
    2.4102   -2.2847    0.0000 C   0  0  0  0  0  0  0  0  0  0  0  0
    1.5128    2.9522    0.0000 Cl  0  0  0  0  0  0  0  0  0  0  0  0
    2.8951   -2.9522    0.0000 F   0  0  0  0  0  0  0  0  0  0  0  0
    1.7428   -2.7696    0.0000 F   0  0  0  0  0  0  0  0  0  0  0  0
    3.0777   -1.7998    0.0000 F   0  0  0  0  0  0  0  0  0  0  0  0
   -3.0777    0.4419    0.0000 N   0  0  0  0  0  0  0  0  0  0  0  0
    1.1003   -1.6173    0.0000 N   0  0  0  0  0  0  0  0  0  0  0  0
    0.8454   -0.8327    0.0000 N   0  0  0  0  0  0  0  0  0  0  0  0
   -2.0381    0.9716    0.0000 O   0  0  0  0  0  0  0  0  0  0  0  0
   -2.5480   -0.5975    0.0000 O   0  0  0  0  0  0  0  0  0  0  0  0
   -2.2930    0.1870    0.0000 S   0  0  0  0  0  0  0  0  0  0  0  0
  3  1  2  0
  4  2  1  0
  7  5  2  0
  8  6  1  0
 10  1  1  0
 10  2  2  0
 11  3  1  0
 11  4  2  0
 12  5  1  0
 12  6  2  0
 13  7  1  0
 13  8  2  0
 14  9  2  0
 14 10  1  0
 15  9  1  0
 16 15  1  0
 17 11  1  0
 18 16  1  0
 19 16  1  0
 20 16  1  0
 22 15  2  0
 23 12  1  0
 23 14  1  0
 23 22  1  0
 26 13  1  0
 26 21  1  0
 26 24  2  0
 26 25  2  0
M  END
>  <DRUGBANK_ID>  (1) 
DB14059

>  <COMMON_NAME>  (1) 
SC-236

>  <CAS_NUMBER>  (1) 
170569-86-5

>  <UNII>  (1) 
9HGW1H8S2M

$$$$
