
     RDKit          2D

  1  0  0  0  0  0  0  0  0  0999 V2000
    0.0000    0.0000    0.0000 Bi  0  0  0  0  0 15  0  0  0  0  0  0
M  CHG  1   1   3
M  END
>  <DRUGBANK_ID>  (1) 
DB14572

>  <COMMON_NAME>  (1) 
Bismuth cation

>  <CAS_NUMBER>  (1) 
23713-46-4

>  <UNII>  (1) 
ZS9CD1I8YE

>  <SYNONYMS>  (1) 
Bismut(III)-ion; bismuth(3+); bismuth(III) cation; bisumth(3+) ion; Wismut(III)-ion

$$$$
