
     RDKit          2D

 30 32  0  0  0  0  0  0  0  0999 V2000
    1.4404    1.5515    0.0000 F   0  0  0  0  0  0  0  0  0  0  0  0
   -1.4174    2.3765    0.0000 O   0  0  0  0  0  0  0  0  0  0  0  0
   -1.4174    4.0265    0.0000 O   0  0  0  0  0  0  0  0  0  0  0  0
   -2.1549   -2.3909    0.0000 O   0  0  0  0  0  0  0  0  0  0  0  0
    0.0115   -0.0984    0.0000 N   0  0  0  0  0  0  0  0  0  0  0  0
    0.0115    2.3765    0.0000 N   0  0  0  0  0  0  0  0  0  0  0  0
   -0.7029   -2.1609    0.0000 N   0  0  0  0  0  0  0  0  0  0  0  0
   -0.0354   -2.6458    0.0000 N   0  0  0  0  0  0  0  0  0  0  0  0
   -1.1154   -3.4304    0.0000 N   0  0  0  0  0  0  0  0  0  0  0  0
   -0.2904   -3.4304    0.0000 N   0  0  0  0  0  0  0  0  0  0  0  0
    0.0115    1.5515    0.0000 C   0  0  0  0  0  0  0  0  0  0  0  0
   -0.7029    1.1390    0.0000 C   0  0  0  0  0  0  0  0  0  0  0  0
    0.7260    1.1390    0.0000 C   0  0  0  0  0  0  0  0  0  0  0  0
   -0.7029    0.3140    0.0000 C   0  0  0  0  0  0  0  0  0  0  0  0
    0.7260    0.3140    0.0000 C   0  0  0  0  0  0  0  0  0  0  0  0
   -1.4174    1.5515    0.0000 C   0  0  0  0  0  0  0  0  0  0  0  0
    0.0115   -0.9234    0.0000 C   0  0  0  0  0  0  0  0  0  0  0  0
   -0.7029   -1.3359    0.0000 C   0  0  0  0  0  0  0  0  0  0  0  0
    0.7260    2.7890    0.0000 C   0  0  0  0  0  0  0  0  0  0  0  0
   -0.7029    2.7890    0.0000 C   0  0  0  0  0  0  0  0  0  0  0  0
   -0.7029    3.6140    0.0000 C   0  0  0  0  0  0  0  0  0  0  0  0
    1.4404    2.3765    0.0000 C   0  0  0  0  0  0  0  0  0  0  0  0
    0.7260    3.6140    0.0000 C   0  0  0  0  0  0  0  0  0  0  0  0
   -1.3703   -2.6458    0.0000 C   0  0  0  0  0  0  0  0  0  0  0  0
    2.1549    2.7890    0.0000 C   0  0  0  0  0  0  0  0  0  0  0  0
    1.4404    4.0265    0.0000 C   0  0  0  0  0  0  0  0  0  0  0  0
    2.1549    3.6140    0.0000 C   0  0  0  0  0  0  0  0  0  0  0  0
   -1.6003   -4.0979    0.0000 C   0  0  0  0  0  0  0  0  0  0  0  0
   -1.4174    4.8515    0.0000 C   0  0  0  0  0  0  0  0  0  0  0  0
   -1.2648   -4.8515    0.0000 C   0  0  0  0  0  0  0  0  0  0  0  0
  1 22  1  0
  2 20  2  0
  3 21  1  0
  3 29  1  0
  4 24  2  0
  5 14  1  0
  5 15  1  0
  5 17  1  0
  6 19  1  0
  6 20  1  0
  7  8  1  0
  7 18  1  0
  7 24  1  0
  8 10  2  0
  9 10  1  0
  9 24  1  0
  9 28  1  0
 11  6  1  1
 11 12  1  0
 11 13  1  0
 12 14  1  0
 12 16  1  1
 13 15  1  0
 17 18  1  0
 19 22  2  0
 19 23  1  0
 20 21  1  0
 22 25  1  0
 23 26  2  0
 25 27  2  0
 26 27  1  0
 28 30  1  0
M  END
>  <DRUGBANK_ID>  (1) 
DB09172

>  <COMMON_NAME>  (1) 
Brifentanil

>  <CAS_NUMBER>  (1) 
101345-71-5

>  <UNII>  (1) 
6GDT77PQBW

>  <SYNONYMS>  (1) 
Brifentanil

$$$$
