PRD
     RDKit          2D

 25 27  0  0  0  0  0  0  0  0999 V2000
    2.2292    0.4429    0.0000 C   0  0  0  0  0  0  0  0  0  0  0  0
    2.2292    1.2679    0.0000 C   0  0  0  0  0  0  0  0  0  0  0  0
    2.9436    1.6804    0.0000 N   0  0  0  0  0  0  0  0  0  0  0  0
    1.5147    1.6804    0.0000 N   0  0  0  0  0  0  0  0  0  0  0  0
    0.8002    1.2679    0.0000 C   0  0  0  0  0  0  0  0  0  0  0  0
    0.8002    0.4429    0.0000 C   0  0  0  0  0  0  0  0  0  0  0  0
    0.0858    0.0304    0.0000 N   0  0  0  0  0  0  0  0  0  0  0  0
    0.0858   -0.7946    0.0000 C   0  0  0  0  0  0  0  0  0  0  0  0
    1.5147    0.0304    0.0000 C   0  0  0  0  0  0  0  0  0  0  0  0
    2.9436    0.0304    0.0000 C   0  0  0  0  0  0  0  0  0  0  0  0
    2.9436   -0.7946    0.0000 N   0  0  0  0  0  0  0  0  0  0  0  0
    3.6581    0.4429    0.0000 N   0  0  0  0  0  0  0  0  0  0  0  0
    3.6581    1.2679    0.0000 C   0  0  0  0  0  0  0  0  0  0  0  0
    4.3726    1.6804    0.0000 N   0  0  0  0  0  0  0  0  0  0  0  0
   -0.6287    0.4429    0.0000 C   0  0  0  0  0  0  0  0  0  0  0  0
   -1.3432    0.0304    0.0000 C   0  0  0  0  0  0  0  0  0  0  0  0
   -1.3432   -0.7946    0.0000 C   0  0  0  0  0  0  0  0  0  0  0  0
   -2.0577   -1.2071    0.0000 C   0  0  0  0  0  0  0  0  0  0  0  0
   -2.7721   -0.7946    0.0000 C   0  0  0  0  0  0  0  0  0  0  0  0
   -2.7721    0.0304    0.0000 C   0  0  0  0  0  0  0  0  0  0  0  0
   -2.0577    0.4429    0.0000 C   0  0  0  0  0  0  0  0  0  0  0  0
   -0.6287   -1.2071    0.0000 O   0  0  0  0  0  0  0  0  0  0  0  0
   -0.6287   -2.0321    0.0000 C   0  0  0  0  0  0  0  0  0  0  0  0
   -3.4866    0.4429    0.0000 O   0  0  0  0  0  0  0  0  0  0  0  0
   -4.2011    0.0304    0.0000 C   0  0  0  0  0  0  0  0  0  0  0  0
  1  2  1  0
  1  9  1  0
  1 10  2  0
  2  3  2  0
  2  4  1  0
  3 13  1  0
  4  5  2  0
  5  6  1  0
  6  7  1  0
  6  9  2  0
  7  8  1  0
  7 15  1  0
 10 11  1  0
 10 12  1  0
 12 13  2  0
 13 14  1  0
 15 16  1  0
 16 17  2  0
 16 21  1  0
 17 18  1  0
 17 22  1  0
 18 19  2  0
 19 20  1  0
 20 21  2  0
 20 24  1  0
 22 23  1  0
 24 25  1  0
M  END
>  <DRUGBANK_ID>  (1) 
DB02583

>  <SECONDARY_ACCESSION_NUMBERS>  (1) 
EXPT02658

>  <COMMON_NAME>  (1) 
N6-(2,5-Dimethoxy-Benzyl)-N6-Methyl-Pyrido[2,3-D]Pyrimidine-2,4,6-Triamine

>  <CAS_NUMBER>  (1) 
175354-76-4

$$$$
