
     RDKit          2D

 28 33  0  0  1  0  0  0  0  0999 V2000
   -1.2740    0.6390    0.0000 C   0  0  0  0  0  0  0  0  0  0  0  0
   -0.4796    0.8614    0.0000 C   0  0  0  0  0  0  0  0  0  0  0  0
    0.1102    0.2846    0.0000 C   0  0  0  0  0  0  0  0  0  0  0  0
    0.9790    0.1882    0.0000 C   0  0  0  0  0  0  0  0  0  0  0  0
    0.9486    1.0227    0.0000 C   0  0  0  0  0  0  0  0  0  0  0  0
    1.5863    0.4317    0.0000 C   0  0  0  0  0  0  0  0  0  0  0  0
    2.4484    0.5794    0.0000 C   0  0  0  0  0  0  0  0  0  0  0  0
    2.6801   -0.2564    0.0000 C   0  0  0  0  0  0  0  0  0  0  0  0
    2.1224   -1.0718    0.0000 C   0  0  0  0  0  0  0  0  0  0  0  0
    1.3185   -1.1667    0.0000 C   0  0  0  0  0  0  0  0  0  0  0  0
    1.7556   -0.4483    0.0000 C   0  0  0  0  0  0  0  0  0  0  0  0
    2.6060   -0.9692    0.0000 C   0  0  0  0  0  0  0  0  0  0  0  0
    2.9714   -1.7088    0.0000 O   0  0  0  0  0  0  0  0  0  0  0  0
    3.7947   -1.7622    0.0000 C   0  0  0  0  0  0  0  0  0  0  0  0
    4.2526   -1.0759    0.0000 O   0  0  0  0  0  0  0  0  0  0  0  0
    4.1601   -2.5019    0.0000 C   0  0  0  0  0  0  0  0  0  0  0  0
    4.9834   -2.5553    0.0000 Cl  0  0  0  0  0  0  0  0  0  0  0  0
    1.0695   -0.3814    0.0000 N   0  0  0  0  0  0  0  0  0  0  0  0
    0.2197   -0.5345    0.0000 C   0  0  0  0  0  0  0  0  0  0  0  0
   -0.2663   -1.2012    0.0000 O   0  0  0  0  0  0  0  0  0  0  0  0
    3.5446   -0.1456    0.0000 C   0  0  0  0  0  0  0  0  0  0  0  0
    4.1981   -0.6492    0.0000 C   0  0  0  0  0  0  0  0  0  0  0  0
    4.9609   -0.3350    0.0000 C   0  0  0  0  0  0  0  0  0  0  0  0
    5.0703    0.4827    0.0000 C   0  0  0  0  0  0  0  0  0  0  0  0
    4.4168    0.9863    0.0000 C   0  0  0  0  0  0  0  0  0  0  0  0
    3.6539    0.6721    0.0000 C   0  0  0  0  0  0  0  0  0  0  0  0
    3.0168    1.2359    0.0000 N   0  0  0  0  0  0  0  0  0  0  0  0
    2.9621    2.0591    0.0000 C   0  0  0  0  0  0  0  0  0  0  0  0
  1  2  1  0
  3  2  1  1
  3  4  1  0
  3 19  1  0
  4  5  1  6
  4 11  1  0
  6  5  1  1
  6  7  1  0
  6 18  1  0
  7  8  1  0
  7 27  1  6
  8  9  1  0
  8 12  1  0
  8 21  1  6
 10  9  1  6
 10 18  1  0
 11 10  1  6
 11 12  1  0
 12 13  1  6
 13 14  1  0
 14 15  2  0
 14 16  1  0
 16 17  1  0
 18 19  1  0
 19 20  1  6
 21 22  2  0
 21 26  1  0
 22 23  1  0
 23 24  2  0
 24 25  1  0
 25 26  2  0
 26 27  1  0
 27 28  1  0
M  END
>  <DRUGBANK_ID>  (1) 
DB13651

>  <COMMON_NAME>  (1) 
Lorajmine

>  <CAS_NUMBER>  (1) 
47562-08-3

>  <UNII>  (1) 
F96VX65849

>  <SYNONYMS>  (1) 
Lorajmine

$$$$
