
     RDKit          2D

 11 10  0  0  0  0  0  0  0  0999 V2000
    0.7145   -0.2062    0.0000 N   0  0  0  0  0  0  0  0  0  0  0  0
    0.0000    0.2062    0.0000 C   0  0  0  0  0  0  0  0  0  0  0  0
    1.4290    0.2062    0.0000 C   0  0  0  0  0  0  0  0  0  0  0  0
   -0.7145   -0.2062    0.0000 C   0  0  0  0  0  0  0  0  0  0  0  0
    0.0000    1.0312    0.0000 O   0  0  0  0  0  0  0  0  0  0  0  0
    1.4290    1.0312    0.0000 O   0  0  0  0  0  0  0  0  0  0  0  0
    2.1434   -0.2062    0.0000 N   0  0  0  0  0  0  0  0  0  0  0  0
   -0.7145   -1.0312    0.0000 Br  0  0  0  0  0  0  0  0  0  0  0  0
   -1.4288    0.2062    0.0000 C   0  0  0  0  0  0  0  0  0  0  0  0
   -2.1433   -0.2062    0.0000 C   0  0  0  0  0  0  0  0  0  0  0  0
   -1.4288    1.0312    0.0000 C   0  0  0  0  0  0  0  0  0  0  0  0
  2  1  1  0
  3  1  1  0
  4  2  1  0
  5  2  2  0
  6  3  2  0
  7  3  1  0
  8  4  1  0
  9  4  1  0
 10  9  1  0
 11  9  1  0
M  END
>  <DRUGBANK_ID>  (1) 
DB13370

>  <COMMON_NAME>  (1) 
Bromisoval

>  <CAS_NUMBER>  (1) 
496-67-3

>  <UNII>  (1) 
469GW8R486

>  <SYNONYMS>  (1) 
Bromisoval; Bromisovalum

$$$$
