
     RDKit          2D

 18 20  0  0  0  0  0  0  0  0999 V2000
   -0.8962   -0.9655    0.0000 C   0  0  0  0  0  0  0  0  0  0  0  0
   -0.8962   -1.7906    0.0000 C   0  0  0  0  0  0  0  0  0  0  0  0
   -1.5975   -2.2032    0.0000 C   0  0  0  0  0  0  0  0  0  0  0  0
   -2.3401   -1.7906    0.0000 C   0  0  0  0  0  0  0  0  0  0  0  0
   -2.3401   -0.9655    0.0000 C   0  0  0  0  0  0  0  0  0  0  0  0
   -1.5975   -0.5530    0.0000 C   0  0  0  0  0  0  0  0  0  0  0  0
   -0.1123   -0.7180    0.0000 C   0  0  0  0  0  0  0  0  0  0  0  0
    0.3827   -1.3781    0.0000 C   0  0  0  0  0  0  0  0  0  0  0  0
   -0.1123   -2.0381    0.0000 O   0  0  0  0  0  0  0  0  0  0  0  0
   -1.5975    0.2720    0.0000 C   0  0  0  0  0  0  0  0  0  0  0  0
   -2.0099    0.9734    0.0000 C   0  0  0  0  0  0  0  0  0  0  0  0
   -1.1849    0.9734    0.0000 C   0  0  0  0  0  0  0  0  0  0  0  0
   -0.4687    1.3831    0.0000 C   0  0  0  0  0  0  0  0  0  0  0  0
    0.2316    0.9748    0.0000 N   0  0  0  0  0  0  0  0  0  0  0  0
    0.9367    1.3780    0.0000 C   0  0  0  0  0  0  0  0  0  0  0  0
    1.6330    0.9723    0.0000 C   0  0  0  0  0  0  0  0  0  0  0  0
    0.9367    2.2031    0.0000 O   0  0  0  0  0  0  0  0  0  0  0  0
    2.3401    1.3769    0.0000 C   0  0  0  0  0  0  0  0  0  0  0  0
  1  2  1  0
  1  6  2  0
  1  7  1  0
  2  3  2  0
  2  9  1  0
  3  4  1  0
  4  5  2  0
  5  6  1  0
  7  8  1  0
  8  9  1  0
 10  6  1  6
 11 12  1  0
 11 10  1  0
 12 10  1  0
 12 13  1  1
 13 14  1  0
 14 15  1  0
 15 16  1  0
 15 17  2  0
 16 18  1  0
M  END
>  <DRUGBANK_ID>  (1) 
DB09071

>  <SECONDARY_ACCESSION_NUMBERS>  (1) 
DB05359

>  <COMMON_NAME>  (1) 
Tasimelteon

>  <CAS_NUMBER>  (1) 
609799-22-6

>  <UNII>  (1) 
SHS4PU80D9

>  <SYNONYMS>  (1) 
N-{[(1R,2R)-2-(2,3-dihydro-1-benzofuran-4-yl)cyclopropyl]methyl}propanamide; Tasimelteon; Tasimelteón; Tasimeltéon; Tasimelteonum

$$$$
