
     RDKit          2D

 27 30  0  0  1  0  0  0  0  0999 V2000
   -2.1349   -0.6674    0.0000 C   0  0  0  0  0  0  0  0  0  0  0  0
   -1.3099   -0.6674    0.0000 S   0  0  0  0  0  0  0  0  0  0  0  0
   -1.3099   -1.4924    0.0000 O   0  0  0  0  0  0  0  0  0  0  0  0
   -1.3099    0.1576    0.0000 O   0  0  0  0  0  0  0  0  0  0  0  0
   -0.4849   -0.6674    0.0000 N   0  0  0  0  0  0  0  0  0  0  0  0
   -0.0000   -1.3349    0.0000 C   0  0  0  0  0  0  0  0  0  0  0  0
    0.7846   -1.0799    0.0000 C   0  0  0  0  0  0  0  0  0  0  0  0
    0.7846   -0.2549    0.0000 C   0  0  0  0  0  0  0  0  0  0  0  0
   -0.0000    0.0000    0.0000 N   0  0  0  0  0  0  0  0  0  0  0  0
    1.5692    0.0000    0.0000 C   0  0  0  0  0  0  0  0  0  0  0  0
    2.0542   -0.6674    0.0000 N   0  0  0  0  0  0  0  0  0  0  0  0
    1.5692   -1.3349    0.0000 C   0  0  0  0  0  0  0  0  0  0  0  0
    2.8792   -0.6674    0.0000 C   0  0  0  0  0  0  0  0  0  0  0  0
    3.2917    0.0470    0.0000 C   0  0  0  0  0  0  0  0  0  0  0  0
    4.1167    0.0470    0.0000 C   0  0  0  0  0  0  0  0  0  0  0  0
    4.5292   -0.6674    0.0000 C   0  0  0  0  0  0  0  0  0  0  0  0
    4.1167   -1.3819    0.0000 O   0  0  0  0  0  0  0  0  0  0  0  0
    3.2917   -1.3819    0.0000 C   0  0  0  0  0  0  0  0  0  0  0  0
    5.3542   -0.6674    0.0000 C   0  0  0  0  0  0  0  0  0  0  0  0
    5.7667    0.0470    0.0000 C   0  0  0  0  0  0  0  0  0  0  0  0
    6.5917    0.0470    0.0000 C   0  0  0  0  0  0  0  0  0  0  0  0
    7.0042   -0.6674    0.0000 C   0  0  0  0  0  0  0  0  0  0  0  0
    6.5917   -1.3819    0.0000 C   0  0  0  0  0  0  0  0  0  0  0  0
    5.7667   -1.3819    0.0000 C   0  0  0  0  0  0  0  0  0  0  0  0
    5.3542   -2.0964    0.0000 F   0  0  0  0  0  0  0  0  0  0  0  0
    7.0042    0.7615    0.0000 F   0  0  0  0  0  0  0  0  0  0  0  0
    4.5292    0.7615    0.0000 N   0  0  0  0  0  0  0  0  0  0  0  0
  1  2  1  0
  2  3  2  0
  2  4  2  0
  2  5  1  0
  5  6  1  0
  5  9  1  0
  6  7  2  0
  7  8  1  0
  7 12  1  0
  8  9  2  0
  8 10  1  0
 10 11  1  0
 11 12  1  0
 13 11  1  6
 13 14  1  0
 13 18  1  0
 14 15  1  0
 15 16  1  0
 15 27  1  6
 16 17  1  0
 16 19  1  1
 17 18  1  0
 19 20  2  0
 19 24  1  0
 20 21  1  0
 21 22  2  0
 21 26  1  0
 22 23  1  0
 23 24  2  0
 24 25  1  0
M  END
>  <DRUGBANK_ID>  (1) 
DB11992

>  <COMMON_NAME>  (1) 
Omarigliptin

>  <CAS_NUMBER>  (1) 
1226781-44-7

>  <UNII>  (1) 
CVP59Q4JE1

>  <SYNONYMS>  (1) 
Omarigliptin

$$$$
