LIM
     RDKit          2D

 18 17  0  0  0  0  0  0  0  0999 V2000
   -5.0142    0.1764    0.0000 C   0  0  0  0  0  0  0  0  0  0  0  0
   -4.2996   -0.2361    0.0000 C   0  0  0  0  0  0  0  0  0  0  0  0
   -3.5851    0.1764    0.0000 C   0  0  0  0  0  0  0  0  0  0  0  0
   -2.8706   -0.2361    0.0000 C   0  0  0  0  0  0  0  0  0  0  0  0
   -2.1561    0.1764    0.0000 C   0  0  0  0  0  0  0  0  0  0  0  0
   -1.4415   -0.2361    0.0000 C   0  0  0  0  0  0  0  0  0  0  0  0
   -0.7270    0.1764    0.0000 C   0  0  0  0  0  0  0  0  0  0  0  0
   -0.0125   -0.2361    0.0000 C   0  0  0  0  0  0  0  0  0  0  0  0
    0.7021    0.1764    0.0000 C   0  0  0  0  0  0  0  0  0  0  0  0
    1.4166   -0.2361    0.0000 C   0  0  0  0  0  0  0  0  0  0  0  0
    2.1311    0.1764    0.0000 C   0  0  0  0  0  0  0  0  0  0  0  0
    2.8456   -0.2361    0.0000 C   0  0  0  0  0  0  0  0  0  0  0  0
    3.5602    0.1764    0.0000 C   0  0  0  0  0  0  0  0  0  0  0  0
    4.2747   -0.2361    0.0000 C   0  0  0  0  0  0  0  0  0  0  0  0
    4.9892    0.1764    0.0000 C   0  0  0  0  0  0  0  0  0  0  0  0
   -5.7286   -0.2361    0.0000 O   0  0  0  0  0  0  0  0  0  0  0  0
   -3.5851    1.0015    0.0000 O   0  0  0  0  0  0  0  0  0  0  0  0
   -5.0142    1.0015    0.0000 O   0  0  0  0  0  0  0  0  0  0  0  0
  1  2  1  0
  1 16  2  0
  1 18  1  0
  2  3  1  0
  3  4  1  0
  3 17  2  0
  4  5  1  0
  5  6  1  0
  6  7  1  0
  7  8  1  0
  8  9  1  0
  9 10  1  0
 10 11  1  0
 11 12  1  0
 12 13  1  0
 13 14  1  0
 14 15  1  0
M  END
>  <DRUGBANK_ID>  (1) 
DB04039

>  <SECONDARY_ACCESSION_NUMBERS>  (1) 
EXPT02034

>  <COMMON_NAME>  (1) 
3-Oxo-Pentadecanoic Acid

$$$$
