
     RDKit          2D

 10 10  0  0  0  0  0  0  0  0999 V2000
    0.6594    0.6815    0.0000 S   0  0  0  0  0  0  0  0  0  0  0  0
    0.6594   -0.1435    0.0000 N   0  0  0  0  0  0  0  0  0  0  0  0
   -0.0551    1.0940    0.0000 O   0  0  0  0  0  0  0  0  0  0  0  0
    1.4841    0.7103    0.0000 O   0  0  0  0  0  0  0  0  0  0  0  0
    1.0967    1.3811    0.0000 O   0  0  0  0  0  0  0  0  0  0  0  0
   -0.0551   -0.5560    0.0000 C   0  0  0  0  0  0  0  0  0  0  0  0
   -0.7697    0.6815    0.0000 C   0  0  0  0  0  0  0  0  0  0  0  0
   -0.7696   -0.1435    0.0000 C   0  0  0  0  0  0  0  0  0  0  0  0
   -0.0551   -1.3811    0.0000 O   0  0  0  0  0  0  0  0  0  0  0  0
   -1.4841    1.0940    0.0000 C   0  0  0  0  0  0  0  0  0  0  0  0
  1  2  1  0
  1  3  1  0
  1  4  2  0
  1  5  2  0
  2  6  1  0
  3  7  1  0
  6  8  1  0
  6  9  2  0
  7 10  1  0
  7  8  2  0
M  END
>  <DRUGBANK_ID>  (1) 
DB16868

>  <COMMON_NAME>  (1) 
Acesulfame

>  <CAS_NUMBER>  (1) 
33665-90-6

>  <UNII>  (1) 
MA3UYZ6K1H

>  <SYNONYMS>  (1) 
Acesulfame; Acesulfamo; Acetosulfame

$$$$
