I19
     RDKit          2D

 33 36  0  0  0  0  0  0  0  0999 V2000
   -2.8922   13.3785    0.0000 C   0  0  0  0  0  0  0  0  0  0  0  0
   -2.1777   12.9660    0.0000 C   0  0  0  0  0  0  0  0  0  0  0  0
   -1.4632   13.3785    0.0000 C   0  0  0  0  0  0  0  0  0  0  0  0
   -2.1777   12.1410    0.0000 N   0  0  0  0  0  0  0  0  0  0  0  0
   -2.8451   11.6561    0.0000 C   0  0  0  0  0  0  0  0  0  0  0  0
   -3.6298   11.9110    0.0000 C   0  0  0  0  0  0  0  0  0  0  0  0
   -2.5902   10.8715    0.0000 N   0  0  0  0  0  0  0  0  0  0  0  0
   -1.7652   10.8715    0.0000 C   0  0  0  0  0  0  0  0  0  0  0  0
   -1.5103   11.6561    0.0000 C   0  0  0  0  0  0  0  0  0  0  0  0
   -0.7256   11.9110    0.0000 C   0  0  0  0  0  0  0  0  0  0  0  0
   -0.5541   12.7180    0.0000 N   0  0  0  0  0  0  0  0  0  0  0  0
    0.2305   12.9729    0.0000 C   0  0  0  0  0  0  0  0  0  0  0  0
    0.4020   13.7799    0.0000 N   0  0  0  0  0  0  0  0  0  0  0  0
    1.1867   14.0348    0.0000 C   0  0  0  0  0  0  0  0  0  0  0  0
    1.3582   14.8418    0.0000 C   0  0  0  0  0  0  0  0  0  0  0  0
    2.1428   15.0968    0.0000 C   0  0  0  0  0  0  0  0  0  0  0  0
    2.7559   14.5447    0.0000 C   0  0  0  0  0  0  0  0  0  0  0  0
    2.5844   13.7378    0.0000 C   0  0  0  0  0  0  0  0  0  0  0  0
    1.7998   13.4828    0.0000 C   0  0  0  0  0  0  0  0  0  0  0  0
    3.5405   14.7997    0.0000 C   0  0  0  0  0  0  0  0  0  0  0  0
    4.1536   14.2476    0.0000 O   0  0  0  0  0  0  0  0  0  0  0  0
    3.7121   15.6066    0.0000 N   0  0  0  0  0  0  0  0  0  0  0  0
    3.1600   16.2197    0.0000 C   0  0  0  0  0  0  0  0  0  0  0  0
    3.5725   16.9342    0.0000 C   0  0  0  0  0  0  0  0  0  0  0  0
    4.3795   16.7627    0.0000 C   0  0  0  0  0  0  0  0  0  0  0  0
    4.4657   15.9422    0.0000 C   0  0  0  0  0  0  0  0  0  0  0  0
    4.9926   17.3147    0.0000 N   0  0  0  0  0  0  0  0  0  0  0  0
    4.8211   18.1217    0.0000 C   0  0  0  0  0  0  0  0  0  0  0  0
    5.7772   17.0598    0.0000 C   0  0  0  0  0  0  0  0  0  0  0  0
    0.8436   12.4209    0.0000 N   0  0  0  0  0  0  0  0  0  0  0  0
    0.6721   11.6139    0.0000 C   0  0  0  0  0  0  0  0  0  0  0  0
   -0.1125   11.3590    0.0000 C   0  0  0  0  0  0  0  0  0  0  0  0
   -0.2841   10.5520    0.0000 F   0  0  0  0  0  0  0  0  0  0  0  0
  1  2  1  0
  2  3  1  0
  2  4  1  0
  4  5  1  0
  4  9  1  0
  5  6  1  0
  5  7  2  0
  7  8  1  0
  8  9  2  0
  9 10  1  0
 10 11  2  0
 10 32  1  0
 11 12  1  0
 12 13  1  0
 12 30  2  0
 13 14  1  0
 14 15  2  0
 14 19  1  0
 15 16  1  0
 16 17  2  0
 17 18  1  0
 17 20  1  0
 18 19  2  0
 20 21  2  0
 20 22  1  0
 22 23  1  0
 22 26  1  0
 23 24  1  0
 24 25  1  0
 25 26  1  0
 25 27  1  6
 27 28  1  0
 27 29  1  0
 30 31  1  0
 31 32  2  0
 32 33  1  0
M  END
>  <DRUGBANK_ID>  (1) 
DB07936

>  <COMMON_NAME>  (1) 
N-(4-{[(3S)-3-(dimethylamino)pyrrolidin-1-yl]carbonyl}phenyl)-5-fluoro-4-[2-methyl-1-(1-methylethyl)-1H-imidazol-5-yl]pyrimidin-2-amine

$$$$
