S14
     RDKit          2D

 31 34  0  0  0  0  0  0  0  0999 V2000
    2.1385    3.4221    0.0000 C   0  0  0  0  0  0  0  0  0  0  0  0
    2.5510    2.7076    0.0000 C   0  0  0  0  0  0  0  0  0  0  0  0
    2.1385    1.9931    0.0000 C   0  0  0  0  0  0  0  0  0  0  0  0
    1.3135    1.9931    0.0000 C   0  0  0  0  0  0  0  0  0  0  0  0
    0.9010    2.7076    0.0000 C   0  0  0  0  0  0  0  0  0  0  0  0
    1.3135    3.4221    0.0000 N   0  0  0  0  0  0  0  0  0  0  0  0
    1.0586    4.2067    0.0000 N   0  0  0  0  0  0  0  0  0  0  0  0
    1.7260    4.6916    0.0000 C   0  0  0  0  0  0  0  0  0  0  0  0
    2.3935    4.2067    0.0000 N   0  0  0  0  0  0  0  0  0  0  0  0
    0.9010    1.2787    0.0000 C   0  0  0  0  0  0  0  0  0  0  0  0
    1.3135    0.5642    0.0000 C   0  0  0  0  0  0  0  0  0  0  0  0
    0.9010   -0.1503    0.0000 C   0  0  0  0  0  0  0  0  0  0  0  0
    0.0760   -0.1503    0.0000 C   0  0  0  0  0  0  0  0  0  0  0  0
   -0.3365    0.5642    0.0000 C   0  0  0  0  0  0  0  0  0  0  0  0
    0.0760    1.2787    0.0000 C   0  0  0  0  0  0  0  0  0  0  0  0
   -0.3365   -0.8647    0.0000 C   0  0  0  0  0  0  0  0  0  0  0  0
   -1.1615   -0.8647    0.0000 C   0  0  0  0  0  0  0  0  0  0  0  0
   -1.5740   -1.5792    0.0000 C   0  0  0  0  0  0  0  0  0  0  0  0
   -2.3990   -1.5792    0.0000 N   0  0  0  0  0  0  0  0  0  0  0  0
    0.0760   -1.5792    0.0000 C   0  0  0  0  0  0  0  0  0  0  0  0
   -1.5740   -0.1503    0.0000 N   0  0  0  0  0  0  0  0  0  0  0  0
   -1.1615   -2.2937    0.0000 O   0  0  0  0  0  0  0  0  0  0  0  0
   -0.3365   -2.2937    0.0000 O   0  0  0  0  0  0  0  0  0  0  0  0
    0.9010   -1.5792    0.0000 N   0  0  0  0  0  0  0  0  0  0  0  0
    1.3135   -0.8647    0.0000 C   0  0  0  0  0  0  0  0  0  0  0  0
    1.3135   -2.2937    0.0000 C   0  0  0  0  0  0  0  0  0  0  0  0
   -2.8839   -2.2467    0.0000 C   0  0  0  0  0  0  0  0  0  0  0  0
   -3.6685   -1.9917    0.0000 C   0  0  0  0  0  0  0  0  0  0  0  0
   -3.6685   -1.1667    0.0000 C   0  0  0  0  0  0  0  0  0  0  0  0
   -2.8839   -0.9118    0.0000 C   0  0  0  0  0  0  0  0  0  0  0  0
   -4.3360   -2.4766    0.0000 F   0  0  0  0  0  0  0  0  0  0  0  0
  1  2  1  0
  1  6  1  0
  1  9  2  0
  2  3  2  0
  3  4  1  0
  4  5  2  0
  4 10  1  0
  5  6  1  0
  6  7  1  0
  7  8  2  0
  8  9  1  0
 10 11  2  0
 10 15  1  0
 11 12  1  0
 12 13  2  0
 13 14  1  0
 13 16  1  0
 14 15  2  0
 16 17  1  0
 16 20  1  6
 17 18  1  0
 17 21  1  1
 18 19  1  0
 18 22  2  0
 19 27  1  0
 19 30  1  0
 20 23  2  0
 20 24  1  0
 24 25  1  0
 24 26  1  0
 27 28  1  0
 28 29  1  0
 28 31  1  1
 29 30  1  0
M  END
>  <DRUGBANK_ID>  (1) 
DB08504

>  <COMMON_NAME>  (1) 
6-(4-{(1S,2S)-2-AMINO-1-[(DIMETHYLAMINO)CARBONYL]-3-[(3S)-3-FLUOROPYRROLIDIN-1-YL]-3-OXOPROPYL}PHENYL)-1H-[1,2,4]TRIAZOLO[1,5-A]PYRIDIN-4-IUM

$$$$
