CA2
     RDKit          2D

 22 23  0  0  0  0  0  0  0  0999 V2000
   -2.8760   -0.0339    0.0000 O   0  0  0  0  0  0  0  0  0  0  0  0
   -2.5938   -0.8092    0.0000 C   0  0  0  0  0  0  0  0  0  0  0  0
   -3.1241   -1.4412    0.0000 O   0  0  0  0  0  0  0  0  0  0  0  0
   -1.7814   -0.9524    0.0000 C   0  0  0  0  0  0  0  0  0  0  0  0
   -2.0635   -1.7277    0.0000 O   0  0  0  0  0  0  0  0  0  0  0  0
   -1.7814   -0.1274    0.0000 C   0  0  0  0  0  0  0  0  0  0  0  0
   -1.0669    0.2851    0.0000 C   0  0  0  0  0  0  0  0  0  0  0  0
   -0.3524   -0.1274    0.0000 C   0  0  0  0  0  0  0  0  0  0  0  0
    0.3620    0.2851    0.0000 O   0  0  0  0  0  0  0  0  0  0  0  0
   -0.3524   -0.9524    0.0000 C   0  0  0  0  0  0  0  0  0  0  0  0
    0.3620   -1.3649    0.0000 O   0  0  0  0  0  0  0  0  0  0  0  0
   -1.0669   -1.3649    0.0000 C   0  0  0  0  0  0  0  0  0  0  0  0
   -1.0669    1.1101    0.0000 C   0  0  0  0  0  0  0  0  0  0  0  0
   -0.3524    1.5226    0.0000 C   0  0  0  0  0  0  0  0  0  0  0  0
    0.3620    1.1101    0.0000 C   0  0  0  0  0  0  0  0  0  0  0  0
    1.0765    1.5226    0.0000 O   0  0  0  0  0  0  0  0  0  0  0  0
    1.7910    1.1101    0.0000 C   0  0  0  0  0  0  0  0  0  0  0  0
    2.5054    1.5226    0.0000 C   0  0  0  0  0  0  0  0  0  0  0  0
    3.2199    1.1101    0.0000 C   0  0  0  0  0  0  0  0  0  0  0  0
    3.2199    0.2851    0.0000 C   0  0  0  0  0  0  0  0  0  0  0  0
    2.5054   -0.1274    0.0000 C   0  0  0  0  0  0  0  0  0  0  0  0
    1.7910    0.2851    0.0000 C   0  0  0  0  0  0  0  0  0  0  0  0
  1  2  2  0
  2  3  1  0
  4  2  1  0
  4  5  1  1
  4  6  1  0
  4 12  1  0
  6  7  1  0
  7  8  1  0
  7 13  1  6
  8  9  1  1
  8 10  1  0
 10 11  1  6
 10 12  1  0
 13 14  1  0
 14 15  1  0
 15 16  1  0
 16 17  1  0
 17 18  2  0
 17 22  1  0
 18 19  1  0
 19 20  2  0
 20 21  1  0
 21 22  2  0
M  END
>  <DRUGBANK_ID>  (1) 
DB04656

>  <COMMON_NAME>  (1) 
1,3,4-TRIHYDROXY-5-(3-PHENOXYPROPYL)-CYCLOHEXANE-1-CARBOXYLIC A CID

$$$$
