
     RDKit          2D

 10 10  0  0  0  0  0  0  0  0999 V2000
   -1.4289   -0.8250    0.0000 C   0  0  0  0  0  0  0  0  0  0  0  0
   -0.7144   -0.4125    0.0000 C   0  0  0  0  0  0  0  0  0  0  0  0
   -2.1434   -0.4125    0.0000 C   0  0  0  0  0  0  0  0  0  0  0  0
   -2.1434    0.4125    0.0000 C   0  0  0  0  0  0  0  0  0  0  0  0
   -1.4289    0.8250    0.0000 C   0  0  0  0  0  0  0  0  0  0  0  0
   -0.7144    0.4125    0.0000 C   0  0  0  0  0  0  0  0  0  0  0  0
    0.0000    0.8250    0.0000 C   0  0  0  0  0  0  0  0  0  0  0  0
    0.7144    0.4125    0.0000 C   0  0  0  0  0  0  0  0  0  0  0  0
    1.4289    0.8250    0.0000 C   0  0  0  0  0  0  0  0  0  0  0  0
    2.1434    0.4125    0.0000 O   0  0  0  0  0  0  0  0  0  0  0  0
  1  2  2  0
  2  6  1  0
  3  1  1  0
  3  4  2  0
  4  5  1  0
  5  6  2  0
  6  7  1  0
  7  8  2  0
  8  9  1  0
  9 10  1  0
M  END
>  <DRUGBANK_ID>  (1) 
DB14186

>  <COMMON_NAME>  (1) 
Cinnamyl alcohol

>  <CAS_NUMBER>  (1) 
4407-36-7

>  <UNII>  (1) 
SS8YOP444F

>  <SYNONYMS>  (1) 
(2E)-3-phenylprop-2-en-1-ol; (E)-cinnamyl alcohol; Cinnamyl alcohol; Styrylcarbinol

$$$$
