
     RDKit          2D

 16 16  0  0  0  0  0  0  0  0999 V2000
   -2.8652    0.0000    0.0000 C   0  0  0  0  0  0  0  0  0  0  0  0
   -2.8652   -0.8250    0.0000 C   0  0  0  0  0  0  0  0  0  0  0  0
   -2.1508   -1.2375    0.0000 C   0  0  0  0  0  0  0  0  0  0  0  0
   -1.4363   -0.8250    0.0000 C   0  0  0  0  0  0  0  0  0  0  0  0
   -1.4363    0.0000    0.0000 C   0  0  0  0  0  0  0  0  0  0  0  0
   -2.1508    0.4125    0.0000 C   0  0  0  0  0  0  0  0  0  0  0  0
   -0.7070    0.4125    0.0000 O   0  0  0  0  0  0  0  0  0  0  0  0
    0.0074    0.0000    0.0000 C   0  0  0  0  0  0  0  0  0  0  0  0
    0.7218    0.4125    0.0000 C   0  0  0  0  0  0  0  0  0  0  0  0
    1.4363    0.0000    0.0000 N   0  0  0  0  0  0  0  0  0  0  0  0
    2.1508    0.4125    0.0000 N   0  0  0  0  0  0  0  0  0  0  0  0
    2.8652    0.0000    0.0000 C   0  0  0  0  0  0  0  0  0  0  0  0
    3.5797    0.4125    0.0000 C   0  0  0  0  0  0  0  0  0  0  0  0
   -3.5797   -1.2375    0.0000 Cl  0  0  0  0  0  0  0  0  0  0  0  0
    0.7218    1.2375    0.0000 O   0  0  0  0  0  0  0  0  0  0  0  0
    2.8652   -0.8250    0.0000 C   0  0  0  0  0  0  0  0  0  0  0  0
  1  2  2  0
  1  6  1  0
  2  3  1  0
  2 14  1  0
  3  4  2  0
  4  5  1  0
  5  6  2  0
  5  7  1  0
  7  8  1  0
  8  9  1  0
  9 10  1  0
  9 15  2  0
 10 11  1  0
 11 12  1  0
 12 13  1  0
 12 16  1  0
M  END
>  <DRUGBANK_ID>  (1) 
DB09247

>  <COMMON_NAME>  (1) 
Iproclozide

>  <CAS_NUMBER>  (1) 
3544-35-2

>  <UNII>  (1) 
1II9D6CB3J

>  <SYNONYMS>  (1) 
Iproclozide

$$$$
