124
     RDKit          2D

 19 21  0  0  0  0  0  0  0  0999 V2000
    1.9560    0.1081    0.0000 C   0  0  0  0  0  0  0  0  0  0  0  0
    1.9560   -0.7169    0.0000 C   0  0  0  0  0  0  0  0  0  0  0  0
    1.2416   -1.1294    0.0000 C   0  0  0  0  0  0  0  0  0  0  0  0
    0.5271   -0.7169    0.0000 C   0  0  0  0  0  0  0  0  0  0  0  0
    0.5271    0.1081    0.0000 C   0  0  0  0  0  0  0  0  0  0  0  0
    1.2416    0.5206    0.0000 C   0  0  0  0  0  0  0  0  0  0  0  0
    2.6705    0.5206    0.0000 C   0  0  0  0  0  0  0  0  0  0  0  0
    3.3850    0.1081    0.0000 N   0  0  0  0  0  0  0  0  0  0  0  0
    2.6705    1.3456    0.0000 N   0  0  0  0  0  0  0  0  0  0  0  0
   -0.2575   -0.9718    0.0000 N   0  0  0  0  0  0  0  0  0  0  0  0
   -0.2575    0.3630    0.0000 C   0  0  0  0  0  0  0  0  0  0  0  0
   -0.7424   -0.3044    0.0000 C   0  0  0  0  0  0  0  0  0  0  0  0
   -1.5674   -0.3044    0.0000 C   0  0  0  0  0  0  0  0  0  0  0  0
   -1.9799   -1.0189    0.0000 C   0  0  0  0  0  0  0  0  0  0  0  0
   -2.8049   -1.0189    0.0000 C   0  0  0  0  0  0  0  0  0  0  0  0
   -3.2174   -0.3044    0.0000 C   0  0  0  0  0  0  0  0  0  0  0  0
   -2.8049    0.4101    0.0000 C   0  0  0  0  0  0  0  0  0  0  0  0
   -1.9799    0.4101    0.0000 C   0  0  0  0  0  0  0  0  0  0  0  0
   -1.5674    1.1245    0.0000 O   0  0  0  0  0  0  0  0  0  0  0  0
  1  2  2  0
  1  6  1  0
  1  7  1  0
  2  3  1  0
  3  4  2  0
  4  5  1  0
  4 10  1  0
  5  6  2  0
  5 11  1  0
  7  8  1  0
  7  9  2  0
 10 12  1  0
 11 12  2  0
 12 13  1  0
 13 14  2  0
 13 18  1  0
 14 15  1  0
 15 16  2  0
 16 17  1  0
 17 18  2  0
 18 19  1  0
M  CHG  1   9   1
M  END
>  <DRUGBANK_ID>  (1) 
DB02463

>  <SECONDARY_ACCESSION_NUMBERS>  (1) 
EXPT00018

>  <COMMON_NAME>  (1) 
2-(2-Hydroxy-Phenyl)-1h-Indole-5-Carboxamidine

$$$$
