26U
     RDKit          2D

 25 26  0  0  0  0  0  0  0  0999 V2000
    0.3939   -0.9970    0.0000 N   0  0  0  0  0  0  0  0  0  0  0  0
   -0.3598   -0.6614    0.0000 C   0  0  0  0  0  0  0  0  0  0  0  0
   -0.5313    0.1455    0.0000 C   0  0  0  0  0  0  0  0  0  0  0  0
    0.0818    0.6976    0.0000 O   0  0  0  0  0  0  0  0  0  0  0  0
   -1.3159    0.4005    0.0000 N   0  0  0  0  0  0  0  0  0  0  0  0
   -1.4874    1.2075    0.0000 C   0  0  0  0  0  0  0  0  0  0  0  0
   -2.2721    1.4624    0.0000 C   0  0  0  0  0  0  0  0  0  0  0  0
   -2.8852    0.9104    0.0000 C   0  0  0  0  0  0  0  0  0  0  0  0
   -3.6698    1.1653    0.0000 C   0  0  0  0  0  0  0  0  0  0  0  0
   -3.8413    1.9723    0.0000 C   0  0  0  0  0  0  0  0  0  0  0  0
   -4.6259    2.2272    0.0000 C   0  0  0  0  0  0  0  0  0  0  0  0
   -4.7975    3.0342    0.0000 N   0  0  0  0  0  0  0  0  0  0  0  0
   -5.2390    1.6752    0.0000 N   0  0  0  0  0  0  0  0  0  0  0  0
   -3.2282    2.5243    0.0000 C   0  0  0  0  0  0  0  0  0  0  0  0
   -2.4436    2.2694    0.0000 C   0  0  0  0  0  0  0  0  0  0  0  0
   -0.9118   -1.2745    0.0000 C   0  0  0  0  0  0  0  0  0  0  0  0
   -0.4993   -1.9890    0.0000 C   0  0  0  0  0  0  0  0  0  0  0  0
    0.3077   -1.8175    0.0000 C   0  0  0  0  0  0  0  0  0  0  0  0
    1.1084   -0.5845    0.0000 C   0  0  0  0  0  0  0  0  0  0  0  0
    1.8229   -0.9970    0.0000 C   0  0  0  0  0  0  0  0  0  0  0  0
    2.5373   -0.5845    0.0000 C   0  0  0  0  0  0  0  0  0  0  0  0
    3.2518   -0.9970    0.0000 C   0  0  0  0  0  0  0  0  0  0  0  0
    3.9663   -0.5845    0.0000 C   0  0  0  0  0  0  0  0  0  0  0  0
    3.2518   -1.8220    0.0000 C   0  0  0  0  0  0  0  0  0  0  0  0
    1.1084    0.2405    0.0000 O   0  0  0  0  0  0  0  0  0  0  0  0
  1 19  1  0
  2  1  1  0
  2  3  1  1
  3  5  1  0
  4  3  2  0
  6  5  1  0
  6  7  1  0
  7  8  2  0
  7 15  1  0
  8  9  1  0
  9 10  2  0
 10 11  1  0
 11 12  2  0
 11 13  1  0
 14 10  1  0
 15 14  2  0
 16  2  1  0
 17 16  1  0
 17 18  1  0
 18  1  1  0
 19 25  2  0
 19 20  1  0
 20 21  1  0
 21 22  1  0
 22 23  1  0
 24 22  1  0
M  END
>  <DRUGBANK_ID>  (1) 
DB06936

>  <COMMON_NAME>  (1) 
N-(4-carbamimidoylbenzyl)-1-(4-methylpentanoyl)-L-prolinamide

$$$$
