
     RDKit          2D

 21 23  0  0  0  0  0  0  0  0999 V2000
   -0.9194    0.6187    0.0000 C   0  0  0  0  0  0  0  0  0  0  0  0
   -1.4044    1.2861    0.0000 N   0  0  0  0  0  0  0  0  0  0  0  0
   -2.1890    1.0312    0.0000 C   0  0  0  0  0  0  0  0  0  0  0  0
   -2.1890    0.2062    0.0000 C   0  0  0  0  0  0  0  0  0  0  0  0
   -1.4044   -0.0486    0.0000 N   0  0  0  0  0  0  0  0  0  0  0  0
   -2.9035    1.4437    0.0000 C   0  0  0  0  0  0  0  0  0  0  0  0
   -3.6180    1.0312    0.0000 C   0  0  0  0  0  0  0  0  0  0  0  0
   -3.6180    0.2062    0.0000 C   0  0  0  0  0  0  0  0  0  0  0  0
   -2.9035   -0.2062    0.0000 C   0  0  0  0  0  0  0  0  0  0  0  0
   -2.9035   -1.0312    0.0000 C   0  0  0  0  0  0  0  0  0  0  0  0
   -3.6180   -1.4437    0.0000 O   0  0  0  0  0  0  0  0  0  0  0  0
   -2.1890   -1.4437    0.0000 N   0  0  0  0  0  0  0  0  0  0  0  0
    1.5555    0.6187    0.0000 N   0  0  0  0  0  0  0  0  0  0  0  0
    1.1430   -0.0957    0.0000 C   0  0  0  0  0  0  0  0  0  0  0  0
    0.3180   -0.0957    0.0000 C   0  0  0  0  0  0  0  0  0  0  0  0
   -0.0944    0.6187    0.0000 C   0  0  0  0  0  0  0  0  0  0  0  0
    0.3180    1.3332    0.0000 C   0  0  0  0  0  0  0  0  0  0  0  0
    1.1430    1.3332    0.0000 C   0  0  0  0  0  0  0  0  0  0  0  0
    2.3805    0.6186    0.0000 C   0  0  0  0  0  0  0  0  0  0  0  0
    2.7930    1.3332    0.0000 C   0  0  0  0  0  0  0  0  0  0  0  0
    3.6180    1.3332    0.0000 C   0  0  0  0  0  0  0  0  0  0  0  0
  1  2  2  0
  1  5  1  0
  1 16  1  0
  2  3  1  0
  3  4  2  0
  4  5  1  0
  6  7  2  0
  6  3  1  0
  7  8  1  0
  8  9  2  0
  9  4  1  0
  9 10  1  0
 10 11  2  0
 10 12  1  0
 13 14  1  0
 13 18  1  0
 13 19  1  0
 14 15  1  0
 15 16  1  0
 16 17  1  0
 17 18  1  0
 19 20  1  0
 20 21  1  0
M  END
>  <DRUGBANK_ID>  (1) 
DB07330

>  <COMMON_NAME>  (1) 
A-620223

>  <CAS_NUMBER>  (1) 
272769-49-0

>  <UNII>  (1) 
01FPW436S6

>  <SYNONYMS>  (1) 
trans-4-(7-carbamoyl-1H-benzimidazol-2-yl)-1-propylpiperidinium

$$$$
