
     RDKit          2D

 17 18  0  0  0  0  0  0  0  0999 V2000
    2.0367    3.6509    0.0000 C   0  0  0  0  0  0  0  0  0  0  0  0
    2.3387   -1.3312    0.0000 C   0  0  0  0  0  0  0  0  0  0  0  0
    3.1637   -1.3312    0.0000 C   0  0  0  0  0  0  0  0  0  0  0  0
    2.0367    2.0009    0.0000 C   0  0  0  0  0  0  0  0  0  0  0  0
    2.0367    1.1759    0.0000 C   0  0  0  0  0  0  0  0  0  0  0  0
    2.0837   -0.5465    0.0000 C   0  0  0  0  0  0  0  0  0  0  0  0
    3.4186   -0.5465    0.0000 C   0  0  0  0  0  0  0  0  0  0  0  0
    3.4656    2.0009    0.0000 C   0  0  0  0  0  0  0  0  0  0  0  0
    2.7512    3.2384    0.0000 C   0  0  0  0  0  0  0  0  0  0  0  0
    2.7512    2.4134    0.0000 C   0  0  0  0  0  0  0  0  0  0  0  0
    3.4656    1.1759    0.0000 C   0  0  0  0  0  0  0  0  0  0  0  0
    2.7512    0.7634    0.0000 C   0  0  0  0  0  0  0  0  0  0  0  0
    3.4656    3.6509    0.0000 C   0  0  0  0  0  0  0  0  0  0  0  0
    4.1801    0.7634    0.0000 Cl  0  0  0  0  0  0  0  0  0  0  0  0
    2.7512   -0.0616    0.0000 N   0  0  0  0  0  0  0  0  0  0  0  0
    3.4656    4.4759    0.0000 O   0  0  0  0  0  0  0  0  0  0  0  0
    4.1801    3.2384    0.0000 O   0  0  0  0  0  0  0  0  0  0  0  0
  3  2  2  0
  5  4  2  0
  6  2  1  0
  7  3  1  0
  9  1  1  0
 10  4  1  0
 10  8  2  0
 10  9  1  0
 11  8  1  0
 12  5  1  0
 12 11  2  0
 13  9  1  0
 14 11  1  0
 15  6  1  0
 15  7  1  0
 15 12  1  0
 16 13  2  0
 17 13  1  0
M  END
>  <DRUGBANK_ID>  (1) 
DB13722

>  <COMMON_NAME>  (1) 
Pirprofen

>  <CAS_NUMBER>  (1) 
31793-07-4

>  <UNII>  (1) 
T7KN291890

>  <SYNONYMS>  (1) 
Pirprofen

$$$$
