CPU
     RDKit          2D

 19 20  0  0  0  0  0  0  0  0999 V2000
   -3.5898   -0.1425    0.0000 C   0  0  0  0  0  0  0  0  0  0  0  0
   -4.3043    0.2700    0.0000 C   0  0  0  0  0  0  0  0  0  0  0  0
   -4.3043    1.0950    0.0000 C   0  0  0  0  0  0  0  0  0  0  0  0
   -3.5898    1.5075    0.0000 C   0  0  0  0  0  0  0  0  0  0  0  0
   -2.8753    1.0950    0.0000 C   0  0  0  0  0  0  0  0  0  0  0  0
   -2.8753    0.2700    0.0000 C   0  0  0  0  0  0  0  0  0  0  0  0
   -0.0175    0.2700    0.0000 N   0  0  0  0  0  0  0  0  0  0  0  0
   -2.1609   -0.1425    0.0000 C   0  0  0  0  0  0  0  0  0  0  0  0
   -1.4464    0.2700    0.0000 C   0  0  0  0  0  0  0  0  0  0  0  0
   -0.7319   -0.1425    0.0000 C   0  0  0  0  0  0  0  0  0  0  0  0
    0.6970   -0.1425    0.0000 C   0  0  0  0  0  0  0  0  0  0  0  0
    0.6970   -0.9675    0.0000 O   0  0  0  0  0  0  0  0  0  0  0  0
    1.4115    0.2700    0.0000 N   0  0  0  0  0  0  0  0  0  0  0  0
    2.1260   -0.1425    0.0000 C   0  0  0  0  0  0  0  0  0  0  0  0
    2.8404    0.2700    0.0000 C   0  0  0  0  0  0  0  0  0  0  0  0
    3.5549   -0.1425    0.0000 C   0  0  0  0  0  0  0  0  0  0  0  0
    3.5549   -0.9675    0.0000 C   0  0  0  0  0  0  0  0  0  0  0  0
    2.8404   -1.3800    0.0000 C   0  0  0  0  0  0  0  0  0  0  0  0
    2.1260   -0.9675    0.0000 C   0  0  0  0  0  0  0  0  0  0  0  0
  1  2  2  0
  1  6  1  0
  2  3  1  0
  3  4  2  0
  4  5  1  0
  5  6  2  0
  6  8  1  0
  7 10  1  0
  7 11  1  0
  8  9  1  0
  9 10  1  0
 11 12  2  0
 11 13  1  0
 13 14  1  0
 14 15  1  0
 14 19  1  0
 15 16  1  0
 16 17  1  0
 17 18  1  0
 18 19  1  0
M  END
>  <DRUGBANK_ID>  (1) 
DB04213

>  <SECONDARY_ACCESSION_NUMBERS>  (1) 
EXPT01006

>  <COMMON_NAME>  (1) 
N-Cyclohexyl-N'-(Propyl)Phenyl Urea

$$$$
