
     RDKit          2D

 32 35  0  0  0  0  0  0  0  0999 V2000
   -5.2195   -1.9357    0.0000 C   0  0  0  0  0  0  0  0  0  0  0  0
   -5.2195   -1.1107    0.0000 C   0  0  0  0  0  0  0  0  0  0  0  0
   -4.5049   -0.6982    0.0000 C   0  0  0  0  0  0  0  0  0  0  0  0
   -4.5049   -2.3482    0.0000 C   0  0  0  0  0  0  0  0  0  0  0  0
   -3.7905   -1.9357    0.0000 C   0  0  0  0  0  0  0  0  0  0  0  0
   -3.0760   -2.3482    0.0000 C   0  0  0  0  0  0  0  0  0  0  0  0
   -2.3615   -1.9357    0.0000 C   0  0  0  0  0  0  0  0  0  0  0  0
   -2.3615   -1.1107    0.0000 C   0  0  0  0  0  0  0  0  0  0  0  0
   -1.6471   -0.6982    0.0000 C   0  0  0  0  0  0  0  0  0  0  0  0
   -0.8625   -0.9531    0.0000 C   0  0  0  0  0  0  0  0  0  0  0  0
   -0.3775   -0.2857    0.0000 C   0  0  0  0  0  0  0  0  0  0  0  0
   -0.8625    0.3817    0.0000 C   0  0  0  0  0  0  0  0  0  0  0  0
   -1.6471    0.1267    0.0000 C   0  0  0  0  0  0  0  0  0  0  0  0
   -1.6471    0.9517    0.0000 C   0  0  0  0  0  0  0  0  0  0  0  0
   -2.3615    0.5392    0.0000 C   0  0  0  0  0  0  0  0  0  0  0  0
   -3.0760    0.1267    0.0000 C   0  0  0  0  0  0  0  0  0  0  0  0
   -3.0760   -0.6982    0.0000 C   0  0  0  0  0  0  0  0  0  0  0  0
   -3.7905   -1.1107    0.0000 C   0  0  0  0  0  0  0  0  0  0  0  0
   -3.7905   -0.2857    0.0000 C   0  0  0  0  0  0  0  0  0  0  0  0
   -5.9339   -2.3482    0.0000 O   0  0  0  0  0  0  0  0  0  0  0  0
   -0.6075    1.1663    0.0000 O   0  0  0  0  0  0  0  0  0  0  0  0
    0.1994    1.3378    0.0000 C   0  0  0  0  0  0  0  0  0  0  0  0
    0.4129    2.1347    0.0000 C   0  0  0  0  0  0  0  0  0  0  0  0
    1.2098    2.3482    0.0000 C   0  0  0  0  0  0  0  0  0  0  0  0
    1.7931    1.7649    0.0000 C   0  0  0  0  0  0  0  0  0  0  0  0
    2.5900    1.9784    0.0000 C   0  0  0  0  0  0  0  0  0  0  0  0
    3.1734    1.3950    0.0000 C   0  0  0  0  0  0  0  0  0  0  0  0
    3.9703    1.6085    0.0000 C   0  0  0  0  0  0  0  0  0  0  0  0
    4.5537    1.0252    0.0000 C   0  0  0  0  0  0  0  0  0  0  0  0
    5.3505    1.2387    0.0000 C   0  0  0  0  0  0  0  0  0  0  0  0
    5.9339    0.6554    0.0000 C   0  0  0  0  0  0  0  0  0  0  0  0
    0.7827    0.7544    0.0000 O   0  0  0  0  0  0  0  0  0  0  0  0
  1  2  1  0
  1  4  1  0
  1 20  2  0
  2  3  1  0
  3 18  1  0
  4  5  2  0
  5  6  1  0
  5 18  1  0
  6  7  1  0
  8  7  1  6
  8  9  1  0
  8 17  1  0
  9 10  1  1
  9 13  1  0
 10 11  1  0
 11 12  1  0
 12 13  1  0
 12 21  1  1
 13 14  1  1
 13 15  1  0
 15 16  1  0
 17 16  1  1
 17 18  1  0
 18 19  1  1
 21 22  1  0
 22 23  1  0
 22 32  2  0
 23 24  1  0
 24 25  1  0
 25 26  1  0
 26 27  1  0
 27 28  1  0
 28 29  1  0
 29 30  1  0
 30 31  1  0
M  END
>  <DRUGBANK_ID>  (1) 
DB16001

>  <COMMON_NAME>  (1) 
Testosterone decanoate

>  <CAS_NUMBER>  (1) 
5721-91-5

>  <UNII>  (1) 
IJW60LAO6S

$$$$
