
     RDKit          2D

 28 30  0  0  0  0  0  0  0  0999 V2000
   -2.9646    9.7152    0.0000 C   0  0  0  0  0  0  0  0  0  0  0  0
   -2.9646   10.5402    0.0000 O   0  0  0  0  0  0  0  0  0  0  0  0
   -2.2501   10.9527    0.0000 C   0  0  0  0  0  0  0  0  0  0  0  0
   -2.2501   11.7777    0.0000 C   0  0  0  0  0  0  0  0  0  0  0  0
   -1.5356   12.1902    0.0000 C   0  0  0  0  0  0  0  0  0  0  0  0
   -0.8212   11.7777    0.0000 C   0  0  0  0  0  0  0  0  0  0  0  0
   -0.8212   10.9527    0.0000 C   0  0  0  0  0  0  0  0  0  0  0  0
   -1.5356   10.5402    0.0000 C   0  0  0  0  0  0  0  0  0  0  0  0
   -1.5356    9.7152    0.0000 C   0  0  0  0  0  0  0  0  0  0  0  0
   -2.2501    9.3027    0.0000 O   0  0  0  0  0  0  0  0  0  0  0  0
   -0.8212    9.3027    0.0000 N   0  0  0  0  0  0  0  0  0  0  0  0
   -0.8212    8.4777    0.0000 C   0  0  0  0  0  0  0  0  0  0  0  0
   -0.1067    8.0652    0.0000 C   0  0  0  0  0  0  0  0  0  0  0  0
    0.6078    8.4777    0.0000 C   0  0  0  0  0  0  0  0  0  0  0  0
    1.3222    8.0652    0.0000 C   0  0  0  0  0  0  0  0  0  0  0  0
    1.3222    7.2402    0.0000 N   0  0  0  0  0  0  0  0  0  0  0  0
    0.6078    6.8277    0.0000 C   0  0  0  0  0  0  0  0  0  0  0  0
   -0.1067    7.2402    0.0000 C   0  0  0  0  0  0  0  0  0  0  0  0
    2.0367    6.8277    0.0000 C   0  0  0  0  0  0  0  0  0  0  0  0
    2.0367    6.0027    0.0000 C   0  0  0  0  0  0  0  0  0  0  0  0
    2.7512    5.5902    0.0000 C   0  0  0  0  0  0  0  0  0  0  0  0
    2.7512    4.7652    0.0000 N   0  0  0  0  0  0  0  0  0  0  0  0
    3.4186    4.2803    0.0000 C   0  0  0  0  0  0  0  0  0  0  0  0
    3.1637    3.4956    0.0000 C   0  0  0  0  0  0  0  0  0  0  0  0
    2.3387    3.4956    0.0000 N   0  0  0  0  0  0  0  0  0  0  0  0
    2.0837    4.2803    0.0000 N   0  0  0  0  0  0  0  0  0  0  0  0
   -0.1067   12.1902    0.0000 Cl  0  0  0  0  0  0  0  0  0  0  0  0
   -1.5356   13.0152    0.0000 N   0  0  0  0  0  0  0  0  0  0  0  0
  1  2  1  0
  2  3  1  0
  3  4  2  0
  3  8  1  0
  4  5  1  0
  5  6  2  0
  5 28  1  0
  6  7  1  0
  6 27  1  0
  7  8  2  0
  8  9  1  0
  9 10  2  0
  9 11  1  0
 11 12  1  0
 12 13  1  0
 13 14  1  0
 13 18  1  0
 14 15  1  0
 15 16  1  0
 16 17  1  0
 16 19  1  0
 17 18  1  0
 19 20  1  0
 20 21  1  0
 21 22  1  0
 22 23  1  0
 22 26  1  0
 23 24  2  0
 24 25  1  0
 25 26  2  0
M  END
>  <DRUGBANK_ID>  (1) 
DB12853

>  <COMMON_NAME>  (1) 
DA-6886

>  <CAS_NUMBER>  (1) 
1342815-16-0

>  <UNII>  (1) 
J6388YJ4YR

$$$$
