
     RDKit          2D

 10  9  0  0  0  0  0  0  0  0999 V2000
    0.0016    0.0084    0.0000 C   0  0  0  0  0  0  0  0  0  0  0  0
    0.0016   -0.8166    0.0000 C   0  0  0  0  0  0  0  0  0  0  0  0
   -0.7129    0.4209    0.0000 C   0  0  0  0  0  0  0  0  0  0  0  0
   -0.7129   -1.2291    0.0000 C   0  0  0  0  0  0  0  0  0  0  0  0
   -1.4274    0.0084    0.0000 C   0  0  0  0  0  0  0  0  0  0  0  0
   -1.4274   -0.8166    0.0000 C   0  0  0  0  0  0  0  0  0  0  0  0
    0.7145    0.4159    0.0000 C   0  0  0  0  0  0  0  0  0  0  0  0
    0.7118    1.2390    0.0000 O   0  0  0  0  0  0  0  0  0  0  0  0
    1.4274    0.0064    0.0000 O   0  0  0  0  0  0  0  0  0  0  0  0
    0.7185   -1.2390    0.0000 C   0  0  0  0  0  0  0  0  0  0  0  0
  1  7  1  0
  2 10  1  0
  3  1  1  0
  4  2  1  0
  5  3  1  0
  6  4  1  0
  6  5  1  0
  7  8  2  0
  7  9  1  0
M  END
>  <DRUGBANK_ID>  (1) 
DB04519

>  <SECONDARY_ACCESSION_NUMBERS>  (1) 
EXPT02413

>  <COMMON_NAME>  (1) 
Caprylic acid

>  <CAS_NUMBER>  (1) 
124-07-2

>  <UNII>  (1) 
OBL58JN025

>  <SYNONYMS>  (1) 
1-heptanecarboxylic acid; Acide octanoïque; Acide octanoique; ácido octanoico; Acidum octanocium; Acidum octanoicum; C8:0; Caprylic acid; Kaprylsäure; n-caprylic acid; n-octanoic acid; n-Octoic acid; n-octylic acid; Octanoic acid; Octoic acid; Octylic acid

$$$$
