
     RDKit          2D

 27 30  0  0  1  0  0  0  0  0999 V2000
   -0.2888    0.8402    0.0000 C   0  0  0  0  0  0  0  0  0  0  0  0
    0.5291    0.7325    0.0000 C   0  0  0  0  0  0  0  0  0  0  0  0
    0.2134   -0.0297    0.0000 C   0  0  0  0  0  0  0  0  0  0  0  0
    0.5291   -0.7919    0.0000 C   0  0  0  0  0  0  0  0  0  0  0  0
    1.2913   -1.1076    0.0000 C   0  0  0  0  0  0  0  0  0  0  0  0
    2.0535   -0.7919    0.0000 C   0  0  0  0  0  0  0  0  0  0  0  0
    2.3692   -0.0297    0.0000 C   0  0  0  0  0  0  0  0  0  0  0  0
    2.0535    0.7325    0.0000 C   0  0  0  0  0  0  0  0  0  0  0  0
    1.2913    1.0482    0.0000 C   0  0  0  0  0  0  0  0  0  0  0  0
    1.0219   -0.0297    0.0000 N   0  0  0  0  0  0  0  0  0  0  0  0
    0.3544    0.4552    0.0000 C   0  0  0  0  0  0  0  0  0  0  0  0
    3.1942   -0.0297    0.0000 O   0  0  0  0  0  0  0  0  0  0  0  0
    3.6067   -0.7442    0.0000 C   0  0  0  0  0  0  0  0  0  0  0  0
    4.4317   -0.7442    0.0000 O   0  0  0  0  0  0  0  0  0  0  0  0
    3.1942   -1.4586    0.0000 C   0  0  0  0  0  0  0  0  0  0  0  0
    3.9087   -1.8711    0.0000 C   0  0  0  0  0  0  0  0  0  0  0  0
    4.6624   -1.5356    0.0000 C   0  0  0  0  0  0  0  0  0  0  0  0
    5.2144   -2.1487    0.0000 C   0  0  0  0  0  0  0  0  0  0  0  0
    4.8019   -2.8631    0.0000 C   0  0  0  0  0  0  0  0  0  0  0  0
    3.9950   -2.6916    0.0000 S   0  0  0  0  0  0  0  0  0  0  0  0
    2.7817   -2.1731    0.0000 C   0  0  0  0  0  0  0  0  0  0  0  0
    1.9613   -2.2593    0.0000 C   0  0  0  0  0  0  0  0  0  0  0  0
    1.7897   -3.0663    0.0000 C   0  0  0  0  0  0  0  0  0  0  0  0
    2.5042   -3.4788    0.0000 C   0  0  0  0  0  0  0  0  0  0  0  0
    3.1173   -2.9268    0.0000 S   0  0  0  0  0  0  0  0  0  0  0  0
    2.4798   -1.0461    0.0000 O   0  0  0  0  0  0  0  0  0  0  0  0
    0.4214    1.5504    0.0000 C   0  0  0  0  0  0  0  0  0  0  0  0
  1  2  1  0
  2  3  1  0
  2  9  1  0
  2 27  1  0
  3  4  1  0
  5  4  1  1
  5  6  1  0
  5 10  1  0
  6  7  1  0
  7  8  1  0
  7 12  1  6
  9  8  1  6
  9 10  1  0
 10 11  1  0
 12 13  1  0
 13 14  2  0
 13 15  1  0
 15 16  1  0
 15 21  1  0
 15 26  1  0
 16 17  2  0
 16 20  1  0
 17 18  1  0
 18 19  2  0
 19 20  1  0
 21 22  2  0
 21 25  1  0
 22 23  1  0
 23 24  2  0
 24 25  1  0
M  END
>  <DRUGBANK_ID>  (1) 
DB13448

>  <COMMON_NAME>  (1) 
Mazaticol

>  <CAS_NUMBER>  (1) 
42024-98-6

>  <UNII>  (1) 
I6X824OGWZ

>  <SYNONYMS>  (1) 
Mazaticol

$$$$
