
     RDKit          2D

 10 10  0  0  0  0  0  0  0  0999 V2000
   -0.0053    0.0000    0.0000 C   0  0  0  0  0  0  0  0  0  0  0  0
   -0.0053   -0.8250    0.0000 C   0  0  0  0  0  0  0  0  0  0  0  0
   -0.7198    0.4125    0.0000 C   0  0  0  0  0  0  0  0  0  0  0  0
   -0.7198   -1.2375    0.0000 C   0  0  0  0  0  0  0  0  0  0  0  0
   -1.4342    0.0000    0.0000 C   0  0  0  0  0  0  0  0  0  0  0  0
   -1.4342   -0.8250    0.0000 C   0  0  0  0  0  0  0  0  0  0  0  0
    0.7091    0.4125    0.0000 C   0  0  0  0  0  0  0  0  0  0  0  0
    0.7091    1.2375    0.0000 O   0  0  0  0  0  0  0  0  0  0  0  0
    1.4342    0.0213    0.0000 O   0  0  0  0  0  0  0  0  0  0  0  0
   -0.7198    1.2375    0.0000 S   0  0  0  0  0  0  0  0  0  0  0  0
  1  7  1  0
  2  1  2  0
  3  1  1  0
  3 10  1  0
  4  2  1  0
  5  3  2  0
  6  4  2  0
  6  5  1  0
  8  7  2  0
  9  7  1  0
M  END
>  <DRUGBANK_ID>  (1) 
DB14026

>  <COMMON_NAME>  (1) 
Thiosalicylic acid

>  <CAS_NUMBER>  (1) 
147-93-3

>  <UNII>  (1) 
CIP6LXN5XW

>  <SYNONYMS>  (1) 
2-Carboxythiophenol; 2-Mercaptobenzoic acid; 2-Sulfanylbenzoic acid; 2-Thiosalicylic acid; o-Benzoic acid thiol; o-Carboxythiophenol; o-Mercaptobenzoic acid; o-Mercaptobenzösäure; o-Sulfhydrylbenzoic acid; o-Thiosalicylic acid; Thiophenol-2-carboxylic acid; Thiosalicylate; Thiosalicylic acid

$$$$
