ADD
     RDKit          2D

 24 24  0  0  0  0  0  0  0  0999 V2000
   -4.2658   -0.1139    0.0000 C   0  0  0  0  0  0  0  0  0  0  0  0
   -4.9802    0.2986    0.0000 O   0  0  0  0  0  0  0  0  0  0  0  0
   -4.2658   -0.9389    0.0000 O   0  0  0  0  0  0  0  0  0  0  0  0
   -3.5513    0.2986    0.0000 C   0  0  0  0  0  0  0  0  0  0  0  0
   -3.5513    1.1236    0.0000 C   0  0  0  0  0  0  0  0  0  0  0  0
   -2.8368   -0.1139    0.0000 C   0  0  0  0  0  0  0  0  0  0  0  0
   -2.8368   -0.9389    0.0000 N   0  0  0  0  0  0  0  0  0  0  0  0
   -2.1224    0.2986    0.0000 C   0  0  0  0  0  0  0  0  0  0  0  0
   -1.4079   -0.1139    0.0000 C   0  0  0  0  0  0  0  0  0  0  0  0
   -0.6934    0.2986    0.0000 C   0  0  0  0  0  0  0  0  0  0  0  0
   -0.6934    1.1236    0.0000 C   0  0  0  0  0  0  0  0  0  0  0  0
    0.0210   -0.1139    0.0000 C   0  0  0  0  0  0  0  0  0  0  0  0
    0.7355    0.2986    0.0000 C   0  0  0  0  0  0  0  0  0  0  0  0
    0.7355    1.1236    0.0000 C   0  0  0  0  0  0  0  0  0  0  0  0
    1.4500   -0.1139    0.0000 C   0  0  0  0  0  0  0  0  0  0  0  0
    1.4500   -0.9389    0.0000 O   0  0  0  0  0  0  0  0  0  0  0  0
    2.1645   -1.3514    0.0000 C   0  0  0  0  0  0  0  0  0  0  0  0
    2.1645    0.2986    0.0000 C   0  0  0  0  0  0  0  0  0  0  0  0
    2.8789   -0.1139    0.0000 C   0  0  0  0  0  0  0  0  0  0  0  0
    3.5934    0.2986    0.0000 C   0  0  0  0  0  0  0  0  0  0  0  0
    4.3079   -0.1139    0.0000 C   0  0  0  0  0  0  0  0  0  0  0  0
    4.3079   -0.9389    0.0000 C   0  0  0  0  0  0  0  0  0  0  0  0
    3.5934   -1.3514    0.0000 C   0  0  0  0  0  0  0  0  0  0  0  0
    2.8789   -0.9389    0.0000 C   0  0  0  0  0  0  0  0  0  0  0  0
  1  2  2  0
  1  3  1  0
  1  4  1  0
  4  5  1  1
  4  6  1  0
  6  7  1  6
  6  8  1  0
  8  9  1  0
  9 10  1  0
 10 11  1  1
 10 12  1  0
 12 13  1  0
 13 14  1  6
 13 15  1  0
 15 16  1  0
 15 18  1  6
 16 17  1  0
 18 19  1  0
 19 20  2  0
 19 24  1  0
 20 21  1  0
 21 22  2  0
 22 23  1  0
 23 24  2  0
M  END
>  <DRUGBANK_ID>  (1) 
DB02506

>  <SECONDARY_ACCESSION_NUMBERS>  (1) 
EXPT00428

>  <COMMON_NAME>  (1) 
2,6,8-Trimethyl-3-Amino-9-Benzyl-9-Methoxynonanoic Acid

$$$$
