P44
     RDKit          2D

 26 29  0  0  0  0  0  0  0  0999 V2000
   -1.6674   -0.8531    0.0000 N   0  0  0  0  0  0  0  0  0  0  0  0
   -2.1523   -0.1856    0.0000 C   0  0  0  0  0  0  0  0  0  0  0  0
   -1.6674    0.4818    0.0000 C   0  0  0  0  0  0  0  0  0  0  0  0
   -0.8828    0.2269    0.0000 C   0  0  0  0  0  0  0  0  0  0  0  0
   -0.8828   -0.5981    0.0000 N   0  0  0  0  0  0  0  0  0  0  0  0
   -0.1683    0.6394    0.0000 N   0  0  0  0  0  0  0  0  0  0  0  0
    0.5462    0.2269    0.0000 C   0  0  0  0  0  0  0  0  0  0  0  0
    0.5462   -0.5981    0.0000 N   0  0  0  0  0  0  0  0  0  0  0  0
   -0.1683   -1.0106    0.0000 C   0  0  0  0  0  0  0  0  0  0  0  0
   -0.1683   -1.8356    0.0000 N   0  0  0  0  0  0  0  0  0  0  0  0
   -0.8828   -2.2481    0.0000 C   0  0  0  0  0  0  0  0  0  0  0  0
   -0.8828   -3.0731    0.0000 C   0  0  0  0  0  0  0  0  0  0  0  0
   -1.5972   -3.4856    0.0000 C   0  0  0  0  0  0  0  0  0  0  0  0
   -2.3117   -3.0731    0.0000 C   0  0  0  0  0  0  0  0  0  0  0  0
   -2.3117   -2.2481    0.0000 C   0  0  0  0  0  0  0  0  0  0  0  0
   -1.5972   -1.8356    0.0000 C   0  0  0  0  0  0  0  0  0  0  0  0
    1.2606    0.6394    0.0000 N   0  0  0  0  0  0  0  0  0  0  0  0
    1.2606    1.4644    0.0000 C   0  0  0  0  0  0  0  0  0  0  0  0
    1.9751    1.8769    0.0000 C   0  0  0  0  0  0  0  0  0  0  0  0
    1.9751    2.7019    0.0000 C   0  0  0  0  0  0  0  0  0  0  0  0
    2.6896    3.1144    0.0000 C   0  0  0  0  0  0  0  0  0  0  0  0
    3.4041    2.7019    0.0000 C   0  0  0  0  0  0  0  0  0  0  0  0
    3.4041    1.8769    0.0000 C   0  0  0  0  0  0  0  0  0  0  0  0
    2.6896    1.4644    0.0000 C   0  0  0  0  0  0  0  0  0  0  0  0
   -1.9223    1.2664    0.0000 C   0  0  0  0  0  0  0  0  0  0  0  0
   -2.1773    2.0510    0.0000 N   0  0  0  0  0  0  0  0  0  0  0  0
  1  2  2  0
  1  5  1  0
  2  3  1  0
  3 25  1  0
  3  4  2  0
  4  6  1  0
  4  5  1  0
  5  9  1  0
  6  7  2  0
  7 17  1  0
  7  8  1  0
  8  9  2  0
  9 10  1  0
 10 11  1  0
 11 12  2  0
 11 16  1  0
 12 13  1  0
 13 14  2  0
 14 15  1  0
 15 16  2  0
 17 18  1  0
 18 19  1  0
 19 20  1  0
 19 24  1  0
 20 21  1  0
 21 22  1  0
 22 23  1  0
 23 24  1  0
 25 26  3  0
M  END
>  <DRUGBANK_ID>  (1) 
DB08353

>  <COMMON_NAME>  (1) 
2-(CYCLOHEXYLMETHYLAMINO)-4-(PHENYLAMINO)PYRAZOLO[1,5-A][1,3,5]TRIAZINE-8-CARBONITRILE

$$$$
