
     RDKit          2D

 23 25  0  0  1  0  0  0  0  0999 V2000
    1.2757    0.8364    0.0000 C   0  0  0  0  0  0  0  0  0  0  0  0
    0.6307    0.3220    0.0000 C   0  0  0  0  0  0  0  0  0  0  0  0
    0.6307   -0.5030    0.0000 C   0  0  0  0  0  0  0  0  0  0  0  0
    1.2757   -1.0173    0.0000 C   0  0  0  0  0  0  0  0  0  0  0  0
    2.0800   -0.8338    0.0000 C   0  0  0  0  0  0  0  0  0  0  0  0
    2.4380   -0.0905    0.0000 C   0  0  0  0  0  0  0  0  0  0  0  0
    2.0800    0.6528    0.0000 C   0  0  0  0  0  0  0  0  0  0  0  0
    3.2630   -0.0905    0.0000 C   0  0  0  0  0  0  0  0  0  0  0  0
    3.6755    0.6240    0.0000 C   0  0  0  0  0  0  0  0  0  0  0  0
    4.5005    0.6240    0.0000 C   0  0  0  0  0  0  0  0  0  0  0  0
    4.9130   -0.0905    0.0000 C   0  0  0  0  0  0  0  0  0  0  0  0
    5.7380   -0.0905    0.0000 I   0  0  0  0  0  0  0  0  0  0  0  0
    4.5005   -0.8049    0.0000 C   0  0  0  0  0  0  0  0  0  0  0  0
    3.6755   -0.8049    0.0000 C   0  0  0  0  0  0  0  0  0  0  0  0
    2.5944   -1.4788    0.0000 C   0  0  0  0  0  0  0  0  0  0  0  0
    3.4102   -1.3558    0.0000 O   0  0  0  0  0  0  0  0  0  0  0  0
    2.2930   -2.2467    0.0000 O   0  0  0  0  0  0  0  0  0  0  0  0
    1.4772   -2.3697    0.0000 C   0  0  0  0  0  0  0  0  0  0  0  0
    1.0440   -0.0905    0.0000 N   0  0  0  0  0  0  0  0  0  0  0  0
    0.2190   -0.0905    0.0000 C   0  0  0  0  0  0  0  0  0  0  0  0
   -0.1935    0.6240    0.0000 C   0  0  0  0  0  0  0  0  0  0  0  0
    0.2190    1.3385    0.0000 C   0  0  0  0  0  0  0  0  0  0  0  0
   -0.1935    2.0529    0.0000 F   0  0  0  0  0  0  0  0  0  0  0  0
  1  2  1  1
  1  7  1  0
  1 19  1  0
  2  3  1  0
  4  3  1  1
  4 19  1  0
  5  4  1  0
  5  6  1  0
  5 15  1  6
  6  7  1  0
  6  8  1  6
  8  9  2  0
  8 14  1  0
  9 10  1  0
 10 11  2  0
 11 12  1  0
 11 13  1  0
 13 14  2  0
 15 16  2  0
 15 17  1  0
 17 18  1  0
 19 20  1  0
 20 21  1  0
 21 22  1  0
 22 23  1  0
M  ISO  1  23  18
M  END
>  <DRUGBANK_ID>  (1) 
DB16913

>  <COMMON_NAME>  (1) 
Ioflupane F-18

>  <CAS_NUMBER>  (1) 
186381-69-1

>  <UNII>  (1) 
NT4P0L3OCX

>  <SYNONYMS>  (1) 
(18f)fp-cit; 18f-beta-cit-fp; 18f-cit-fp; 18f-fp-.beta.-cit; 18f-fpcit; 18f-ioflupane; 18fluorine-n-3-fluoropropyl-2beta-carbomethoxy-3beta-(4-iodophenyl) nortropane; 8-azabicyclo(3.2.1)octane-2-carboxylic acid, 8-(3-(fluoro-18f)propyl)-3-(4-iodophenyl)-, methyl ester, (1r,2s,3s,5s)-; F-18-fpcit; Methyl (1s,3s,4s,5r)-8-(3-fluoranylpropyl)-3-(4-iodophenyl)-8-azabicyclo(3.2.1)octane-4-carboxylate

$$$$
