
     RDKit          2D

 15 16  0  0  0  0  0  0  0  0999 V2000
   -0.7183   -1.2395    0.0000 O   0  0  0  0  0  0  0  0  0  0  0  0
   -0.0048   -0.8304    0.0000 C   0  0  0  0  0  0  0  0  0  0  0  0
   -0.0048   -0.0036    0.0000 C   0  0  0  0  0  0  0  0  0  0  0  0
   -0.7183    0.4138    0.0000 O   0  0  0  0  0  0  0  0  0  0  0  0
   -1.4320   -0.8304    0.0000 C   0  0  0  0  0  0  0  0  0  0  0  0
   -1.4294   -0.0054    0.0000 C   0  0  0  0  0  0  0  0  0  0  0  0
   -2.1413    0.4074    0.0000 C   0  0  0  0  0  0  0  0  0  0  0  0
   -2.8563   -0.0034    0.0000 C   0  0  0  0  0  0  0  0  0  0  0  0
   -2.8549   -0.8315    0.0000 C   0  0  0  0  0  0  0  0  0  0  0  0
   -2.1423   -1.2406    0.0000 C   0  0  0  0  0  0  0  0  0  0  0  0
    0.7122    0.4076    0.0000 C   0  0  0  0  0  0  0  0  0  0  0  0
    1.4240   -0.0036    0.0000 N   0  0  0  0  0  0  0  0  0  0  0  0
    2.1380    0.4138    0.0000 C   0  0  0  0  0  0  0  0  0  0  0  0
    2.8563    0.0045    0.0000 N   0  0  0  0  0  0  0  0  0  0  0  0
    2.1334    1.2406    0.0000 N   0  0  0  0  0  0  0  0  0  0  0  0
  1  2  1  0
  2  3  1  0
  3  4  1  0
  3 11  1  0
  5  6  2  0
  5  1  1  0
  6  4  1  0
  6  7  1  0
  7  8  2  0
  8  9  1  0
  9 10  2  0
 10  5  1  0
 11 12  1  0
 12 13  1  0
 13 14  1  0
 13 15  2  0
M  END
>  <DRUGBANK_ID>  (1) 
DB13211

>  <COMMON_NAME>  (1) 
Guanoxan

>  <CAS_NUMBER>  (1) 
2165-19-7

>  <UNII>  (1) 
9V0MRL0R5Y

>  <SYNONYMS>  (1) 
Guanoxan; Guanoxano; Guanoxanum

$$$$
