
     RDKit          2D

 11 11  0  0  0  0  0  0  0  0999 V2000
    0.0000    1.8716    0.0000 S   0  0  0  0  0  0  0  0  0  0  0  0
    0.0000   -1.4286    0.0000 O   0  0  0  0  0  0  0  0  0  0  0  0
    0.7145    2.2842    0.0000 O   0  0  0  0  0  0  0  0  0  0  0  0
   -0.7146    2.2842    0.0000 O   0  0  0  0  0  0  0  0  0  0  0  0
    0.0000   -0.6035    0.0000 C   0  0  0  0  0  0  0  0  0  0  0  0
    0.0000    1.0465    0.0000 C   0  0  0  0  0  0  0  0  0  0  0  0
   -0.7146   -0.1910    0.0000 C   0  0  0  0  0  0  0  0  0  0  0  0
    0.7145   -0.1910    0.0000 C   0  0  0  0  0  0  0  0  0  0  0  0
   -0.7146    0.6339    0.0000 C   0  0  0  0  0  0  0  0  0  0  0  0
    0.7145    0.6339    0.0000 C   0  0  0  0  0  0  0  0  0  0  0  0
   -0.7146   -1.8411    0.0000 C   0  0  0  0  0  0  0  0  0  0  0  0
  1  3  1  0
  1  4  2  0
  1  6  1  0
  2  5  1  0
  2 11  1  0
  5  7  2  0
  5  8  1  0
  6  9  2  0
  6 10  1  0
  7  9  1  0
  8 10  2  0
M  CHG  1   3  -1
M  END
>  <DRUGBANK_ID>  (1) 
DB03033

>  <SECONDARY_ACCESSION_NUMBERS>  (1) 
EXPT02236

>  <COMMON_NAME>  (1) 
4-methoxybenzenesulfinate

>  <SYNONYMS>  (1) 
1-methyloxy-4-sulfone-benzene

$$$$
