
     RDKit          2D

 33 34  0  0  0  0  0  0  0  0999 V2000
    2.5007    1.0312    0.0000 C   0  0  0  0  0  0  0  0  0  0  0  0
    3.2151    0.6187    0.0000 C   0  0  0  0  0  0  0  0  0  0  0  0
    3.9296    1.0312    0.0000 C   0  0  0  0  0  0  0  0  0  0  0  0
    3.9296    1.8563    0.0000 C   0  0  0  0  0  0  0  0  0  0  0  0
    3.2151    2.2687    0.0000 C   0  0  0  0  0  0  0  0  0  0  0  0
    2.5007    1.8563    0.0000 C   0  0  0  0  0  0  0  0  0  0  0  0
    4.6442    0.6187    0.0000 C   0  0  0  0  0  0  0  0  0  0  0  0
    5.3586    1.0312    0.0000 N   0  0  0  0  0  0  0  0  0  0  0  0
    1.0717   -0.6187    0.0000 P   0  0  0  0  0  0  0  0  0  0  0  0
    0.6592    0.0956    0.0000 O   0  0  0  0  0  0  0  0  0  0  0  0
    0.3572   -1.0312    0.0000 C   0  0  0  0  0  0  0  0  0  0  0  0
    0.3572   -1.8563    0.0000 C   0  0  0  0  0  0  0  0  0  0  0  0
    1.0717   -2.2687    0.0000 C   0  0  0  0  0  0  0  0  0  0  0  0
   -0.3572   -2.2687    0.0000 C   0  0  0  0  0  0  0  0  0  0  0  0
   -0.3572   -0.6187    0.0000 N   0  0  0  0  0  0  0  0  0  0  0  0
   -1.0717   -1.0312    0.0000 S   0  0  0  0  0  0  0  0  0  0  0  0
   -1.4842   -0.3167    0.0000 O   0  0  0  0  0  0  0  0  0  0  0  0
   -0.6592   -1.7458    0.0000 O   0  0  0  0  0  0  0  0  0  0  0  0
   -1.7862   -1.4438    0.0000 C   0  0  0  0  0  0  0  0  0  0  0  0
   -2.5007   -1.0312    0.0000 C   0  0  0  0  0  0  0  0  0  0  0  0
   -3.2151   -1.4438    0.0000 C   0  0  0  0  0  0  0  0  0  0  0  0
   -3.9296   -1.0312    0.0000 C   0  0  0  0  0  0  0  0  0  0  0  0
   -4.6442   -1.4438    0.0000 C   0  0  0  0  0  0  0  0  0  0  0  0
   -5.3586   -1.0312    0.0000 C   0  0  0  0  0  0  0  0  0  0  0  0
   -5.3586   -0.2062    0.0000 C   0  0  0  0  0  0  0  0  0  0  0  0
   -4.6442    0.2062    0.0000 C   0  0  0  0  0  0  0  0  0  0  0  0
   -3.9296   -0.2062    0.0000 C   0  0  0  0  0  0  0  0  0  0  0  0
    1.4842   -1.3332    0.0000 O   0  0  0  0  0  0  0  0  0  0  0  0
    1.7862    0.6187    0.0000 C   0  0  0  0  0  0  0  0  0  0  0  0
    1.1372    1.1404    0.0000 C   0  0  0  0  0  0  0  0  0  0  0  0
    0.3572    0.6187    0.0000 O   0  0  0  0  0  0  0  0  0  0  0  0
    1.0717    1.8563    0.0000 O   0  0  0  0  0  0  0  0  0  0  0  0
    1.7862   -0.2062    0.0000 C   0  0  0  0  0  0  0  0  0  0  0  0
  1  2  2  0
  1  6  1  0
  1 29  1  0
  2  3  1  0
  3  4  2  0
  3  7  1  0
  4  5  1  0
  5  6  2  0
  7  8  1  0
  9 10  2  0
  9 11  1  0
  9 28  1  0
  9 33  1  0
 11 12  1  0
 11 15  1  6
 12 13  1  0
 12 14  1  0
 15 16  1  0
 16 17  2  0
 16 18  2  0
 16 19  1  0
 19 20  1  0
 20 21  1  0
 21 22  1  0
 22 23  2  0
 22 27  1  0
 23 24  1  0
 24 25  2  0
 25 26  1  0
 26 27  2  0
 29 33  1  6
 29 30  1  0
 30 31  2  0
 30 32  1  0
M  END
>  <DRUGBANK_ID>  (1) 
DB07136

>  <COMMON_NAME>  (1) 
BX-528

>  <CAS_NUMBER>  (1) 
607837-17-2

>  <UNII>  (1) 
60045PL22T

$$$$
