27A
     RDKit          2D

 19 20  0  0  0  0  0  0  0  0999 V2000
   -1.5579    2.3008    0.0000 C   0  0  0  0  0  0  0  0  0  0  0  0
   -0.8434    1.8883    0.0000 C   0  0  0  0  0  0  0  0  0  0  0  0
   -0.8434    1.0633    0.0000 C   0  0  0  0  0  0  0  0  0  0  0  0
   -1.5579    0.6508    0.0000 C   0  0  0  0  0  0  0  0  0  0  0  0
   -2.2724    1.0633    0.0000 C   0  0  0  0  0  0  0  0  0  0  0  0
   -2.2724    1.8883    0.0000 C   0  0  0  0  0  0  0  0  0  0  0  0
    0.5855    1.0633    0.0000 C   0  0  0  0  0  0  0  0  0  0  0  0
    1.3000    0.6508    0.0000 C   0  0  0  0  0  0  0  0  0  0  0  0
    0.5855   -0.5867    0.0000 C   0  0  0  0  0  0  0  0  0  0  0  0
   -0.1289   -0.1742    0.0000 C   0  0  0  0  0  0  0  0  0  0  0  0
    2.0145   -0.5867    0.0000 C   0  0  0  0  0  0  0  0  0  0  0  0
   -1.5579   -0.1742    0.0000 C   0  0  0  0  0  0  0  0  0  0  0  0
   -1.5579   -1.8242    0.0000 C   0  0  0  0  0  0  0  0  0  0  0  0
   -1.5579   -2.6492    0.0000 N   0  0  0  0  0  0  0  0  0  0  0  0
   -2.2724   -1.4117    0.0000 S   0  0  0  0  0  0  0  0  0  0  0  0
   -0.8434   -1.4117    0.0000 N   0  0  0  0  0  0  0  0  0  0  0  0
   -0.8434   -0.5867    0.0000 N   0  0  0  0  0  0  0  0  0  0  0  0
   -0.1289    0.6508    0.0000 N   0  0  0  0  0  0  0  0  0  0  0  0
    1.3000   -0.1742    0.0000 N   0  0  0  0  0  0  0  0  0  0  0  0
  1  2  2  0
  1  6  1  0
  2  3  1  0
  3  4  2  0
  3 18  1  0
  4  5  1  0
  4 12  1  0
  5  6  2  0
  7  8  1  0
  7 18  1  0
  8 19  1  0
  9 10  1  0
  9 19  1  0
 10 18  1  0
 11 19  1  0
 12 17  1  0
 13 14  1  0
 13 15  2  0
 13 16  1  0
 16 17  2  0
M  END
>  <DRUGBANK_ID>  (1) 
DB06941

>  <COMMON_NAME>  (1) 
(Z)-2-[2-(4-methylpiperazin-1-yl)benzyl]diazenecarbothioamide

$$$$
