
     RDKit          2D

 14 15  0  0  0  0  0  0  0  0999 V2000
    2.0793   -0.2612    0.0000 S   0  0  0  0  0  0  0  0  0  0  0  0
    0.6616    1.3365    0.0000 O   0  0  0  0  0  0  0  0  0  0  0  0
   -0.1510   -0.3295    0.0000 N   0  0  0  0  0  0  0  0  0  0  0  0
    0.8319   -1.3224    0.0000 N   0  0  0  0  0  0  0  0  0  0  0  0
   -0.5051    0.4154    0.0000 C   0  0  0  0  0  0  0  0  0  0  0  0
   -1.3302    0.4195    0.0000 C   0  0  0  0  0  0  0  0  0  0  0  0
   -0.1435    1.1570    0.0000 C   0  0  0  0  0  0  0  0  0  0  0  0
   -1.7391    1.1360    0.0000 C   0  0  0  0  0  0  0  0  0  0  0  0
    1.3040    0.8189    0.0000 C   0  0  0  0  0  0  0  0  0  0  0  0
    0.6523   -0.5171    0.0000 C   0  0  0  0  0  0  0  0  0  0  0  0
    1.3000   -0.0060    0.0000 C   0  0  0  0  0  0  0  0  0  0  0  0
   -2.5641    1.1401    0.0000 C   0  0  0  0  0  0  0  0  0  0  0  0
    2.0860    1.0664    0.0000 C   0  0  0  0  0  0  0  0  0  0  0  0
    2.5641    0.4001    0.0000 C   0  0  0  0  0  0  0  0  0  0  0  0
  1 11  1  0
  1 14  1  0
  2  7  1  0
  2  9  1  0
  3  5  1  0
  3 10  2  0
  4 10  1  0
  5  6  1  1
  5  7  1  0
  6  8  1  0
  8 12  1  0
  9 11  2  0
  9 13  1  0
 10 11  1  0
 13 14  2  0
M  END
>  <DRUGBANK_ID>  (1) 
DB07001

>  <COMMON_NAME>  (1) 
(3S,5E)-3-propyl-3,4-dihydrothieno[2,3-f][1,4]oxazepin-5(2H)-imine

$$$$
