
     RDKit          2D

 24 27  0  0  0  0  0  0  0  0999 V2000
   -1.8062   -2.5989    0.0000 C   0  0  0  0  0  0  0  0  0  0  0  0
   -1.8920   -1.7765    0.0000 O   0  0  0  0  0  0  0  0  0  0  0  0
   -1.2262   -1.2915    0.0000 C   0  0  0  0  0  0  0  0  0  0  0  0
   -0.4354   -1.5460    0.0000 C   0  0  0  0  0  0  0  0  0  0  0  0
    0.0499   -0.8765    0.0000 C   0  0  0  0  0  0  0  0  0  0  0  0
    0.8749   -0.8765    0.0000 C   0  0  0  0  0  0  0  0  0  0  0  0
    1.3599   -1.5423    0.0000 C   0  0  0  0  0  0  0  0  0  0  0  0
    2.1462   -1.2895    0.0000 C   0  0  0  0  0  0  0  0  0  0  0  0
    2.8607   -1.7020    0.0000 C   0  0  0  0  0  0  0  0  0  0  0  0
    3.5750   -1.2896    0.0000 C   0  0  0  0  0  0  0  0  0  0  0  0
    3.5749   -0.4646    0.0000 C   0  0  0  0  0  0  0  0  0  0  0  0
    2.8606   -0.0520    0.0000 C   0  0  0  0  0  0  0  0  0  0  0  0
    2.1462   -0.4645    0.0000 C   0  0  0  0  0  0  0  0  0  0  0  0
    1.3604   -0.2072    0.0000 N   0  0  0  0  0  0  0  0  0  0  0  0
   -0.4378   -0.2058    0.0000 N   0  0  0  0  0  0  0  0  0  0  0  0
   -1.2212   -0.4637    0.0000 C   0  0  0  0  0  0  0  0  0  0  0  0
   -1.8907    0.0218    0.0000 C   0  0  0  0  0  0  0  0  0  0  0  0
   -1.8071    0.8413    0.0000 C   0  0  0  0  0  0  0  0  0  0  0  0
   -1.0927    1.2538    0.0000 N   0  0  0  0  0  0  0  0  0  0  0  0
   -1.2664    2.0658    0.0000 C   0  0  0  0  0  0  0  0  0  0  0  0
   -0.7150    2.6792    0.0000 C   0  0  0  0  0  0  0  0  0  0  0  0
   -2.0860    2.1492    0.0000 C   0  0  0  0  0  0  0  0  0  0  0  0
   -2.4206    1.3926    0.0000 C   0  0  0  0  0  0  0  0  0  0  0  0
   -3.2274    1.2219    0.0000 C   0  0  0  0  0  0  0  0  0  0  0  0
  1  2  1  0
  2  3  1  0
  3  4  2  0
  3 16  1  0
  4  5  1  0
  5  6  1  0
  5 15  2  0
  6  7  2  0
  6 14  1  0
  7  8  1  0
  8  9  2  0
  8 13  1  0
  9 10  1  0
 10 11  2  0
 11 12  1  0
 12 13  2  0
 13 14  1  0
 15 16  1  0
 16 17  2  0
 17 18  1  0
 18 19  1  0
 18 23  2  0
 19 20  1  0
 20 21  1  0
 20 22  2  0
 22 23  1  0
 23 24  1  0
M  END
>  <DRUGBANK_ID>  (1) 
DB12191

>  <SECONDARY_ACCESSION_NUMBERS>  (1) 
DB05567

>  <COMMON_NAME>  (1) 
Obatoclax

>  <CAS_NUMBER>  (1) 
803712-67-6

>  <UNII>  (1) 
QN4128B52A

>  <SYNONYMS>  (1) 
Obatoclax

$$$$
