
     RDKit          2D

 21 21  0  0  0  0  0  0  0  0999 V2000
   -0.3572   -1.8562    0.0000 O   0  0  0  0  0  0  0  0  0  0  0  0
   -1.7861   -0.2062    0.0000 O   0  0  0  0  0  0  0  0  0  0  0  0
   -2.5007   -1.4437    0.0000 O   0  0  0  0  0  0  0  0  0  0  0  0
   -2.5007   -3.0938    0.0000 O   0  0  0  0  0  0  0  0  0  0  0  0
    1.0717    3.0938    0.0000 O   0  0  0  0  0  0  0  0  0  0  0  0
    2.5007    0.6187    0.0000 O   0  0  0  0  0  0  0  0  0  0  0  0
   -0.3572    3.0938    0.0000 O   0  0  0  0  0  0  0  0  0  0  0  0
   -1.0716    1.8562    0.0000 O   0  0  0  0  0  0  0  0  0  0  0  0
   -0.3572    0.6187    0.0000 N   0  0  0  0  0  0  0  0  0  0  0  0
    1.0717    0.6187    0.0000 N   0  0  0  0  0  0  0  0  0  0  0  0
    1.7862    1.8562    0.0000 N   0  0  0  0  0  0  0  0  0  0  0  0
   -0.3572    2.2687    0.0000 N   0  0  0  0  0  0  0  0  0  0  0  0
   -1.0716   -1.4437    0.0000 C   0  0  0  0  0  0  0  0  0  0  0  0
   -1.0716   -0.6187    0.0000 C   0  0  0  0  0  0  0  0  0  0  0  0
   -1.7861   -1.8562    0.0000 C   0  0  0  0  0  0  0  0  0  0  0  0
   -0.3572   -0.2062    0.0000 C   0  0  0  0  0  0  0  0  0  0  0  0
   -1.7861   -2.6813    0.0000 C   0  0  0  0  0  0  0  0  0  0  0  0
    0.3572    1.0312    0.0000 C   0  0  0  0  0  0  0  0  0  0  0  0
    0.3572    1.8562    0.0000 C   0  0  0  0  0  0  0  0  0  0  0  0
    1.0717    2.2687    0.0000 C   0  0  0  0  0  0  0  0  0  0  0  0
    1.7862    1.0312    0.0000 C   0  0  0  0  0  0  0  0  0  0  0  0
  4 17  1  0
  5 20  2  0
  6 21  2  0
  7 12  1  0
  8 12  2  0
  9 16  1  0
  9 18  1  0
 10 18  1  0
 10 21  1  0
 11 20  1  0
 11 21  1  0
 12 19  1  0
 13  1  1  6
 13 14  1  0
 13 15  1  0
 14  2  1  1
 14 16  1  0
 15  3  1  1
 15 17  1  0
 18 19  2  0
 19 20  1  0
M  CHG  2   7  -1  12   1
M  END
>  <DRUGBANK_ID>  (1) 
DB04162

>  <SECONDARY_ACCESSION_NUMBERS>  (1) 
EXPT01887

>  <COMMON_NAME>  (1) 
5-Nitro-6-ribityl-amino-2,4(1H,3H)-pyrimidinedione

$$$$
