
     RDKit          2D

 29 31  0  0  0  0  0  0  0  0999 V2000
    9.2309   -1.0079    0.0000 C   0  0  0  0  0  0  0  0  0  0  0  0
    4.2868   -0.8250    0.0000 C   0  0  0  0  0  0  0  0  0  0  0  0
    8.4064   -0.9792    0.0000 C   0  0  0  0  0  0  0  0  0  0  0  0
    9.6182   -1.7364    0.0000 C   0  0  0  0  0  0  0  0  0  0  0  0
    3.5724   -0.4125    0.0000 C   0  0  0  0  0  0  0  0  0  0  0  0
    2.1434    0.4125    0.0000 C   0  0  0  0  0  0  0  0  0  0  0  0
    1.4289   -0.8250    0.0000 C   0  0  0  0  0  0  0  0  0  0  0  0
    1.4289    0.8250    0.0000 C   0  0  0  0  0  0  0  0  0  0  0  0
    0.7145   -0.4125    0.0000 C   0  0  0  0  0  0  0  0  0  0  0  0
    7.1447   -0.8250    0.0000 C   0  0  0  0  0  0  0  0  0  0  0  0
    6.4302   -2.0625    0.0000 C   0  0  0  0  0  0  0  0  0  0  0  0
    5.0013   -0.4125    0.0000 C   0  0  0  0  0  0  0  0  0  0  0  0
    6.4302   -0.4125    0.0000 C   0  0  0  0  0  0  0  0  0  0  0  0
    5.7158   -1.6500    0.0000 C   0  0  0  0  0  0  0  0  0  0  0  0
    8.3565   -2.4072    0.0000 C   0  0  0  0  0  0  0  0  0  0  0  0
    2.1434   -0.4125    0.0000 C   0  0  0  0  0  0  0  0  0  0  0  0
    7.9692   -1.6788    0.0000 C   0  0  0  0  0  0  0  0  0  0  0  0
    9.1810   -2.4360    0.0000 C   0  0  0  0  0  0  0  0  0  0  0  0
    0.7145    0.4125    0.0000 C   0  0  0  0  0  0  0  0  0  0  0  0
    2.8579   -0.8250    0.0000 C   0  0  0  0  0  0  0  0  0  0  0  0
    7.1447   -1.6500    0.0000 C   0  0  0  0  0  0  0  0  0  0  0  0
    9.5683   -3.1644    0.0000 C   0  0  0  0  0  0  0  0  0  0  0  0
    0.0000    0.8250    0.0000 F   0  0  0  0  0  0  0  0  0  0  0  0
    9.9556   -3.8929    0.0000 F   0  0  0  0  0  0  0  0  0  0  0  0
    8.8399   -3.5518    0.0000 F   0  0  0  0  0  0  0  0  0  0  0  0
   10.2968   -2.7771    0.0000 F   0  0  0  0  0  0  0  0  0  0  0  0
    5.7158   -0.8250    0.0000 N   0  0  0  0  0  0  0  0  0  0  0  0
    2.8579   -1.6500    0.0000 O   0  0  0  0  0  0  0  0  0  0  0  0
    7.5819   -2.3496    0.0000 O   0  0  0  0  0  0  0  0  0  0  0  0
  3  1  2  0
  4  1  1  0
  5  2  1  0
  8  6  2  0
  9  7  1  0
 12  2  1  0
 13 10  1  0
 14 11  1  0
 16  6  1  0
 16  7  2  0
 17  3  1  0
 17 15  2  0
 18  4  2  0
 18 15  1  0
 19  8  1  0
 19  9  2  0
 20  5  1  0
 20 16  1  0
 21 10  1  0
 21 11  1  0
 21 17  1  0
 22 18  1  0
 23 19  1  0
 24 22  1  0
 25 22  1  0
 26 22  1  0
 27 12  1  0
 27 13  1  0
 27 14  1  0
 28 20  2  0
 29 21  1  0
M  END
>  <DRUGBANK_ID>  (1) 
DB13552

>  <COMMON_NAME>  (1) 
Trifluperidol

>  <CAS_NUMBER>  (1) 
749-13-3

>  <UNII>  (1) 
R8869Q7R8I

>  <SYNONYMS>  (1) 
Trifluperidol

$$$$
