1441
     RDKit          2D

 20 21  0  0  0  0  0  0  0  0999 V2000
    2.3645   -0.5003    0.0000 O   0  0  0  0  0  0  0  0  0  0  0  0
    6.6086    1.0771    0.0000 N   0  0  0  0  0  0  0  0  0  0  0  0
    5.2886   -1.9892    0.0000 N   0  0  0  0  0  0  0  0  0  0  0  0
    6.3522    0.2930    0.0000 C   0  0  0  0  0  0  0  0  0  0  0  0
    6.0575    1.6912    0.0000 C   0  0  0  0  0  0  0  0  0  0  0  0
    7.4158    1.2473    0.0000 C   0  0  0  0  0  0  0  0  0  0  0  0
    5.5449    0.1228    0.0000 C   0  0  0  0  0  0  0  0  0  0  0  0
    5.2886   -0.6613    0.0000 C   0  0  0  0  0  0  0  0  0  0  0  0
    5.2503    1.5211    0.0000 C   0  0  0  0  0  0  0  0  0  0  0  0
    6.3139    2.4754    0.0000 C   0  0  0  0  0  0  0  0  0  0  0  0
    7.9668    0.6332    0.0000 C   0  0  0  0  0  0  0  0  0  0  0  0
    7.6721    2.0315    0.0000 C   0  0  0  0  0  0  0  0  0  0  0  0
    4.5080   -0.9128    0.0000 C   0  0  0  0  0  0  0  0  0  0  0  0
    4.5080   -1.7378    0.0000 C   0  0  0  0  0  0  0  0  0  0  0  0
    5.7701   -1.3253    0.0000 C   0  0  0  0  0  0  0  0  0  0  0  0
    3.7935   -0.5003    0.0000 C   0  0  0  0  0  0  0  0  0  0  0  0
    3.7935   -2.1503    0.0000 C   0  0  0  0  0  0  0  0  0  0  0  0
    3.0791   -0.9128    0.0000 C   0  0  0  0  0  0  0  0  0  0  0  0
    3.0791   -1.7378    0.0000 C   0  0  0  0  0  0  0  0  0  0  0  0
    1.6500   -0.9128    0.0000 C   0  0  0  0  0  0  0  0  0  0  0  0
  1 18  1  0
  1 20  1  0
  2  4  1  0
  2  5  1  0
  2  6  1  0
  3 14  1  0
  3 15  1  0
  4  7  1  0
  5  9  1  0
  5 10  1  0
  6 11  1  0
  6 12  1  0
  7  8  1  0
  8 13  1  0
  8 15  2  0
 13 14  2  0
 13 16  1  0
 14 17  1  0
 16 18  2  0
 17 19  2  0
 18 19  1  0
M  END
>  <DRUGBANK_ID>  (1) 
DB01441

>  <COMMON_NAME>  (1) 
5-Methoxy-N,N-diisopropyltryptamine

>  <CAS_NUMBER>  (1) 
4021-34-5

>  <UNII>  (1) 
12D06G8W8E

>  <SYNONYMS>  (1) 
5-MeO-DIPT; 5-methoxy-N,N-bis(1-methylethyl)-1H-indole-3-ethanamine; Foxy; Foxy methoxy; N-(1-methylethyl)-N-{2-[5-(methyloxy)-1H-indol-3-yl]ethyl}propan-2-amine

$$$$
