
     RDKit          2D

 41 45  0  0  1  0  0  0  0  0999 V2000
    2.7512   -6.6616    0.0000 C   0  0  0  0  0  0  0  0  0  0  0  0
    3.4656   -6.2491    0.0000 C   0  0  0  0  0  0  0  0  0  0  0  0
    3.4656   -5.4241    0.0000 C   0  0  0  0  0  0  0  0  0  0  0  0
    4.1801   -5.0116    0.0000 C   0  0  0  0  0  0  0  0  0  0  0  0
    4.1801   -4.1866    0.0000 N   0  0  0  0  0  0  0  0  0  0  0  0
    3.4656   -3.7741    0.0000 C   0  0  0  0  0  0  0  0  0  0  0  0
    2.7512   -4.1866    0.0000 C   0  0  0  0  0  0  0  0  0  0  0  0
    2.7512   -5.0116    0.0000 N   0  0  0  0  0  0  0  0  0  0  0  0
    2.0367   -3.7741    0.0000 C   0  0  0  0  0  0  0  0  0  0  0  0
    2.0367   -2.9491    0.0000 O   0  0  0  0  0  0  0  0  0  0  0  0
    1.3222   -4.1866    0.0000 N   0  0  0  0  0  0  0  0  0  0  0  0
    3.4656   -2.9491    0.0000 N   0  0  0  0  0  0  0  0  0  0  0  0
    4.1801   -2.5366    0.0000 C   0  0  0  0  0  0  0  0  0  0  0  0
    4.1801   -1.7116    0.0000 C   0  0  0  0  0  0  0  0  0  0  0  0
    4.8946   -1.2991    0.0000 C   0  0  0  0  0  0  0  0  0  0  0  0
    5.6091   -1.7116    0.0000 C   0  0  0  0  0  0  0  0  0  0  0  0
    5.6091   -2.5366    0.0000 C   0  0  0  0  0  0  0  0  0  0  0  0
    4.8946   -2.9491    0.0000 C   0  0  0  0  0  0  0  0  0  0  0  0
    6.3235   -1.2991    0.0000 N   0  0  0  0  0  0  0  0  0  0  0  0
    6.3235   -0.4741    0.0000 C   0  0  0  0  0  0  0  0  0  0  0  0
    7.0380   -0.0616    0.0000 C   0  0  0  0  0  0  0  0  0  0  0  0
    7.7525   -0.4741    0.0000 C   0  0  0  0  0  0  0  0  0  0  0  0
    7.7525   -1.2991    0.0000 C   0  0  0  0  0  0  0  0  0  0  0  0
    7.0380   -1.7116    0.0000 C   0  0  0  0  0  0  0  0  0  0  0  0
    8.4669   -0.0616    0.0000 N   0  0  0  0  0  0  0  0  0  0  0  0
    8.4669    0.7634    0.0000 C   0  0  0  0  0  0  0  0  0  0  0  0
    9.1814    1.1759    0.0000 C   0  0  0  0  0  0  0  0  0  0  0  0
    9.8959    0.7634    0.0000 N   0  0  0  0  0  0  0  0  0  0  0  0
    9.8959   -0.0616    0.0000 C   0  0  0  0  0  0  0  0  0  0  0  0
    9.1814   -0.4741    0.0000 C   0  0  0  0  0  0  0  0  0  0  0  0
   10.6104    1.1759    0.0000 C   0  0  0  0  0  0  0  0  0  0  0  0
    4.8946   -5.4241    0.0000 O   0  0  0  0  0  0  0  0  0  0  0  0
    4.8946   -6.2491    0.0000 C   0  0  0  0  0  0  0  0  0  0  0  0
    5.5620   -6.7340    0.0000 C   0  0  0  0  0  0  0  0  0  0  0  0
    5.3071   -7.5187    0.0000 C   0  0  0  0  0  0  0  0  0  0  0  0
    4.4821   -7.5187    0.0000 N   0  0  0  0  0  0  0  0  0  0  0  0
    4.2272   -6.7340    0.0000 C   0  0  0  0  0  0  0  0  0  0  0  0
    3.9972   -8.1861    0.0000 C   0  0  0  0  0  0  0  0  0  0  0  0
    4.3327   -8.9398    0.0000 O   0  0  0  0  0  0  0  0  0  0  0  0
    3.1767   -8.0999    0.0000 C   0  0  0  0  0  0  0  0  0  0  0  0
    2.6918   -8.7673    0.0000 C   0  0  0  0  0  0  0  0  0  0  0  0
  1  2  1  0
  2  3  1  0
  3  4  2  0
  3  8  1  0
  4  5  1  0
  4 32  1  0
  5  6  2  0
  6  7  1  0
  6 12  1  0
  7  8  2  0
  7  9  1  0
  9 10  2  0
  9 11  1  0
 12 13  1  0
 13 14  2  0
 13 18  1  0
 14 15  1  0
 15 16  2  0
 16 17  1  0
 16 19  1  0
 17 18  2  0
 19 20  1  0
 19 24  1  0
 20 21  1  0
 21 22  1  0
 22 23  1  0
 22 25  1  0
 23 24  1  0
 25 26  1  0
 25 30  1  0
 26 27  1  0
 27 28  1  0
 28 29  1  0
 28 31  1  0
 29 30  1  0
 33 32  1  6
 33 34  1  0
 33 37  1  0
 34 35  1  0
 35 36  1  0
 36 37  1  0
 36 38  1  0
 38 39  2  0
 38 40  1  0
 40 41  2  0
M  END
>  <DRUGBANK_ID>  (1) 
DB12036

>  <COMMON_NAME>  (1) 
Naquotinib

>  <CAS_NUMBER>  (1) 
1448232-80-1

>  <UNII>  (1) 
47DD4548PB

>  <SYNONYMS>  (1) 
Naquotinib

$$$$
