
     RDKit          2D

 20 22  0  0  0  0  0  0  0  0999 V2000
   -2.5279   -0.4167    0.0000 F   0  0  0  0  0  0  0  0  0  0  0  0
    0.3844    1.2531    0.0000 O   0  0  0  0  0  0  0  0  0  0  0  0
   -0.8960   -1.4338    0.0000 O   0  0  0  0  0  0  0  0  0  0  0  0
    1.2818   -2.3338    0.0000 O   0  0  0  0  0  0  0  0  0  0  0  0
    2.5279    0.8406    0.0000 O   0  0  0  0  0  0  0  0  0  0  0  0
    1.0518   -0.8818    0.0000 N   0  0  0  0  0  0  0  0  0  0  0  0
   -0.0280   -1.6664    0.0000 N   0  0  0  0  0  0  0  0  0  0  0  0
    1.8134    2.0781    0.0000 N   0  0  0  0  0  0  0  0  0  0  0  0
    0.3844   -0.3969    0.0000 C   0  0  0  0  0  0  0  0  0  0  0  0
    1.0989    0.0155    0.0000 C   0  0  0  0  0  0  0  0  0  0  0  0
   -0.3300    0.0155    0.0000 C   0  0  0  0  0  0  0  0  0  0  0  0
    1.0989    0.8406    0.0000 C   0  0  0  0  0  0  0  0  0  0  0  0
   -0.2829   -0.8818    0.0000 C   0  0  0  0  0  0  0  0  0  0  0  0
   -0.3300    0.8406    0.0000 C   0  0  0  0  0  0  0  0  0  0  0  0
    0.7969   -1.6664    0.0000 C   0  0  0  0  0  0  0  0  0  0  0  0
   -1.0674   -0.4254    0.0000 C   0  0  0  0  0  0  0  0  0  0  0  0
    1.8134    1.2531    0.0000 C   0  0  0  0  0  0  0  0  0  0  0  0
   -1.0674    1.2817    0.0000 C   0  0  0  0  0  0  0  0  0  0  0  0
   -1.8150   -0.0015    0.0000 C   0  0  0  0  0  0  0  0  0  0  0  0
   -1.8150    0.8577    0.0000 C   0  0  0  0  0  0  0  0  0  0  0  0
  1 19  1  0
  2 12  1  0
  2 14  1  0
  3 13  2  0
  4 15  2  0
  5 17  2  0
  6 15  1  0
  7 13  1  0
  7 15  1  0
  8 17  1  0
  9  6  1  0
  9 10  1  6
  9 11  1  0
  9 13  1  0
 10 12  1  0
 11 14  2  0
 11 16  1  0
 12 17  1  6
 14 18  1  0
 16 19  2  0
 18 20  2  0
 19 20  1  0
M  END
>  <DRUGBANK_ID>  (1) 
DB02101

>  <SECONDARY_ACCESSION_NUMBERS>  (1) 
EXPT01436; EXPT01435

>  <COMMON_NAME>  (1) 
(S,R)-fidarestat

>  <SYNONYMS>  (1) 
(2S,4R)-2-aminoformyl-6-fluoro-spiro[chroman-4,4'-imidazolidine]-2',5'-dione; Fidarestat(stereoisomer)

$$$$
