
     RDKit          2D

 18 18  0  0  0  0  0  0  0  0999 V2000
    2.8578    1.8562    0.0000 C   0  0  0  0  0  0  0  0  0  0  0  0
    1.4289    1.8562    0.0000 C   0  0  0  0  0  0  0  0  0  0  0  0
    2.1434   -1.8562    0.0000 C   0  0  0  0  0  0  0  0  0  0  0  0
   -2.8578    0.2062    0.0000 C   0  0  0  0  0  0  0  0  0  0  0  0
    2.8578   -0.6187    0.0000 C   0  0  0  0  0  0  0  0  0  0  0  0
    2.8578    0.2062    0.0000 C   0  0  0  0  0  0  0  0  0  0  0  0
    1.4289   -0.6187    0.0000 C   0  0  0  0  0  0  0  0  0  0  0  0
   -1.4289    0.2062    0.0000 C   0  0  0  0  0  0  0  0  0  0  0  0
    2.1434    1.4437    0.0000 C   0  0  0  0  0  0  0  0  0  0  0  0
    2.1434   -1.0312    0.0000 C   0  0  0  0  0  0  0  0  0  0  0  0
   -2.1434    0.6187    0.0000 C   0  0  0  0  0  0  0  0  0  0  0  0
    2.1434    0.6187    0.0000 C   0  0  0  0  0  0  0  0  0  0  0  0
    1.4289    0.2062    0.0000 C   0  0  0  0  0  0  0  0  0  0  0  0
    0.0000    0.2062    0.0000 C   0  0  0  0  0  0  0  0  0  0  0  0
   -2.1434    1.4437    0.0000 O   0  0  0  0  0  0  0  0  0  0  0  0
    0.0000   -0.6187    0.0000 O   0  0  0  0  0  0  0  0  0  0  0  0
   -0.7144    0.6187    0.0000 O   0  0  0  0  0  0  0  0  0  0  0  0
    0.7144    0.6187    0.0000 O   0  0  0  0  0  0  0  0  0  0  0  0
  6  5  1  0
  9  1  1  0
  9  2  1  0
 10  3  1  1
 10  5  1  0
 10  7  1  0
 11  4  1  0
 11  8  1  0
 12  6  1  0
 12  9  1  6
 12 13  1  0
 13  7  1  0
 13 18  1  1
 15 11  1  0
 16 14  2  0
 17  8  1  0
 17 14  1  0
 18 14  1  0
M  END
>  <DRUGBANK_ID>  (1) 
DB14136

>  <COMMON_NAME>  (1) 
(-)-menthol 1-propylene glycol carbonate

>  <CAS_NUMBER>  (1) 
260781-16-6

>  <UNII>  (1) 
2WL8FX4EEZ

>  <SYNONYMS>  (1) 
(-)-menthol (+/-)-1-propylene glycol carbonate; 2-hydroxypropyl ((1R,2S,5R)-2-isopropyl-5-methyl-cyclohexyl) carbonate; Carbonic acid, 2-hydroxypropyl (1R,2S,5R)-5-methyl-2-(1-methylethyl)cyclohexyl ester; Fema no. 3806, 1-propylene glycol carbonate

$$$$
