
     RDKit          2D

 24 27  0  0  0  0  0  0  0  0999 V2000
   -0.1093    5.0230    0.0000 C   0  0  0  0  0  0  0  0  0  0  0  0
    0.7112    4.9368    0.0000 C   0  0  0  0  0  0  0  0  0  0  0  0
    1.0468    4.1831    0.0000 C   0  0  0  0  0  0  0  0  0  0  0  0
    0.5619    3.5157    0.0000 C   0  0  0  0  0  0  0  0  0  0  0  0
   -0.2586    3.6019    0.0000 C   0  0  0  0  0  0  0  0  0  0  0  0
   -0.5942    4.3556    0.0000 C   0  0  0  0  0  0  0  0  0  0  0  0
    0.8974    2.7620    0.0000 C   0  0  0  0  0  0  0  0  0  0  0  0
    0.4125    2.0945    0.0000 N   0  0  0  0  0  0  0  0  0  0  0  0
    0.6674    1.3099    0.0000 C   0  0  0  0  0  0  0  0  0  0  0  0
    1.4521    1.0550    0.0000 O   0  0  0  0  0  0  0  0  0  0  0  0
    0.0000    0.8250    0.0000 N   0  0  0  0  0  0  0  0  0  0  0  0
   -0.6674    1.3099    0.0000 S   0  0  0  0  0  0  0  0  0  0  0  0
   -0.4125    2.0945    0.0000 C   0  0  0  0  0  0  0  0  0  0  0  0
   -0.8974    2.7620    0.0000 O   0  0  0  0  0  0  0  0  0  0  0  0
    0.0000   -0.0000    0.0000 C   0  0  0  0  0  0  0  0  0  0  0  0
   -0.7145   -0.4125    0.0000 C   0  0  0  0  0  0  0  0  0  0  0  0
   -0.7145   -1.2375    0.0000 C   0  0  0  0  0  0  0  0  0  0  0  0
    0.0000   -1.6500    0.0000 C   0  0  0  0  0  0  0  0  0  0  0  0
    0.7145   -1.2375    0.0000 C   0  0  0  0  0  0  0  0  0  0  0  0
    0.7145   -0.4125    0.0000 C   0  0  0  0  0  0  0  0  0  0  0  0
    1.4289   -0.0000    0.0000 C   0  0  0  0  0  0  0  0  0  0  0  0
    2.1434   -0.4125    0.0000 C   0  0  0  0  0  0  0  0  0  0  0  0
    2.1434   -1.2375    0.0000 C   0  0  0  0  0  0  0  0  0  0  0  0
    1.4289   -1.6500    0.0000 C   0  0  0  0  0  0  0  0  0  0  0  0
  1  2  2  0
  1  6  1  0
  2  3  1  0
  3  4  2  0
  4  5  1  0
  4  7  1  0
  5  6  2  0
  7  8  1  0
  8  9  1  0
  8 13  1  0
  9 10  2  0
  9 11  1  0
 11 12  1  0
 11 15  1  0
 12 13  1  0
 13 14  2  0
 15 16  2  0
 15 20  1  0
 16 17  1  0
 17 18  2  0
 18 19  1  0
 19 20  2  0
 19 24  1  0
 20 21  1  0
 21 22  2  0
 22 23  1  0
 23 24  2  0
M  END
>  <DRUGBANK_ID>  (1) 
DB12129

>  <COMMON_NAME>  (1) 
Tideglusib

>  <CAS_NUMBER>  (1) 
865854-05-3

>  <UNII>  (1) 
Q747Y6TT42

>  <SYNONYMS>  (1) 
4-BENZYL-2-(A-NAPHTYL)-1,2,4-THIADIAZOLIDINE-3,5-DIONE; 4-Benzyl-2-(naphthalen-1-yl)-1,2,4-thiadiazolidine-3,5-dione; Tideglusib

$$$$
