
     RDKit          2D

 26 28  0  0  1  0  0  0  0  0999 V2000
   -0.8125   -3.4433    0.0000 C   0  0  0  0  0  0  0  0  0  0  0  0
   -0.2822   -4.0752    0.0000 C   0  0  0  0  0  0  0  0  0  0  0  0
    0.4323   -4.4877    0.0000 C   0  0  0  0  0  0  0  0  0  0  0  0
    0.4323   -5.3127    0.0000 C   0  0  0  0  0  0  0  0  0  0  0  0
   -0.2822   -5.7252    0.0000 S   0  0  0  0  0  0  0  0  0  0  0  0
   -0.9966   -5.3127    0.0000 C   0  0  0  0  0  0  0  0  0  0  0  0
   -1.7111   -5.7252    0.0000 N   0  0  0  0  0  0  0  0  0  0  0  0
   -0.9966   -4.4877    0.0000 N   0  0  0  0  0  0  0  0  0  0  0  0
    0.2481   -3.4433    0.0000 C   0  0  0  0  0  0  0  0  0  0  0  0
   -0.0340   -2.6680    0.0000 C   0  0  0  0  0  0  0  0  0  0  0  0
    0.4963   -2.0360    0.0000 C   0  0  0  0  0  0  0  0  0  0  0  0
    0.2141   -1.2608    0.0000 N   0  0  0  0  0  0  0  0  0  0  0  0
   -0.5984   -1.1175    0.0000 C   0  0  0  0  0  0  0  0  0  0  0  0
   -1.1287   -1.7495    0.0000 O   0  0  0  0  0  0  0  0  0  0  0  0
   -0.8805   -0.3423    0.0000 C   0  0  0  0  0  0  0  0  0  0  0  0
   -1.6930   -0.1990    0.0000 N   0  0  0  0  0  0  0  0  0  0  0  0
   -1.9752    0.5762    0.0000 C   0  0  0  0  0  0  0  0  0  0  0  0
   -1.4449    1.2082    0.0000 C   0  0  0  0  0  0  0  0  0  0  0  0
   -0.6324    1.0650    0.0000 C   0  0  0  0  0  0  0  0  0  0  0  0
   -0.3502    0.2897    0.0000 C   0  0  0  0  0  0  0  0  0  0  0  0
   -1.7270    1.9835    0.0000 C   0  0  0  0  0  0  0  0  0  0  0  0
   -2.0092    2.7587    0.0000 N   0  0  0  0  0  0  0  0  0  0  0  0
    1.3087   -2.1793    0.0000 C   0  0  0  0  0  0  0  0  0  0  0  0
    1.5909   -2.9545    0.0000 C   0  0  0  0  0  0  0  0  0  0  0  0
    1.0606   -3.5865    0.0000 C   0  0  0  0  0  0  0  0  0  0  0  0
    1.3428   -4.3618    0.0000 F   0  0  0  0  0  0  0  0  0  0  0  0
  2  1  1  1
  2  3  1  0
  2  8  1  0
  2  9  1  0
  3  4  2  0
  4  5  1  0
  5  6  1  0
  6  7  1  0
  6  8  2  0
  9 10  2  0
  9 25  1  0
 10 11  1  0
 11 12  1  0
 11 23  2  0
 12 13  1  0
 13 14  2  0
 13 15  1  0
 15 16  2  0
 15 20  1  0
 16 17  1  0
 17 18  2  0
 18 19  1  0
 18 21  1  0
 19 20  2  0
 21 22  3  0
 23 24  1  0
 24 25  2  0
 25 26  1  0
M  END
>  <DRUGBANK_ID>  (1) 
DB15307

>  <COMMON_NAME>  (1) 
Atabecestat

>  <CAS_NUMBER>  (1) 
1200493-78-2

>  <UNII>  (1) 
2834W8D6GK

>  <SYNONYMS>  (1) 
Atabecestat; JNJ-54861911

$$$$
