
     RDKit          2D

 33 35  0  0  1  0  0  0  0  0999 V2000
   -4.0954   -8.5224    0.0000 C   0  0  0  0  0  0  0  0  0  0  0  0
   -3.6829   -7.8079    0.0000 C   0  0  0  0  0  0  0  0  0  0  0  0
   -4.0954   -7.0934    0.0000 C   0  0  0  0  0  0  0  0  0  0  0  0
   -3.6829   -6.3789    0.0000 C   0  0  0  0  0  0  0  0  0  0  0  0
   -2.8579   -6.3789    0.0000 C   0  0  0  0  0  0  0  0  0  0  0  0
   -2.4454   -7.0934    0.0000 C   0  0  0  0  0  0  0  0  0  0  0  0
   -2.8579   -7.8079    0.0000 C   0  0  0  0  0  0  0  0  0  0  0  0
   -2.4454   -5.6645    0.0000 C   0  0  0  0  0  0  0  0  0  0  0  0
   -2.8579   -4.9500    0.0000 C   0  0  0  0  0  0  0  0  0  0  0  0
   -3.6829   -4.9500    0.0000 C   0  0  0  0  0  0  0  0  0  0  0  0
   -4.0954   -5.6645    0.0000 O   0  0  0  0  0  0  0  0  0  0  0  0
   -4.0954   -4.2355    0.0000 O   0  0  0  0  0  0  0  0  0  0  0  0
   -1.6204   -5.6645    0.0000 N   0  0  0  0  0  0  0  0  0  0  0  0
   -1.2079   -4.9500    0.0000 C   0  0  0  0  0  0  0  0  0  0  0  0
   -1.6204   -4.2355    0.0000 O   0  0  0  0  0  0  0  0  0  0  0  0
   -0.3829   -4.9500    0.0000 N   0  0  0  0  0  0  0  0  0  0  0  0
    0.0296   -4.2355    0.0000 C   0  0  0  0  0  0  0  0  0  0  0  0
   -0.3829   -3.5211    0.0000 C   0  0  0  0  0  0  0  0  0  0  0  0
   -1.2079   -3.5211    0.0000 O   0  0  0  0  0  0  0  0  0  0  0  0
    0.0296   -2.8066    0.0000 C   0  0  0  0  0  0  0  0  0  0  0  0
   -0.3829   -2.0921    0.0000 C   0  0  0  0  0  0  0  0  0  0  0  0
    0.8546   -2.8066    0.0000 C   0  0  0  0  0  0  0  0  0  0  0  0
    1.2671   -3.5211    0.0000 N   0  0  0  0  0  0  0  0  0  0  0  0
    2.0921   -3.5211    0.0000 C   0  0  0  0  0  0  0  0  0  0  0  0
    2.5046   -2.8066    0.0000 C   0  0  0  0  0  0  0  0  0  0  0  0
    2.0921   -2.0921    0.0000 C   0  0  0  0  0  0  0  0  0  0  0  0
    2.5046   -1.3776    0.0000 C   0  0  0  0  0  0  0  0  0  0  0  0
    3.3296   -1.3776    0.0000 C   0  0  0  0  0  0  0  0  0  0  0  0
    3.7421   -2.0921    0.0000 C   0  0  0  0  0  0  0  0  0  0  0  0
    3.3296   -2.8066    0.0000 C   0  0  0  0  0  0  0  0  0  0  0  0
    3.7421   -3.5211    0.0000 Cl  0  0  0  0  0  0  0  0  0  0  0  0
    0.8546   -4.2355    0.0000 C   0  0  0  0  0  0  0  0  0  0  0  0
    1.2671   -4.9500    0.0000 O   0  0  0  0  0  0  0  0  0  0  0  0
  1  2  1  0
  2  3  2  0
  2  7  1  0
  3  4  1  0
  4  5  2  0
  5  6  1  0
  6  7  2  0
  8  5  1  0
  8  9  1  6
  8 13  1  0
  9 10  1  0
 10 11  1  0
 10 12  2  0
 13 14  1  0
 14 15  2  0
 14 16  1  0
 16 17  1  0
 17 18  2  0
 17 32  1  0
 18 19  1  0
 18 20  1  0
 20 21  1  0
 20 22  2  0
 22 23  1  0
 23 24  1  0
 23 32  1  0
 24 25  1  0
 25 26  2  0
 25 30  1  0
 26 27  1  0
 27 28  2  0
 28 29  1  0
 29 30  2  0
 30 31  1  0
 32 33  2  0
M  END
>  <DRUGBANK_ID>  (1) 
DB18022

>  <COMMON_NAME>  (1) 
AVA-4746

>  <CAS_NUMBER>  (1) 
422268-99-3

>  <UNII>  (1) 
7M2IM94F1S

>  <SYNONYMS>  (1) 
(3s)-3-(((1-(2-chlorobenzyl)-4-hydroxy-5-methyl-2-oxo-1,2-dihydropyridin-3yl)amino)carbonyl)amino-3-(4-methylphenyl)propanoic acid; Benzenepropanoic acid, .beta.-((((1-((2-chlorophenyl)methyl)-1,2-dihydro-4-hydroxy-5-methyl-2-oxo-3-pyridinyl)amino)carbonyl)amino)-4-methyl-, (.beta.s)-

$$$$
