
     RDKit          2D

 33 36  0  0  0  0  0  0  0  0999 V2000
    1.0730    1.6537    0.0000 C   0  0  0  0  0  0  0  0  0  0  0  0
    1.7856    1.2411    0.0000 O   0  0  0  0  0  0  0  0  0  0  0  0
    2.4983    1.6537    0.0000 C   0  0  0  0  0  0  0  0  0  0  0  0
    3.2109    1.2411    0.0000 N   0  0  0  0  0  0  0  0  0  0  0  0
    3.9234    1.6537    0.0000 C   0  0  0  0  0  0  0  0  0  0  0  0
   -0.3572    2.4807    0.0000 C   0  0  0  0  0  0  0  0  0  0  0  0
   -0.3584    1.6532    0.0000 C   0  0  0  0  0  0  0  0  0  0  0  0
    0.3564    1.2403    0.0000 C   0  0  0  0  0  0  0  0  0  0  0  0
    1.0702    2.4844    0.0000 C   0  0  0  0  0  0  0  0  0  0  0  0
    0.3546    2.8936    0.0000 C   0  0  0  0  0  0  0  0  0  0  0  0
   -3.9234    1.2347    0.0000 N   0  0  0  0  0  0  0  0  0  0  0  0
   -3.2109    1.6472    0.0000 C   0  0  0  0  0  0  0  0  0  0  0  0
   -2.4983    1.2388    0.0000 C   0  0  0  0  0  0  0  0  0  0  0  0
   -1.7856    1.6514    0.0000 C   0  0  0  0  0  0  0  0  0  0  0  0
   -1.0730    1.2388    0.0000 N   0  0  0  0  0  0  0  0  0  0  0  0
   -3.2105    0.8221    0.0000 C   0  0  0  0  0  0  0  0  0  0  0  0
   -3.2105   -0.0029    0.0000 C   0  0  0  0  0  0  0  0  0  0  0  0
   -2.4983   -0.4113    0.0000 N   0  0  0  0  0  0  0  0  0  0  0  0
   -1.7861   -0.0029    0.0000 C   0  0  0  0  0  0  0  0  0  0  0  0
   -1.7861    0.8221    0.0000 C   0  0  0  0  0  0  0  0  0  0  0  0
   -1.7732   -2.4801    0.0000 C   0  0  0  0  0  0  0  0  0  0  0  0
   -0.9831   -2.7182    0.0000 N   0  0  0  0  0  0  0  0  0  0  0  0
   -0.5111   -2.0414    0.0000 C   0  0  0  0  0  0  0  0  0  0  0  0
   -1.0115   -1.3822    0.0000 C   0  0  0  0  0  0  0  0  0  0  0  0
   -1.7888   -1.6564    0.0000 C   0  0  0  0  0  0  0  0  0  0  0  0
   -3.2035   -1.6531    0.0000 N   0  0  0  0  0  0  0  0  0  0  0  0
   -3.2047   -2.4806    0.0000 C   0  0  0  0  0  0  0  0  0  0  0  0
   -2.4897   -2.8936    0.0000 N   0  0  0  0  0  0  0  0  0  0  0  0
   -2.4915   -1.2403    0.0000 C   0  0  0  0  0  0  0  0  0  0  0  0
   -1.7936    2.4765    0.0000 O   0  0  0  0  0  0  0  0  0  0  0  0
    2.4903    2.4807    0.0000 O   0  0  0  0  0  0  0  0  0  0  0  0
    3.2029    0.4179    0.0000 C   0  0  0  0  0  0  0  0  0  0  0  0
   -0.8016   -0.5780    0.0000 C   0  0  0  0  0  0  0  0  0  0  0  0
  1  9  2  0
  1  2  1  0
  2  3  1  0
  3  4  1  0
  3 31  2  0
  4  5  1  0
  4 32  1  0
  6  7  1  0
  7  8  2  0
  8  1  1  0
  9 10  1  0
 10  6  2  0
 11 12  1  0
 12 13  1  0
 13 14  1  0
 14 15  1  0
 14 30  2  0
 15  7  1  0
 16 13  1  0
 16 17  1  0
 17 18  1  0
 18 19  1  0
 19 20  1  0
 20 13  1  0
 21 22  1  0
 22 23  1  0
 23 24  2  0
 24 25  1  0
 24 33  1  0
 25 21  2  0
 25 29  1  0
 26 27  1  0
 27 28  2  0
 28 21  1  0
 29 26  2  0
 29 18  1  0
M  END
>  <DRUGBANK_ID>  (1) 
DB16009

>  <COMMON_NAME>  (1) 
LX-7101

>  <CAS_NUMBER>  (1) 
1192189-69-7

>  <UNII>  (1) 
74B3C4ZT96

$$$$
