
     RDKit          2D

  1  0  0  0  0  0  0  0  0  0999 V2000
    0.0000    0.0000    0.0000 Zn  0  0  0  0  0 15  0  0  0  0  0  0
M  CHG  1   1   2
M  END
>  <DRUGBANK_ID>  (1) 
DB14532

>  <COMMON_NAME>  (1) 
Zinc cation

>  <CAS_NUMBER>  (1) 
23713-49-7

>  <UNII>  (1) 
13S1S8SF37

>  <SYNONYMS>  (1) 
Zinc ion; Zinc ion(2+); Zinc, ion (Zn2+); Zinc(2+); Zinc(II)

$$$$
