MUV
     RDKit          2D

 33 35  0  0  0  0  0  0  0  0999 V2000
   -4.0441    1.2662    0.0000 O   0  0  0  0  0  0  0  0  0  0  0  0
   -4.0441    0.4412    0.0000 C   0  0  0  0  0  0  0  0  0  0  0  0
   -4.7585    0.0287    0.0000 N   0  0  0  0  0  0  0  0  0  0  0  0
   -5.4730    0.4412    0.0000 C   0  0  0  0  0  0  0  0  0  0  0  0
   -3.3296    0.0287    0.0000 C   0  0  0  0  0  0  0  0  0  0  0  0
   -2.6151    0.4412    0.0000 C   0  0  0  0  0  0  0  0  0  0  0  0
   -1.9007    0.0287    0.0000 C   0  0  0  0  0  0  0  0  0  0  0  0
   -1.9007   -0.7963    0.0000 O   0  0  0  0  0  0  0  0  0  0  0  0
   -1.1862    0.4412    0.0000 N   0  0  0  0  0  0  0  0  0  0  0  0
   -0.4717    0.0287    0.0000 C   0  0  0  0  0  0  0  0  0  0  0  0
   -0.4717   -0.7963    0.0000 C   0  0  0  0  0  0  0  0  0  0  0  0
    0.2428   -1.2088    0.0000 C   0  0  0  0  0  0  0  0  0  0  0  0
    0.9572   -0.7963    0.0000 C   0  0  0  0  0  0  0  0  0  0  0  0
    1.6717   -1.2088    0.0000 C   0  0  0  0  0  0  0  0  0  0  0  0
    1.6717   -2.0338    0.0000 C   0  0  0  0  0  0  0  0  0  0  0  0
    0.9572   -2.4463    0.0000 C   0  0  0  0  0  0  0  0  0  0  0  0
    0.2428   -2.0338    0.0000 C   0  0  0  0  0  0  0  0  0  0  0  0
    0.2428    0.4412    0.0000 C   0  0  0  0  0  0  0  0  0  0  0  0
    0.2428    1.2662    0.0000 O   0  0  0  0  0  0  0  0  0  0  0  0
    0.9572    0.0287    0.0000 C   0  0  0  0  0  0  0  0  0  0  0  0
    1.6717    0.4412    0.0000 N   0  0  0  0  0  0  0  0  0  0  0  0
    1.6717    1.2662    0.0000 C   0  0  0  0  0  0  0  0  0  0  0  0
    2.3862    1.6787    0.0000 C   0  0  0  0  0  0  0  0  0  0  0  0
    2.7987    2.3931    0.0000 C   0  0  0  0  0  0  0  0  0  0  0  0
    3.2112    1.6787    0.0000 C   0  0  0  0  0  0  0  0  0  0  0  0
    2.3862    0.0287    0.0000 S   0  0  0  0  0  0  0  0  0  0  0  0
    1.9737   -0.6858    0.0000 O   0  0  0  0  0  0  0  0  0  0  0  0
    2.7987    0.7431    0.0000 O   0  0  0  0  0  0  0  0  0  0  0  0
    3.1006   -0.3838    0.0000 C   0  0  0  0  0  0  0  0  0  0  0  0
    3.8543   -0.0483    0.0000 O   0  0  0  0  0  0  0  0  0  0  0  0
    4.4063   -0.6614    0.0000 C   0  0  0  0  0  0  0  0  0  0  0  0
    3.9938   -1.3759    0.0000 C   0  0  0  0  0  0  0  0  0  0  0  0
    3.1869   -1.2043    0.0000 C   0  0  0  0  0  0  0  0  0  0  0  0
  1  2  2  0
  2  3  1  0
  2  5  1  0
  3  4  1  0
  5  6  1  0
  6  7  1  0
  7  8  2  0
  7  9  1  0
 10  9  1  0
 10 11  1  6
 10 18  1  0
 11 12  1  0
 12 13  2  0
 12 17  1  0
 13 14  1  0
 14 15  2  0
 15 16  1  0
 16 17  2  0
 18 20  1  0
 18 19  1  6
 20 21  1  0
 21 26  1  0
 21 22  1  0
 22 23  1  0
 23 24  1  0
 23 25  1  0
 24 25  1  0
 26 27  2  0
 26 28  2  0
 26 29  1  0
 29 30  1  0
 29 33  2  0
 30 31  1  0
 31 32  2  0
 32 33  1  0
M  END
>  <DRUGBANK_ID>  (1) 
DB08223

>  <COMMON_NAME>  (1) 
N-{(1S,2R)-1-BENZYL-3-[(CYCLOPROPYLMETHYL)(2-FURYLSULFONYL)AMINO]-2-HYDROXYPROPYL}-N'-METHYLSUCCINAMIDE

$$$$
