
     RDKit          2D

 22 24  0  0  1  0  0  0  0  0999 V2000
   -0.8250    0.8250    0.0000 C   0  0  0  0  0  0  0  0  0  0  0  0
    0.0000    0.0000    0.0000 N   0  0  0  0  0  0  0  0  0  0  0  0
    0.0000    0.8250    0.0000 C   0  0  0  0  0  0  0  0  0  0  0  0
   -0.8250    0.0000    0.0000 C   0  0  0  0  0  0  0  0  0  0  0  0
    0.7846   -0.2549    0.0000 C   0  0  0  0  0  0  0  0  0  0  0  0
    1.2696    0.4125    0.0000 C   0  0  0  0  0  0  0  0  0  0  0  0
    0.7846    1.0800    0.0000 S   0  0  0  0  0  0  0  0  0  0  0  0
    1.9883    0.0076    0.0000 C   0  0  0  0  0  0  0  0  0  0  0  0
    1.9883    0.8175    0.0000 C   0  0  0  0  0  0  0  0  0  0  0  0
   -1.4083   -0.5833    0.0000 O   0  0  0  0  0  0  0  0  0  0  0  0
    1.0396   -1.0395    0.0000 C   0  0  0  0  0  0  0  0  0  0  0  0
    1.8466   -1.2110    0.0000 O   0  0  0  0  0  0  0  0  0  0  0  0
    0.4875   -1.6526    0.0000 O   0  0  0  0  0  0  0  0  0  0  0  0
   -1.5395    1.2375    0.0000 N   0  0  0  0  0  0  0  0  0  0  0  0
   -2.2540    0.8250    0.0000 C   0  0  0  0  0  0  0  0  0  0  0  0
   -2.9684    1.2375    0.0000 N   0  0  0  0  0  0  0  0  0  0  0  0
   -3.6501    0.7728    0.0000 C   0  0  0  0  0  0  0  0  0  0  0  0
   -2.9068    2.0602    0.0000 C   0  0  0  0  0  0  0  0  0  0  0  0
   -3.5116    2.6213    0.0000 C   0  0  0  0  0  0  0  0  0  0  0  0
   -4.4384    1.0159    0.0000 C   0  0  0  0  0  0  0  0  0  0  0  0
   -4.3273    2.4984    0.0000 C   0  0  0  0  0  0  0  0  0  0  0  0
   -4.7398    1.7839    0.0000 C   0  0  0  0  0  0  0  0  0  0  0  0
  1  4  1  0
  1 14  1  1
  3  1  1  0
  3  2  1  0
  3  7  1  1
  4  2  1  0
  5  2  1  0
  5 11  1  6
  6  5  1  0
  7  6  1  0
  8  6  1  0
  9  6  1  0
 10  4  2  0
 12 11  1  0
 13 11  2  0
 15 14  2  3
 16 15  1  0
 17 16  1  0
 18 16  1  0
 19 18  1  0
 20 17  1  0
 21 19  1  0
 22 20  1  0
 22 21  1  0
M  END
>  <DRUGBANK_ID>  (1) 
DB01163

>  <SECONDARY_ACCESSION_NUMBERS>  (1) 
APRD00789

>  <COMMON_NAME>  (1) 
Amdinocillin

>  <CAS_NUMBER>  (1) 
32887-01-7

>  <UNII>  (1) 
V10579P3QZ

>  <SYNONYMS>  (1) 
Amdinocillin; Mecilinamo; Mecillinam; Mecillinamum; Penicillin HX

$$$$
