
     RDKit          2D

 10  9  0  0  1  0  0  0  0  0999 V2000
    2.1434   -0.1768    0.0000 O   0  0  0  0  0  0  0  0  0  0  0  0
    1.4289    0.2357    0.0000 C   0  0  0  0  0  0  0  0  0  0  0  0
    0.7145   -0.1768    0.0000 C   0  0  0  0  0  0  0  0  0  0  0  0
   -1.4289    0.2357    0.0000 S   0  0  0  0  0  0  0  0  0  0  0  0
    0.0000    0.2357    0.0000 C   0  0  0  0  0  0  0  0  0  0  0  0
   -0.7145   -0.1768    0.0000 C   0  0  0  0  0  0  0  0  0  0  0  0
   -2.1434   -0.1768    0.0000 C   0  0  0  0  0  0  0  0  0  0  0  0
    1.4289    1.0607    0.0000 O   0  0  0  0  0  0  0  0  0  0  0  0
    0.7145   -1.0018    0.0000 N   0  0  0  0  0  0  0  0  0  0  0  0
   -1.4289    1.0607    0.0000 O   0  0  0  0  0  0  0  0  0  0  0  0
  1  2  1  0
  2  8  2  0
  2  3  1  0
  3  9  1  1
  3  5  1  0
  4 10  2  0
  4  6  1  0
  4  7  1  0
  5  6  1  0
M  END
>  <DRUGBANK_ID>  (1) 
DB02235

>  <SECONDARY_ACCESSION_NUMBERS>  (1) 
EXPT02921

>  <COMMON_NAME>  (1) 
L-methionine (R)-S-oxide

>  <CAS_NUMBER>  (1) 
62697-73-8

>  <UNII>  (1) 
O74B4F6OYL

>  <SYNONYMS>  (1) 
Methionine Sulfoxide

$$$$
