L02
     RDKit          2D

 18 20  0  0  0  0  0  0  0  0999 V2000
    0.5532    1.0138    0.0000 N   0  0  0  0  0  0  0  0  0  0  0  0
    1.2206    0.5289    0.0000 N   0  0  0  0  0  0  0  0  0  0  0  0
    0.9657   -0.2557    0.0000 C   0  0  0  0  0  0  0  0  0  0  0  0
    0.1407   -0.2557    0.0000 C   0  0  0  0  0  0  0  0  0  0  0  0
   -0.1142    0.5289    0.0000 C   0  0  0  0  0  0  0  0  0  0  0  0
   -0.8989    0.7838    0.0000 C   0  0  0  0  0  0  0  0  0  0  0  0
   -1.5119    0.2318    0.0000 C   0  0  0  0  0  0  0  0  0  0  0  0
   -2.2966    0.4867    0.0000 C   0  0  0  0  0  0  0  0  0  0  0  0
   -2.4681    1.2937    0.0000 N   0  0  0  0  0  0  0  0  0  0  0  0
   -1.8550    1.8457    0.0000 C   0  0  0  0  0  0  0  0  0  0  0  0
   -1.0704    1.5908    0.0000 C   0  0  0  0  0  0  0  0  0  0  0  0
    1.1151   -1.6768    0.0000 C   0  0  0  0  0  0  0  0  0  0  0  0
    1.4506   -0.9232    0.0000 C   0  0  0  0  0  0  0  0  0  0  0  0
    2.2711   -0.8369    0.0000 C   0  0  0  0  0  0  0  0  0  0  0  0
    2.7560   -1.5044    0.0000 C   0  0  0  0  0  0  0  0  0  0  0  0
    2.4205   -2.2580    0.0000 C   0  0  0  0  0  0  0  0  0  0  0  0
    1.6000   -2.3443    0.0000 C   0  0  0  0  0  0  0  0  0  0  0  0
    2.9054   -2.9255    0.0000 Cl  0  0  0  0  0  0  0  0  0  0  0  0
  1  2  1  0
  1  5  1  0
  2  3  2  0
  3  4  1  0
  3 13  1  0
  4  5  2  0
  5  6  1  0
  6  7  1  0
  6 11  1  0
  7  8  1  0
  8  9  1  0
  9 10  1  0
 10 11  1  0
 12 13  2  0
 12 17  1  0
 13 14  1  0
 14 15  2  0
 15 16  1  0
 16 17  2  0
 16 18  1  0
M  END
>  <DRUGBANK_ID>  (1) 
DB08061

>  <COMMON_NAME>  (1) 
4-[3-(4-CHLOROPHENYL)-1H-PYRAZOL-5-YL]PIPERIDINE

>  <UNII>  (1) 
3M2B2SQW0I

$$$$
