
     RDKit          2D

 20 19  0  0  1  0  0  0  0  0999 V2000
    8.9041  -16.8418    0.0000 C   0  0  0  0  0  0  0  0  0  0  0  0
    8.1939  -17.2615    0.0000 C   0  0  0  0  0  0  0  0  0  0  0  0
    8.9041  -16.0347    0.0000 O   0  0  0  0  0  0  0  0  0  0  0  0
    8.1939  -18.1008    0.0000 O   0  0  0  0  0  0  0  0  0  0  0  0
    7.4836  -16.8418    0.0000 C   0  0  0  0  0  0  0  0  0  0  0  0
    9.6466  -17.2615    0.0000 C   0  0  0  0  0  0  0  0  0  0  0  0
   10.3568  -16.8418    0.0000 O   0  0  0  0  0  0  0  0  0  0  0  0
    6.7734  -17.2615    0.0000 O   0  0  0  0  0  0  0  0  0  0  0  0
    6.0308  -16.8418    0.0000 N   0  0  0  0  0  0  0  0  0  0  0  0
    5.3394  -17.2581    0.0000 O   0  0  0  0  0  0  0  0  0  0  0  0
    6.0241  -16.0168    0.0000 O   0  0  0  0  0  0  0  0  0  0  0  0
    7.4836  -18.5205    0.0000 N   0  0  0  0  0  0  0  0  0  0  0  0
    6.7734  -18.1008    0.0000 O   0  0  0  0  0  0  0  0  0  0  0  0
    7.4836  -19.3276    0.0000 O   0  0  0  0  0  0  0  0  0  0  0  0
    9.6466  -15.6150    0.0000 N   0  0  0  0  0  0  0  0  0  0  0  0
   10.3568  -16.0347    0.0000 O   0  0  0  0  0  0  0  0  0  0  0  0
    9.6466  -14.7756    0.0000 O   0  0  0  0  0  0  0  0  0  0  0  0
   11.0671  -17.2615    0.0000 N   0  0  0  0  0  0  0  0  0  0  0  0
   11.8023  -16.8565    0.0000 O   0  0  0  0  0  0  0  0  0  0  0  0
   11.0421  -18.0861    0.0000 O   0  0  0  0  0  0  0  0  0  0  0  0
  1  3  1  0
  2  1  1  0
  2  4  1  0
  2  5  1  6
  1  6  1  1
  7  6  1  0
  8  5  1  0
  9  8  1  0
 10  9  1  0
 11  9  2  0
 12  4  1  0
 13 12  1  0
 14 12  2  0
 15  3  1  0
 16 15  1  0
 17 15  2  0
 18  7  1  0
 19 18  1  0
 20 18  2  0
M  CHG  8   9   1  10  -1  12   1  13  -1  15   1  16  -1  18   1  19  -1
M  END
>  <DRUGBANK_ID>  (1) 
DB01613

>  <COMMON_NAME>  (1) 
Erythrityl tetranitrate

>  <CAS_NUMBER>  (1) 
7297-25-8

>  <UNII>  (1) 
35X333P19D

>  <SYNONYMS>  (1) 
(2R*,3S)-rel-1,2,3,4-butanetetroltetranitrate; 1,2,3,4-Butanetetralyl tetranitrate; Eritrityl tetranitrate; Eritrityli tetranitras; Erythritol tetranitrate; Erythrityl tetranitrate; Erythrol tetranitrate; ETN; Meso-erythritol tetranitrate; Tetranitrate d'eritrityle; Tetranitrato de eritritilo; Tetranitrin; Tetranitrol

$$$$
