
     RDKit          2D

 23 26  0  0  0  0  0  0  0  0999 V2000
    0.2402   -0.0012    0.0000 C   0  0  0  0  0  0  0  0  0  0  0  0
   -0.1663   -0.7108    0.0000 C   0  0  0  0  0  0  0  0  0  0  0  0
    1.0583    0.1145    0.0000 N   0  0  0  0  0  0  0  0  0  0  0  0
    0.1268   -1.4821    0.0000 C   0  0  0  0  0  0  0  0  0  0  0  0
    0.9129   -1.7261    0.0000 N   0  0  0  0  0  0  0  0  0  0  0  0
   -0.1145    0.7355    0.0000 O   0  0  0  0  0  0  0  0  0  0  0  0
    1.5979   -1.2653    0.0000 C   0  0  0  0  0  0  0  0  0  0  0  0
    1.6644   -0.4373    0.0000 C   0  0  0  0  0  0  0  0  0  0  0  0
    1.1938    0.9277    0.0000 C   0  0  0  0  0  0  0  0  0  0  0  0
   -0.9745   -0.5877    0.0000 C   0  0  0  0  0  0  0  0  0  0  0  0
   -0.5162    0.2993    0.0000 C   0  0  0  0  0  0  0  0  0  0  0  0
    0.4620    1.3072    0.0000 C   0  0  0  0  0  0  0  0  0  0  0  0
    2.3101   -1.6817    0.0000 O   0  0  0  0  0  0  0  0  0  0  0  0
   -0.3757   -2.1252    0.0000 C   0  0  0  0  0  0  0  0  0  0  0  0
   -1.4969   -1.2308    0.0000 C   0  0  0  0  0  0  0  0  0  0  0  0
   -1.1938   -1.9972    0.0000 C   0  0  0  0  0  0  0  0  0  0  0  0
   -2.3101   -1.1051    0.0000 Cl  0  0  0  0  0  0  0  0  0  0  0  0
   -1.1643   -0.2008    0.0000 C   0  0  0  0  0  0  0  0  0  0  0  0
   -0.6271    1.1199    0.0000 C   0  0  0  0  0  0  0  0  0  0  0  0
    0.3437    2.1252    0.0000 C   0  0  0  0  0  0  0  0  0  0  0  0
   -1.9331    0.0949    0.0000 C   0  0  0  0  0  0  0  0  0  0  0  0
   -1.3959    1.4255    0.0000 C   0  0  0  0  0  0  0  0  0  0  0  0
   -2.0464    0.9129    0.0000 C   0  0  0  0  0  0  0  0  0  0  0  0
  2  1  1  0
  3  1  1  0
  4  2  2  0
  5  4  1  0
  5  7  1  0
  6  1  1  0
  7  8  1  0
  8  3  1  0
  9  3  1  0
  9 12  1  0
 10  2  1  0
 11  1  1  0
 12  6  1  0
 13  7  2  0
 14  4  1  0
 14 16  2  0
 15 10  2  0
 16 15  1  0
 17 15  1  0
 18 11  2  0
 19 11  1  0
 20 12  1  0
 21 18  1  0
 21 23  2  0
 22 19  2  0
 23 22  1  0
M  END
>  <DRUGBANK_ID>  (1) 
DB15491

>  <COMMON_NAME>  (1) 
Oxazolam

>  <CAS_NUMBER>  (1) 
24143-17-7

>  <UNII>  (1) 
1V2WI2NA1C

>  <SYNONYMS>  (1) 
Oxazolam; Oxazolamum; Oxazolazepam

$$$$
