608
     RDKit          2D

 30 33  0  0  0  0  0  0  0  0999 V2000
    3.1429    1.5931    0.0000 C   0  0  0  0  0  0  0  0  0  0  0  0
    2.4284    1.1806    0.0000 C   0  0  0  0  0  0  0  0  0  0  0  0
    2.4284    0.3556    0.0000 C   0  0  0  0  0  0  0  0  0  0  0  0
    3.1429   -0.0569    0.0000 C   0  0  0  0  0  0  0  0  0  0  0  0
    3.8574    0.3556    0.0000 C   0  0  0  0  0  0  0  0  0  0  0  0
    3.8574    1.1806    0.0000 C   0  0  0  0  0  0  0  0  0  0  0  0
   -0.4295   -3.7694    0.0000 C   0  0  0  0  0  0  0  0  0  0  0  0
   -0.4295   -4.5944    0.0000 N   0  0  0  0  0  0  0  0  0  0  0  0
    0.2850   -3.3569    0.0000 C   0  0  0  0  0  0  0  0  0  0  0  0
    0.9995   -3.7694    0.0000 C   0  0  0  0  0  0  0  0  0  0  0  0
    0.9995   -4.5944    0.0000 C   0  0  0  0  0  0  0  0  0  0  0  0
    0.2850   -5.0069    0.0000 C   0  0  0  0  0  0  0  0  0  0  0  0
    0.9995   -1.2944    0.0000 C   0  0  0  0  0  0  0  0  0  0  0  0
    0.2850   -0.8819    0.0000 C   0  0  0  0  0  0  0  0  0  0  0  0
   -0.4295   -1.2944    0.0000 C   0  0  0  0  0  0  0  0  0  0  0  0
   -0.4295   -2.1194    0.0000 C   0  0  0  0  0  0  0  0  0  0  0  0
    0.2850   -2.5319    0.0000 N   0  0  0  0  0  0  0  0  0  0  0  0
    0.9995   -2.1194    0.0000 C   0  0  0  0  0  0  0  0  0  0  0  0
    1.7139   -2.5319    0.0000 N   0  0  0  0  0  0  0  0  0  0  0  0
    1.7139   -3.3569    0.0000 C   0  0  0  0  0  0  0  0  0  0  0  0
    1.7139   -0.8819    0.0000 C   0  0  0  0  0  0  0  0  0  0  0  0
    1.7139   -0.0569    0.0000 N   0  0  0  0  0  0  0  0  0  0  0  0
    2.4284   -1.2944    0.0000 O   0  0  0  0  0  0  0  0  0  0  0  0
    4.5718    1.5931    0.0000 O   0  0  0  0  0  0  0  0  0  0  0  0
    3.8574    3.6556    0.0000 C   0  0  0  0  0  0  0  0  0  0  0  0
    4.5718    4.0681    0.0000 C   0  0  0  0  0  0  0  0  0  0  0  0
    5.2863    3.6556    0.0000 C   0  0  0  0  0  0  0  0  0  0  0  0
    5.2863    2.8306    0.0000 C   0  0  0  0  0  0  0  0  0  0  0  0
    4.5718    2.4181    0.0000 C   0  0  0  0  0  0  0  0  0  0  0  0
    3.8574    2.8306    0.0000 C   0  0  0  0  0  0  0  0  0  0  0  0
  1  6  2  0
  2  1  1  0
  3  2  2  0
  3  4  1  0
  4  5  2  0
  5  6  1  0
  6 24  1  0
  7  9  2  0
  8  7  1  0
 10  9  1  0
 10 20  1  0
 11 10  2  0
 12  8  2  0
 12 11  1  0
 13 21  1  0
 14 13  2  0
 15 14  1  0
 16 17  1  0
 16 15  2  0
 17 18  2  0
 18 19  1  0
 18 13  1  0
 20 19  1  0
 21 23  2  0
 21 22  1  0
 22  3  1  0
 24 29  1  0
 25 26  2  0
 27 26  1  0
 28 27  2  0
 29 28  1  0
 29 30  2  0
 30 25  1  0
M  END
>  <DRUGBANK_ID>  (1) 
DB07183

>  <COMMON_NAME>  (1) 
N-(4-phenoxyphenyl)-2-[(pyridin-4-ylmethyl)amino]nicotinamide

$$$$
