HYQ
     RDKit          2D

 26 30  0  0  0  0  0  0  0  0999 V2000
   -1.5168   -0.4813    0.0000 C   0  0  0  0  0  0  0  0  0  0  0  0
   -0.6974   -0.5774    0.0000 C   0  0  0  0  0  0  0  0  0  0  0  0
   -0.2936   -1.2968    0.0000 O   0  0  0  0  0  0  0  0  0  0  0  0
   -0.3528    0.1722    0.0000 N   0  0  0  0  0  0  0  0  0  0  0  0
    0.4562    0.3340    0.0000 C   0  0  0  0  0  0  0  0  0  0  0  0
    0.7205    1.1155    0.0000 C   0  0  0  0  0  0  0  0  0  0  0  0
    1.5295    1.2773    0.0000 C   0  0  0  0  0  0  0  0  0  0  0  0
    2.0741    0.6576    0.0000 C   0  0  0  0  0  0  0  0  0  0  0  0
    2.8831    0.8194    0.0000 N   0  0  0  0  0  0  0  0  0  0  0  0
    3.4277    0.1997    0.0000 O   0  0  0  0  0  0  0  0  0  0  0  0
    3.1475    1.6009    0.0000 O   0  0  0  0  0  0  0  0  0  0  0  0
    1.8097   -0.1239    0.0000 C   0  0  0  0  0  0  0  0  0  0  0  0
    2.3544   -0.7436    0.0000 C   0  0  0  0  0  0  0  0  0  0  0  0
    2.0900   -1.5251    0.0000 C   0  0  0  0  0  0  0  0  0  0  0  0
    1.2810   -1.6869    0.0000 C   0  0  0  0  0  0  0  0  0  0  0  0
    0.7364   -1.0672    0.0000 C   0  0  0  0  0  0  0  0  0  0  0  0
    1.0008   -0.2857    0.0000 C   0  0  0  0  0  0  0  0  0  0  0  0
   -0.9592    0.7316    0.0000 C   0  0  0  0  0  0  0  0  0  0  0  0
   -0.8631    1.5510    0.0000 O   0  0  0  0  0  0  0  0  0  0  0  0
   -1.6786    0.3277    0.0000 C   0  0  0  0  0  0  0  0  0  0  0  0
   -2.4080    0.6140    0.0000 C   0  0  0  0  0  0  0  0  0  0  0  0
   -3.2118    0.2621    0.0000 C   0  0  0  0  0  0  0  0  0  0  0  0
   -3.1046   -0.4933    0.0000 C   0  0  0  0  0  0  0  0  0  0  0  0
   -2.2653   -0.1344    0.0000 C   0  0  0  0  0  0  0  0  0  0  0  0
   -2.1256    0.9042    0.0000 C   0  0  0  0  0  0  0  0  0  0  0  0
   -2.3703    1.5101    0.0000 C   0  0  0  0  0  0  0  0  0  0  0  0
  1  2  1  1
  1 20  1  0
  1 24  1  0
  2  3  2  0
  2  4  1  0
  4  5  1  0
  4 18  1  0
  5  6  2  0
  5 17  1  0
  6  7  1  0
  7  8  2  0
  8  9  1  0
  8 12  1  0
  9 10  1  0
  9 11  2  0
 12 13  1  0
 12 17  2  0
 13 14  2  0
 14 15  1  0
 15 16  2  0
 16 17  1  0
 18 19  2  0
 20 18  1  1
 20 21  1  0
 21 22  1  1
 21 26  1  0
 22 23  1  0
 24 23  1  6
 24 25  1  0
 25 26  1  0
M  CHG  2   9   1  10  -1
M  END
>  <DRUGBANK_ID>  (1) 
DB04709

>  <COMMON_NAME>  (1) 
(3AALPHA,4ALPHA,7ALPHA,7AALPHA)- 3A,4,7,7A-TETRAHYDRO-2-(4-NITRO-1-NAPHTHALENYL)-4,7-ETHANO-1H-ISOINDOLE-1,3(2H)-DIONE

$$$$
