
     RDKit          2D

 11 11  0  0  0  0  0  0  0  0999 V2000
   -0.3441   -0.6150    0.0000 C   0  0  0  0  0  0  0  0  0  0  0  0
    0.3477   -0.2132    0.0000 C   0  0  0  0  0  0  0  0  0  0  0  0
   -1.0674   -0.1935    0.0000 C   0  0  0  0  0  0  0  0  0  0  0  0
   -0.3513   -1.4400    0.0000 C   0  0  0  0  0  0  0  0  0  0  0  0
    0.3549    0.6095    0.0000 C   0  0  0  0  0  0  0  0  0  0  0  0
   -1.0602    0.6221    0.0000 C   0  0  0  0  0  0  0  0  0  0  0  0
    0.3534   -1.8650    0.0000 C   0  0  0  0  0  0  0  0  0  0  0  0
   -1.0821   -1.8523    0.0000 C   0  0  0  0  0  0  0  0  0  0  0  0
   -0.3369    1.0365    0.0000 C   0  0  0  0  0  0  0  0  0  0  0  0
    1.0821    1.0293    0.0000 O   0  0  0  0  0  0  0  0  0  0  0  0
   -0.3296    1.8650    0.0000 C   0  0  0  0  0  0  0  0  0  0  0  0
  1  2  2  0
  1  3  1  0
  1  4  1  0
  2  5  1  0
  3  6  2  0
  4  7  1  0
  4  8  1  0
  5  9  2  0
  5 10  1  0
  6  9  1  0
  9 11  1  0
M  END
>  <DRUGBANK_ID>  (1) 
DB16404

>  <COMMON_NAME>  (1) 
Carvacrol

>  <CAS_NUMBER>  (1) 
499-75-2

>  <UNII>  (1) 
9B1J4V995Q

>  <SYNONYMS>  (1) 
5-Isopropyl-o-cresol; p-Cymen-2-ol

$$$$
