
     RDKit          2D

 28 32  0  0  1  0  0  0  0  0999 V2000
   -0.0404   -0.2549    0.0000 C   0  0  0  0  0  0  0  0  0  0  0  0
    0.7846   -0.2549    0.0000 N   0  0  0  0  0  0  0  0  0  0  0  0
    1.2695    0.4125    0.0000 C   0  0  0  0  0  0  0  0  0  0  0  0
    2.0542    0.1576    0.0000 C   0  0  0  0  0  0  0  0  0  0  0  0
    2.8388    0.4125    0.0000 C   0  0  0  0  0  0  0  0  0  0  0  0
    3.3237   -0.2549    0.0000 C   0  0  0  0  0  0  0  0  0  0  0  0
    2.8388   -0.9224    0.0000 N   0  0  0  0  0  0  0  0  0  0  0  0
    2.0542   -0.6674    0.0000 C   0  0  0  0  0  0  0  0  0  0  0  0
    1.2695   -0.9224    0.0000 C   0  0  0  0  0  0  0  0  0  0  0  0
    3.0937   -1.7070    0.0000 C   0  0  0  0  0  0  0  0  0  0  0  0
    3.9007   -1.8785    0.0000 C   0  0  0  0  0  0  0  0  0  0  0  0
    4.1556   -2.6631    0.0000 C   0  0  0  0  0  0  0  0  0  0  0  0
    3.6036   -3.2762    0.0000 C   0  0  0  0  0  0  0  0  0  0  0  0
    2.7966   -3.1047    0.0000 C   0  0  0  0  0  0  0  0  0  0  0  0
    2.5417   -2.3201    0.0000 C   0  0  0  0  0  0  0  0  0  0  0  0
    3.8585   -4.0609    0.0000 C   0  0  0  0  0  0  0  0  0  0  0  0
    4.6655   -4.2324    0.0000 C   0  0  0  0  0  0  0  0  0  0  0  0
    4.9205   -5.0170    0.0000 C   0  0  0  0  0  0  0  0  0  0  0  0
    4.3684   -5.6301    0.0000 C   0  0  0  0  0  0  0  0  0  0  0  0
    3.5615   -5.4586    0.0000 C   0  0  0  0  0  0  0  0  0  0  0  0
    3.3065   -4.6740    0.0000 C   0  0  0  0  0  0  0  0  0  0  0  0
    4.6234   -6.4147    0.0000 N   0  0  0  0  0  0  0  0  0  0  0  0
    5.4303   -6.5863    0.0000 N   0  0  0  0  0  0  0  0  0  0  0  0
    5.6853   -7.3709    0.0000 C   0  0  0  0  0  0  0  0  0  0  0  0
    5.1332   -7.9840    0.0000 C   0  0  0  0  0  0  0  0  0  0  0  0
    4.3263   -7.8124    0.0000 C   0  0  0  0  0  0  0  0  0  0  0  0
    4.0713   -7.0278    0.0000 C   0  0  0  0  0  0  0  0  0  0  0  0
    3.2644   -6.8563    0.0000 O   0  0  0  0  0  0  0  0  0  0  0  0
  1  2  1  0
  2  3  1  0
  2  9  1  0
  4  3  1  1
  4  5  1  0
  4  8  1  0
  5  6  1  0
  6  7  1  0
  7 10  1  0
  8  7  1  0
  8  9  1  1
 10 11  2  0
 10 15  1  0
 11 12  1  0
 12 13  2  0
 13 14  1  0
 13 16  1  0
 14 15  2  0
 16 17  2  0
 16 21  1  0
 17 18  1  0
 18 19  2  0
 19 20  1  0
 19 22  1  0
 20 21  2  0
 22 23  1  0
 22 27  1  0
 23 24  2  0
 24 25  1  0
 25 26  2  0
 26 27  1  0
 27 28  2  0
M  END
>  <DRUGBANK_ID>  (1) 
DB15192

>  <COMMON_NAME>  (1) 
ABT-288

>  <CAS_NUMBER>  (1) 
948845-91-8

>  <UNII>  (1) 
5MEI1M3NHH

$$$$
