
     RDKit          2D

  7  6  0  0  0  0  0  0  0  0999 V2000
    0.7145    0.2062    0.0000 C   0  0  0  0  0  0  0  0  0  0  0  0
    0.0000   -0.2062    0.0000 C   0  0  0  0  0  0  0  0  0  0  0  0
   -0.7145    0.2062    0.0000 C   0  0  0  0  0  0  0  0  0  0  0  0
    1.4291   -0.2062    0.0000 O   0  0  0  0  0  0  0  0  0  0  0  0
    0.7145    1.0313    0.0000 O   0  0  0  0  0  0  0  0  0  0  0  0
    0.0000   -1.0313    0.0000 N   0  0  0  0  0  0  0  0  0  0  0  0
   -1.4291   -0.2062    0.0000 O   0  0  0  0  0  0  0  0  0  0  0  0
  2  1  1  0
  2  6  1  1
  3  2  1  0
  4  1  1  0
  5  1  2  0
  7  3  1  0
M  END
>  <DRUGBANK_ID>  (1) 
DB00133

>  <SECONDARY_ACCESSION_NUMBERS>  (1) 
NUTR00053; DB03375

>  <COMMON_NAME>  (1) 
Serine

>  <CAS_NUMBER>  (1) 
56-45-1

>  <UNII>  (1) 
452VLY9402

>  <SYNONYMS>  (1) 
(S)-2-Amino-3-hydroxypropanoic acid; (S)-Serine; alpha-Amino-beta-hydroxypropionic acid; beta-Hydroxyalanine; L-Serine; Ser; Serina; Serine; Serinum

$$$$
