
     RDKit          2D

  3  0  0  0  0  0  0  0  0  0999 V2000
   -0.9219   -0.0312    0.0000 Ra  0  0  0  0  0 15  0  0  0  0  0  0
    0.6985    0.7008    0.0000 Cl  0  0  0  0  0  0  0  0  0  0  0  0
    0.7209   -0.7053    0.0000 Cl  0  0  0  0  0  0  0  0  0  0  0  0
M  CHG  3   1   2   2  -1   3  -1
M  ISO  1   1 223
M  END
>  <DRUGBANK_ID>  (1) 
DB08913

>  <SECONDARY_ACCESSION_NUMBERS>  (1) 
DB05677; DB09566

>  <COMMON_NAME>  (1) 
Radium Ra 223 dichloride

>  <CAS_NUMBER>  (1) 
444811-40-9

>  <UNII>  (1) 
RJ00KV3VTG

>  <SYNONYMS>  (1) 
Radium chloride Ra-223; Radium Ra 223 dichloride; Radium Ra-223 dichloride; Radium-223 chloride; Radium-223 dichloride

$$$$
