
     RDKit          2D

 28 31  0  0  0  0  0  0  0  0999 V2000
    1.1657    0.4291    0.0000 C   0  0  0  0  0  0  0  0  0  0  0  0
   -0.2465   -0.4170    0.0000 C   0  0  0  0  0  0  0  0  0  0  0  0
   -0.9619   -0.8461    0.0000 C   0  0  0  0  0  0  0  0  0  0  0  0
    1.1566   -0.3652    0.0000 C   0  0  0  0  0  0  0  0  0  0  0  0
    1.9268    0.7213    0.0000 C   0  0  0  0  0  0  0  0  0  0  0  0
    0.4444   -0.8127    0.0000 C   0  0  0  0  0  0  0  0  0  0  0  0
    2.4259    0.0730    0.0000 C   0  0  0  0  0  0  0  0  0  0  0  0
   -0.9619   -1.6711    0.0000 C   0  0  0  0  0  0  0  0  0  0  0  0
   -0.2465    0.4108    0.0000 C   0  0  0  0  0  0  0  0  0  0  0  0
    0.4078    0.8340    0.0000 C   0  0  0  0  0  0  0  0  0  0  0  0
    1.9602   -0.6209    0.0000 C   0  0  0  0  0  0  0  0  0  0  0  0
   -1.7076   -0.4474    0.0000 C   0  0  0  0  0  0  0  0  0  0  0  0
   -1.6619   -2.1093    0.0000 C   0  0  0  0  0  0  0  0  0  0  0  0
    1.8720    1.5341    0.0000 C   0  0  0  0  0  0  0  0  0  0  0  0
    0.4444   -1.6406    0.0000 C   0  0  0  0  0  0  0  0  0  0  0  0
   -2.4198   -0.8857    0.0000 C   0  0  0  0  0  0  0  0  0  0  0  0
   -2.4289   -1.7076    0.0000 C   0  0  0  0  0  0  0  0  0  0  0  0
   -0.2130   -2.0728    0.0000 C   0  0  0  0  0  0  0  0  0  0  0  0
    3.1230    0.0730    0.0000 C   0  0  0  0  0  0  0  0  0  0  0  0
   -0.2404   -1.1292    0.0000 F   0  0  0  0  0  0  0  0  0  0  0  0
    2.6664    1.7807    0.0000 O   0  0  0  0  0  0  0  0  0  0  0  0
   -3.1230   -2.1550    0.0000 O   0  0  0  0  0  0  0  0  0  0  0  0
    2.7820    0.8127    0.0000 O   0  0  0  0  0  0  0  0  0  0  0  0
    1.0378    1.2327    0.0000 C   0  0  0  0  0  0  0  0  0  0  0  0
   -0.9710    0.7792    0.0000 O   0  0  0  0  0  0  0  0  0  0  0  0
   -0.9801   -0.0273    0.0000 C   0  0  0  0  0  0  0  0  0  0  0  0
    1.3392    2.1550    0.0000 C   0  0  0  0  0  0  0  0  0  0  0  0
    0.5266    2.0363    0.0000 O   0  0  0  0  0  0  0  0  0  0  0  0
  1 24  1  1
  2  9  1  0
  2 20  1  6
  2  6  1  0
  3  2  1  0
  3 26  1  1
  4  1  1  0
  5  1  1  0
  5 14  1  0
  5 23  1  6
  6  4  1  0
  7  5  1  0
  8  3  1  0
  8 18  1  0
  9 10  1  0
  9 25  1  1
 10  1  1  0
  4 11  1  1
 11  7  1  0
 12  3  1  0
 13  8  2  0
 13 17  1  0
  6 15  1  6
 16 12  2  0
 17 16  1  0
 18 15  1  0
 19  7  2  0
 21 14  2  0
 22 17  2  0
 27 14  1  0
 28 27  1  0
M  END
>  <DRUGBANK_ID>  (1) 
DB08970

>  <COMMON_NAME>  (1) 
Fluprednidene

>  <CAS_NUMBER>  (1) 
2193-87-5

>  <UNII>  (1) 
FA517NS3N7

>  <SYNONYMS>  (1) 
Fluprednidene

$$$$
