
     RDKit          2D

 19 20  0  0  0  0  0  0  0  0999 V2000
   -2.1433    2.0625    0.0000 C   0  0  0  0  0  0  0  0  0  0  0  0
   -1.4289    1.6500    0.0000 O   0  0  0  0  0  0  0  0  0  0  0  0
   -1.4289    0.8250    0.0000 C   0  0  0  0  0  0  0  0  0  0  0  0
   -0.7144    0.4125    0.0000 C   0  0  0  0  0  0  0  0  0  0  0  0
   -0.7144   -0.4125    0.0000 C   0  0  0  0  0  0  0  0  0  0  0  0
    0.0000   -0.8250    0.0000 C   0  0  0  0  0  0  0  0  0  0  0  0
    0.7144   -0.4125    0.0000 C   0  0  0  0  0  0  0  0  0  0  0  0
    1.4289   -0.8250    0.0000 C   0  0  0  0  0  0  0  0  0  0  0  0
    2.1434   -0.4125    0.0000 C   0  0  0  0  0  0  0  0  0  0  0  0
    2.8578   -0.8250    0.0000 C   0  0  0  0  0  0  0  0  0  0  0  0
    2.8578   -1.6500    0.0000 C   0  0  0  0  0  0  0  0  0  0  0  0
    3.5723   -2.0625    0.0000 O   0  0  0  0  0  0  0  0  0  0  0  0
    2.1434   -2.0625    0.0000 C   0  0  0  0  0  0  0  0  0  0  0  0
    1.4289   -1.6500    0.0000 C   0  0  0  0  0  0  0  0  0  0  0  0
   -1.4289   -0.8250    0.0000 C   0  0  0  0  0  0  0  0  0  0  0  0
   -2.1433   -0.4125    0.0000 C   0  0  0  0  0  0  0  0  0  0  0  0
   -2.8578   -0.8250    0.0000 O   0  0  0  0  0  0  0  0  0  0  0  0
   -3.5723   -0.4125    0.0000 C   0  0  0  0  0  0  0  0  0  0  0  0
   -2.1433    0.4125    0.0000 C   0  0  0  0  0  0  0  0  0  0  0  0
  1  2  1  0
  2  3  1  0
  3  4  2  0
  3 19  1  0
  4  5  1  0
  5  6  1  0
  5 15  2  0
  6  7  2  0
  7  8  1  0
  8  9  2  0
  8 14  1  0
  9 10  1  0
 10 11  2  0
 11 12  1  0
 11 13  1  0
 13 14  2  0
 15 16  1  0
 16 17  1  0
 16 19  2  0
 17 18  1  0
M  END
>  <DRUGBANK_ID>  (1) 
DB17939

>  <COMMON_NAME>  (1) 
Pterostilbene

>  <CAS_NUMBER>  (1) 
18259-15-9

>  <UNII>  (1) 
26R60S6A5I

>  <SYNONYMS>  (1) 
3,5-DIMETHOXY-4'-HYDROXY-TRANS-STILBENE; EH-301 COMPONENT PTEROSTILBENE; PHENOL, 4-((1E)-2-(3,5-DIMETHOXYPHENYL)ETHENYL)-

$$$$
