
     RDKit          2D

  8  8  0  0  1  0  0  0  0  0999 V2000
   -0.1467    2.3518    0.0000 O   0  0  0  0  0  0  0  0  0  0  0  0
    0.5678    1.9393    0.0000 C   0  0  0  0  0  0  0  0  0  0  0  0
    1.2822    2.3518    0.0000 O   0  0  0  0  0  0  0  0  0  0  0  0
    0.5678    1.1143    0.0000 C   0  0  0  0  0  0  0  0  0  0  0  0
    1.2352    0.6294    0.0000 C   0  0  0  0  0  0  0  0  0  0  0  0
    0.9803   -0.1553    0.0000 C   0  0  0  0  0  0  0  0  0  0  0  0
    0.1553   -0.1553    0.0000 C   0  0  0  0  0  0  0  0  0  0  0  0
   -0.0997    0.6294    0.0000 O   0  0  0  0  0  0  0  0  0  0  0  0
  1  2  1  0
  2  3  2  0
  4  2  1  1
  4  5  1  0
  4  8  1  0
  5  6  1  0
  6  7  1  0
  7  8  1  0
M  END
>  <DRUGBANK_ID>  (1) 
DB03051

>  <SECONDARY_ACCESSION_NUMBERS>  (1) 
EXPT03042

>  <COMMON_NAME>  (1) 
(S)-2-Tetrahydrofuroic acid

>  <CAS_NUMBER>  (1) 
87392-05-0

>  <UNII>  (1) 
7396HFQ44J

>  <SYNONYMS>  (1) 
(2R)-Tetrahydro-2-furancarboxylic acid; (R)-(+)-Tetrahydro-2-furoic acid; (R)-Tetrahydrofuran-2-carboxylic acid; (S)-(-)-2-Tetrahydrofuroic acid

$$$$
