TXS
     RDKit          2D

 21 23  0  0  0  0  0  0  0  0999 V2000
    1.4527   -1.1559    0.0000 C   0  0  0  0  0  0  0  0  0  0  0  0
    2.1201   -1.6408    0.0000 C   0  0  0  0  0  0  0  0  0  0  0  0
    1.8652   -2.4255    0.0000 C   0  0  0  0  0  0  0  0  0  0  0  0
    1.0402   -2.4255    0.0000 C   0  0  0  0  0  0  0  0  0  0  0  0
    0.7852   -1.6408    0.0000 N   0  0  0  0  0  0  0  0  0  0  0  0
    0.0006   -1.3859    0.0000 C   0  0  0  0  0  0  0  0  0  0  0  0
   -0.1709   -0.5789    0.0000 C   0  0  0  0  0  0  0  0  0  0  0  0
   -0.9246   -0.2434    0.0000 O   0  0  0  0  0  0  0  0  0  0  0  0
    0.3811    0.0342    0.0000 C   0  0  0  0  0  0  0  0  0  0  0  0
    1.2016   -0.0521    0.0000 O   0  0  0  0  0  0  0  0  0  0  0  0
   -0.0314    0.7486    0.0000 C   0  0  0  0  0  0  0  0  0  0  0  0
   -0.8384    0.5771    0.0000 C   0  0  0  0  0  0  0  0  0  0  0  0
   -1.4515    1.1291    0.0000 N   0  0  0  0  0  0  0  0  0  0  0  0
   -2.2361    0.8742    0.0000 C   0  0  0  0  0  0  0  0  0  0  0  0
   -2.8492    1.4262    0.0000 C   0  0  0  0  0  0  0  0  0  0  0  0
   -3.6338    1.1713    0.0000 C   0  0  0  0  0  0  0  0  0  0  0  0
   -2.6777    2.2332    0.0000 C   0  0  0  0  0  0  0  0  0  0  0  0
   -3.2907    2.7852    0.0000 O   0  0  0  0  0  0  0  0  0  0  0  0
   -1.8930    2.4881    0.0000 N   0  0  0  0  0  0  0  0  0  0  0  0
   -1.2799    1.9361    0.0000 C   0  0  0  0  0  0  0  0  0  0  0  0
   -0.4953    2.1911    0.0000 O   0  0  0  0  0  0  0  0  0  0  0  0
  1  2  1  0
  1  5  1  0
  2  3  1  0
  3  4  1  0
  4  5  1  0
  5  6  1  0
  7  6  1  6
  7  8  1  0
  7  9  1  0
  8 12  1  0
  9 10  1  1
  9 11  1  0
 11 12  1  0
 12 13  1  6
 13 14  1  0
 13 20  1  0
 14 15  2  0
 15 16  1  0
 15 17  1  0
 17 18  2  0
 17 19  1  0
 19 20  1  0
 20 21  2  0
M  END
>  <DRUGBANK_ID>  (1) 
DB08661

>  <COMMON_NAME>  (1) 
1-(2,5-dideoxy-5-pyrrolidin-1-yl-beta-L-erythro-pentofuranosyl)-5-methylpyrimidine-2,4(1H,3H)-dione

$$$$
