PHI
     RDKit          2D

 13 13  0  0  0  0  0  0  0  0999 V2000
   -0.0677    1.1907    0.0000 N   0  0  0  0  0  0  0  0  0  0  0  0
    0.6467    0.7782    0.0000 C   0  0  0  0  0  0  0  0  0  0  0  0
    0.6467   -0.0468    0.0000 C   0  0  0  0  0  0  0  0  0  0  0  0
   -0.0677   -0.4593    0.0000 C   0  0  0  0  0  0  0  0  0  0  0  0
   -0.0677   -1.2843    0.0000 C   0  0  0  0  0  0  0  0  0  0  0  0
   -0.7822   -0.0468    0.0000 C   0  0  0  0  0  0  0  0  0  0  0  0
   -0.7822   -1.6968    0.0000 C   0  0  0  0  0  0  0  0  0  0  0  0
   -1.4967   -0.4593    0.0000 C   0  0  0  0  0  0  0  0  0  0  0  0
   -1.4967   -1.2843    0.0000 C   0  0  0  0  0  0  0  0  0  0  0  0
   -2.2112   -1.6968    0.0000 I   0  0  0  0  0  0  0  0  0  0  0  0
    1.3612    1.1907    0.0000 C   0  0  0  0  0  0  0  0  0  0  0  0
    1.3612    2.0157    0.0000 O   0  0  0  0  0  0  0  0  0  0  0  0
    2.0757    0.7782    0.0000 O   0  0  0  0  0  0  0  0  0  0  0  0
  2  1  1  6
  2  3  1  0
  2 11  1  0
  3  4  1  0
  4  5  2  0
  4  6  1  0
  5  7  1  0
  6  8  2  0
  7  9  2  0
  8  9  1  0
  9 10  1  0
 11 12  2  0
 11 13  1  0
M  END
>  <DRUGBANK_ID>  (1) 
DB03660

>  <SECONDARY_ACCESSION_NUMBERS>  (1) 
EXPT02587

>  <COMMON_NAME>  (1) 
4-Iodo-L-phenylalanine

>  <CAS_NUMBER>  (1) 
24250-85-9

>  <UNII>  (1) 
J882Z73MPL

>  <SYNONYMS>  (1) 
4-iodophenylalanine; p-Iodo-L-phenylalanine; p-iodophenylalanine

$$$$
