
     RDKit          2D

 33 35  0  0  1  0  0  0  0  0999 V2000
    5.2490    2.4098    0.0000 Cl  0  0  0  0  0  0  0  0  0  0  0  0
    1.1575    4.1438    0.0000 S   0  0  0  0  0  0  0  0  0  0  0  0
    8.9998    2.8840    0.0000 P   0  0  0  0  0  0  0  0  0  0  0  0
    8.2157    2.6277    0.0000 O   0  0  0  0  0  0  0  0  0  0  0  0
    9.6139    2.3330    0.0000 O   0  0  0  0  0  0  0  0  0  0  0  0
    7.9362    3.8383    0.0000 O   0  0  0  0  0  0  0  0  0  0  0  0
    9.5508    3.4980    0.0000 O   0  0  0  0  0  0  0  0  0  0  0  0
    1.8719    4.5563    0.0000 O   0  0  0  0  0  0  0  0  0  0  0  0
    0.7450    4.8582    0.0000 O   0  0  0  0  0  0  0  0  0  0  0  0
    1.5700    3.4292    0.0000 O   0  0  0  0  0  0  0  0  0  0  0  0
    6.6164    5.5768    0.0000 N   0  0  0  0  0  0  0  0  0  0  0  0
    6.6164    6.9046    0.0000 N   0  0  0  0  0  0  0  0  0  0  0  0
    5.1212    5.4157    0.0000 N   0  0  0  0  0  0  0  0  0  0  0  0
    4.4068    6.6532    0.0000 N   0  0  0  0  0  0  0  0  0  0  0  0
    5.1212    7.8907    0.0000 N   0  0  0  0  0  0  0  0  0  0  0  0
    8.0455    1.8204    0.0000 C   0  0  0  0  0  0  0  0  0  0  0  0
    8.6595    1.2694    0.0000 C   0  0  0  0  0  0  0  0  0  0  0  0
    9.4438    1.5257    0.0000 C   0  0  0  0  0  0  0  0  0  0  0  0
    7.2613    1.5641    0.0000 C   0  0  0  0  0  0  0  0  0  0  0  0
    8.7435    3.6682    0.0000 C   0  0  0  0  0  0  0  0  0  0  0  0
    6.6473    2.1151    0.0000 C   0  0  0  0  0  0  0  0  0  0  0  0
    7.0912    0.7568    0.0000 C   0  0  0  0  0  0  0  0  0  0  0  0
    7.6799    4.6224    0.0000 C   0  0  0  0  0  0  0  0  0  0  0  0
    6.8726    4.7926    0.0000 C   0  0  0  0  0  0  0  0  0  0  0  0
    5.8631    1.8587    0.0000 C   0  0  0  0  0  0  0  0  0  0  0  0
    6.3070    0.5005    0.0000 C   0  0  0  0  0  0  0  0  0  0  0  0
    5.8358    5.8282    0.0000 C   0  0  0  0  0  0  0  0  0  0  0  0
    5.6930    1.0515    0.0000 C   0  0  0  0  0  0  0  0  0  0  0  0
    5.8358    6.6532    0.0000 C   0  0  0  0  0  0  0  0  0  0  0  0
    7.0979    6.2407    0.0000 C   0  0  0  0  0  0  0  0  0  0  0  0
    5.1212    7.0657    0.0000 C   0  0  0  0  0  0  0  0  0  0  0  0
    4.4068    5.8282    0.0000 C   0  0  0  0  0  0  0  0  0  0  0  0
    0.4429    3.7313    0.0000 C   0  0  0  0  0  0  0  0  0  0  0  0
  1 25  1  0
  2  8  1  0
  2  9  2  0
  2 10  2  0
  2 33  1  0
  3  4  1  0
  3  5  1  0
  3  7  2  0
  3 20  1  0
  4 16  1  0
  5 18  1  0
  6 20  1  0
  6 23  1  0
 11 24  1  0
 11 27  1  0
 11 30  1  0
 12 29  1  0
 12 30  2  0
 13 27  1  0
 13 32  2  0
 14 31  2  0
 14 32  1  0
 15 31  1  0
 16 17  1  0
 16 19  1  1
 17 18  1  0
 19 21  2  0
 19 22  1  0
 21 25  1  0
 22 26  2  0
 23 24  1  0
 25 28  2  0
 26 28  1  0
 27 29  2  0
 29 31  1  0
M  END
>  <DRUGBANK_ID>  (1) 
DB05478

>  <COMMON_NAME>  (1) 
Pradefovir mesylate

>  <CAS_NUMBER>  (1) 
625095-61-6

>  <UNII>  (1) 
0D5204ZSIX

>  <SYNONYMS>  (1) 
Pradefovir mesilate; Pradefovir mesylate

$$$$
