
     RDKit          2D

 31 33  0  0  0  0  0  0  0  0999 V2000
   -0.4176    1.1786    0.0000 C   0  0  0  0  0  0  0  0  0  0  0  0
   -1.1354    0.7645    0.0000 C   0  0  0  0  0  0  0  0  0  0  0  0
    0.2898    0.7714    0.0000 C   0  0  0  0  0  0  0  0  0  0  0  0
   -0.4210    2.0104    0.0000 C   0  0  0  0  0  0  0  0  0  0  0  0
   -1.1354   -0.0604    0.0000 O   0  0  0  0  0  0  0  0  0  0  0  0
   -1.8499    1.1786    0.0000 C   0  0  0  0  0  0  0  0  0  0  0  0
    1.0042    1.1856    0.0000 C   0  0  0  0  0  0  0  0  0  0  0  0
    0.2933   -0.0534    0.0000 O   0  0  0  0  0  0  0  0  0  0  0  0
   -1.1390    2.4211    0.0000 C   0  0  0  0  0  0  0  0  0  0  0  0
    0.2933    2.4246    0.0000 O   0  0  0  0  0  0  0  0  0  0  0  0
   -2.0915   -0.9991    0.0000 C   0  0  0  0  0  0  0  0  0  0  0  0
   -1.8499    2.0070    0.0000 C   0  0  0  0  0  0  0  0  0  0  0  0
    1.7153    0.7748    0.0000 C   0  0  0  0  0  0  0  0  0  0  0  0
   -2.4987   -0.2847    0.0000 O   0  0  0  0  0  0  0  0  0  0  0  0
   -2.5160   -1.7100    0.0000 C   0  0  0  0  0  0  0  0  0  0  0  0
   -2.5643    2.4176    0.0000 O   0  0  0  0  0  0  0  0  0  0  0  0
    2.4297    1.1890    0.0000 C   0  0  0  0  0  0  0  0  0  0  0  0
   -3.3271   -0.2743    0.0000 C   0  0  0  0  0  0  0  0  0  0  0  0
   -3.3409   -1.6997    0.0000 C   0  0  0  0  0  0  0  0  0  0  0  0
   -2.1122   -2.4280    0.0000 O   0  0  0  0  0  0  0  0  0  0  0  0
    3.1441    0.7748    0.0000 C   0  0  0  0  0  0  0  0  0  0  0  0
    2.4263    2.0070    0.0000 C   0  0  0  0  0  0  0  0  0  0  0  0
   -3.7412   -0.9818    0.0000 C   0  0  0  0  0  0  0  0  0  0  0  0
   -3.7308    0.4435    0.0000 C   0  0  0  0  0  0  0  0  0  0  0  0
   -3.7619   -2.4072    0.0000 O   0  0  0  0  0  0  0  0  0  0  0  0
    3.8552    1.1856    0.0000 C   0  0  0  0  0  0  0  0  0  0  0  0
    3.1372    2.4246    0.0000 C   0  0  0  0  0  0  0  0  0  0  0  0
   -4.5696   -0.9715    0.0000 O   0  0  0  0  0  0  0  0  0  0  0  0
   -3.3098    1.1544    0.0000 O   0  0  0  0  0  0  0  0  0  0  0  0
    3.8552    2.0104    0.0000 C   0  0  0  0  0  0  0  0  0  0  0  0
    4.5696    2.4280    0.0000 O   0  0  0  0  0  0  0  0  0  0  0  0
  1  2  1  0
  1  3  1  0
  1  4  2  0
  2  5  1  0
  2  6  2  0
  3  7  1  0
  3  8  2  0
  4  9  1  0
  4 10  1  0
  6 12  1  0
  7 13  1  0
  9 12  2  0
 11  5  1  1
 11 14  1  0
 11 15  1  0
 12 16  1  0
 13 17  1  0
 14 18  1  0
 15 19  1  0
 15 20  1  6
 17 21  2  0
 17 22  1  0
 18 23  1  0
 18 24  1  1
 19 25  1  1
 19 23  1  0
 21 26  1  0
 22 27  2  0
 23 28  1  6
 24 29  1  0
 26 30  2  0
 27 30  1  0
 30 31  1  0
M  END
>  <DRUGBANK_ID>  (1) 
DB16771

>  <COMMON_NAME>  (1) 
Phlorizin

>  <CAS_NUMBER>  (1) 
60-81-1

>  <UNII>  (1) 
CU9S17279X

>  <SYNONYMS>  (1) 
Floridzin; Phloretin 2'-glucoside; Phlorhizin; Phloridzin; Phloridzosid; Phlorizoside; Phlorrhizen; Phlorrhizin

$$$$
