
     RDKit          2D

 19 20  0  0  0  0  0  0  0  0999 V2000
    3.5724    2.0625    0.0000 C   0  0  0  0  0  0  0  0  0  0  0  0
    2.8579    3.3000    0.0000 C   0  0  0  0  0  0  0  0  0  0  0  0
   -3.5479    0.4548    0.0000 C   0  0  0  0  0  0  0  0  0  0  0  0
   -2.1434    3.7125    0.0000 C   0  0  0  0  0  0  0  0  0  0  0  0
   -2.8579    3.3000    0.0000 C   0  0  0  0  0  0  0  0  0  0  0  0
   -1.4289    3.3000    0.0000 C   0  0  0  0  0  0  0  0  0  0  0  0
   -2.3149    1.2555    0.0000 C   0  0  0  0  0  0  0  0  0  0  0  0
    1.4289    2.4750    0.0000 C   0  0  0  0  0  0  0  0  0  0  0  0
    0.0000    2.4750    0.0000 C   0  0  0  0  0  0  0  0  0  0  0  0
    2.8579    2.4750    0.0000 C   0  0  0  0  0  0  0  0  0  0  0  0
   -3.1354    1.1693    0.0000 C   0  0  0  0  0  0  0  0  0  0  0  0
    0.7145    2.0625    0.0000 C   0  0  0  0  0  0  0  0  0  0  0  0
   -2.1434    2.0625    0.0000 C   0  0  0  0  0  0  0  0  0  0  0  0
   -2.8579    2.4750    0.0000 C   0  0  0  0  0  0  0  0  0  0  0  0
   -1.4289    2.4750    0.0000 C   0  0  0  0  0  0  0  0  0  0  0  0
    2.1434    2.0625    0.0000 N   0  0  0  0  0  0  0  0  0  0  0  0
   -3.4710    1.9230    0.0000 N   0  0  0  0  0  0  0  0  0  0  0  0
    0.7145    1.2375    0.0000 O   0  0  0  0  0  0  0  0  0  0  0  0
   -0.7145    2.0625    0.0000 O   0  0  0  0  0  0  0  0  0  0  0  0
  5  4  2  0
  6  4  1  0
 10  1  1  0
 10  2  1  0
 11  3  1  0
 11  7  2  0
 12  8  1  0
 12  9  1  0
 13  7  1  0
 14  5  1  0
 14 13  2  0
 15  6  2  0
 15 13  1  0
 16  8  1  0
 16 10  1  0
 17 11  1  0
 17 14  1  0
 18 12  1  0
 19  9  1  0
 19 15  1  0
M  END
>  <DRUGBANK_ID>  (1) 
DB13530

>  <COMMON_NAME>  (1) 
Mepindolol

>  <CAS_NUMBER>  (1) 
23694-81-7

>  <UNII>  (1) 
00Q31ER368

>  <SYNONYMS>  (1) 
Mepindolol; Mepindololum

$$$$
