
     RDKit          3D

 47 51  0  0  0  0  0  0  0  0999 V2000
   37.3910   29.3010   42.0310 N   0  0  0  0  0  0  0  0  0  0  0  0
   36.2250   29.1120   41.3690 C   0  0  0  0  0  0  0  0  0  0  0  0
   36.1500   29.7000   40.1230 C   0  0  0  0  0  0  0  0  0  0  0  0
   37.1400   30.4370   39.5290 C   0  0  0  0  0  0  0  0  0  0  0  0
   37.0390   30.9510   38.4110 O   0  0  0  0  0  0  0  0  0  0  0  0
   38.2740   30.5600   40.2910 N   0  0  0  0  0  0  0  0  0  0  0  0
   38.3970   30.0070   41.5090 C   0  0  0  0  0  0  0  0  0  0  0  0
   39.4870   30.1790   42.1350 O   0  0  0  0  0  0  0  0  0  0  0  0
   39.3760   31.3180   39.7560 C   0  0  0  0  0  0  0  0  0  0  0  0
   40.4920   30.9670   39.0430 C   0  0  0  0  0  0  0  0  0  0  0  0
   41.2210   32.0600   38.7800 N   0  0  0  0  0  0  0  0  0  0  0  0
   40.5790   33.1380   39.3240 C   0  0  0  0  0  0  0  0  0  0  0  0
   40.8730   34.4720   39.3550 C   0  0  0  0  0  0  0  0  0  0  0  0
   40.0630   35.3970   39.9760 C   0  0  0  0  0  0  0  0  0  0  0  0
   38.8840   34.9660   40.6070 C   0  0  0  0  0  0  0  0  0  0  0  0
   38.6220   33.6160   40.5550 C   0  0  0  0  0  0  0  0  0  0  0  0
   39.4380   32.6830   39.9290 C   0  0  0  0  0  0  0  0  0  0  0  0
   37.5910   28.7320   43.3450 C   0  0  0  0  0  0  0  0  0  0  0  0
   40.0890   26.0280   43.8530 C   0  0  0  0  0  0  0  0  0  0  0  0
   39.6080   25.0300   43.0040 C   0  0  0  0  0  0  0  0  0  0  0  0
   38.4620   25.2850   42.2840 C   0  0  0  0  0  0  0  0  0  0  0  0
   37.8610   26.4690   42.4270 N   0  0  0  0  0  0  0  0  0  0  0  0
   38.3430   27.4400   43.2620 C   0  0  0  0  0  0  0  0  0  0  0  0
   39.4430   27.1870   43.9490 N   0  0  0  0  0  0  0  0  0  0  0  0
   37.8590   24.3260   41.3650 C   0  0  0  0  0  0  0  0  0  0  0  0
   36.5460   24.5180   41.0050 C   0  0  0  0  0  0  0  0  0  0  0  0
   35.8700   23.6610   40.1310 C   0  0  0  0  0  0  0  0  0  0  0  0
   36.5970   22.5790   39.6280 C   0  0  0  0  0  0  0  0  0  0  0  0
   37.9220   22.3460   39.9640 C   0  0  0  0  0  0  0  0  0  0  0  0
   38.5280   23.2410   40.8380 C   0  0  0  0  0  0  0  0  0  0  0  0
   35.3947   28.5298   41.7952 H   0  0  0  0  0  0  0  0  0  0  0  0
   35.2155   29.5654   39.5586 H   0  0  0  0  0  0  0  0  0  0  0  0
   40.7503   29.9435   38.7335 H   0  0  0  0  0  0  0  0  0  0  0  0
   42.1094   32.0841   38.2593 H   0  0  0  0  0  0  0  0  0  0  0  0
   41.7935   34.8213   38.8644 H   0  0  0  0  0  0  0  0  0  0  0  0
   40.3365   36.4625   39.9779 H   0  0  0  0  0  0  0  0  0  0  0  0
   38.2074   35.6691   41.1148 H   0  0  0  0  0  0  0  0  0  0  0  0
   37.7052   33.2518   41.0417 H   0  0  0  0  0  0  0  0  0  0  0  0
   38.1625   29.4418   43.9611 H   0  0  0  0  0  0  0  0  0  0  0  0
   36.6067   28.5360   43.7953 H   0  0  0  0  0  0  0  0  0  0  0  0
   41.0017   25.8563   44.4424 H   0  0  0  0  0  0  0  0  0  0  0  0
   40.1300   24.0661   42.9125 H   0  0  0  0  0  0  0  0  0  0  0  0
   36.0054   25.3808   41.4214 H   0  0  0  0  0  0  0  0  0  0  0  0
   34.8191   23.8301   39.8535 H   0  0  0  0  0  0  0  0  0  0  0  0
   36.0978   21.8836   38.9372 H   0  0  0  0  0  0  0  0  0  0  0  0
   38.4723   21.4860   39.5547 H   0  0  0  0  0  0  0  0  0  0  0  0
   39.5788   23.0781   41.1195 H   0  0  0  0  0  0  0  0  0  0  0  0
  1 18  1  0
  2  1  1  0
  3  2  2  0
  4  3  1  0
  4  6  1  0
  5  4  2  0
  6  7  1  0
  7  1  1  0
  7  8  2  0
  9 17  1  0
  9  6  1  0
 10  9  2  0
 11 10  1  0
 11 12  1  0
 12 13  2  0
 12 17  1  0
 13 14  1  0
 14 15  2  0
 16 15  1  0
 17 16  2  0
 19 24  2  0
 20 19  1  0
 21 22  1  0
 21 20  2  0
 22 23  2  0
 23 18  1  0
 23 24  1  0
 25 21  1  0
 26 25  2  0
 27 26  1  0
 28 29  1  0
 28 27  2  0
 29 30  2  0
 30 25  1  0
  2 31  1  0
  3 32  1  0
 10 33  1  0
 11 34  1  0
 13 35  1  0
 14 36  1  0
 15 37  1  0
 16 38  1  0
 18 39  1  0
 18 40  1  0
 19 41  1  0
 20 42  1  0
 26 43  1  0
 27 44  1  0
 28 45  1  0
 29 46  1  0
 30 47  1  0
M  END
>  <Score>  (1) 
-7.31929

$$$$
