
     RDKit          3D

 40 44  0  0  0  0  0  0  0  0999 V2000
   37.2140   29.4130   39.8280 C   0  0  0  0  0  0  0  0  0  0  0  0
   36.5870   29.2280   38.6140 C   0  0  0  0  0  0  0  0  0  0  0  0
   36.6320   30.1520   37.5820 C   0  0  0  0  0  0  0  0  0  0  0  0
   37.3320   31.2610   37.8270 N   0  0  0  0  0  0  0  0  0  0  0  0
   37.9650   31.5030   38.9820 C   0  0  0  0  0  0  0  0  0  0  0  0
   37.8610   30.5580   39.9060 N   0  0  0  0  0  0  0  0  0  0  0  0
   37.2330   28.6030   41.0000 C   0  0  0  0  0  0  0  0  0  0  0  0
   37.4380   29.2740   42.2260 C   0  0  0  0  0  0  0  0  0  0  0  0
   37.4940   28.6770   43.4630 C   0  0  0  0  0  0  0  0  0  0  0  0
   37.3400   27.3160   43.5280 C   0  0  0  0  0  0  0  0  0  0  0  0
   37.1350   26.5830   42.3730 C   0  0  0  0  0  0  0  0  0  0  0  0
   36.9890   25.2190   42.4360 C   0  0  0  0  0  0  0  0  0  0  0  0
   36.7940   24.4390   41.3120 C   0  0  0  0  0  0  0  0  0  0  0  0
   36.7550   25.1470   40.1020 C   0  0  0  0  0  0  0  0  0  0  0  0
   36.9020   26.4990   40.0780 C   0  0  0  0  0  0  0  0  0  0  0  0
   37.0950   27.2620   41.1900 C   0  0  0  0  0  0  0  0  0  0  0  0
   38.7700   32.6790   39.3870 C   0  0  0  0  0  0  0  0  0  0  0  0
   38.3430   33.5120   40.3550 N   0  0  0  0  0  0  0  0  0  0  0  0
   39.0560   34.5740   40.7320 C   0  0  0  0  0  0  0  0  0  0  0  0
   40.2580   34.9060   40.1780 N   0  0  0  0  0  0  0  0  0  0  0  0
   40.7470   34.1000   39.1890 C   0  0  0  0  0  0  0  0  0  0  0  0
   41.9540   34.4020   38.6100 C   0  0  0  0  0  0  0  0  0  0  0  0
   42.4760   33.6100   37.6090 C   0  0  0  0  0  0  0  0  0  0  0  0
   41.7160   32.4990   37.2250 C   0  0  0  0  0  0  0  0  0  0  0  0
   40.5130   32.2490   37.8460 C   0  0  0  0  0  0  0  0  0  0  0  0
   39.9800   33.0180   38.8350 C   0  0  0  0  0  0  0  0  0  0  0  0
   36.0212   28.2979   38.4562 H   0  0  0  0  0  0  0  0  0  0  0  0
   36.1229   29.9818   36.6219 H   0  0  0  0  0  0  0  0  0  0  0  0
   37.5634   30.3662   42.1877 H   0  0  0  0  0  0  0  0  0  0  0  0
   37.6574   29.2730   44.3730 H   0  0  0  0  0  0  0  0  0  0  0  0
   37.3796   26.8056   44.5016 H   0  0  0  0  0  0  0  0  0  0  0  0
   37.0288   24.7281   43.4196 H   0  0  0  0  0  0  0  0  0  0  0  0
   36.6782   23.3463   41.3625 H   0  0  0  0  0  0  0  0  0  0  0  0
   36.6034   24.6012   39.1591 H   0  0  0  0  0  0  0  0  0  0  0  0
   36.8627   27.0064   39.1028 H   0  0  0  0  0  0  0  0  0  0  0  0
   38.6546   35.2153   41.5305 H   0  0  0  0  0  0  0  0  0  0  0  0
   42.5123   35.2872   38.9487 H   0  0  0  0  0  0  0  0  0  0  0  0
   43.4420   33.8400   37.1357 H   0  0  0  0  0  0  0  0  0  0  0  0
   42.0781   31.8291   36.4312 H   0  0  0  0  0  0  0  0  0  0  0  0
   39.9427   31.3665   37.5204 H   0  0  0  0  0  0  0  0  0  0  0  0
  1  6  1  0
  1  7  1  0
  2  1  2  0
  3  4  2  0
  3  2  1  0
  4  5  1  0
  5 17  1  0
  5  6  2  0
  7 16  1  0
  7  8  2  0
  8  9  1  0
  9 10  2  0
 11 12  2  0
 11 10  1  0
 13 12  1  0
 14 13  2  0
 15 14  1  0
 15 16  2  0
 16 11  1  0
 17 18  2  0
 18 19  1  0
 20 19  2  0
 21 20  1  0
 22 21  2  0
 23 22  1  0
 24 23  2  0
 24 25  1  0
 25 26  2  0
 26 21  1  0
 26 17  1  0
  2 27  1  0
  3 28  1  0
  8 29  1  0
  9 30  1  0
 10 31  1  0
 12 32  1  0
 13 33  1  0
 14 34  1  0
 15 35  1  0
 19 36  1  0
 22 37  1  0
 23 38  1  0
 24 39  1  0
 25 40  1  0
M  END
>  <Score>  (1) 
-7.56359

$$$$
