
     RDKit          3D

 43 48  0  0  0  0  0  0  0  0999 V2000
   42.3730   28.8520   42.9220 C   0  0  0  0  0  0  0  0  0  0  0  0
   42.3130   27.7000   43.7450 C   0  0  0  0  0  0  0  0  0  0  0  0
   41.0530   27.1240   43.9890 C   0  0  0  0  0  0  0  0  0  0  0  0
   39.9680   27.7200   43.4100 N   0  0  0  0  0  0  0  0  0  0  0  0
   40.0580   28.8080   42.6370 C   0  0  0  0  0  0  0  0  0  0  0  0
   41.2540   29.3880   42.3820 N   0  0  0  0  0  0  0  0  0  0  0  0
   38.8330   29.3060   42.1080 N   0  0  0  0  0  0  0  0  0  0  0  0
   37.7440   28.4940   42.1420 C   0  0  0  0  0  0  0  0  0  0  0  0
   36.7250   29.1780   41.5920 N   0  0  0  0  0  0  0  0  0  0  0  0
   37.1210   30.3910   41.2100 C   0  0  0  0  0  0  0  0  0  0  0  0
   36.5990   31.5120   40.6180 C   0  0  0  0  0  0  0  0  0  0  0  0
   37.3400   32.6230   40.3700 N   0  0  0  0  0  0  0  0  0  0  0  0
   38.6370   32.6230   40.7190 C   0  0  0  0  0  0  0  0  0  0  0  0
   39.2030   31.5400   41.3070 N   0  0  0  0  0  0  0  0  0  0  0  0
   38.4580   30.4600   41.5420 C   0  0  0  0  0  0  0  0  0  0  0  0
   39.4950   33.7430   40.5010 N   0  0  0  0  0  0  0  0  0  0  0  0
   39.3800   34.9710   39.9890 C   0  0  0  0  0  0  0  0  0  0  0  0
   40.5460   35.6070   40.0420 N   0  0  0  0  0  0  0  0  0  0  0  0
   41.4340   34.7760   40.5980 C   0  0  0  0  0  0  0  0  0  0  0  0
   40.7630   33.6280   40.8750 N   0  0  0  0  0  0  0  0  0  0  0  0
   42.8690   34.7910   40.9650 C   0  0  0  0  0  0  0  0  0  0  0  0
   43.8510   34.0190   40.3330 C   0  0  0  0  0  0  0  0  0  0  0  0
   45.1580   34.0670   40.7060 C   0  0  0  0  0  0  0  0  0  0  0  0
   45.5970   34.8760   41.7280 C   0  0  0  0  0  0  0  0  0  0  0  0
   44.6630   35.6490   42.3710 C   0  0  0  0  0  0  0  0  0  0  0  0
   45.1230   36.4500   43.3890 C   0  0  0  0  0  0  0  0  0  0  0  0
   44.2610   37.2520   44.0840 C   0  0  0  0  0  0  0  0  0  0  0  0
   42.9220   37.2260   43.7280 C   0  0  0  0  0  0  0  0  0  0  0  0
   42.5190   36.4040   42.7010 C   0  0  0  0  0  0  0  0  0  0  0  0
   43.3470   35.5830   41.9760 C   0  0  0  0  0  0  0  0  0  0  0  0
   43.3477   29.3194   42.7182 H   0  0  0  0  0  0  0  0  0  0  0  0
   43.2261   27.2683   44.1808 H   0  0  0  0  0  0  0  0  0  0  0  0
   40.9454   26.2298   44.6205 H   0  0  0  0  0  0  0  0  0  0  0  0
   37.7035   27.4707   42.5435 H   0  0  0  0  0  0  0  0  0  0  0  0
   35.5368   31.5117   40.3322 H   0  0  0  0  0  0  0  0  0  0  0  0
   38.4512   35.3963   39.5809 H   0  0  0  0  0  0  0  0  0  0  0  0
   43.5563   33.3527   39.5089 H   0  0  0  0  0  0  0  0  0  0  0  0
   45.8872   33.4388   40.1734 H   0  0  0  0  0  0  0  0  0  0  0  0
   46.6574   34.9024   42.0192 H   0  0  0  0  0  0  0  0  0  0  0  0
   46.1925   36.4457   43.6464 H   0  0  0  0  0  0  0  0  0  0  0  0
   44.6189   37.8973   44.8997 H   0  0  0  0  0  0  0  0  0  0  0  0
   42.1915   37.8539   44.2592 H   0  0  0  0  0  0  0  0  0  0  0  0
   41.4503   36.4046   42.4404 H   0  0  0  0  0  0  0  0  0  0  0  0
  1  2  2  0
  2  3  1  0
  4  3  2  0
  5  4  1  0
  6  5  2  0
  6  1  1  0
  7  8  1  0
  7  5  1  0
  9  8  2  0
 10 15  2  0
 10  9  1  0
 11 10  1  0
 12 11  2  0
 12 13  1  0
 13 14  2  0
 14 15  1  0
 15  7  1  0
 16 13  1  0
 16 20  1  0
 17 18  2  0
 17 16  1  0
 18 19  1  0
 19 20  2  0
 19 21  1  0
 21 30  2  0
 22 23  2  0
 22 21  1  0
 23 24  1  0
 24 25  2  0
 25 26  1  0
 26 27  2  0
 28 27  1  0
 29 28  2  0
 30 25  1  0
 30 29  1  0
  1 31  1  0
  2 32  1  0
  3 33  1  0
  8 34  1  0
 11 35  1  0
 17 36  1  0
 22 37  1  0
 23 38  1  0
 24 39  1  0
 26 40  1  0
 27 41  1  0
 28 42  1  0
 29 43  1  0
M  END
>  <Score>  (1) 
-8.7627

$$$$
