
     RDKit          3D

 38 42  0  0  0  0  0  0  0  0999 V2000
   39.9220   32.9930   39.3040 C   0  0  0  0  0  0  0  0  0  0  0  0
   40.7410   32.8430   38.1960 C   0  0  0  0  0  0  0  0  0  0  0  0
   41.8800   33.6060   38.1100 C   0  0  0  0  0  0  0  0  0  0  0  0
   42.2070   34.4820   39.0710 N   0  0  0  0  0  0  0  0  0  0  0  0
   41.4140   34.6250   40.1430 C   0  0  0  0  0  0  0  0  0  0  0  0
   40.2790   33.8980   40.2760 N   0  0  0  0  0  0  0  0  0  0  0  0
   41.7790   35.5830   41.1850 C   0  0  0  0  0  0  0  0  0  0  0  0
   41.0870   36.7470   41.4520 C   0  0  0  0  0  0  0  0  0  0  0  0
   41.7320   37.3560   42.4800 N   0  0  0  0  0  0  0  0  0  0  0  0
   42.7940   36.6110   42.8530 C   0  0  0  0  0  0  0  0  0  0  0  0
   43.7760   36.7670   43.8360 C   0  0  0  0  0  0  0  0  0  0  0  0
   44.7670   35.8140   43.9910 C   0  0  0  0  0  0  0  0  0  0  0  0
   44.8030   34.6950   43.1790 C   0  0  0  0  0  0  0  0  0  0  0  0
   43.8370   34.5400   42.2120 C   0  0  0  0  0  0  0  0  0  0  0  0
   42.8480   35.4880   42.0540 C   0  0  0  0  0  0  0  0  0  0  0  0
   36.9520   30.9440   39.3050 N   0  0  0  0  0  0  0  0  0  0  0  0
   36.8850   31.4850   40.5330 C   0  0  0  0  0  0  0  0  0  0  0  0
   37.9480   32.2990   40.7000 N   0  0  0  0  0  0  0  0  0  0  0  0
   38.6710   32.2560   39.5630 C   0  0  0  0  0  0  0  0  0  0  0  0
   38.0370   31.4120   38.7150 N   0  0  0  0  0  0  0  0  0  0  0  0
   36.2080   30.0410   38.4920 C   0  0  0  0  0  0  0  0  0  0  0  0
   35.1620   29.2270   38.9920 C   0  0  0  0  0  0  0  0  0  0  0  0
   34.5150   28.3850   38.0840 C   0  0  0  0  0  0  0  0  0  0  0  0
   34.9360   28.4050   36.7800 N   0  0  0  0  0  0  0  0  0  0  0  0
   35.9330   29.1930   36.3500 C   0  0  0  0  0  0  0  0  0  0  0  0
   36.5810   30.0190   37.1950 N   0  0  0  0  0  0  0  0  0  0  0  0
   40.4840   32.1272   37.4013 H   0  0  0  0  0  0  0  0  0  0  0  0
   42.5373   33.4961   37.2348 H   0  0  0  0  0  0  0  0  0  0  0  0
   40.1879   37.1106   40.9330 H   0  0  0  0  0  0  0  0  0  0  0  0
   41.4535   38.2498   42.9095 H   0  0  0  0  0  0  0  0  0  0  0  0
   43.7606   37.6518   44.4894 H   0  0  0  0  0  0  0  0  0  0  0  0
   45.5341   35.9477   44.7680 H   0  0  0  0  0  0  0  0  0  0  0  0
   45.5928   33.9397   43.3046 H   0  0  0  0  0  0  0  0  0  0  0  0
   43.8535   33.6539   41.5604 H   0  0  0  0  0  0  0  0  0  0  0  0
   36.0967   31.2962   41.2766 H   0  0  0  0  0  0  0  0  0  0  0  0
   34.8709   29.2566   40.0524 H   0  0  0  0  0  0  0  0  0  0  0  0
   33.6941   27.7272   38.4055 H   0  0  0  0  0  0  0  0  0  0  0  0
   36.2264   29.1644   35.2902 H   0  0  0  0  0  0  0  0  0  0  0  0
  1 19  1  0
  1  6  1  0
  2  1  2  0
  3  2  1  0
  3  4  2  0
  4  5  1  0
  5  6  2  0
  5  7  1  0
  7  8  2  0
  7 15  1  0
  8  9  1  0
  9 10  1  0
 10 11  2  0
 11 12  1  0
 13 12  2  0
 14 13  1  0
 15 14  2  0
 15 10  1  0
 16 17  1  0
 17 18  2  0
 19 18  1  0
 20 16  1  0
 20 19  2  0
 21 22  2  0
 21 16  1  0
 23 22  1  0
 24 23  2  0
 25 24  1  0
 25 26  2  0
 26 21  1  0
  2 27  1  0
  3 28  1  0
  8 29  1  0
  9 30  1  0
 11 31  1  0
 12 32  1  0
 13 33  1  0
 14 34  1  0
 17 35  1  0
 22 36  1  0
 23 37  1  0
 25 38  1  0
M  END
>  <Score>  (1) 
-7.02443

$$$$
