
     RDKit          3D

 44 48  0  0  0  0  0  0  0  0999 V2000
   37.6720   30.1070   41.9540 N   0  0  0  0  0  0  0  0  0  0  0  0
   36.4350   30.0840   41.4420 C   0  0  0  0  0  0  0  0  0  0  0  0
   36.2650   30.7820   40.2610 C   0  0  0  0  0  0  0  0  0  0  0  0
   37.2420   31.4740   39.6020 C   0  0  0  0  0  0  0  0  0  0  0  0
   37.0560   32.0900   38.5460 O   0  0  0  0  0  0  0  0  0  0  0  0
   38.4620   31.4330   40.2090 N   0  0  0  0  0  0  0  0  0  0  0  0
   38.6830   30.7680   41.3570 C   0  0  0  0  0  0  0  0  0  0  0  0
   39.8640   30.7890   41.8500 O   0  0  0  0  0  0  0  0  0  0  0  0
   39.5580   32.1310   39.5920 C   0  0  0  0  0  0  0  0  0  0  0  0
   40.5620   31.7360   38.7450 C   0  0  0  0  0  0  0  0  0  0  0  0
   41.3490   32.7910   38.4510 N   0  0  0  0  0  0  0  0  0  0  0  0
   40.8550   33.8730   39.1090 C   0  0  0  0  0  0  0  0  0  0  0  0
   41.2540   35.1820   39.1700 C   0  0  0  0  0  0  0  0  0  0  0  0
   40.5860   36.1300   39.9190 C   0  0  0  0  0  0  0  0  0  0  0  0
   39.4510   35.7580   40.6540 C   0  0  0  0  0  0  0  0  0  0  0  0
   39.0780   34.4290   40.5680 C   0  0  0  0  0  0  0  0  0  0  0  0
   39.7360   33.4840   39.8280 C   0  0  0  0  0  0  0  0  0  0  0  0
   37.9940   29.4160   43.1890 C   0  0  0  0  0  0  0  0  0  0  0  0
   39.6430   26.1060   43.2930 C   0  0  0  0  0  0  0  0  0  0  0  0
   38.8810   25.3570   42.3740 C   0  0  0  0  0  0  0  0  0  0  0  0
   37.8350   26.0010   41.7500 C   0  0  0  0  0  0  0  0  0  0  0  0
   37.5830   27.2800   42.0300 N   0  0  0  0  0  0  0  0  0  0  0  0
   38.3330   27.9860   42.9240 C   0  0  0  0  0  0  0  0  0  0  0  0
   39.3330   27.3720   43.5190 N   0  0  0  0  0  0  0  0  0  0  0  0
   37.0440   25.2460   40.8050 C   0  0  0  0  0  0  0  0  0  0  0  0
   36.5000   24.0330   40.8940 C   0  0  0  0  0  0  0  0  0  0  0  0
   35.7740   23.4850   39.8730 C   0  0  0  0  0  0  0  0  0  0  0  0
   35.6720   24.3740   38.7000 C   0  0  0  0  0  0  0  0  0  0  0  0
   36.6310   25.8670   39.2290 S   0  0  0  0  0  0  0  0  0  0  0  0
   35.6087   29.5453   41.9289 H   0  0  0  0  0  0  0  0  0  0  0  0
   35.2597   30.7803   39.8145 H   0  0  0  0  0  0  0  0  0  0  0  0
   40.7037   30.7140   38.3635 H   0  0  0  0  0  0  0  0  0  0  0  0
   42.1764   32.7790   37.8376 H   0  0  0  0  0  0  0  0  0  0  0  0
   42.1424   35.4902   38.5992 H   0  0  0  0  0  0  0  0  0  0  0  0
   40.9418   37.1707   39.9392 H   0  0  0  0  0  0  0  0  0  0  0  0
   38.8898   36.4815   41.2637 H   0  0  0  0  0  0  0  0  0  0  0  0
   38.1906   34.1091   41.1338 H   0  0  0  0  0  0  0  0  0  0  0  0
   38.8552   29.9087   43.6639 H   0  0  0  0  0  0  0  0  0  0  0  0
   37.1175   29.4533   43.8526 H   0  0  0  0  0  0  0  0  0  0  0  0
   40.4899   25.6410   43.8189 H   0  0  0  0  0  0  0  0  0  0  0  0
   39.1117   24.3022   42.1637 H   0  0  0  0  0  0  0  0  0  0  0  0
   36.6394   23.4537   41.8186 H   0  0  0  0  0  0  0  0  0  0  0  0
   35.3145   22.4867   39.9212 H   0  0  0  0  0  0  0  0  0  0  0  0
   35.1540   24.1942   37.7464 H   0  0  0  0  0  0  0  0  0  0  0  0
  1 18  1  0
  2  1  1  0
  3  2  2  0
  4  6  1  0
  4  3  1  0
  5  4  2  0
  6  7  1  0
  7  8  2  0
  7  1  1  0
  9 17  1  0
  9  6  1  0
 10  9  2  0
 11 10  1  0
 11 12  1  0
 12 13  2  0
 12 17  1  0
 13 14  1  0
 14 15  2  0
 16 15  1  0
 17 16  2  0
 19 24  2  0
 20 19  1  0
 21 22  1  0
 21 20  2  0
 22 23  2  0
 23 18  1  0
 23 24  1  0
 25 26  2  0
 25 21  1  0
 27 26  1  0
 28 29  1  0
 28 27  2  0
 29 25  1  0
  2 30  1  0
  3 31  1  0
 10 32  1  0
 11 33  1  0
 13 34  1  0
 14 35  1  0
 15 36  1  0
 16 37  1  0
 18 38  1  0
 18 39  1  0
 19 40  1  0
 20 41  1  0
 26 42  1  0
 27 43  1  0
 28 44  1  0
M  END
>  <Score>  (1) 
-7.04079

$$$$
