
     RDKit          3D

 50 54  0  0  1  0  0  0  0  0999 V2000
   42.4060   34.9380   40.6770 O   0  0  0  0  0  0  0  0  0  0  0  0
   38.8570   35.4620   40.2160 C   0  0  0  0  0  0  0  0  0  0  0  0
   40.2100   35.8000   40.3400 C   0  0  0  0  0  0  0  0  0  0  0  0
   41.1110   34.7280   40.5450 C   0  0  0  0  0  0  0  0  0  0  0  0
   40.5760   33.5240   40.5970 N   0  0  0  0  0  0  0  0  0  0  0  0
   39.3210   33.1600   40.4870 C   0  0  0  0  0  0  0  0  0  0  0  0
   38.4870   34.1870   40.2940 N   0  0  0  0  0  0  0  0  0  0  0  0
   38.6340   31.8810   40.5320 C   0  0  0  0  0  0  0  0  0  0  0  0
   38.4860   31.1510   41.6510 N   0  0  0  0  0  0  0  0  0  0  0  0
   37.8650   29.9820   41.7280 C   0  0  0  0  0  0  0  0  0  0  0  0
   37.3270   29.4300   40.6590 N   0  0  0  0  0  0  0  0  0  0  0  0
   37.4060   30.0610   39.4650 C   0  0  0  0  0  0  0  0  0  0  0  0
   36.8460   29.4900   38.3520 C   0  0  0  0  0  0  0  0  0  0  0  0
   36.9040   30.0990   37.1310 C   0  0  0  0  0  0  0  0  0  0  0  0
   37.5710   31.3580   37.0460 C   0  0  0  0  0  0  0  0  0  0  0  0
   38.1040   31.8590   38.2060 C   0  0  0  0  0  0  0  0  0  0  0  0
   38.0590   31.2770   39.4280 C   0  0  0  0  0  0  0  0  0  0  0  0
   43.1540   34.7300   41.8560 C   0  0  2  0  0  0  0  0  0  0  0  0
   43.0730   36.1200   42.6070 C   0  0  0  0  0  0  0  0  0  0  0  0
   44.5820   34.4350   41.5820 C   0  0  0  0  0  0  0  0  0  0  0  0
   45.2000   34.0870   42.8660 N   0  0  0  0  0  0  0  0  0  0  0  0
   46.2840   34.7220   43.3850 C   0  0  0  0  0  0  0  0  0  0  0  0
   46.6020   34.1690   44.5780 N   0  0  0  0  0  0  0  0  0  0  0  0
   45.6900   33.1810   44.7820 C   0  0  0  0  0  0  0  0  0  0  0  0
   44.8450   33.1450   43.7320 N   0  0  0  0  0  0  0  0  0  0  0  0
   45.6110   32.3100   45.9080 N   0  0  0  0  0  0  0  0  0  0  0  0
   44.5040   31.5190   45.8760 C   0  0  0  0  0  0  0  0  0  0  0  0
   44.2250   30.5970   46.8690 C   0  0  0  0  0  0  0  0  0  0  0  0
   45.1360   30.5170   47.9070 C   0  0  0  0  0  0  0  0  0  0  0  0
   44.9230   29.6960   48.8280 O   0  0  0  0  0  0  0  0  0  0  0  0
   46.2230   31.3090   47.9180 N   0  0  0  0  0  0  0  0  0  0  0  0
   46.4700   32.1970   46.9380 C   0  0  0  0  0  0  0  0  0  0  0  0
   47.4560   32.9740   46.8680 O   0  0  0  0  0  0  0  0  0  0  0  0
   38.1037   36.2472   40.0548 H   0  0  0  0  0  0  0  0  0  0  0  0
   40.5543   36.8431   40.2812 H   0  0  0  0  0  0  0  0  0  0  0  0
   37.7980   29.4660   42.6971 H   0  0  0  0  0  0  0  0  0  0  0  0
   36.3381   28.5187   38.4443 H   0  0  0  0  0  0  0  0  0  0  0  0
   36.4516   29.6346   36.2424 H   0  0  0  0  0  0  0  0  0  0  0  0
   37.6538   31.9017   36.0934 H   0  0  0  0  0  0  0  0  0  0  0  0
   38.6186   32.8288   38.1371 H   0  0  0  0  0  0  0  0  0  0  0  0
   42.7588   33.8729   42.4209 H   0  0  0  0  0  0  0  0  0  0  0  0
   43.0829   35.9507   43.6938 H   0  0  0  0  0  0  0  0  0  0  0  0
   43.9365   36.7402   42.3247 H   0  0  0  0  0  0  0  0  0  0  0  0
   42.1433   36.6357   42.3247 H   0  0  0  0  0  0  0  0  0  0  0  0
   44.6661   33.5915   40.8809 H   0  0  0  0  0  0  0  0  0  0  0  0
   45.0825   35.3023   41.1267 H   0  0  0  0  0  0  0  0  0  0  0  0
   46.8197   35.5564   42.9087 H   0  0  0  0  0  0  0  0  0  0  0  0
   43.8066   31.6162   45.0309 H   0  0  0  0  0  0  0  0  0  0  0  0
   43.3275   29.9620   46.8350 H   0  0  0  0  0  0  0  0  0  0  0  0
   46.8873   31.2333   48.7015 H   0  0  0  0  0  0  0  0  0  0  0  0
  1 18  1  0
  2  7  2  0
  2  3  1  0
  3  4  2  0
  4  5  1  0
  4  1  1  0
  6  8  1  0
  6  5  2  0
  7  6  1  0
  8  9  2  0
  9 10  1  0
 11 10  2  0
 12 11  1  0
 13 12  2  0
 14 13  1  0
 15 14  2  0
 15 16  1  0
 16 17  2  0
 17 12  1  0
 17  8  1  0
 18 19  1  0
 20 18  1  0
 20 21  1  0
 21 22  1  0
 21 25  1  0
 22 23  2  0
 23 24  1  0
 24 26  1  0
 25 24  2  0
 26 32  1  0
 27 26  1  0
 27 28  2  0
 28 29  1  0
 29 31  1  0
 29 30  2  0
 32 31  1  0
 33 32  2  0
  2 34  1  0
  3 35  1  0
 10 36  1  0
 13 37  1  0
 14 38  1  0
 15 39  1  0
 16 40  1  0
 18 41  1  1
 19 42  1  0
 19 43  1  0
 19 44  1  0
 20 45  1  0
 20 46  1  0
 22 47  1  0
 27 48  1  0
 28 49  1  0
 31 50  1  0
M  END
>  <Score>  (1) 
-8.09423

$$$$
