
     RDKit          3D

 37 41  0  0  0  0  0  0  0  0999 V2000
   37.2430   29.4220   40.0110 C   0  0  0  0  0  0  0  0  0  0  0  0
   36.3440   29.5360   38.9450 C   0  0  0  0  0  0  0  0  0  0  0  0
   36.4890   30.4550   37.9140 C   0  0  0  0  0  0  0  0  0  0  0  0
   37.5680   31.2490   37.9980 N   0  0  0  0  0  0  0  0  0  0  0  0
   38.4560   31.1790   38.9930 C   0  0  0  0  0  0  0  0  0  0  0  0
   38.2780   30.2780   39.9660 N   0  0  0  0  0  0  0  0  0  0  0  0
   39.5600   32.0780   38.9670 N   0  0  0  0  0  0  0  0  0  0  0  0
   40.7730   31.7850   38.4640 C   0  0  0  0  0  0  0  0  0  0  0  0
   41.5430   32.8580   38.6110 N   0  0  0  0  0  0  0  0  0  0  0  0
   40.8330   33.8250   39.2020 C   0  0  0  0  0  0  0  0  0  0  0  0
   41.1300   35.1150   39.5850 C   0  0  0  0  0  0  0  0  0  0  0  0
   40.2180   35.9100   40.1770 N   0  0  0  0  0  0  0  0  0  0  0  0
   38.9830   35.4120   40.3940 C   0  0  0  0  0  0  0  0  0  0  0  0
   38.6730   34.1410   40.0220 N   0  0  0  0  0  0  0  0  0  0  0  0
   39.5860   33.3370   39.4270 C   0  0  0  0  0  0  0  0  0  0  0  0
   37.2280   28.5720   41.1530 C   0  0  0  0  0  0  0  0  0  0  0  0
   37.3870   29.2060   42.4020 C   0  0  0  0  0  0  0  0  0  0  0  0
   37.4020   28.5600   43.6220 C   0  0  0  0  0  0  0  0  0  0  0  0
   37.2520   27.1830   43.6270 C   0  0  0  0  0  0  0  0  0  0  0  0
   37.0940   26.5070   42.4410 C   0  0  0  0  0  0  0  0  0  0  0  0
   36.9500   25.1370   42.4520 C   0  0  0  0  0  0  0  0  0  0  0  0
   36.7910   24.3990   41.2900 C   0  0  0  0  0  0  0  0  0  0  0  0
   36.7900   25.1490   40.1150 C   0  0  0  0  0  0  0  0  0  0  0  0
   36.9360   26.5030   40.1450 C   0  0  0  0  0  0  0  0  0  0  0  0
   37.0910   27.2260   41.2870 C   0  0  0  0  0  0  0  0  0  0  0  0
   35.4755   28.8613   38.9223 H   0  0  0  0  0  0  0  0  0  0  0  0
   35.7691   30.5273   37.0854 H   0  0  0  0  0  0  0  0  0  0  0  0
   41.0736   30.8283   38.0119 H   0  0  0  0  0  0  0  0  0  0  0  0
   42.1414   35.5069   39.4019 H   0  0  0  0  0  0  0  0  0  0  0  0
   38.2195   36.0399   40.8764 H   0  0  0  0  0  0  0  0  0  0  0  0
   37.5084   30.2993   42.4047 H   0  0  0  0  0  0  0  0  0  0  0  0
   37.5290   29.1207   44.5598 H   0  0  0  0  0  0  0  0  0  0  0  0
   37.2593   26.6315   44.5787 H   0  0  0  0  0  0  0  0  0  0  0  0
   36.9616   24.6102   43.4176 H   0  0  0  0  0  0  0  0  0  0  0  0
   36.6745   23.3052   41.2945 H   0  0  0  0  0  0  0  0  0  0  0  0
   36.6693   24.6391   39.1478 H   0  0  0  0  0  0  0  0  0  0  0  0
   36.9281   27.0448   39.1877 H   0  0  0  0  0  0  0  0  0  0  0  0
  1 16  1  0
  2  1  2  0
  3  4  2  0
  3  2  1  0
  4  5  1  0
  5  6  2  0
  6  1  1  0
  7  5  1  0
  7 15  1  0
  8  9  2  0
  8  7  1  0
  9 10  1  0
 10 15  2  0
 10 11  1  0
 11 12  2  0
 12 13  1  0
 14 13  2  0
 15 14  1  0
 16 25  1  0
 16 17  2  0
 17 18  1  0
 18 19  2  0
 20 21  2  0
 20 19  1  0
 22 21  1  0
 23 24  1  0
 23 22  2  0
 24 25  2  0
 25 20  1  0
  2 26  1  0
  3 27  1  0
  8 28  1  0
 11 29  1  0
 13 30  1  0
 17 31  1  0
 18 32  1  0
 19 33  1  0
 21 34  1  0
 22 35  1  0
 23 36  1  0
 24 37  1  0
M  END
>  <Score>  (1) 
-7.61836

$$$$
