
     RDKit          3D

 54 59  0  0  0  0  0  0  0  0999 V2000
   39.5790   27.8050   43.1890 C   0  0  0  0  0  0  0  0  0  0  0  0
   38.3290   27.3590   43.5890 C   0  0  0  0  0  0  0  0  0  0  0  0
   37.4220   28.3100   43.1050 C   0  0  0  0  0  0  0  0  0  0  0  0
   38.1730   29.2290   42.4690 N   0  0  0  0  0  0  0  0  0  0  0  0
   39.4230   28.9530   42.5080 N   0  0  0  0  0  0  0  0  0  0  0  0
   42.3250   25.2950   43.3100 C   0  0  0  0  0  0  0  0  0  0  0  0
   41.0950   25.8740   42.9640 C   0  0  0  0  0  0  0  0  0  0  0  0
   40.8330   27.1480   43.4700 C   0  0  0  0  0  0  0  0  0  0  0  0
   41.7430   27.7410   44.2380 N   0  0  0  0  0  0  0  0  0  0  0  0
   42.9370   27.1660   44.5670 C   0  0  0  0  0  0  0  0  0  0  0  0
   43.2030   25.9410   44.0890 N   0  0  0  0  0  0  0  0  0  0  0  0
   43.9850   27.7250   45.3930 C   0  0  0  0  0  0  0  0  0  0  0  0
   45.1780   28.0520   44.8700 N   0  0  0  0  0  0  0  0  0  0  0  0
   46.2080   28.5710   45.5430 C   0  0  0  0  0  0  0  0  0  0  0  0
   46.1030   28.8150   46.8830 N   0  0  0  0  0  0  0  0  0  0  0  0
   44.9300   28.5190   47.5160 C   0  0  0  0  0  0  0  0  0  0  0  0
   44.8040   28.7580   48.8660 C   0  0  0  0  0  0  0  0  0  0  0  0
   43.6310   28.4670   49.5270 C   0  0  0  0  0  0  0  0  0  0  0  0
   42.5920   27.9250   48.7620 C   0  0  0  0  0  0  0  0  0  0  0  0
   42.7910   27.7140   47.4180 C   0  0  0  0  0  0  0  0  0  0  0  0
   43.9420   27.9930   46.7390 C   0  0  0  0  0  0  0  0  0  0  0  0
   37.5220   30.3340   41.8670 C   0  0  0  0  0  0  0  0  0  0  0  0
   36.3930   30.0080   40.9420 C   0  0  0  0  0  0  0  0  0  0  0  0
   36.7780   29.9000   39.5190 C   0  0  0  0  0  0  0  0  0  0  0  0
   37.9890   30.1860   38.9560 C   0  0  0  0  0  0  0  0  0  0  0  0
   38.2810   30.1390   37.6200 C   0  0  0  0  0  0  0  0  0  0  0  0
   37.3000   29.7750   36.7260 C   0  0  0  0  0  0  0  0  0  0  0  0
   36.0440   29.4680   37.2340 C   0  0  0  0  0  0  0  0  0  0  0  0
   35.1110   29.1150   36.2870 C   0  0  0  0  0  0  0  0  0  0  0  0
   33.8460   28.7930   36.6890 C   0  0  0  0  0  0  0  0  0  0  0  0
   33.5310   28.8260   38.0280 C   0  0  0  0  0  0  0  0  0  0  0  0
   34.5100   29.1870   38.9130 C   0  0  0  0  0  0  0  0  0  0  0  0
   35.7880   29.5260   38.5880 C   0  0  0  0  0  0  0  0  0  0  0  0
   34.1270   29.1840   40.2530 O   0  0  0  0  0  0  0  0  0  0  0  0
   38.0983   26.4505   44.1647 H   0  0  0  0  0  0  0  0  0  0  0  0
   36.3280   28.3069   43.2200 H   0  0  0  0  0  0  0  0  0  0  0  0
   42.5734   24.2913   42.9345 H   0  0  0  0  0  0  0  0  0  0  0  0
   40.3710   25.3485   42.3239 H   0  0  0  0  0  0  0  0  0  0  0  0
   47.1452   28.8031   45.0160 H   0  0  0  0  0  0  0  0  0  0  0  0
   45.6500   29.1864   49.4234 H   0  0  0  0  0  0  0  0  0  0  0  0
   43.5164   28.6519   50.6053 H   0  0  0  0  0  0  0  0  0  0  0  0
   41.6292   27.6712   49.2296 H   0  0  0  0  0  0  0  0  0  0  0  0
   41.9559   27.2861   46.8439 H   0  0  0  0  0  0  0  0  0  0  0  0
   37.1242   30.9693   42.6721 H   0  0  0  0  0  0  0  0  0  0  0  0
   38.2846   30.8220   41.2422 H   0  0  0  0  0  0  0  0  0  0  0  0
   35.9595   29.0466   41.2545 H   0  0  0  0  0  0  0  0  0  0  0  0
   35.6810   30.8436   41.0108 H   0  0  0  0  0  0  0  0  0  0  0  0
   38.8015   30.4801   39.6367 H   0  0  0  0  0  0  0  0  0  0  0  0
   39.2910   30.3900   37.2637 H   0  0  0  0  0  0  0  0  0  0  0  0
   37.5035   29.7287   35.6460 H   0  0  0  0  0  0  0  0  0  0  0  0
   35.3799   29.0923   35.2206 H   0  0  0  0  0  0  0  0  0  0  0  0
   33.0845   28.5093   35.9476 H   0  0  0  0  0  0  0  0  0  0  0  0
   32.5200   28.5692   38.3773 H   0  0  0  0  0  0  0  0  0  0  0  0
   34.7791   29.4337   40.9548 H   0  0  0  0  0  0  0  0  0  0  0  0
  1  8  1  0
  1  2  1  0
  3  2  2  0
  4  5  1  0
  4  3  1  0
  5  1  2  0
  6 11  2  0
  7  6  1  0
  7  8  2  0
  8  9  1  0
  9 10  2  0
 10 12  1  0
 11 10  1  0
 12 21  1  0
 13 12  2  0
 13 14  1  0
 14 15  2  0
 15 16  1  0
 16 17  2  0
 17 18  1  0
 19 18  2  0
 20 19  1  0
 21 20  2  0
 21 16  1  0
 22  4  1  0
 23 22  1  0
 24 23  1  0
 25 24  2  0
 26 25  1  0
 27 28  1  0
 27 26  2  0
 28 33  2  0
 29 30  2  0
 29 28  1  0
 30 31  1  0
 31 32  2  0
 32 34  1  0
 33 32  1  0
 33 24  1  0
  2 35  1  0
  3 36  1  0
  6 37  1  0
  7 38  1  0
 14 39  1  0
 17 40  1  0
 18 41  1  0
 19 42  1  0
 20 43  1  0
 22 44  1  0
 22 45  1  0
 23 46  1  0
 23 47  1  0
 25 48  1  0
 26 49  1  0
 27 50  1  0
 29 51  1  0
 30 52  1  0
 31 53  1  0
 34 54  1  0
M  END
>  <Score>  (1) 
-7.91575

$$$$
