
     RDKit          3D

 56 59  0  0  0  0  0  0  0  0999 V2000
   37.3280   26.6140   41.0780 C   0  0  0  0  0  0  0  0  0  0  0  0
   38.3610   26.3260   41.9680 C   0  0  0  0  0  0  0  0  0  0  0  0
   38.8430   27.3400   42.8010 C   0  0  0  0  0  0  0  0  0  0  0  0
   38.2560   28.5760   42.6870 N   0  0  0  0  0  0  0  0  0  0  0  0
   37.2560   28.8420   41.8210 C   0  0  0  0  0  0  0  0  0  0  0  0
   36.7840   27.8600   41.0090 N   0  0  0  0  0  0  0  0  0  0  0  0
   39.8720   27.1060   43.6990 N   0  0  0  0  0  0  0  0  0  0  0  0
   36.8060   25.6570   40.2120 N   0  0  0  0  0  0  0  0  0  0  0  0
   36.7640   30.1350   41.8190 O   0  0  0  0  0  0  0  0  0  0  0  0
   37.0210   31.0410   40.8120 C   0  0  0  0  0  0  0  0  0  0  0  0
   36.6260   31.3280   39.5670 N   0  0  0  0  0  0  0  0  0  0  0  0
   37.2760   32.3600   39.1180 O   0  0  0  0  0  0  0  0  0  0  0  0
   38.1070   32.7840   40.0320 C   0  0  0  0  0  0  0  0  0  0  0  0
   37.9680   31.9730   41.1080 N   0  0  0  0  0  0  0  0  0  0  0  0
   39.0330   33.9310   39.9280 C   0  0  0  0  0  0  0  0  0  0  0  0
   38.7230   35.2070   40.3130 C   0  0  0  0  0  0  0  0  0  0  0  0
   39.6610   36.2250   40.1790 C   0  0  0  0  0  0  0  0  0  0  0  0
   40.9170   35.9790   39.6600 C   0  0  0  0  0  0  0  0  0  0  0  0
   41.2220   34.6970   39.2760 C   0  0  0  0  0  0  0  0  0  0  0  0
   40.2990   33.6910   39.4070 C   0  0  0  0  0  0  0  0  0  0  0  0
   40.7580   32.4160   38.9680 N   0  0  0  0  0  0  0  0  0  0  0  0
   41.3530   31.3420   39.7670 C   0  0  0  0  0  0  0  0  0  0  0  0
   42.6490   30.8430   39.1820 C   0  0  0  0  0  0  0  0  0  0  0  0
   43.0670   31.6330   38.0500 N   0  0  0  0  0  0  0  0  0  0  0  0
   42.0560   31.6870   37.0060 C   0  0  0  0  0  0  0  0  0  0  0  0
   40.6910   31.9880   37.5860 C   0  0  0  0  0  0  0  0  0  0  0  0
   38.8530   24.9510   41.9450 C   0  0  0  0  0  0  0  0  0  0  0  0
   37.7200   23.9420   41.7130 C   0  0  0  0  0  0  0  0  0  0  0  0
   39.6160   24.4890   43.1340 C   0  0  0  0  0  0  0  0  0  0  0  0
   39.7960   24.8450   40.7560 C   0  0  0  0  0  0  0  0  0  0  0  0
   40.2115   27.8680   44.3032 H   0  0  0  0  0  0  0  0  0  0  0  0
   40.2974   26.1701   43.7623 H   0  0  0  0  0  0  0  0  0  0  0  0
   36.0421   25.9072   39.5680 H   0  0  0  0  0  0  0  0  0  0  0  0
   37.1837   24.6987   40.2154 H   0  0  0  0  0  0  0  0  0  0  0  0
   37.7292   35.4281   40.7296 H   0  0  0  0  0  0  0  0  0  0  0  0
   39.3974   37.2459   40.4925 H   0  0  0  0  0  0  0  0  0  0  0  0
   41.6537   36.7893   39.5571 H   0  0  0  0  0  0  0  0  0  0  0  0
   42.2155   34.4745   38.8595 H   0  0  0  0  0  0  0  0  0  0  0  0
   41.5459   31.7213   40.7814 H   0  0  0  0  0  0  0  0  0  0  0  0
   40.6443   30.5008   39.7800 H   0  0  0  0  0  0  0  0  0  0  0  0
   43.4296   30.8891   39.9557 H   0  0  0  0  0  0  0  0  0  0  0  0
   42.4926   29.8100   38.8379 H   0  0  0  0  0  0  0  0  0  0  0  0
   43.2627   32.5921   38.3705 H   0  0  0  0  0  0  0  0  0  0  0  0
   42.0209   30.7167   36.4891 H   0  0  0  0  0  0  0  0  0  0  0  0
   42.3220   32.4898   36.3026 H   0  0  0  0  0  0  0  0  0  0  0  0
   40.2234   32.7867   36.9916 H   0  0  0  0  0  0  0  0  0  0  0  0
   40.1011   31.0602   37.5515 H   0  0  0  0  0  0  0  0  0  0  0  0
   37.3323   23.5967   42.6827 H   0  0  0  0  0  0  0  0  0  0  0  0
   36.9105   24.4238   41.1450 H   0  0  0  0  0  0  0  0  0  0  0  0
   38.1052   23.0823   41.1450 H   0  0  0  0  0  0  0  0  0  0  0  0
   39.0946   24.8047   44.0497 H   0  0  0  0  0  0  0  0  0  0  0  0
   39.6938   23.3919   43.1161 H   0  0  0  0  0  0  0  0  0  0  0  0
   40.6242   24.9285   43.1161 H   0  0  0  0  0  0  0  0  0  0  0  0
   40.8288   24.7289   41.1163 H   0  0  0  0  0  0  0  0  0  0  0  0
   39.5202   23.9722   40.1460 H   0  0  0  0  0  0  0  0  0  0  0  0
   39.7209   25.7572   40.1460 H   0  0  0  0  0  0  0  0  0  0  0  0
  1  2  2  0
  2  3  1  0
  3  7  1  0
  4  3  2  0
  5  4  1  0
  6  1  1  0
  6  5  2  0
  8  1  1  0
  9  5  1  0
 10 14  1  0
 10  9  1  0
 11 10  2  0
 12 11  1  0
 12 13  1  0
 13 14  2  0
 15 13  1  0
 15 16  2  0
 17 16  1  0
 18 17  2  0
 19 20  2  0
 19 18  1  0
 20 15  1  0
 21 20  1  0
 21 22  1  0
 23 22  1  0
 24 23  1  0
 25 26  1  0
 25 24  1  0
 26 21  1  0
 27  2  1  0
 27 29  1  0
 28 27  1  0
 30 27  1  0
  7 31  1  0
  7 32  1  0
  8 33  1  0
  8 34  1  0
 16 35  1  0
 17 36  1  0
 18 37  1  0
 19 38  1  0
 22 39  1  0
 22 40  1  0
 23 41  1  0
 23 42  1  0
 24 43  1  0
 25 44  1  0
 25 45  1  0
 26 46  1  0
 26 47  1  0
 28 48  1  0
 28 49  1  0
 28 50  1  0
 29 51  1  0
 29 52  1  0
 29 53  1  0
 30 54  1  0
 30 55  1  0
 30 56  1  0
M  END
>  <Score>  (1) 
-7.10286

$$$$
