
     RDKit          3D

 45 50  0  0  1  0  0  0  0  0999 V2000
   36.1960   30.8870   40.9920 C   0  0  0  0  0  0  0  0  0  0  0  0
   36.5750   29.6680   41.5850 C   0  0  0  0  0  0  0  0  0  0  0  0
   37.9280   29.3440   41.6290 C   0  0  0  0  0  0  0  0  0  0  0  0
   38.8020   30.2350   41.0930 N   0  0  0  0  0  0  0  0  0  0  0  0
   38.4210   31.4000   40.5260 C   0  0  0  0  0  0  0  0  0  0  0  0
   37.1120   31.7330   40.4730 N   0  0  0  0  0  0  0  0  0  0  0  0
   38.3250   28.0860   42.2310 C   0  0  0  0  0  0  0  0  0  0  0  0
   39.1650   27.8820   43.3030 C   0  0  0  0  0  0  0  0  0  0  0  0
   39.2690   26.5500   43.5310 N   0  0  0  0  0  0  0  0  0  0  0  0
   38.5280   25.8700   42.6500 C   0  0  0  0  0  0  0  0  0  0  0  0
   38.2830   24.5210   42.4400 C   0  0  0  0  0  0  0  0  0  0  0  0
   37.4370   24.0870   41.4100 C   0  0  0  0  0  0  0  0  0  0  0  0
   36.8670   25.0570   40.6230 C   0  0  0  0  0  0  0  0  0  0  0  0
   37.1030   26.3890   40.8220 C   0  0  0  0  0  0  0  0  0  0  0  0
   37.9410   26.8150   41.8420 C   0  0  0  0  0  0  0  0  0  0  0  0
   39.4430   32.3290   39.9620 C   0  0  1  0  0  0  0  0  0  0  0  0
   39.4680   33.7620   40.4880 C   0  0  0  0  0  0  0  0  0  0  0  0
   40.5620   32.7940   40.8270 C   0  0  2  0  0  0  0  0  0  0  0  0
   41.8780   33.0460   40.2820 N   0  0  0  0  0  0  0  0  0  0  0  0
   42.4260   32.5570   39.1450 C   0  0  0  0  0  0  0  0  0  0  0  0
   43.6820   33.0820   39.0610 N   0  0  0  0  0  0  0  0  0  0  0  0
   43.8960   33.8860   40.1410 C   0  0  0  0  0  0  0  0  0  0  0  0
   45.0460   34.6210   40.4550 C   0  0  0  0  0  0  0  0  0  0  0  0
   46.0460   34.5880   39.6970 O   0  0  0  0  0  0  0  0  0  0  0  0
   44.9430   35.3210   41.6000 N   0  0  0  0  0  0  0  0  0  0  0  0
   43.8330   35.3020   42.3560 C   0  0  0  0  0  0  0  0  0  0  0  0
   43.7430   36.0500   43.5640 N   0  0  0  0  0  0  0  0  0  0  0  0
   42.7350   34.5830   42.0300 N   0  0  0  0  0  0  0  0  0  0  0  0
   42.7450   33.8540   40.9080 C   0  0  0  0  0  0  0  0  0  0  0  0
   35.1303   31.1565   40.9504 H   0  0  0  0  0  0  0  0  0  0  0  0
   35.8194   28.9871   42.0040 H   0  0  0  0  0  0  0  0  0  0  0  0
   39.6692   28.6712   43.8800 H   0  0  0  0  0  0  0  0  0  0  0  0
   39.8374   26.1228   44.2762 H   0  0  0  0  0  0  0  0  0  0  0  0
   38.7617   23.7775   43.0942 H   0  0  0  0  0  0  0  0  0  0  0  0
   37.2389   23.0184   41.2401 H   0  0  0  0  0  0  0  0  0  0  0  0
   36.1979   24.7522   39.8048 H   0  0  0  0  0  0  0  0  0  0  0  0
   36.6233   27.1306   40.1663 H   0  0  0  0  0  0  0  0  0  0  0  0
   39.3801   31.8522   38.9727 H   0  0  0  0  0  0  0  0  0  0  0  0
   39.6636   34.5994   39.8021 H   0  0  0  0  0  0  0  0  0  0  0  0
   38.7787   34.3986   41.0621 H   0  0  0  0  0  0  0  0  0  0  0  0
   41.0080   32.3979   41.7512 H   0  0  0  0  0  0  0  0  0  0  0  0
   41.9511   31.8704   38.4287 H   0  0  0  0  0  0  0  0  0  0  0  0
   45.7437   35.8914   41.9073 H   0  0  0  0  0  0  0  0  0  0  0  0
   42.8805   36.0187   44.1261 H   0  0  0  0  0  0  0  0  0  0  0  0
   44.5404   36.6225   43.8759 H   0  0  0  0  0  0  0  0  0  0  0  0
  1  2  2  0
  2  3  1  0
  3  7  1  0
  4  3  2  0
  5  4  1  0
  6  5  2  0
  6  1  1  0
  7  8  2  0
  8  9  1  0
 10  9  1  0
 11 10  2  0
 12 11  1  0
 13 14  1  0
 13 12  2  0
 14 15  2  0
 15  7  1  0
 15 10  1  0
 16 17  1  0
 16  5  1  0
 16 18  1  0
 17 18  1  0
 19 18  1  0
 19 29  1  0
 20 19  1  0
 21 20  2  0
 21 22  1  0
 22 23  1  0
 22 29  2  0
 23 25  1  0
 24 23  2  0
 25 26  1  0
 26 27  1  0
 28 26  2  0
 29 28  1  0
  1 30  1  0
  2 31  1  0
  8 32  1  0
  9 33  1  0
 11 34  1  0
 12 35  1  0
 13 36  1  0
 14 37  1  0
 16 38  1  6
 17 39  1  0
 17 40  1  0
 18 41  1  1
 20 42  1  0
 25 43  1  0
 27 44  1  0
 27 45  1  0
M  END
>  <Score>  (1) 
-7.18522

$$$$
