
     RDKit          3D

 47 52  0  0  0  0  0  0  0  0999 V2000
   41.0190   26.9650   43.1590 O   0  0  0  0  0  0  0  0  0  0  0  0
   37.0600   29.1360   43.4540 N   0  0  0  0  0  0  0  0  0  0  0  0
   36.9670   27.8610   43.9070 C   0  0  0  0  0  0  0  0  0  0  0  0
   38.1970   27.3050   43.7760 N   0  0  0  0  0  0  0  0  0  0  0  0
   39.0600   28.2060   43.2490 C   0  0  0  0  0  0  0  0  0  0  0  0
   40.4110   28.1790   42.9070 C   0  0  0  0  0  0  0  0  0  0  0  0
   40.9780   29.3000   42.3830 N   0  0  0  0  0  0  0  0  0  0  0  0
   40.2280   30.4050   42.2050 C   0  0  0  0  0  0  0  0  0  0  0  0
   38.9130   30.4560   42.5290 N   0  0  0  0  0  0  0  0  0  0  0  0
   38.3110   29.3650   43.0520 C   0  0  0  0  0  0  0  0  0  0  0  0
   40.8760   31.5840   41.6410 C   0  0  0  0  0  0  0  0  0  0  0  0
   42.2250   31.8440   41.5190 C   0  0  0  0  0  0  0  0  0  0  0  0
   42.4370   33.0410   40.9440 N   0  0  0  0  0  0  0  0  0  0  0  0
   41.2340   33.6170   40.6640 C   0  0  0  0  0  0  0  0  0  0  0  0
   40.8010   34.7990   40.0930 C   0  0  0  0  0  0  0  0  0  0  0  0
   39.4760   35.1010   39.9460 C   0  0  0  0  0  0  0  0  0  0  0  0
   38.5000   34.2020   40.3740 C   0  0  0  0  0  0  0  0  0  0  0  0
   38.9290   33.0130   40.9470 C   0  0  0  0  0  0  0  0  0  0  0  0
   40.2820   32.7080   41.0980 C   0  0  0  0  0  0  0  0  0  0  0  0
   44.5930   26.6470   43.7600 C   0  0  0  0  0  0  0  0  0  0  0  0
   43.3660   26.6690   43.0940 C   0  0  0  0  0  0  0  0  0  0  0  0
   42.2120   26.9470   43.8190 C   0  0  0  0  0  0  0  0  0  0  0  0
   42.3360   27.1890   45.1740 N   0  0  0  0  0  0  0  0  0  0  0  0
   43.5290   27.1570   45.7680 C   0  0  0  0  0  0  0  0  0  0  0  0
   44.6660   26.8870   45.0720 N   0  0  0  0  0  0  0  0  0  0  0  0
   43.2320   26.4140   41.6650 C   0  0  0  0  0  0  0  0  0  0  0  0
   43.4920   27.3550   40.6870 C   0  0  0  0  0  0  0  0  0  0  0  0
   43.3750   27.1460   39.3320 C   0  0  0  0  0  0  0  0  0  0  0  0
   42.9700   25.9100   38.9310 N   0  0  0  0  0  0  0  0  0  0  0  0
   42.7110   24.9780   39.8730 C   0  0  0  0  0  0  0  0  0  0  0  0
   42.8370   25.2200   41.1870 N   0  0  0  0  0  0  0  0  0  0  0  0
   43.6000   27.4260   47.2360 C   0  0  0  0  0  0  0  0  0  0  0  0
   44.3210   28.5760   47.4910 F   0  0  0  0  0  0  0  0  0  0  0  0
   42.3240   27.6960   47.7460 F   0  0  0  0  0  0  0  0  0  0  0  0
   44.2070   26.3980   47.9400 F   0  0  0  0  0  0  0  0  0  0  0  0
   36.2886   29.8179   43.4251 H   0  0  0  0  0  0  0  0  0  0  0  0
   36.0659   27.3713   44.3048 H   0  0  0  0  0  0  0  0  0  0  0  0
   43.0226   31.1619   41.8487 H   0  0  0  0  0  0  0  0  0  0  0  0
   43.3592   33.4554   40.7471 H   0  0  0  0  0  0  0  0  0  0  0  0
   41.5510   35.5239   39.7437 H   0  0  0  0  0  0  0  0  0  0  0  0
   39.1788   36.0562   39.4886 H   0  0  0  0  0  0  0  0  0  0  0  0
   37.4291   34.4269   40.2616 H   0  0  0  0  0  0  0  0  0  0  0  0
   38.1780   32.2877   41.2933 H   0  0  0  0  0  0  0  0  0  0  0  0
   45.5122   26.4290   43.1965 H   0  0  0  0  0  0  0  0  0  0  0  0
   43.8189   28.3516   41.0185 H   0  0  0  0  0  0  0  0  0  0  0  0
   43.5986   27.9416   38.6060 H   0  0  0  0  0  0  0  0  0  0  0  0
   42.3831   23.9789   39.5500 H   0  0  0  0  0  0  0  0  0  0  0  0
  1 22  1  0
  2  3  1  0
  4  3  2  0
  5  4  1  0
  6  1  1  0
  6  5  2  0
  7  6  1  0
  8  7  2  0
  8  9  1  0
  9 10  2  0
 10  5  1  0
 10  2  1  0
 11  8  1  0
 12 11  2  0
 13 12  1  0
 14 13  1  0
 14 19  2  0
 15 14  1  0
 16 15  2  0
 16 17  1  0
 17 18  2  0
 18 19  1  0
 19 11  1  0
 20 25  2  0
 21 20  1  0
 21 22  2  0
 22 23  1  0
 23 24  2  0
 24 32  1  0
 25 24  1  0
 26 21  1  0
 27 26  2  0
 28 27  1  0
 29 28  2  0
 29 30  1  0
 30 31  2  0
 31 26  1  0
 32 33  1  0
 32 34  1  0
 32 35  1  0
  2 36  1  0
  3 37  1  0
 12 38  1  0
 13 39  1  0
 15 40  1  0
 16 41  1  0
 17 42  1  0
 18 43  1  0
 20 44  1  0
 27 45  1  0
 28 46  1  0
 30 47  1  0
M  END
>  <Score>  (1) 
-7.0499

$$$$
