
     RDKit          3D

 36 39  0  0  0  0  0  0  0  0999 V2000
   39.0190   27.4820   43.6670 C   0  0  0  0  0  0  0  0  0  0  0  0
   39.5570   26.5590   42.7590 C   0  0  0  0  0  0  0  0  0  0  0  0
   39.5230   26.9000   41.3970 C   0  0  0  0  0  0  0  0  0  0  0  0
   38.9730   28.0960   41.0490 N   0  0  0  0  0  0  0  0  0  0  0  0
   38.4650   28.9560   41.9550 C   0  0  0  0  0  0  0  0  0  0  0  0
   38.4880   28.6450   43.2800 N   0  0  0  0  0  0  0  0  0  0  0  0
   37.9520   30.1280   41.3410 N   0  0  0  0  0  0  0  0  0  0  0  0
   36.6330   30.2110   40.9770 C   0  0  0  0  0  0  0  0  0  0  0  0
   36.3770   31.4070   40.4200 N   0  0  0  0  0  0  0  0  0  0  0  0
   37.5280   32.0970   40.4250 C   0  0  0  0  0  0  0  0  0  0  0  0
   37.9150   33.3690   40.0010 C   0  0  0  0  0  0  0  0  0  0  0  0
   39.2000   33.7530   40.1660 N   0  0  0  0  0  0  0  0  0  0  0  0
   40.1130   32.9450   40.7280 C   0  0  0  0  0  0  0  0  0  0  0  0
   39.7630   31.6950   41.1520 N   0  0  0  0  0  0  0  0  0  0  0  0
   38.4850   31.2880   40.9970 C   0  0  0  0  0  0  0  0  0  0  0  0
   36.8830   34.1360   39.4250 N   0  0  0  0  0  0  0  0  0  0  0  0
   41.4640   33.3710   40.8930 N   0  0  0  0  0  0  0  0  0  0  0  0
   42.3760   32.6490   41.6040 C   0  0  0  0  0  0  0  0  0  0  0  0
   43.6720   33.1050   41.7340 C   0  0  0  0  0  0  0  0  0  0  0  0
   44.6620   32.3090   42.5150 C   0  0  0  0  0  0  0  0  0  0  0  0
   44.0420   34.2940   41.1430 C   0  0  0  0  0  0  0  0  0  0  0  0
   45.2110   34.7420   41.2380 O   0  0  0  0  0  0  0  0  0  0  0  0
   43.1350   35.0020   40.4410 N   0  0  0  0  0  0  0  0  0  0  0  0
   41.8750   34.5390   40.3260 C   0  0  0  0  0  0  0  0  0  0  0  0
   40.9960   35.1890   39.6660 O   0  0  0  0  0  0  0  0  0  0  0  0
   39.0348   27.2390   44.7397 H   0  0  0  0  0  0  0  0  0  0  0  0
   39.9883   25.6062   43.0997 H   0  0  0  0  0  0  0  0  0  0  0  0
   39.9290   26.2204   40.6333 H   0  0  0  0  0  0  0  0  0  0  0  0
   35.8901   29.4126   41.1204 H   0  0  0  0  0  0  0  0  0  0  0  0
   35.9331   33.7454   39.3470 H   0  0  0  0  0  0  0  0  0  0  0  0
   37.0784   35.0873   39.0819 H   0  0  0  0  0  0  0  0  0  0  0  0
   42.0781   31.7007   42.0752 H   0  0  0  0  0  0  0  0  0  0  0  0
   44.4821   32.4536   43.5905 H   0  0  0  0  0  0  0  0  0  0  0  0
   44.5543   31.2431   42.2653 H   0  0  0  0  0  0  0  0  0  0  0  0
   45.6799   32.6430   42.2653 H   0  0  0  0  0  0  0  0  0  0  0  0
   43.4034   35.8910   39.9955 H   0  0  0  0  0  0  0  0  0  0  0  0
  2  1  2  0
  3  2  1  0
  4  3  2  0
  4  5  1  0
  5  6  2  0
  6  1  1  0
  7  5  1  0
  8  7  1  0
  9 10  1  0
  9  8  2  0
 10 15  2  0
 11 12  2  0
 11 10  1  0
 12 13  1  0
 13 17  1  0
 13 14  2  0
 15 14  1  0
 15  7  1  0
 16 11  1  0
 17 18  1  0
 18 19  2  0
 19 20  1  0
 21 22  2  0
 21 19  1  0
 23 21  1  0
 24 23  1  0
 24 17  1  0
 25 24  2  0
  1 26  1  0
  2 27  1  0
  3 28  1  0
  8 29  1  0
 16 30  1  0
 16 31  1  0
 18 32  1  0
 20 33  1  0
 20 34  1  0
 20 35  1  0
 23 36  1  0
M  END
>  <Score>  (1) 
-7.21986

$$$$
