cyclohexane
  PyMOL2.5          3D                             0

 34 35  0  0  0  0  0  0  0  0999 V2000
   36.2721   28.3908   36.2909 C   0  0  0  0  0  0  0  0  0  0  0  0
   37.9472   27.5296   37.9654 C   0  0  0  0  0  0  0  0  0  0  0  0
   34.7943   28.4251   35.8695 C   0  0  0  0  0  0  0  0  0  0  0  0
   38.8254   26.9249   36.8582 C   0  0  0  0  0  0  0  0  0  0  0  0
   33.9030   28.9011   37.0279 C   0  0  0  0  0  0  0  0  0  0  0  0
   40.3122   26.9783   37.2448 C   0  0  0  0  0  0  0  0  0  0  0  0
   34.0997   28.0193   38.2715 C   0  0  0  0  0  0  0  0  0  0  0  0
   40.7457   28.4177   37.5656 C   0  0  0  0  0  0  0  0  0  0  0  0
   35.5775   27.9850   38.6929 C   0  0  0  0  0  0  0  0  0  0  0  0
   39.8675   29.0225   38.6728 C   0  0  0  0  0  0  0  0  0  0  0  0
   36.4689   27.5090   37.5346 C   0  0  0  0  0  0  0  0  0  0  0  0
   38.3807   28.9691   38.2864 C   0  0  0  0  0  0  0  0  0  0  0  0
   38.0686   26.9270   38.8656 H   0  0  0  0  0  0  0  0  0  0  0  0
   36.1821   26.4889   37.2794 H   0  0  0  0  0  0  0  0  0  0  0  0
   36.6196   29.4286   36.5124 H   0  0  0  0  0  0  0  0  0  0  0  0
   36.9003   28.0094   35.4493 H   0  0  0  0  0  0  0  0  0  0  0  0
   34.4750   27.4037   35.5504 H   0  0  0  0  0  0  0  0  0  0  0  0
   38.6678   27.4905   35.9083 H   0  0  0  0  0  0  0  0  0  0  0  0
   34.6646   29.0977   34.9867 H   0  0  0  0  0  0  0  0  0  0  0  0
   38.5195   25.8681   36.6628 H   0  0  0  0  0  0  0  0  0  0  0  0
   34.1542   29.9597   37.2793 H   0  0  0  0  0  0  0  0  0  0  0  0
   40.4878   26.3297   38.1366 H   0  0  0  0  0  0  0  0  0  0  0  0
   32.8304   28.8862   36.7152 H   0  0  0  0  0  0  0  0  0  0  0  0
   40.9373   26.5674   36.4148 H   0  0  0  0  0  0  0  0  0  0  0  0
   33.4715   28.4006   39.1131 H   0  0  0  0  0  0  0  0  0  0  0  0
   41.8183   28.4327   37.8782 H   0  0  0  0  0  0  0  0  0  0  0  0
   33.7522   26.9815   38.0499 H   0  0  0  0  0  0  0  0  0  0  0  0
   40.6661   29.0439   36.6445 H   0  0  0  0  0  0  0  0  0  0  0  0
   35.8968   29.0063   39.0120 H   0  0  0  0  0  0  0  0  0  0  0  0
   40.0251   28.4569   39.6227 H   0  0  0  0  0  0  0  0  0  0  0  0
   35.7072   27.3124   39.5757 H   0  0  0  0  0  0  0  0  0  0  0  0
   40.1735   30.0792   38.8682 H   0  0  0  0  0  0  0  0  0  0  0  0
   38.2050   29.6177   37.3945 H   0  0  0  0  0  0  0  0  0  0  0  0
   37.7555   29.3799   39.1163 H   0  0  0  0  0  0  0  0  0  0  0  0
  1  3  1  0  0  0  0
  1 11  1  0  0  0  0
  1 15  1  0  0  0  0
  1 16  1  0  0  0  0
  2  4  1  0  0  0  0
  2 12  1  0  0  0  0
  2 13  1  0  0  0  0
  3  5  1  0  0  0  0
  3 17  1  0  0  0  0
  3 19  1  0  0  0  0
  4  6  1  0  0  0  0
  4 18  1  0  0  0  0
  4 20  1  0  0  0  0
  5  7  1  0  0  0  0
  5 21  1  0  0  0  0
  5 23  1  0  0  0  0
  6  8  1  0  0  0  0
  6 22  1  0  0  0  0
  6 24  1  0  0  0  0
  7  9  1  0  0  0  0
  7 25  1  0  0  0  0
  7 27  1  0  0  0  0
  8 10  1  0  0  0  0
  8 26  1  0  0  0  0
  8 28  1  0  0  0  0
  9 11  1  0  0  0  0
  9 29  1  0  0  0  0
  9 31  1  0  0  0  0
 10 12  1  0  0  0  0
 10 30  1  0  0  0  0
 10 32  1  0  0  0  0
  2 11  1  0  0  0  0
 11 14  1  0  0  0  0
 12 33  1  0  0  0  0
 12 34  1  0  0  0  0
M  END
$$$$
