
 OpenBabel03252514073D

 43 46  0  0  0  0  0  0  0  0999 V2000
   34.0850   30.0320   47.5250 C   0  0  0  0  0  0  0  0  0  0  0  0
   35.0770   29.7950   48.5090 C   0  0  0  0  0  0  0  0  0  0  0  0
   34.9370   28.6440   49.2690 C   0  0  0  0  0  0  0  0  0  0  0  0
   33.8910   27.8140   49.0510 N   0  0  0  0  0  0  0  0  0  0  0  0
   32.9590   28.0570   48.1070 C   0  0  0  0  0  0  0  0  0  0  0  0
   33.0670   29.1540   47.3640 N   0  0  0  0  0  0  0  0  0  0  0  0
   34.1320   30.9100   46.8970 H   0  0  0  0  0  0  0  0  0  0  0  0
   35.7000   28.4880   50.0080 H   0  0  0  0  0  0  0  0  0  0  0  0
   36.1300   30.7440   48.6300 N   0  0  0  0  0  0  0  0  0  0  0  0
   36.4520   31.3740   49.7740 C   0  0  0  0  0  0  0  0  0  0  0  0
   37.4930   32.2050   49.5330 N   0  0  0  0  0  0  0  0  0  0  0  0
   37.8010   32.0710   48.2260 C   0  0  0  0  0  0  0  0  0  0  0  0
   38.7530   32.6460   47.4050 C   0  0  0  0  0  0  0  0  0  0  0  0
   38.8480   32.3300   46.1060 N   0  0  0  0  0  0  0  0  0  0  0  0
   38.0140   31.4320   45.5390 C   0  0  0  0  0  0  0  0  0  0  0  0
   37.0890   30.8740   46.3390 N   0  0  0  0  0  0  0  0  0  0  0  0
   36.9520   31.1560   47.6430 C   0  0  0  0  0  0  0  0  0  0  0  0
   35.9580   31.2370   50.7210 H   0  0  0  0  0  0  0  0  0  0  0  0
   38.0960   31.1830   44.4950 H   0  0  0  0  0  0  0  0  0  0  0  0
   39.6540   33.5960   47.9480 N   0  0  0  0  0  0  0  0  0  0  0  0
   39.4770   34.6260   47.9600 H   0  0  0  0  0  0  0  0  0  0  0  0
   40.5820   33.4950   48.4050 H   0  0  0  0  0  0  0  0  0  0  0  0
   31.8310   27.1300   47.8680 C   0  0  0  0  0  0  0  0  0  0  0  0
   30.7410   27.3920   48.9180 C   0  0  0  0  0  0  0  0  0  0  0  0
   30.6230   28.4940   49.0310 H   0  0  0  0  0  0  0  0  0  0  0  0
   29.7570   27.0150   48.5640 H   0  0  0  0  0  0  0  0  0  0  0  0
   31.0030   26.9520   49.8860 H   0  0  0  0  0  0  0  0  0  0  0  0
   31.1490   27.4680   46.5410 C   0  0  0  0  0  0  0  0  0  0  0  0
   30.7560   28.5260   46.6140 H   0  0  0  0  0  0  0  0  0  0  0  0
   30.2630   26.8590   46.3610 H   0  0  0  0  0  0  0  0  0  0  0  0
   31.8290   27.3880   45.6780 H   0  0  0  0  0  0  0  0  0  0  0  0
   32.2020   25.7000   47.8570 C   0  0  0  0  0  0  0  0  0  0  0  0
   31.4780   25.1690   48.5440 H   0  0  0  0  0  0  0  0  0  0  0  0
   33.1780   25.6110   48.4050 H   0  0  0  0  0  0  0  0  0  0  0  0
   32.1900   24.9930   46.6350 N   0  0  0  0  0  0  0  0  0  0  0  0
   31.1490   24.3020   46.1360 C   0  0  0  0  0  3  0  0  0  0  0  0
   31.1130   23.6050   44.9540 C   0  0  0  0  0  3  0  0  0  0  0  0
   32.2600   23.5960   44.1740 C   0  0  0  0  0  0  0  0  0  0  0  0
   32.2790   22.9780   43.0950 O   0  0  0  0  0  0  0  0  0  0  0  0
   33.3180   24.2700   44.6300 N   0  0  0  0  0  0  0  0  0  0  0  0
   33.2710   24.9280   45.8010 C   0  0  0  0  0  0  0  0  0  0  0  0
   34.3470   25.5100   46.0850 O   0  0  0  0  0  0  0  0  0  0  0  0
   34.1510   24.2390   44.0230 H   0  0  0  0  0  0  0  0  0  0  0  0
  1  2  1  0  0  0  0
  2  9  1  0  0  0  0
  2  3  2  0  0  0  0
  3  8  1  0  0  0  0
  4  3  1  0  0  0  0
  5  4  2  0  0  0  0
  6  1  2  0  0  0  0
  6  5  1  0  0  0  0
  7  1  1  0  0  0  0
  9 10  1  0  0  0  0
 10 18  1  0  0  0  0
 11 10  2  0  0  0  0
 12 11  1  0  0  0  0
 13 20  1  0  0  0  0
 13 12  2  0  0  0  0
 14 13  1  0  0  0  0
 15 14  2  0  0  0  0
 15 16  1  0  0  0  0
 16 17  2  0  0  0  0
 17 12  1  0  0  0  0
 17  9  1  0  0  0  0
 19 15  1  0  0  0  0
 20 21  1  0  0  0  0
 20 22  1  0  0  0  0
 23  5  1  0  0  0  0
 23 24  1  0  0  0  0
 24 25  1  0  0  0  0
 24 27  1  0  0  0  0
 26 24  1  0  0  0  0
 28 29  1  0  0  0  0
 28 23  1  0  0  0  0
 30 28  1  0  0  0  0
 31 28  1  0  0  0  0
 32 23  1  0  0  0  0
 32 34  1  0  0  0  0
 32 33  1  0  0  0  0
 35 32  1  0  0  0  0
 36 35  1  0  0  0  0
 37 36  2  0  0  0  0
 38 40  1  0  0  0  0
 38 37  1  0  0  0  0
 39 38  2  0  0  0  0
 40 41  1  0  0  0  0
 41 42  2  0  0  0  0
 41 35  1  0  0  0  0
 43 40  1  0  0  0  0
M  END
>  <minimizedAffinity>
-5.28231907

>  <minimizedRMSD>
2.12588191

$$$$
