REMARK  Name = 
REMARK  7 active torsions:
REMARK  status: ('A' for Active; 'I' for Inactive)
REMARK    1  A    between atoms: N_1  and  C_12
REMARK    2  A    between atoms: C_5  and  N_10
REMARK    3  A    between atoms: C_15  and  C_17
REMARK    4  A    between atoms: C_17  and  C_18
REMARK    5  A    between atoms: C_17  and  C_19
REMARK    6  A    between atoms: C_17  and  C_20
REMARK    7  A    between atoms: C_20  and  N_35
REMARK                            x       y       z     vdW  Elec       q    Type
REMARK                         _______ _______ _______ _____ _____    ______ ____
ROOT
ATOM      1  C   UNL     1      34.647  30.002  47.403  0.00  0.00    +0.000 A 
ATOM      2  C   UNL     1      35.516  29.895  48.518  0.00  0.00    +0.000 A 
ATOM      3  C   UNL     1      35.422  28.735  49.271  0.00  0.00    +0.000 A 
ATOM      4  N   UNL     1      34.532  27.776  48.925  0.00  0.00    +0.000 NA
ATOM      5  C   UNL     1      33.715  27.897  47.859  0.00  0.00    +0.000 A 
ATOM      6  N   UNL     1      33.783  29.000  47.119  0.00  0.00    +0.000 NA
ATOM      7  H   UNL     1      34.667  30.880  46.773  0.00  0.00    +0.000 HD
ATOM      8  H   UNL     1      36.089  28.678  50.110  0.00  0.00    +0.000 HD
ENDROOT
BRANCH   2   9
ATOM      9  N   UNL     1      36.411  30.973  48.766  0.00  0.00    +0.000 N 
ATOM     10  C   UNL     1      36.389  31.733  49.876  0.00  0.00    +0.000 A 
ATOM     11  N   UNL     1      37.370  32.661  49.784  0.00  0.00    +0.000 NA
ATOM     12  C   UNL     1      37.990  32.455  48.604  0.00  0.00    +0.000 A 
ATOM     13  C   UNL     1      39.047  33.070  47.959  0.00  0.00    +0.000 A 
ATOM     14  N   UNL     1      39.477  32.658  46.759  0.00  0.00    +0.000 NA
ATOM     15  C   UNL     1      38.894  31.619  46.122  0.00  0.00    +0.000 A 
ATOM     16  N   UNL     1      37.867  31.023  46.750  0.00  0.00    +0.000 NA
ATOM     17  C   UNL     1      37.398  31.396  47.950  0.00  0.00    +0.000 A 
ATOM     18  H   UNL     1      35.702  31.618  50.697  0.00  0.00    +0.000 HD
ATOM     19  H   UNL     1      39.245  31.294  45.158  0.00  0.00    +0.000 HD
BRANCH  13  20
ATOM     20  N   UNL     1      39.695  34.166  48.582  0.00  0.00    +0.000 N 
ATOM     21  H   UNL     1      39.419  35.163  48.439  0.00  0.00    +0.000 HD
ATOM     22  H   UNL     1      40.495  34.218  49.244  0.00  0.00    +0.000 HD
ENDBRANCH  13  20
ENDBRANCH   2   9
BRANCH   5  23
ATOM     23  C   UNL     1      32.760  26.832  47.483  0.00  0.00    +0.000 C 
BRANCH  23  24
ATOM     24  C   UNL     1      31.549  26.895  48.425  0.00  0.00    +0.000 C 
ATOM     25  H   UNL     1      31.264  27.964  48.555  0.00  0.00    +0.000 HD
ATOM     26  H   UNL     1      30.667  26.399  47.964  0.00  0.00    +0.000 HD
ATOM     27  H   UNL     1      31.777  26.457  49.402  0.00  0.00    +0.000 HD
ENDBRANCH  23  24
BRANCH  23  28
ATOM     28  C   UNL     1      32.166  27.125  46.104  0.00  0.00    +0.000 C 
ATOM     29  H   UNL     1      31.620  28.114  46.165  0.00  0.00    +0.000 HD
ATOM     30  H   UNL     1      31.398  26.406  45.819  0.00  0.00    +0.000 HD
ATOM     31  H   UNL     1      32.930  27.177  45.311  0.00  0.00    +0.000 HD
ENDBRANCH  23  28
BRANCH  23  32
ATOM     32  C   UNL     1      33.332  25.470  47.470  0.00  0.00    +0.000 C 
ATOM     33  H   UNL     1      32.493  24.766  47.187  0.00  0.00    +0.000 HD
ATOM     34  H   UNL     1      33.541  25.192  48.538  0.00  0.00    +0.000 HD
BRANCH  32  35
ATOM     35  N   UNL     1      34.409  25.181  46.605  0.00  0.00    +0.000 N 
ATOM     36  C   UNL     1      35.698  25.054  46.967  0.00  0.00    +0.000 A 
ATOM     37  C   UNL     1      36.763  24.777  46.144  0.00  0.00    +0.000 A 
ATOM     38  C   UNL     1      36.505  24.605  44.792  0.00  0.00    +0.000 A 
ATOM     39  O   UNL     1      37.436  24.353  44.006  0.00  0.00    +0.000 OA
ATOM     40  N   UNL     1      35.240  24.721  44.387  0.00  0.00    +0.000 N 
ATOM     41  C   UNL     1      34.254  24.995  45.260  0.00  0.00    +0.000 A 
ATOM     42  O   UNL     1      33.122  25.069  44.718  0.00  0.00    +0.000 OA
ATOM     43  H   UNL     1      35.090  24.587  43.376  0.00  0.00    +0.000 HD
ENDBRANCH  32  35
ENDBRANCH  23  32
ENDBRANCH   5  23
TORSDOF 7
