
     RDKit          3D

 26 28  0  0  0  0  0  0  0  0999 V2000
   37.7935   31.8171   49.0557 N   0  0  0  0  0  0  0  0  0  0  0  0
   38.1948   33.0391   49.4709 C   0  0  0  0  0  0  0  0  0  0  0  0
   38.9495   33.5899   48.4862 N   0  0  0  0  0  0  0  0  0  0  0  0
   39.0054   32.7159   47.4893 C   0  0  0  0  0  0  0  0  0  0  0  0
   39.6128   32.7171   46.2443 C   0  0  0  0  0  0  0  0  0  0  0  0
   39.4935   31.6553   45.4061 N   0  0  0  0  0  0  0  0  0  0  0  0
   38.7844   30.5598   45.7444 C   0  0  0  0  0  0  0  0  0  0  0  0
   38.2054   30.5775   46.9523 N   0  0  0  0  0  0  0  0  0  0  0  0
   38.2855   31.5999   47.8309 C   0  0  0  0  0  0  0  0  0  0  0  0
   35.6868   30.6602   49.3839 C   0  0  0  0  0  0  0  0  0  0  0  0
   36.9860   30.9332   49.8178 C   0  0  0  0  0  0  0  0  0  0  0  0
   37.4001   30.3003   51.0007 C   0  0  0  0  0  0  0  0  0  0  0  0
   36.5565   29.4727   51.6632 N   0  0  0  0  0  0  0  0  0  0  0  0
   35.3028   29.2357   51.2065 C   0  0  0  0  0  0  0  0  0  0  0  0
   34.8906   29.8286   50.0827 N   0  0  0  0  0  0  0  0  0  0  0  0
   40.3736   33.8366   45.8442 N   0  0  0  0  0  0  0  0  0  0  0  0
   37.9928   33.5556   50.4053 H   0  0  0  0  0  0  0  0  0  0  0  0
   38.6974   29.7209   45.0662 H   0  0  0  0  0  0  0  0  0  0  0  0
   35.3588   31.1430   48.4735 H   0  0  0  0  0  0  0  0  0  0  0  0
   38.4085   30.5181   51.3283 H   0  0  0  0  0  0  0  0  0  0  0  0
   40.0264   34.7828   46.1399 H   0  0  0  0  0  0  0  0  0  0  0  0
   41.2373   33.6718   45.2785 H   0  0  0  0  0  0  0  0  0  0  0  0
   34.3840   28.3220   51.9461 C   0  0  0  0  0  0  0  0  0  0  0  0
   33.4690   28.2227   51.3202 H   0  0  0  0  0  0  0  0  0  0  0  0
   34.8126   27.2978   52.0384 H   0  0  0  0  0  0  0  0  0  0  0  0
   34.1753   28.7789   52.9352 H   0  0  0  0  0  0  0  0  0  0  0  0
  1  2  1  0
  1 11  1  0
  3  2  2  0
  4  9  2  0
  4  3  1  0
  5  4  1  0
  6  7  1  0
  6  5  2  0
  7  8  2  0
  8  9  1  0
  9  1  1  0
 10 11  2  0
 10 15  1  0
 11 12  1  0
 12 13  2  0
 14 13  1  0
 15 14  2  0
 16  5  1  0
  2 17  1  0
  7 18  1  0
 10 19  1  0
 12 20  1  0
 16 21  1  0
 16 22  1  0
 23 24  1  0
 23 25  1  0
 23 26  1  0
 14 23  1  0
M  ISO  5  17  14  18  14  19  14  20  14  24   8
M  END
>  <DihAtoms>  (1) 
12,13,22,23

>  <DihDeg>  (1) 
35.32145200612162

$$$$
