
 OpenBabel03252514073D

 43 46  0  0  0  0  0  0  0  0999 V2000
   34.0520   29.8980   47.5080 C   0  0  0  0  0  0  0  0  0  0  0  0
   35.0400   29.6400   48.4920 C   0  0  0  0  0  0  0  0  0  0  0  0
   34.9410   28.4370   49.1730 C   0  0  0  0  0  0  0  0  0  0  0  0
   33.9370   27.5780   48.8830 N   0  0  0  0  0  0  0  0  0  0  0  0
   33.0070   27.8410   47.9420 C   0  0  0  0  0  0  0  0  0  0  0  0
   33.0770   28.9890   47.2740 N   0  0  0  0  0  0  0  0  0  0  0  0
   34.0680   30.8170   46.9400 H   0  0  0  0  0  0  0  0  0  0  0  0
   35.7000   28.2660   49.9130 H   0  0  0  0  0  0  0  0  0  0  0  0
   36.0480   30.6250   48.6920 N   0  0  0  0  0  0  0  0  0  0  0  0
   36.2860   31.2340   49.8670 C   0  0  0  0  0  0  0  0  0  0  0  0
   37.3050   32.1090   49.7020 N   0  0  0  0  0  0  0  0  0  0  0  0
   37.6840   32.0240   48.4100 C   0  0  0  0  0  0  0  0  0  0  0  0
   38.6530   32.6580   47.6550 C   0  0  0  0  0  0  0  0  0  0  0  0
   38.8260   32.3820   46.3550 N   0  0  0  0  0  0  0  0  0  0  0  0
   38.0580   31.4690   45.7220 C   0  0  0  0  0  0  0  0  0  0  0  0
   37.1170   30.8550   46.4580 N   0  0  0  0  0  0  0  0  0  0  0  0
   36.9020   31.0940   47.7600 C   0  0  0  0  0  0  0  0  0  0  0  0
   35.7510   31.0520   50.7840 H   0  0  0  0  0  0  0  0  0  0  0  0
   38.2030   31.2530   44.6780 H   0  0  0  0  0  0  0  0  0  0  0  0
   39.4870   33.6250   48.2690 N   0  0  0  0  0  0  0  0  0  0  0  0
   39.2700   34.6460   48.2990 H   0  0  0  0  0  0  0  0  0  0  0  0
   40.3950   33.5450   48.7700 H   0  0  0  0  0  0  0  0  0  0  0  0
   31.9250   26.8840   47.6240 C   0  0  0  0  0  0  0  0  0  0  0  0
   30.8370   26.9890   48.7020 C   0  0  0  0  0  0  0  0  0  0  0  0
   30.6640   28.0670   48.9190 H   0  0  0  0  0  0  0  0  0  0  0  0
   29.8680   26.5960   48.3210 H   0  0  0  0  0  0  0  0  0  0  0  0
   31.1310   26.4740   49.6220 H   0  0  0  0  0  0  0  0  0  0  0  0
   31.2110   27.3090   46.3400 C   0  0  0  0  0  0  0  0  0  0  0  0
   30.7650   28.3340   46.5150 H   0  0  0  0  0  0  0  0  0  0  0  0
   30.3550   26.6750   46.1090 H   0  0  0  0  0  0  0  0  0  0  0  0
   31.8840   27.3470   45.4680 H   0  0  0  0  0  0  0  0  0  0  0  0
   32.3690   25.4830   47.4750 C   0  0  0  0  0  0  0  0  0  0  0  0
   31.4670   24.8890   47.1380 H   0  0  0  0  0  0  0  0  0  0  0  0
   32.5570   25.0860   48.5090 H   0  0  0  0  0  0  0  0  0  0  0  0
   33.4100   25.1800   46.5720 N   0  0  0  0  0  0  0  0  0  0  0  0
   33.5910   25.7410   45.3630 C   0  0  0  0  0  3  0  0  0  0  0  0
   34.5920   25.4590   44.4650 C   0  0  0  0  0  3  0  0  0  0  0  0
   35.5290   24.5010   44.8220 C   0  0  0  0  0  0  0  0  0  0  0  0
   36.4550   24.2110   44.0440 O   0  0  0  0  0  0  0  0  0  0  0  0
   35.3890   23.9180   46.0130 N   0  0  0  0  0  0  0  0  0  0  0  0
   34.3780   24.2520   46.8350 C   0  0  0  0  0  0  0  0  0  0  0  0
   34.3910   23.6130   47.9170 O   0  0  0  0  0  0  0  0  0  0  0  0
   36.1050   23.2130   46.2410 H   0  0  0  0  0  0  0  0  0  0  0  0
  1  2  1  0  0  0  0
  2  9  1  0  0  0  0
  2  3  2  0  0  0  0
  3  8  1  0  0  0  0
  4  3  1  0  0  0  0
  5  4  2  0  0  0  0
  6  1  2  0  0  0  0
  6  5  1  0  0  0  0
  7  1  1  0  0  0  0
  9 10  1  0  0  0  0
 10 18  1  0  0  0  0
 11 10  2  0  0  0  0
 12 11  1  0  0  0  0
 13 20  1  0  0  0  0
 13 12  2  0  0  0  0
 14 13  1  0  0  0  0
 15 14  2  0  0  0  0
 15 16  1  0  0  0  0
 16 17  2  0  0  0  0
 17 12  1  0  0  0  0
 17  9  1  0  0  0  0
 19 15  1  0  0  0  0
 20 21  1  0  0  0  0
 20 22  1  0  0  0  0
 23  5  1  0  0  0  0
 23 24  1  0  0  0  0
 24 25  1  0  0  0  0
 24 27  1  0  0  0  0
 26 24  1  0  0  0  0
 28 29  1  0  0  0  0
 28 23  1  0  0  0  0
 30 28  1  0  0  0  0
 31 28  1  0  0  0  0
 32 23  1  0  0  0  0
 32 34  1  0  0  0  0
 33 32  1  0  0  0  0
 35 41  1  0  0  0  0
 35 32  1  0  0  0  0
 36 35  1  0  0  0  0
 37 38  1  0  0  0  0
 37 36  2  0  0  0  0
 38 40  1  0  0  0  0
 39 38  2  0  0  0  0
 40 43  1  0  0  0  0
 40 41  1  0  0  0  0
 41 42  2  0  0  0  0
M  END
>  <minimizedAffinity>
-5.58875132

>  <minimizedRMSD>
0.843758464

$$$$
