
 OpenBabel03252511403D

 37 39  0  0  1  0  0  0  0  0999 V2000
   33.8840   29.2920   47.8180 C   0  0  0  0  0  0  0  0  0  0  0  0
   33.7980   30.2490   46.8470 C   0  0  0  0  0  0  0  0  0  0  0  0
   32.7020   30.0660   46.0490 N   0  0  0  0  0  0  0  0  0  0  0  0
   32.0750   28.9880   46.5030 C   0  0  0  0  0  0  0  0  0  0  0  0
   32.7800   28.5150   47.5680 N   0  0  0  0  0  0  0  0  0  0  0  0
   34.5620   31.0410   46.7830 H   0  0  0  0  0  0  0  0  0  0  0  0
   31.1750   28.6790   45.9960 H   0  0  0  0  0  0  0  0  0  0  0  0
   34.7600   28.9530   48.8820 C   0  0  0  0  0  0  0  0  0  0  0  0
   35.7120   28.5790   48.3790 H   0  0  0  0  0  0  0  0  0  0  0  0
   34.4650   28.0270   49.4520 H   0  0  0  0  0  0  0  0  0  0  0  0
   35.2060   29.9770   49.8110 C   0  0  2  0  0  0  0  0  0  0  0  0
   34.4840   30.7520   50.1000 H   0  0  0  0  0  0  0  0  0  0  0  0
   36.4310   30.7110   49.3110 C   0  0  0  0  0  0  0  0  0  0  0  0
   36.7450   31.9190   49.9350 C   0  0  0  0  0  0  0  0  0  0  0  0
   37.8820   32.5800   49.4210 C   0  0  0  0  0  0  0  0  0  0  0  0
   38.5780   32.0260   48.3900 N   0  0  0  0  0  0  0  0  0  0  0  0
   38.2280   30.8300   47.8090 C   0  0  0  0  0  0  0  0  0  0  0  0
   37.1370   30.1710   48.2830 N   0  0  0  0  0  0  0  0  0  0  0  0
   36.1510   32.2850   50.7350 H   0  0  0  0  0  0  0  0  0  0  0  0
   38.1730   33.5070   49.8550 H   0  0  0  0  0  0  0  0  0  0  0  0
   38.8180   30.4550   47.0040 H   0  0  0  0  0  0  0  0  0  0  0  0
   35.6120   29.2590   51.1500 C   0  0  0  0  0  0  0  0  0  0  0  0
   36.6470   28.8800   51.0370 H   0  0  0  0  0  0  0  0  0  0  0  0
   35.4880   30.0000   51.9310 H   0  0  0  0  0  0  0  0  0  0  0  0
   34.9050   28.4230   51.3080 H   0  0  0  0  0  0  0  0  0  0  0  0
   32.3090   27.3200   48.2810 C   0  0  0  0  0  0  0  0  0  0  0  0
   32.9740   27.0760   49.1320 H   0  0  0  0  0  0  0  0  0  0  0  0
   32.3940   26.4420   47.6080 H   0  0  0  0  0  0  0  0  0  0  0  0
   30.9380   27.4270   48.7040 N   0  0  0  0  0  0  0  0  0  0  0  0
   30.4380   28.1020   49.7510 C   0  0  0  0  0  0  0  0  0  0  0  0
   29.1130   28.1560   50.0950 C   0  0  0  0  0  0  0  0  0  0  0  0
   28.1960   27.4740   49.3190 C   0  0  0  0  0  0  0  0  0  0  0  0
   26.9710   27.4940   49.5950 O   0  0  0  0  0  0  0  0  0  0  0  0
   28.6800   26.7880   48.2580 N   0  0  0  0  0  0  0  0  0  0  0  0
   29.9980   26.7670   47.9640 C   0  0  0  0  0  0  0  0  0  0  0  0
   30.2520   26.0660   46.9270 O   0  0  0  0  0  0  0  0  0  0  0  0
   27.9550   26.2940   47.7090 H   0  0  0  0  0  0  0  0  0  0  0  0
  1  8  1  0  0  0  0
  2  1  2  0  0  0  0
  3  4  2  0  0  0  0
  3  2  1  0  0  0  0
  4  5  1  0  0  0  0
  5  1  1  0  0  0  0
  5 26  1  0  0  0  0
  6  2  1  0  0  0  0
  7  4  1  0  0  0  0
  8 10  1  0  0  0  0
  8 11  1  0  0  0  0
  9  8  1  0  0  0  0
 11 12  1  1  0  0  0
 11 22  1  0  0  0  0
 13 11  1  0  0  0  0
 13 14  1  0  0  0  0
 14 19  1  0  0  0  0
 15 20  1  0  0  0  0
 15 14  2  0  0  0  0
 16 15  1  0  0  0  0
 17 18  1  0  0  0  0
 17 16  2  0  0  0  0
 18 13  2  0  0  0  0
 21 17  1  0  0  0  0
 22 25  1  0  0  0  0
 22 24  1  0  0  0  0
 23 22  1  0  0  0  0
 26 29  1  0  0  0  0
 26 27  1  0  0  0  0
 28 26  1  0  0  0  0
 29 30  1  0  0  0  0
 30 31  2  0  0  0  0
 32 33  2  0  0  0  0
 32 31  1  0  0  0  0
 34 32  1  0  0  0  0
 35 34  1  0  0  0  0
 35 29  1  0  0  0  0
 36 35  2  0  0  0  0
 37 34  1  0  0  0  0
M  END
>  <minimizedAffinity>
-5.75954819

>  <minimizedRMSD>
2.49098253

$$$$
