
 OpenBabel03252512383D

 41 44  0  0  1  0  0  0  0  0999 V2000
   39.1190   30.7860   46.4490 C   0  0  2  0  0  0  0  0  0  0  0  0
   40.1740   31.6760   46.0180 C   0  0  0  0  0  0  0  0  0  0  0  0
   40.9730   31.1810   44.8610 C   0  0  0  0  0  0  0  0  0  0  0  0
   40.1580   30.6260   43.7640 C   0  0  0  0  0  0  0  0  0  0  0  0
   39.0050   29.8330   44.1850 C   0  0  0  0  0  0  0  0  0  0  0  0
   38.1780   30.5100   45.3380 C   0  0  2  0  0  0  0  0  0  0  0  0
   39.5510   29.7930   46.7260 H   0  0  0  0  0  0  0  0  0  0  0  0
   40.0100   32.7380   45.8940 H   0  0  0  0  0  0  0  0  0  0  0  0
   40.9280   31.6570   46.8710 H   0  0  0  0  0  0  0  0  0  0  0  0
   41.6110   32.0120   44.4780 H   0  0  0  0  0  0  0  0  0  0  0  0
   41.7090   30.3930   45.1820 H   0  0  0  0  0  0  0  0  0  0  0  0
   39.8640   31.4570   43.0600 H   0  0  0  0  0  0  0  0  0  0  0  0
   40.8150   29.9680   43.1600 H   0  0  0  0  0  0  0  0  0  0  0  0
   38.2980   29.6660   43.3350 H   0  0  0  0  0  0  0  0  0  0  0  0
   39.3150   28.8220   44.5190 H   0  0  0  0  0  0  0  0  0  0  0  0
   37.3990   29.7350   45.5170 H   0  0  0  0  0  0  0  0  0  0  0  0
   38.6040   32.5070   48.2910 C   0  0  0  0  0  0  0  0  0  0  0  0
   38.3930   31.2450   47.6290 C   0  0  0  0  0  0  0  0  0  0  0  0
   37.4480   30.4030   48.1040 C   0  0  0  0  0  0  0  0  0  0  0  0
   36.7290   30.8040   49.2070 N   0  0  0  0  0  0  0  0  0  0  0  0
   36.9540   32.0190   49.8200 C   0  0  0  0  0  0  0  0  0  0  0  0
   37.9070   32.8720   49.3450 N   0  0  0  0  0  0  0  0  0  0  0  0
   39.4030   33.0670   47.7830 H   0  0  0  0  0  0  0  0  0  0  0  0
   37.2020   29.4350   47.6930 H   0  0  0  0  0  0  0  0  0  0  0  0
   36.3960   32.3210   50.6690 H   0  0  0  0  0  0  0  0  0  0  0  0
   37.6030   31.7070   44.7400 C   0  0  0  0  0  0  0  0  0  0  0  0
   37.9770   32.9160   44.9510 O   0  0  0  0  0  0  0  0  0  0  0  0
   36.5760   31.4740   43.8910 O   0  0  0  0  0  0  0  0  0  0  0  0
   36.3910   32.3350   42.7810 C   0  0  0  0  0  0  0  0  0  0  0  0
   35.2440   33.1280   42.6230 C   0  0  0  0  0  0  0  0  0  0  0  0
   35.4560   33.7990   41.4470 C   0  0  0  0  0  0  0  0  0  0  0  0
   36.6610   33.4430   40.9080 N   0  0  0  0  0  0  0  0  0  0  0  0
   37.1970   32.5600   41.7390 N   0  0  0  0  0  0  0  0  0  0  0  0
   34.3720   33.2140   43.2680 H   0  0  0  0  0  0  0  0  0  0  0  0
   34.7680   34.5080   41.0070 H   0  0  0  0  0  0  0  0  0  0  0  0
   37.2310   33.9300   39.6840 C   0  0  0  0  0  0  0  0  0  0  0  0
   36.4070   34.6890   38.7870 C   0  0  0  0  0  0  0  0  0  0  0  0
   37.5910   35.0560   37.4220 S   0  0  0  0  0  0  0  0  0  0  0  0
   38.9850   34.1160   38.3130 C   0  0  0  0  0  0  0  0  0  0  0  0
   40.0900   33.8940   38.0650 H   0  0  0  0  0  0  0  0  0  0  0  0
   38.4760   33.7550   39.2700 N   0  0  0  0  0  0  0  0  0  0  0  0
  1  7  1  1  0  0  0
  1 18  1  0  0  0  0
  2  1  1  0  0  0  0
  2  9  1  0  0  0  0
  3 11  1  0  0  0  0
  3  2  1  0  0  0  0
  4  5  1  0  0  0  0
  4  3  1  0  0  0  0
  5 15  1  0  0  0  0
  5  6  1  0  0  0  0
  6 16  1  1  0  0  0
  6  1  1  0  0  0  0
  8  2  1  0  0  0  0
 10  3  1  0  0  0  0
 12  4  1  0  0  0  0
 13  4  1  0  0  0  0
 14  5  1  0  0  0  0
 17 22  1  0  0  0  0
 18 19  1  0  0  0  0
 18 17  2  0  0  0  0
 19 20  2  0  0  0  0
 20 21  1  0  0  0  0
 21 25  1  0  0  0  0
 22 21  2  0  0  0  0
 23 17  1  0  0  0  0
 24 19  1  0  0  0  0
 26 27  2  0  0  0  0
 26  6  1  0  0  0  0
 28 26  1  0  0  0  0
 29 28  1  0  0  0  0
 30 29  1  0  0  0  0
 30 34  1  0  0  0  0
 31 30  2  0  0  0  0
 32 31  1  0  0  0  0
 32 33  1  0  0  0  0
 33 29  2  0  0  0  0
 35 31  1  0  0  0  0
 36 32  1  0  0  0  0
 37 36  2  0  0  0  0
 38 39  1  0  0  0  0
 38 37  1  0  0  0  0
 39 41  2  0  0  0  0
 40 39  1  0  0  0  0
 41 36  1  0  0  0  0
M  END
>  <minimizedAffinity>
-5.29018021

>  <minimizedRMSD>
1.23496449

$$$$
