
 OpenBabel03252512363D

 27 28  0  0  1  0  0  0  0  0999 V2000
   38.5910   31.6510   46.8040 C   0  0  2  0  0  0  0  0  0  0  0  0
   39.5190   32.8060   47.0390 C   0  0  0  0  0  0  0  0  0  0  0  0
   40.4560   32.8700   45.8280 C   0  0  0  0  0  0  0  0  0  0  0  0
   39.6100   33.3430   44.7050 C   0  0  0  0  0  0  0  0  0  0  0  0
   38.3920   32.5040   44.4530 C   0  0  0  0  0  0  0  0  0  0  0  0
   37.7760   31.8260   45.6200 C   0  0  1  0  0  0  0  0  0  0  0  0
   39.3030   30.7750   46.6380 H   0  0  0  0  0  0  0  0  0  0  0  0
   40.1950   32.6760   47.9100 H   0  0  0  0  0  0  0  0  0  0  0  0
   39.0140   33.7870   47.0840 H   0  0  0  0  0  0  0  0  0  0  0  0
   40.8260   31.8230   45.7050 H   0  0  0  0  0  0  0  0  0  0  0  0
   41.2480   33.5900   46.0260 H   0  0  0  0  0  0  0  0  0  0  0  0
   40.2230   33.4400   43.8070 H   0  0  0  0  0  0  0  0  0  0  0  0
   39.2940   34.3830   44.9740 H   0  0  0  0  0  0  0  0  0  0  0  0
   37.6840   33.1830   43.9290 H   0  0  0  0  0  0  0  0  0  0  0  0
   38.6940   31.8010   43.6210 H   0  0  0  0  0  0  0  0  0  0  0  0
   36.8660   32.4180   45.8780 H   0  0  0  0  0  0  0  0  0  0  0  0
   38.3790   31.3450   49.2520 C   0  0  0  0  0  0  0  0  0  0  0  0
   37.8140   31.2920   47.9740 C   0  0  0  0  0  0  0  0  0  0  0  0
   36.5080   30.8540   47.8540 C   0  0  0  0  0  0  0  0  0  0  0  0
   35.8040   30.4880   48.9610 N   0  0  0  0  0  0  0  0  0  0  0  0
   36.3850   30.5500   50.1980 C   0  0  0  0  0  0  0  0  0  0  0  0
   37.6640   30.9770   50.3330 N   0  0  0  0  0  0  0  0  0  0  0  0
   39.3860   31.6730   49.4330 H   0  0  0  0  0  0  0  0  0  0  0  0
   35.9800   30.7730   46.9520 H   0  0  0  0  0  0  0  0  0  0  0  0
   35.8550   30.2670   51.0870 H   0  0  0  0  0  0  0  0  0  0  0  0
   37.4160   30.4130   45.1210 C   0  0  0  0  0  0  0  0  0  0  0  0
   36.6160   29.9520   45.7330 H   0  0  0  0  0  0  0  0  0  0  0  0
  1  7  1  6  0  0  0
  1  2  1  0  0  0  0
  1 18  1  0  0  0  0
  2  9  1  0  0  0  0
  2  8  1  0  0  0  0
  3 11  1  0  0  0  0
  3  2  1  0  0  0  0
  4 13  1  0  0  0  0
  4  3  1  0  0  0  0
  5  4  1  0  0  0  0
  5  6  1  0  0  0  0
  6 16  1  1  0  0  0
  6  1  1  0  0  0  0
 10  3  1  0  0  0  0
 12  4  1  0  0  0  0
 14  5  1  0  0  0  0
 15  5  1  0  0  0  0
 17 23  1  0  0  0  0
 17 22  1  0  0  0  0
 18 17  2  0  0  0  0
 19 18  1  0  0  0  0
 19 20  2  0  0  0  0
 20 21  1  0  0  0  0
 21 22  2  0  0  0  0
 21 25  1  0  0  0  0
 24 19  1  0  0  0  0
 26  6  1  0  0  0  0
 26 27  1  0  0  0  0
M  END
>  <minimizedAffinity>
-4.58439827

>  <minimizedRMSD>
1.45315385

$$$$
