
 OpenBabel03252514073D

 43 46  0  0  0  0  0  0  0  0999 V2000
   34.1230   30.0340   47.5210 C   0  0  0  0  0  0  0  0  0  0  0  0
   35.1010   29.8130   48.5240 C   0  0  0  0  0  0  0  0  0  0  0  0
   34.9530   28.6730   49.2970 C   0  0  0  0  0  0  0  0  0  0  0  0
   33.9120   27.8360   49.0740 N   0  0  0  0  0  0  0  0  0  0  0  0
   32.9940   28.0640   48.1140 C   0  0  0  0  0  0  0  0  0  0  0  0
   33.1100   29.1510   47.3570 N   0  0  0  0  0  0  0  0  0  0  0  0
   34.1770   30.9040   46.8820 H   0  0  0  0  0  0  0  0  0  0  0  0
   35.7040   28.5290   50.0500 H   0  0  0  0  0  0  0  0  0  0  0  0
   36.1490   30.7670   48.6480 N   0  0  0  0  0  0  0  0  0  0  0  0
   36.4570   31.4080   49.7900 C   0  0  0  0  0  0  0  0  0  0  0  0
   37.4970   32.2400   49.5530 N   0  0  0  0  0  0  0  0  0  0  0  0
   37.8190   32.0970   48.2510 C   0  0  0  0  0  0  0  0  0  0  0  0
   38.7780   32.6690   47.4350 C   0  0  0  0  0  0  0  0  0  0  0  0
   38.8870   32.3430   46.1400 N   0  0  0  0  0  0  0  0  0  0  0  0
   38.0620   31.4370   45.5710 C   0  0  0  0  0  0  0  0  0  0  0  0
   37.1320   30.8820   46.3660 N   0  0  0  0  0  0  0  0  0  0  0  0
   36.9800   31.1740   47.6660 C   0  0  0  0  0  0  0  0  0  0  0  0
   35.9540   31.2770   50.7330 H   0  0  0  0  0  0  0  0  0  0  0  0
   38.1560   31.1800   44.5300 H   0  0  0  0  0  0  0  0  0  0  0  0
   39.6690   33.6260   47.9800 N   0  0  0  0  0  0  0  0  0  0  0  0
   39.4890   34.6550   47.9810 H   0  0  0  0  0  0  0  0  0  0  0  0
   40.5940   33.5320   48.4460 H   0  0  0  0  0  0  0  0  0  0  0  0
   31.8720   27.1300   47.8700 C   0  0  0  0  0  0  0  0  0  0  0  0
   30.7270   27.4660   48.8360 C   0  0  0  0  0  0  0  0  0  0  0  0
   30.6140   28.5740   48.8700 H   0  0  0  0  0  0  0  0  0  0  0  0
   29.7610   27.0740   48.4500 H   0  0  0  0  0  0  0  0  0  0  0  0
   30.9280   27.0890   49.8440 H   0  0  0  0  0  0  0  0  0  0  0  0
   31.2710   27.3850   46.4870 C   0  0  0  0  0  0  0  0  0  0  0  0
   30.8850   28.4480   46.4670 H   0  0  0  0  0  0  0  0  0  0  0  0
   30.3910   26.7710   46.2950 H   0  0  0  0  0  0  0  0  0  0  0  0
   31.9990   27.2450   45.6710 H   0  0  0  0  0  0  0  0  0  0  0  0
   32.2290   25.7000   47.9720 C   0  0  0  0  0  0  0  0  0  0  0  0
   31.2650   25.1350   48.1450 H   0  0  0  0  0  0  0  0  0  0  0  0
   32.7740   25.5670   48.9460 H   0  0  0  0  0  0  0  0  0  0  0  0
   32.8770   25.0710   46.8880 N   0  0  0  0  0  0  0  0  0  0  0  0
   34.1470   25.2820   46.4990 C   0  0  0  0  0  3  0  0  0  0  0  0
   34.7970   24.6850   45.4470 C   0  0  0  0  0  3  0  0  0  0  0  0
   34.0900   23.7610   44.6920 C   0  0  0  0  0  0  0  0  0  0  0  0
   34.6350   23.1930   43.7280 O   0  0  0  0  0  0  0  0  0  0  0  0
   32.8260   23.5180   45.0420 N   0  0  0  0  0  0  0  0  0  0  0  0
   32.2640   24.1470   46.0890 C   0  0  0  0  0  0  0  0  0  0  0  0
   31.0710   23.8060   46.2870 O   0  0  0  0  0  0  0  0  0  0  0  0
   32.3350   22.8260   44.4570 H   0  0  0  0  0  0  0  0  0  0  0  0
  1  2  1  0  0  0  0
  2  9  1  0  0  0  0
  2  3  2  0  0  0  0
  3  8  1  0  0  0  0
  4  3  1  0  0  0  0
  5  4  2  0  0  0  0
  6  1  2  0  0  0  0
  6  5  1  0  0  0  0
  7  1  1  0  0  0  0
  9 10  1  0  0  0  0
 10 18  1  0  0  0  0
 11 10  2  0  0  0  0
 12 11  1  0  0  0  0
 13 20  1  0  0  0  0
 13 12  2  0  0  0  0
 14 13  1  0  0  0  0
 15 14  2  0  0  0  0
 15 16  1  0  0  0  0
 16 17  2  0  0  0  0
 17 12  1  0  0  0  0
 17  9  1  0  0  0  0
 19 15  1  0  0  0  0
 20 21  1  0  0  0  0
 20 22  1  0  0  0  0
 23 32  1  0  0  0  0
 23  5  1  0  0  0  0
 23 24  1  0  0  0  0
 24 25  1  0  0  0  0
 24 27  1  0  0  0  0
 26 24  1  0  0  0  0
 28 23  1  0  0  0  0
 29 28  1  0  0  0  0
 30 28  1  0  0  0  0
 31 28  1  0  0  0  0
 32 33  1  0  0  0  0
 32 34  1  0  0  0  0
 35 32  1  0  0  0  0
 36 35  1  0  0  0  0
 37 36  2  0  0  0  0
 38 40  1  0  0  0  0
 38 37  1  0  0  0  0
 39 38  2  0  0  0  0
 40 41  1  0  0  0  0
 41 42  2  0  0  0  0
 41 35  1  0  0  0  0
 43 40  1  0  0  0  0
M  END
>  <minimizedAffinity>
-5.44950628

>  <minimizedRMSD>
1.63355494

$$$$
