
 OpenBabel03252513493D

 25 26  0  0  0  0  0  0  0  0999 V2000
   34.8900   29.8630   47.5810 C   0  0  0  0  0  0  0  0  0  0  0  0
   35.8780   30.3850   48.4980 C   0  0  0  0  0  0  0  0  0  0  0  0
   37.0600   30.9010   47.9660 C   0  0  0  0  0  0  0  0  0  0  0  0
   37.2050   30.8790   46.6170 N   0  0  0  0  0  0  0  0  0  0  0  0
   36.2690   30.3870   45.7870 C   0  0  0  0  0  0  0  0  0  0  0  0
   35.1370   29.8910   46.2670 N   0  0  0  0  0  0  0  0  0  0  0  0
   35.7410   30.3920   49.5530 H   0  0  0  0  0  0  0  0  0  0  0  0
   36.6080   30.4480   44.3440 C   0  0  0  0  0  0  0  0  0  0  0  0
   37.9320   30.8670   44.1700 F   0  0  0  0  0  0  0  0  0  0  0  0
   36.5350   29.2030   43.7880 F   0  0  0  0  0  0  0  0  0  0  0  0
   35.7460   31.2740   43.6340 F   0  0  0  0  0  0  0  0  0  0  0  0
   38.0830   31.4380   48.8470 C   0  0  0  0  0  0  0  0  0  0  0  0
   38.3730   30.8040   49.8980 O   0  0  0  0  0  0  0  0  0  0  0  0
   40.4610   34.5920   46.6460 H   0  0  0  0  0  0  0  0  0  0  0  0
   39.9470   34.1510   47.4630 N   0  0  0  0  0  0  0  0  0  0  0  0
   39.3630   32.9440   47.3890 N   0  0  0  0  0  0  0  0  0  0  0  0
   38.7970   32.6680   48.5850 C   0  0  0  0  0  0  0  0  0  0  0  0
   39.0490   33.7470   49.4080 C   0  0  0  0  0  0  0  0  0  0  0  0
   39.7780   34.6820   48.6890 C   0  0  0  0  0  0  0  0  0  0  0  0
   40.1370   35.6460   49.0460 H   0  0  0  0  0  0  0  0  0  0  0  0
   33.7280   29.3570   48.1130 O   0  0  0  0  0  0  0  0  0  0  0  0
   33.6580   28.5950   49.2710 C   0  0  0  0  0  0  0  0  0  0  0  0
   34.6500   27.6350   49.3850 F   0  0  0  0  0  0  0  0  0  0  0  0
   33.6030   29.3220   50.4420 F   0  0  0  0  0  0  0  0  0  0  0  0
   32.4350   27.8970   49.1900 F   0  0  0  0  0  0  0  0  0  0  0  0
  1 21  1  0  0  0  0
  1  2  1  0  0  0  0
  2  7  1  0  0  0  0
  3  2  2  0  0  0  0
  3 12  1  0  0  0  0
  4  3  1  0  0  0  0
  5  6  1  0  0  0  0
  5  4  2  0  0  0  0
  6  1  2  0  0  0  0
  8  5  1  0  0  0  0
  9  8  1  0  0  0  0
 10  8  1  0  0  0  0
 11  8  1  0  0  0  0
 12 13  2  0  0  0  0
 14 15  1  0  0  0  0
 15 19  1  0  0  0  0
 16 15  1  0  0  0  0
 16 17  2  0  0  0  0
 17 12  1  0  0  0  0
 17 18  1  0  0  0  0
 19 20  1  0  0  0  0
 19 18  2  0  0  0  0
 21 22  1  0  0  0  0
 22 23  1  0  0  0  0
 22 24  1  0  0  0  0
 25 22  1  0  0  0  0
M  END
>  <minimizedAffinity>
-5.68533659

>  <minimizedRMSD>
2.82132697

$$$$
