
 OpenBabel03252512073D

 39 41  0  0  0  0  0  0  0  0999 V2000
   37.0960   30.7010   50.3390 C   0  0  0  0  0  0  0  0  0  0  0  0
   36.9830   30.8250   51.4550 H   0  0  0  0  0  0  0  0  0  0  0  0
   38.0030   30.0790   50.2030 H   0  0  0  0  0  0  0  0  0  0  0  0
   35.9060   28.6500   49.7140 C   0  0  0  0  0  0  0  0  0  0  0  0
   35.9620   30.0500   49.8070 C   0  0  0  0  0  0  0  0  0  0  0  0
   34.8750   30.7460   49.3430 C   0  0  0  0  0  0  0  0  0  0  0  0
   33.8060   30.0920   48.8180 N   0  0  0  0  0  0  0  0  0  0  0  0
   33.7750   28.7600   48.7380 C   0  0  0  0  0  0  0  0  0  0  0  0
   34.8040   28.0810   49.1780 N   0  0  0  0  0  0  0  0  0  0  0  0
   36.7150   28.0110   50.0550 H   0  0  0  0  0  0  0  0  0  0  0  0
   34.7490   31.8120   49.3400 H   0  0  0  0  0  0  0  0  0  0  0  0
   32.6190   28.0580   48.1720 C   0  0  0  0  0  0  0  0  0  0  0  0
   32.3390   28.1350   46.9550 O   0  0  0  0  0  0  0  0  0  0  0  0
   31.7950   27.2800   48.9710 O   0  0  0  0  0  0  0  0  0  0  0  0
   30.4290   27.4230   48.9880 C   0  0  0  0  0  0  0  0  0  0  0  0
   29.5400   26.9030   48.0450 C   0  0  0  0  0  0  0  0  0  0  0  0
   28.1920   27.1470   48.2210 C   0  0  0  0  0  0  0  0  0  0  0  0
   27.7110   27.8570   49.2560 N   0  0  0  0  0  0  0  0  0  0  0  0
   28.5920   28.3450   50.1470 C   0  0  0  0  0  0  0  0  0  0  0  0
   28.2410   28.9180   50.9850 H   0  0  0  0  0  0  0  0  0  0  0  0
   29.9090   28.1230   49.9980 N   0  0  0  0  0  0  0  0  0  0  0  0
   37.3410   32.0190   49.7210 C   0  0  0  0  0  0  0  0  0  0  0  0
   38.1060   32.5400   50.3810 H   0  0  0  0  0  0  0  0  0  0  0  0
   36.5120   32.7190   49.6570 H   0  0  0  0  0  0  0  0  0  0  0  0
   38.0350   31.8000   48.4310 C   0  0  0  0  0  0  0  0  0  0  0  0
   37.9380   30.6090   47.8030 C   0  0  0  0  0  0  0  0  0  0  0  0
   38.6330   30.4000   46.6100 C   0  0  0  0  0  0  0  0  0  0  0  0
   39.3870   31.4220   46.1250 N   0  0  0  0  0  0  0  0  0  0  0  0
   39.4650   32.5810   46.7590 C   0  0  0  0  0  0  0  0  0  0  0  0
   38.8060   32.8050   47.9090 N   0  0  0  0  0  0  0  0  0  0  0  0
   37.4470   29.6830   47.9440 H   0  0  0  0  0  0  0  0  0  0  0  0
   38.6990   29.5380   45.9520 H   0  0  0  0  0  0  0  0  0  0  0  0
   40.2740   33.6920   46.2060 C   0  0  0  0  0  0  0  0  0  0  0  0
   41.3290   33.6630   46.5070 H   0  0  0  0  0  0  0  0  0  0  0  0
   39.8760   34.6840   46.5610 H   0  0  0  0  0  0  0  0  0  0  0  0
   40.1290   33.7260   44.6680 C   0  0  0  0  0  0  0  0  0  0  0  0
   41.1570   33.7660   44.2340 H   0  0  0  0  0  0  0  0  0  0  0  0
   39.5320   34.5800   44.3300 H   0  0  0  0  0  0  0  0  0  0  0  0
   39.7080   32.7420   44.3530 H   0  0  0  0  0  0  0  0  0  0  0  0
  1  2  1  0  0  0  0
  3  1  1  0  0  0  0
  4  5  1  0  0  0  0
  4 10  1  0  0  0  0
  5  1  1  0  0  0  0
  6  5  2  0  0  0  0
  7  6  1  0  0  0  0
  8  7  2  0  0  0  0
  8  9  1  0  0  0  0
  9  4  2  0  0  0  0
 11  6  1  0  0  0  0
 12  8  1  0  0  0  0
 12 14  1  0  0  0  0
 13 12  2  0  0  0  0
 14 15  1  0  0  0  0
 15 21  1  0  0  0  0
 16 17  1  0  0  0  0
 16 15  2  0  0  0  0
 17 18  2  0  0  0  0
 18 19  1  0  0  0  0
 19 20  1  0  0  0  0
 21 19  2  0  0  0  0
 22  1  1  0  0  0  0
 22 23  1  0  0  0  0
 24 22  1  0  0  0  0
 25 22  1  0  0  0  0
 26 31  1  0  0  0  0
 26 25  2  0  0  0  0
 27 26  1  0  0  0  0
 28 27  2  0  0  0  0
 28 29  1  0  0  0  0
 29 30  2  0  0  0  0
 30 25  1  0  0  0  0
 32 27  1  0  0  0  0
 33 34  1  0  0  0  0
 33 35  1  0  0  0  0
 33 29  1  0  0  0  0
 36 33  1  0  0  0  0
 37 36  1  0  0  0  0
 38 36  1  0  0  0  0
 39 36  1  0  0  0  0
M  END
>  <minimizedAffinity>
-5.60995865

>  <minimizedRMSD>
1.13087606

$$$$
