
 OpenBabel03252513093D

 28 30  0  0  0  0  0  0  0  0999 V2000
   34.5960   30.0790   47.7410 C   0  0  0  0  0  0  0  0  0  0  0  0
   34.4560   30.0120   49.1330 C   0  0  0  0  0  0  0  0  0  0  0  0
   35.4800   30.1830   50.0290 C   0  0  0  0  0  0  0  0  0  0  0  0
   36.7500   30.4410   49.5800 C   0  0  0  0  0  0  0  0  0  0  0  0
   36.9560   30.5210   48.2190 C   0  0  0  0  0  0  0  0  0  0  0  0
   38.2470   30.7860   47.8130 C   0  0  0  0  0  0  0  0  0  0  0  0
   38.5440   30.8880   46.4830 C   0  0  0  0  0  0  0  0  0  0  0  0
   37.5000   30.7110   45.5800 C   0  0  0  0  0  0  0  0  0  0  0  0
   36.2350   30.4480   46.0490 C   0  0  0  0  0  0  0  0  0  0  0  0
   35.8960   30.3420   47.3650 C   0  0  0  0  0  0  0  0  0  0  0  0
   33.4560   29.8160   49.5280 H   0  0  0  0  0  0  0  0  0  0  0  0
   35.2630   30.1110   51.0950 H   0  0  0  0  0  0  0  0  0  0  0  0
   39.0940   30.9370   48.4620 H   0  0  0  0  0  0  0  0  0  0  0  0
   39.5260   31.0890   46.1010 H   0  0  0  0  0  0  0  0  0  0  0  0
   37.7040   30.7820   44.5240 H   0  0  0  0  0  0  0  0  0  0  0  0
   35.4510   30.3110   45.2900 H   0  0  0  0  0  0  0  0  0  0  0  0
   32.3150   28.1800   45.7330 C   0  0  0  0  0  0  0  0  0  0  0  0
   31.4890   29.0690   45.0690 C   0  0  0  0  0  0  0  0  0  0  0  0
   31.7230   30.4250   45.3190 C   0  0  0  0  0  0  0  0  0  0  0  0
   32.7110   30.7190   46.1660 N   0  0  0  0  0  0  0  0  0  0  0  0
   33.5110   29.9020   46.8130 C   0  0  0  0  0  0  0  0  0  0  0  0
   33.2610   28.6160   46.5510 N   0  0  0  0  0  0  0  0  0  0  0  0
   32.0970   27.1340   45.5100 H   0  0  0  0  0  0  0  0  0  0  0  0
   30.6850   28.8440   44.3800 H   0  0  0  0  0  0  0  0  0  0  0  0
   31.1740   31.2450   44.8810 H   0  0  0  0  0  0  0  0  0  0  0  0
   37.8270   30.6140   50.5750 C   0  0  0  0  0  0  0  0  0  0  0  0
   37.4610   29.9570   51.9090 C   0  0  0  0  0  0  0  0  0  0  0  0
   36.8650   30.6470   52.5360 H   0  0  0  0  0  0  0  0  0  0  0  0
  1  2  1  0  0  0  0
  2 11  1  0  0  0  0
  2  3  2  0  0  0  0
  3 12  1  0  0  0  0
  4  3  1  0  0  0  0
  4 26  1  0  0  0  0
  5  4  2  0  0  0  0
  6  5  1  0  0  0  0
  6 13  1  0  0  0  0
  7  6  2  0  0  0  0
  8  9  2  0  0  0  0
  8  7  1  0  0  0  0
  9 10  1  0  0  0  0
 10  1  2  0  0  0  0
 10  5  1  0  0  0  0
 14  7  1  0  0  0  0
 15  8  1  0  0  0  0
 16  9  1  0  0  0  0
 17 22  1  0  0  0  0
 18 19  1  0  0  0  0
 18 17  2  0  0  0  0
 19 20  2  0  0  0  0
 20 21  1  0  0  0  0
 21  1  1  0  0  0  0
 22 21  2  0  0  0  0
 23 17  1  0  0  0  0
 24 18  1  0  0  0  0
 25 19  1  0  0  0  0
 26 27  1  0  0  0  0
 27 28  1  0  0  0  0
M  END
>  <minimizedAffinity>
-5.89233732

>  <minimizedRMSD>
2.00876045

$$$$
