
 OpenBabel03252514063D

 25 27  0  0  0  0  0  0  0  0999 V2000
   37.6260   31.0720   47.5940 N   0  0  0  0  0  0  0  0  0  0  0  0
   38.0970   32.1290   48.2610 C   0  0  0  0  0  0  0  0  0  0  0  0
   39.1570   32.6330   47.5750 N   0  0  0  0  0  0  0  0  0  0  0  0
   39.3220   31.8680   46.4850 C   0  0  0  0  0  0  0  0  0  0  0  0
   40.2200   31.9000   45.4440 C   0  0  0  0  0  0  0  0  0  0  0  0
   40.1570   30.9810   44.4490 N   0  0  0  0  0  0  0  0  0  0  0  0
   39.2150   30.0010   44.4380 C   0  0  0  0  0  0  0  0  0  0  0  0
   38.3540   30.0010   45.4720 N   0  0  0  0  0  0  0  0  0  0  0  0
   38.3710   30.8830   46.4780 C   0  0  0  0  0  0  0  0  0  0  0  0
   41.2210   32.8740   45.3770 N   0  0  0  0  0  0  0  0  0  0  0  0
   37.6990   32.5230   49.1970 H   0  0  0  0  0  0  0  0  0  0  0  0
   39.1420   29.2550   43.6560 H   0  0  0  0  0  0  0  0  0  0  0  0
   42.1510   32.5090   45.7350 H   0  0  0  0  0  0  0  0  0  0  0  0
   40.8060   33.7590   44.9770 H   0  0  0  0  0  0  0  0  0  0  0  0
   35.3250   30.3420   47.2460 C   0  0  0  0  0  0  0  0  0  0  0  0
   36.5130   30.2820   48.0080 C   0  0  0  0  0  0  0  0  0  0  0  0
   36.5030   29.4450   49.1160 C   0  0  0  0  0  0  0  0  0  0  0  0
   35.3790   28.7320   49.4190 N   0  0  0  0  0  0  0  0  0  0  0  0
   34.2630   28.8250   48.6530 C   0  0  0  0  0  0  0  0  0  0  0  0
   34.2410   29.6220   47.5800 N   0  0  0  0  0  0  0  0  0  0  0  0
   35.2180   30.9570   46.3620 H   0  0  0  0  0  0  0  0  0  0  0  0
   37.4090   29.4020   49.6950 H   0  0  0  0  0  0  0  0  0  0  0  0
   33.0360   28.0390   48.9940 C   0  0  0  0  0  2  0  0  0  0  0  0
   32.1550   27.8470   47.7990 C   0  0  0  0  0  2  0  0  0  0  0  0
   32.1020   26.7680   47.5530 H   0  0  0  0  0  0  0  0  0  0  0  0
  1 16  1  0  0  0  0
  1  2  1  0  0  0  0
  2 11  1  0  0  0  0
  3  2  2  0  0  0  0
  4  3  1  0  0  0  0
  5  4  2  0  0  0  0
  6  5  1  0  0  0  0
  7  6  2  0  0  0  0
  7  8  1  0  0  0  0
  8  9  2  0  0  0  0
  9  4  1  0  0  0  0
  9  1  1  0  0  0  0
 10  5  1  0  0  0  0
 10 13  1  0  0  0  0
 12  7  1  0  0  0  0
 14 10  1  0  0  0  0
 15 20  2  0  0  0  0
 15 16  1  0  0  0  0
 16 17  2  0  0  0  0
 17 18  1  0  0  0  0
 17 22  1  0  0  0  0
 19 23  1  0  0  0  0
 19 18  2  0  0  0  0
 20 19  1  0  0  0  0
 21 15  1  0  0  0  0
 24 23  1  0  0  0  0
 25 24  1  0  0  0  0
M  END
>  <minimizedAffinity>
-4.75842237

>  <minimizedRMSD>
2.39783764

$$$$
