
 OpenBabel03252513523D

 39 41  0  0  1  0  0  0  0  0999 V2000
   36.9170   30.5360   45.9730 C   0  0  0  0  0  0  0  0  0  0  0  0
   37.8520   30.3550   46.7810 O   0  0  0  0  0  0  0  0  0  0  0  0
   37.2810   31.2810   44.8060 N   0  0  0  0  0  0  0  0  0  0  0  0
   36.8030   30.7520   43.5450 C   0  0  0  0  0  0  0  0  0  0  0  0
   37.5710   31.3240   42.3770 C   0  0  0  0  0  0  0  0  0  0  0  0
   38.8620   31.5570   42.8060 O   0  0  0  0  0  0  0  0  0  0  0  0
   38.8230   32.7420   43.5870 C   0  0  0  0  0  0  0  0  0  0  0  0
   38.0850   32.5040   44.8620 C   0  0  2  0  0  0  0  0  0  0  0  0
   35.7320   31.0670   43.4420 H   0  0  0  0  0  0  0  0  0  0  0  0
   36.8050   29.6440   43.5510 H   0  0  0  0  0  0  0  0  0  0  0  0
   37.6270   30.4960   41.6110 H   0  0  0  0  0  0  0  0  0  0  0  0
   37.0950   32.2070   41.9260 H   0  0  0  0  0  0  0  0  0  0  0  0
   39.8110   33.1860   43.7000 H   0  0  0  0  0  0  0  0  0  0  0  0
   38.2200   33.4620   42.9640 H   0  0  0  0  0  0  0  0  0  0  0  0
   37.4540   33.3840   45.0830 H   0  0  0  0  0  0  0  0  0  0  0  0
   33.9120   29.1950   47.8040 C   0  0  0  0  0  0  0  0  0  0  0  0
   35.2190   29.7140   47.5580 C   0  0  0  0  0  0  0  0  0  0  0  0
   35.5950   30.0080   46.2550 C   0  0  0  0  0  0  0  0  0  0  0  0
   34.6630   29.7750   45.2770 N   0  0  0  0  0  0  0  0  0  0  0  0
   33.4530   29.2900   45.5420 C   0  0  0  0  0  0  0  0  0  0  0  0
   33.0820   29.0060   46.7770 N   0  0  0  0  0  0  0  0  0  0  0  0
   35.9370   29.8920   48.3360 H   0  0  0  0  0  0  0  0  0  0  0  0
   32.5790   29.1030   44.3500 C   0  0  0  0  0  0  0  0  0  0  0  0
   32.8230   30.1030   43.4090 F   0  0  0  0  0  0  0  0  0  0  0  0
   32.9050   27.9210   43.7100 F   0  0  0  0  0  0  0  0  0  0  0  0
   31.2350   29.0170   44.6670 F   0  0  0  0  0  0  0  0  0  0  0  0
   33.5600   28.9100   49.1130 O   0  0  0  0  0  0  0  0  0  0  0  0
   34.0470   29.5930   50.2260 C   0  0  0  0  0  0  0  0  0  0  0  0
   35.0390   28.8880   50.8950 F   0  0  0  0  0  0  0  0  0  0  0  0
   34.4370   30.8750   49.9840 F   0  0  0  0  0  0  0  0  0  0  0  0
   32.9350   29.6650   51.0960 F   0  0  0  0  0  0  0  0  0  0  0  0
   39.0610   32.2300   45.8340 O   0  0  0  0  0  0  0  0  0  0  0  0
   39.2200   32.8800   47.0300 C   0  0  0  0  0  0  0  0  0  0  0  0
   38.5830   32.6250   48.2030 C   0  0  0  0  0  0  0  0  0  0  0  0
   38.8040   33.3310   49.3690 C   0  0  0  0  0  0  0  0  0  0  0  0
   39.7130   34.3310   49.3110 N   0  0  0  0  0  0  0  0  0  0  0  0
   40.3620   34.6030   48.1490 C   0  0  0  0  0  0  0  0  0  0  0  0
   41.0720   35.4280   48.2170 H   0  0  0  0  0  0  0  0  0  0  0  0
   40.1240   33.8910   47.0200 N   0  0  0  0  0  0  0  0  0  0  0  0
  1 18  1  0  0  0  0
  1  2  2  0  0  0  0
  3  8  1  0  0  0  0
  3  1  1  0  0  0  0
  4 10  1  0  0  0  0
  4  3  1  0  0  0  0
  5  6  1  0  0  0  0
  5  4  1  0  0  0  0
  6  7  1  0  0  0  0
  7 13  1  0  0  0  0
  7  8  1  0  0  0  0
  8 15  1  1  0  0  0
  8 32  1  0  0  0  0
  9  4  1  0  0  0  0
 11  5  1  0  0  0  0
 12  5  1  0  0  0  0
 14  7  1  0  0  0  0
 16 27  1  0  0  0  0
 17 16  1  0  0  0  0
 17 22  1  0  0  0  0
 18 17  2  0  0  0  0
 19 20  2  0  0  0  0
 19 18  1  0  0  0  0
 20 21  1  0  0  0  0
 21 16  2  0  0  0  0
 23 26  1  0  0  0  0
 23 20  1  0  0  0  0
 24 23  1  0  0  0  0
 25 23  1  0  0  0  0
 27 28  1  0  0  0  0
 28 29  1  0  0  0  0
 28 31  1  0  0  0  0
 30 28  1  0  0  0  0
 32 33  1  0  0  0  0
 33 34  1  0  0  0  0
 34 35  2  0  0  0  0
 36 35  1  0  0  0  0
 37 38  1  0  0  0  0
 37 36  2  0  0  0  0
 39 33  2  0  0  0  0
 39 37  1  0  0  0  0
M  END
>  <minimizedAffinity>
-5.43226385

>  <minimizedRMSD>
1.99544668

$$$$
