
     RDKit          3D

 29 31  0  0  0  0  0  0  0  0999 V2000
   37.8041   31.8225   49.0688 N   0  0  0  0  0  0  0  0  0  0  0  0
   38.1988   33.0332   49.4743 C   0  0  0  0  0  0  0  0  0  0  0  0
   38.9487   33.5930   48.4878 N   0  0  0  0  0  0  0  0  0  0  0  0
   39.0034   32.7083   47.4816 C   0  0  0  0  0  0  0  0  0  0  0  0
   39.6093   32.7275   46.2473 C   0  0  0  0  0  0  0  0  0  0  0  0
   39.4988   31.6686   45.4067 N   0  0  0  0  0  0  0  0  0  0  0  0
   38.7932   30.5573   45.7448 C   0  0  0  0  0  0  0  0  0  0  0  0
   38.2147   30.5742   46.9590 N   0  0  0  0  0  0  0  0  0  0  0  0
   38.2915   31.5901   47.8258 C   0  0  0  0  0  0  0  0  0  0  0  0
   35.6844   30.6627   49.3947 C   0  0  0  0  0  0  0  0  0  0  0  0
   36.9979   30.9325   49.8384 C   0  0  0  0  0  0  0  0  0  0  0  0
   37.4059   30.3004   51.0046 C   0  0  0  0  0  0  0  0  0  0  0  0
   36.5481   29.4655   51.6608 N   0  0  0  0  0  0  0  0  0  0  0  0
   35.2955   29.2395   51.1925 C   0  0  0  0  0  0  0  0  0  0  0  0
   34.8723   29.8330   50.0723 N   0  0  0  0  0  0  0  0  0  0  0  0
   40.3541   33.8307   45.8198 N   0  0  0  0  0  0  0  0  0  0  0  0
   37.9605   33.4947   50.4332 H   0  0  0  0  0  0  0  0  0  0  0  0
   38.6892   29.6984   45.0928 H   0  0  0  0  0  0  0  0  0  0  0  0
   35.2594   31.0982   48.5003 H   0  0  0  0  0  0  0  0  0  0  0  0
   38.4065   30.5082   51.3395 H   0  0  0  0  0  0  0  0  0  0  0  0
   41.3948   33.6845   45.9628 H   0  0  0  0  0  0  0  0  0  0  0  0
   39.6903   34.5628   45.4483 H   0  0  0  0  0  0  0  0  0  0  0  0
   34.3630   28.3221   51.9197 C   0  0  0  0  0  0  0  0  0  0  0  0
   35.1060   27.2425   52.6446 C   0  0  0  0  0  0  0  0  0  0  0  0
   34.9521   27.3606   53.7348 H   0  0  0  0  0  0  0  0  0  0  0  0
   33.7043   27.8547   51.1537 H   0  0  0  0  0  0  0  0  0  0  0  0
   33.7228   28.9010   52.6375 H   0  0  0  0  0  0  0  0  0  0  0  0
   36.1983   27.2777   52.4804 H   0  0  0  0  0  0  0  0  0  0  0  0
   34.7536   26.2193   52.3648 H   0  0  0  0  0  0  0  0  0  0  0  0
  1  2  1  0
  1 11  1  0
  3  2  2  0
  4  9  2  0
  4  3  1  0
  5  4  1  0
  6  7  1  0
  6  5  2  0
  7  8  2  0
  8  9  1  0
  9  1  1  0
 10 11  2  0
 10 15  1  0
 11 12  1  0
 12 13  2  0
 14 13  1  0
 15 14  2  0
 16  5  1  0
  2 17  1  0
  7 18  1  0
 10 19  1  0
 12 20  1  0
 16 21  1  0
 16 22  1  0
 23 24  1  0
 24 25  1  0
 23 26  1  0
 23 27  1  0
 24 28  1  0
 24 29  1  0
 14 23  1  0
M  ISO  5  17  14  18  14  19  14  20  14  25   8
M  END
>  <DihAtoms>  (1) 
12,13,22,23

>  <DihDeg>  (1) 
179.99985906955808

$$$$
