
 OpenBabel03252514063D

 25 27  0  0  0  0  0  0  0  0999 V2000
   37.6330   31.0790   47.5920 N   0  0  0  0  0  0  0  0  0  0  0  0
   38.1060   32.1350   48.2600 C   0  0  0  0  0  0  0  0  0  0  0  0
   39.1670   32.6380   47.5740 N   0  0  0  0  0  0  0  0  0  0  0  0
   39.3300   31.8740   46.4840 C   0  0  0  0  0  0  0  0  0  0  0  0
   40.2280   31.9050   45.4420 C   0  0  0  0  0  0  0  0  0  0  0  0
   40.1630   30.9870   44.4470 N   0  0  0  0  0  0  0  0  0  0  0  0
   39.2190   30.0090   44.4350 C   0  0  0  0  0  0  0  0  0  0  0  0
   38.3590   30.0090   45.4690 N   0  0  0  0  0  0  0  0  0  0  0  0
   38.3780   30.8900   46.4760 C   0  0  0  0  0  0  0  0  0  0  0  0
   41.2310   32.8770   45.3760 N   0  0  0  0  0  0  0  0  0  0  0  0
   37.7100   32.5290   49.1970 H   0  0  0  0  0  0  0  0  0  0  0  0
   39.1450   29.2630   43.6530 H   0  0  0  0  0  0  0  0  0  0  0  0
   42.1600   32.5110   45.7320 H   0  0  0  0  0  0  0  0  0  0  0  0
   40.8160   33.7630   44.9770 H   0  0  0  0  0  0  0  0  0  0  0  0
   35.3320   30.3520   47.2440 C   0  0  0  0  0  0  0  0  0  0  0  0
   36.5200   30.2900   48.0060 C   0  0  0  0  0  0  0  0  0  0  0  0
   36.5080   29.4530   49.1140 C   0  0  0  0  0  0  0  0  0  0  0  0
   35.3830   28.7420   49.4170 N   0  0  0  0  0  0  0  0  0  0  0  0
   34.2670   28.8360   48.6510 C   0  0  0  0  0  0  0  0  0  0  0  0
   34.2460   29.6330   47.5780 N   0  0  0  0  0  0  0  0  0  0  0  0
   35.2250   30.9680   46.3610 H   0  0  0  0  0  0  0  0  0  0  0  0
   37.4140   29.4090   49.6930 H   0  0  0  0  0  0  0  0  0  0  0  0
   33.0390   28.0520   48.9920 C   0  0  0  0  0  2  0  0  0  0  0  0
   32.7330   27.0250   47.9460 C   0  0  0  0  0  2  0  0  0  0  0  0
   32.8280   26.0140   48.3850 H   0  0  0  0  0  0  0  0  0  0  0  0
  1 16  1  0  0  0  0
  1  2  1  0  0  0  0
  2 11  1  0  0  0  0
  3  2  2  0  0  0  0
  4  3  1  0  0  0  0
  5  4  2  0  0  0  0
  6  5  1  0  0  0  0
  7  6  2  0  0  0  0
  7  8  1  0  0  0  0
  8  9  2  0  0  0  0
  9  4  1  0  0  0  0
  9  1  1  0  0  0  0
 10  5  1  0  0  0  0
 10 13  1  0  0  0  0
 12  7  1  0  0  0  0
 14 10  1  0  0  0  0
 15 20  2  0  0  0  0
 15 16  1  0  0  0  0
 16 17  2  0  0  0  0
 17 18  1  0  0  0  0
 17 22  1  0  0  0  0
 19 23  1  0  0  0  0
 19 18  2  0  0  0  0
 20 19  1  0  0  0  0
 21 15  1  0  0  0  0
 24 25  1  0  0  0  0
 24 23  1  0  0  0  0
M  END
>  <minimizedAffinity>
-4.80745697

>  <minimizedRMSD>
2.19963241

$$$$
