
 OpenBabel03252514073D

 39 42  0  0  0  0  0  0  0  0999 V2000
   34.0640   29.9030   47.5260 C   0  0  0  0  0  0  0  0  0  0  0  0
   35.0550   29.6670   48.4960 C   0  0  0  0  0  0  0  0  0  0  0  0
   34.9630   28.4650   49.1910 C   0  0  0  0  0  0  0  0  0  0  0  0
   33.9570   27.6040   48.9120 N   0  0  0  0  0  0  0  0  0  0  0  0
   33.0270   27.8470   47.9890 C   0  0  0  0  0  0  0  0  0  0  0  0
   33.0910   29.0050   47.2990 N   0  0  0  0  0  0  0  0  0  0  0  0
   34.1030   30.8320   46.9630 H   0  0  0  0  0  0  0  0  0  0  0  0
   35.7180   28.2740   49.9370 H   0  0  0  0  0  0  0  0  0  0  0  0
   36.0520   30.6510   48.6890 N   0  0  0  0  0  0  0  0  0  0  0  0
   36.2710   31.2850   49.8770 C   0  0  0  0  0  0  0  0  0  0  0  0
   37.2880   32.1630   49.7260 N   0  0  0  0  0  0  0  0  0  0  0  0
   37.6860   32.0630   48.4510 C   0  0  0  0  0  0  0  0  0  0  0  0
   38.6680   32.6910   47.7070 C   0  0  0  0  0  0  0  0  0  0  0  0
   38.8630   32.3980   46.4170 N   0  0  0  0  0  0  0  0  0  0  0  0
   38.1050   31.4650   45.7650 C   0  0  0  0  0  0  0  0  0  0  0  0
   37.1520   30.8590   46.4980 N   0  0  0  0  0  0  0  0  0  0  0  0
   36.9210   31.1190   47.7880 C   0  0  0  0  0  0  0  0  0  0  0  0
   35.7830   31.1900   50.8400 H   0  0  0  0  0  0  0  0  0  0  0  0
   38.3300   31.2950   44.7360 H   0  0  0  0  0  0  0  0  0  0  0  0
   39.4840   33.6650   48.3270 N   0  0  0  0  0  0  0  0  0  0  0  0
   39.1650   34.3860   49.0130 H   0  0  0  0  0  0  0  0  0  0  0  0
   40.5150   33.7480   48.1420 H   0  0  0  0  0  0  0  0  0  0  0  0
   31.9190   26.9250   47.6660 C   0  0  0  0  0  0  0  0  0  0  0  0
   30.8120   27.0670   48.6950 C   0  0  0  0  0  0  0  0  0  0  0  0
   29.9600   27.6700   48.3400 H   0  0  0  0  0  0  0  0  0  0  0  0
   31.2740   27.4840   49.6160 H   0  0  0  0  0  0  0  0  0  0  0  0
   30.4700   26.0330   48.9720 H   0  0  0  0  0  0  0  0  0  0  0  0
   31.2760   27.2560   46.3290 C   0  0  0  0  0  0  0  0  0  0  0  0
   32.0000   27.2670   45.4910 H   0  0  0  0  0  0  0  0  0  0  0  0
   30.8670   28.3000   46.3670 H   0  0  0  0  0  0  0  0  0  0  0  0
   30.4440   26.5640   46.1790 H   0  0  0  0  0  0  0  0  0  0  0  0
   32.3790   25.4860   47.5810 C   0  0  0  0  0  0  0  0  0  0  0  0
   31.5830   24.7730   47.8250 H   0  0  0  0  0  0  0  0  0  0  0  0
   33.1910   25.3770   48.3440 H   0  0  0  0  0  0  0  0  0  0  0  0
   33.0070   25.2100   46.3060 N   0  0  0  0  0  0  0  0  0  0  0  0
   32.5580   24.8830   45.0860 C   0  0  0  0  0  3  0  0  0  0  0  0
   33.6290   24.7320   44.2140 C   0  0  0  0  0  3  0  0  0  0  0  0
   34.7490   24.9780   44.9470 N   0  0  0  0  0  0  0  0  0  0  0  0
   34.3590   25.2610   46.1880 C   0  0  0  0  0  3  0  0  0  0  0  0
  1  2  1  0  0  0  0
  2  9  1  0  0  0  0
  2  3  2  0  0  0  0
  3  8  1  0  0  0  0
  4  3  1  0  0  0  0
  5  4  2  0  0  0  0
  6  1  2  0  0  0  0
  6  5  1  0  0  0  0
  7  1  1  0  0  0  0
  9 10  1  0  0  0  0
 10 18  1  0  0  0  0
 11 10  2  0  0  0  0
 12 11  1  0  0  0  0
 13 20  1  0  0  0  0
 13 12  2  0  0  0  0
 14 13  1  0  0  0  0
 15 14  2  0  0  0  0
 15 16  1  0  0  0  0
 16 17  2  0  0  0  0
 17 12  1  0  0  0  0
 17  9  1  0  0  0  0
 19 15  1  0  0  0  0
 20 21  1  0  0  0  0
 22 20  1  0  0  0  0
 23  5  1  0  0  0  0
 23 24  1  0  0  0  0
 24 27  1  0  0  0  0
 24 26  1  0  0  0  0
 25 24  1  0  0  0  0
 28 30  1  0  0  0  0
 28 23  1  0  0  0  0
 29 28  1  0  0  0  0
 31 28  1  0  0  0  0
 32 23  1  0  0  0  0
 32 33  1  0  0  0  0
 32 34  1  0  0  0  0
 35 32  1  0  0  0  0
 36 35  1  0  0  0  0
 37 38  1  0  0  0  0
 37 36  2  0  0  0  0
 38 39  2  0  0  0  0
 39 35  1  0  0  0  0
M  END
>  <minimizedAffinity>
-5.16281366

>  <minimizedRMSD>
1.09545541

$$$$
