REMARK  Name = 
REMARK  7 active torsions:
REMARK  status: ('A' for Active; 'I' for Inactive)
REMARK    1  A    between atoms: N_1  and  C_12
REMARK    2  A    between atoms: C_5  and  N_10
REMARK    3  A    between atoms: C_15  and  C_17
REMARK    4  A    between atoms: C_17  and  C_18
REMARK    5  A    between atoms: C_17  and  C_19
REMARK    6  A    between atoms: C_17  and  C_20
REMARK    7  A    between atoms: C_20  and  N_35
REMARK                            x       y       z     vdW  Elec       q    Type
REMARK                         _______ _______ _______ _____ _____    ______ ____
ROOT
ATOM      1  C   UNL     1      34.660  29.980  47.393  0.00  0.00    +0.000 A 
ATOM      2  C   UNL     1      35.529  29.890  48.497  0.00  0.00    +0.000 A 
ATOM      3  C   UNL     1      35.430  28.735  49.266  0.00  0.00    +0.000 A 
ATOM      4  N   UNL     1      34.532  27.779  48.930  0.00  0.00    +0.000 NA
ATOM      5  C   UNL     1      33.718  27.884  47.880  0.00  0.00    +0.000 A 
ATOM      6  N   UNL     1      33.791  28.994  47.116  0.00  0.00    +0.000 NA
ATOM      7  H   UNL     1      34.708  30.868  46.769  0.00  0.00    +0.000 HD
ATOM      8  H   UNL     1      36.091  28.656  50.114  0.00  0.00    +0.000 HD
ENDROOT
BRANCH   2   9
ATOM      9  N   UNL     1      36.420  30.961  48.737  0.00  0.00    +0.000 N 
ATOM     10  C   UNL     1      36.395  31.729  49.864  0.00  0.00    +0.000 A 
ATOM     11  N   UNL     1      37.371  32.661  49.783  0.00  0.00    +0.000 NA
ATOM     12  C   UNL     1      37.988  32.460  48.611  0.00  0.00    +0.000 A 
ATOM     13  C   UNL     1      39.045  33.080  47.972  0.00  0.00    +0.000 A 
ATOM     14  N   UNL     1      39.475  32.671  46.773  0.00  0.00    +0.000 NA
ATOM     15  C   UNL     1      38.895  31.621  46.117  0.00  0.00    +0.000 A 
ATOM     16  N   UNL     1      37.866  31.024  46.747  0.00  0.00    +0.000 NA
ATOM     17  C   UNL     1      37.403  31.398  47.944  0.00  0.00    +0.000 A 
ATOM     18  H   UNL     1      35.755  31.697  50.738  0.00  0.00    +0.000 HD
ATOM     19  H   UNL     1      39.303  31.364  45.165  0.00  0.00    +0.000 HD
BRANCH  13  20
ATOM     20  N   UNL     1      39.686  34.172  48.602  0.00  0.00    +0.000 N 
ATOM     21  H   UNL     1      39.213  34.934  49.139  0.00  0.00    +0.000 HD
ATOM     22  H   UNL     1      40.727  34.313  48.581  0.00  0.00    +0.000 HD
ENDBRANCH  13  20
ENDBRANCH   2   9
BRANCH   5  23
ATOM     23  C   UNL     1      32.730  26.857  47.492  0.00  0.00    +0.000 C 
BRANCH  23  24
ATOM     24  C   UNL     1      31.539  26.905  48.433  0.00  0.00    +0.000 C 
ATOM     25  H   UNL     1      30.663  27.420  48.003  0.00  0.00    +0.000 HD
ATOM     26  H   UNL     1      31.888  27.375  49.378  0.00  0.00    +0.000 HD
ATOM     27  H   UNL     1      31.275  25.846  48.703  0.00  0.00    +0.000 HD
ENDBRANCH  23  24
BRANCH  23  28
ATOM     28  C   UNL     1      32.162  27.110  46.105  0.00  0.00    +0.000 C 
ATOM     29  H   UNL     1      32.944  27.180  45.324  0.00  0.00    +0.000 HD
ATOM     30  H   UNL     1      31.655  28.110  46.093  0.00  0.00    +0.000 HD
ATOM     31  H   UNL     1      31.413  26.340  45.906  0.00  0.00    +0.000 HD
ENDBRANCH  23  28
BRANCH  23  32
ATOM     32  C   UNL     1      33.328  25.468  47.469  0.00  0.00    +0.000 C 
ATOM     33  H   UNL     1      32.575  24.686  47.316  0.00  0.00    +0.000 HD
ATOM     34  H   UNL     1      33.790  25.315  48.478  0.00  0.00    +0.000 HD
BRANCH  32  35
ATOM     35  N   UNL     1      34.423  25.383  46.526  0.00  0.00    +0.000 N 
ATOM     36  C   UNL     1      35.174  26.278  45.871  0.00  0.00    +0.000 A 
ATOM     37  C   UNL     1      36.104  25.621  45.074  0.00  0.00    +0.000 A 
ATOM     38  N   UNL     1      35.892  24.290  45.267  0.00  0.00    +0.000 NA
ATOM     39  C   UNL     1      34.889  24.169  46.133  0.00  0.00    +0.000 A 
ENDBRANCH  32  35
ENDBRANCH  23  32
ENDBRANCH   5  23
TORSDOF 7
