
 OpenBabel03252513563D

 23 24  0  0  1  0  0  0  0  0999 V2000
   38.1410   30.6740   47.7160 C   0  0  0  0  0  0  0  0  0  0  0  0
   38.3750   29.6070   47.8260 H   0  0  0  0  0  0  0  0  0  0  0  0
   37.1100   30.7490   47.2620 H   0  0  0  0  0  0  0  0  0  0  0  0
   40.1160   33.3030   46.0680 C   0  0  0  0  0  0  0  0  0  0  0  0
   40.7530   32.6100   45.0180 C   0  0  0  0  0  0  0  0  0  0  0  0
   40.4900   31.2460   44.8990 C   0  0  0  0  0  0  0  0  0  0  0  0
   39.6400   30.6770   45.7980 N   0  0  0  0  0  0  0  0  0  0  0  0
   39.0470   31.3770   46.7910 C   0  0  0  0  0  0  0  0  0  0  0  0
   39.2860   32.6960   46.9270 N   0  0  0  0  0  0  0  0  0  0  0  0
   40.2450   34.3620   46.2550 H   0  0  0  0  0  0  0  0  0  0  0  0
   41.4030   33.1780   44.3780 H   0  0  0  0  0  0  0  0  0  0  0  0
   40.9680   30.7100   44.1080 H   0  0  0  0  0  0  0  0  0  0  0  0
   38.1040   31.4330   49.0040 C   0  0  2  0  0  0  0  0  0  0  0  0
   37.9200   30.7160   50.3000 C   0  0  0  0  0  0  0  0  0  0  0  0
   36.7670   31.4290   49.7040 C   0  0  2  0  0  0  0  0  0  0  0  0
   38.6630   32.3890   49.0370 H   0  0  0  0  0  0  0  0  0  0  0  0
   38.0070   29.6220   50.2760 H   0  0  0  0  0  0  0  0  0  0  0  0
   38.3640   31.2020   51.2090 H   0  0  0  0  0  0  0  0  0  0  0  0
   36.4390   32.3930   50.1500 H   0  0  0  0  0  0  0  0  0  0  0  0
   35.6530   30.5410   49.2460 C   0  0  0  0  0  0  0  0  0  0  0  0
   36.0950   29.2200   49.3770 F   0  0  0  0  0  0  0  0  0  0  0  0
   35.3600   30.7060   47.8980 F   0  0  0  0  0  0  0  0  0  0  0  0
   34.4960   30.6670   50.0060 F   0  0  0  0  0  0  0  0  0  0  0  0
  1  2  1  0  0  0  0
  1 13  1  0  0  0  0
  3  1  1  0  0  0  0
  4 10  1  0  0  0  0
  4  9  1  0  0  0  0
  5  4  2  0  0  0  0
  6  5  1  0  0  0  0
  6  7  2  0  0  0  0
  7  8  1  0  0  0  0
  8  9  2  0  0  0  0
  8  1  1  0  0  0  0
 11  5  1  0  0  0  0
 12  6  1  0  0  0  0
 13 16  1  1  0  0  0
 13 15  1  0  0  0  0
 13 14  1  0  0  0  0
 14 18  1  0  0  0  0
 15 19  1  1  0  0  0
 15 14  1  0  0  0  0
 17 14  1  0  0  0  0
 20 21  1  0  0  0  0
 20 15  1  0  0  0  0
 20 23  1  0  0  0  0
 22 20  1  0  0  0  0
M  END
>  <minimizedAffinity>
-5.37861252

>  <minimizedRMSD>
3.55168772

$$$$
