
 OpenBabel03252514063D

 26 28  0  0  0  0  0  0  0  0999 V2000
   36.4990   31.1030   48.7810 N   0  0  0  0  0  0  0  0  0  0  0  0
   36.5420   31.8920   49.8830 C   0  0  0  0  0  0  0  0  0  0  0  0
   37.5370   32.7970   49.7370 N   0  0  0  0  0  0  0  0  0  0  0  0
   38.1010   32.5620   48.5440 C   0  0  0  0  0  0  0  0  0  0  0  0
   39.1400   33.1370   47.8430 C   0  0  0  0  0  0  0  0  0  0  0  0
   39.5060   32.6840   46.6260 N   0  0  0  0  0  0  0  0  0  0  0  0
   38.8760   31.6480   46.0340 C   0  0  0  0  0  0  0  0  0  0  0  0
   37.8640   31.0950   46.7280 N   0  0  0  0  0  0  0  0  0  0  0  0
   37.4610   31.5010   47.9310 C   0  0  0  0  0  0  0  0  0  0  0  0
   39.8450   34.2280   48.4030 N   0  0  0  0  0  0  0  0  0  0  0  0
   35.8880   31.8070   50.7340 H   0  0  0  0  0  0  0  0  0  0  0  0
   39.1920   31.3060   45.0550 H   0  0  0  0  0  0  0  0  0  0  0  0
   39.9730   35.1590   47.9290 H   0  0  0  0  0  0  0  0  0  0  0  0
   40.2750   34.1190   49.3540 H   0  0  0  0  0  0  0  0  0  0  0  0
   34.5470   30.2210   47.6420 C   0  0  0  0  0  0  0  0  0  0  0  0
   35.5720   30.0450   48.5990 C   0  0  0  0  0  0  0  0  0  0  0  0
   35.5840   28.8380   49.2880 C   0  0  0  0  0  0  0  0  0  0  0  0
   34.6280   27.9120   49.0080 N   0  0  0  0  0  0  0  0  0  0  0  0
   33.6710   28.1050   48.0970 C   0  0  0  0  0  0  0  0  0  0  0  0
   33.6290   29.2690   47.4080 N   0  0  0  0  0  0  0  0  0  0  0  0
   34.4640   31.1400   47.0550 H   0  0  0  0  0  0  0  0  0  0  0  0
   36.3700   28.7050   50.0220 H   0  0  0  0  0  0  0  0  0  0  0  0
   32.6780   27.0180   47.8770 C   0  0  0  0  0  0  0  0  0  0  0  0
   33.2540   25.7570   47.9400 F   0  0  0  0  0  0  0  0  0  0  0  0
   31.9810   27.1440   46.7030 F   0  0  0  0  0  0  0  0  0  0  0  0
   31.7140   27.0160   48.8900 F   0  0  0  0  0  0  0  0  0  0  0  0
  1  2  1  0  0  0  0
  2 11  1  0  0  0  0
  3  2  2  0  0  0  0
  4  3  1  0  0  0  0
  5 10  1  0  0  0  0
  5  4  2  0  0  0  0
  6  5  1  0  0  0  0
  7  6  2  0  0  0  0
  7  8  1  0  0  0  0
  8  9  2  0  0  0  0
  9  4  1  0  0  0  0
  9  1  1  0  0  0  0
 10 14  1  0  0  0  0
 12  7  1  0  0  0  0
 13 10  1  0  0  0  0
 15 16  1  0  0  0  0
 16  1  1  0  0  0  0
 16 17  2  0  0  0  0
 17 22  1  0  0  0  0
 18 17  1  0  0  0  0
 19 18  2  0  0  0  0
 20 15  2  0  0  0  0
 20 19  1  0  0  0  0
 21 15  1  0  0  0  0
 23 24  1  0  0  0  0
 23 19  1  0  0  0  0
 23 26  1  0  0  0  0
 25 23  1  0  0  0  0
M  END
>  <minimizedAffinity>
-5.49777985

>  <minimizedRMSD>
3.00840592

$$$$
