
 OpenBabel03252513303D

 47 51  0  0  0  0  0  0  0  0999 V2000
   33.3140   27.8220   48.5220 C   0  0  0  0  0  0  0  0  0  0  0  0
   33.9230   27.4990   49.3860 H   0  0  0  0  0  0  0  0  0  0  0  0
   32.3650   28.2080   48.9860 H   0  0  0  0  0  0  0  0  0  0  0  0
   31.7040   26.2170   47.5860 C   0  0  0  0  0  0  0  0  0  0  0  0
   31.4130   25.1020   46.8800 C   0  0  0  0  0  0  0  0  0  0  0  0
   32.3690   24.3020   46.2950 C   0  0  0  0  0  0  0  0  0  0  0  0
   33.6840   24.6940   46.4620 C   0  0  0  0  0  0  0  0  0  0  0  0
   33.9980   25.8240   47.1760 C   0  0  0  0  0  0  0  0  0  0  0  0
   33.0180   26.6020   47.7470 C   0  0  0  0  0  0  0  0  0  0  0  0
   30.3750   24.8180   46.7650 H   0  0  0  0  0  0  0  0  0  0  0  0
   32.1280   23.4070   45.7290 H   0  0  0  0  0  0  0  0  0  0  0  0
   34.5190   24.1370   46.0440 H   0  0  0  0  0  0  0  0  0  0  0  0
   35.0260   26.1350   47.3080 H   0  0  0  0  0  0  0  0  0  0  0  0
   29.3260   27.6600   50.0070 C   0  0  0  0  0  0  0  0  0  0  0  0
   28.6650   28.6440   49.2250 C   0  0  0  0  0  0  0  0  0  0  0  0
   29.0610   28.7770   47.8920 C   0  0  0  0  0  0  0  0  0  0  0  0
   30.0580   27.9580   47.4080 N   0  0  0  0  0  0  0  0  0  0  0  0
   30.6550   27.0400   48.1920 C   0  0  0  0  0  0  0  0  0  0  0  0
   30.2820   26.9090   49.4650 N   0  0  0  0  0  0  0  0  0  0  0  0
   29.0370   27.5460   51.0260 H   0  0  0  0  0  0  0  0  0  0  0  0
   28.5880   29.5060   47.2670 H   0  0  0  0  0  0  0  0  0  0  0  0
   27.5930   29.5090   49.7710 C   0  0  0  0  0  0  0  0  0  0  0  0
   28.0650   30.6040   50.4400 F   0  0  0  0  0  0  0  0  0  0  0  0
   26.7700   28.8080   50.6400 F   0  0  0  0  0  0  0  0  0  0  0  0
   26.7940   29.9800   48.7150 F   0  0  0  0  0  0  0  0  0  0  0  0
   33.8600   28.9520   47.7230 C   0  0  0  0  0  0  0  0  0  0  0  0
   34.0990   28.5600   46.6970 H   0  0  0  0  0  0  0  0  0  0  0  0
   33.0900   29.7540   47.5470 H   0  0  0  0  0  0  0  0  0  0  0  0
   35.0910   29.4610   48.3260 C   0  0  0  0  0  0  0  0  0  0  0  0
   35.6500   28.9330   49.4750 C   0  0  0  0  0  0  0  0  0  0  0  0
   36.8020   29.6300   49.7860 C   0  0  0  0  0  0  0  0  0  0  0  0
   36.9060   30.5770   48.7940 N   0  0  0  0  0  0  0  0  0  0  0  0
   35.8990   30.4710   47.9420 N   0  0  0  0  0  0  0  0  0  0  0  0
   35.3960   28.1290   50.1530 H   0  0  0  0  0  0  0  0  0  0  0  0
   37.5440   29.5990   50.5420 H   0  0  0  0  0  0  0  0  0  0  0  0
   37.8340   31.6160   48.4940 C   0  0  0  0  0  0  0  0  0  0  0  0
   37.8990   32.5510   49.4750 N   0  0  0  0  0  0  0  0  0  0  0  0
   38.7420   33.6140   49.3420 C   0  0  0  0  0  0  0  0  0  0  0  0
   39.5160   33.7460   48.2360 N   0  0  0  0  0  0  0  0  0  0  0  0
   39.4510   32.8250   47.2670 C   0  0  0  0  0  0  0  0  0  0  0  0
   40.2080   32.8890   46.1110 C   0  0  0  0  0  0  0  0  0  0  0  0
   40.1100   31.9160   45.1350 C   0  0  0  0  0  0  0  0  0  0  0  0
   40.7380   32.0420   44.2600 H   0  0  0  0  0  0  0  0  0  0  0  0
   39.2500   30.8440   45.2860 C   0  0  0  0  0  0  0  0  0  0  0  0
   39.1780   30.0860   44.5210 H   0  0  0  0  0  0  0  0  0  0  0  0
   38.4650   30.7280   46.4300 C   0  0  0  0  0  0  0  0  0  0  0  0
   38.6100   31.7230   47.3540 C   0  0  0  0  0  0  0  0  0  0  0  0
  1  3  1  0  0  0  0
  1  2  1  0  0  0  0
  4  9  1  0  0  0  0
  4 18  1  0  0  0  0
  5  4  2  0  0  0  0
  6  7  2  0  0  0  0
  6  5  1  0  0  0  0
  7  8  1  0  0  0  0
  8 13  1  0  0  0  0
  8  9  2  0  0  0  0
  9  1  1  0  0  0  0
 10  5  1  0  0  0  0
 11  6  1  0  0  0  0
 12  7  1  0  0  0  0
 14 20  1  0  0  0  0
 15 22  1  0  0  0  0
 15 14  2  0  0  0  0
 16 15  1  0  0  0  0
 17 16  2  0  0  0  0
 17 18  1  0  0  0  0
 18 19  2  0  0  0  0
 19 14  1  0  0  0  0
 21 16  1  0  0  0  0
 22 23  1  0  0  0  0
 22 24  1  0  0  0  0
 25 22  1  0  0  0  0
 26 29  1  0  0  0  0
 26  1  1  0  0  0  0
 27 26  1  0  0  0  0
 28 26  1  0  0  0  0
 29 30  1  0  0  0  0
 30 31  2  0  0  0  0
 30 34  1  0  0  0  0
 31 35  1  0  0  0  0
 32 31  1  0  0  0  0
 33 29  2  0  0  0  0
 33 32  1  0  0  0  0
 36 32  1  0  0  0  0
 36 37  1  0  0  0  0
 38 37  2  0  0  0  0
 39 38  1  0  0  0  0
 40 47  1  0  0  0  0
 40 39  2  0  0  0  0
 41 40  1  0  0  0  0
 42 44  1  0  0  0  0
 42 41  2  0  0  0  0
 43 42  1  0  0  0  0
 44 46  2  0  0  0  0
 45 44  1  0  0  0  0
 46 47  1  0  0  0  0
 47 36  2  0  0  0  0
M  END
>  <minimizedAffinity>
-8.49741745

>  <minimizedRMSD>
1.41552353

$$$$
