
 OpenBabel03252514083D

 39 42  0  0  0  0  0  0  0  0999 V2000
   34.1270   30.0700   47.5360 C   0  0  0  0  0  0  0  0  0  0  0  0
   35.1200   29.8450   48.5090 C   0  0  0  0  0  0  0  0  0  0  0  0
   34.9820   28.6930   49.2750 C   0  0  0  0  0  0  0  0  0  0  0  0
   33.9330   27.8640   49.0600 N   0  0  0  0  0  0  0  0  0  0  0  0
   33.0030   28.0960   48.1330 C   0  0  0  0  0  0  0  0  0  0  0  0
   33.1110   29.2060   47.3750 N   0  0  0  0  0  0  0  0  0  0  0  0
   34.2020   30.9600   46.9180 H   0  0  0  0  0  0  0  0  0  0  0  0
   35.7370   28.5110   50.0230 H   0  0  0  0  0  0  0  0  0  0  0  0
   36.1640   30.7910   48.6310 N   0  0  0  0  0  0  0  0  0  0  0  0
   36.4630   31.4430   49.7910 C   0  0  0  0  0  0  0  0  0  0  0  0
   37.5070   32.2740   49.5720 N   0  0  0  0  0  0  0  0  0  0  0  0
   37.8410   32.1270   48.2830 C   0  0  0  0  0  0  0  0  0  0  0  0
   38.8110   32.6970   47.4800 C   0  0  0  0  0  0  0  0  0  0  0  0
   38.9340   32.3660   46.1900 N   0  0  0  0  0  0  0  0  0  0  0  0
   38.1090   31.4510   45.5970 C   0  0  0  0  0  0  0  0  0  0  0  0
   37.1670   30.9020   46.3870 N   0  0  0  0  0  0  0  0  0  0  0  0
   37.0080   31.2020   47.6800 C   0  0  0  0  0  0  0  0  0  0  0  0
   36.0170   31.3900   50.7770 H   0  0  0  0  0  0  0  0  0  0  0  0
   38.2790   31.2490   44.5630 H   0  0  0  0  0  0  0  0  0  0  0  0
   39.6950   33.6500   48.0370 N   0  0  0  0  0  0  0  0  0  0  0  0
   39.4370   34.4000   48.7190 H   0  0  0  0  0  0  0  0  0  0  0  0
   40.7190   33.6860   47.8040 H   0  0  0  0  0  0  0  0  0  0  0  0
   31.8490   27.2090   47.8780 C   0  0  0  0  0  0  0  0  0  0  0  0
   30.8330   27.3490   48.9980 C   0  0  0  0  0  0  0  0  0  0  0  0
   29.9700   27.9820   48.7280 H   0  0  0  0  0  0  0  0  0  0  0  0
   31.3790   27.7300   49.8890 H   0  0  0  0  0  0  0  0  0  0  0  0
   30.4870   26.3160   49.2760 H   0  0  0  0  0  0  0  0  0  0  0  0
   31.1090   27.5920   46.6070 C   0  0  0  0  0  0  0  0  0  0  0  0
   31.7630   27.6080   45.7140 H   0  0  0  0  0  0  0  0  0  0  0  0
   30.7310   28.6430   46.7050 H   0  0  0  0  0  0  0  0  0  0  0  0
   30.2500   26.9240   46.5080 H   0  0  0  0  0  0  0  0  0  0  0  0
   32.2630   25.7630   47.7200 C   0  0  0  0  0  0  0  0  0  0  0  0
   31.4400   25.0650   47.9090 H   0  0  0  0  0  0  0  0  0  0  0  0
   33.0570   25.5840   48.4900 H   0  0  0  0  0  0  0  0  0  0  0  0
   32.9070   25.5380   46.4430 N   0  0  0  0  0  0  0  0  0  0  0  0
   34.0540   25.9420   45.8810 C   0  0  0  0  0  3  0  0  0  0  0  0
   34.1680   25.4070   44.6040 C   0  0  0  0  0  3  0  0  0  0  0  0
   33.0470   24.6590   44.4070 N   0  0  0  0  0  0  0  0  0  0  0  0
   32.3100   24.7490   45.5120 C   0  0  0  0  0  3  0  0  0  0  0  0
  1  2  1  0  0  0  0
  2  9  1  0  0  0  0
  2  3  2  0  0  0  0
  3  8  1  0  0  0  0
  4  3  1  0  0  0  0
  5  4  2  0  0  0  0
  6  1  2  0  0  0  0
  6  5  1  0  0  0  0
  7  1  1  0  0  0  0
  9 10  1  0  0  0  0
 10 18  1  0  0  0  0
 11 10  2  0  0  0  0
 12 11  1  0  0  0  0
 13 20  1  0  0  0  0
 13 12  2  0  0  0  0
 14 13  1  0  0  0  0
 15 14  2  0  0  0  0
 15 16  1  0  0  0  0
 16 17  2  0  0  0  0
 17 12  1  0  0  0  0
 17  9  1  0  0  0  0
 19 15  1  0  0  0  0
 20 21  1  0  0  0  0
 22 20  1  0  0  0  0
 23  5  1  0  0  0  0
 23 24  1  0  0  0  0
 24 27  1  0  0  0  0
 24 26  1  0  0  0  0
 25 24  1  0  0  0  0
 28 30  1  0  0  0  0
 28 23  1  0  0  0  0
 29 28  1  0  0  0  0
 31 28  1  0  0  0  0
 32 23  1  0  0  0  0
 32 33  1  0  0  0  0
 32 34  1  0  0  0  0
 35 32  1  0  0  0  0
 36 35  1  0  0  0  0
 37 36  2  0  0  0  0
 38 37  1  0  0  0  0
 38 39  2  0  0  0  0
 39 35  1  0  0  0  0
M  END
>  <minimizedAffinity>
-5.13203764

>  <minimizedRMSD>
1.11641085

$$$$
