
 OpenBabel03252513063D

 32 33  0  0  0  0  0  0  0  0999 V2000
   37.6050   30.5540   44.8620 C   0  0  0  0  0  0  0  0  0  0  0  0
   37.2720   29.4880   44.8150 H   0  0  0  0  0  0  0  0  0  0  0  0
   36.6630   31.1420   44.6660 H   0  0  0  0  0  0  0  0  0  0  0  0
   38.4790   30.7660   43.7750 N   0  0  0  0  0  0  0  0  0  0  0  0
   38.7350   31.8680   43.0990 C   0  0  0  0  0  0  0  0  0  0  0  0
   39.6110   31.9660   42.0490 C   0  0  0  0  0  0  0  0  0  0  0  0
   40.3000   30.8530   41.6310 C   0  0  0  0  0  0  0  0  0  0  0  0
   41.1050   30.8690   40.6910 O   0  0  0  0  0  0  0  0  0  0  0  0
   40.0530   29.7450   42.2970 N   0  0  0  0  0  0  0  0  0  0  0  0
   39.1910   29.6690   43.3240 C   0  0  0  0  0  0  0  0  0  0  0  0
   39.0390   28.5510   43.8840 O   0  0  0  0  0  0  0  0  0  0  0  0
   38.1880   32.7570   43.4300 H   0  0  0  0  0  0  0  0  0  0  0  0
   39.7460   32.9240   41.5640 H   0  0  0  0  0  0  0  0  0  0  0  0
   40.7670   28.5380   41.8820 C   0  0  0  0  0  0  0  0  0  0  0  0
   40.3290   27.4460   42.5900 F   0  0  0  0  0  0  0  0  0  0  0  0
   42.1060   28.7480   42.1370 F   0  0  0  0  0  0  0  0  0  0  0  0
   40.5600   28.3730   40.5300 F   0  0  0  0  0  0  0  0  0  0  0  0
   38.0450   30.8830   46.2290 C   0  0  0  0  0  0  0  0  0  0  0  0
   39.0390   30.3810   46.3940 H   0  0  0  0  0  0  0  0  0  0  0  0
   38.2930   31.9710   46.2870 H   0  0  0  0  0  0  0  0  0  0  0  0
   34.9060   30.0130   48.1180 C   0  0  0  0  0  0  0  0  0  0  0  0
   35.7540   30.3830   47.0380 C   0  0  0  0  0  0  0  0  0  0  0  0
   37.1130   30.5080   47.2900 C   0  0  0  0  0  0  0  0  0  0  0  0
   37.5740   30.2700   48.5640 N   0  0  0  0  0  0  0  0  0  0  0  0
   36.7480   29.9290   49.5330 C   0  0  0  0  0  0  0  0  0  0  0  0
   35.4380   29.7900   49.3670 N   0  0  0  0  0  0  0  0  0  0  0  0
   33.8560   29.8970   48.0050 H   0  0  0  0  0  0  0  0  0  0  0  0
   35.3230   30.5520   46.0750 H   0  0  0  0  0  0  0  0  0  0  0  0
   37.2790   29.6790   50.8960 C   0  0  0  0  0  0  0  0  0  0  0  0
   37.9180   28.4570   50.9590 F   0  0  0  0  0  0  0  0  0  0  0  0
   36.2740   29.6480   51.8580 F   0  0  0  0  0  0  0  0  0  0  0  0
   38.1310   30.7000   51.3060 F   0  0  0  0  0  0  0  0  0  0  0  0
  1 18  1  0  0  0  0
  2  1  1  0  0  0  0
  3  1  1  0  0  0  0
  4  1  1  0  0  0  0
  5 12  1  0  0  0  0
  5  4  1  0  0  0  0
  6  5  2  0  0  0  0
  7  6  1  0  0  0  0
  7  9  1  0  0  0  0
  8  7  2  0  0  0  0
  9 10  1  0  0  0  0
 10  4  1  0  0  0  0
 10 11  2  0  0  0  0
 13  6  1  0  0  0  0
 14 16  1  0  0  0  0
 14  9  1  0  0  0  0
 14 15  1  0  0  0  0
 17 14  1  0  0  0  0
 18 20  1  0  0  0  0
 18 19  1  0  0  0  0
 18 23  1  0  0  0  0
 21 26  1  0  0  0  0
 22 23  1  0  0  0  0
 22 21  2  0  0  0  0
 23 24  2  0  0  0  0
 24 25  1  0  0  0  0
 25 29  1  0  0  0  0
 26 25  2  0  0  0  0
 27 21  1  0  0  0  0
 28 22  1  0  0  0  0
 29 30  1  0  0  0  0
 29 32  1  0  0  0  0
 29 31  1  0  0  0  0
M  END
>  <minimizedAffinity>
-5.84680939

>  <minimizedRMSD>
3.38899708

$$$$
