
 OpenBabel03252514073D

 39 42  0  0  0  0  0  0  0  0999 V2000
   34.0540   29.9110   47.5320 C   0  0  0  0  0  0  0  0  0  0  0  0
   35.0540   29.6690   48.4920 C   0  0  0  0  0  0  0  0  0  0  0  0
   34.9690   28.4620   49.1780 C   0  0  0  0  0  0  0  0  0  0  0  0
   33.9610   27.6010   48.9020 N   0  0  0  0  0  0  0  0  0  0  0  0
   33.0230   27.8500   47.9890 C   0  0  0  0  0  0  0  0  0  0  0  0
   33.0800   29.0140   47.3070 N   0  0  0  0  0  0  0  0  0  0  0  0
   34.0870   30.8440   46.9760 H   0  0  0  0  0  0  0  0  0  0  0  0
   35.7310   28.2660   49.9160 H   0  0  0  0  0  0  0  0  0  0  0  0
   36.0520   30.6520   48.6830 N   0  0  0  0  0  0  0  0  0  0  0  0
   36.2710   31.2880   49.8700 C   0  0  0  0  0  0  0  0  0  0  0  0
   37.2880   32.1650   49.7180 N   0  0  0  0  0  0  0  0  0  0  0  0
   37.6870   32.0630   48.4430 C   0  0  0  0  0  0  0  0  0  0  0  0
   38.6680   32.6890   47.6980 C   0  0  0  0  0  0  0  0  0  0  0  0
   38.8630   32.3940   46.4080 N   0  0  0  0  0  0  0  0  0  0  0  0
   38.1040   31.4610   45.7580 C   0  0  0  0  0  0  0  0  0  0  0  0
   37.1510   30.8570   46.4910 N   0  0  0  0  0  0  0  0  0  0  0  0
   36.9210   31.1190   47.7820 C   0  0  0  0  0  0  0  0  0  0  0  0
   35.7830   31.1940   50.8330 H   0  0  0  0  0  0  0  0  0  0  0  0
   38.3290   31.2900   44.7290 H   0  0  0  0  0  0  0  0  0  0  0  0
   39.4860   33.6640   48.3170 N   0  0  0  0  0  0  0  0  0  0  0  0
   39.1670   34.3860   49.0020 H   0  0  0  0  0  0  0  0  0  0  0  0
   40.5170   33.7460   48.1310 H   0  0  0  0  0  0  0  0  0  0  0  0
   31.9140   26.9300   47.6680 C   0  0  0  0  0  0  0  0  0  0  0  0
   30.8110   27.0710   48.7030 C   0  0  0  0  0  0  0  0  0  0  0  0
   29.9570   27.6750   48.3520 H   0  0  0  0  0  0  0  0  0  0  0  0
   31.2770   27.4860   49.6230 H   0  0  0  0  0  0  0  0  0  0  0  0
   30.4690   26.0360   48.9800 H   0  0  0  0  0  0  0  0  0  0  0  0
   31.2650   27.2640   46.3350 C   0  0  0  0  0  0  0  0  0  0  0  0
   31.9860   27.2750   45.4950 H   0  0  0  0  0  0  0  0  0  0  0  0
   30.8570   28.3070   46.3770 H   0  0  0  0  0  0  0  0  0  0  0  0
   30.4320   26.5720   46.1870 H   0  0  0  0  0  0  0  0  0  0  0  0
   32.3720   25.4910   47.5790 C   0  0  0  0  0  0  0  0  0  0  0  0
   31.5640   24.7770   47.7770 H   0  0  0  0  0  0  0  0  0  0  0  0
   33.1510   25.3660   48.3750 H   0  0  0  0  0  0  0  0  0  0  0  0
   33.0530   25.2330   46.3280 N   0  0  0  0  0  0  0  0  0  0  0  0
   34.2090   25.6370   45.7850 C   0  0  0  0  0  3  0  0  0  0  0  0
   34.3680   25.0610   44.5300 C   0  0  0  0  0  3  0  0  0  0  0  0
   33.2630   24.2910   44.3270 N   0  0  0  0  0  0  0  0  0  0  0  0
   32.4950   24.4050   45.4080 C   0  0  0  0  0  3  0  0  0  0  0  0
  1  2  1  0  0  0  0
  2  9  1  0  0  0  0
  2  3  2  0  0  0  0
  3  8  1  0  0  0  0
  4  3  1  0  0  0  0
  5  4  2  0  0  0  0
  6  1  2  0  0  0  0
  6  5  1  0  0  0  0
  7  1  1  0  0  0  0
  9 10  1  0  0  0  0
 10 18  1  0  0  0  0
 11 10  2  0  0  0  0
 12 11  1  0  0  0  0
 13 20  1  0  0  0  0
 13 12  2  0  0  0  0
 14 13  1  0  0  0  0
 15 14  2  0  0  0  0
 15 16  1  0  0  0  0
 16 17  2  0  0  0  0
 17 12  1  0  0  0  0
 17  9  1  0  0  0  0
 19 15  1  0  0  0  0
 20 21  1  0  0  0  0
 22 20  1  0  0  0  0
 23  5  1  0  0  0  0
 23 24  1  0  0  0  0
 24 27  1  0  0  0  0
 24 26  1  0  0  0  0
 25 24  1  0  0  0  0
 28 30  1  0  0  0  0
 28 23  1  0  0  0  0
 29 28  1  0  0  0  0
 31 28  1  0  0  0  0
 32 23  1  0  0  0  0
 32 33  1  0  0  0  0
 32 34  1  0  0  0  0
 35 32  1  0  0  0  0
 36 35  1  0  0  0  0
 37 36  2  0  0  0  0
 38 37  1  0  0  0  0
 38 39  2  0  0  0  0
 39 35  1  0  0  0  0
M  END
>  <minimizedAffinity>
-5.12661314

>  <minimizedRMSD>
1.15860379

$$$$
