
 OpenBabel03252513483D

 20 20  0  0  0  0  0  0  0  0999 V2000
   37.8190   30.6430   49.2110 C   0  0  0  0  0  0  0  0  0  0  0  0
   38.3310   31.9160   49.6490 C   0  0  0  0  0  0  0  0  0  0  0  0
   38.8560   32.7510   48.6750 C   0  0  0  0  0  0  0  0  0  0  0  0
   38.8570   32.3270   47.3820 N   0  0  0  0  0  0  0  0  0  0  0  0
   38.3730   31.1400   47.0140 C   0  0  0  0  0  0  0  0  0  0  0  0
   37.8620   30.3150   47.9270 N   0  0  0  0  0  0  0  0  0  0  0  0
   38.3220   32.2380   50.6840 H   0  0  0  0  0  0  0  0  0  0  0  0
   38.4490   30.8290   45.5640 C   0  0  0  0  0  0  0  0  0  0  0  0
   37.1550   30.6670   45.0500 F   0  0  0  0  0  0  0  0  0  0  0  0
   38.9990   31.8840   44.8850 F   0  0  0  0  0  0  0  0  0  0  0  0
   39.2170   29.7120   45.2920 F   0  0  0  0  0  0  0  0  0  0  0  0
   39.4000   34.0810   49.0700 C   0  0  0  0  0  0  0  0  0  0  0  0
   39.9140   34.0230   50.3540 F   0  0  0  0  0  0  0  0  0  0  0  0
   38.3740   35.0300   49.1150 F   0  0  0  0  0  0  0  0  0  0  0  0
   40.3140   34.5450   48.1480 F   0  0  0  0  0  0  0  0  0  0  0  0
   37.2960   29.8080   50.1740 O   0  0  0  0  0  0  0  0  0  0  0  0
   35.9440   29.5660   50.3720 C   0  0  0  0  0  0  0  0  0  0  0  0
   35.6270   29.2380   51.6770 F   0  0  0  0  0  0  0  0  0  0  0  0
   35.1210   30.5460   49.8940 F   0  0  0  0  0  0  0  0  0  0  0  0
   35.6620   28.4130   49.6180 F   0  0  0  0  0  0  0  0  0  0  0  0
  1  2  1  0  0  0  0
  1 16  1  0  0  0  0
  2  7  1  0  0  0  0
  3 12  1  0  0  0  0
  3  2  2  0  0  0  0
  4  3  1  0  0  0  0
  5  4  2  0  0  0  0
  5  6  1  0  0  0  0
  6  1  2  0  0  0  0
  8  5  1  0  0  0  0
  9  8  1  0  0  0  0
 10  8  1  0  0  0  0
 11  8  1  0  0  0  0
 12 14  1  0  0  0  0
 12 13  1  0  0  0  0
 15 12  1  0  0  0  0
 16 17  1  0  0  0  0
 17 18  1  0  0  0  0
 19 17  1  0  0  0  0
 20 17  1  0  0  0  0
M  END
>  <minimizedAffinity>
-5.98924828

>  <minimizedRMSD>
1.20555341

$$$$
