
 OpenBabel03252514073D

 39 42  0  0  0  0  0  0  0  0999 V2000
   34.2980   30.1080   47.0950 C   0  0  0  0  0  0  0  0  0  0  0  0
   35.3850   29.9130   47.9680 C   0  0  0  0  0  0  0  0  0  0  0  0
   35.2830   28.8410   48.8490 C   0  0  0  0  0  0  0  0  0  0  0  0
   34.1790   28.0570   48.8290 N   0  0  0  0  0  0  0  0  0  0  0  0
   33.1600   28.2590   47.9940 C   0  0  0  0  0  0  0  0  0  0  0  0
   33.2310   29.2920   47.1280 N   0  0  0  0  0  0  0  0  0  0  0  0
   34.3410   30.9350   46.3930 H   0  0  0  0  0  0  0  0  0  0  0  0
   36.1110   28.6830   49.5220 H   0  0  0  0  0  0  0  0  0  0  0  0
   36.4780   30.8060   47.8860 N   0  0  0  0  0  0  0  0  0  0  0  0
   36.9620   31.5110   48.9480 C   0  0  0  0  0  0  0  0  0  0  0  0
   38.0030   32.2680   48.5360 N   0  0  0  0  0  0  0  0  0  0  0  0
   38.1530   32.0240   47.2280 C   0  0  0  0  0  0  0  0  0  0  0  0
   39.0300   32.4880   46.2660 C   0  0  0  0  0  0  0  0  0  0  0  0
   38.9600   32.0720   44.9960 N   0  0  0  0  0  0  0  0  0  0  0  0
   38.0220   31.1680   44.5820 C   0  0  0  0  0  0  0  0  0  0  0  0
   37.1710   30.7230   45.5260 N   0  0  0  0  0  0  0  0  0  0  0  0
   37.2040   31.1100   46.8050 C   0  0  0  0  0  0  0  0  0  0  0  0
   36.6520   31.5440   49.9860 H   0  0  0  0  0  0  0  0  0  0  0  0
   38.0400   30.8930   43.5510 H   0  0  0  0  0  0  0  0  0  0  0  0
   40.0240   33.4240   46.6340 N   0  0  0  0  0  0  0  0  0  0  0  0
   39.8960   34.2280   47.2910 H   0  0  0  0  0  0  0  0  0  0  0  0
   41.0070   33.3890   46.2650 H   0  0  0  0  0  0  0  0  0  0  0  0
   31.9460   27.4200   47.9520 C   0  0  0  0  0  0  0  0  0  0  0  0
   31.1010   27.6720   49.1880 C   0  0  0  0  0  0  0  0  0  0  0  0
   30.2370   28.3320   49.0000 H   0  0  0  0  0  0  0  0  0  0  0  0
   31.7800   28.0720   49.9720 H   0  0  0  0  0  0  0  0  0  0  0  0
   30.7530   26.6740   49.5730 H   0  0  0  0  0  0  0  0  0  0  0  0
   31.0540   27.7700   46.7720 C   0  0  0  0  0  0  0  0  0  0  0  0
   31.5780   27.7050   45.7990 H   0  0  0  0  0  0  0  0  0  0  0  0
   30.7390   28.8430   46.8560 H   0  0  0  0  0  0  0  0  0  0  0  0
   30.1610   27.1430   46.8310 H   0  0  0  0  0  0  0  0  0  0  0  0
   32.2710   25.9480   47.8270 C   0  0  0  0  0  0  0  0  0  0  0  0
   31.4210   25.3040   48.0800 H   0  0  0  0  0  0  0  0  0  0  0  0
   33.0910   25.7510   48.5650 H   0  0  0  0  0  0  0  0  0  0  0  0
   32.8380   25.6440   46.5300 N   0  0  0  0  0  0  0  0  0  0  0  0
   33.9900   25.9390   45.9130 C   0  0  0  0  0  3  0  0  0  0  0  0
   34.0050   25.3710   44.6440 C   0  0  0  0  0  3  0  0  0  0  0  0
   32.8190   24.7170   44.5110 N   0  0  0  0  0  0  0  0  0  0  0  0
   32.1390   24.8920   45.6420 C   0  0  0  0  0  3  0  0  0  0  0  0
  1  6  2  0  0  0  0
  1  2  1  0  0  0  0
  2  3  2  0  0  0  0
  3  8  1  0  0  0  0
  4  3  1  0  0  0  0
  5  4  2  0  0  0  0
  6  5  1  0  0  0  0
  7  1  1  0  0  0  0
  9  2  1  0  0  0  0
  9 10  1  0  0  0  0
 10 18  1  0  0  0  0
 11 10  2  0  0  0  0
 12 11  1  0  0  0  0
 13 20  1  0  0  0  0
 13 12  2  0  0  0  0
 14 13  1  0  0  0  0
 15 14  2  0  0  0  0
 15 16  1  0  0  0  0
 16 17  2  0  0  0  0
 17 12  1  0  0  0  0
 17  9  1  0  0  0  0
 19 15  1  0  0  0  0
 20 21  1  0  0  0  0
 22 20  1  0  0  0  0
 23  5  1  0  0  0  0
 23 24  1  0  0  0  0
 24 27  1  0  0  0  0
 24 26  1  0  0  0  0
 25 24  1  0  0  0  0
 28 31  1  0  0  0  0
 28 30  1  0  0  0  0
 28 23  1  0  0  0  0
 29 28  1  0  0  0  0
 32 23  1  0  0  0  0
 32 33  1  0  0  0  0
 32 34  1  0  0  0  0
 35 32  1  0  0  0  0
 36 35  1  0  0  0  0
 37 36  2  0  0  0  0
 38 37  1  0  0  0  0
 38 39  2  0  0  0  0
 39 35  1  0  0  0  0
M  END
>  <minimizedAffinity>
-4.99936676

>  <minimizedRMSD>
1.58573174

$$$$
