
 OpenBabel03252513173D

 25 26  0  0  1  0  0  0  0  0999 V2000
   36.0650   30.0850   48.7760 N   0  0  0  0  0  0  0  0  0  0  0  0
   37.3830   30.2770   48.1910 C   0  0  0  0  0  0  0  0  0  0  0  0
   37.6410   31.7340   48.4700 C   0  0  0  0  0  0  0  0  0  0  0  0
   37.2210   31.8280   49.9170 C   0  0  0  0  0  0  0  0  0  0  0  0
   36.2640   30.6830   50.0640 C   0  0  2  0  0  0  0  0  0  0  0  0
   37.2890   30.0650   47.1040 H   0  0  0  0  0  0  0  0  0  0  0  0
   38.1610   29.6410   48.6020 H   0  0  0  0  0  0  0  0  0  0  0  0
   38.7500   31.8710   48.4580 H   0  0  0  0  0  0  0  0  0  0  0  0
   37.1570   32.4320   47.7950 H   0  0  0  0  0  0  0  0  0  0  0  0
   36.6190   32.7770   49.9910 H   0  0  0  0  0  0  0  0  0  0  0  0
   38.0640   31.8130   50.6170 H   0  0  0  0  0  0  0  0  0  0  0  0
   35.2530   31.0240   50.4220 H   0  0  0  0  0  0  0  0  0  0  0  0
   34.9310   29.4640   48.1760 C   0  0  0  0  0  0  0  0  0  0  0  0
   34.1740   30.1080   47.1780 C   0  0  0  0  0  0  0  0  0  0  0  0
   33.0770   29.4180   46.6470 C   0  0  0  0  0  0  0  0  0  0  0  0
   32.8030   28.1700   47.1210 N   0  0  0  0  0  0  0  0  0  0  0  0
   33.5490   27.5740   48.0800 C   0  0  0  0  0  0  0  0  0  0  0  0
   34.6160   28.2450   48.5970 N   0  0  0  0  0  0  0  0  0  0  0  0
   34.4610   31.0980   46.8610 H   0  0  0  0  0  0  0  0  0  0  0  0
   32.5130   29.9170   45.8950 H   0  0  0  0  0  0  0  0  0  0  0  0
   33.2650   26.5820   48.4010 H   0  0  0  0  0  0  0  0  0  0  0  0
   36.7550   29.7350   51.1230 C   0  0  0  0  0  0  0  0  0  0  0  0
   37.4550   28.6800   50.5790 F   0  0  0  0  0  0  0  0  0  0  0  0
   35.6410   29.2010   51.7340 F   0  0  0  0  0  0  0  0  0  0  0  0
   37.5340   30.3380   52.0780 F   0  0  0  0  0  0  0  0  0  0  0  0
  1  5  1  0  0  0  0
  2  3  1  0  0  0  0
  2  7  1  0  0  0  0
  2  1  1  0  0  0  0
  3  4  1  0  0  0  0
  4 10  1  0  0  0  0
  4  5  1  0  0  0  0
  4 11  1  0  0  0  0
  5 12  1  1  0  0  0
  5 22  1  0  0  0  0
  6  2  1  0  0  0  0
  8  3  1  0  0  0  0
  9  3  1  0  0  0  0
 13 18  1  0  0  0  0
 13  1  1  0  0  0  0
 14 13  2  0  0  0  0
 15 16  2  0  0  0  0
 15 14  1  0  0  0  0
 16 17  1  0  0  0  0
 17 21  1  0  0  0  0
 17 18  2  0  0  0  0
 19 14  1  0  0  0  0
 20 15  1  0  0  0  0
 22 24  1  0  0  0  0
 22 25  1  0  0  0  0
 23 22  1  0  0  0  0
M  END
>  <minimizedAffinity>
-5.30829

>  <minimizedRMSD>
1.66439676

$$$$
