
 OpenBabel03252514073D

 39 42  0  0  0  0  0  0  0  0999 V2000
   34.0530   29.9120   47.5320 C   0  0  0  0  0  0  0  0  0  0  0  0
   35.0550   29.6690   48.4910 C   0  0  0  0  0  0  0  0  0  0  0  0
   34.9720   28.4610   49.1760 C   0  0  0  0  0  0  0  0  0  0  0  0
   33.9640   27.6010   48.9000 N   0  0  0  0  0  0  0  0  0  0  0  0
   33.0250   27.8500   47.9880 C   0  0  0  0  0  0  0  0  0  0  0  0
   33.0800   29.0150   47.3080 N   0  0  0  0  0  0  0  0  0  0  0  0
   34.0850   30.8460   46.9770 H   0  0  0  0  0  0  0  0  0  0  0  0
   35.7340   28.2650   49.9130 H   0  0  0  0  0  0  0  0  0  0  0  0
   36.0520   30.6530   48.6820 N   0  0  0  0  0  0  0  0  0  0  0  0
   36.2710   31.2890   49.8690 C   0  0  0  0  0  0  0  0  0  0  0  0
   37.2880   32.1670   49.7170 N   0  0  0  0  0  0  0  0  0  0  0  0
   37.6880   32.0630   48.4420 C   0  0  0  0  0  0  0  0  0  0  0  0
   38.6700   32.6890   47.6980 C   0  0  0  0  0  0  0  0  0  0  0  0
   38.8650   32.3940   46.4080 N   0  0  0  0  0  0  0  0  0  0  0  0
   38.1070   31.4600   45.7580 C   0  0  0  0  0  0  0  0  0  0  0  0
   37.1530   30.8560   46.4910 N   0  0  0  0  0  0  0  0  0  0  0  0
   36.9220   31.1190   47.7810 C   0  0  0  0  0  0  0  0  0  0  0  0
   35.7820   31.1960   50.8320 H   0  0  0  0  0  0  0  0  0  0  0  0
   38.3330   31.2880   44.7290 H   0  0  0  0  0  0  0  0  0  0  0  0
   39.4860   33.6650   48.3160 N   0  0  0  0  0  0  0  0  0  0  0  0
   39.1670   34.3870   49.0010 H   0  0  0  0  0  0  0  0  0  0  0  0
   40.5170   33.7470   48.1320 H   0  0  0  0  0  0  0  0  0  0  0  0
   31.9150   26.9290   47.6680 C   0  0  0  0  0  0  0  0  0  0  0  0
   30.8120   27.0710   48.7020 C   0  0  0  0  0  0  0  0  0  0  0  0
   29.9580   27.6750   48.3500 H   0  0  0  0  0  0  0  0  0  0  0  0
   31.2780   27.4870   49.6220 H   0  0  0  0  0  0  0  0  0  0  0  0
   30.4700   26.0370   48.9790 H   0  0  0  0  0  0  0  0  0  0  0  0
   31.2670   27.2630   46.3340 C   0  0  0  0  0  0  0  0  0  0  0  0
   31.9880   27.2740   45.4940 H   0  0  0  0  0  0  0  0  0  0  0  0
   30.8590   28.3060   46.3750 H   0  0  0  0  0  0  0  0  0  0  0  0
   30.4340   26.5710   46.1860 H   0  0  0  0  0  0  0  0  0  0  0  0
   32.3730   25.4910   47.5800 C   0  0  0  0  0  0  0  0  0  0  0  0
   31.5660   24.7770   47.7790 H   0  0  0  0  0  0  0  0  0  0  0  0
   33.1530   25.3670   48.3750 H   0  0  0  0  0  0  0  0  0  0  0  0
   33.0540   25.2320   46.3290 N   0  0  0  0  0  0  0  0  0  0  0  0
   34.2090   25.6350   45.7850 C   0  0  0  0  0  3  0  0  0  0  0  0
   34.3680   25.0590   44.5300 C   0  0  0  0  0  3  0  0  0  0  0  0
   33.2630   24.2880   44.3280 N   0  0  0  0  0  0  0  0  0  0  0  0
   32.4950   24.4040   45.4080 C   0  0  0  0  0  3  0  0  0  0  0  0
  1  2  1  0  0  0  0
  2  9  1  0  0  0  0
  2  3  2  0  0  0  0
  3  8  1  0  0  0  0
  4  3  1  0  0  0  0
  5  4  2  0  0  0  0
  6  1  2  0  0  0  0
  6  5  1  0  0  0  0
  7  1  1  0  0  0  0
  9 10  1  0  0  0  0
 10 18  1  0  0  0  0
 11 10  2  0  0  0  0
 12 11  1  0  0  0  0
 13 20  1  0  0  0  0
 13 12  2  0  0  0  0
 14 13  1  0  0  0  0
 15 14  2  0  0  0  0
 15 16  1  0  0  0  0
 16 17  2  0  0  0  0
 17 12  1  0  0  0  0
 17  9  1  0  0  0  0
 19 15  1  0  0  0  0
 20 21  1  0  0  0  0
 22 20  1  0  0  0  0
 23  5  1  0  0  0  0
 23 24  1  0  0  0  0
 24 27  1  0  0  0  0
 24 26  1  0  0  0  0
 25 24  1  0  0  0  0
 28 30  1  0  0  0  0
 28 23  1  0  0  0  0
 29 28  1  0  0  0  0
 31 28  1  0  0  0  0
 32 23  1  0  0  0  0
 32 33  1  0  0  0  0
 32 34  1  0  0  0  0
 35 32  1  0  0  0  0
 36 35  1  0  0  0  0
 37 36  2  0  0  0  0
 38 37  1  0  0  0  0
 38 39  2  0  0  0  0
 39 35  1  0  0  0  0
M  END
>  <minimizedAffinity>
-5.12624502

>  <minimizedRMSD>
1.23282468

$$$$
