
 OpenBabel03252513303D

 41 44  0  0  0  0  0  0  0  0999 V2000
   31.6160   26.2370   47.5970 C   0  0  0  0  0  0  0  0  0  0  0  0
   31.2940   25.0980   46.9550 C   0  0  0  0  0  0  0  0  0  0  0  0
   32.2250   24.2220   46.4370 C   0  0  0  0  0  0  0  0  0  0  0  0
   33.5480   24.5810   46.6160 C   0  0  0  0  0  0  0  0  0  0  0  0
   33.9040   25.7340   47.2660 C   0  0  0  0  0  0  0  0  0  0  0  0
   32.9400   26.5810   47.7680 C   0  0  0  0  0  0  0  0  0  0  0  0
   30.2270   24.8820   46.8520 H   0  0  0  0  0  0  0  0  0  0  0  0
   31.8510   23.3380   45.9410 H   0  0  0  0  0  0  0  0  0  0  0  0
   34.2870   23.8940   46.2110 H   0  0  0  0  0  0  0  0  0  0  0  0
   34.9630   25.9730   47.3820 H   0  0  0  0  0  0  0  0  0  0  0  0
   29.2570   27.9180   49.8780 C   0  0  0  0  0  0  0  0  0  0  0  0
   28.6410   28.8690   49.0270 C   0  0  0  0  0  0  0  0  0  0  0  0
   29.0580   28.9000   47.6950 C   0  0  0  0  0  0  0  0  0  0  0  0
   30.0340   28.0210   47.2780 N   0  0  0  0  0  0  0  0  0  0  0  0
   30.5900   27.1340   48.1290 C   0  0  0  0  0  0  0  0  0  0  0  0
   30.1920   27.1020   49.4010 N   0  0  0  0  0  0  0  0  0  0  0  0
   28.9100   27.9210   50.9010 H   0  0  0  0  0  0  0  0  0  0  0  0
   28.6300   29.6010   46.9920 H   0  0  0  0  0  0  0  0  0  0  0  0
   27.5940   29.8060   49.4930 C   0  0  0  0  0  0  0  0  0  0  0  0
   28.0230   30.6630   50.4680 F   0  0  0  0  0  0  0  0  0  0  0  0
   26.4950   29.1180   50.0070 F   0  0  0  0  0  0  0  0  0  0  0  0
   27.1470   30.5800   48.4190 F   0  0  0  0  0  0  0  0  0  0  0  0
   33.2690   27.8340   48.4760 C   0  0  0  0  0  0  0  0  0  0  0  0
   33.9140   27.5500   49.3290 H   0  0  0  0  0  0  0  0  0  0  0  0
   32.3430   28.2400   48.9620 H   0  0  0  0  0  0  0  0  0  0  0  0
   33.7910   28.9220   47.6080 C   0  0  0  0  0  0  0  0  0  0  0  0
   33.0660   29.7470   47.4430 H   0  0  0  0  0  0  0  0  0  0  0  0
   33.9630   28.4830   46.5840 H   0  0  0  0  0  0  0  0  0  0  0  0
   35.0170   29.4870   48.1700 C   0  0  0  0  0  0  0  0  0  0  0  0
   35.7050   28.9080   49.2230 C   0  0  0  0  0  0  0  0  0  0  0  0
   36.8150   29.6760   49.5240 C   0  0  0  0  0  0  0  0  0  0  0  0
   36.7620   30.7170   48.6250 N   0  0  0  0  0  0  0  0  0  0  0  0
   35.7070   30.5990   47.8350 N   0  0  0  0  0  0  0  0  0  0  0  0
   35.5760   28.0270   49.8370 H   0  0  0  0  0  0  0  0  0  0  0  0
   37.6040   29.5960   50.2530 H   0  0  0  0  0  0  0  0  0  0  0  0
   37.7190   31.7810   48.5530 C   0  0  0  0  0  0  0  0  0  0  0  0
   38.6680   32.0340   47.5830 C   0  0  0  0  0  0  0  0  0  0  0  0
   39.3030   33.1560   48.0020 N   0  0  0  0  0  0  0  0  0  0  0  0
   38.7620   33.5560   49.1680 C   0  0  0  0  0  0  0  0  0  0  0  0
   37.7610   32.7030   49.5320 N   0  0  0  0  0  0  0  0  0  0  0  0
   37.2020   32.8210   50.4050 H   0  0  0  0  0  0  0  0  0  0  0  0
  1  6  1  0  0  0  0
  1 15  1  0  0  0  0
  2  1  2  0  0  0  0
  3  4  2  0  0  0  0
  3  2  1  0  0  0  0
  4  5  1  0  0  0  0
  5 10  1  0  0  0  0
  5  6  2  0  0  0  0
  6 23  1  0  0  0  0
  7  2  1  0  0  0  0
  8  3  1  0  0  0  0
  9  4  1  0  0  0  0
 11 17  1  0  0  0  0
 12 19  1  0  0  0  0
 12 11  2  0  0  0  0
 13 12  1  0  0  0  0
 14 13  2  0  0  0  0
 14 15  1  0  0  0  0
 15 16  2  0  0  0  0
 16 11  1  0  0  0  0
 18 13  1  0  0  0  0
 19 21  1  0  0  0  0
 19 20  1  0  0  0  0
 22 19  1  0  0  0  0
 23 25  1  0  0  0  0
 23 24  1  0  0  0  0
 26 29  1  0  0  0  0
 26 23  1  0  0  0  0
 27 26  1  0  0  0  0
 28 26  1  0  0  0  0
 29 30  1  0  0  0  0
 30 31  2  0  0  0  0
 30 34  1  0  0  0  0
 31 35  1  0  0  0  0
 32 31  1  0  0  0  0
 33 29  2  0  0  0  0
 33 32  1  0  0  0  0
 36 32  1  0  0  0  0
 36 40  1  0  0  0  0
 37 38  1  0  0  0  0
 37 36  2  0  0  0  0
 38 39  2  0  0  0  0
 39 40  1  0  0  0  0
 40 41  1  0  0  0  0
M  END
>  <minimizedAffinity>
-6.77561331

>  <minimizedRMSD>
1.1618911

$$$$
