
 OpenBabel03252514063D

 25 27  0  0  0  0  0  0  0  0999 V2000
   36.7390   31.2170   48.7590 N   0  0  0  0  0  0  0  0  0  0  0  0
   36.8210   32.0870   49.7950 C   0  0  0  0  0  0  0  0  0  0  0  0
   37.8120   32.9740   49.5220 N   0  0  0  0  0  0  0  0  0  0  0  0
   38.3190   32.6390   48.3310 C   0  0  0  0  0  0  0  0  0  0  0  0
   39.3300   33.1610   47.5420 C   0  0  0  0  0  0  0  0  0  0  0  0
   39.6430   32.6110   46.3520 N   0  0  0  0  0  0  0  0  0  0  0  0
   38.9870   31.5240   45.8670 C   0  0  0  0  0  0  0  0  0  0  0  0
   38.0090   31.0320   46.6480 N   0  0  0  0  0  0  0  0  0  0  0  0
   37.6600   31.5350   47.8310 C   0  0  0  0  0  0  0  0  0  0  0  0
   40.0530   34.2800   47.9700 N   0  0  0  0  0  0  0  0  0  0  0  0
   36.1980   32.0760   50.6960 H   0  0  0  0  0  0  0  0  0  0  0  0
   39.2770   31.1200   44.9050 H   0  0  0  0  0  0  0  0  0  0  0  0
   40.6430   34.2800   48.8470 H   0  0  0  0  0  0  0  0  0  0  0  0
   40.1880   35.2520   47.6120 H   0  0  0  0  0  0  0  0  0  0  0  0
   34.7650   30.2170   47.7650 C   0  0  0  0  0  0  0  0  0  0  0  0
   35.8030   30.1420   48.7020 C   0  0  0  0  0  0  0  0  0  0  0  0
   35.8230   29.0080   49.5020 C   0  0  0  0  0  0  0  0  0  0  0  0
   34.8720   28.0540   49.3490 N   0  0  0  0  0  0  0  0  0  0  0  0
   33.8940   28.1590   48.4430 C   0  0  0  0  0  0  0  0  0  0  0  0
   33.8450   29.2470   47.6500 N   0  0  0  0  0  0  0  0  0  0  0  0
   34.6910   31.0740   47.1090 H   0  0  0  0  0  0  0  0  0  0  0  0
   36.6110   28.9520   50.2140 H   0  0  0  0  0  0  0  0  0  0  0  0
   32.8510   27.1330   48.2610 C   0  0  0  0  0  3  0  0  0  0  0  0
   31.4660   27.6250   48.6210 C   0  0  0  0  0  1  0  0  0  0  0  0
   32.8170   26.7450   46.7770 C   0  0  0  0  0  1  0  0  0  0  0  0
  1  2  1  0  0  0  0
  2 11  1  0  0  0  0
  3  2  2  0  0  0  0
  4  3  1  0  0  0  0
  5 10  1  0  0  0  0
  5  4  2  0  0  0  0
  6  5  1  0  0  0  0
  7  6  2  0  0  0  0
  7  8  1  0  0  0  0
  8  9  2  0  0  0  0
  9  4  1  0  0  0  0
  9  1  1  0  0  0  0
 10 13  1  0  0  0  0
 12  7  1  0  0  0  0
 14 10  1  0  0  0  0
 15 16  1  0  0  0  0
 16  1  1  0  0  0  0
 16 17  2  0  0  0  0
 17 22  1  0  0  0  0
 18 17  1  0  0  0  0
 19 18  2  0  0  0  0
 20 15  2  0  0  0  0
 20 19  1  0  0  0  0
 21 15  1  0  0  0  0
 23 19  1  0  0  0  0
 23 24  1  0  0  0  0
 25 23  1  0  0  0  0
M  END
>  <minimizedAffinity>
-5.61782598

>  <minimizedRMSD>
2.4672091

$$$$
