
     RDKit          3D

 39 41  0  0  0  0  0  0  0  0999 V2000
   35.2918   29.4164   48.9833 C   0  0  2  0  0  0  0  0  0  0  0  0
   34.1863   29.3649   49.9340 C   0  0  0  0  0  0  0  0  0  0  0  0
   34.5262   28.1013   49.3447 C   0  0  1  0  0  0  0  0  0  0  0  0
   36.7072   29.3893   49.5857 C   0  0  0  0  0  0  0  0  0  0  0  0
   38.0840   32.7690   49.4403 C   0  0  0  0  0  0  0  0  0  0  0  0
   38.7596   32.7745   48.2090 C   0  0  0  0  0  0  0  0  0  0  0  0
   38.7277   31.5900   47.4377 C   0  0  0  0  0  0  0  0  0  0  0  0
   38.0440   30.5104   47.9314 N   0  0  0  0  0  0  0  0  0  0  0  0
   37.4179   30.5652   49.1142 C   0  0  0  0  0  0  0  0  0  0  0  0
   37.4421   31.6980   49.8636 N   0  0  0  0  0  0  0  0  0  0  0  0
   33.5601   27.5912   48.2934 C   0  0  0  0  0  0  0  0  0  0  0  0
   33.9096   26.4428   47.8071 O   0  0  0  0  0  0  0  0  0  0  0  0
   32.4000   28.2274   47.8522 O   0  0  0  0  0  0  0  0  0  0  0  0
   31.1436   27.8301   48.2229 C   0  0  0  0  0  0  0  0  0  0  0  0
   30.6250   27.8164   49.6080 C   0  0  0  0  0  0  0  0  0  0  0  0
   29.3594   27.3964   49.8121 C   0  0  0  0  0  0  0  0  0  0  0  0
   28.5359   26.9786   48.7494 C   0  0  0  0  0  0  0  0  0  0  0  0
   29.6396   27.1850   47.2621 S   0  0  0  0  0  0  0  0  0  0  0  0
   35.1342   29.8309   47.9849 H   0  0  0  0  0  0  0  0  0  0  0  0
   33.2348   29.9188   49.7225 H   0  0  0  0  0  0  0  0  0  0  0  0
   34.4445   29.4933   51.0275 H   0  0  0  0  0  0  0  0  0  0  0  0
   35.1761   27.3256   49.7425 H   0  0  0  0  0  0  0  0  0  0  0  0
   37.1689   28.4451   49.1983 H   0  0  0  0  0  0  0  0  0  0  0  0
   36.6448   29.2821   50.6698 H   0  0  0  0  0  0  0  0  0  0  0  0
   38.1416   33.7000   49.9872 H   0  0  0  0  0  0  0  0  0  0  0  0
   39.3068   33.6086   47.7928 H   0  0  0  0  0  0  0  0  0  0  0  0
   39.2316   31.5415   46.4824 H   0  0  0  0  0  0  0  0  0  0  0  0
   31.2841   28.1418   50.3796 H   0  0  0  0  0  0  0  0  0  0  0  0
   28.8879   27.3474   50.7760 H   0  0  0  0  0  0  0  0  0  0  0  0
   27.2458   26.4933   48.4817 C   0  0  0  0  0  0  0  0  0  0  0  0
   27.1634   24.9840   48.2165 C   0  0  0  0  0  0  0  0  0  0  0  0
   26.6363   27.2413   47.3124 C   0  0  0  0  0  0  0  0  0  0  0  0
   26.5738   26.6518   49.3497 H   0  0  0  0  0  0  0  0  0  0  0  0
   26.1213   24.6564   48.2958 H   0  0  0  0  0  0  0  0  0  0  0  0
   27.6617   24.7025   47.2846 H   0  0  0  0  0  0  0  0  0  0  0  0
   27.7431   24.5083   49.0584 H   0  0  0  0  0  0  0  0  0  0  0  0
   26.8122   26.6036   46.3982 H   0  0  0  0  0  0  0  0  0  0  0  0
   25.5320   27.3087   47.4113 H   0  0  0  0  0  0  0  0  0  0  0  0
   27.0664   28.2325   47.1563 H   0  0  0  0  0  0  0  0  0  0  0  0
  1  3  1  0
  1  4  1  0
  1  2  1  0
  3  2  1  0
  5 10  2  0
  6  5  1  0
  7  8  1  0
  7  6  2  0
  8  9  2  0
  9  4  1  0
  9 10  1  0
 11  3  1  0
 12 11  2  0
 13 14  1  0
 13 11  1  0
 14 15  2  0
 15 16  1  0
 17 16  2  0
 18 14  1  0
 18 17  1  0
  1 19  1  6
  2 20  1  0
  2 21  1  0
  3 22  1  1
  4 23  1  0
  4 24  1  0
  5 25  1  0
  6 26  1  0
  7 27  1  0
 15 28  1  0
 16 29  1  0
 30 31  1  0
 30 32  1  0
 30 33  1  0
 31 34  1  0
 31 35  1  0
 31 36  1  0
 32 37  1  0
 32 38  1  0
 32 39  1  0
 17 30  1  0
M  ISO  8  19  13  20  13  21  13  22  13  23   8  24   8  25  14  26  14
M  ISO  3  27  14  28  14  29  14
M  END
>  <DihAtoms>  (1) 
15,16,29,30

>  <DihDeg>  (1) 
-117.59532643915395

$$$$
