
 OpenBabel03252512383D

 41 44  0  0  1  0  0  0  0  0999 V2000
   39.2660   30.8080   46.2270 C   0  0  2  0  0  0  0  0  0  0  0  0
   40.1900   31.7640   45.6560 C   0  0  0  0  0  0  0  0  0  0  0  0
   40.9770   31.2490   44.4980 C   0  0  0  0  0  0  0  0  0  0  0  0
   40.1700   30.5170   43.5050 C   0  0  0  0  0  0  0  0  0  0  0  0
   39.1410   29.6450   44.0640 C   0  0  0  0  0  0  0  0  0  0  0  0
   38.3050   30.3310   45.2050 C   0  0  2  0  0  0  0  0  0  0  0  0
   39.8330   29.8900   46.5450 H   0  0  0  0  0  0  0  0  0  0  0  0
   40.9880   31.8970   46.4570 H   0  0  0  0  0  0  0  0  0  0  0  0
   39.8980   32.7870   45.4640 H   0  0  0  0  0  0  0  0  0  0  0  0
   41.5050   32.0820   44.0120 H   0  0  0  0  0  0  0  0  0  0  0  0
   41.7910   30.5480   44.8410 H   0  0  0  0  0  0  0  0  0  0  0  0
   39.7180   31.2540   42.7820 H   0  0  0  0  0  0  0  0  0  0  0  0
   40.8510   29.9050   42.8930 H   0  0  0  0  0  0  0  0  0  0  0  0
   39.6240   28.7770   44.5820 H   0  0  0  0  0  0  0  0  0  0  0  0
   38.4000   29.3160   43.3240 H   0  0  0  0  0  0  0  0  0  0  0  0
   37.6500   29.4620   45.5140 H   0  0  0  0  0  0  0  0  0  0  0  0
   38.7630   32.5760   48.0280 C   0  0  0  0  0  0  0  0  0  0  0  0
   38.5550   31.2940   47.4080 C   0  0  0  0  0  0  0  0  0  0  0  0
   37.6290   30.4570   47.9210 C   0  0  0  0  0  0  0  0  0  0  0  0
   36.9270   30.8830   49.0260 N   0  0  0  0  0  0  0  0  0  0  0  0
   37.1470   32.1160   49.6000 C   0  0  0  0  0  0  0  0  0  0  0  0
   38.0850   32.9700   49.0820 N   0  0  0  0  0  0  0  0  0  0  0  0
   39.5250   33.1880   47.5550 H   0  0  0  0  0  0  0  0  0  0  0  0
   37.3890   29.4820   47.5460 H   0  0  0  0  0  0  0  0  0  0  0  0
   36.5130   32.3090   50.4670 H   0  0  0  0  0  0  0  0  0  0  0  0
   37.5670   31.4010   44.5440 C   0  0  0  0  0  0  0  0  0  0  0  0
   37.5990   32.6460   44.8490 O   0  0  0  0  0  0  0  0  0  0  0  0
   36.7840   30.9850   43.5210 O   0  0  0  0  0  0  0  0  0  0  0  0
   35.6400   31.7540   43.1820 C   0  0  0  0  0  0  0  0  0  0  0  0
   34.3350   31.2970   43.4250 C   0  0  0  0  0  0  0  0  0  0  0  0
   33.5250   32.3050   42.9670 C   0  0  0  0  0  0  0  0  0  0  0  0
   34.2900   33.3230   42.4710 N   0  0  0  0  0  0  0  0  0  0  0  0
   35.5500   32.9570   42.6180 N   0  0  0  0  0  0  0  0  0  0  0  0
   33.9750   30.3820   43.8640 H   0  0  0  0  0  0  0  0  0  0  0  0
   32.4250   32.2980   42.9930 H   0  0  0  0  0  0  0  0  0  0  0  0
   33.7950   34.5330   41.9110 C   0  0  0  0  0  0  0  0  0  0  0  0
   34.5500   35.6510   41.6560 C   0  0  0  0  0  0  0  0  0  0  0  0
   33.6900   36.5490   41.1340 N   0  0  0  0  0  0  0  0  0  0  0  0
   32.4570   36.0050   41.0690 C   0  0  0  0  0  0  0  0  0  0  0  0
   32.4970   34.7310   41.5550 N   0  0  0  0  0  0  0  0  0  0  0  0
   31.6860   34.0710   41.6260 H   0  0  0  0  0  0  0  0  0  0  0  0
  1  7  1  1  0  0  0
  1 18  1  0  0  0  0
  2  1  1  0  0  0  0
  2  8  1  0  0  0  0
  3 11  1  0  0  0  0
  3  2  1  0  0  0  0
  4  5  1  0  0  0  0
  4  3  1  0  0  0  0
  5 14  1  0  0  0  0
  5  6  1  0  0  0  0
  6 16  1  1  0  0  0
  6  1  1  0  0  0  0
  9  2  1  0  0  0  0
 10  3  1  0  0  0  0
 12  4  1  0  0  0  0
 13  4  1  0  0  0  0
 15  5  1  0  0  0  0
 17 22  1  0  0  0  0
 18 19  1  0  0  0  0
 18 17  2  0  0  0  0
 19 20  2  0  0  0  0
 20 21  1  0  0  0  0
 21 25  1  0  0  0  0
 22 21  2  0  0  0  0
 23 17  1  0  0  0  0
 24 19  1  0  0  0  0
 26 27  2  0  0  0  0
 26  6  1  0  0  0  0
 28 26  1  0  0  0  0
 29 30  1  0  0  0  0
 29 28  1  0  0  0  0
 30 34  1  0  0  0  0
 31 35  1  0  0  0  0
 31 30  2  0  0  0  0
 32 33  1  0  0  0  0
 32 31  1  0  0  0  0
 33 29  2  0  0  0  0
 36 32  1  0  0  0  0
 37 36  2  0  0  0  0
 38 37  1  0  0  0  0
 39 38  2  0  0  0  0
 39 40  1  0  0  0  0
 40 41  1  0  0  0  0
 40 36  1  0  0  0  0
M  END
>  <minimizedAffinity>
-5.52926159

>  <minimizedRMSD>
1.74516201

$$$$
