
 OpenBabel03252513213D

 15 15  0  0  0  0  0  0  0  0999 V2000
   35.4370   29.0970   50.3960 C   0  0  0  0  0  0  0  0  0  0  0  0
   36.1770   30.1110   49.7710 C   0  0  0  0  0  0  0  0  0  0  0  0
   35.9480   30.3360   48.3970 C   0  0  0  0  0  0  0  0  0  0  0  0
   35.0160   29.5510   47.7560 N   0  0  0  0  0  0  0  0  0  0  0  0
   34.3300   28.5870   48.4040 C   0  0  0  0  0  0  0  0  0  0  0  0
   34.5480   28.3720   49.7130 N   0  0  0  0  0  0  0  0  0  0  0  0
   35.6610   28.9730   51.4590 H   0  0  0  0  0  0  0  0  0  0  0  0
   36.4820   31.1050   47.8410 H   0  0  0  0  0  0  0  0  0  0  0  0
   37.1740   30.9470   50.4730 C   0  0  0  0  0  0  0  0  0  0  0  0
   38.4250   30.9010   49.9560 F   0  0  0  0  0  0  0  0  0  0  0  0
   37.2670   30.5950   51.8060 F   0  0  0  0  0  0  0  0  0  0  0  0
   36.7650   32.2900   50.4250 F   0  0  0  0  0  0  0  0  0  0  0  0
   33.3380   27.7550   47.7090 C   0  0  0  0  0  0  0  0  0  0  0  0
   33.7630   26.3350   47.5030 C   0  0  0  0  0  0  0  0  0  0  0  0
   32.0900   27.7240   48.5850 C   0  0  0  0  0  0  0  0  0  0  0  0
  1  7  1  0  0  0  0
  2  1  1  0  0  0  0
  2  9  1  0  0  0  0
  3  2  2  0  0  0  0
  4  3  1  0  0  0  0
  4  5  2  0  0  0  0
  5  6  1  0  0  0  0
  6  1  2  0  0  0  0
  8  3  1  0  0  0  0
  9 11  1  0  0  0  0
 10  9  1  0  0  0  0
 12  9  1  0  0  0  0
 13  5  1  0  0  0  0
 13 15  1  0  0  0  0
 14 13  1  0  0  0  0
M  END
>  <minimizedAffinity>
-4.84018993

>  <minimizedRMSD>
0.390670806

$$$$
