
 OpenBabel03252511563D

 31 33  0  0  0  0  0  0  0  0999 V2000
   36.3830   30.1890   47.6670 N   0  0  0  0  0  0  0  0  0  0  0  0
   35.1370   29.9090   47.2090 C   0  0  0  0  0  0  0  0  0  0  0  0
   34.8240   30.0100   45.8680 C   0  0  0  0  0  0  0  0  0  0  0  0
   35.8680   30.4090   45.0750 C   0  0  0  0  0  0  0  0  0  0  0  0
   35.6310   30.5180   43.8290 O   0  0  0  0  0  0  0  0  0  0  0  0
   37.1260   30.7020   45.4660 N   0  0  0  0  0  0  0  0  0  0  0  0
   37.3250   30.5680   46.8060 C   0  0  0  0  0  0  0  0  0  0  0  0
   38.4650   30.8190   47.2460 O   0  0  0  0  0  0  0  0  0  0  0  0
   34.3610   29.5980   47.9100 H   0  0  0  0  0  0  0  0  0  0  0  0
   33.8520   29.8000   45.4550 H   0  0  0  0  0  0  0  0  0  0  0  0
   37.5760   30.9690   49.5400 C   0  0  0  0  0  0  0  0  0  0  0  0
   36.6150   30.0620   49.0400 C   0  0  0  0  0  0  0  0  0  0  0  0
   36.0310   29.1590   49.9190 C   0  0  0  0  0  0  0  0  0  0  0  0
   36.4080   29.1830   51.2280 N   0  0  0  0  0  0  0  0  0  0  0  0
   37.3410   30.0710   51.6820 C   0  0  0  0  0  0  0  0  0  0  0  0
   37.9230   30.9660   50.8260 N   0  0  0  0  0  0  0  0  0  0  0  0
   38.1640   31.7650   49.1110 H   0  0  0  0  0  0  0  0  0  0  0  0
   35.3170   28.5060   49.4830 H   0  0  0  0  0  0  0  0  0  0  0  0
   37.5110   29.9380   52.7480 H   0  0  0  0  0  0  0  0  0  0  0  0
   38.1030   31.1030   44.5500 C   0  0  0  0  0  0  0  0  0  0  0  0
   38.3670   32.3950   44.1340 C   0  0  0  0  0  0  0  0  0  0  0  0
   39.3360   32.7240   43.2350 C   0  0  0  0  0  0  0  0  0  0  0  0
   40.1070   31.7160   42.7040 C   0  0  0  0  0  0  0  0  0  0  0  0
   39.8420   30.4260   43.1210 C   0  0  0  0  0  0  0  0  0  0  0  0
   38.8700   30.1220   44.0190 N   0  0  0  0  0  0  0  0  0  0  0  0
   37.7480   33.1740   44.5640 H   0  0  0  0  0  0  0  0  0  0  0  0
   39.4930   33.7520   42.9480 H   0  0  0  0  0  0  0  0  0  0  0  0
   40.8670   31.9630   42.0000 H   0  0  0  0  0  0  0  0  0  0  0  0
   40.6740   29.3260   42.5510 C   0  0  0  0  0  0  0  0  0  0  0  0
   39.9020   28.0380   42.3950 C   0  0  0  0  0  0  0  0  0  0  0  0
   41.2030   29.7140   41.1730 C   0  0  0  0  0  0  0  0  0  0  0  0
  1 12  1  0  0  0  0
  2  1  1  0  0  0  0
  2  9  1  0  0  0  0
  3  2  2  0  0  0  0
  4  6  1  0  0  0  0
  4  3  1  0  0  0  0
  5  4  2  0  0  0  0
  6  7  1  0  0  0  0
  7  8  2  0  0  0  0
  7  1  1  0  0  0  0
 10  3  1  0  0  0  0
 11 16  1  0  0  0  0
 12 11  2  0  0  0  0
 12 13  1  0  0  0  0
 13 14  2  0  0  0  0
 14 15  1  0  0  0  0
 15 19  1  0  0  0  0
 16 15  2  0  0  0  0
 17 11  1  0  0  0  0
 18 13  1  0  0  0  0
 20  6  1  0  0  0  0
 21 20  1  0  0  0  0
 21 26  1  0  0  0  0
 22 21  2  0  0  0  0
 23 24  2  0  0  0  0
 23 22  1  0  0  0  0
 24 25  1  0  0  0  0
 25 20  2  0  0  0  0
 27 22  1  0  0  0  0
 28 23  1  0  0  0  0
 29 24  1  0  0  0  0
 30 29  1  0  0  0  0
 31 29  1  0  0  0  0
M  END
>  <minimizedAffinity>
-5.53595638

>  <minimizedRMSD>
0.0797103792

$$$$
