
 OpenBabel03252513563D

 22 23  0  0  1  0  0  0  0  0999 V2000
   36.7180   29.3830   49.5770 C   0  0  0  0  0  0  0  0  0  0  0  0
   36.7460   29.3020   50.6880 H   0  0  0  0  0  0  0  0  0  0  0  0
   37.2080   28.4710   49.1540 H   0  0  0  0  0  0  0  0  0  0  0  0
   37.9340   32.8700   49.4340 C   0  0  0  0  0  0  0  0  0  0  0  0
   38.7040   32.8900   48.2710 C   0  0  0  0  0  0  0  0  0  0  0  0
   38.7950   31.7000   47.5480 C   0  0  0  0  0  0  0  0  0  0  0  0
   38.1360   30.5890   48.0080 N   0  0  0  0  0  0  0  0  0  0  0  0
   37.3990   30.6310   49.1520 C   0  0  0  0  0  0  0  0  0  0  0  0
   37.3120   31.7770   49.8460 N   0  0  0  0  0  0  0  0  0  0  0  0
   37.7930   33.7340   50.0720 H   0  0  0  0  0  0  0  0  0  0  0  0
   39.1780   33.7980   47.9950 H   0  0  0  0  0  0  0  0  0  0  0  0
   39.3820   31.6810   46.6430 H   0  0  0  0  0  0  0  0  0  0  0  0
   35.2800   29.5010   49.1700 C   0  0  2  0  0  0  0  0  0  0  0  0
   34.1830   29.4490   50.1800 C   0  0  0  0  0  0  0  0  0  0  0  0
   34.4530   28.2520   49.3580 C   0  0  1  0  0  0  0  0  0  0  0  0
   35.0460   30.1780   48.3020 H   0  0  0  0  0  0  0  0  0  0  0  0
   33.2660   30.0470   50.0340 H   0  0  0  0  0  0  0  0  0  0  0  0
   34.4460   29.3430   51.2710 H   0  0  0  0  0  0  0  0  0  0  0  0
   34.9620   27.3590   49.7870 H   0  0  0  0  0  0  0  0  0  0  0  0
   33.5430   27.9510   48.1810 C   0  0  0  0  0  0  0  0  0  0  0  0
   32.1310   27.8210   48.7360 C   0  0  0  0  0  0  0  0  0  0  0  0
   33.8920   26.5740   47.6290 C   0  0  0  0  0  0  0  0  0  0  0  0
  1  2  1  0  0  0  0
  3  1  1  0  0  0  0
  4  9  1  0  0  0  0
  4 10  1  0  0  0  0
  5  4  2  0  0  0  0
  6  7  2  0  0  0  0
  6  5  1  0  0  0  0
  7  8  1  0  0  0  0
  8  1  1  0  0  0  0
  8  9  2  0  0  0  0
 11  5  1  0  0  0  0
 12  6  1  0  0  0  0
 13 16  1  6  0  0  0
 13 15  1  0  0  0  0
 13  1  1  0  0  0  0
 13 14  1  0  0  0  0
 14 18  1  0  0  0  0
 15 19  1  1  0  0  0
 15 14  1  0  0  0  0
 17 14  1  0  0  0  0
 20 21  1  0  0  0  0
 20 15  1  0  0  0  0
 22 20  1  0  0  0  0
M  END
>  <minimizedAffinity>
-4.84785557

>  <minimizedRMSD>
0.727212787

$$$$
