
 OpenBabel03252514063D

 25 27  0  0  0  0  0  0  0  0999 V2000
   36.4180   30.9730   48.7440 N   0  0  0  0  0  0  0  0  0  0  0  0
   36.3820   31.7270   49.8700 C   0  0  0  0  0  0  0  0  0  0  0  0
   37.3660   32.6590   49.7840 N   0  0  0  0  0  0  0  0  0  0  0  0
   37.9860   32.4660   48.6150 C   0  0  0  0  0  0  0  0  0  0  0  0
   39.0470   33.0910   47.9810 C   0  0  0  0  0  0  0  0  0  0  0  0
   39.4790   32.6800   46.7720 N   0  0  0  0  0  0  0  0  0  0  0  0
   38.9020   31.6390   46.1170 C   0  0  0  0  0  0  0  0  0  0  0  0
   37.8740   31.0450   46.7490 N   0  0  0  0  0  0  0  0  0  0  0  0
   37.4070   31.4100   47.9430 C   0  0  0  0  0  0  0  0  0  0  0  0
   39.6960   34.1710   48.5900 N   0  0  0  0  0  0  0  0  0  0  0  0
   35.6830   31.6060   50.7030 H   0  0  0  0  0  0  0  0  0  0  0  0
   39.2880   31.3490   45.1480 H   0  0  0  0  0  0  0  0  0  0  0  0
   40.2060   34.0870   49.5120 H   0  0  0  0  0  0  0  0  0  0  0  0
   39.8330   35.1780   48.3520 H   0  0  0  0  0  0  0  0  0  0  0  0
   34.6630   29.9920   47.3870 C   0  0  0  0  0  0  0  0  0  0  0  0
   35.5230   29.8930   48.4880 C   0  0  0  0  0  0  0  0  0  0  0  0
   35.4220   28.7310   49.2390 C   0  0  0  0  0  0  0  0  0  0  0  0
   34.5260   27.7740   48.8900 N   0  0  0  0  0  0  0  0  0  0  0  0
   33.7190   27.9030   47.8310 C   0  0  0  0  0  0  0  0  0  0  0  0
   33.7910   29.0180   47.0800 N   0  0  0  0  0  0  0  0  0  0  0  0
   34.6900   30.8720   46.7580 H   0  0  0  0  0  0  0  0  0  0  0  0
   36.0750   28.6560   50.0750 H   0  0  0  0  0  0  0  0  0  0  0  0
   32.7400   26.8740   47.4360 C   0  0  0  0  0  3  0  0  0  0  0  0
   33.3010   25.4710   47.4830 C   0  0  0  0  0  1  0  0  0  0  0  0
   31.5700   26.9240   48.4270 C   0  0  0  0  0  1  0  0  0  0  0  0
  1  2  1  0  0  0  0
  2 11  1  0  0  0  0
  3  2  2  0  0  0  0
  4  3  1  0  0  0  0
  5 10  1  0  0  0  0
  5  4  1  0  0  0  0
  6  5  2  0  0  0  0
  7  8  2  0  0  0  0
  7  6  1  0  0  0  0
  8  9  1  0  0  0  0
  9  4  2  0  0  0  0
  9  1  1  0  0  0  0
 10 13  1  0  0  0  0
 12  7  1  0  0  0  0
 14 10  1  0  0  0  0
 15 16  1  0  0  0  0
 16  1  1  0  0  0  0
 16 17  2  0  0  0  0
 17 22  1  0  0  0  0
 18 17  1  0  0  0  0
 19 18  2  0  0  0  0
 20 15  2  0  0  0  0
 20 19  1  0  0  0  0
 21 15  1  0  0  0  0
 23 24  1  0  0  0  0
 23 19  1  0  0  0  0
 23 25  1  0  0  0  0
M  END
>  <minimizedAffinity>
-5.40790462

>  <minimizedRMSD>
3.08510971

$$$$
