
 OpenBabel03252514063D

 25 27  0  0  0  0  0  0  0  0999 V2000
   36.7530   31.2340   48.7650 N   0  0  0  0  0  0  0  0  0  0  0  0
   36.8420   32.1070   49.7980 C   0  0  0  0  0  0  0  0  0  0  0  0
   37.8330   32.9920   49.5170 N   0  0  0  0  0  0  0  0  0  0  0  0
   38.3340   32.6510   48.3240 C   0  0  0  0  0  0  0  0  0  0  0  0
   39.3430   33.1680   47.5280 C   0  0  0  0  0  0  0  0  0  0  0  0
   39.6480   32.6130   46.3380 N   0  0  0  0  0  0  0  0  0  0  0  0
   38.9880   31.5260   45.8600 C   0  0  0  0  0  0  0  0  0  0  0  0
   38.0120   31.0390   46.6480 N   0  0  0  0  0  0  0  0  0  0  0  0
   37.6700   31.5470   47.8310 C   0  0  0  0  0  0  0  0  0  0  0  0
   40.0700   34.2870   47.9490 N   0  0  0  0  0  0  0  0  0  0  0  0
   36.2240   32.1020   50.7010 H   0  0  0  0  0  0  0  0  0  0  0  0
   39.2710   31.1180   44.8980 H   0  0  0  0  0  0  0  0  0  0  0  0
   40.6650   34.2880   48.8230 H   0  0  0  0  0  0  0  0  0  0  0  0
   40.2060   35.2560   47.5870 H   0  0  0  0  0  0  0  0  0  0  0  0
   34.7690   30.2370   47.7860 C   0  0  0  0  0  0  0  0  0  0  0  0
   35.8140   30.1620   48.7170 C   0  0  0  0  0  0  0  0  0  0  0  0
   35.8380   29.0290   49.5180 C   0  0  0  0  0  0  0  0  0  0  0  0
   34.8830   28.0770   49.3740 N   0  0  0  0  0  0  0  0  0  0  0  0
   33.8980   28.1830   48.4740 C   0  0  0  0  0  0  0  0  0  0  0  0
   33.8460   29.2690   47.6800 N   0  0  0  0  0  0  0  0  0  0  0  0
   34.6930   31.0940   47.1300 H   0  0  0  0  0  0  0  0  0  0  0  0
   36.6310   28.9720   50.2240 H   0  0  0  0  0  0  0  0  0  0  0  0
   32.8520   27.1590   48.3020 C   0  0  0  0  0  0  0  0  0  0  0  0
   31.5520   27.7220   47.7730 C   0  0  0  0  0  0  0  0  0  0  0  0
   33.3490   26.1350   47.2730 C   0  0  0  0  0  0  0  0  0  0  0  0
  1  2  1  0  0  0  0
  2 11  1  0  0  0  0
  3  2  2  0  0  0  0
  4  3  1  0  0  0  0
  5 10  1  0  0  0  0
  5  4  2  0  0  0  0
  6  5  1  0  0  0  0
  7  6  2  0  0  0  0
  7  8  1  0  0  0  0
  8  9  2  0  0  0  0
  9  4  1  0  0  0  0
  9  1  1  0  0  0  0
 10 13  1  0  0  0  0
 12  7  1  0  0  0  0
 14 10  1  0  0  0  0
 15 16  1  0  0  0  0
 16  1  1  0  0  0  0
 16 17  2  0  0  0  0
 17 22  1  0  0  0  0
 18 17  1  0  0  0  0
 19 18  2  0  0  0  0
 20 15  2  0  0  0  0
 20 19  1  0  0  0  0
 21 15  1  0  0  0  0
 23 19  1  0  0  0  0
 24 23  1  0  0  0  0
 25 23  1  0  0  0  0
M  END
>  <minimizedAffinity>
-5.61961317

>  <minimizedRMSD>
2.65817618

$$$$
