
     RDKit          3D

 32 34  0  0  0  0  0  0  0  0999 V2000
   37.8066   31.8091   49.0537 N   0  0  0  0  0  0  0  0  0  0  0  0
   38.1972   33.0372   49.4754 C   0  0  0  0  0  0  0  0  0  0  0  0
   38.9453   33.6014   48.4918 N   0  0  0  0  0  0  0  0  0  0  0  0
   39.0021   32.7180   47.4892 C   0  0  0  0  0  0  0  0  0  0  0  0
   39.6072   32.7240   46.2426 C   0  0  0  0  0  0  0  0  0  0  0  0
   39.5003   31.6707   45.4087 N   0  0  0  0  0  0  0  0  0  0  0  0
   38.7993   30.5561   45.7432 C   0  0  0  0  0  0  0  0  0  0  0  0
   38.2192   30.5686   46.9568 N   0  0  0  0  0  0  0  0  0  0  0  0
   38.2928   31.5821   47.8197 C   0  0  0  0  0  0  0  0  0  0  0  0
   35.6962   30.6651   49.4014 C   0  0  0  0  0  0  0  0  0  0  0  0
   37.0026   30.9258   49.8332 C   0  0  0  0  0  0  0  0  0  0  0  0
   37.3990   30.2884   51.0004 C   0  0  0  0  0  0  0  0  0  0  0  0
   36.5357   29.4689   51.6508 N   0  0  0  0  0  0  0  0  0  0  0  0
   35.2941   29.2429   51.2090 C   0  0  0  0  0  0  0  0  0  0  0  0
   34.8766   29.8459   50.0787 N   0  0  0  0  0  0  0  0  0  0  0  0
   40.3468   33.8349   45.8242 N   0  0  0  0  0  0  0  0  0  0  0  0
   37.9532   33.4948   50.4389 H   0  0  0  0  0  0  0  0  0  0  0  0
   38.7440   29.7370   45.0372 H   0  0  0  0  0  0  0  0  0  0  0  0
   35.3242   31.1304   48.4983 H   0  0  0  0  0  0  0  0  0  0  0  0
   38.3906   30.4864   51.3279 H   0  0  0  0  0  0  0  0  0  0  0  0
   41.2166   34.1656   46.3251 H   0  0  0  0  0  0  0  0  0  0  0  0
   40.2646   34.5237   45.0441 H   0  0  0  0  0  0  0  0  0  0  0  0
   34.3416   28.3561   51.9017 C   0  0  0  0  0  0  0  0  0  0  0  0
   34.0059   27.1118   51.1101 C   0  0  0  0  0  0  0  0  0  0  0  0
   34.9884   27.8931   53.2135 C   0  0  0  0  0  0  0  0  0  0  0  0
   33.4103   28.8732   52.2265 H   0  0  0  0  0  0  0  0  0  0  0  0
   34.8446   26.3966   51.3128 H   0  0  0  0  0  0  0  0  0  0  0  0
   33.9329   27.3068   50.0204 H   0  0  0  0  0  0  0  0  0  0  0  0
   33.0548   26.7255   51.4965 H   0  0  0  0  0  0  0  0  0  0  0  0
   35.8974   27.3247   52.9048 H   0  0  0  0  0  0  0  0  0  0  0  0
   35.3349   28.7981   53.7690 H   0  0  0  0  0  0  0  0  0  0  0  0
   34.2553   27.3035   53.7778 H   0  0  0  0  0  0  0  0  0  0  0  0
  1  2  1  0
  1 11  1  0
  3  2  2  0
  4  9  2  0
  4  3  1  0
  5  4  1  0
  6  7  1  0
  6  5  2  0
  7  8  2  0
  8  9  1  0
  9  1  1  0
 10 11  2  0
 10 15  1  0
 11 12  1  0
 12 13  2  0
 14 13  1  0
 15 14  2  0
 16  5  1  0
  2 17  1  0
  7 18  1  0
 10 19  1  0
 12 20  1  0
 16 21  1  0
 16 22  1  0
 23 24  1  0
 23 25  1  0
 23 26  1  0
 24 27  1  0
 24 28  1  0
 24 29  1  0
 25 30  1  0
 25 31  1  0
 25 32  1  0
 14 23  1  0
M  ISO  4  17  14  18  14  19  14  20  14
M  END
>  <DihAtoms>  (1) 
12,13,22,23

>  <DihDeg>  (1) 
-53.21890527804754

$$$$
