
 OpenBabel03252513323D

 15 15  0  0  0  0  0  0  0  0999 V2000
   36.8660   29.9760   49.8510 C   0  0  0  0  0  0  0  0  0  0  0  0
   37.9450   30.7870   49.4510 C   0  0  0  0  0  0  0  0  0  0  0  0
   37.9270   31.2900   48.1380 C   0  0  0  0  0  0  0  0  0  0  0  0
   36.8830   30.9680   47.3430 N   0  0  0  0  0  0  0  0  0  0  0  0
   35.8650   30.1830   47.7780 C   0  0  0  0  0  0  0  0  0  0  0  0
   35.8640   29.6950   49.0200 N   0  0  0  0  0  0  0  0  0  0  0  0
   38.7460   30.9870   50.1750 H   0  0  0  0  0  0  0  0  0  0  0  0
   35.0140   29.9110   47.1540 H   0  0  0  0  0  0  0  0  0  0  0  0
   36.8790   29.4320   51.2580 C   0  0  0  0  0  0  0  0  0  0  0  0
   35.5820   29.1310   51.6410 F   0  0  0  0  0  0  0  0  0  0  0  0
   37.7470   28.3940   51.2970 F   0  0  0  0  0  0  0  0  0  0  0  0
   37.3100   30.4760   52.0920 F   0  0  0  0  0  0  0  0  0  0  0  0
   39.0420   32.1290   47.7220 C   0  0  0  0  0  0  0  0  0  0  0  0
   39.0040   33.3960   48.5850 C   0  0  0  0  0  0  0  0  0  0  0  0
   39.0450   32.5530   46.2900 C   0  0  0  0  0  0  0  0  0  0  0  0
  1  9  1  0  0  0  0
  2  1  1  0  0  0  0
  2  7  1  0  0  0  0
  3  2  2  0  0  0  0
  4  5  2  0  0  0  0
  4  3  1  0  0  0  0
  5  6  1  0  0  0  0
  6  1  2  0  0  0  0
  8  5  1  0  0  0  0
  9 11  1  0  0  0  0
  9 10  1  0  0  0  0
  9 12  1  0  0  0  0
 13  3  1  0  0  0  0
 13 14  1  0  0  0  0
 15 13  1  0  0  0  0
M  END
>  <minimizedAffinity>
-5.09591436

>  <minimizedRMSD>
1.10297573

$$$$
