
 OpenBabel03252513433D

 16 16  0  0  0  0  0  0  0  0999 V2000
   37.2600   30.4020   49.1580 C   0  0  0  0  0  0  0  0  0  0  0  0
   37.0960   31.6080   49.9060 C   0  0  0  0  0  0  0  0  0  0  0  0
   37.7640   32.7340   49.4490 C   0  0  0  0  0  0  0  0  0  0  0  0
   38.5400   32.6440   48.3200 N   0  0  0  0  0  0  0  0  0  0  0  0
   38.6490   31.4810   47.6660 C   0  0  0  0  0  0  0  0  0  0  0  0
   38.0270   30.3740   48.0660 N   0  0  0  0  0  0  0  0  0  0  0  0
   36.4930   31.6970   50.7920 H   0  0  0  0  0  0  0  0  0  0  0  0
   37.7240   33.6930   49.9190 H   0  0  0  0  0  0  0  0  0  0  0  0
   39.4960   31.3910   46.4370 C   0  0  0  0  0  0  0  0  0  0  0  0
   38.8300   30.5290   45.4010 C   0  0  0  0  0  0  0  0  0  0  0  0
   39.6090   32.8010   45.8540 C   0  0  0  0  0  0  0  0  0  0  0  0
   36.5910   29.2920   49.6210 O   0  0  0  0  0  0  0  0  0  0  0  0
   35.3440   29.3100   50.2560 C   0  0  0  0  0  0  0  0  0  0  0  0
   35.4460   29.3230   51.6370 F   0  0  0  0  0  0  0  0  0  0  0  0
   34.5270   30.3330   49.8310 F   0  0  0  0  0  0  0  0  0  0  0  0
   34.7060   28.1230   49.9100 F   0  0  0  0  0  0  0  0  0  0  0  0
  1 12  1  0  0  0  0
  1  2  1  0  0  0  0
  2  7  1  0  0  0  0
  3  2  2  0  0  0  0
  3  8  1  0  0  0  0
  4  3  1  0  0  0  0
  5  6  1  0  0  0  0
  5  4  2  0  0  0  0
  6  1  2  0  0  0  0
  9  5  1  0  0  0  0
 10  9  1  0  0  0  0
 11  9  1  0  0  0  0
 12 13  1  0  0  0  0
 13 14  1  0  0  0  0
 15 13  1  0  0  0  0
 16 13  1  0  0  0  0
M  END
>  <minimizedAffinity>
-5.20814133

>  <minimizedRMSD>
1.22163916

$$$$
