
 OpenBabel03252514083D

 48 52  0  0  0  0  0  0  0  0999 V2000
   32.2430   27.0130   47.6860 C   0  0  0  0  0  0  0  0  0  0  0  0
   34.2700   30.0760   47.6050 C   0  0  0  0  0  0  0  0  0  0  0  0
   35.2850   29.8480   48.5410 C   0  0  0  0  0  0  0  0  0  0  0  0
   35.2500   28.6300   49.1910 C   0  0  0  0  0  0  0  0  0  0  0  0
   34.2700   27.7490   48.8970 N   0  0  0  0  0  0  0  0  0  0  0  0
   33.3120   27.9880   47.9990 C   0  0  0  0  0  0  0  0  0  0  0  0
   33.3230   29.1540   47.3610 N   0  0  0  0  0  0  0  0  0  0  0  0
   34.2530   31.0180   47.0680 H   0  0  0  0  0  0  0  0  0  0  0  0
   36.0290   28.4400   49.9180 H   0  0  0  0  0  0  0  0  0  0  0  0
   36.2560   30.8710   48.7490 N   0  0  0  0  0  0  0  0  0  0  0  0
   36.3860   31.5750   49.8910 C   0  0  0  0  0  0  0  0  0  0  0  0
   37.3990   32.4550   49.7410 N   0  0  0  0  0  0  0  0  0  0  0  0
   37.8890   32.2860   48.5030 C   0  0  0  0  0  0  0  0  0  0  0  0
   38.9070   32.8870   47.7960 C   0  0  0  0  0  0  0  0  0  0  0  0
   39.1950   32.5150   46.5330 N   0  0  0  0  0  0  0  0  0  0  0  0
   38.4940   31.5360   45.9070 C   0  0  0  0  0  0  0  0  0  0  0  0
   37.5050   30.9620   46.6120 N   0  0  0  0  0  0  0  0  0  0  0  0
   37.1780   31.2930   47.8690 C   0  0  0  0  0  0  0  0  0  0  0  0
   35.7680   31.4460   50.7820 H   0  0  0  0  0  0  0  0  0  0  0  0
   38.7020   31.2170   44.8950 H   0  0  0  0  0  0  0  0  0  0  0  0
   39.6690   33.9100   48.3930 N   0  0  0  0  0  0  0  0  0  0  0  0
   40.5700   33.4440   48.6100 H   0  0  0  0  0  0  0  0  0  0  0  0
   39.2680   34.8570   48.5140 H   0  0  0  0  0  0  0  0  0  0  0  0
   31.0990   27.1620   48.7070 C   0  0  0  0  0  0  0  0  0  0  0  0
   30.3320   26.4330   48.4180 H   0  0  0  0  0  0  0  0  0  0  0  0
   31.4750   27.0470   49.7410 H   0  0  0  0  0  0  0  0  0  0  0  0
   30.6750   28.1730   48.5750 H   0  0  0  0  0  0  0  0  0  0  0  0
   31.5980   27.3410   46.3460 C   0  0  0  0  0  0  0  0  0  0  0  0
   30.9210   26.5470   46.0300 H   0  0  0  0  0  0  0  0  0  0  0  0
   31.1260   28.3460   46.3660 H   0  0  0  0  0  0  0  0  0  0  0  0
   32.4240   27.4260   45.6100 H   0  0  0  0  0  0  0  0  0  0  0  0
   32.7100   25.6000   47.6340 C   0  0  0  0  0  0  0  0  0  0  0  0
   32.0490   25.0100   48.2980 H   0  0  0  0  0  0  0  0  0  0  0  0
   33.7440   25.5620   48.0470 H   0  0  0  0  0  0  0  0  0  0  0  0
   32.6970   25.0970   46.2990 N   0  0  0  0  0  0  0  0  0  0  0  0
   33.6900   25.2910   45.4170 C   0  0  0  0  0  3  0  0  0  0  0  0
   33.4010   24.6960   44.2270 N   0  0  0  0  0  0  0  0  0  0  0  0
   32.1920   24.0970   44.3220 C   0  0  0  0  0  0  0  0  0  0  0  0
   31.3980   23.3610   43.4670 C   0  0  0  0  0  0  0  0  0  0  0  0
   31.8760   23.1890   42.3320 O   0  0  0  0  0  0  0  0  0  0  0  0
   30.2090   22.8990   43.9040 N   0  0  0  0  0  0  0  0  0  0  0  0
   29.8620   23.1810   45.1560 C   0  0  0  0  0  0  0  0  0  0  0  0
   28.6000   22.6750   45.5800 N   0  0  0  0  0  0  0  0  0  0  0  0
   30.6030   23.8860   46.0040 N   0  0  0  0  0  0  0  0  0  0  0  0
   31.7980   24.3670   45.6070 C   0  0  0  0  0  0  0  0  0  0  0  0
   29.6730   22.3530   43.1960 H   0  0  0  0  0  0  0  0  0  0  0  0
   27.8650   22.3090   44.9370 H   0  0  0  0  0  0  0  0  0  0  0  0
   28.1750   22.5700   46.5270 H   0  0  0  0  0  0  0  0  0  0  0  0
  1  6  1  0  0  0  0
  1 24  1  0  0  0  0
  2  3  1  0  0  0  0
  3 10  1  0  0  0  0
  3  4  2  0  0  0  0
  4  9  1  0  0  0  0
  5  4  1  0  0  0  0
  6  5  2  0  0  0  0
  7  2  2  0  0  0  0
  7  6  1  0  0  0  0
  8  2  1  0  0  0  0
 10 11  1  0  0  0  0
 11 19  1  0  0  0  0
 12 11  2  0  0  0  0
 13 12  1  0  0  0  0
 14 21  1  0  0  0  0
 14 13  2  0  0  0  0
 15 14  1  0  0  0  0
 16 15  2  0  0  0  0
 16 17  1  0  0  0  0
 17 18  2  0  0  0  0
 18 13  1  0  0  0  0
 18 10  1  0  0  0  0
 20 16  1  0  0  0  0
 21 23  1  0  0  0  0
 21 22  1  0  0  0  0
 24 26  1  0  0  0  0
 25 24  1  0  0  0  0
 27 24  1  0  0  0  0
 28 30  1  0  0  0  0
 28  1  1  0  0  0  0
 29 28  1  0  0  0  0
 31 28  1  0  0  0  0
 32  1  1  0  0  0  0
 32 34  1  0  0  0  0
 32 33  1  0  0  0  0
 35 32  1  0  0  0  0
 36 35  1  0  0  0  0
 37 38  1  0  0  0  0
 37 36  2  0  0  0  0
 38 45  2  0  0  0  0
 39 41  1  0  0  0  0
 39 38  1  0  0  0  0
 40 39  2  0  0  0  0
 41 42  1  0  0  0  0
 42 43  1  0  0  0  0
 42 44  2  0  0  0  0
 43 48  1  0  0  0  0
 45 44  1  0  0  0  0
 45 35  1  0  0  0  0
 46 41  1  0  0  0  0
 47 43  1  0  0  0  0
M  END
>  <minimizedAffinity>
-5.58594751

>  <minimizedRMSD>
2.53925729

$$$$
