
 OpenBabel03252514063D

 26 28  0  0  0  0  0  0  0  0999 V2000
   38.7240   32.2840   45.8950 N   0  0  0  0  0  0  0  0  0  0  0  0
   39.8430   33.0290   45.7160 C   0  0  0  0  0  0  0  0  0  0  0  0
   39.8920   33.4360   44.4260 N   0  0  0  0  0  0  0  0  0  0  0  0
   38.8040   32.9370   43.8240 C   0  0  0  0  0  0  0  0  0  0  0  0
   38.3110   33.0090   42.5330 C   0  0  0  0  0  0  0  0  0  0  0  0
   37.1680   32.4030   42.1840 N   0  0  0  0  0  0  0  0  0  0  0  0
   36.4370   31.6890   43.0840 C   0  0  0  0  0  0  0  0  0  0  0  0
   36.9230   31.6250   44.3360 N   0  0  0  0  0  0  0  0  0  0  0  0
   38.0600   32.2130   44.7310 C   0  0  0  0  0  0  0  0  0  0  0  0
   39.0310   33.7390   41.5570 N   0  0  0  0  0  0  0  0  0  0  0  0
   40.5620   33.2460   46.4950 H   0  0  0  0  0  0  0  0  0  0  0  0
   35.5300   31.2240   42.7510 H   0  0  0  0  0  0  0  0  0  0  0  0
   39.0710   34.7600   41.8100 H   0  0  0  0  0  0  0  0  0  0  0  0
   39.4940   33.3980   40.6730 H   0  0  0  0  0  0  0  0  0  0  0  0
   37.5430   30.5420   47.1000 C   0  0  0  0  0  0  0  0  0  0  0  0
   38.3520   31.6930   47.1330 C   0  0  0  0  0  0  0  0  0  0  0  0
   38.7220   32.1600   48.3900 C   0  0  0  0  0  0  0  0  0  0  0  0
   38.2990   31.5050   49.4960 N   0  0  0  0  0  0  0  0  0  0  0  0
   37.5280   30.4080   49.4350 C   0  0  0  0  0  0  0  0  0  0  0  0
   37.1560   29.9360   48.2380 N   0  0  0  0  0  0  0  0  0  0  0  0
   37.1900   30.0850   46.1620 H   0  0  0  0  0  0  0  0  0  0  0  0
   39.3430   33.0450   48.4120 H   0  0  0  0  0  0  0  0  0  0  0  0
   37.0620   29.6860   50.6490 C   0  0  0  0  0  0  0  0  0  0  0  0
   35.5650   29.3900   50.5200 C   0  0  0  0  0  1  0  0  0  0  0  0
   37.7320   28.3220   50.7600 C   0  0  0  0  0  1  0  0  0  0  0  0
   37.3650   30.4170   51.9230 C   0  0  0  0  0  1  0  0  0  0  0  0
  1 16  1  0  0  0  0
  2  1  1  0  0  0  0
  2 11  1  0  0  0  0
  3  2  2  0  0  0  0
  4  3  1  0  0  0  0
  4  9  1  0  0  0  0
  5  4  2  0  0  0  0
  6  5  1  0  0  0  0
  6  7  2  0  0  0  0
  7  8  1  0  0  0  0
  8  9  2  0  0  0  0
  9  1  1  0  0  0  0
 10 13  1  0  0  0  0
 10  5  1  0  0  0  0
 12  7  1  0  0  0  0
 14 10  1  0  0  0  0
 15 16  2  0  0  0  0
 15 20  1  0  0  0  0
 16 17  1  0  0  0  0
 17 22  1  0  0  0  0
 17 18  2  0  0  0  0
 19 18  1  0  0  0  0
 19 23  1  0  0  0  0
 20 19  2  0  0  0  0
 21 15  1  0  0  0  0
 23 25  1  0  0  0  0
 23 26  1  0  0  0  0
 24 23  1  0  0  0  0
M  END
>  <minimizedAffinity>
-5.12396526

>  <minimizedRMSD>
3.54964781

$$$$
