
 OpenBabel03252514003D

 28 30  0  0  1  0  0  0  0  0999 V2000
   35.3690   29.4010   49.0050 C   0  0  2  0  0  0  0  0  0  0  0  0
   34.2280   29.3990   49.9320 C   0  0  0  0  0  0  0  0  0  0  0  0
   34.5740   28.1200   49.3360 C   0  0  1  0  0  0  0  0  0  0  0  0
   35.3340   29.6450   47.9400 H   0  0  0  0  0  0  0  0  0  0  0  0
   34.4430   29.6190   51.0080 H   0  0  0  0  0  0  0  0  0  0  0  0
   33.3250   29.9860   49.5900 H   0  0  0  0  0  0  0  0  0  0  0  0
   35.2220   27.3630   49.8120 H   0  0  0  0  0  0  0  0  0  0  0  0
   36.7730   29.3670   49.6150 C   0  0  0  0  0  0  0  0  0  0  0  0
   37.2670   28.3990   49.4060 H   0  0  0  0  0  0  0  0  0  0  0  0
   36.6590   29.4510   50.6980 H   0  0  0  0  0  0  0  0  0  0  0  0
   38.3220   32.6760   49.4180 C   0  0  0  0  0  0  0  0  0  0  0  0
   38.8730   32.7010   48.1280 C   0  0  0  0  0  0  0  0  0  0  0  0
   38.6950   31.5530   47.3360 C   0  0  0  0  0  0  0  0  0  0  0  0
   38.0000   30.4820   47.8620 N   0  0  0  0  0  0  0  0  0  0  0  0
   37.4990   30.5330   49.1140 C   0  0  0  0  0  0  0  0  0  0  0  0
   37.6650   31.6350   49.8860 N   0  0  0  0  0  0  0  0  0  0  0  0
   38.5200   33.6080   49.9310 H   0  0  0  0  0  0  0  0  0  0  0  0
   39.4210   33.4750   47.6400 H   0  0  0  0  0  0  0  0  0  0  0  0
   39.0450   31.3890   46.3270 H   0  0  0  0  0  0  0  0  0  0  0  0
   33.6280   27.6160   48.2860 C   0  0  0  0  0  0  0  0  0  0  0  0
   33.9620   26.4880   47.7450 O   0  0  0  0  0  0  0  0  0  0  0  0
   32.4620   28.2420   47.8790 O   0  0  0  0  0  0  0  0  0  0  0  0
   31.2000   27.7770   48.1790 C   0  0  0  0  0  0  0  0  0  0  0  0
   30.7540   27.7780   49.5040 C   0  0  0  0  0  0  0  0  0  0  0  0
   29.4650   27.2590   49.4880 C   0  0  0  0  0  0  0  0  0  0  0  0
   29.2030   26.9710   48.1440 C   0  0  0  0  0  0  0  0  0  0  0  0
   28.2520   26.5490   47.8330 H   0  0  0  0  0  0  0  0  0  0  0  0
   30.2330   27.2880   47.4310 O   0  0  0  0  0  0  0  0  0  0  0  0
  1  4  1  6  0  0  0
  1  3  1  0  0  0  0
  1  8  1  0  0  0  0
  1  2  1  0  0  0  0
  2  5  1  0  0  0  0
  3  7  1  1  0  0  0
  3  2  1  0  0  0  0
  6  2  1  0  0  0  0
  8 10  1  0  0  0  0
  9  8  1  0  0  0  0
 11 16  1  0  0  0  0
 11 17  1  0  0  0  0
 12 11  2  0  0  0  0
 13 14  2  0  0  0  0
 13 12  1  0  0  0  0
 14 15  1  0  0  0  0
 15  8  1  0  0  0  0
 15 16  2  0  0  0  0
 18 12  1  0  0  0  0
 19 13  1  0  0  0  0
 20  3  1  0  0  0  0
 21 20  2  0  0  0  0
 22 23  1  0  0  0  0
 22 20  1  0  0  0  0
 23 24  2  0  0  0  0
 25 24  1  0  0  0  0
 26 25  2  0  0  0  0
 27 26  1  0  0  0  0
 28 26  1  0  0  0  0
 28 23  1  0  0  0  0
M  END
>  <minimizedAffinity>
-5.12755489

>  <minimizedRMSD>
1.24335718

$$$$
