
     RDKit          3D

 35 37  0  0  0  0  0  0  0  0999 V2000
   37.8026   31.8038   49.0540 N   0  0  0  0  0  0  0  0  0  0  0  0
   38.2005   33.0332   49.4657 C   0  0  0  0  0  0  0  0  0  0  0  0
   38.9473   33.5989   48.4895 N   0  0  0  0  0  0  0  0  0  0  0  0
   39.0015   32.7115   47.4862 C   0  0  0  0  0  0  0  0  0  0  0  0
   39.6061   32.7172   46.2414 C   0  0  0  0  0  0  0  0  0  0  0  0
   39.5027   31.6736   45.4074 N   0  0  0  0  0  0  0  0  0  0  0  0
   38.7978   30.5586   45.7452 C   0  0  0  0  0  0  0  0  0  0  0  0
   38.2143   30.5627   46.9560 N   0  0  0  0  0  0  0  0  0  0  0  0
   38.2895   31.5809   47.8231 C   0  0  0  0  0  0  0  0  0  0  0  0
   35.6884   30.6661   49.3930 C   0  0  0  0  0  0  0  0  0  0  0  0
   36.9998   30.9250   49.8315 C   0  0  0  0  0  0  0  0  0  0  0  0
   37.4045   30.2915   51.0024 C   0  0  0  0  0  0  0  0  0  0  0  0
   36.5408   29.4756   51.6506 N   0  0  0  0  0  0  0  0  0  0  0  0
   35.2947   29.2460   51.2103 C   0  0  0  0  0  0  0  0  0  0  0  0
   34.8784   29.8431   50.0850 N   0  0  0  0  0  0  0  0  0  0  0  0
   40.3521   33.8512   45.8376 N   0  0  0  0  0  0  0  0  0  0  0  0
   37.9466   33.4659   50.4254 H   0  0  0  0  0  0  0  0  0  0  0  0
   38.7475   29.7532   45.0404 H   0  0  0  0  0  0  0  0  0  0  0  0
   35.2622   31.1120   48.4810 H   0  0  0  0  0  0  0  0  0  0  0  0
   38.4134   30.4933   51.3359 H   0  0  0  0  0  0  0  0  0  0  0  0
   39.7304   34.6972   45.7586 H   0  0  0  0  0  0  0  0  0  0  0  0
   41.3808   33.9337   45.6245 H   0  0  0  0  0  0  0  0  0  0  0  0
   34.3437   28.3497   51.9211 C   0  0  0  0  0  0  0  0  0  0  0  0
   32.9714   29.0246   51.9984 C   0  0  0  0  0  0  0  0  0  0  0  0
   34.1168   27.0654   51.1334 C   0  0  0  0  0  0  0  0  0  0  0  0
   34.8266   27.9387   53.2800 C   0  0  0  0  0  0  0  0  0  0  0  0
   32.3161   28.3342   52.5753 H   0  0  0  0  0  0  0  0  0  0  0  0
   33.0428   30.0409   52.4123 H   0  0  0  0  0  0  0  0  0  0  0  0
   32.5298   29.0700   50.9839 H   0  0  0  0  0  0  0  0  0  0  0  0
   33.6478   27.3140   50.1483 H   0  0  0  0  0  0  0  0  0  0  0  0
   35.1215   26.6005   50.9589 H   0  0  0  0  0  0  0  0  0  0  0  0
   33.4916   26.4026   51.7396 H   0  0  0  0  0  0  0  0  0  0  0  0
   35.3257   28.7760   53.7899 H   0  0  0  0  0  0  0  0  0  0  0  0
   33.9570   27.6037   53.8771 H   0  0  0  0  0  0  0  0  0  0  0  0
   35.5565   27.0998   53.1947 H   0  0  0  0  0  0  0  0  0  0  0  0
  1  2  1  0
  1 11  1  0
  3  2  2  0
  4  9  2  0
  4  3  1  0
  5  4  1  0
  6  7  1  0
  6  5  2  0
  7  8  2  0
  8  9  1  0
  9  1  1  0
 10 11  2  0
 10 15  1  0
 11 12  1  0
 12 13  2  0
 14 13  1  0
 15 14  2  0
 16  5  1  0
  2 17  1  0
  7 18  1  0
 10 19  1  0
 12 20  1  0
 16 21  1  0
 16 22  1  0
 23 24  1  0
 23 25  1  0
 23 26  1  0
 24 27  1  0
 24 28  1  0
 24 29  1  0
 25 30  1  0
 25 31  1  0
 25 32  1  0
 26 33  1  0
 26 34  1  0
 26 35  1  0
 14 23  1  0
M  ISO  4  17  14  18  14  19  14  20  14
M  END
>  <DihAtoms>  (1) 
12,13,22,23

>  <DihDeg>  (1) 
0.004342639520498452

$$$$
