REMARK  Name = 
REMARK  9 active torsions:
REMARK  status: ('A' for Active; 'I' for Inactive)
REMARK    1  A    between atoms: C_1  and  C_4
REMARK    2  A    between atoms: C_3  and  C_11
REMARK    3  A    between atoms: C_4  and  C_9
REMARK    4  A    between atoms: C_11  and  O_13
REMARK    5  A    between atoms: O_13  and  C_14
REMARK    6  A    between atoms: C_17  and  C_30
REMARK    7  A    between atoms: C_30  and  C_31
REMARK    8  A    between atoms: C_30  and  C_32
REMARK    9  A    between atoms: C_30  and  C_33
REMARK                            x       y       z     vdW  Elec       q    Type
REMARK                         _______ _______ _______ _____ _____    ______ ____
ROOT
ATOM      1  C   UNL     1      35.299  29.407  48.981  0.00  0.00    +0.000 C 
ATOM      2  C   UNL     1      34.188  29.365  49.925  0.00  0.00    +0.000 C 
ATOM      3  C   UNL     1      34.531  28.096  49.351  0.00  0.00    +0.000 C 
ATOM      4  H   UNL     1      35.247  29.612  47.914  0.00  0.00    +0.000 HD
ATOM      5  H   UNL     1      33.246  29.896  49.611  0.00  0.00    +0.000 HD
ATOM      6  H   UNL     1      34.430  29.654  50.981  0.00  0.00    +0.000 HD
ATOM      7  H   UNL     1      35.181  27.326  49.763  0.00  0.00    +0.000 HD
ENDROOT
BRANCH   1   8
ATOM      8  C   UNL     1      36.711  29.386  49.587  0.00  0.00    +0.000 C 
ATOM      9  H   UNL     1      37.236  28.486  49.208  0.00  0.00    +0.000 HD
ATOM     10  H   UNL     1      36.629  29.296  50.674  0.00  0.00    +0.000 HD
BRANCH   8  15
ATOM     11  C   UNL     1      38.078  32.769  49.446  0.00  0.00    +0.000 A 
ATOM     12  C   UNL     1      38.749  32.781  48.208  0.00  0.00    +0.000 A 
ATOM     13  C   UNL     1      38.716  31.600  47.432  0.00  0.00    +0.000 A 
ATOM     14  N   UNL     1      38.038  30.517  47.926  0.00  0.00    +0.000 NA
ATOM     15  C   UNL     1      37.416  30.567  49.119  0.00  0.00    +0.000 A 
ATOM     16  N   UNL     1      37.445  31.697  49.864  0.00  0.00    +0.000 NA
ATOM     17  H   UNL     1      38.172  33.723  49.948  0.00  0.00    +0.000 HD
ATOM     18  H   UNL     1      39.303  33.548  47.721  0.00  0.00    +0.000 HD
ATOM     19  H   UNL     1      39.198  31.502  46.468  0.00  0.00    +0.000 HD
ENDBRANCH   8  15
ENDBRANCH   1   8
BRANCH   3  20
ATOM     20  C   UNL     1      33.570  27.577  48.299  0.00  0.00    +0.000 C 
ATOM     21  O   UNL     1      33.910  26.436  47.807  0.00  0.00    +0.000 OA
BRANCH  20  22
ATOM     22  O   UNL     1      32.410  28.201  47.857  0.00  0.00    +0.000 OA
BRANCH  22  23
ATOM     23  C   UNL     1      31.148  27.820  48.223  0.00  0.00    +0.000 A 
ATOM     24  C   UNL     1      30.629  27.811  49.613  0.00  0.00    +0.000 A 
ATOM     25  C   UNL     1      29.355  27.409  49.810  0.00  0.00    +0.000 A 
ATOM     26  C   UNL     1      28.533  27.008  48.741  0.00  0.00    +0.000 A 
ATOM     27  S   UNL     1      29.636  27.199  47.262  0.00  0.00    +0.000 S 
ATOM     28  H   UNL     1      31.301  28.128  50.388  0.00  0.00    +0.000 HD
ATOM     29  H   UNL     1      28.892  27.369  50.780  0.00  0.00    +0.000 HD
BRANCH  26  30
ATOM     30  C   UNL     1      27.256  26.558  48.529  0.00  0.00    +0.000 C 
ATOM     31  C   UNL     1      27.105  25.957  47.150  0.00  0.00    +0.000 C 
ATOM     32  C   UNL     1      26.859  25.454  49.511  0.00  0.00    +0.000 C 
ATOM     33  C   UNL     1      26.215  27.652  48.661  0.00  0.00    +0.000 C 
ENDBRANCH  26  30
ENDBRANCH  22  23
ENDBRANCH  20  22
ENDBRANCH   3  20
TORSDOF 6
