
 OpenBabel03252513443D

 17 17  0  0  0  0  0  0  0  0999 V2000
   37.6090   30.4660   49.0330 C   0  0  0  0  0  0  0  0  0  0  0  0
   37.8440   31.4790   50.0150 C   0  0  0  0  0  0  0  0  0  0  0  0
   38.5140   32.6310   49.5950 C   0  0  0  0  0  0  0  0  0  0  0  0
   38.9030   32.7210   48.2950 N   0  0  0  0  0  0  0  0  0  0  0  0
   38.6570   31.7390   47.4170 C   0  0  0  0  0  0  0  0  0  0  0  0
   38.0180   30.6160   47.7630 N   0  0  0  0  0  0  0  0  0  0  0  0
   37.5060   31.3340   51.0200 H   0  0  0  0  0  0  0  0  0  0  0  0
   38.7110   33.4220   50.3080 H   0  0  0  0  0  0  0  0  0  0  0  0
   39.1200   31.9310   46.0170 C   0  0  0  0  0  0  0  0  0  0  0  0
   37.9460   32.2790   45.1480 C   0  0  0  0  0  0  0  0  0  0  0  0
   39.9240   30.7570   45.5130 C   0  0  0  0  0  0  0  0  0  0  0  0
   40.0630   33.1390   45.9450 C   0  0  0  0  0  0  0  0  0  0  0  0
   36.9490   29.3310   49.4460 O   0  0  0  0  0  0  0  0  0  0  0  0
   35.7000   29.3080   50.0780 C   0  0  0  0  0  0  0  0  0  0  0  0
   35.7590   29.2340   51.4490 F   0  0  0  0  0  0  0  0  0  0  0  0
   34.8540   30.3070   49.6900 F   0  0  0  0  0  0  0  0  0  0  0  0
   35.0910   28.1130   49.6470 F   0  0  0  0  0  0  0  0  0  0  0  0
  1 13  1  0  0  0  0
  1  2  1  0  0  0  0
  2  7  1  0  0  0  0
  3  2  2  0  0  0  0
  3  8  1  0  0  0  0
  4  3  1  0  0  0  0
  5  6  1  0  0  0  0
  5  4  2  0  0  0  0
  6  1  2  0  0  0  0
  9  5  1  0  0  0  0
 10  9  1  0  0  0  0
 11  9  1  0  0  0  0
 12  9  1  0  0  0  0
 13 14  1  0  0  0  0
 14 15  1  0  0  0  0
 16 14  1  0  0  0  0
 17 14  1  0  0  0  0
M  END
>  <minimizedAffinity>
-5.52590656

>  <minimizedRMSD>
1.12006319

$$$$
