
 OpenBabel03252513533D

 38 40  0  0  1  0  0  0  0  0999 V2000
   37.1060   30.6150   46.1210 C   0  0  0  0  0  0  0  0  0  0  0  0
   37.9920   30.4570   46.9870 O   0  0  0  0  0  0  0  0  0  0  0  0
   37.5080   31.3520   44.9810 N   0  0  0  0  0  0  0  0  0  0  0  0
   37.1010   30.8150   43.6940 C   0  0  0  0  0  0  0  0  0  0  0  0
   37.8870   31.4330   42.5620 C   0  0  0  0  0  0  0  0  0  0  0  0
   39.1770   31.6490   43.0380 O   0  0  0  0  0  0  0  0  0  0  0  0
   39.0930   32.8120   43.8180 C   0  0  0  0  0  0  0  0  0  0  0  0
   38.2800   32.5720   45.0660 C   0  0  2  0  0  0  0  0  0  0  0  0
   36.0140   30.8270   43.5250 H   0  0  0  0  0  0  0  0  0  0  0  0
   37.4030   29.7330   43.7140 H   0  0  0  0  0  0  0  0  0  0  0  0
   37.3910   32.4040   42.3270 H   0  0  0  0  0  0  0  0  0  0  0  0
   37.8720   30.8180   41.6620 H   0  0  0  0  0  0  0  0  0  0  0  0
   38.5790   33.6090   43.2210 H   0  0  0  0  0  0  0  0  0  0  0  0
   40.0970   33.2190   44.0360 H   0  0  0  0  0  0  0  0  0  0  0  0
   37.6770   33.4560   45.3520 H   0  0  0  0  0  0  0  0  0  0  0  0
   34.0320   29.2090   47.7970 C   0  0  0  0  0  0  0  0  0  0  0  0
   35.3530   29.7620   47.6390 C   0  0  0  0  0  0  0  0  0  0  0  0
   35.7820   30.0550   46.3400 C   0  0  0  0  0  0  0  0  0  0  0  0
   34.9090   29.7890   45.3330 N   0  0  0  0  0  0  0  0  0  0  0  0
   33.6960   29.2770   45.5250 C   0  0  0  0  0  0  0  0  0  0  0  0
   33.2720   28.9940   46.7410 N   0  0  0  0  0  0  0  0  0  0  0  0
   35.9730   29.9370   48.5090 H   0  0  0  0  0  0  0  0  0  0  0  0
   32.8900   29.0600   44.2870 C   0  0  0  0  0  0  0  0  0  0  0  0
   32.7550   30.2570   43.5850 F   0  0  0  0  0  0  0  0  0  0  0  0
   33.5730   28.2150   43.4360 F   0  0  0  0  0  0  0  0  0  0  0  0
   31.6640   28.4630   44.5420 F   0  0  0  0  0  0  0  0  0  0  0  0
   33.6260   28.9250   49.0970 O   0  0  0  0  0  0  0  0  0  0  0  0
   34.0530   29.6060   50.2300 C   0  0  0  0  0  0  0  0  0  0  0  0
   35.0410   28.9610   50.9400 F   0  0  0  0  0  0  0  0  0  0  0  0
   34.3910   30.9190   50.0080 F   0  0  0  0  0  0  0  0  0  0  0  0
   32.9000   29.6490   51.0590 F   0  0  0  0  0  0  0  0  0  0  0  0
   39.2390   32.3430   46.0700 O   0  0  0  0  0  0  0  0  0  0  0  0
   39.4940   33.1620   47.1420 C   0  0  0  0  0  0  0  0  0  0  0  0
   38.8220   32.9390   48.3440 C   0  0  0  0  0  0  0  0  0  0  0  0
   39.2760   33.9090   49.2400 C   0  0  0  0  0  0  0  0  0  0  0  0
   40.2010   34.6710   48.5300 C   0  0  0  0  0  0  0  0  0  0  0  0
   40.7430   35.5200   48.9510 H   0  0  0  0  0  0  0  0  0  0  0  0
   40.2990   34.1960   47.2990 O   0  0  0  0  0  0  0  0  0  0  0  0
  1 18  1  0  0  0  0
  1  2  2  0  0  0  0
  3  8  1  0  0  0  0
  3  1  1  0  0  0  0
  4 10  1  0  0  0  0
  4  3  1  0  0  0  0
  5  6  1  0  0  0  0
  5  4  1  0  0  0  0
  6  7  1  0  0  0  0
  7 14  1  0  0  0  0
  7  8  1  0  0  0  0
  8 15  1  1  0  0  0
  8 32  1  0  0  0  0
  9  4  1  0  0  0  0
 11  5  1  0  0  0  0
 12  5  1  0  0  0  0
 13  7  1  0  0  0  0
 16 27  1  0  0  0  0
 17 16  1  0  0  0  0
 17 22  1  0  0  0  0
 18 17  2  0  0  0  0
 19 20  2  0  0  0  0
 19 18  1  0  0  0  0
 20 21  1  0  0  0  0
 21 16  2  0  0  0  0
 23 26  1  0  0  0  0
 23 20  1  0  0  0  0
 24 23  1  0  0  0  0
 25 23  1  0  0  0  0
 27 28  1  0  0  0  0
 28 29  1  0  0  0  0
 28 31  1  0  0  0  0
 30 28  1  0  0  0  0
 32 33  1  0  0  0  0
 33 38  1  0  0  0  0
 33 34  2  0  0  0  0
 34 35  1  0  0  0  0
 36 37  1  0  0  0  0
 36 35  2  0  0  0  0
 38 36  1  0  0  0  0
M  END
>  <minimizedAffinity>
-5.43899012

>  <minimizedRMSD>
1.68155038

$$$$
