
 OpenBabel03252511453D

 36 39  0  0  1  0  0  0  0  0999 V2000
   35.8010   30.5550   47.1960 C   0  0  0  0  0  0  0  0  0  0  0  0
   36.8090   30.8080   48.1080 C   0  0  0  0  0  0  0  0  0  0  0  0
   36.8650   29.8820   49.1980 C   0  0  0  0  0  0  0  0  0  0  0  0
   35.9670   28.8580   49.2720 N   0  0  0  0  0  0  0  0  0  0  0  0
   35.0250   28.6810   48.3560 C   0  0  0  0  0  0  0  0  0  0  0  0
   34.9430   29.5320   47.3150 N   0  0  0  0  0  0  0  0  0  0  0  0
   35.7940   31.2760   46.3890 H   0  0  0  0  0  0  0  0  0  0  0  0
   37.5990   29.9790   49.9610 H   0  0  0  0  0  0  0  0  0  0  0  0
   37.8080   31.8530   48.1360 C   0  0  0  0  0  0  0  0  0  0  0  0
   37.8150   32.5140   49.3420 C   0  0  0  0  0  0  0  0  0  0  0  0
   38.6980   33.5580   49.5930 C   0  0  0  0  0  0  0  0  0  0  0  0
   39.5900   33.9420   48.6050 C   0  0  0  0  0  0  0  0  0  0  0  0
   39.5720   33.2680   47.3980 C   0  0  0  0  0  0  0  0  0  0  0  0
   40.4330   33.5810   46.3400 C   0  0  0  0  0  0  0  0  0  0  0  0
   40.3610   32.8700   45.1620 C   0  0  0  0  0  0  0  0  0  0  0  0
   39.4650   31.8490   44.9820 C   0  0  0  0  0  0  0  0  0  0  0  0
   38.6100   31.5310   46.0200 C   0  0  0  0  0  0  0  0  0  0  0  0
   38.6950   32.2470   47.1790 C   0  0  0  0  0  0  0  0  0  0  0  0
   37.1780   32.3200   50.1950 H   0  0  0  0  0  0  0  0  0  0  0  0
   38.7510   34.1050   50.5020 H   0  0  0  0  0  0  0  0  0  0  0  0
   40.2990   34.7500   48.7490 H   0  0  0  0  0  0  0  0  0  0  0  0
   41.1250   34.3990   46.5340 H   0  0  0  0  0  0  0  0  0  0  0  0
   41.0690   33.1860   44.4020 H   0  0  0  0  0  0  0  0  0  0  0  0
   39.4360   31.3050   44.0330 H   0  0  0  0  0  0  0  0  0  0  0  0
   37.8980   30.7080   45.8540 H   0  0  0  0  0  0  0  0  0  0  0  0
   34.0660   27.5570   48.4850 C   0  0  1  0  0  0  0  0  0  0  0  0
   32.6180   27.8410   48.6670 C   0  0  0  0  0  0  0  0  0  0  0  0
   33.1180   27.2480   47.3610 C   0  0  2  0  0  0  0  0  0  0  0  0
   34.4450   26.6830   49.0730 H   0  0  0  0  0  0  0  0  0  0  0  0
   31.9770   27.2330   49.3390 H   0  0  0  0  0  0  0  0  0  0  0  0
   32.3000   28.9050   48.5750 H   0  0  0  0  0  0  0  0  0  0  0  0
   33.1320   27.8870   46.4630 H   0  0  0  0  0  0  0  0  0  0  0  0
   32.6700   25.8450   47.1130 C   0  0  0  0  0  0  0  0  0  0  0  0
   32.2310   25.6320   45.6670 C   0  0  0  0  0  0  0  0  0  0  0  0
   31.5100   25.5360   48.0380 C   0  0  0  0  0  0  0  0  0  0  0  0
   33.7430   24.8170   47.3900 C   0  0  0  0  0  0  0  0  0  0  0  0
  1  6  2  0  0  0  0
  1  2  1  0  0  0  0
  2  9  1  0  0  0  0
  2  3  2  0  0  0  0
  3  4  1  0  0  0  0
  3  8  1  0  0  0  0
  5 26  1  0  0  0  0
  5  4  2  0  0  0  0
  6  5  1  0  0  0  0
  7  1  1  0  0  0  0
  9 10  1  0  0  0  0
 10 11  2  0  0  0  0
 10 19  1  0  0  0  0
 11 20  1  0  0  0  0
 12 21  1  0  0  0  0
 12 11  1  0  0  0  0
 13 12  2  0  0  0  0
 14 22  1  0  0  0  0
 14 13  1  0  0  0  0
 15 14  2  0  0  0  0
 16 15  1  0  0  0  0
 16 17  2  0  0  0  0
 17 18  1  0  0  0  0
 18 13  1  0  0  0  0
 18  9  2  0  0  0  0
 23 15  1  0  0  0  0
 24 16  1  0  0  0  0
 25 17  1  0  0  0  0
 26 27  1  0  0  0  0
 26 29  1  1  0  0  0
 27 30  1  0  0  0  0
 28 32  1  6  0  0  0
 28 26  1  0  0  0  0
 28 27  1  0  0  0  0
 31 27  1  0  0  0  0
 33 28  1  0  0  0  0
 33 36  1  0  0  0  0
 33 35  1  0  0  0  0
 34 33  1  0  0  0  0
M  END
>  <minimizedAffinity>
-6.53935957

>  <minimizedRMSD>
0.828918755

$$$$
