
 OpenBabel03252514073D

 48 52  0  0  0  0  0  0  0  0999 V2000
   32.2680   27.0440   47.7230 C   0  0  0  0  0  0  0  0  0  0  0  0
   34.3000   30.1030   47.6130 C   0  0  0  0  0  0  0  0  0  0  0  0
   35.3170   29.8810   48.5480 C   0  0  0  0  0  0  0  0  0  0  0  0
   35.2830   28.6670   49.2060 C   0  0  0  0  0  0  0  0  0  0  0  0
   34.3010   27.7860   48.9220 N   0  0  0  0  0  0  0  0  0  0  0  0
   33.3400   28.0200   48.0250 C   0  0  0  0  0  0  0  0  0  0  0  0
   33.3510   29.1810   47.3790 N   0  0  0  0  0  0  0  0  0  0  0  0
   34.2830   31.0420   47.0690 H   0  0  0  0  0  0  0  0  0  0  0  0
   36.0640   28.4820   49.9320 H   0  0  0  0  0  0  0  0  0  0  0  0
   36.2910   30.9040   48.7450 N   0  0  0  0  0  0  0  0  0  0  0  0
   36.4260   31.6170   49.8810 C   0  0  0  0  0  0  0  0  0  0  0  0
   37.4390   32.4940   49.7210 N   0  0  0  0  0  0  0  0  0  0  0  0
   37.9250   32.3150   48.4830 C   0  0  0  0  0  0  0  0  0  0  0  0
   38.9410   32.9090   47.7680 C   0  0  0  0  0  0  0  0  0  0  0  0
   39.2250   32.5280   46.5070 N   0  0  0  0  0  0  0  0  0  0  0  0
   38.5200   31.5450   45.8910 C   0  0  0  0  0  0  0  0  0  0  0  0
   37.5330   30.9770   46.6030 N   0  0  0  0  0  0  0  0  0  0  0  0
   37.2100   31.3190   47.8590 C   0  0  0  0  0  0  0  0  0  0  0  0
   35.8100   31.4940   50.7750 H   0  0  0  0  0  0  0  0  0  0  0  0
   38.7250   31.2180   44.8800 H   0  0  0  0  0  0  0  0  0  0  0  0
   39.7070   33.9350   48.3550 N   0  0  0  0  0  0  0  0  0  0  0  0
   40.6080   33.4700   48.5720 H   0  0  0  0  0  0  0  0  0  0  0  0
   39.3080   34.8840   48.4700 H   0  0  0  0  0  0  0  0  0  0  0  0
   31.1010   27.2460   48.7070 C   0  0  0  0  0  0  0  0  0  0  0  0
   30.3330   26.5130   48.4260 H   0  0  0  0  0  0  0  0  0  0  0  0
   31.4480   27.1680   49.7540 H   0  0  0  0  0  0  0  0  0  0  0  0
   30.6910   28.2550   48.5240 H   0  0  0  0  0  0  0  0  0  0  0  0
   31.6630   27.3250   46.3550 C   0  0  0  0  0  0  0  0  0  0  0  0
   30.9850   26.5260   46.0520 H   0  0  0  0  0  0  0  0  0  0  0  0
   31.2020   28.3350   46.3220 H   0  0  0  0  0  0  0  0  0  0  0  0
   32.5080   27.3720   45.6380 H   0  0  0  0  0  0  0  0  0  0  0  0
   32.7210   25.6250   47.7400 C   0  0  0  0  0  0  0  0  0  0  0  0
   32.0130   25.0610   48.3770 H   0  0  0  0  0  0  0  0  0  0  0  0
   33.7270   25.5880   48.2180 H   0  0  0  0  0  0  0  0  0  0  0  0
   32.7850   25.0850   46.4210 N   0  0  0  0  0  0  0  0  0  0  0  0
   33.8270   25.2550   45.5920 C   0  0  0  0  0  3  0  0  0  0  0  0
   33.6070   24.6270   44.4040 N   0  0  0  0  0  0  0  0  0  0  0  0
   32.3950   24.0290   44.4480 C   0  0  0  0  0  0  0  0  0  0  0  0
   31.6510   23.2670   43.5690 C   0  0  0  0  0  0  0  0  0  0  0  0
   32.1930   23.0650   42.4680 O   0  0  0  0  0  0  0  0  0  0  0  0
   30.4400   22.8150   43.9500 N   0  0  0  0  0  0  0  0  0  0  0  0
   30.0210   23.1330   45.1720 C   0  0  0  0  0  0  0  0  0  0  0  0
   28.7370   22.6380   45.5360 N   0  0  0  0  0  0  0  0  0  0  0  0
   30.7120   23.8630   46.0400 N   0  0  0  0  0  0  0  0  0  0  0  0
   31.9280   24.3350   45.6990 C   0  0  0  0  0  0  0  0  0  0  0  0
   29.9460   22.2500   43.2280 H   0  0  0  0  0  0  0  0  0  0  0  0
   28.0390   22.2510   44.8620 H   0  0  0  0  0  0  0  0  0  0  0  0
   28.2580   22.5580   46.4600 H   0  0  0  0  0  0  0  0  0  0  0  0
  1 32  1  0  0  0  0
  1  6  1  0  0  0  0
  1 24  1  0  0  0  0
  2  3  1  0  0  0  0
  3 10  1  0  0  0  0
  3  4  2  0  0  0  0
  4  9  1  0  0  0  0
  5  4  1  0  0  0  0
  6  5  2  0  0  0  0
  7  2  2  0  0  0  0
  7  6  1  0  0  0  0
  8  2  1  0  0  0  0
 10 11  1  0  0  0  0
 11 19  1  0  0  0  0
 12 11  2  0  0  0  0
 13 12  1  0  0  0  0
 14 21  1  0  0  0  0
 14 13  2  0  0  0  0
 15 14  1  0  0  0  0
 16 15  2  0  0  0  0
 16 17  1  0  0  0  0
 17 18  2  0  0  0  0
 18 13  1  0  0  0  0
 18 10  1  0  0  0  0
 20 16  1  0  0  0  0
 21 23  1  0  0  0  0
 21 22  1  0  0  0  0
 24 26  1  0  0  0  0
 25 24  1  0  0  0  0
 27 24  1  0  0  0  0
 28  1  1  0  0  0  0
 29 28  1  0  0  0  0
 30 28  1  0  0  0  0
 31 28  1  0  0  0  0
 32 34  1  0  0  0  0
 32 33  1  0  0  0  0
 35 32  1  0  0  0  0
 36 35  1  0  0  0  0
 37 38  1  0  0  0  0
 37 36  2  0  0  0  0
 38 45  2  0  0  0  0
 39 41  1  0  0  0  0
 39 38  1  0  0  0  0
 40 39  2  0  0  0  0
 41 42  1  0  0  0  0
 42 43  1  0  0  0  0
 42 44  2  0  0  0  0
 43 48  1  0  0  0  0
 45 44  1  0  0  0  0
 45 35  1  0  0  0  0
 46 41  1  0  0  0  0
 47 43  1  0  0  0  0
M  END
>  <minimizedAffinity>
-5.55999565

>  <minimizedRMSD>
2.33209372

$$$$
