
 OpenBabel03252514043D

 33 35  0  0  1  0  0  0  0  0999 V2000
   35.2680   29.2520   48.7600 C   0  0  2  0  0  0  0  0  0  0  0  0
   34.0880   29.2060   49.6150 C   0  0  0  0  0  0  0  0  0  0  0  0
   34.5070   27.9310   49.1090 C   0  0  1  0  0  0  0  0  0  0  0  0
   35.2950   29.4250   47.6870 H   0  0  0  0  0  0  0  0  0  0  0  0
   33.1600   29.7010   49.2130 H   0  0  0  0  0  0  0  0  0  0  0  0
   34.2380   29.5320   50.6780 H   0  0  0  0  0  0  0  0  0  0  0  0
   35.1420   27.1920   49.5940 H   0  0  0  0  0  0  0  0  0  0  0  0
   36.6280   29.2880   49.4750 C   0  0  0  0  0  0  0  0  0  0  0  0
   37.2370   28.4400   49.1020 H   0  0  0  0  0  0  0  0  0  0  0  0
   36.4690   29.1430   50.5470 H   0  0  0  0  0  0  0  0  0  0  0  0
   37.7180   32.7720   49.5410 C   0  0  0  0  0  0  0  0  0  0  0  0
   38.5480   32.8590   48.4060 C   0  0  0  0  0  0  0  0  0  0  0  0
   38.7180   31.6930   47.6260 C   0  0  0  0  0  0  0  0  0  0  0  0
   38.0700   30.5500   48.0170 N   0  0  0  0  0  0  0  0  0  0  0  0
   37.2900   30.5300   49.1140 C   0  0  0  0  0  0  0  0  0  0  0  0
   37.1250   31.6460   49.8620 N   0  0  0  0  0  0  0  0  0  0  0  0
   37.6640   33.7220   50.0560 H   0  0  0  0  0  0  0  0  0  0  0  0
   39.0970   33.6770   48.0040 H   0  0  0  0  0  0  0  0  0  0  0  0
   39.3320   31.6500   46.7370 H   0  0  0  0  0  0  0  0  0  0  0  0
   33.6460   27.3560   48.0020 C   0  0  0  0  0  0  0  0  0  0  0  0
   33.8830   26.1140   47.7550 O   0  0  0  0  0  0  0  0  0  0  0  0
   32.6680   28.0280   47.2790 O   0  0  0  0  0  0  0  0  0  0  0  0
   31.3610   28.1290   47.6690 C   0  0  0  0  0  0  0  0  0  0  0  0
   30.8020   27.5820   48.9300 C   0  0  0  0  0  0  0  0  0  0  0  0
   29.4870   27.7690   49.1730 C   0  0  0  0  0  0  0  0  0  0  0  0
   28.6590   28.4580   48.2680 C   0  0  0  0  0  0  0  0  0  0  0  0
   29.8200   28.9180   46.8960 S   0  0  0  0  0  0  0  0  0  0  0  0
   31.4810   27.0660   49.5820 H   0  0  0  0  0  0  0  0  0  0  0  0
   28.9930   27.4090   50.0580 H   0  0  0  0  0  0  0  0  0  0  0  0
   27.3490   28.8410   48.1490 C   0  0  0  0  0  0  0  0  0  0  0  0
   26.4110   27.7560   48.6270 C   0  0  0  0  0  1  0  0  0  0  0  0
   27.0260   30.0750   48.9940 C   0  0  0  0  0  1  0  0  0  0  0  0
   26.9590   29.1780   46.7230 C   0  0  0  0  0  1  0  0  0  0  0  0
  1  4  1  6  0  0  0
  1  3  1  0  0  0  0
  1  8  1  0  0  0  0
  1  2  1  0  0  0  0
  2  6  1  0  0  0  0
  3  7  1  1  0  0  0
  3  2  1  0  0  0  0
  5  2  1  0  0  0  0
  8 10  1  0  0  0  0
  9  8  1  0  0  0  0
 11 16  1  0  0  0  0
 11 17  1  0  0  0  0
 12 11  2  0  0  0  0
 13 14  2  0  0  0  0
 13 12  1  0  0  0  0
 14 15  1  0  0  0  0
 15  8  1  0  0  0  0
 15 16  2  0  0  0  0
 18 12  1  0  0  0  0
 19 13  1  0  0  0  0
 20  3  1  0  0  0  0
 21 20  2  0  0  0  0
 22 23  1  0  0  0  0
 22 20  1  0  0  0  0
 23 24  2  0  0  0  0
 24 25  1  0  0  0  0
 24 28  1  0  0  0  0
 25 29  1  0  0  0  0
 26 25  2  0  0  0  0
 27 23  1  0  0  0  0
 27 26  1  0  0  0  0
 30 26  1  0  0  0  0
 30 31  1  0  0  0  0
 30 32  1  0  0  0  0
 33 30  1  0  0  0  0
M  END
>  <minimizedAffinity>
-5.89413118

>  <minimizedRMSD>
1.29619586

$$$$
