
 OpenBabel03252511573D

 32 34  0  0  0  0  0  0  0  0999 V2000
   36.3250   30.2800   47.3670 N   0  0  0  0  0  0  0  0  0  0  0  0
   35.0520   30.0470   46.9620 C   0  0  0  0  0  0  0  0  0  0  0  0
   34.7140   30.1200   45.6230 C   0  0  0  0  0  0  0  0  0  0  0  0
   35.7570   30.4380   44.7870 C   0  0  0  0  0  0  0  0  0  0  0  0
   35.4820   30.5150   43.5420 O   0  0  0  0  0  0  0  0  0  0  0  0
   37.0400   30.6800   45.1340 N   0  0  0  0  0  0  0  0  0  0  0  0
   37.2720   30.5840   46.4740 C   0  0  0  0  0  0  0  0  0  0  0  0
   38.4370   30.7920   46.8700 O   0  0  0  0  0  0  0  0  0  0  0  0
   34.2840   29.8010   47.6850 H   0  0  0  0  0  0  0  0  0  0  0  0
   33.7260   29.9460   45.2410 H   0  0  0  0  0  0  0  0  0  0  0  0
   36.8560   31.4190   49.3500 C   0  0  0  0  0  0  0  0  0  0  0  0
   36.6010   30.1900   48.7330 C   0  0  0  0  0  0  0  0  0  0  0  0
   36.6580   29.0400   49.5160 C   0  0  0  0  0  0  0  0  0  0  0  0
   36.9550   29.1420   50.8330 N   0  0  0  0  0  0  0  0  0  0  0  0
   37.2000   30.3560   51.4080 C   0  0  0  0  0  0  0  0  0  0  0  0
   37.1470   31.4990   50.6500 N   0  0  0  0  0  0  0  0  0  0  0  0
   36.8710   32.4500   49.0270 H   0  0  0  0  0  0  0  0  0  0  0  0
   36.4530   28.1270   48.9870 H   0  0  0  0  0  0  0  0  0  0  0  0
   37.4140   30.2170   52.4500 H   0  0  0  0  0  0  0  0  0  0  0  0
   38.0050   31.0010   44.1800 C   0  0  0  0  0  0  0  0  0  0  0  0
   38.4440   32.2590   43.8320 C   0  0  0  0  0  0  0  0  0  0  0  0
   39.3920   32.5180   42.8900 C   0  0  0  0  0  0  0  0  0  0  0  0
   39.9610   31.4550   42.2310 C   0  0  0  0  0  0  0  0  0  0  0  0
   39.5190   30.1800   42.5810 C   0  0  0  0  0  0  0  0  0  0  0  0
   38.5710   29.9600   43.5250 N   0  0  0  0  0  0  0  0  0  0  0  0
   37.9760   33.0890   44.3700 H   0  0  0  0  0  0  0  0  0  0  0  0
   39.6770   33.5400   42.6790 H   0  0  0  0  0  0  0  0  0  0  0  0
   40.7120   31.6280   41.4830 H   0  0  0  0  0  0  0  0  0  0  0  0
   40.1100   29.0020   41.8910 C   0  0  0  0  0  0  0  0  0  0  0  0
   39.6910   27.7210   42.6060 C   0  0  0  0  0  0  0  0  0  0  0  0
   41.6420   29.0690   41.9360 C   0  0  0  0  0  0  0  0  0  0  0  0
   39.6950   28.9800   40.4490 C   0  0  0  0  0  0  0  0  0  0  0  0
  1 12  1  0  0  0  0
  2  1  1  0  0  0  0
  2  9  1  0  0  0  0
  3  2  2  0  0  0  0
  4  6  1  0  0  0  0
  4  3  1  0  0  0  0
  5  4  2  0  0  0  0
  6  7  1  0  0  0  0
  7  8  2  0  0  0  0
  7  1  1  0  0  0  0
 10  3  1  0  0  0  0
 11 16  1  0  0  0  0
 12 11  2  0  0  0  0
 12 13  1  0  0  0  0
 13 14  2  0  0  0  0
 14 15  1  0  0  0  0
 15 19  1  0  0  0  0
 16 15  2  0  0  0  0
 17 11  1  0  0  0  0
 18 13  1  0  0  0  0
 20  6  1  0  0  0  0
 21 20  1  0  0  0  0
 21 26  1  0  0  0  0
 22 21  2  0  0  0  0
 23 24  2  0  0  0  0
 23 22  1  0  0  0  0
 24 25  1  0  0  0  0
 25 20  2  0  0  0  0
 27 22  1  0  0  0  0
 28 23  1  0  0  0  0
 29 31  1  0  0  0  0
 29 24  1  0  0  0  0
 29 30  1  0  0  0  0
 32 29  1  0  0  0  0
M  END
>  <minimizedAffinity>
-5.39241552

>  <minimizedRMSD>
0.649138927

$$$$
