REMARK  Name = 
REMARK  7 active torsions:
REMARK  status: ('A' for Active; 'I' for Inactive)
REMARK    1  A    between atoms: N_1  and  C_12
REMARK    2  A    between atoms: C_5  and  N_10
REMARK    3  A    between atoms: C_15  and  C_17
REMARK    4  A    between atoms: C_17  and  C_18
REMARK    5  A    between atoms: C_17  and  C_19
REMARK    6  A    between atoms: C_17  and  C_20
REMARK    7  A    between atoms: C_20  and  N_35
REMARK                            x       y       z     vdW  Elec       q    Type
REMARK                         _______ _______ _______ _____ _____    ______ ____
ROOT
ATOM      1  C   UNL     1      32.747  26.840  47.486  0.00  0.00    +0.000 C 
ENDROOT
BRANCH   1   6
ATOM      2  C   UNL     1      34.670  29.969  47.401  0.00  0.00    +0.000 A 
ATOM      3  C   UNL     1      35.521  29.887  48.509  0.00  0.00    +0.000 A 
ATOM      4  C   UNL     1      35.414  28.741  49.273  0.00  0.00    +0.000 A 
ATOM      5  N   UNL     1      34.523  27.790  48.922  0.00  0.00    +0.000 NA
ATOM      6  C   UNL     1      33.721  27.891  47.860  0.00  0.00    +0.000 A 
ATOM      7  N   UNL     1      33.804  28.984  47.109  0.00  0.00    +0.000 NA
ATOM      8  H   UNL     1      34.715  30.850  46.769  0.00  0.00    +0.000 HD
ATOM      9  H   UNL     1      36.067  28.664  50.133  0.00  0.00    +0.000 HD
BRANCH   3  10
ATOM     10  N   UNL     1      36.414  30.970  48.759  0.00  0.00    +0.000 N 
ATOM     11  C   UNL     1      36.392  31.733  49.869  0.00  0.00    +0.000 A 
ATOM     12  N   UNL     1      37.370  32.659  49.775  0.00  0.00    +0.000 NA
ATOM     13  C   UNL     1      37.991  32.459  48.603  0.00  0.00    +0.000 A 
ATOM     14  C   UNL     1      39.045  33.080  47.970  0.00  0.00    +0.000 A 
ATOM     15  N   UNL     1      39.479  32.666  46.763  0.00  0.00    +0.000 NA
ATOM     16  C   UNL     1      38.895  31.622  46.123  0.00  0.00    +0.000 A 
ATOM     17  N   UNL     1      37.869  31.028  46.755  0.00  0.00    +0.000 NA
ATOM     18  C   UNL     1      37.399  31.400  47.954  0.00  0.00    +0.000 A 
ATOM     19  H   UNL     1      35.693  31.612  50.700  0.00  0.00    +0.000 HD
ATOM     20  H   UNL     1      39.221  31.267  45.154  0.00  0.00    +0.000 HD
BRANCH  14  21
ATOM     21  N   UNL     1      39.691  34.170  48.586  0.00  0.00    +0.000 N 
ATOM     22  H   UNL     1      40.587  33.765  48.915  0.00  0.00    +0.000 HD
ATOM     23  H   UNL     1      39.233  35.099  48.616  0.00  0.00    +0.000 HD
ENDBRANCH  14  21
ENDBRANCH   3  10
ENDBRANCH   1   6
BRANCH   1  24
ATOM     24  C   UNL     1      31.544  26.892  48.446  0.00  0.00    +0.000 C 
ATOM     25  H   UNL     1      30.851  26.109  48.113  0.00  0.00    +0.000 HD
ATOM     26  H   UNL     1      31.873  26.796  49.498  0.00  0.00    +0.000 HD
ATOM     27  H   UNL     1      31.051  27.869  48.297  0.00  0.00    +0.000 HD
ENDBRANCH   1  24
BRANCH   1  28
ATOM     28  C   UNL     1      32.150  27.130  46.116  0.00  0.00    +0.000 C 
ATOM     29  H   UNL     1      31.553  26.290  45.760  0.00  0.00    +0.000 HD
ATOM     30  H   UNL     1      31.602  28.096  46.116  0.00  0.00    +0.000 HD
ATOM     31  H   UNL     1      33.004  27.284  45.425  0.00  0.00    +0.000 HD
ENDBRANCH   1  28
BRANCH   1  32
ATOM     32  C   UNL     1      33.323  25.467  47.452  0.00  0.00    +0.000 C 
ATOM     33  H   UNL     1      32.500  24.770  47.206  0.00  0.00    +0.000 HD
ATOM     34  H   UNL     1      33.695  25.222  48.474  0.00  0.00    +0.000 HD
BRANCH  32  35
ATOM     35  N   UNL     1      34.389  25.374  46.508  0.00  0.00    +0.000 N 
ATOM     36  C   UNL     1      35.270  24.362  46.473  0.00  0.00    +0.000 A 
ATOM     37  N   UNL     1      36.172  24.542  45.468  0.00  0.00    +0.000 NA
ATOM     38  C   UNL     1      35.882  25.695  44.825  0.00  0.00    +0.000 A 
ATOM     39  C   UNL     1      36.425  26.381  43.759  0.00  0.00    +0.000 A 
ATOM     40  O   UNL     1      37.418  25.839  43.243  0.00  0.00    +0.000 OA
ATOM     41  N   UNL     1      35.865  27.543  43.367  0.00  0.00    +0.000 N 
ATOM     42  C   UNL     1      34.802  27.972  44.041  0.00  0.00    +0.000 A 
ATOM     43  N   UNL     1      34.239  29.202  43.596  0.00  0.00    +0.000 N 
ATOM     44  N   UNL     1      34.255  27.336  45.071  0.00  0.00    +0.000 NA
ATOM     45  C   UNL     1      34.784  26.171  45.495  0.00  0.00    +0.000 A 
ATOM     46  H   UNL     1      36.337  27.995  42.555  0.00  0.00    +0.000 HD
ATOM     47  H   UNL     1      34.717  29.872  42.953  0.00  0.00    +0.000 HD
ATOM     48  H   UNL     1      33.322  29.660  43.793  0.00  0.00    +0.000 HD
ENDBRANCH  32  35
ENDBRANCH   1  32
TORSDOF 7
