
 OpenBabel03252513563D

 23 24  0  0  1  0  0  0  0  0999 V2000
   36.8130   29.3450   49.6480 C   0  0  0  0  0  0  0  0  0  0  0  0
   36.8050   29.4080   50.7560 H   0  0  0  0  0  0  0  0  0  0  0  0
   37.2830   28.3890   49.3760 H   0  0  0  0  0  0  0  0  0  0  0  0
   38.4090   32.6540   49.4040 C   0  0  0  0  0  0  0  0  0  0  0  0
   38.8950   32.6680   48.0980 C   0  0  0  0  0  0  0  0  0  0  0  0
   38.6750   31.5340   47.2850 C   0  0  0  0  0  0  0  0  0  0  0  0
   37.9880   30.4870   47.8610 N   0  0  0  0  0  0  0  0  0  0  0  0
   37.5400   30.5210   49.1260 C   0  0  0  0  0  0  0  0  0  0  0  0
   37.7490   31.6040   49.9030 N   0  0  0  0  0  0  0  0  0  0  0  0
   38.5420   33.4970   50.0900 H   0  0  0  0  0  0  0  0  0  0  0  0
   39.4190   33.5280   47.7360 H   0  0  0  0  0  0  0  0  0  0  0  0
   39.0330   31.5090   46.2790 H   0  0  0  0  0  0  0  0  0  0  0  0
   35.3810   29.4420   49.1810 C   0  0  2  0  0  0  0  0  0  0  0  0
   34.2700   29.3980   50.1600 C   0  0  0  0  0  0  0  0  0  0  0  0
   34.5620   28.1980   49.3520 C   0  0  1  0  0  0  0  0  0  0  0  0
   35.1680   30.0860   48.2950 H   0  0  0  0  0  0  0  0  0  0  0  0
   33.3340   29.9740   50.0220 H   0  0  0  0  0  0  0  0  0  0  0  0
   34.4920   29.2880   51.2610 H   0  0  0  0  0  0  0  0  0  0  0  0
   35.0060   27.3020   49.8300 H   0  0  0  0  0  0  0  0  0  0  0  0
   33.6000   27.8980   48.2280 C   0  0  0  0  0  0  0  0  0  0  0  0
   33.8870   26.5230   47.6230 C   0  0  0  0  0  0  0  0  0  0  0  0
   32.1700   27.8340   48.7070 C   0  0  0  0  0  0  0  0  0  0  0  0
   33.7320   28.9300   47.1560 C   0  0  0  0  0  0  0  0  0  0  0  0
  1  2  1  0  0  0  0
  3  1  1  0  0  0  0
  4  9  1  0  0  0  0
  4 10  1  0  0  0  0
  5  4  2  0  0  0  0
  6  7  2  0  0  0  0
  6  5  1  0  0  0  0
  7  8  1  0  0  0  0
  8  1  1  0  0  0  0
  8  9  2  0  0  0  0
 11  5  1  0  0  0  0
 12  6  1  0  0  0  0
 13 16  1  6  0  0  0
 13 15  1  0  0  0  0
 13  1  1  0  0  0  0
 13 14  1  0  0  0  0
 14 18  1  0  0  0  0
 15 19  1  1  0  0  0
 15 14  1  0  0  0  0
 17 14  1  0  0  0  0
 20 22  1  0  0  0  0
 20 15  1  0  0  0  0
 21 20  1  0  0  0  0
 23 20  1  0  0  0  0
M  END
>  <minimizedAffinity>
-5.09965038

>  <minimizedRMSD>
0.16648528

$$$$
