
 OpenBabel03252514083D

 41 44  0  0  0  0  0  0  0  0999 V2000
   34.1000   30.0130   47.5050 C   0  0  0  0  0  0  0  0  0  0  0  0
   35.0730   29.7900   48.5100 C   0  0  0  0  0  0  0  0  0  0  0  0
   34.9040   28.6640   49.2940 C   0  0  0  0  0  0  0  0  0  0  0  0
   33.8450   27.8500   49.0720 N   0  0  0  0  0  0  0  0  0  0  0  0
   32.9320   28.0890   48.1060 C   0  0  0  0  0  0  0  0  0  0  0  0
   33.0690   29.1650   47.3340 N   0  0  0  0  0  0  0  0  0  0  0  0
   34.1670   30.8810   46.8460 H   0  0  0  0  0  0  0  0  0  0  0  0
   35.6470   28.5100   50.0480 H   0  0  0  0  0  0  0  0  0  0  0  0
   36.1260   30.7390   48.6170 N   0  0  0  0  0  0  0  0  0  0  0  0
   36.4420   31.3790   49.7810 C   0  0  0  0  0  0  0  0  0  0  0  0
   37.4810   32.2100   49.5500 N   0  0  0  0  0  0  0  0  0  0  0  0
   37.7960   32.0750   48.2520 C   0  0  0  0  0  0  0  0  0  0  0  0
   38.7520   32.6500   47.4370 C   0  0  0  0  0  0  0  0  0  0  0  0
   38.8530   32.3270   46.1310 N   0  0  0  0  0  0  0  0  0  0  0  0
   38.0200   31.4220   45.5590 C   0  0  0  0  0  0  0  0  0  0  0  0
   37.0940   30.8680   46.3540 N   0  0  0  0  0  0  0  0  0  0  0  0
   36.9560   31.1560   47.6550 C   0  0  0  0  0  0  0  0  0  0  0  0
   35.9670   31.2720   50.7540 H   0  0  0  0  0  0  0  0  0  0  0  0
   38.1390   31.1960   44.5090 H   0  0  0  0  0  0  0  0  0  0  0  0
   39.6460   33.5960   47.9740 N   0  0  0  0  0  0  0  0  0  0  0  0
   40.2870   33.3900   48.7700 H   0  0  0  0  0  0  0  0  0  0  0  0
   39.8200   34.5930   47.7020 H   0  0  0  0  0  0  0  0  0  0  0  0
   31.7840   27.1880   47.8780 C   0  0  0  0  0  0  0  0  0  0  0  0
   30.7650   27.3400   48.9980 C   0  0  0  0  0  0  0  0  0  0  0  0
   29.8350   26.8420   48.6460 H   0  0  0  0  0  0  0  0  0  0  0  0
   31.1960   26.7610   49.8560 H   0  0  0  0  0  0  0  0  0  0  0  0
   30.6230   28.4070   49.2490 H   0  0  0  0  0  0  0  0  0  0  0  0
   31.0460   27.5710   46.6040 C   0  0  0  0  0  0  0  0  0  0  0  0
   30.7910   26.6850   45.9830 H   0  0  0  0  0  0  0  0  0  0  0  0
   31.6570   28.3280   46.0400 H   0  0  0  0  0  0  0  0  0  0  0  0
   30.0820   28.0800   46.7930 H   0  0  0  0  0  0  0  0  0  0  0  0
   32.1740   25.7380   47.7330 C   0  0  0  0  0  0  0  0  0  0  0  0
   32.7730   25.4880   48.6280 H   0  0  0  0  0  0  0  0  0  0  0  0
   31.2390   25.1540   47.8090 H   0  0  0  0  0  0  0  0  0  0  0  0
   32.8480   25.4820   46.4890 N   0  0  0  0  0  0  0  0  0  0  0  0
   32.2480   24.8610   45.4690 N   0  0  0  0  0  0  0  0  0  0  0  0
   33.0780   24.7470   44.4440 C   0  0  0  0  0  0  0  0  0  0  0  0
   32.8340   24.2770   43.4820 H   0  0  0  0  0  0  0  0  0  0  0  0
   34.2980   25.3260   44.8060 C   0  0  0  0  0  3  0  0  0  0  0  0
   34.1020   25.7700   46.0920 C   0  0  0  0  0  0  0  0  0  0  0  0
   34.8320   26.2750   46.7070 H   0  0  0  0  0  0  0  0  0  0  0  0
  1  2  1  0  0  0  0
  2  9  1  0  0  0  0
  2  3  2  0  0  0  0
  3  8  1  0  0  0  0
  4  3  1  0  0  0  0
  5  4  2  0  0  0  0
  6  1  2  0  0  0  0
  6  5  1  0  0  0  0
  7  1  1  0  0  0  0
  9 10  1  0  0  0  0
 10 18  1  0  0  0  0
 11 10  2  0  0  0  0
 12 11  1  0  0  0  0
 13 20  1  0  0  0  0
 13 12  2  0  0  0  0
 14 13  1  0  0  0  0
 15 14  2  0  0  0  0
 15 16  1  0  0  0  0
 16 17  2  0  0  0  0
 17 12  1  0  0  0  0
 17  9  1  0  0  0  0
 19 15  1  0  0  0  0
 20 21  1  0  0  0  0
 22 20  1  0  0  0  0
 23  5  1  0  0  0  0
 23 24  1  0  0  0  0
 24 27  1  0  0  0  0
 24 26  1  0  0  0  0
 25 24  1  0  0  0  0
 28 31  1  0  0  0  0
 28 23  1  0  0  0  0
 29 28  1  0  0  0  0
 30 28  1  0  0  0  0
 32 34  1  0  0  0  0
 32 23  1  0  0  0  0
 32 33  1  0  0  0  0
 35 32  1  0  0  0  0
 36 35  1  0  0  0  0
 37 39  1  0  0  0  0
 37 36  2  0  0  0  0
 38 37  1  0  0  0  0
 39 40  2  0  0  0  0
 40 35  1  0  0  0  0
 40 41  1  0  0  0  0
M  END
>  <minimizedAffinity>
-5.21338606

>  <minimizedRMSD>
1.13950551

$$$$
