
 OpenBabel03252514083D

 41 44  0  0  0  0  0  0  0  0999 V2000
   34.1750   30.1030   47.5520 C   0  0  0  0  0  0  0  0  0  0  0  0
   35.1620   29.8620   48.5390 C   0  0  0  0  0  0  0  0  0  0  0  0
   35.0170   28.7090   49.2870 C   0  0  0  0  0  0  0  0  0  0  0  0
   33.9670   27.8870   49.0500 N   0  0  0  0  0  0  0  0  0  0  0  0
   33.0410   28.1440   48.1020 C   0  0  0  0  0  0  0  0  0  0  0  0
   33.1550   29.2460   47.3640 N   0  0  0  0  0  0  0  0  0  0  0  0
   34.2220   30.9930   46.9210 H   0  0  0  0  0  0  0  0  0  0  0  0
   35.7710   28.5420   50.0290 H   0  0  0  0  0  0  0  0  0  0  0  0
   36.2030   30.8220   48.6660 N   0  0  0  0  0  0  0  0  0  0  0  0
   36.4790   31.4770   49.8320 C   0  0  0  0  0  0  0  0  0  0  0  0
   37.5170   32.3160   49.6210 N   0  0  0  0  0  0  0  0  0  0  0  0
   37.8690   32.1710   48.3340 C   0  0  0  0  0  0  0  0  0  0  0  0
   38.8430   32.7470   47.5400 C   0  0  0  0  0  0  0  0  0  0  0  0
   38.9840   32.4110   46.2410 N   0  0  0  0  0  0  0  0  0  0  0  0
   38.1750   31.4930   45.6550 C   0  0  0  0  0  0  0  0  0  0  0  0
   37.2330   30.9370   46.4300 N   0  0  0  0  0  0  0  0  0  0  0  0
   37.0560   31.2380   47.7230 C   0  0  0  0  0  0  0  0  0  0  0  0
   35.9770   31.3750   50.7920 H   0  0  0  0  0  0  0  0  0  0  0  0
   38.3270   31.2570   44.6110 H   0  0  0  0  0  0  0  0  0  0  0  0
   39.7120   33.7070   48.0930 N   0  0  0  0  0  0  0  0  0  0  0  0
   40.3320   33.5150   48.9090 H   0  0  0  0  0  0  0  0  0  0  0  0
   39.8840   34.7030   47.8150 H   0  0  0  0  0  0  0  0  0  0  0  0
   31.9030   27.2340   47.8570 C   0  0  0  0  0  0  0  0  0  0  0  0
   30.8920   27.3390   48.9890 C   0  0  0  0  0  0  0  0  0  0  0  0
   29.9650   26.8380   48.6300 H   0  0  0  0  0  0  0  0  0  0  0  0
   31.3380   26.7410   49.8260 H   0  0  0  0  0  0  0  0  0  0  0  0
   30.7380   28.3960   49.2730 H   0  0  0  0  0  0  0  0  0  0  0  0
   31.1490   27.6440   46.6010 C   0  0  0  0  0  0  0  0  0  0  0  0
   30.9010   26.7740   45.9560 H   0  0  0  0  0  0  0  0  0  0  0  0
   31.7450   28.4260   46.0540 H   0  0  0  0  0  0  0  0  0  0  0  0
   30.1810   28.1340   46.8130 H   0  0  0  0  0  0  0  0  0  0  0  0
   32.3120   25.7940   47.6660 C   0  0  0  0  0  0  0  0  0  0  0  0
   33.0070   25.5580   48.4930 H   0  0  0  0  0  0  0  0  0  0  0  0
   31.4050   25.1870   47.8360 H   0  0  0  0  0  0  0  0  0  0  0  0
   32.8580   25.5570   46.3580 N   0  0  0  0  0  0  0  0  0  0  0  0
   34.1100   25.8990   46.0380 N   0  0  0  0  0  0  0  0  0  0  0  0
   34.3710   25.5750   44.7790 C   0  0  0  0  0  0  0  0  0  0  0  0
   35.3260   25.7480   44.2680 H   0  0  0  0  0  0  0  0  0  0  0  0
   33.2240   24.9860   44.2370 C   0  0  0  0  0  3  0  0  0  0  0  0
   32.3090   24.9980   45.2620 C   0  0  0  0  0  0  0  0  0  0  0  0
   31.3000   24.6200   45.2170 H   0  0  0  0  0  0  0  0  0  0  0  0
  1  2  1  0  0  0  0
  2  9  1  0  0  0  0
  2  3  2  0  0  0  0
  3  8  1  0  0  0  0
  4  3  1  0  0  0  0
  5  4  2  0  0  0  0
  6  1  2  0  0  0  0
  6  5  1  0  0  0  0
  7  1  1  0  0  0  0
  9 10  1  0  0  0  0
 10 18  1  0  0  0  0
 11 10  2  0  0  0  0
 12 11  1  0  0  0  0
 13 20  1  0  0  0  0
 13 12  2  0  0  0  0
 14 13  1  0  0  0  0
 15 14  2  0  0  0  0
 15 16  1  0  0  0  0
 16 17  2  0  0  0  0
 17 12  1  0  0  0  0
 17  9  1  0  0  0  0
 19 15  1  0  0  0  0
 20 21  1  0  0  0  0
 22 20  1  0  0  0  0
 23  5  1  0  0  0  0
 23 24  1  0  0  0  0
 24 27  1  0  0  0  0
 24 26  1  0  0  0  0
 25 24  1  0  0  0  0
 28 31  1  0  0  0  0
 28 23  1  0  0  0  0
 29 28  1  0  0  0  0
 30 28  1  0  0  0  0
 32 34  1  0  0  0  0
 32 23  1  0  0  0  0
 32 33  1  0  0  0  0
 35 32  1  0  0  0  0
 36 35  1  0  0  0  0
 37 36  2  0  0  0  0
 38 37  1  0  0  0  0
 39 37  1  0  0  0  0
 39 40  2  0  0  0  0
 40 35  1  0  0  0  0
 41 40  1  0  0  0  0
M  END
>  <minimizedAffinity>
-5.19066525

>  <minimizedRMSD>
1.11946547

$$$$
