
 OpenBabel03252511113D

 32 34  0  0  0  0  0  0  0  0999 V2000
   32.6260   28.2900   47.7920 C   0  0  0  0  0  0  0  0  0  0  0  0
   33.2520   29.1370   46.8910 C   0  0  0  0  0  0  0  0  0  0  0  0
   34.4110   29.7640   47.3010 C   0  0  0  0  0  0  0  0  0  0  0  0
   34.9970   29.6180   48.5300 C   0  0  0  0  0  0  0  0  0  0  0  0
   34.3180   28.7540   49.3860 C   0  0  0  0  0  0  0  0  0  0  0  0
   33.1550   28.0930   49.0430 C   0  0  0  0  0  0  0  0  0  0  0  0
   32.8320   29.2890   45.9070 H   0  0  0  0  0  0  0  0  0  0  0  0
   34.8830   30.4270   46.5690 H   0  0  0  0  0  0  0  0  0  0  0  0
   34.7460   28.6010   50.3870 H   0  0  0  0  0  0  0  0  0  0  0  0
   32.7230   27.4430   49.8050 H   0  0  0  0  0  0  0  0  0  0  0  0
   37.6980   30.8500   50.6280 C   0  0  0  0  0  0  0  0  0  0  0  0
   38.5240   31.5350   49.6990 C   0  0  0  0  0  0  0  0  0  0  0  0
   38.1160   31.5560   48.3410 C   0  0  0  0  0  0  0  0  0  0  0  0
   36.9650   30.9230   48.0070 N   0  0  0  0  0  0  0  0  0  0  0  0
   36.2040   30.2780   48.9320 C   0  0  0  0  0  0  0  0  0  0  0  0
   36.5730   30.2490   50.2170 N   0  0  0  0  0  0  0  0  0  0  0  0
   38.0300   30.8480   51.6630 H   0  0  0  0  0  0  0  0  0  0  0  0
   39.4390   32.0400   49.9610 H   0  0  0  0  0  0  0  0  0  0  0  0
   38.9090   32.2450   47.3000 C   0  0  0  0  0  0  0  0  0  0  0  0
   38.1360   32.6700   46.2340 F   0  0  0  0  0  0  0  0  0  0  0  0
   39.4970   33.4120   47.8100 F   0  0  0  0  0  0  0  0  0  0  0  0
   39.8540   31.3960   46.7900 F   0  0  0  0  0  0  0  0  0  0  0  0
   31.1330   27.4760   47.3910 S   0  0  0  0  0  0  0  0  0  0  0  0
   30.3430   28.2710   46.4540 O   0  0  0  0  0  0  0  0  0  0  0  0
   30.3550   27.2800   48.7000 O   0  0  0  0  0  0  0  0  0  0  0  0
   31.5250   23.4710   44.7840 H   0  0  0  0  0  0  0  0  0  0  0  0
   31.6340   24.1100   45.6010 N   0  0  0  0  0  0  0  0  0  0  0  0
   31.2000   25.3660   45.6940 N   0  0  0  0  0  0  0  0  0  0  0  0
   31.5290   25.8560   46.8880 C   0  0  0  0  0  0  0  0  0  0  0  0
   32.1950   24.9030   47.6010 C   0  0  0  0  0  0  0  0  0  0  0  0
   32.2540   23.8060   46.7770 C   0  0  0  0  0  0  0  0  0  0  0  0
   32.7050   22.8510   46.9830 H   0  0  0  0  0  0  0  0  0  0  0  0
  1  6  1  0  0  0  0
  2  3  1  0  0  0  0
  2  1  2  0  0  0  0
  3  4  2  0  0  0  0
  4 15  1  0  0  0  0
  4  5  1  0  0  0  0
  5  9  1  0  0  0  0
  6  5  2  0  0  0  0
  6 10  1  0  0  0  0
  7  2  1  0  0  0  0
  8  3  1  0  0  0  0
 11 17  1  0  0  0  0
 12 18  1  0  0  0  0
 12 11  2  0  0  0  0
 13 12  1  0  0  0  0
 14 13  2  0  0  0  0
 14 15  1  0  0  0  0
 15 16  2  0  0  0  0
 16 11  1  0  0  0  0
 19 21  1  0  0  0  0
 19 13  1  0  0  0  0
 20 19  1  0  0  0  0
 22 19  1  0  0  0  0
 23  1  1  0  0  0  0
 23 25  2  0  0  0  0
 24 23  2  0  0  0  0
 26 27  1  0  0  0  0
 27 28  1  0  0  0  0
 27 31  1  0  0  0  0
 28 29  2  0  0  0  0
 29 23  1  0  0  0  0
 29 30  1  0  0  0  0
 31 32  1  0  0  0  0
 31 30  2  0  0  0  0
M  END
>  <minimizedAffinity>
-5.89746761

>  <minimizedRMSD>
1.315732

$$$$
