
 OpenBabel03252514083D

 41 44  0  0  0  0  0  0  0  0999 V2000
   34.4800   30.0870   47.4990 C   0  0  0  0  0  0  0  0  0  0  0  0
   35.4440   29.9010   48.5200 C   0  0  0  0  0  0  0  0  0  0  0  0
   35.3940   28.7020   49.2040 C   0  0  0  0  0  0  0  0  0  0  0  0
   34.4520   27.7850   48.8760 N   0  0  0  0  0  0  0  0  0  0  0  0
   33.5460   27.9910   47.8970 C   0  0  0  0  0  0  0  0  0  0  0  0
   33.5690   29.1360   47.2200 N   0  0  0  0  0  0  0  0  0  0  0  0
   34.4550   31.0090   46.9140 H   0  0  0  0  0  0  0  0  0  0  0  0
   36.1290   28.5770   49.9720 H   0  0  0  0  0  0  0  0  0  0  0  0
   36.3660   30.9600   48.7430 N   0  0  0  0  0  0  0  0  0  0  0  0
   36.3630   31.7290   49.8720 C   0  0  0  0  0  0  0  0  0  0  0  0
   37.3560   32.6400   49.7760 N   0  0  0  0  0  0  0  0  0  0  0  0
   37.9590   32.4250   48.5970 C   0  0  0  0  0  0  0  0  0  0  0  0
   39.0210   33.0220   47.9440 C   0  0  0  0  0  0  0  0  0  0  0  0
   39.4340   32.5970   46.7320 N   0  0  0  0  0  0  0  0  0  0  0  0
   38.8240   31.5640   46.0980 C   0  0  0  0  0  0  0  0  0  0  0  0
   37.7950   30.9890   46.7350 N   0  0  0  0  0  0  0  0  0  0  0  0
   37.3500   31.3750   47.9390 C   0  0  0  0  0  0  0  0  0  0  0  0
   35.6950   31.6600   50.7280 H   0  0  0  0  0  0  0  0  0  0  0  0
   39.1900   31.2600   45.1280 H   0  0  0  0  0  0  0  0  0  0  0  0
   39.6940   34.0990   48.5530 N   0  0  0  0  0  0  0  0  0  0  0  0
   40.1580   34.0310   49.4840 H   0  0  0  0  0  0  0  0  0  0  0  0
   39.8420   35.0810   48.2170 H   0  0  0  0  0  0  0  0  0  0  0  0
   32.5260   26.9780   47.5540 C   0  0  0  0  0  0  0  0  0  0  0  0
   31.3850   27.0170   48.5600 C   0  0  0  0  0  0  0  0  0  0  0  0
   30.5530   26.4270   48.1130 H   0  0  0  0  0  0  0  0  0  0  0  0
   31.7810   26.4790   49.4600 H   0  0  0  0  0  0  0  0  0  0  0  0
   31.1090   28.0610   48.7900 H   0  0  0  0  0  0  0  0  0  0  0  0
   31.8910   27.2920   46.2080 C   0  0  0  0  0  0  0  0  0  0  0  0
   31.7950   26.3890   45.5670 H   0  0  0  0  0  0  0  0  0  0  0  0
   32.4760   28.1120   45.7080 H   0  0  0  0  0  0  0  0  0  0  0  0
   30.8650   27.6980   46.2920 H   0  0  0  0  0  0  0  0  0  0  0  0
   33.0770   25.5760   47.4570 C   0  0  0  0  0  0  0  0  0  0  0  0
   33.6170   25.3900   48.4030 H   0  0  0  0  0  0  0  0  0  0  0  0
   32.2050   24.8980   47.4540 H   0  0  0  0  0  0  0  0  0  0  0  0
   33.8820   25.3930   46.2800 N   0  0  0  0  0  0  0  0  0  0  0  0
   34.8080   24.4340   46.1940 N   0  0  0  0  0  0  0  0  0  0  0  0
   35.4090   24.4740   45.0140 C   0  0  0  0  0  0  0  0  0  0  0  0
   36.2070   23.7960   44.6880 H   0  0  0  0  0  0  0  0  0  0  0  0
   34.8480   25.5210   44.2770 C   0  0  0  0  0  3  0  0  0  0  0  0
   33.8990   26.0630   45.1110 C   0  0  0  0  0  0  0  0  0  0  0  0
   33.2570   26.8990   44.8830 H   0  0  0  0  0  0  0  0  0  0  0  0
  1  2  1  0  0  0  0
  2  9  1  0  0  0  0
  2  3  2  0  0  0  0
  3  8  1  0  0  0  0
  4  3  1  0  0  0  0
  5  4  2  0  0  0  0
  6  1  2  0  0  0  0
  6  5  1  0  0  0  0
  7  1  1  0  0  0  0
  9 10  1  0  0  0  0
 10 18  1  0  0  0  0
 11 10  2  0  0  0  0
 12 11  1  0  0  0  0
 13 20  1  0  0  0  0
 13 12  1  0  0  0  0
 14 13  2  0  0  0  0
 15 14  1  0  0  0  0
 15 16  2  0  0  0  0
 16 17  1  0  0  0  0
 17 12  2  0  0  0  0
 17  9  1  0  0  0  0
 19 15  1  0  0  0  0
 20 21  1  0  0  0  0
 22 20  1  0  0  0  0
 23  5  1  0  0  0  0
 23 24  1  0  0  0  0
 24 27  1  0  0  0  0
 24 26  1  0  0  0  0
 25 24  1  0  0  0  0
 28 31  1  0  0  0  0
 28 23  1  0  0  0  0
 29 28  1  0  0  0  0
 30 28  1  0  0  0  0
 32 23  1  0  0  0  0
 32 33  1  0  0  0  0
 34 32  1  0  0  0  0
 35 32  1  0  0  0  0
 36 35  1  0  0  0  0
 37 36  2  0  0  0  0
 38 37  1  0  0  0  0
 39 37  1  0  0  0  0
 39 40  2  0  0  0  0
 40 35  1  0  0  0  0
 41 40  1  0  0  0  0
M  END
>  <minimizedAffinity>
-5.41918707

>  <minimizedRMSD>
0.419864535

$$$$
