
 OpenBabel03252513303D

 42 45  0  0  0  0  0  0  0  0999 V2000
   31.7460   26.2310   47.5550 C   0  0  0  0  0  0  0  0  0  0  0  0
   31.4590   25.1380   46.8220 C   0  0  0  0  0  0  0  0  0  0  0  0
   32.4210   24.3870   46.1690 C   0  0  0  0  0  0  0  0  0  0  0  0
   33.7250   24.8190   46.3050 C   0  0  0  0  0  0  0  0  0  0  0  0
   34.0420   25.9290   47.0450 C   0  0  0  0  0  0  0  0  0  0  0  0
   33.0510   26.6550   47.6840 C   0  0  0  0  0  0  0  0  0  0  0  0
   30.4370   24.7840   46.7060 H   0  0  0  0  0  0  0  0  0  0  0  0
   32.1990   23.5080   45.5780 H   0  0  0  0  0  0  0  0  0  0  0  0
   34.5510   24.3130   45.8410 H   0  0  0  0  0  0  0  0  0  0  0  0
   35.0710   26.2610   47.1460 H   0  0  0  0  0  0  0  0  0  0  0  0
   29.4030   27.5140   50.0980 C   0  0  0  0  0  0  0  0  0  0  0  0
   28.7060   28.5040   49.3960 C   0  0  0  0  0  0  0  0  0  0  0  0
   29.0610   28.7030   48.0640 C   0  0  0  0  0  0  0  0  0  0  0  0
   30.0590   27.9340   47.5180 N   0  0  0  0  0  0  0  0  0  0  0  0
   30.7020   26.9950   48.2290 C   0  0  0  0  0  0  0  0  0  0  0  0
   30.3590   26.8070   49.5030 N   0  0  0  0  0  0  0  0  0  0  0  0
   29.1200   27.3620   51.1410 H   0  0  0  0  0  0  0  0  0  0  0  0
   28.5530   29.4610   47.4650 H   0  0  0  0  0  0  0  0  0  0  0  0
   27.6330   29.3200   50.0100 C   0  0  0  0  0  0  0  0  0  0  0  0
   28.0420   30.5770   50.3700 F   0  0  0  0  0  0  0  0  0  0  0  0
   27.1130   28.7120   51.1350 F   0  0  0  0  0  0  0  0  0  0  0  0
   26.5820   29.4680   49.0940 F   0  0  0  0  0  0  0  0  0  0  0  0
   33.3390   27.8570   48.4910 C   0  0  0  0  0  0  0  0  0  0  0  0
   32.3690   28.2320   48.9390 H   0  0  0  0  0  0  0  0  0  0  0  0
   33.9160   27.5220   49.3500 H   0  0  0  0  0  0  0  0  0  0  0  0
   33.8680   29.0110   47.7170 C   0  0  0  0  0  0  0  0  0  0  0  0
   33.1150   29.8150   47.5470 H   0  0  0  0  0  0  0  0  0  0  0  0
   34.1400   28.6450   46.6910 H   0  0  0  0  0  0  0  0  0  0  0  0
   35.1000   29.5130   48.3280 C   0  0  0  0  0  0  0  0  0  0  0  0
   35.7660   28.8810   49.3580 C   0  0  0  0  0  0  0  0  0  0  0  0
   36.8830   29.6070   49.6970 C   0  0  0  0  0  0  0  0  0  0  0  0
   36.8630   30.6840   48.8430 N   0  0  0  0  0  0  0  0  0  0  0  0
   35.8000   30.6270   48.0280 N   0  0  0  0  0  0  0  0  0  0  0  0
   35.5890   27.9730   49.9200 H   0  0  0  0  0  0  0  0  0  0  0  0
   37.6690   29.4950   50.4220 H   0  0  0  0  0  0  0  0  0  0  0  0
   39.4770   33.5370   46.6140 H   0  0  0  0  0  0  0  0  0  0  0  0
   38.9910   33.1140   47.4340 N   0  0  0  0  0  0  0  0  0  0  0  0
   38.1870   32.0550   47.4270 N   0  0  0  0  0  0  0  0  0  0  0  0
   37.7420   31.8000   48.6890 C   0  0  0  0  0  0  0  0  0  0  0  0
   38.2830   32.7300   49.5440 C   0  0  0  0  0  0  0  0  0  0  0  0
   39.0580   33.5320   48.7090 C   0  0  0  0  0  0  0  0  0  0  0  0
   39.6200   34.3770   49.1250 H   0  0  0  0  0  0  0  0  0  0  0  0
  1  6  1  0  0  0  0
  1 15  1  0  0  0  0
  2  1  2  0  0  0  0
  3  4  2  0  0  0  0
  3  2  1  0  0  0  0
  4  5  1  0  0  0  0
  5 10  1  0  0  0  0
  5  6  2  0  0  0  0
  6 23  1  0  0  0  0
  7  2  1  0  0  0  0
  8  3  1  0  0  0  0
  9  4  1  0  0  0  0
 11 17  1  0  0  0  0
 12 19  1  0  0  0  0
 12 11  2  0  0  0  0
 13 12  1  0  0  0  0
 14 13  2  0  0  0  0
 14 15  1  0  0  0  0
 15 16  2  0  0  0  0
 16 11  1  0  0  0  0
 18 13  1  0  0  0  0
 19 20  1  0  0  0  0
 19 21  1  0  0  0  0
 22 19  1  0  0  0  0
 23 24  1  0  0  0  0
 23 25  1  0  0  0  0
 26 29  1  0  0  0  0
 26 23  1  0  0  0  0
 27 26  1  0  0  0  0
 28 26  1  0  0  0  0
 29 30  1  0  0  0  0
 30 31  2  0  0  0  0
 30 34  1  0  0  0  0
 31 35  1  0  0  0  0
 32 31  1  0  0  0  0
 33 29  2  0  0  0  0
 33 32  1  0  0  0  0
 36 37  1  0  0  0  0
 37 41  1  0  0  0  0
 38 37  1  0  0  0  0
 38 39  2  0  0  0  0
 39 32  1  0  0  0  0
 39 40  1  0  0  0  0
 41 42  1  0  0  0  0
 41 40  2  0  0  0  0
M  END
>  <minimizedAffinity>
-7.34264088

>  <minimizedRMSD>
0.891195834

$$$$
