
 OpenBabel03252513503D

 21 22  0  0  0  0  0  0  0  0999 V2000
   35.2260   30.1650   47.9190 C   0  0  0  0  0  0  0  0  0  0  0  0
   36.0490   30.8110   48.9100 C   0  0  0  0  0  0  0  0  0  0  0  0
   37.2470   31.3610   48.4940 C   0  0  0  0  0  0  0  0  0  0  0  0
   37.5710   31.2560   47.1780 N   0  0  0  0  0  0  0  0  0  0  0  0
   36.7880   30.6500   46.2730 C   0  0  0  0  0  0  0  0  0  0  0  0
   35.6350   30.1140   46.6410 N   0  0  0  0  0  0  0  0  0  0  0  0
   35.7330   30.8610   49.9490 H   0  0  0  0  0  0  0  0  0  0  0  0
   37.3060   30.6350   44.8870 C   0  0  0  0  0  0  0  0  0  0  0  0
   37.3490   31.9310   44.3700 F   0  0  0  0  0  0  0  0  0  0  0  0
   38.6090   30.1720   44.8800 F   0  0  0  0  0  0  0  0  0  0  0  0
   36.5790   29.7970   44.0580 F   0  0  0  0  0  0  0  0  0  0  0  0
   38.1360   32.0350   49.4490 C   0  0  0  0  0  0  0  0  0  0  0  0
   38.6890   31.3390   50.3450 O   0  0  0  0  0  0  0  0  0  0  0  0
   38.3750   33.4990   49.3580 C   0  0  0  0  0  0  0  0  0  0  0  0
   39.5680   34.0740   49.9900 C   0  0  0  0  0  0  0  0  0  0  0  0
   39.5370   33.9830   48.5170 C   0  0  0  0  0  0  0  0  0  0  0  0
   34.0270   29.6160   48.3400 O   0  0  0  0  0  0  0  0  0  0  0  0
   33.8820   28.8030   49.4630 C   0  0  0  0  0  0  0  0  0  0  0  0
   34.8790   27.8390   49.5670 F   0  0  0  0  0  0  0  0  0  0  0  0
   33.7320   29.4770   50.6350 F   0  0  0  0  0  0  0  0  0  0  0  0
   32.6830   28.1000   49.2510 F   0  0  0  0  0  0  0  0  0  0  0  0
  1 17  1  0  0  0  0
  1  2  1  0  0  0  0
  2  7  1  0  0  0  0
  3  2  2  0  0  0  0
  3 12  1  0  0  0  0
  4  3  1  0  0  0  0
  5  6  1  0  0  0  0
  5  4  2  0  0  0  0
  6  1  2  0  0  0  0
  8  5  1  0  0  0  0
  9  8  1  0  0  0  0
 10  8  1  0  0  0  0
 11  8  1  0  0  0  0
 12 13  2  0  0  0  0
 14 12  1  0  0  0  0
 14 15  1  0  0  0  0
 16 14  1  0  0  0  0
 16 15  1  0  0  0  0
 17 18  1  0  0  0  0
 18 19  1  0  0  0  0
 18 20  1  0  0  0  0
 21 18  1  0  0  0  0
M  END
>  <minimizedAffinity>
-5.56591082

>  <minimizedRMSD>
2.29700112

$$$$
