
 OpenBabel03252511013D

 35 38  0  0  0  0  0  0  0  0999 V2000
   38.8230   32.3400   45.2700 C   0  0  0  0  0  0  0  0  0  0  0  0
   39.9450   31.7770   44.7040 C   0  0  0  0  0  0  0  0  0  0  0  0
   39.8830   32.0210   43.3200 C   0  0  0  0  0  0  0  0  0  0  0  0
   38.7110   32.7230   43.1470 C   0  0  0  0  0  0  0  0  0  0  0  0
   38.1270   32.8870   44.3090 O   0  0  0  0  0  0  0  0  0  0  0  0
   40.7780   31.2340   45.1150 H   0  0  0  0  0  0  0  0  0  0  0  0
   40.5760   31.7380   42.5380 H   0  0  0  0  0  0  0  0  0  0  0  0
   38.1360   33.2350   41.9490 N   0  0  0  0  0  0  0  0  0  0  0  0
   38.7940   33.6810   40.8490 C   0  0  0  0  0  0  0  0  0  0  0  0
   37.8950   34.0850   39.9230 N   0  0  0  0  0  0  0  0  0  0  0  0
   36.6970   33.8850   40.4560 C   0  0  0  0  0  0  0  0  0  0  0  0
   35.4110   34.0980   40.0060 C   0  0  0  0  0  0  0  0  0  0  0  0
   34.3150   33.8070   40.7550 N   0  0  0  0  0  0  0  0  0  0  0  0
   34.4610   33.2850   41.9990 C   0  0  0  0  0  0  0  0  0  0  0  0
   35.7160   33.0760   42.4410 N   0  0  0  0  0  0  0  0  0  0  0  0
   36.7980   33.3560   41.7200 C   0  0  0  0  0  0  0  0  0  0  0  0
   35.1430   34.6400   38.7200 N   0  0  0  0  0  0  0  0  0  0  0  0
   34.8720   33.8770   38.0330 H   0  0  0  0  0  0  0  0  0  0  0  0
   35.0950   35.5030   38.1350 H   0  0  0  0  0  0  0  0  0  0  0  0
   37.3140   31.3510   48.4200 C   0  0  0  0  0  0  0  0  0  0  0  0
   37.9620   32.1760   49.3740 C   0  0  0  0  0  0  0  0  0  0  0  0
   38.9210   33.0730   48.9120 C   0  0  0  0  0  0  0  0  0  0  0  0
   39.1760   33.0940   47.5440 N   0  0  0  0  0  0  0  0  0  0  0  0
   38.5330   32.2930   46.7010 C   0  0  0  0  0  0  0  0  0  0  0  0
   37.5890   31.4050   47.1230 N   0  0  0  0  0  0  0  0  0  0  0  0
   37.7360   32.1270   50.4140 H   0  0  0  0  0  0  0  0  0  0  0  0
   39.4660   33.7390   49.5470 H   0  0  0  0  0  0  0  0  0  0  0  0
   36.3140   30.4230   48.9440 C   0  0  0  0  0  0  0  0  0  0  0  0
   35.0930   30.5720   48.6410 O   0  0  0  0  0  0  0  0  0  0  0  0
   36.7150   29.3800   49.7750 O   0  0  0  0  0  0  0  0  0  0  0  0
   36.6140   29.4500   51.1600 C   0  0  0  0  0  0  0  0  0  0  0  0
   37.7120   29.7590   51.9970 N   0  0  0  0  0  0  0  0  0  0  0  0
   35.4520   29.2110   51.5890 O   0  0  0  0  0  0  0  0  0  0  0  0
   38.5940   29.4210   52.4040 H   0  0  0  0  0  0  0  0  0  0  0  0
   38.0130   30.5930   52.5640 H   0  0  0  0  0  0  0  0  0  0  0  0
  1 24  1  0  0  0  0
  2  6  1  0  0  0  0
  2  1  2  0  0  0  0
  3  2  1  0  0  0  0
  4  3  2  0  0  0  0
  4  5  1  0  0  0  0
  5  1  1  0  0  0  0
  7  3  1  0  0  0  0
  8  4  1  0  0  0  0
  9  8  1  0  0  0  0
 10 11  1  0  0  0  0
 10  9  2  0  0  0  0
 11 16  1  0  0  0  0
 12 11  2  0  0  0  0
 12 13  1  0  0  0  0
 13 14  2  0  0  0  0
 14 15  1  0  0  0  0
 16  8  1  0  0  0  0
 16 15  2  0  0  0  0
 17 12  1  0  0  0  0
 18 17  1  0  0  0  0
 19 17  1  0  0  0  0
 20 28  1  0  0  0  0
 20 21  1  0  0  0  0
 21 26  1  0  0  0  0
 22 21  2  0  0  0  0
 22 27  1  0  0  0  0
 23 22  1  0  0  0  0
 24 25  1  0  0  0  0
 24 23  2  0  0  0  0
 25 20  2  0  0  0  0
 28 30  1  0  0  0  0
 29 28  2  0  0  0  0
 30 31  1  0  0  0  0
 31 33  2  0  0  0  0
 31 32  1  0  0  0  0
 32 34  1  0  0  0  0
 32 35  1  0  0  0  0
M  END
>  <minimizedAffinity>
-6.28310871

>  <minimizedRMSD>
3.01789069

$$$$
