
 OpenBabel03252511213D

 39 42  0  0  1  0  0  0  0  0999 V2000
   38.7050   31.7890   48.1430 C   0  0  1  0  0  0  0  0  0  0  0  0
   39.7710   31.6880   48.6010 H   0  0  0  0  0  0  0  0  0  0  0  0
   37.8870   31.0480   49.0890 C   0  0  0  0  0  0  0  0  0  0  0  0
   38.3180   30.8770   50.3340 N   0  0  0  0  0  0  0  0  0  0  0  0
   37.6180   30.1900   51.2520 C   0  0  0  0  0  0  0  0  0  0  0  0
   36.4460   29.6270   51.0020 N   0  0  0  0  0  0  0  0  0  0  0  0
   35.8890   29.7240   49.7770 C   0  0  0  0  0  0  0  0  0  0  0  0
   34.6920   29.1540   49.4820 C   0  0  0  0  0  0  0  0  0  0  0  0
   34.1450   29.2540   48.2580 C   0  0  0  0  0  0  0  0  0  0  0  0
   34.8670   29.9720   47.3120 C   0  0  0  0  0  0  0  0  0  0  0  0
   36.0770   30.5350   47.6470 C   0  0  0  0  0  0  0  0  0  0  0  0
   36.6410   30.4390   48.8670 C   0  0  0  0  0  0  0  0  0  0  0  0
   38.0820   30.1160   52.2620 H   0  0  0  0  0  0  0  0  0  0  0  0
   34.2020   28.6170   50.2820 H   0  0  0  0  0  0  0  0  0  0  0  0
   33.1930   28.7810   48.0790 H   0  0  0  0  0  0  0  0  0  0  0  0
   34.4340   30.0630   46.3100 H   0  0  0  0  0  0  0  0  0  0  0  0
   36.5650   31.1170   46.8790 H   0  0  0  0  0  0  0  0  0  0  0  0
   39.0680   31.5610   46.7770 C   0  0  0  0  0  0  0  0  0  0  0  0
   39.8830   32.6240   46.3060 C   0  0  0  0  0  0  0  0  0  0  0  0
   40.4430   32.5430   44.9890 C   0  0  0  0  0  0  0  0  0  0  0  0
   40.1480   31.4550   44.2940 N   0  0  0  0  0  0  0  0  0  0  0  0
   39.3570   30.4520   44.7790 C   0  0  0  0  0  0  0  0  0  0  0  0
   38.8390   30.5150   45.9880 N   0  0  0  0  0  0  0  0  0  0  0  0
   40.2580   33.5570   46.6750 H   0  0  0  0  0  0  0  0  0  0  0  0
   41.0600   33.2350   44.4950 H   0  0  0  0  0  0  0  0  0  0  0  0
   38.9960   29.2660   43.9500 C   0  0  0  0  0  0  0  0  0  0  0  0
   38.9500   28.3680   44.5570 H   0  0  0  0  0  0  0  0  0  0  0  0
   39.6900   29.1330   43.0800 H   0  0  0  0  0  0  0  0  0  0  0  0
   37.6960   29.6170   43.3590 N   0  0  0  0  0  0  0  0  0  0  0  0
   37.4670   30.2940   42.2090 C   0  0  0  0  0  0  0  0  0  0  0  0
   36.1630   30.4170   42.0050 N   0  0  0  0  0  0  0  0  0  0  0  0
   35.5390   29.8230   43.0190 C   0  0  0  0  0  0  0  0  0  0  0  0
   36.4920   29.3460   43.8250 N   0  0  0  0  0  0  0  0  0  0  0  0
   38.4230   33.0890   48.5300 O   0  0  0  0  0  0  0  0  0  0  0  0
   39.2440   34.0260   49.1220 C   0  0  0  0  0  0  0  0  0  0  0  0
   39.7300   35.1950   48.3910 N   0  0  0  0  0  0  0  0  0  0  0  0
   39.6090   33.9170   50.3180 O   0  0  0  0  0  0  0  0  0  0  0  0
   40.7120   35.5150   48.3920 H   0  0  0  0  0  0  0  0  0  0  0  0
   39.1120   35.8170   47.7910 H   0  0  0  0  0  0  0  0  0  0  0  0
  1 34  1  0  0  0  0
  1  2  1  1  0  0  0
  1  3  1  0  0  0  0
  3  4  1  0  0  0  0
  4  5  2  0  0  0  0
  5 13  1  0  0  0  0
  6  5  1  0  0  0  0
  7  6  2  0  0  0  0
  8  7  1  0  0  0  0
  8 14  1  0  0  0  0
  9  8  2  0  0  0  0
 10 11  2  0  0  0  0
 10  9  1  0  0  0  0
 11 12  1  0  0  0  0
 12  3  2  0  0  0  0
 12  7  1  0  0  0  0
 15  9  1  0  0  0  0
 16 10  1  0  0  0  0
 17 11  1  0  0  0  0
 18  1  1  0  0  0  0
 19 24  1  0  0  0  0
 19 18  1  0  0  0  0
 20 19  2  0  0  0  0
 21 22  2  0  0  0  0
 21 20  1  0  0  0  0
 22 23  1  0  0  0  0
 23 18  2  0  0  0  0
 25 20  1  0  0  0  0
 26 27  1  0  0  0  0
 26 22  1  0  0  0  0
 28 26  1  0  0  0  0
 29 33  1  0  0  0  0
 29 26  1  0  0  0  0
 30 29  1  0  0  0  0
 31 30  2  0  0  0  0
 31 32  1  0  0  0  0
 32 33  2  0  0  0  0
 34 35  1  0  0  0  0
 35 37  2  0  0  0  0
 36 38  1  0  0  0  0
 36 35  1  0  0  0  0
 39 36  1  0  0  0  0
M  END
>  <minimizedAffinity>
-6.79413319

>  <minimizedRMSD>
0.208407491

$$$$
