
 OpenBabel03252513303D

 42 45  0  0  0  0  0  0  0  0999 V2000
   31.6550   26.2860   47.6220 C   0  0  0  0  0  0  0  0  0  0  0  0
   31.4050   25.1510   46.9380 C   0  0  0  0  0  0  0  0  0  0  0  0
   32.3920   24.3520   46.3950 C   0  0  0  0  0  0  0  0  0  0  0  0
   33.6890   24.7840   46.5920 C   0  0  0  0  0  0  0  0  0  0  0  0
   33.9730   25.9280   47.2800 C   0  0  0  0  0  0  0  0  0  0  0  0
   32.9620   26.6990   47.8080 C   0  0  0  0  0  0  0  0  0  0  0  0
   30.3660   24.8570   46.8120 H   0  0  0  0  0  0  0  0  0  0  0  0
   32.1390   23.4470   45.8520 H   0  0  0  0  0  0  0  0  0  0  0  0
   34.5120   24.2010   46.1900 H   0  0  0  0  0  0  0  0  0  0  0  0
   35.0060   26.2400   47.4160 H   0  0  0  0  0  0  0  0  0  0  0  0
   29.1650   27.7230   49.9260 C   0  0  0  0  0  0  0  0  0  0  0  0
   28.5260   28.6860   49.1220 C   0  0  0  0  0  0  0  0  0  0  0  0
   28.9710   28.8160   47.8010 C   0  0  0  0  0  0  0  0  0  0  0  0
   29.9960   28.0080   47.3650 N   0  0  0  0  0  0  0  0  0  0  0  0
   30.5730   27.1000   48.1810 C   0  0  0  0  0  0  0  0  0  0  0  0
   30.1510   26.9740   49.4390 N   0  0  0  0  0  0  0  0  0  0  0  0
   28.7960   27.6460   50.9460 H   0  0  0  0  0  0  0  0  0  0  0  0
   28.5300   29.5330   47.1250 H   0  0  0  0  0  0  0  0  0  0  0  0
   27.4250   29.5400   49.6230 C   0  0  0  0  0  0  0  0  0  0  0  0
   27.8590   30.6770   50.2490 F   0  0  0  0  0  0  0  0  0  0  0  0
   26.6180   28.8620   50.5160 F   0  0  0  0  0  0  0  0  0  0  0  0
   26.6210   29.9420   48.5380 F   0  0  0  0  0  0  0  0  0  0  0  0
   33.2080   27.9470   48.5590 C   0  0  0  0  0  0  0  0  0  0  0  0
   33.7720   27.6500   49.4630 H   0  0  0  0  0  0  0  0  0  0  0  0
   32.2370   28.3400   48.9570 H   0  0  0  0  0  0  0  0  0  0  0  0
   33.8000   29.0510   47.7570 C   0  0  0  0  0  0  0  0  0  0  0  0
   34.0530   28.6690   46.7280 H   0  0  0  0  0  0  0  0  0  0  0  0
   33.1290   29.9280   47.6630 H   0  0  0  0  0  0  0  0  0  0  0  0
   35.0570   29.4990   48.3540 C   0  0  0  0  0  0  0  0  0  0  0  0
   35.6820   28.8520   49.4060 C   0  0  0  0  0  0  0  0  0  0  0  0
   36.8400   29.5210   49.7340 C   0  0  0  0  0  0  0  0  0  0  0  0
   36.8830   30.5750   48.8540 N   0  0  0  0  0  0  0  0  0  0  0  0
   35.8320   30.5600   48.0420 N   0  0  0  0  0  0  0  0  0  0  0  0
   35.4690   27.9720   49.9990 H   0  0  0  0  0  0  0  0  0  0  0  0
   37.6220   29.4120   50.4440 H   0  0  0  0  0  0  0  0  0  0  0  0
   37.7910   31.6550   48.6290 C   0  0  0  0  0  0  0  0  0  0  0  0
   38.0710   32.6730   49.5180 C   0  0  0  0  0  0  0  0  0  0  0  0
   38.9920   33.6340   49.0990 C   0  0  0  0  0  0  0  0  0  0  0  0
   39.2090   34.4290   49.7980 H   0  0  0  0  0  0  0  0  0  0  0  0
   39.5790   33.5720   47.8900 N   0  0  0  0  0  0  0  0  0  0  0  0
   39.2800   32.5580   47.0410 C   0  0  0  0  0  0  0  0  0  0  0  0
   38.3900   31.6060   47.4110 N   0  0  0  0  0  0  0  0  0  0  0  0
  1  6  1  0  0  0  0
  1 15  1  0  0  0  0
  2  1  2  0  0  0  0
  3  4  2  0  0  0  0
  3  2  1  0  0  0  0
  4  5  1  0  0  0  0
  5 10  1  0  0  0  0
  5  6  2  0  0  0  0
  6 23  1  0  0  0  0
  7  2  1  0  0  0  0
  8  3  1  0  0  0  0
  9  4  1  0  0  0  0
 11 17  1  0  0  0  0
 12 19  1  0  0  0  0
 12 11  2  0  0  0  0
 13 12  1  0  0  0  0
 14 13  2  0  0  0  0
 14 15  1  0  0  0  0
 15 16  2  0  0  0  0
 16 11  1  0  0  0  0
 18 13  1  0  0  0  0
 19 20  1  0  0  0  0
 19 21  1  0  0  0  0
 22 19  1  0  0  0  0
 23 25  1  0  0  0  0
 23 24  1  0  0  0  0
 26 29  1  0  0  0  0
 26 23  1  0  0  0  0
 27 26  1  0  0  0  0
 28 26  1  0  0  0  0
 29 30  1  0  0  0  0
 30 31  2  0  0  0  0
 30 34  1  0  0  0  0
 31 35  1  0  0  0  0
 32 31  1  0  0  0  0
 33 29  2  0  0  0  0
 33 32  1  0  0  0  0
 36 32  1  0  0  0  0
 36 37  1  0  0  0  0
 38 37  2  0  0  0  0
 38 39  1  0  0  0  0
 40 38  1  0  0  0  0
 41 42  1  0  0  0  0
 41 40  2  0  0  0  0
 42 36  2  0  0  0  0
M  END
>  <minimizedAffinity>
-6.99474907

>  <minimizedRMSD>
1.05790246

$$$$
