
 OpenBabel03252512163D

 40 44  0  0  0  0  0  0  0  0999 V2000
   32.3230   29.8310   46.1790 C   0  0  0  0  0  0  0  0  0  0  0  0
   32.0710   28.4530   46.1870 C   0  0  0  0  0  0  0  0  0  0  0  0
   33.0490   27.6140   46.7580 C   0  0  0  0  0  0  0  0  0  0  0  0
   34.1730   28.1680   47.2660 N   0  0  0  0  0  0  0  0  0  0  0  0
   34.3840   29.5120   47.2410 C   0  0  0  0  0  0  0  0  0  0  0  0
   33.4700   30.3220   46.7050 N   0  0  0  0  0  0  0  0  0  0  0  0
   31.6350   30.5380   45.7650 H   0  0  0  0  0  0  0  0  0  0  0  0
   31.1600   28.0730   45.7680 H   0  0  0  0  0  0  0  0  0  0  0  0
   32.8310   26.1770   46.7900 C   0  0  0  0  0  0  0  0  0  0  0  0
   33.7810   25.3790   47.4060 C   0  0  0  0  0  0  0  0  0  0  0  0
   33.5120   24.0280   47.4000 C   0  0  0  0  0  0  0  0  0  0  0  0
   32.3950   23.5090   46.8300 N   0  0  0  0  0  0  0  0  0  0  0  0
   31.4860   24.3320   46.2330 C   0  0  0  0  0  0  0  0  0  0  0  0
   31.7360   25.6710   46.2310 N   0  0  0  0  0  0  0  0  0  0  0  0
   34.6690   25.8030   47.8580 H   0  0  0  0  0  0  0  0  0  0  0  0
   34.2310   23.3730   47.8710 H   0  0  0  0  0  0  0  0  0  0  0  0
   30.3290   23.7590   45.6460 N   0  0  0  0  0  0  0  0  0  0  0  0
   29.3890   24.4360   44.9660 C   0  0  0  0  0  0  0  0  0  0  0  0
   28.2830   23.7740   44.4250 C   0  0  0  0  0  0  0  0  0  0  0  0
   28.2130   22.4150   44.6270 C   0  0  0  0  0  0  0  0  0  0  0  0
   27.2210   21.7680   44.1520 O   0  0  0  0  0  0  0  0  0  0  0  0
   29.1660   21.7490   45.3150 N   0  0  0  0  0  0  0  0  0  0  0  0
   30.2210   22.4130   45.8240 C   0  0  0  0  0  0  0  0  0  0  0  0
   31.0290   21.6720   46.4380 O   0  0  0  0  0  0  0  0  0  0  0  0
   29.0220   20.7080   45.4150 H   0  0  0  0  0  0  0  0  0  0  0  0
   35.6200   30.0090   47.8110 C   0  0  0  0  0  0  0  0  0  0  0  0
   36.6060   30.6650   47.0770 C   0  0  0  0  0  0  0  0  0  0  0  0
   37.6220   31.0020   47.8800 N   0  0  0  0  0  0  0  0  0  0  0  0
   37.3250   30.5800   49.1290 C   0  0  0  0  0  0  0  0  0  0  0  0
   38.0360   30.6760   50.3300 C   0  0  0  0  0  0  0  0  0  0  0  0
   37.4610   30.1370   51.4750 C   0  0  0  0  0  0  0  0  0  0  0  0
   36.2320   29.5350   51.4020 C   0  0  0  0  0  0  0  0  0  0  0  0
   35.5030   29.4260   50.2240 C   0  0  0  0  0  0  0  0  0  0  0  0
   36.0970   29.9700   49.0970 C   0  0  0  0  0  0  0  0  0  0  0  0
   36.6580   30.9240   46.0110 H   0  0  0  0  0  0  0  0  0  0  0  0
   38.5070   31.4950   47.6620 H   0  0  0  0  0  0  0  0  0  0  0  0
   39.0140   31.1610   50.3620 H   0  0  0  0  0  0  0  0  0  0  0  0
   37.9880   30.1960   52.4220 H   0  0  0  0  0  0  0  0  0  0  0  0
   35.7830   29.1150   52.2910 H   0  0  0  0  0  0  0  0  0  0  0  0
   34.5400   28.9530   50.1640 H   0  0  0  0  0  0  0  0  0  0  0  0
  1  2  2  0  0  0  0
  1  6  1  0  0  0  0
  2  3  1  0  0  0  0
  3  9  1  0  0  0  0
  3  4  2  0  0  0  0
  5  4  1  0  0  0  0
  5 26  1  0  0  0  0
  6  5  2  0  0  0  0
  7  1  1  0  0  0  0
  8  2  1  0  0  0  0
  9 10  1  0  0  0  0
 10 15  1  0  0  0  0
 11 10  2  0  0  0  0
 11 16  1  0  0  0  0
 12 11  1  0  0  0  0
 13 12  2  0  0  0  0
 14 13  1  0  0  0  0
 14  9  2  0  0  0  0
 17 23  1  0  0  0  0
 17 13  1  0  0  0  0
 18 17  1  0  0  0  0
 19 20  1  0  0  0  0
 19 18  2  0  0  0  0
 20 22  1  0  0  0  0
 21 20  2  0  0  0  0
 22 25  1  0  0  0  0
 22 23  1  0  0  0  0
 23 24  2  0  0  0  0
 26 34  1  0  0  0  0
 27 26  2  0  0  0  0
 27 28  1  0  0  0  0
 28 29  1  0  0  0  0
 29 30  1  0  0  0  0
 30 37  1  0  0  0  0
 30 31  2  0  0  0  0
 31 38  1  0  0  0  0
 32 31  1  0  0  0  0
 32 39  1  0  0  0  0
 33 32  2  0  0  0  0
 34 29  2  0  0  0  0
 34 33  1  0  0  0  0
 35 27  1  0  0  0  0
 36 28  1  0  0  0  0
 40 33  1  0  0  0  0
M  END
>  <minimizedAffinity>
-6.89755726

>  <minimizedRMSD>
0.341063589

$$$$
