
 OpenBabel03252514083D

 39 42  0  0  0  0  0  0  0  0999 V2000
   34.1110   30.0350   47.3950 C   0  0  0  0  0  0  0  0  0  0  0  0
   35.0260   29.7190   48.4020 C   0  0  0  0  0  0  0  0  0  0  0  0
   34.9430   28.4300   48.9430 C   0  0  0  0  0  0  0  0  0  0  0  0
   34.0050   27.5770   48.4760 N   0  0  0  0  0  0  0  0  0  0  0  0
   33.1440   27.9010   47.5160 C   0  0  0  0  0  0  0  0  0  0  0  0
   33.1990   29.1360   46.9750 N   0  0  0  0  0  0  0  0  0  0  0  0
   34.0790   31.0040   46.9000 H   0  0  0  0  0  0  0  0  0  0  0  0
   35.6500   28.1820   49.7220 H   0  0  0  0  0  0  0  0  0  0  0  0
   35.9650   30.7070   48.8040 N   0  0  0  0  0  0  0  0  0  0  0  0
   35.9670   31.2920   50.0330 C   0  0  0  0  0  0  0  0  0  0  0  0
   36.9820   32.1820   50.0920 N   0  0  0  0  0  0  0  0  0  0  0  0
   37.5990   32.1340   48.8920 C   0  0  0  0  0  0  0  0  0  0  0  0
   38.6810   32.7980   48.3570 C   0  0  0  0  0  0  0  0  0  0  0  0
   39.0980   32.5540   47.1010 N   0  0  0  0  0  0  0  0  0  0  0  0
   38.4740   31.6500   46.3100 C   0  0  0  0  0  0  0  0  0  0  0  0
   37.4220   31.0090   46.8390 N   0  0  0  0  0  0  0  0  0  0  0  0
   36.9670   31.2150   48.0850 C   0  0  0  0  0  0  0  0  0  0  0  0
   35.2600   31.0740   50.8320 H   0  0  0  0  0  0  0  0  0  0  0  0
   38.8130   31.4580   45.3010 H   0  0  0  0  0  0  0  0  0  0  0  0
   39.3640   33.7550   49.1550 N   0  0  0  0  0  0  0  0  0  0  0  0
   40.2950   34.1190   48.8430 H   0  0  0  0  0  0  0  0  0  0  0  0
   38.9450   34.1000   50.0530 H   0  0  0  0  0  0  0  0  0  0  0  0
   32.1150   26.9770   47.0000 C   0  0  0  0  0  0  0  0  0  0  0  0
   31.4940   26.1880   48.1390 C   0  0  0  0  0  0  0  0  0  0  0  0
   30.5570   25.7370   47.7160 H   0  0  0  0  0  0  0  0  0  0  0  0
   32.1270   25.3480   48.4780 H   0  0  0  0  0  0  0  0  0  0  0  0
   31.2100   26.9020   48.9290 H   0  0  0  0  0  0  0  0  0  0  0  0
   30.9530   27.7400   46.3650 C   0  0  0  0  0  0  0  0  0  0  0  0
   30.3020   27.0130   45.8460 H   0  0  0  0  0  0  0  0  0  0  0  0
   31.3920   28.4270   45.6130 H   0  0  0  0  0  0  0  0  0  0  0  0
   30.4340   28.3050   47.1530 H   0  0  0  0  0  0  0  0  0  0  0  0
   32.6270   26.0590   45.9210 C   0  0  0  0  0  0  0  0  0  0  0  0
   31.7450   25.8570   45.2510 H   0  0  0  0  0  0  0  0  0  0  0  0
   33.3470   26.5830   45.2600 H   0  0  0  0  0  0  0  0  0  0  0  0
   33.0760   24.7800   46.3990 N   0  0  0  0  0  0  0  0  0  0  0  0
   32.4100   23.5940   46.2800 C   0  0  0  0  0  3  0  0  0  0  0  0
   33.1100   22.5870   46.8340 N   0  0  0  0  0  0  0  0  0  0  0  0
   34.2280   23.1710   47.3020 C   0  0  0  0  0  3  0  0  0  0  0  0
   34.2040   24.4680   47.0420 N   0  0  0  0  0  0  0  0  0  0  0  0
  1  2  1  0  0  0  0
  2  9  1  0  0  0  0
  2  3  2  0  0  0  0
  3  8  1  0  0  0  0
  4  3  1  0  0  0  0
  5  4  2  0  0  0  0
  6  1  2  0  0  0  0
  6  5  1  0  0  0  0
  7  1  1  0  0  0  0
  9 10  1  0  0  0  0
 10 11  2  0  0  0  0
 10 18  1  0  0  0  0
 12 11  1  0  0  0  0
 13 12  1  0  0  0  0
 13 20  1  0  0  0  0
 14 13  2  0  0  0  0
 15 16  2  0  0  0  0
 15 14  1  0  0  0  0
 16 17  1  0  0  0  0
 17  9  1  0  0  0  0
 17 12  2  0  0  0  0
 19 15  1  0  0  0  0
 20 22  1  0  0  0  0
 21 20  1  0  0  0  0
 23  5  1  0  0  0  0
 23 24  1  0  0  0  0
 24 26  1  0  0  0  0
 24 27  1  0  0  0  0
 25 24  1  0  0  0  0
 28 23  1  0  0  0  0
 28 31  1  0  0  0  0
 29 28  1  0  0  0  0
 30 28  1  0  0  0  0
 32 35  1  0  0  0  0
 32 23  1  0  0  0  0
 33 32  1  0  0  0  0
 34 32  1  0  0  0  0
 35 39  1  0  0  0  0
 36 35  1  0  0  0  0
 36 37  2  0  0  0  0
 37 38  1  0  0  0  0
 39 38  2  0  0  0  0
M  END
>  <minimizedAffinity>
-5.02278328

>  <minimizedRMSD>
1.62943435

$$$$
