
 OpenBabel03252513373D

 28 29  0  0  0  0  0  0  0  0999 V2000
   36.9290   29.9310   49.8950 C   0  0  0  0  0  0  0  0  0  0  0  0
   38.0090   30.6770   49.4470 C   0  0  0  0  0  0  0  0  0  0  0  0
   38.0150   31.1270   48.1290 C   0  0  0  0  0  0  0  0  0  0  0  0
   36.9460   30.8020   47.3490 N   0  0  0  0  0  0  0  0  0  0  0  0
   35.9130   30.0760   47.8180 C   0  0  0  0  0  0  0  0  0  0  0  0
   35.9050   29.6430   49.0810 N   0  0  0  0  0  0  0  0  0  0  0  0
   39.0850   31.8860   47.6270 N   0  0  0  0  0  0  0  0  0  0  0  0
   38.9740   32.5900   46.4090 C   0  0  0  0  0  0  0  0  0  0  0  0
   37.8940   32.4640   45.7010 N   0  0  0  0  0  0  0  0  0  0  0  0
   40.0440   33.4260   45.9730 N   0  0  0  0  0  0  0  0  0  0  0  0
   37.8970   32.8480   44.7270 H   0  0  0  0  0  0  0  0  0  0  0  0
   38.8580   30.9220   50.1050 H   0  0  0  0  0  0  0  0  0  0  0  0
   39.9710   31.9250   48.1680 H   0  0  0  0  0  0  0  0  0  0  0  0
   40.9070   33.0430   45.5620 H   0  0  0  0  0  0  0  0  0  0  0  0
   39.6440   34.3570   46.2060 H   0  0  0  0  0  0  0  0  0  0  0  0
   34.8850   29.8310   46.8670 N   0  0  0  0  0  0  0  0  0  0  0  0
   33.6660   29.4170   47.2650 C   0  0  0  0  0  0  0  0  0  0  0  0
   32.7130   29.1970   46.3010 C   0  0  0  0  0  0  0  0  0  0  0  0
   33.0180   29.4010   44.9740 C   0  0  0  0  0  0  0  0  0  0  0  0
   32.0910   29.1800   44.1380 O   0  0  0  0  0  0  0  0  0  0  0  0
   34.2390   29.8160   44.5900 N   0  0  0  0  0  0  0  0  0  0  0  0
   35.1660   30.0280   45.5470 C   0  0  0  0  0  0  0  0  0  0  0  0
   36.3210   30.4190   45.2010 O   0  0  0  0  0  0  0  0  0  0  0  0
   34.4460   29.9640   43.5710 H   0  0  0  0  0  0  0  0  0  0  0  0
   36.9110   29.4420   51.3110 C   0  0  0  0  0  0  0  0  0  0  0  0
   35.6160   29.1670   51.7100 F   0  0  0  0  0  0  0  0  0  0  0  0
   37.7840   28.4060   51.4310 F   0  0  0  0  0  0  0  0  0  0  0  0
   37.3480   30.5210   52.1060 F   0  0  0  0  0  0  0  0  0  0  0  0
  1 25  1  0  0  0  0
  2  1  1  0  0  0  0
  2 12  1  0  0  0  0
  3  2  2  0  0  0  0
  4  5  2  0  0  0  0
  4  3  1  0  0  0  0
  5  6  1  0  0  0  0
  6  1  2  0  0  0  0
  7  3  1  0  0  0  0
  7 13  1  0  0  0  0
  8  7  1  0  0  0  0
  9  8  2  0  0  0  0
 10 15  1  0  0  0  0
 10  8  1  0  0  0  0
 11  9  1  0  0  0  0
 14 10  1  0  0  0  0
 16 17  1  0  0  0  0
 16  5  1  0  0  0  0
 18 17  2  0  0  0  0
 19 18  1  0  0  0  0
 20 19  2  0  0  0  0
 21 19  1  0  0  0  0
 21 22  1  0  0  0  0
 22 16  1  0  0  0  0
 23 22  2  0  0  0  0
 24 21  1  0  0  0  0
 25 27  1  0  0  0  0
 25 26  1  0  0  0  0
 25 28  1  0  0  0  0
M  END
>  <minimizedAffinity>
-7.1176219

>  <minimizedRMSD>
0.194312707

$$$$
