
 OpenBabel03252513133D

 45 48  0  0  0  0  0  0  0  0999 V2000
   36.1320   31.3260   42.6280 C   0  0  0  0  0  0  0  0  0  0  0  0
   37.3130   31.0130   41.9380 C   0  0  0  0  0  0  0  0  0  0  0  0
   38.3850   30.6140   42.6770 C   0  0  0  0  0  0  0  0  0  0  0  0
   38.2010   30.5590   43.9910 N   0  0  0  0  0  0  0  0  0  0  0  0
   37.1640   30.8250   44.7030 C   0  0  0  0  0  0  0  0  0  0  0  0
   36.1330   31.2130   43.9570 N   0  0  0  0  0  0  0  0  0  0  0  0
   35.2580   31.6510   42.0470 H   0  0  0  0  0  0  0  0  0  0  0  0
   36.8600   30.7990   46.1170 C   0  0  0  0  0  0  0  0  0  0  0  0
   35.8460   30.0370   46.6730 C   0  0  0  0  0  0  0  0  0  0  0  0
   35.5290   29.9850   47.9920 C   0  0  0  0  0  0  0  0  0  0  0  0
   36.2440   30.7310   48.8920 C   0  0  0  0  0  0  0  0  0  0  0  0
   37.2440   31.4930   48.4150 C   0  0  0  0  0  0  0  0  0  0  0  0
   37.9670   32.2470   49.3280 C   0  0  0  0  0  0  0  0  0  0  0  0
   38.9960   33.0460   48.9350 C   0  0  0  0  0  0  0  0  0  0  0  0
   39.3100   33.0900   47.5810 C   0  0  0  0  0  0  0  0  0  0  0  0
   38.5780   32.3370   46.7150 C   0  0  0  0  0  0  0  0  0  0  0  0
   37.5570   31.5380   47.0710 C   0  0  0  0  0  0  0  0  0  0  0  0
   35.2490   29.4250   45.9890 H   0  0  0  0  0  0  0  0  0  0  0  0
   34.7160   29.3560   48.3300 H   0  0  0  0  0  0  0  0  0  0  0  0
   37.7820   32.2660   50.3930 H   0  0  0  0  0  0  0  0  0  0  0  0
   39.5860   33.6460   49.5870 H   0  0  0  0  0  0  0  0  0  0  0  0
   40.1200   33.7120   47.2270 H   0  0  0  0  0  0  0  0  0  0  0  0
   38.8510   32.3950   45.6630 H   0  0  0  0  0  0  0  0  0  0  0  0
   35.9180   30.6720   50.2280 O   0  0  0  0  0  0  0  0  0  0  0  0
   36.4240   29.6300   51.0460 C   0  0  0  0  0  0  0  0  0  0  0  0
   37.2330   28.7300   50.4210 F   0  0  0  0  0  0  0  0  0  0  0  0
   37.1930   30.2150   52.0390 F   0  0  0  0  0  0  0  0  0  0  0  0
   35.3110   28.9820   51.5880 F   0  0  0  0  0  0  0  0  0  0  0  0
   37.4290   31.0990   40.5220 N   0  0  0  0  0  0  0  0  0  0  0  0
   37.5360   32.3710   40.0920 C   0  0  0  0  0  0  0  0  0  0  0  0
   37.6580   32.6440   38.7240 C   0  0  0  0  0  0  0  0  0  0  0  0
   37.6570   31.5330   37.9040 C   0  0  0  0  0  0  0  0  0  0  0  0
   37.7670   31.7750   36.6550 O   0  0  0  0  0  0  0  0  0  0  0  0
   37.5490   30.2600   38.3320 N   0  0  0  0  0  0  0  0  0  0  0  0
   37.4330   30.0550   39.6730 C   0  0  0  0  0  0  0  0  0  0  0  0
   37.3270   28.9100   40.1770 O   0  0  0  0  0  0  0  0  0  0  0  0
   37.5510   29.4430   37.6820 H   0  0  0  0  0  0  0  0  0  0  0  0
   39.6430   30.2600   42.1320 N   0  0  0  0  0  0  0  0  0  0  0  0
   40.7610   29.9330   42.9310 C   0  0  0  0  0  0  0  0  0  0  0  0
   40.9660   30.6310   44.0020 N   0  0  0  0  0  0  0  0  0  0  0  0
   41.6250   28.8730   42.5680 N   0  0  0  0  0  0  0  0  0  0  0  0
   41.7090   30.5140   44.6810 H   0  0  0  0  0  0  0  0  0  0  0  0
   39.7610   30.2350   41.0720 H   0  0  0  0  0  0  0  0  0  0  0  0
   41.5100   27.8280   42.6400 H   0  0  0  0  0  0  0  0  0  0  0  0
   42.5830   28.9550   42.1430 H   0  0  0  0  0  0  0  0  0  0  0  0
  1  6  1  0  0  0  0
  2  1  2  0  0  0  0
  2  3  1  0  0  0  0
  3  4  2  0  0  0  0
  4  5  1  0  0  0  0
  5  8  1  0  0  0  0
  6  5  2  0  0  0  0
  7  1  1  0  0  0  0
  8  9  2  0  0  0  0
  8 17  1  0  0  0  0
  9 10  1  0  0  0  0
 10 19  1  0  0  0  0
 10 11  2  0  0  0  0
 11 24  1  0  0  0  0
 12 11  1  0  0  0  0
 12 13  1  0  0  0  0
 13 20  1  0  0  0  0
 14 13  2  0  0  0  0
 14 21  1  0  0  0  0
 15 14  1  0  0  0  0
 16 17  1  0  0  0  0
 16 15  2  0  0  0  0
 17 12  2  0  0  0  0
 18  9  1  0  0  0  0
 22 15  1  0  0  0  0
 23 16  1  0  0  0  0
 24 25  1  0  0  0  0
 25 28  1  0  0  0  0
 25 27  1  0  0  0  0
 26 25  1  0  0  0  0
 29  2  1  0  0  0  0
 30 29  1  0  0  0  0
 31 30  2  0  0  0  0
 32 34  1  0  0  0  0
 32 31  1  0  0  0  0
 33 32  2  0  0  0  0
 34 35  1  0  0  0  0
 35 36  2  0  0  0  0
 35 29  1  0  0  0  0
 37 34  1  0  0  0  0
 38  3  1  0  0  0  0
 38 39  1  0  0  0  0
 39 40  2  0  0  0  0
 40 42  1  0  0  0  0
 41 44  1  0  0  0  0
 41 39  1  0  0  0  0
 43 38  1  0  0  0  0
 45 41  1  0  0  0  0
M  END
>  <minimizedAffinity>
-7.4802227

>  <minimizedRMSD>
0.273446381

$$$$
