
 OpenBabel03252514003D

 28 30  0  0  1  0  0  0  0  0999 V2000
   35.5570   29.5670   49.2760 C   0  0  2  0  0  0  0  0  0  0  0  0
   34.5800   29.4870   50.3730 C   0  0  0  0  0  0  0  0  0  0  0  0
   34.8260   28.2580   49.6310 C   0  0  1  0  0  0  0  0  0  0  0  0
   35.3420   30.0110   48.2960 H   0  0  0  0  0  0  0  0  0  0  0  0
   34.9910   29.6530   51.3920 H   0  0  0  0  0  0  0  0  0  0  0  0
   33.6420   30.0880   50.2280 H   0  0  0  0  0  0  0  0  0  0  0  0
   35.5370   27.4620   49.8690 H   0  0  0  0  0  0  0  0  0  0  0  0
   37.0390   29.5050   49.6490 C   0  0  0  0  0  0  0  0  0  0  0  0
   37.1220   29.4940   50.7390 H   0  0  0  0  0  0  0  0  0  0  0  0
   37.4440   28.5370   49.2930 H   0  0  0  0  0  0  0  0  0  0  0  0
   38.4380   32.8630   49.2470 C   0  0  0  0  0  0  0  0  0  0  0  0
   38.9340   32.8460   47.9330 C   0  0  0  0  0  0  0  0  0  0  0  0
   38.7770   31.6610   47.1960 C   0  0  0  0  0  0  0  0  0  0  0  0
   38.1520   30.5960   47.7960 N   0  0  0  0  0  0  0  0  0  0  0  0
   37.6970   30.6670   49.0530 C   0  0  0  0  0  0  0  0  0  0  0  0
   37.8460   31.8010   49.7650 N   0  0  0  0  0  0  0  0  0  0  0  0
   38.5640   33.7760   49.7980 H   0  0  0  0  0  0  0  0  0  0  0  0
   39.4180   33.7240   47.5190 H   0  0  0  0  0  0  0  0  0  0  0  0
   39.1480   31.6240   46.1900 H   0  0  0  0  0  0  0  0  0  0  0  0
   33.7160   27.8250   48.7130 C   0  0  0  0  0  0  0  0  0  0  0  0
   34.1180   27.1950   47.6540 O   0  0  0  0  0  0  0  0  0  0  0  0
   32.3610   28.0330   48.9140 O   0  0  0  0  0  0  0  0  0  0  0  0
   31.4600   27.5720   47.9690 C   0  0  0  0  0  0  0  0  0  0  0  0
   30.6500   28.2370   47.0750 C   0  0  0  0  0  3  0  0  0  0  0  0
   29.9820   27.2740   46.4010 N   0  0  0  0  0  0  0  0  0  0  0  0
   30.3500   26.0520   46.8430 C   0  0  0  0  0  3  0  0  0  0  0  0
   31.2740   26.2320   47.8240 N   0  0  0  0  0  0  0  0  0  0  0  0
   31.7130   25.4130   48.3260 H   0  0  0  0  0  0  0  0  0  0  0  0
  1  4  1  6  0  0  0
  1  3  1  0  0  0  0
  1  8  1  0  0  0  0
  1  2  1  0  0  0  0
  2  5  1  0  0  0  0
  3  7  1  1  0  0  0
  3  2  1  0  0  0  0
  6  2  1  0  0  0  0
  8  9  1  0  0  0  0
 10  8  1  0  0  0  0
 11 16  1  0  0  0  0
 11 17  1  0  0  0  0
 12 11  2  0  0  0  0
 13 14  2  0  0  0  0
 13 12  1  0  0  0  0
 14 15  1  0  0  0  0
 15  8  1  0  0  0  0
 15 16  2  0  0  0  0
 18 12  1  0  0  0  0
 19 13  1  0  0  0  0
 20 22  1  0  0  0  0
 20  3  1  0  0  0  0
 21 20  2  0  0  0  0
 23 22  1  0  0  0  0
 24 23  2  0  0  0  0
 25 26  2  0  0  0  0
 25 24  1  0  0  0  0
 26 27  1  0  0  0  0
 27 23  1  0  0  0  0
 27 28  1  0  0  0  0
M  END
>  <minimizedAffinity>
-4.83611441

>  <minimizedRMSD>
0.449708402

$$$$
