REMARK  Name = 
REMARK  6 active torsions:
REMARK  status: ('A' for Active; 'I' for Inactive)
REMARK    1  A    between atoms: C_1  and  C_4
REMARK    2  A    between atoms: C_3  and  C_11
REMARK    3  A    between atoms: C_4  and  C_9
REMARK    4  A    between atoms: C_11  and  O_13
REMARK    5  A    between atoms: O_13  and  C_14
REMARK    6  A    between atoms: C_17  and  N_30
REMARK                            x       y       z     vdW  Elec       q    Type
REMARK                         _______ _______ _______ _____ _____    ______ ____
ROOT
ATOM      1  C   UNL     1      35.297  29.412  48.977  0.00  0.00    +0.000 C 
ATOM      2  C   UNL     1      34.193  29.354  49.934  0.00  0.00    +0.000 C 
ATOM      3  C   UNL     1      34.532  28.095  49.341  0.00  0.00    +0.000 C 
ATOM      4  H   UNL     1      35.206  29.654  47.918  0.00  0.00    +0.000 HD
ATOM      5  H   UNL     1      33.264  29.933  49.660  0.00  0.00    +0.000 HD
ATOM      6  H   UNL     1      34.447  29.560  51.014  0.00  0.00    +0.000 HD
ATOM      7  H   UNL     1      35.181  27.340  49.778  0.00  0.00    +0.000 HD
ENDROOT
BRANCH   1   8
ATOM      8  C   UNL     1      36.711  29.382  49.583  0.00  0.00    +0.000 C 
ATOM      9  H   UNL     1      36.647  29.391  50.686  0.00  0.00    +0.000 HD
ATOM     10  H   UNL     1      37.212  28.442  49.276  0.00  0.00    +0.000 HD
BRANCH   8  15
ATOM     11  C   UNL     1      38.060  32.773  49.434  0.00  0.00    +0.000 A 
ATOM     12  C   UNL     1      38.751  32.777  48.200  0.00  0.00    +0.000 A 
ATOM     13  C   UNL     1      38.732  31.584  47.440  0.00  0.00    +0.000 A 
ATOM     14  N   UNL     1      38.050  30.505  47.944  0.00  0.00    +0.000 NA
ATOM     15  C   UNL     1      37.412  30.570  49.130  0.00  0.00    +0.000 A 
ATOM     16  N   UNL     1      37.426  31.715  49.866  0.00  0.00    +0.000 NA
ATOM     17  H   UNL     1      38.027  33.651  50.079  0.00  0.00    +0.000 HD
ATOM     18  H   UNL     1      39.263  33.675  47.882  0.00  0.00    +0.000 HD
ATOM     19  H   UNL     1      39.250  31.570  46.503  0.00  0.00    +0.000 HD
ENDBRANCH   8  15
ENDBRANCH   1   8
BRANCH   3  20
ATOM     20  C   UNL     1      33.567  27.584  48.292  0.00  0.00    +0.000 C 
ATOM     21  O   UNL     1      33.909  26.444  47.791  0.00  0.00    +0.000 OA
BRANCH  20  22
ATOM     22  O   UNL     1      32.408  28.207  47.863  0.00  0.00    +0.000 OA
BRANCH  22  23
ATOM     23  C   UNL     1      31.150  27.822  48.212  0.00  0.00    +0.000 A 
ATOM     24  C   UNL     1      30.631  27.807  49.588  0.00  0.00    +0.000 A 
ATOM     25  C   UNL     1      29.360  27.409  49.833  0.00  0.00    +0.000 A 
ATOM     26  C   UNL     1      28.530  27.005  48.755  0.00  0.00    +0.000 A 
ATOM     27  S   UNL     1      29.640  27.203  47.268  0.00  0.00    +0.000 S 
ATOM     28  H   UNL     1      31.306  28.123  50.369  0.00  0.00    +0.000 HD
ATOM     29  H   UNL     1      28.935  27.382  50.821  0.00  0.00    +0.000 HD
BRANCH  26  30
ATOM     30  N   UNL     1      27.210  26.568  48.798  0.00  0.00    +0.000 N 
ATOM     31  C   UNL     1      27.022  25.274  49.022  0.00  0.00    +0.000 A 
ATOM     32  C   UNL     1      25.719  24.772  49.078  0.00  0.00    +0.000 A 
ATOM     33  C   UNL     1      24.683  25.665  48.894  0.00  0.00    +0.000 A 
ATOM     34  O   UNL     1      23.490  25.278  48.932  0.00  0.00    +0.000 OA
ATOM     35  N   UNL     1      24.954  26.966  48.670  0.00  0.00    +0.000 N 
ATOM     36  C   UNL     1      26.225  27.462  48.615  0.00  0.00    +0.000 A 
ATOM     37  O   UNL     1      26.392  28.691  48.402  0.00  0.00    +0.000 OA
ATOM     38  H   UNL     1      24.181  27.658  48.528  0.00  0.00    +0.000 HD
ENDBRANCH  26  30
ENDBRANCH  22  23
ENDBRANCH  20  22
ENDBRANCH   3  20
TORSDOF 6
