
 OpenBabel03252514043D

 38 41  0  0  1  0  0  0  0  0999 V2000
   35.4570   29.2840   48.6870 C   0  0  2  0  0  0  0  0  0  0  0  0
   34.2340   29.2850   49.4890 C   0  0  0  0  0  0  0  0  0  0  0  0
   34.6900   27.9830   49.1010 C   0  0  1  0  0  0  0  0  0  0  0  0
   35.5050   29.3990   47.6040 H   0  0  0  0  0  0  0  0  0  0  0  0
   33.3340   29.7850   49.0270 H   0  0  0  0  0  0  0  0  0  0  0  0
   34.3310   29.6240   50.5610 H   0  0  0  0  0  0  0  0  0  0  0  0
   35.2950   27.3140   49.7080 H   0  0  0  0  0  0  0  0  0  0  0  0
   36.7740   29.3890   49.4750 C   0  0  0  0  0  0  0  0  0  0  0  0
   36.5620   29.4260   50.5590 H   0  0  0  0  0  0  0  0  0  0  0  0
   37.3840   28.4850   49.2750 H   0  0  0  0  0  0  0  0  0  0  0  0
   37.9330   32.8530   49.4180 C   0  0  0  0  0  0  0  0  0  0  0  0
   38.7050   32.9010   48.2330 C   0  0  0  0  0  0  0  0  0  0  0  0
   38.8060   31.7120   47.4740 C   0  0  0  0  0  0  0  0  0  0  0  0
   38.1550   30.5940   47.9310 N   0  0  0  0  0  0  0  0  0  0  0  0
   37.4350   30.6170   49.0710 C   0  0  0  0  0  0  0  0  0  0  0  0
   37.3330   31.7590   49.8060 N   0  0  0  0  0  0  0  0  0  0  0  0
   37.8060   33.7250   50.0590 H   0  0  0  0  0  0  0  0  0  0  0  0
   39.1850   33.8280   47.9510 H   0  0  0  0  0  0  0  0  0  0  0  0
   39.3860   31.7310   46.5740 H   0  0  0  0  0  0  0  0  0  0  0  0
   33.8940   27.3120   48.0020 C   0  0  0  0  0  0  0  0  0  0  0  0
   34.2540   26.0920   47.7790 O   0  0  0  0  0  0  0  0  0  0  0  0
   32.8620   27.8720   47.2690 O   0  0  0  0  0  0  0  0  0  0  0  0
   31.5910   28.0350   47.7260 C   0  0  0  0  0  0  0  0  0  0  0  0
   31.1130   27.5970   49.0460 C   0  0  0  0  0  0  0  0  0  0  0  0
   29.8260   27.8090   49.4100 C   0  0  0  0  0  0  0  0  0  0  0  0
   28.9380   28.4540   48.5100 C   0  0  0  0  0  0  0  0  0  0  0  0
   30.0130   28.7900   47.0220 S   0  0  0  0  0  0  0  0  0  0  0  0
   31.8310   27.1110   49.6890 H   0  0  0  0  0  0  0  0  0  0  0  0
   29.4310   27.5080   50.3640 H   0  0  0  0  0  0  0  0  0  0  0  0
   27.5940   28.7610   48.6940 N   0  0  0  0  0  0  0  0  0  0  0  0
   27.3010   30.0400   48.8920 C   0  0  0  0  0  3  0  0  0  0  0  0
   25.9680   30.4140   49.0840 C   0  0  0  0  0  3  0  0  0  0  0  0
   25.0150   29.4160   49.0570 C   0  0  0  0  0  0  0  0  0  0  0  0
   23.8020   29.6850   49.2220 O   0  0  0  0  0  0  0  0  0  0  0  0
   25.3910   28.1390   48.8510 N   0  0  0  0  0  0  0  0  0  0  0  0
   26.6910   27.7670   48.6620 C   0  0  0  0  0  0  0  0  0  0  0  0
   26.9590   26.5520   48.4760 O   0  0  0  0  0  0  0  0  0  0  0  0
   24.6830   27.3690   48.8270 H   0  0  0  0  0  0  0  0  0  0  0  0
  1  4  1  6  0  0  0
  1  3  1  0  0  0  0
  1  8  1  0  0  0  0
  1  2  1  0  0  0  0
  2  6  1  0  0  0  0
  3  2  1  0  0  0  0
  3  7  1  1  0  0  0
  5  2  1  0  0  0  0
  8  9  1  0  0  0  0
 10  8  1  0  0  0  0
 11 16  1  0  0  0  0
 11 17  1  0  0  0  0
 12 11  2  0  0  0  0
 13 14  2  0  0  0  0
 13 12  1  0  0  0  0
 14 15  1  0  0  0  0
 15  8  1  0  0  0  0
 15 16  2  0  0  0  0
 18 12  1  0  0  0  0
 19 13  1  0  0  0  0
 20  3  1  0  0  0  0
 21 20  2  0  0  0  0
 22 23  1  0  0  0  0
 22 20  1  0  0  0  0
 23 24  2  0  0  0  0
 24 25  1  0  0  0  0
 24 28  1  0  0  0  0
 25 29  1  0  0  0  0
 26 30  1  0  0  0  0
 26 25  2  0  0  0  0
 27 23  1  0  0  0  0
 27 26  1  0  0  0  0
 30 31  1  0  0  0  0
 31 32  2  0  0  0  0
 33 32  1  0  0  0  0
 33 34  2  0  0  0  0
 35 33  1  0  0  0  0
 36 30  1  0  0  0  0
 36 35  1  0  0  0  0
 37 36  2  0  0  0  0
 38 35  1  0  0  0  0
M  END
>  <minimizedAffinity>
-6.95746946

>  <minimizedRMSD>
1.83790839

$$$$
