
 OpenBabel03252514013D

 28 30  0  0  1  0  0  0  0  0999 V2000
   35.6270   29.5790   49.2900 C   0  0  2  0  0  0  0  0  0  0  0  0
   34.6930   29.4830   50.4210 C   0  0  0  0  0  0  0  0  0  0  0  0
   34.9090   28.2660   49.6440 C   0  0  1  0  0  0  0  0  0  0  0  0
   35.3330   30.1350   48.3970 H   0  0  0  0  0  0  0  0  0  0  0  0
   35.0760   29.4570   51.4820 H   0  0  0  0  0  0  0  0  0  0  0  0
   33.7220   30.0170   50.3840 H   0  0  0  0  0  0  0  0  0  0  0  0
   35.6030   27.4360   49.7580 H   0  0  0  0  0  0  0  0  0  0  0  0
   37.1220   29.4970   49.5870 C   0  0  0  0  0  0  0  0  0  0  0  0
   37.5600   28.5590   49.2070 H   0  0  0  0  0  0  0  0  0  0  0  0
   37.2200   29.4630   50.6900 H   0  0  0  0  0  0  0  0  0  0  0  0
   38.3700   32.9360   49.3580 C   0  0  0  0  0  0  0  0  0  0  0  0
   38.9170   32.9850   48.0680 C   0  0  0  0  0  0  0  0  0  0  0  0
   38.8510   31.8220   47.2820 C   0  0  0  0  0  0  0  0  0  0  0  0
   38.2510   30.7020   47.8290 N   0  0  0  0  0  0  0  0  0  0  0  0
   37.7430   30.7220   49.0810 C   0  0  0  0  0  0  0  0  0  0  0  0
   37.8090   31.8450   49.8360 N   0  0  0  0  0  0  0  0  0  0  0  0
   38.4760   33.8820   49.8700 H   0  0  0  0  0  0  0  0  0  0  0  0
   39.3990   33.8090   47.5660 H   0  0  0  0  0  0  0  0  0  0  0  0
   39.2180   31.6860   46.2780 H   0  0  0  0  0  0  0  0  0  0  0  0
   33.7450   27.8750   48.7720 C   0  0  0  0  0  0  0  0  0  0  0  0
   34.0580   27.1790   47.7280 O   0  0  0  0  0  0  0  0  0  0  0  0
   32.4060   28.1720   48.9750 O   0  0  0  0  0  0  0  0  0  0  0  0
   31.4490   27.5530   48.1850 C   0  0  0  0  0  0  0  0  0  0  0  0
   30.9210   28.2880   47.1750 N   0  0  0  0  0  0  0  0  0  0  0  0
   30.0370   27.5920   46.5130 O   0  0  0  0  0  0  0  0  0  0  0  0
   29.9840   26.4130   47.0790 C   0  0  0  0  0  0  0  0  0  0  0  0
   29.3030   25.6850   46.6710 H   0  0  0  0  0  0  0  0  0  0  0  0
   30.8490   26.3700   48.1130 N   0  0  0  0  0  0  0  0  0  0  0  0
  1  4  1  6  0  0  0
  1  8  1  0  0  0  0
  1  3  1  0  0  0  0
  1  2  1  0  0  0  0
  2  5  1  0  0  0  0
  3  7  1  1  0  0  0
  3  2  1  0  0  0  0
  6  2  1  0  0  0  0
  8 10  1  0  0  0  0
  9  8  1  0  0  0  0
 11 16  1  0  0  0  0
 11 17  1  0  0  0  0
 12 11  2  0  0  0  0
 13 14  2  0  0  0  0
 13 12  1  0  0  0  0
 14 15  1  0  0  0  0
 15  8  1  0  0  0  0
 15 16  2  0  0  0  0
 18 12  1  0  0  0  0
 19 13  1  0  0  0  0
 20 22  1  0  0  0  0
 20  3  1  0  0  0  0
 21 20  2  0  0  0  0
 23 22  1  0  0  0  0
 24 23  2  0  0  0  0
 25 26  1  0  0  0  0
 25 24  1  0  0  0  0
 26 28  2  0  0  0  0
 27 26  1  0  0  0  0
 28 23  1  0  0  0  0
M  END
>  <minimizedAffinity>
-4.82629442

>  <minimizedRMSD>
0.636830926

$$$$
