
 OpenBabel03252513383D

 29 30  0  0  0  0  0  0  0  0999 V2000
   36.9410   29.9320   49.8990 C   0  0  0  0  0  0  0  0  0  0  0  0
   38.0340   30.6560   49.4620 C   0  0  0  0  0  0  0  0  0  0  0  0
   38.0500   31.1020   48.1310 C   0  0  0  0  0  0  0  0  0  0  0  0
   36.9860   30.7960   47.3460 N   0  0  0  0  0  0  0  0  0  0  0  0
   35.9380   30.0860   47.8100 C   0  0  0  0  0  0  0  0  0  0  0  0
   35.9170   29.6580   49.0830 N   0  0  0  0  0  0  0  0  0  0  0  0
   39.1330   31.8410   47.6310 N   0  0  0  0  0  0  0  0  0  0  0  0
   39.0150   32.5920   46.4290 C   0  0  0  0  0  0  0  0  0  0  0  0
   37.9320   32.5120   45.7510 N   0  0  0  0  0  0  0  0  0  0  0  0
   40.1060   33.4130   46.0130 N   0  0  0  0  0  0  0  0  0  0  0  0
   37.9190   32.9530   44.7940 H   0  0  0  0  0  0  0  0  0  0  0  0
   38.8800   30.8930   50.1060 H   0  0  0  0  0  0  0  0  0  0  0  0
   40.0430   31.8250   48.1760 H   0  0  0  0  0  0  0  0  0  0  0  0
   41.0290   33.3390   46.4540 H   0  0  0  0  0  0  0  0  0  0  0  0
   39.9250   34.1030   45.2280 H   0  0  0  0  0  0  0  0  0  0  0  0
   34.9110   29.8560   46.8520 N   0  0  0  0  0  0  0  0  0  0  0  0
   33.6610   29.4700   47.1940 C   0  0  0  0  0  0  0  0  0  0  0  0
   32.7090   29.2630   46.2120 C   0  0  0  0  0  0  0  0  0  0  0  0
   33.0600   29.4580   44.8830 C   0  0  0  0  0  0  0  0  0  0  0  0
   32.1000   29.2540   43.8280 N   0  0  0  0  0  0  0  0  0  0  0  0
   34.3030   29.8430   44.5400 N   0  0  0  0  0  0  0  0  0  0  0  0
   35.2020   30.0340   45.5330 C   0  0  0  0  0  0  0  0  0  0  0  0
   36.3600   30.3940   45.1830 O   0  0  0  0  0  0  0  0  0  0  0  0
   32.1080   28.5510   43.0570 H   0  0  0  0  0  0  0  0  0  0  0  0
   31.3770   29.9830   44.0130 H   0  0  0  0  0  0  0  0  0  0  0  0
   36.8920   29.4420   51.3140 C   0  0  0  0  0  0  0  0  0  0  0  0
   35.5960   29.1750   51.6990 F   0  0  0  0  0  0  0  0  0  0  0  0
   37.7690   28.4130   51.4520 F   0  0  0  0  0  0  0  0  0  0  0  0
   37.3280   30.5140   52.1180 F   0  0  0  0  0  0  0  0  0  0  0  0
  1 26  1  0  0  0  0
  2  1  1  0  0  0  0
  2 12  1  0  0  0  0
  3  2  2  0  0  0  0
  4  5  2  0  0  0  0
  4  3  1  0  0  0  0
  5  6  1  0  0  0  0
  6  1  2  0  0  0  0
  7  3  1  0  0  0  0
  7 13  1  0  0  0  0
  8  7  1  0  0  0  0
  9  8  2  0  0  0  0
 10  8  1  0  0  0  0
 10 14  1  0  0  0  0
 11  9  1  0  0  0  0
 15 10  1  0  0  0  0
 16 17  1  0  0  0  0
 16  5  1  0  0  0  0
 18 17  2  0  0  0  0
 19 18  1  0  0  0  0
 20 25  1  0  0  0  0
 20 19  1  0  0  0  0
 21 19  2  0  0  0  0
 21 22  1  0  0  0  0
 22 16  1  0  0  0  0
 23 22  2  0  0  0  0
 24 20  1  0  0  0  0
 26 28  1  0  0  0  0
 26 27  1  0  0  0  0
 26 29  1  0  0  0  0
M  END
>  <minimizedAffinity>
-7.12756205

>  <minimizedRMSD>
0.167688474

$$$$
