
 OpenBabel03252514013D

 28 30  0  0  1  0  0  0  0  0999 V2000
   35.4970   29.4860   49.1920 C   0  0  2  0  0  0  0  0  0  0  0  0
   34.4690   29.4800   50.2420 C   0  0  0  0  0  0  0  0  0  0  0  0
   34.7260   28.2100   49.5680 C   0  0  1  0  0  0  0  0  0  0  0  0
   35.2920   29.9850   48.2420 H   0  0  0  0  0  0  0  0  0  0  0  0
   34.7580   29.5210   51.3320 H   0  0  0  0  0  0  0  0  0  0  0  0
   33.5140   30.0240   50.0860 H   0  0  0  0  0  0  0  0  0  0  0  0
   35.3910   27.3810   49.7980 H   0  0  0  0  0  0  0  0  0  0  0  0
   36.9590   29.4050   49.6220 C   0  0  0  0  0  0  0  0  0  0  0  0
   37.4120   28.4390   49.3390 H   0  0  0  0  0  0  0  0  0  0  0  0
   36.9610   29.4370   50.7300 H   0  0  0  0  0  0  0  0  0  0  0  0
   38.4370   32.7490   49.3660 C   0  0  0  0  0  0  0  0  0  0  0  0
   38.9310   32.7730   48.0530 C   0  0  0  0  0  0  0  0  0  0  0  0
   38.7480   31.6260   47.2620 C   0  0  0  0  0  0  0  0  0  0  0  0
   38.0940   30.5460   47.8260 N   0  0  0  0  0  0  0  0  0  0  0  0
   37.6430   30.5880   49.0990 C   0  0  0  0  0  0  0  0  0  0  0  0
   37.8210   31.6950   49.8590 N   0  0  0  0  0  0  0  0  0  0  0  0
   38.6320   33.6800   49.8800 H   0  0  0  0  0  0  0  0  0  0  0  0
   39.4480   33.5660   47.5370 H   0  0  0  0  0  0  0  0  0  0  0  0
   39.0620   31.4750   46.2420 H   0  0  0  0  0  0  0  0  0  0  0  0
   33.6330   27.7780   48.6270 C   0  0  0  0  0  0  0  0  0  0  0  0
   33.9840   26.8820   47.7630 O   0  0  0  0  0  0  0  0  0  0  0  0
   32.3220   28.2260   48.5990 O   0  0  0  0  0  0  0  0  0  0  0  0
   31.4290   27.6500   47.7070 C   0  0  0  0  0  0  0  0  0  0  0  0
   30.5850   26.7130   48.2050 N   0  0  0  0  0  0  0  0  0  0  0  0
   29.8030   26.2540   47.2670 O   0  0  0  0  0  0  0  0  0  0  0  0
   30.1260   26.8800   46.1650 C   0  0  0  0  0  0  0  0  0  0  0  0
   29.5860   26.6370   45.2650 H   0  0  0  0  0  0  0  0  0  0  0  0
   31.1290   27.7470   46.4160 N   0  0  0  0  0  0  0  0  0  0  0  0
  1  4  1  6  0  0  0
  1  3  1  0  0  0  0
  1  8  1  0  0  0  0
  1  2  1  0  0  0  0
  2  5  1  0  0  0  0
  3  7  1  1  0  0  0
  3  2  1  0  0  0  0
  6  2  1  0  0  0  0
  8 10  1  0  0  0  0
  9  8  1  0  0  0  0
 11 16  1  0  0  0  0
 11 17  1  0  0  0  0
 12 11  2  0  0  0  0
 13 14  2  0  0  0  0
 13 12  1  0  0  0  0
 14 15  1  0  0  0  0
 15  8  1  0  0  0  0
 15 16  2  0  0  0  0
 18 12  1  0  0  0  0
 19 13  1  0  0  0  0
 20  3  1  0  0  0  0
 21 20  2  0  0  0  0
 22 20  1  0  0  0  0
 23 24  2  0  0  0  0
 23 22  1  0  0  0  0
 25 24  1  0  0  0  0
 26 28  2  0  0  0  0
 26 25  1  0  0  0  0
 27 26  1  0  0  0  0
 28 23  1  0  0  0  0
M  END
>  <minimizedAffinity>
-4.75499153

>  <minimizedRMSD>
0.634525299

$$$$
