
 OpenBabel03252513433D

 23 24  0  0  0  0  0  0  0  0999 V2000
   37.5680   30.3540   49.1210 C   0  0  0  0  0  0  0  0  0  0  0  0
   37.8330   31.4400   49.9870 C   0  0  0  0  0  0  0  0  0  0  0  0
   38.5330   32.5390   49.4600 C   0  0  0  0  0  0  0  0  0  0  0  0
   38.9160   32.5030   48.1560 N   0  0  0  0  0  0  0  0  0  0  0  0
   38.6400   31.4500   47.3800 C   0  0  0  0  0  0  0  0  0  0  0  0
   37.9750   30.3820   47.8400 N   0  0  0  0  0  0  0  0  0  0  0  0
   37.5240   31.4640   51.0260 H   0  0  0  0  0  0  0  0  0  0  0  0
   38.7690   33.3980   50.0610 H   0  0  0  0  0  0  0  0  0  0  0  0
   39.0440   31.4190   46.0160 N   0  0  0  0  0  0  0  0  0  0  0  0
   38.6590   30.3520   45.2910 C   0  0  0  0  0  0  0  0  0  0  0  0
   39.0580   30.3330   43.9700 C   0  0  0  0  0  0  0  0  0  0  0  0
   39.8050   31.3970   43.5190 C   0  0  0  0  0  0  0  0  0  0  0  0
   40.2370   31.4190   42.1650 N   0  0  0  0  0  0  0  0  0  0  0  0
   40.1610   32.4350   44.2840 N   0  0  0  0  0  0  0  0  0  0  0  0
   39.7750   32.4670   45.5900 C   0  0  0  0  0  0  0  0  0  0  0  0
   40.0730   33.4100   46.3650 O   0  0  0  0  0  0  0  0  0  0  0  0
   41.1130   30.8370   42.2260 H   0  0  0  0  0  0  0  0  0  0  0  0
   40.8610   31.1890   41.3810 H   0  0  0  0  0  0  0  0  0  0  0  0
   36.8830   29.2770   49.6310 O   0  0  0  0  0  0  0  0  0  0  0  0
   35.5910   29.3230   50.1840 C   0  0  0  0  0  0  0  0  0  0  0  0
   35.5920   29.2990   51.5680 F   0  0  0  0  0  0  0  0  0  0  0  0
   34.8250   30.3570   49.7150 F   0  0  0  0  0  0  0  0  0  0  0  0
   34.9630   28.1380   49.7570 F   0  0  0  0  0  0  0  0  0  0  0  0
  1 19  1  0  0  0  0
  1  2  1  0  0  0  0
  2  7  1  0  0  0  0
  3  2  2  0  0  0  0
  3  8  1  0  0  0  0
  4  3  1  0  0  0  0
  5  6  1  0  0  0  0
  5  4  2  0  0  0  0
  6  1  2  0  0  0  0
  9  5  1  0  0  0  0
 10  9  1  0  0  0  0
 11 10  2  0  0  0  0
 12 11  1  0  0  0  0
 12 14  2  0  0  0  0
 13 17  1  0  0  0  0
 13 12  1  0  0  0  0
 14 15  1  0  0  0  0
 15  9  1  0  0  0  0
 15 16  2  0  0  0  0
 18 13  1  0  0  0  0
 19 20  1  0  0  0  0
 20 21  1  0  0  0  0
 22 20  1  0  0  0  0
 23 20  1  0  0  0  0
M  END
>  <minimizedAffinity>
-6.47415876

>  <minimizedRMSD>
1.30167389

$$$$
