
 OpenBabel03252514083D

 44 48  0  0  0  0  0  0  0  0999 V2000
   34.1500   30.0970   47.5570 C   0  0  0  0  0  0  0  0  0  0  0  0
   35.1470   29.8540   48.5330 C   0  0  0  0  0  0  0  0  0  0  0  0
   35.0040   28.7060   49.2860 C   0  0  0  0  0  0  0  0  0  0  0  0
   33.9460   27.8890   49.0580 N   0  0  0  0  0  0  0  0  0  0  0  0
   33.0110   28.1330   48.1310 C   0  0  0  0  0  0  0  0  0  0  0  0
   33.1280   29.2340   47.3940 N   0  0  0  0  0  0  0  0  0  0  0  0
   34.2460   30.9990   46.9550 H   0  0  0  0  0  0  0  0  0  0  0  0
   35.7580   28.5190   50.0260 H   0  0  0  0  0  0  0  0  0  0  0  0
   36.1940   30.8060   48.6480 N   0  0  0  0  0  0  0  0  0  0  0  0
   36.4880   31.4630   49.8070 C   0  0  0  0  0  0  0  0  0  0  0  0
   37.5260   32.2960   49.5850 N   0  0  0  0  0  0  0  0  0  0  0  0
   37.8580   32.1400   48.2880 C   0  0  0  0  0  0  0  0  0  0  0  0
   38.8300   32.7110   47.4740 C   0  0  0  0  0  0  0  0  0  0  0  0
   38.9540   32.3780   46.1930 N   0  0  0  0  0  0  0  0  0  0  0  0
   38.1350   31.4610   45.6130 C   0  0  0  0  0  0  0  0  0  0  0  0
   37.1940   30.9100   46.4080 N   0  0  0  0  0  0  0  0  0  0  0  0
   37.0290   31.2090   47.6920 C   0  0  0  0  0  0  0  0  0  0  0  0
   36.0400   31.4090   50.7930 H   0  0  0  0  0  0  0  0  0  0  0  0
   38.2530   31.2030   44.5650 H   0  0  0  0  0  0  0  0  0  0  0  0
   39.7090   33.6750   48.0210 N   0  0  0  0  0  0  0  0  0  0  0  0
   39.5550   34.7230   48.0200 H   0  0  0  0  0  0  0  0  0  0  0  0
   40.6420   33.5800   48.5170 H   0  0  0  0  0  0  0  0  0  0  0  0
   31.8650   27.2290   47.9000 C   0  0  0  0  0  0  0  0  0  0  0  0
   30.8390   27.4020   49.0080 C   0  0  0  0  0  0  0  0  0  0  0  0
   29.8850   26.9620   48.6450 H   0  0  0  0  0  0  0  0  0  0  0  0
   31.1870   26.8890   49.9220 H   0  0  0  0  0  0  0  0  0  0  0  0
   30.7160   28.4890   49.2040 H   0  0  0  0  0  0  0  0  0  0  0  0
   31.1260   27.6280   46.6190 C   0  0  0  0  0  0  0  0  0  0  0  0
   31.7880   27.8170   45.7760 H   0  0  0  0  0  0  0  0  0  0  0  0
   30.6660   28.6250   46.8670 H   0  0  0  0  0  0  0  0  0  0  0  0
   30.3030   26.9170   46.4440 H   0  0  0  0  0  0  0  0  0  0  0  0
   32.2650   25.7940   47.7460 C   0  0  0  0  0  0  0  0  0  0  0  0
   31.3430   25.1910   47.9030 H   0  0  0  0  0  0  0  0  0  0  0  0
   33.0800   25.5080   48.4480 H   0  0  0  0  0  0  0  0  0  0  0  0
   32.8070   25.5890   46.4180 N   0  0  0  0  0  0  0  0  0  0  0  0
   33.9910   26.0010   45.9270 C   0  0  0  0  0  3  0  0  0  0  0  0
   34.1750   25.6360   44.6460 N   0  0  0  0  0  0  0  0  0  0  0  0
   33.0820   24.9590   44.2640 C   0  0  0  0  0  0  0  0  0  0  0  0
   32.6860   24.3430   43.0830 C   0  0  0  0  0  0  0  0  0  0  0  0
   33.3320   24.3580   42.2240 H   0  0  0  0  0  0  0  0  0  0  0  0
   31.5020   23.7190   42.9770 N   0  0  0  0  0  0  0  0  0  0  0  0
   30.7060   23.7120   44.0610 C   0  0  0  0  0  3  0  0  0  0  0  0
   31.0800   24.3080   45.2160 N   0  0  0  0  0  0  0  0  0  0  0  0
   32.2550   24.9420   45.3660 C   0  0  0  0  0  0  0  0  0  0  0  0
  1  2  1  0  0  0  0
  2  9  1  0  0  0  0
  2  3  2  0  0  0  0
  3  8  1  0  0  0  0
  4  3  1  0  0  0  0
  5  4  2  0  0  0  0
  6  1  2  0  0  0  0
  6  5  1  0  0  0  0
  7  1  1  0  0  0  0
  9 10  1  0  0  0  0
 10 18  1  0  0  0  0
 11 10  2  0  0  0  0
 12 11  1  0  0  0  0
 13 20  1  0  0  0  0
 13 12  2  0  0  0  0
 14 13  1  0  0  0  0
 15 14  2  0  0  0  0
 15 16  1  0  0  0  0
 16 17  2  0  0  0  0
 17 12  1  0  0  0  0
 17  9  1  0  0  0  0
 19 15  1  0  0  0  0
 20 22  1  0  0  0  0
 21 20  1  0  0  0  0
 23  5  1  0  0  0  0
 23 24  1  0  0  0  0
 24 27  1  0  0  0  0
 24 26  1  0  0  0  0
 25 24  1  0  0  0  0
 28 30  1  0  0  0  0
 28 23  1  0  0  0  0
 29 28  1  0  0  0  0
 31 28  1  0  0  0  0
 32 23  1  0  0  0  0
 32 33  1  0  0  0  0
 32 34  1  0  0  0  0
 35 32  1  0  0  0  0
 36 35  1  0  0  0  0
 37 36  2  0  0  0  0
 38 37  1  0  0  0  0
 38 44  1  0  0  0  0
 39 38  2  0  0  0  0
 40 39  1  0  0  0  0
 41 39  1  0  0  0  0
 41 42  2  0  0  0  0
 42 43  1  0  0  0  0
 43 44  2  0  0  0  0
 44 35  1  0  0  0  0
M  END
>  <minimizedAffinity>
-5.29668093

>  <minimizedRMSD>
1.74514055

$$$$
