
 OpenBabel03252513133D

 46 49  0  0  0  0  0  0  0  0999 V2000
   36.1380   31.3350   42.6270 C   0  0  0  0  0  0  0  0  0  0  0  0
   37.3100   31.0170   41.9370 C   0  0  0  0  0  0  0  0  0  0  0  0
   38.3780   30.6090   42.6800 C   0  0  0  0  0  0  0  0  0  0  0  0
   38.2000   30.5520   43.9920 N   0  0  0  0  0  0  0  0  0  0  0  0
   37.1490   30.8290   44.7010 C   0  0  0  0  0  0  0  0  0  0  0  0
   36.1240   31.2240   43.9610 N   0  0  0  0  0  0  0  0  0  0  0  0
   35.2680   31.6660   42.0450 H   0  0  0  0  0  0  0  0  0  0  0  0
   36.8510   30.8020   46.1180 C   0  0  0  0  0  0  0  0  0  0  0  0
   35.8340   30.0370   46.6710 C   0  0  0  0  0  0  0  0  0  0  0  0
   35.5260   29.9880   47.9950 C   0  0  0  0  0  0  0  0  0  0  0  0
   36.2390   30.7250   48.8900 C   0  0  0  0  0  0  0  0  0  0  0  0
   37.2490   31.4960   48.4170 C   0  0  0  0  0  0  0  0  0  0  0  0
   37.9700   32.2430   49.3270 C   0  0  0  0  0  0  0  0  0  0  0  0
   39.0000   33.0420   48.9320 C   0  0  0  0  0  0  0  0  0  0  0  0
   39.3110   33.0900   47.5820 C   0  0  0  0  0  0  0  0  0  0  0  0
   38.5710   32.3340   46.7150 C   0  0  0  0  0  0  0  0  0  0  0  0
   37.5550   31.5410   47.0730 C   0  0  0  0  0  0  0  0  0  0  0  0
   35.2430   29.4360   45.9890 H   0  0  0  0  0  0  0  0  0  0  0  0
   34.7120   29.3620   48.3390 H   0  0  0  0  0  0  0  0  0  0  0  0
   37.7860   32.2590   50.3920 H   0  0  0  0  0  0  0  0  0  0  0  0
   39.5880   33.6420   49.6120 H   0  0  0  0  0  0  0  0  0  0  0  0
   40.1250   33.7170   47.2440 H   0  0  0  0  0  0  0  0  0  0  0  0
   38.8420   32.3950   45.6600 H   0  0  0  0  0  0  0  0  0  0  0  0
   35.9090   30.6590   50.2230 O   0  0  0  0  0  0  0  0  0  0  0  0
   36.4200   29.6220   51.0450 C   0  0  0  0  0  0  0  0  0  0  0  0
   37.2390   28.7300   50.4210 F   0  0  0  0  0  0  0  0  0  0  0  0
   37.1900   30.2210   52.0330 F   0  0  0  0  0  0  0  0  0  0  0  0
   35.3160   28.9840   51.5980 F   0  0  0  0  0  0  0  0  0  0  0  0
   37.4350   31.1010   40.5220 N   0  0  0  0  0  0  0  0  0  0  0  0
   37.5580   32.3810   40.0670 C   0  0  0  0  0  0  0  0  0  0  0  0
   37.6910   32.6420   38.7010 C   0  0  0  0  0  0  0  0  0  0  0  0
   37.6880   31.5460   37.8540 C   0  0  0  0  0  0  0  0  0  0  0  0
   37.8200   31.7190   36.4320 N   0  0  0  0  0  0  0  0  0  0  0  0
   37.5640   30.3080   38.3600 N   0  0  0  0  0  0  0  0  0  0  0  0
   37.4370   30.0570   39.6720 C   0  0  0  0  0  0  0  0  0  0  0  0
   37.3170   28.9070   40.1790 O   0  0  0  0  0  0  0  0  0  0  0  0
   38.5550   32.3180   36.0100 H   0  0  0  0  0  0  0  0  0  0  0  0
   37.1790   31.2510   35.7420 H   0  0  0  0  0  0  0  0  0  0  0  0
   39.6410   30.2460   42.1340 N   0  0  0  0  0  0  0  0  0  0  0  0
   40.7600   29.9310   42.9330 C   0  0  0  0  0  0  0  0  0  0  0  0
   40.9630   30.6340   44.0010 N   0  0  0  0  0  0  0  0  0  0  0  0
   41.6230   28.8790   42.5710 N   0  0  0  0  0  0  0  0  0  0  0  0
   41.7100   30.5270   44.6770 H   0  0  0  0  0  0  0  0  0  0  0  0
   39.7420   30.2090   41.0750 H   0  0  0  0  0  0  0  0  0  0  0  0
   41.4610   27.8670   42.3410 H   0  0  0  0  0  0  0  0  0  0  0  0
   42.6600   28.8780   42.4470 H   0  0  0  0  0  0  0  0  0  0  0  0
  1  6  1  0  0  0  0
  2  1  2  0  0  0  0
  2  3  1  0  0  0  0
  3  4  2  0  0  0  0
  4  5  1  0  0  0  0
  5  8  1  0  0  0  0
  6  5  2  0  0  0  0
  7  1  1  0  0  0  0
  8  9  2  0  0  0  0
  8 17  1  0  0  0  0
  9 10  1  0  0  0  0
 10 19  1  0  0  0  0
 10 11  2  0  0  0  0
 11 24  1  0  0  0  0
 12 11  1  0  0  0  0
 12 13  1  0  0  0  0
 13 20  1  0  0  0  0
 14 13  2  0  0  0  0
 14 21  1  0  0  0  0
 15 14  1  0  0  0  0
 16 17  1  0  0  0  0
 16 15  2  0  0  0  0
 17 12  2  0  0  0  0
 18  9  1  0  0  0  0
 22 15  1  0  0  0  0
 23 16  1  0  0  0  0
 24 25  1  0  0  0  0
 25 28  1  0  0  0  0
 25 27  1  0  0  0  0
 26 25  1  0  0  0  0
 29  2  1  0  0  0  0
 30 29  1  0  0  0  0
 31 30  2  0  0  0  0
 32 34  2  0  0  0  0
 32 31  1  0  0  0  0
 33 32  1  0  0  0  0
 34 35  1  0  0  0  0
 35 36  2  0  0  0  0
 35 29  1  0  0  0  0
 37 33  1  0  0  0  0
 38 33  1  0  0  0  0
 39  3  1  0  0  0  0
 39 40  1  0  0  0  0
 40 41  2  0  0  0  0
 41 43  1  0  0  0  0
 42 40  1  0  0  0  0
 44 39  1  0  0  0  0
 45 42  1  0  0  0  0
 46 42  1  0  0  0  0
M  END
>  <minimizedAffinity>
-7.4701438

>  <minimizedRMSD>
0.194568038

$$$$
