
 OpenBabel03252513543D

 22 24  0  0  0  0  0  0  0  0999 V2000
   33.7600   29.3950   50.2900 C   0  0  0  0  0  0  0  0  0  0  0  0
   33.1490   30.3100   50.1200 H   0  0  0  0  0  0  0  0  0  0  0  0
   33.4250   28.9900   51.2680 H   0  0  0  0  0  0  0  0  0  0  0  0
   33.5890   28.4290   49.2240 N   0  0  0  0  0  0  0  0  0  0  0  0
   34.5210   27.9250   48.3970 C   0  0  0  0  0  0  0  0  0  0  0  0
   33.9270   27.0470   47.5450 N   0  0  0  0  0  0  0  0  0  0  0  0
   32.6160   26.9660   47.8000 C   0  0  0  0  0  0  0  0  0  0  0  0
   31.4980   26.3020   47.3330 C   0  0  0  0  0  0  0  0  0  0  0  0
   31.6520   25.6180   46.5050 H   0  0  0  0  0  0  0  0  0  0  0  0
   30.2670   26.4810   47.8650 N   0  0  0  0  0  0  0  0  0  0  0  0
   30.1200   27.3510   48.9040 C   0  0  0  0  0  0  0  0  0  0  0  0
   31.1930   28.0090   49.3770 N   0  0  0  0  0  0  0  0  0  0  0  0
   32.4230   27.8370   48.8530 C   0  0  0  0  0  0  0  0  0  0  0  0
   37.2560   29.7240   51.3890 C   0  0  0  0  0  0  0  0  0  0  0  0
   37.7590   30.7460   50.5600 C   0  0  0  0  0  0  0  0  0  0  0  0
   36.8850   31.3180   49.6220 C   0  0  0  0  0  0  0  0  0  0  0  0
   35.6070   30.8450   49.5780 N   0  0  0  0  0  0  0  0  0  0  0  0
   35.1570   29.8680   50.3830 C   0  0  0  0  0  0  0  0  0  0  0  0
   35.9940   29.3120   51.2900 N   0  0  0  0  0  0  0  0  0  0  0  0
   37.9940   29.3220   52.0990 H   0  0  0  0  0  0  0  0  0  0  0  0
   38.7530   31.1340   50.5730 H   0  0  0  0  0  0  0  0  0  0  0  0
   37.1640   32.1090   48.9340 H   0  0  0  0  0  0  0  0  0  0  0  0
  1 18  1  0  0  0  0
  1  3  1  0  0  0  0
  2  1  1  0  0  0  0
  4  1  1  0  0  0  0
  5  4  1  0  0  0  0
  6  7  1  0  0  0  0
  6  5  2  0  0  0  0
  7 13  1  0  0  0  0
  8  7  2  0  0  0  0
  8 10  1  0  0  0  0
  9  8  1  0  0  0  0
 10 11  2  0  0  0  0
 11 12  1  0  0  0  0
 13  4  1  0  0  0  0
 13 12  2  0  0  0  0
 14 20  1  0  0  0  0
 15 21  1  0  0  0  0
 15 14  2  0  0  0  0
 16 15  1  0  0  0  0
 17 16  2  0  0  0  0
 17 18  1  0  0  0  0
 18 19  2  0  0  0  0
 19 14  1  0  0  0  0
 22 16  1  0  0  0  0
M  END
>  <minimizedAffinity>
-4.32165241

>  <minimizedRMSD>
2.73663259

$$$$
