
 OpenBabel03252512153D

 41 45  0  0  0  0  0  0  0  0999 V2000
   32.2980   29.9200   46.1700 C   0  0  0  0  0  0  0  0  0  0  0  0
   32.0180   28.5560   46.1680 C   0  0  0  0  0  0  0  0  0  0  0  0
   32.9830   27.6980   46.7300 C   0  0  0  0  0  0  0  0  0  0  0  0
   34.1240   28.2130   47.2400 N   0  0  0  0  0  0  0  0  0  0  0  0
   34.3610   29.5550   47.2240 C   0  0  0  0  0  0  0  0  0  0  0  0
   33.4550   30.3960   46.6930 N   0  0  0  0  0  0  0  0  0  0  0  0
   31.5480   30.5680   45.7360 H   0  0  0  0  0  0  0  0  0  0  0  0
   31.0890   28.1910   45.7470 H   0  0  0  0  0  0  0  0  0  0  0  0
   32.7330   26.2580   46.7520 C   0  0  0  0  0  0  0  0  0  0  0  0
   33.6190   25.4390   47.4250 C   0  0  0  0  0  0  0  0  0  0  0  0
   33.3190   24.0980   47.4020 C   0  0  0  0  0  0  0  0  0  0  0  0
   32.2410   23.6000   46.7710 N   0  0  0  0  0  0  0  0  0  0  0  0
   31.3860   24.4420   46.1150 C   0  0  0  0  0  0  0  0  0  0  0  0
   31.6630   25.7660   46.1250 N   0  0  0  0  0  0  0  0  0  0  0  0
   34.4980   25.8040   47.9450 H   0  0  0  0  0  0  0  0  0  0  0  0
   33.9320   23.3540   47.8900 H   0  0  0  0  0  0  0  0  0  0  0  0
   30.2130   24.0580   45.4080 N   0  0  0  0  0  0  0  0  0  0  0  0
   29.6390   25.0050   44.6270 C   0  0  0  0  0  0  0  0  0  0  0  0
   28.4840   24.6720   43.9130 C   0  0  0  0  0  0  0  0  0  0  0  0
   27.9690   23.3970   44.0270 C   0  0  0  0  0  0  0  0  0  0  0  0
   26.8010   23.0450   43.3120 N   0  0  0  0  0  0  0  0  0  0  0  0
   28.5770   22.4790   44.8240 N   0  0  0  0  0  0  0  0  0  0  0  0
   29.7060   22.8000   45.5210 C   0  0  0  0  0  0  0  0  0  0  0  0
   30.2840   21.9520   46.2680 O   0  0  0  0  0  0  0  0  0  0  0  0
   26.3880   22.1100   43.3100 H   0  0  0  0  0  0  0  0  0  0  0  0
   26.2940   23.7330   42.7420 H   0  0  0  0  0  0  0  0  0  0  0  0
   35.6130   30.0250   47.7930 C   0  0  0  0  0  0  0  0  0  0  0  0
   36.6080   30.6510   47.0610 C   0  0  0  0  0  0  0  0  0  0  0  0
   37.6360   30.9640   47.8640 N   0  0  0  0  0  0  0  0  0  0  0  0
   37.3280   30.5520   49.1190 C   0  0  0  0  0  0  0  0  0  0  0  0
   38.0280   30.6260   50.3220 C   0  0  0  0  0  0  0  0  0  0  0  0
   37.4420   30.1070   51.4620 C   0  0  0  0  0  0  0  0  0  0  0  0
   36.1880   29.5300   51.3920 C   0  0  0  0  0  0  0  0  0  0  0  0
   35.4690   29.4430   50.2050 C   0  0  0  0  0  0  0  0  0  0  0  0
   36.0680   29.9660   49.0750 C   0  0  0  0  0  0  0  0  0  0  0  0
   36.6270   30.8870   45.9950 H   0  0  0  0  0  0  0  0  0  0  0  0
   38.5260   31.4360   47.6190 H   0  0  0  0  0  0  0  0  0  0  0  0
   39.0030   31.0900   50.3020 H   0  0  0  0  0  0  0  0  0  0  0  0
   38.0260   30.1910   52.3590 H   0  0  0  0  0  0  0  0  0  0  0  0
   35.8000   29.1470   52.3290 H   0  0  0  0  0  0  0  0  0  0  0  0
   34.4890   28.9830   50.1930 H   0  0  0  0  0  0  0  0  0  0  0  0
  1  6  1  0  0  0  0
  2  1  2  0  0  0  0
  2  3  1  0  0  0  0
  3  9  1  0  0  0  0
  3  4  2  0  0  0  0
  5  4  1  0  0  0  0
  5 27  1  0  0  0  0
  6  5  2  0  0  0  0
  7  1  1  0  0  0  0
  8  2  1  0  0  0  0
  9 10  1  0  0  0  0
 10 15  1  0  0  0  0
 11 10  2  0  0  0  0
 11 16  1  0  0  0  0
 12 11  1  0  0  0  0
 13 14  1  0  0  0  0
 13 12  2  0  0  0  0
 14  9  2  0  0  0  0
 17 23  1  0  0  0  0
 17 13  1  0  0  0  0
 18 17  1  0  0  0  0
 19 20  1  0  0  0  0
 19 18  2  0  0  0  0
 20 22  2  0  0  0  0
 21 20  1  0  0  0  0
 22 23  1  0  0  0  0
 23 24  2  0  0  0  0
 25 21  1  0  0  0  0
 26 21  1  0  0  0  0
 27 35  1  0  0  0  0
 28 27  2  0  0  0  0
 28 29  1  0  0  0  0
 29 30  1  0  0  0  0
 30 31  1  0  0  0  0
 31 32  2  0  0  0  0
 32 39  1  0  0  0  0
 33 32  1  0  0  0  0
 33 40  1  0  0  0  0
 34 33  2  0  0  0  0
 35 30  2  0  0  0  0
 35 34  1  0  0  0  0
 36 28  1  0  0  0  0
 37 29  1  0  0  0  0
 38 31  1  0  0  0  0
 41 34  1  0  0  0  0
M  END
>  <minimizedAffinity>
-6.73462963

>  <minimizedRMSD>
0.420885026

$$$$
