
 OpenBabel03252514033D

 34 37  0  0  1  0  0  0  0  0999 V2000
   35.2560   29.2030   48.6140 C   0  0  2  0  0  0  0  0  0  0  0  0
   34.0420   29.3210   49.4150 C   0  0  0  0  0  0  0  0  0  0  0  0
   34.4000   27.9750   49.0680 C   0  0  1  0  0  0  0  0  0  0  0  0
   35.3380   29.3580   47.5360 H   0  0  0  0  0  0  0  0  0  0  0  0
   33.1290   29.8310   49.0080 H   0  0  0  0  0  0  0  0  0  0  0  0
   34.1730   29.6190   50.4950 H   0  0  0  0  0  0  0  0  0  0  0  0
   34.9660   27.2580   49.6600 H   0  0  0  0  0  0  0  0  0  0  0  0
   36.5860   29.2400   49.3850 C   0  0  0  0  0  0  0  0  0  0  0  0
   37.1780   28.3290   49.1510 H   0  0  0  0  0  0  0  0  0  0  0  0
   36.3660   29.2230   50.4700 H   0  0  0  0  0  0  0  0  0  0  0  0
   37.6490   32.7320   49.5590 C   0  0  0  0  0  0  0  0  0  0  0  0
   38.5050   32.8520   48.4590 C   0  0  0  0  0  0  0  0  0  0  0  0
   38.7070   31.7030   47.6600 C   0  0  0  0  0  0  0  0  0  0  0  0
   38.0560   30.5450   48.0060 N   0  0  0  0  0  0  0  0  0  0  0  0
   37.2510   30.4930   49.0680 C   0  0  0  0  0  0  0  0  0  0  0  0
   37.0520   31.5960   49.8410 N   0  0  0  0  0  0  0  0  0  0  0  0
   37.4340   33.5560   50.2270 H   0  0  0  0  0  0  0  0  0  0  0  0
   38.9670   33.7970   48.2710 H   0  0  0  0  0  0  0  0  0  0  0  0
   39.3610   31.8020   46.8250 H   0  0  0  0  0  0  0  0  0  0  0  0
   33.5500   27.3300   47.9930 C   0  0  0  0  0  0  0  0  0  0  0  0
   33.8770   26.1000   47.7630 O   0  0  0  0  0  0  0  0  0  0  0  0
   32.5060   27.9300   47.2880 O   0  0  0  0  0  0  0  0  0  0  0  0
   31.2460   28.0830   47.8000 C   0  0  0  0  0  0  0  0  0  0  0  0
   30.8010   27.5990   49.1340 C   0  0  0  0  0  0  0  0  0  0  0  0
   29.5180   27.8350   49.4840 C   0  0  0  0  0  0  0  0  0  0  0  0
   28.6220   28.5130   48.6300 C   0  0  0  0  0  0  0  0  0  0  0  0
   29.6590   28.8850   47.1410 S   0  0  0  0  0  0  0  0  0  0  0  0
   31.5340   27.0920   49.7310 H   0  0  0  0  0  0  0  0  0  0  0  0
   29.1200   27.5150   50.4310 H   0  0  0  0  0  0  0  0  0  0  0  0
   27.3470   28.8610   48.7400 N   0  0  0  0  0  0  0  0  0  0  0  0
   26.8760   30.1200   48.8380 C   0  0  0  0  0  3  0  0  0  0  0  0
   25.4810   30.0860   48.9360 C   0  0  0  0  0  3  0  0  0  0  0  0
   25.1450   28.7650   48.8920 N   0  0  0  0  0  0  0  0  0  0  0  0
   26.2870   28.0310   48.7730 C   0  0  0  0  0  3  0  0  0  0  0  0
  1  4  1  6  0  0  0
  1  3  1  0  0  0  0
  1  8  1  0  0  0  0
  1  2  1  0  0  0  0
  2  6  1  0  0  0  0
  3  2  1  0  0  0  0
  3  7  1  1  0  0  0
  5  2  1  0  0  0  0
  8 10  1  0  0  0  0
  9  8  1  0  0  0  0
 11 16  1  0  0  0  0
 11 17  1  0  0  0  0
 12 11  2  0  0  0  0
 13 14  2  0  0  0  0
 13 12  1  0  0  0  0
 14 15  1  0  0  0  0
 15  8  1  0  0  0  0
 15 16  2  0  0  0  0
 18 12  1  0  0  0  0
 19 13  1  0  0  0  0
 20  3  1  0  0  0  0
 21 20  2  0  0  0  0
 22 23  1  0  0  0  0
 22 20  1  0  0  0  0
 23 24  2  0  0  0  0
 24 25  1  0  0  0  0
 24 28  1  0  0  0  0
 25 29  1  0  0  0  0
 26 30  1  0  0  0  0
 26 25  2  0  0  0  0
 27 23  1  0  0  0  0
 27 26  1  0  0  0  0
 30 34  1  0  0  0  0
 30 31  1  0  0  0  0
 31 32  2  0  0  0  0
 33 32  1  0  0  0  0
 34 33  2  0  0  0  0
M  END
>  <minimizedAffinity>
-6.16579676

>  <minimizedRMSD>
1.57108247

$$$$
