
 OpenBabel03252513543D

 17 18  0  0  0  0  0  0  0  0999 V2000
   37.3060   30.2900   51.4250 C   0  0  0  0  0  0  0  0  0  0  0  0
   38.1570   30.7990   50.4080 C   0  0  0  0  0  0  0  0  0  0  0  0
   37.8800   30.4480   49.0690 C   0  0  0  0  0  0  0  0  0  0  0  0
   36.8050   29.6390   48.8490 N   0  0  0  0  0  0  0  0  0  0  0  0
   36.0210   29.1740   49.8300 C   0  0  0  0  0  0  0  0  0  0  0  0
   36.2780   29.5020   51.1020 N   0  0  0  0  0  0  0  0  0  0  0  0
   37.5470   30.5800   52.4520 H   0  0  0  0  0  0  0  0  0  0  0  0
   39.0040   31.4400   50.5920 H   0  0  0  0  0  0  0  0  0  0  0  0
   38.4810   30.7980   48.2450 H   0  0  0  0  0  0  0  0  0  0  0  0
   34.8700   28.2950   49.5000 C   0  0  0  0  0  0  0  0  0  0  0  0
   35.1640   27.2570   49.3610 H   0  0  0  0  0  0  0  0  0  0  0  0
   34.1140   28.2930   50.3270 H   0  0  0  0  0  0  0  0  0  0  0  0
   34.2860   28.8070   48.2520 C   0  0  0  0  0  0  0  0  0  0  0  0
   34.0410   30.0610   47.7820 C   0  0  0  0  0  0  0  0  0  0  0  0
   33.4830   30.2860   46.5750 C   0  0  0  0  0  0  0  0  0  0  0  0
   33.1790   29.0300   45.8490 C   0  0  0  0  0  0  0  0  0  0  0  0
   33.7310   27.7330   46.9880 S   0  0  0  0  0  0  0  0  0  0  0  0
  1  7  1  0  0  0  0
  2  8  1  0  0  0  0
  2  1  2  0  0  0  0
  3  2  1  0  0  0  0
  4  3  2  0  0  0  0
  4  5  1  0  0  0  0
  5  6  2  0  0  0  0
  6  1  1  0  0  0  0
  9  3  1  0  0  0  0
 10  5  1  0  0  0  0
 10 12  1  0  0  0  0
 11 10  1  0  0  0  0
 13 10  1  0  0  0  0
 14 13  2  0  0  0  0
 15 14  1  0  0  0  0
 16 15  2  0  0  0  0
 16 17  1  0  0  0  0
 17 13  1  0  0  0  0
M  END
>  <minimizedAffinity>
-4.04448748

>  <minimizedRMSD>
3.19485736

$$$$
