
 OpenBabel03252514013D

 29 31  0  0  1  0  0  0  0  0999 V2000
   35.5920   29.5560   49.2460 C   0  0  2  0  0  0  0  0  0  0  0  0
   34.6460   29.4810   50.3680 C   0  0  0  0  0  0  0  0  0  0  0  0
   34.8660   28.2500   49.6090 C   0  0  1  0  0  0  0  0  0  0  0  0
   35.3060   30.1110   48.3500 H   0  0  0  0  0  0  0  0  0  0  0  0
   33.6580   29.9920   50.3340 H   0  0  0  0  0  0  0  0  0  0  0  0
   35.0300   29.4450   51.4260 H   0  0  0  0  0  0  0  0  0  0  0  0
   35.5650   27.4270   49.7340 H   0  0  0  0  0  0  0  0  0  0  0  0
   37.0820   29.4850   49.5700 C   0  0  0  0  0  0  0  0  0  0  0  0
   37.5310   28.5510   49.2180 H   0  0  0  0  0  0  0  0  0  0  0  0
   37.1650   29.4790   50.6750 H   0  0  0  0  0  0  0  0  0  0  0  0
   38.3150   32.9260   49.3570 C   0  0  0  0  0  0  0  0  0  0  0  0
   38.8950   32.9810   48.0810 C   0  0  0  0  0  0  0  0  0  0  0  0
   38.8500   31.8100   47.3020 C   0  0  0  0  0  0  0  0  0  0  0  0
   38.2480   30.6960   47.8270 N   0  0  0  0  0  0  0  0  0  0  0  0
   37.7100   30.7040   49.0560 C   0  0  0  0  0  0  0  0  0  0  0  0
   37.7470   31.8200   49.8100 N   0  0  0  0  0  0  0  0  0  0  0  0
   38.3510   33.8240   49.9510 H   0  0  0  0  0  0  0  0  0  0  0  0
   39.3680   33.8360   47.6510 H   0  0  0  0  0  0  0  0  0  0  0  0
   39.2650   31.7430   46.3070 H   0  0  0  0  0  0  0  0  0  0  0  0
   33.7140   27.8390   48.7310 C   0  0  0  0  0  0  0  0  0  0  0  0
   34.0710   27.2560   47.6290 O   0  0  0  0  0  0  0  0  0  0  0  0
   32.3660   28.0150   48.9990 O   0  0  0  0  0  0  0  0  0  0  0  0
   29.2240   25.6510   46.9150 H   0  0  0  0  0  0  0  0  0  0  0  0
   29.9170   26.3670   47.2280 N   0  0  0  0  0  0  0  0  0  0  0  0
   30.8100   26.5440   48.1950 N   0  0  0  0  0  0  0  0  0  0  0  0
   31.4130   27.7430   48.0310 C   0  0  0  0  0  0  0  0  0  0  0  0
   30.8830   28.3570   46.9140 C   0  0  0  0  0  3  0  0  0  0  0  0
   29.9340   27.4600   46.4230 C   0  0  0  0  0  0  0  0  0  0  0  0
   29.3900   27.7640   45.5240 H   0  0  0  0  0  0  0  0  0  0  0  0
  1  4  1  6  0  0  0
  1  8  1  0  0  0  0
  1  3  1  0  0  0  0
  1  2  1  0  0  0  0
  2  6  1  0  0  0  0
  3  7  1  1  0  0  0
  3  2  1  0  0  0  0
  5  2  1  0  0  0  0
  8 10  1  0  0  0  0
  9  8  1  0  0  0  0
 11 16  1  0  0  0  0
 11 17  1  0  0  0  0
 12 11  2  0  0  0  0
 13 14  2  0  0  0  0
 13 12  1  0  0  0  0
 14 15  1  0  0  0  0
 15  8  1  0  0  0  0
 15 16  2  0  0  0  0
 18 12  1  0  0  0  0
 19 13  1  0  0  0  0
 20 22  1  0  0  0  0
 20  3  1  0  0  0  0
 21 20  2  0  0  0  0
 23 24  1  0  0  0  0
 24 25  1  0  0  0  0
 26 25  2  0  0  0  0
 26 22  1  0  0  0  0
 27 26  1  0  0  0  0
 28 27  2  0  0  0  0
 28 24  1  0  0  0  0
 29 28  1  0  0  0  0
M  END
>  <minimizedAffinity>
-4.86427164

>  <minimizedRMSD>
0.465949982

$$$$
