
 OpenBabel03252511033D

 37 40  0  0  0  0  0  0  0  0999 V2000
   39.3370   31.8530   45.7280 C   0  0  0  0  0  0  0  0  0  0  0  0
   40.6020   31.2940   45.5700 C   0  0  0  0  0  0  0  0  0  0  0  0
   40.8880   31.2590   44.2080 C   0  0  0  0  0  0  0  0  0  0  0  0
   39.7570   31.8080   43.6090 C   0  0  0  0  0  0  0  0  0  0  0  0
   38.8850   32.1370   44.5370 O   0  0  0  0  0  0  0  0  0  0  0  0
   41.3260   30.9190   46.2970 H   0  0  0  0  0  0  0  0  0  0  0  0
   41.7860   30.8880   43.7290 H   0  0  0  0  0  0  0  0  0  0  0  0
   39.5620   31.9940   42.1730 C   0  0  0  0  0  0  0  0  0  0  0  0
   40.0990   31.1870   41.2040 C   0  0  0  0  0  0  0  0  0  0  0  0
   39.6540   31.7350   40.0220 C   0  0  0  0  0  0  0  0  0  0  0  0
   38.8800   32.8310   40.2710 N   0  0  0  0  0  0  0  0  0  0  0  0
   38.8490   32.9530   41.5800 N   0  0  0  0  0  0  0  0  0  0  0  0
   40.7290   30.3130   41.3000 H   0  0  0  0  0  0  0  0  0  0  0  0
   39.8340   31.4240   38.9960 H   0  0  0  0  0  0  0  0  0  0  0  0
   38.2140   33.7050   39.3660 C   0  0  0  0  0  0  0  0  0  0  0  0
   38.7510   34.0810   38.1430 C   0  0  0  0  0  0  0  0  0  0  0  0
   37.8880   34.9310   37.4820 C   0  0  0  0  0  0  0  0  0  0  0  0
   37.8370   35.4680   36.5640 H   0  0  0  0  0  0  0  0  0  0  0  0
   36.8370   35.0540   38.3220 N   0  0  0  0  0  0  0  0  0  0  0  0
   37.0300   34.3410   39.4150 N   0  0  0  0  0  0  0  0  0  0  0  0
   35.9150   35.5470   38.3660 H   0  0  0  0  0  0  0  0  0  0  0  0
   37.1610   31.3810   48.5990 C   0  0  0  0  0  0  0  0  0  0  0  0
   37.5320   32.4280   49.4750 C   0  0  0  0  0  0  0  0  0  0  0  0
   38.5440   33.2880   49.0420 C   0  0  0  0  0  0  0  0  0  0  0  0
   39.1010   33.0530   47.8070 N   0  0  0  0  0  0  0  0  0  0  0  0
   38.7110   32.0460   47.0190 C   0  0  0  0  0  0  0  0  0  0  0  0
   37.7330   31.1990   47.4110 N   0  0  0  0  0  0  0  0  0  0  0  0
   37.0670   32.5730   50.4330 H   0  0  0  0  0  0  0  0  0  0  0  0
   38.8840   34.1070   49.6480 H   0  0  0  0  0  0  0  0  0  0  0  0
   36.1060   30.4900   49.0560 C   0  0  0  0  0  0  0  0  0  0  0  0
   34.9040   30.7130   48.7550 O   0  0  0  0  0  0  0  0  0  0  0  0
   36.4480   29.3750   49.8410 O   0  0  0  0  0  0  0  0  0  0  0  0
   36.4930   29.4330   51.2320 C   0  0  0  0  0  0  0  0  0  0  0  0
   37.6690   29.7180   51.9490 N   0  0  0  0  0  0  0  0  0  0  0  0
   35.4000   29.2110   51.7840 O   0  0  0  0  0  0  0  0  0  0  0  0
   38.1760   30.5240   52.3980 H   0  0  0  0  0  0  0  0  0  0  0  0
   38.3830   29.0040   52.2000 H   0  0  0  0  0  0  0  0  0  0  0  0
  1 26  1  0  0  0  0
  2  1  2  0  0  0  0
  2  6  1  0  0  0  0
  3  2  1  0  0  0  0
  4  3  2  0  0  0  0
  4  5  1  0  0  0  0
  5  1  1  0  0  0  0
  7  3  1  0  0  0  0
  8  4  1  0  0  0  0
  9 13  1  0  0  0  0
  9  8  1  0  0  0  0
 10 11  1  0  0  0  0
 10  9  2  0  0  0  0
 11 12  1  0  0  0  0
 12  8  2  0  0  0  0
 14 10  1  0  0  0  0
 15 20  2  0  0  0  0
 15 11  1  0  0  0  0
 16 15  1  0  0  0  0
 17 16  2  0  0  0  0
 17 19  1  0  0  0  0
 18 17  1  0  0  0  0
 19 21  1  0  0  0  0
 19 20  1  0  0  0  0
 22 30  1  0  0  0  0
 22 23  1  0  0  0  0
 23 28  1  0  0  0  0
 24 23  2  0  0  0  0
 24 29  1  0  0  0  0
 25 24  1  0  0  0  0
 26 27  1  0  0  0  0
 26 25  2  0  0  0  0
 27 22  2  0  0  0  0
 30 32  1  0  0  0  0
 31 30  2  0  0  0  0
 32 33  1  0  0  0  0
 33 35  2  0  0  0  0
 33 34  1  0  0  0  0
 34 37  1  0  0  0  0
 34 36  1  0  0  0  0
M  END
>  <minimizedAffinity>
-6.2315383

>  <minimizedRMSD>
0.788425148

$$$$
