
 OpenBabel03252514013D

 29 31  0  0  1  0  0  0  0  0999 V2000
   35.4720   29.4590   49.1230 C   0  0  2  0  0  0  0  0  0  0  0  0
   34.4040   29.5300   50.1300 C   0  0  0  0  0  0  0  0  0  0  0  0
   34.6780   28.2140   49.5550 C   0  0  1  0  0  0  0  0  0  0  0  0
   35.3010   29.9020   48.1400 H   0  0  0  0  0  0  0  0  0  0  0  0
   33.4380   30.0430   49.9210 H   0  0  0  0  0  0  0  0  0  0  0  0
   34.6650   29.6200   51.2210 H   0  0  0  0  0  0  0  0  0  0  0  0
   35.3390   27.4050   49.8570 H   0  0  0  0  0  0  0  0  0  0  0  0
   36.9130   29.4120   49.6230 C   0  0  0  0  0  0  0  0  0  0  0  0
   37.3890   28.4510   49.4060 H   0  0  0  0  0  0  0  0  0  0  0  0
   36.8680   29.5010   50.7270 H   0  0  0  0  0  0  0  0  0  0  0  0
   38.4150   32.7410   49.3650 C   0  0  0  0  0  0  0  0  0  0  0  0
   38.9250   32.7630   48.0590 C   0  0  0  0  0  0  0  0  0  0  0  0
   38.7400   31.6100   47.2750 C   0  0  0  0  0  0  0  0  0  0  0  0
   38.0780   30.5430   47.8250 N   0  0  0  0  0  0  0  0  0  0  0  0
   37.6110   30.5810   49.0830 C   0  0  0  0  0  0  0  0  0  0  0  0
   37.7830   31.6810   49.8420 N   0  0  0  0  0  0  0  0  0  0  0  0
   38.5590   33.6270   49.9620 H   0  0  0  0  0  0  0  0  0  0  0  0
   39.4440   33.5810   47.6090 H   0  0  0  0  0  0  0  0  0  0  0  0
   39.0920   31.5200   46.2580 H   0  0  0  0  0  0  0  0  0  0  0  0
   33.6220   27.7110   48.6060 C   0  0  0  0  0  0  0  0  0  0  0  0
   34.0700   26.8960   47.7010 O   0  0  0  0  0  0  0  0  0  0  0  0
   32.2740   28.0240   48.6280 O   0  0  0  0  0  0  0  0  0  0  0  0
   30.5370   29.1400   44.6850 H   0  0  0  0  0  0  0  0  0  0  0  0
   30.8090   28.6790   45.5810 N   0  0  0  0  0  0  0  0  0  0  0  0
   31.5850   28.9100   46.6360 N   0  0  0  0  0  0  0  0  0  0  0  0
   31.4950   27.8690   47.4930 C   0  0  0  0  0  0  0  0  0  0  0  0
   30.6270   26.9340   46.9660 C   0  0  0  0  0  3  0  0  0  0  0  0
   30.2060   27.4730   45.7500 C   0  0  0  0  0  0  0  0  0  0  0  0
   29.5010   26.8770   45.1650 H   0  0  0  0  0  0  0  0  0  0  0  0
  1  4  1  6  0  0  0
  1  3  1  0  0  0  0
  1  8  1  0  0  0  0
  1  2  1  0  0  0  0
  2  6  1  0  0  0  0
  3  7  1  1  0  0  0
  3  2  1  0  0  0  0
  5  2  1  0  0  0  0
  8 10  1  0  0  0  0
  9  8  1  0  0  0  0
 11 16  1  0  0  0  0
 11 17  1  0  0  0  0
 12 11  2  0  0  0  0
 13 14  2  0  0  0  0
 13 12  1  0  0  0  0
 14 15  1  0  0  0  0
 15  8  1  0  0  0  0
 15 16  2  0  0  0  0
 18 12  1  0  0  0  0
 19 13  1  0  0  0  0
 20 22  1  0  0  0  0
 20  3  1  0  0  0  0
 21 20  2  0  0  0  0
 23 24  1  0  0  0  0
 24 28  1  0  0  0  0
 24 25  1  0  0  0  0
 25 26  2  0  0  0  0
 26 22  1  0  0  0  0
 27 26  1  0  0  0  0
 28 27  2  0  0  0  0
 29 28  1  0  0  0  0
M  END
>  <minimizedAffinity>
-4.72216415

>  <minimizedRMSD>
0.54416579

$$$$
