
 OpenBabel03252513473D

 21 22  0  0  0  0  0  0  0  0999 V2000
   36.1410   29.8550   48.2550 C   0  0  0  0  0  0  0  0  0  0  0  0
   37.0290   30.8580   48.7350 C   0  0  0  0  0  0  0  0  0  0  0  0
   37.6580   31.6580   47.7930 C   0  0  0  0  0  0  0  0  0  0  0  0
   37.4000   31.4480   46.4900 N   0  0  0  0  0  0  0  0  0  0  0  0
   36.5570   30.4920   46.0650 C   0  0  0  0  0  0  0  0  0  0  0  0
   35.9380   29.7080   46.9370 N   0  0  0  0  0  0  0  0  0  0  0  0
   37.2340   31.0260   49.7820 H   0  0  0  0  0  0  0  0  0  0  0  0
   38.5680   32.6990   48.1340 N   0  0  0  0  0  0  0  0  0  0  0  0
   38.5100   33.1730   49.3920 C   0  0  0  0  0  0  0  0  0  0  0  0
   39.4640   34.1650   49.5200 C   0  0  0  0  0  0  0  0  0  0  0  0
   40.0850   34.2820   48.3470 N   0  0  0  0  0  0  0  0  0  0  0  0
   39.5510   33.3940   47.4900 C   0  0  0  0  0  0  0  0  0  0  0  0
   36.3730   30.3800   44.5820 C   0  0  0  0  0  0  0  0  0  0  0  0
   36.4020   31.6440   44.0100 F   0  0  0  0  0  0  0  0  0  0  0  0
   37.4650   29.7100   44.0460 F   0  0  0  0  0  0  0  0  0  0  0  0
   35.2470   29.6750   44.2400 F   0  0  0  0  0  0  0  0  0  0  0  0
   35.5160   29.0600   49.1940 O   0  0  0  0  0  0  0  0  0  0  0  0
   34.5490   29.4830   50.0990 C   0  0  0  0  0  0  0  0  0  0  0  0
   34.9160   29.2570   51.4200 F   0  0  0  0  0  0  0  0  0  0  0  0
   34.1630   30.7960   49.9410 F   0  0  0  0  0  0  0  0  0  0  0  0
   33.4210   28.6940   49.8600 F   0  0  0  0  0  0  0  0  0  0  0  0
  1  2  1  0  0  0  0
  1 17  1  0  0  0  0
  2  7  1  0  0  0  0
  3  8  1  0  0  0  0
  3  2  2  0  0  0  0
  4  3  1  0  0  0  0
  5  4  2  0  0  0  0
  5  6  1  0  0  0  0
  6  1  2  0  0  0  0
  8  9  1  0  0  0  0
  9 10  2  0  0  0  0
 11 10  1  0  0  0  0
 12  8  1  0  0  0  0
 12 11  2  0  0  0  0
 13  5  1  0  0  0  0
 14 13  1  0  0  0  0
 15 13  1  0  0  0  0
 16 13  1  0  0  0  0
 17 18  1  0  0  0  0
 18 19  1  0  0  0  0
 20 18  1  0  0  0  0
 21 18  1  0  0  0  0
M  END
>  <minimizedAffinity>
-4.92958593

>  <minimizedRMSD>
2.479568

$$$$
