
 OpenBabel03252513433D

 18 19  0  0  0  0  0  0  0  0999 V2000
   37.3640   30.5760   49.1310 C   0  0  0  0  0  0  0  0  0  0  0  0
   37.1830   31.7240   49.9320 C   0  0  0  0  0  0  0  0  0  0  0  0
   37.7940   32.9120   49.5400 C   0  0  0  0  0  0  0  0  0  0  0  0
   38.5380   32.9150   48.4010 N   0  0  0  0  0  0  0  0  0  0  0  0
   38.6850   31.8090   47.6710 C   0  0  0  0  0  0  0  0  0  0  0  0
   38.1120   30.6530   48.0190 N   0  0  0  0  0  0  0  0  0  0  0  0
   36.5890   31.6790   50.8220 H   0  0  0  0  0  0  0  0  0  0  0  0
   37.6930   33.8240   50.1130 H   0  0  0  0  0  0  0  0  0  0  0  0
   39.4470   31.7220   46.4620 N   0  0  0  0  0  0  0  0  0  0  0  0
   39.8460   30.7970   45.5730 C   0  0  0  0  0  0  0  0  0  0  0  0
   40.5890   31.4400   44.6070 C   0  0  0  0  0  0  0  0  0  0  0  0
   40.6330   32.7670   44.9250 N   0  0  0  0  0  0  0  0  0  0  0  0
   39.9250   32.9370   46.0720 C   0  0  0  0  0  0  0  0  0  0  0  0
   36.7600   29.4030   49.5180 O   0  0  0  0  0  0  0  0  0  0  0  0
   35.5120   29.3160   50.1430 C   0  0  0  0  0  0  0  0  0  0  0  0
   35.6010   29.3040   51.5240 F   0  0  0  0  0  0  0  0  0  0  0  0
   34.6150   30.2800   49.7430 F   0  0  0  0  0  0  0  0  0  0  0  0
   34.9710   28.0880   49.7670 F   0  0  0  0  0  0  0  0  0  0  0  0
  1 14  1  0  0  0  0
  1  2  1  0  0  0  0
  2  7  1  0  0  0  0
  3  2  2  0  0  0  0
  3  8  1  0  0  0  0
  4  3  1  0  0  0  0
  5  6  1  0  0  0  0
  5  4  2  0  0  0  0
  6  1  2  0  0  0  0
  9  5  1  0  0  0  0
 10  9  1  0  0  0  0
 11 12  1  0  0  0  0
 11 10  2  0  0  0  0
 12 13  2  0  0  0  0
 13  9  1  0  0  0  0
 14 15  1  0  0  0  0
 15 16  1  0  0  0  0
 17 15  1  0  0  0  0
 18 15  1  0  0  0  0
M  END
>  <minimizedAffinity>
-6.01182079

>  <minimizedRMSD>
1.59434092

$$$$
