
 OpenBabel03252514043D

 34 37  0  0  1  0  0  0  0  0999 V2000
   35.2550   29.1910   48.5980 C   0  0  2  0  0  0  0  0  0  0  0  0
   34.0350   29.3300   49.3870 C   0  0  0  0  0  0  0  0  0  0  0  0
   34.3880   27.9760   49.0640 C   0  0  1  0  0  0  0  0  0  0  0  0
   35.3460   29.3290   47.5180 H   0  0  0  0  0  0  0  0  0  0  0  0
   33.1290   29.8380   48.9640 H   0  0  0  0  0  0  0  0  0  0  0  0
   34.1590   29.6440   50.4630 H   0  0  0  0  0  0  0  0  0  0  0  0
   34.9440   27.2650   49.6720 H   0  0  0  0  0  0  0  0  0  0  0  0
   36.5790   29.2330   49.3790 C   0  0  0  0  0  0  0  0  0  0  0  0
   37.1740   28.3230   49.1510 H   0  0  0  0  0  0  0  0  0  0  0  0
   36.3500   29.2160   50.4630 H   0  0  0  0  0  0  0  0  0  0  0  0
   37.6350   32.7260   49.5610 C   0  0  0  0  0  0  0  0  0  0  0  0
   38.4950   32.8490   48.4650 C   0  0  0  0  0  0  0  0  0  0  0  0
   38.7030   31.7010   47.6660 C   0  0  0  0  0  0  0  0  0  0  0  0
   38.0520   30.5410   48.0080 N   0  0  0  0  0  0  0  0  0  0  0  0
   37.2420   30.4870   49.0660 C   0  0  0  0  0  0  0  0  0  0  0  0
   37.0390   31.5890   49.8400 N   0  0  0  0  0  0  0  0  0  0  0  0
   37.4160   33.5490   50.2290 H   0  0  0  0  0  0  0  0  0  0  0  0
   38.9570   33.7950   48.2810 H   0  0  0  0  0  0  0  0  0  0  0  0
   39.3600   31.8020   46.8330 H   0  0  0  0  0  0  0  0  0  0  0  0
   33.5420   27.3200   47.9920 C   0  0  0  0  0  0  0  0  0  0  0  0
   33.8790   26.0910   47.7680 O   0  0  0  0  0  0  0  0  0  0  0  0
   32.4930   27.9080   47.2850 O   0  0  0  0  0  0  0  0  0  0  0  0
   31.2400   28.0790   47.8080 C   0  0  0  0  0  0  0  0  0  0  0  0
   30.7980   27.5980   49.1450 C   0  0  0  0  0  0  0  0  0  0  0  0
   29.5220   27.8540   49.5050 C   0  0  0  0  0  0  0  0  0  0  0  0
   28.6300   28.5480   48.6610 C   0  0  0  0  0  0  0  0  0  0  0  0
   29.6600   28.9070   47.1640 S   0  0  0  0  0  0  0  0  0  0  0  0
   31.5280   27.0790   49.7340 H   0  0  0  0  0  0  0  0  0  0  0  0
   29.1270   27.5380   50.4560 H   0  0  0  0  0  0  0  0  0  0  0  0
   27.3610   28.9150   48.7820 N   0  0  0  0  0  0  0  0  0  0  0  0
   26.3000   28.0870   48.8410 C   0  0  0  0  0  3  0  0  0  0  0  0
   25.1290   28.8420   48.9680 C   0  0  0  0  0  3  0  0  0  0  0  0
   25.5360   30.1440   48.9800 N   0  0  0  0  0  0  0  0  0  0  0  0
   26.8930   30.1750   48.8670 C   0  0  0  0  0  3  0  0  0  0  0  0
  1  4  1  6  0  0  0
  1  3  1  0  0  0  0
  1  8  1  0  0  0  0
  1  2  1  0  0  0  0
  2  6  1  0  0  0  0
  3  2  1  0  0  0  0
  3  7  1  1  0  0  0
  5  2  1  0  0  0  0
  8 10  1  0  0  0  0
  9  8  1  0  0  0  0
 11 16  1  0  0  0  0
 11 17  1  0  0  0  0
 12 11  2  0  0  0  0
 13 14  2  0  0  0  0
 13 12  1  0  0  0  0
 14 15  1  0  0  0  0
 15  8  1  0  0  0  0
 15 16  2  0  0  0  0
 18 12  1  0  0  0  0
 19 13  1  0  0  0  0
 20  3  1  0  0  0  0
 21 20  2  0  0  0  0
 22 23  1  0  0  0  0
 22 20  1  0  0  0  0
 23 24  2  0  0  0  0
 24 25  1  0  0  0  0
 24 28  1  0  0  0  0
 25 29  1  0  0  0  0
 26 30  1  0  0  0  0
 26 25  2  0  0  0  0
 27 23  1  0  0  0  0
 27 26  1  0  0  0  0
 30 31  1  0  0  0  0
 30 34  1  0  0  0  0
 31 32  2  0  0  0  0
 32 33  1  0  0  0  0
 34 33  2  0  0  0  0
M  END
>  <minimizedAffinity>
-6.1775465

>  <minimizedRMSD>
1.59774077

$$$$
