
 OpenBabel03252511523D

 34 37  0  0  1  0  0  0  0  0999 V2000
   37.8430   31.2460   47.9460 N   0  0  0  0  0  0  0  0  0  0  0  0
   38.8800   32.0960   47.8150 C   0  0  0  0  0  0  0  0  0  0  0  0
   39.0380   32.4740   46.5410 N   0  0  0  0  0  0  0  0  0  0  0  0
   38.0820   31.8580   45.8140 C   0  0  0  0  0  0  0  0  0  0  0  0
   37.7640   31.8320   44.4920 C   0  0  0  0  0  0  0  0  0  0  0  0
   36.7350   31.0810   43.9820 N   0  0  0  0  0  0  0  0  0  0  0  0
   36.0380   30.3520   44.8760 C   0  0  0  0  0  0  0  0  0  0  0  0
   36.3590   30.3840   46.1720 N   0  0  0  0  0  0  0  0  0  0  0  0
   37.3470   31.0960   46.7080 C   0  0  0  0  0  0  0  0  0  0  0  0
   39.5320   32.4590   48.6010 H   0  0  0  0  0  0  0  0  0  0  0  0
   35.2050   29.7230   44.5880 H   0  0  0  0  0  0  0  0  0  0  0  0
   36.3200   29.7750   49.1220 C   0  0  0  0  0  0  0  0  0  0  0  0
   37.3920   30.6490   49.1390 C   0  0  0  0  0  0  0  0  0  0  0  0
   38.0130   30.9270   50.3400 C   0  0  0  0  0  0  0  0  0  0  0  0
   37.5160   30.3050   51.4640 N   0  0  0  0  0  0  0  0  0  0  0  0
   36.4800   29.4670   51.4210 C   0  0  0  0  0  0  0  0  0  0  0  0
   35.8800   29.1960   50.2650 N   0  0  0  0  0  0  0  0  0  0  0  0
   35.8010   29.5290   48.1880 H   0  0  0  0  0  0  0  0  0  0  0  0
   38.8560   31.6020   50.4100 H   0  0  0  0  0  0  0  0  0  0  0  0
   36.2170   29.0650   52.3940 H   0  0  0  0  0  0  0  0  0  0  0  0
   38.4380   32.7270   43.5040 C   0  0  2  0  0  0  0  0  0  0  0  0
   38.6230   33.6940   44.0000 H   0  0  0  0  0  0  0  0  0  0  0  0
   37.7750   32.8140   42.1970 C   0  0  0  0  0  0  0  0  0  0  0  0
   37.0770   31.9830   41.9650 H   0  0  0  0  0  0  0  0  0  0  0  0
   38.5410   32.9610   41.4030 H   0  0  0  0  0  0  0  0  0  0  0  0
   37.1530   33.7500   42.1730 H   0  0  0  0  0  0  0  0  0  0  0  0
   39.9240   32.2540   43.3640 C   0  0  0  0  0  0  0  0  0  0  0  0
   40.3140   32.2610   44.3960 H   0  0  0  0  0  0  0  0  0  0  0  0
   40.4120   33.0530   42.8010 H   0  0  0  0  0  0  0  0  0  0  0  0
   40.0220   30.9390   42.7490 C   0  0  0  0  0  0  0  0  0  0  0  0
   39.8760   29.6760   43.1530 C   0  0  0  0  0  0  0  0  0  0  0  0
   40.0500   28.6490   42.2770 C   0  0  0  0  0  0  0  0  0  0  0  0
   40.3800   28.9600   40.9720 C   0  0  0  0  0  0  0  0  0  0  0  0
   40.4560   30.8580   40.9530 S   0  0  0  0  0  0  0  0  0  0  0  0
  1 13  1  0  0  0  0
  2  1  1  0  0  0  0
  2 10  1  0  0  0  0
  3  2  2  0  0  0  0
  4  3  1  0  0  0  0
  4  9  1  0  0  0  0
  5  4  2  0  0  0  0
  6  5  1  0  0  0  0
  6  7  2  0  0  0  0
  7  8  1  0  0  0  0
  8  9  2  0  0  0  0
  9  1  1  0  0  0  0
 11  7  1  0  0  0  0
 12 13  2  0  0  0  0
 12 17  1  0  0  0  0
 13 14  1  0  0  0  0
 14 19  1  0  0  0  0
 14 15  2  0  0  0  0
 16 15  1  0  0  0  0
 16 20  1  0  0  0  0
 17 16  2  0  0  0  0
 18 12  1  0  0  0  0
 21 22  1  1  0  0  0
 21  5  1  0  0  0  0
 23 21  1  0  0  0  0
 24 23  1  0  0  0  0
 25 23  1  0  0  0  0
 26 23  1  0  0  0  0
 27 21  1  0  0  0  0
 27 28  1  0  0  0  0
 29 27  1  0  0  0  0
 30 31  2  0  0  0  0
 30 27  1  0  0  0  0
 32 31  1  0  0  0  0
 33 32  2  0  0  0  0
 34 33  1  0  0  0  0
 34 30  1  0  0  0  0
M  END
>  <minimizedAffinity>
-5.48676109

>  <minimizedRMSD>
1.80703902

$$$$
