
     RDKit          3D

 43 46  0  0  0  0  0  0  0  0999 V2000
   35.2945   29.4115   48.9858 C   0  0  2  0  0  0  0  0  0  0  0  0
   34.1907   29.3551   49.9380 C   0  0  0  0  0  0  0  0  0  0  0  0
   34.5351   28.0921   49.3473 C   0  0  1  0  0  0  0  0  0  0  0  0
   36.7102   29.3892   49.5871 C   0  0  0  0  0  0  0  0  0  0  0  0
   38.0786   32.7730   49.4422 C   0  0  0  0  0  0  0  0  0  0  0  0
   38.7548   32.7767   48.2020 C   0  0  0  0  0  0  0  0  0  0  0  0
   38.7225   31.5912   47.4320 C   0  0  0  0  0  0  0  0  0  0  0  0
   38.0420   30.5108   47.9270 N   0  0  0  0  0  0  0  0  0  0  0  0
   37.4151   30.5700   49.1204 C   0  0  0  0  0  0  0  0  0  0  0  0
   37.4408   31.6997   49.8636 N   0  0  0  0  0  0  0  0  0  0  0  0
   33.5616   27.5888   48.2974 C   0  0  0  0  0  0  0  0  0  0  0  0
   33.9101   26.4401   47.8054 O   0  0  0  0  0  0  0  0  0  0  0  0
   32.4025   28.2183   47.8589 O   0  0  0  0  0  0  0  0  0  0  0  0
   31.1447   27.8275   48.2223 C   0  0  0  0  0  0  0  0  0  0  0  0
   30.6268   27.8149   49.6125 C   0  0  0  0  0  0  0  0  0  0  0  0
   29.3551   27.4012   49.8121 C   0  0  0  0  0  0  0  0  0  0  0  0
   28.5373   26.9918   48.7329 C   0  0  0  0  0  0  0  0  0  0  0  0
   29.6376   27.1949   47.2643 S   0  0  0  0  0  0  0  0  0  0  0  0
   35.1285   29.8163   47.9906 H   0  0  0  0  0  0  0  0  0  0  0  0
   33.2197   29.8650   49.7018 H   0  0  0  0  0  0  0  0  0  0  0  0
   34.4008   29.4737   51.0425 H   0  0  0  0  0  0  0  0  0  0  0  0
   35.1920   27.3141   49.7306 H   0  0  0  0  0  0  0  0  0  0  0  0
   36.6368   29.3480   50.6928 H   0  0  0  0  0  0  0  0  0  0  0  0
   37.1795   28.4569   49.2152 H   0  0  0  0  0  0  0  0  0  0  0  0
   38.1034   33.6760   50.0286 H   0  0  0  0  0  0  0  0  0  0  0  0
   39.2891   33.6240   47.8126 H   0  0  0  0  0  0  0  0  0  0  0  0
   39.2143   31.5117   46.4724 H   0  0  0  0  0  0  0  0  0  0  0  0
   31.3099   28.1409   50.3760 H   0  0  0  0  0  0  0  0  0  0  0  0
   28.9363   27.3751   50.8049 H   0  0  0  0  0  0  0  0  0  0  0  0
   27.2343   26.5487   48.7679 N   0  0  0  0  0  0  0  0  0  0  0  0
   26.8918   25.3296   49.2510 C   0  0  0  0  0  0  0  0  0  0  0  0
   25.5699   24.9339   49.2634 C   0  0  0  0  0  0  0  0  0  0  0  0
   25.1992   23.5769   49.8022 C   0  0  0  0  0  0  0  0  0  0  0  0
   24.5881   25.7922   48.7773 C   0  0  0  0  0  0  0  0  0  0  0  0
   23.3744   25.4269   48.7895 O   0  0  0  0  0  0  0  0  0  0  0  0
   24.9714   27.0116   48.2990 N   0  0  0  0  0  0  0  0  0  0  0  0
   26.2820   27.3771   48.2983 C   0  0  0  0  0  0  0  0  0  0  0  0
   26.4537   28.5310   47.8229 O   0  0  0  0  0  0  0  0  0  0  0  0
   27.6747   24.6881   49.6200 H   0  0  0  0  0  0  0  0  0  0  0  0
   25.5881   23.5807   50.8612 H   0  0  0  0  0  0  0  0  0  0  0  0
   24.1062   23.4851   49.7859 H   0  0  0  0  0  0  0  0  0  0  0  0
   25.7533   22.7788   49.2857 H   0  0  0  0  0  0  0  0  0  0  0  0
   24.1698   27.5831   47.9579 H   0  0  0  0  0  0  0  0  0  0  0  0
  1  3  1  0
  1  4  1  0
  1  2  1  0
  3  2  1  0
  5 10  2  0
  6  5  1  0
  7  8  1  0
  7  6  2  0
  8  9  2  0
  9  4  1  0
  9 10  1  0
 11  3  1  0
 12 11  2  0
 13 14  1  0
 13 11  1  0
 14 15  2  0
 15 16  1  0
 17 16  2  0
 18 14  1  0
 18 17  1  0
  1 19  1  6
  2 20  1  0
  2 21  1  0
  3 22  1  1
  4 23  1  0
  4 24  1  0
  5 25  1  0
  6 26  1  0
  7 27  1  0
 15 28  1  0
 16 29  1  0
 30 31  1  0
 31 32  2  0
 32 33  1  0
 32 34  1  0
 34 35  2  0
 34 36  1  0
 36 37  1  0
 37 38  2  0
 37 30  1  0
 31 39  1  0
 33 40  1  0
 33 41  1  0
 33 42  1  0
 36 43  1  0
 17 30  1  0
M  ISO  8  19  13  20  13  21  13  22  13  23   8  24   8  25  14  26  14
M  ISO  3  27  14  28  14  29  14
M  END
>  <DihAtoms>  (1) 
15,16,29,30

>  <DihDeg>  (1) 
-72.44122296243842

$$$$
