
 OpenBabel03252514033D

 39 42  0  0  1  0  0  0  0  0999 V2000
   34.0370   27.1950   47.9820 C   0  0  0  0  0  0  0  0  0  0  0  0
   34.4450   25.9750   47.8100 O   0  0  0  0  0  0  0  0  0  0  0  0
   35.4840   29.2320   48.7260 C   0  0  2  0  0  0  0  0  0  0  0  0
   34.2320   29.1830   49.4710 C   0  0  0  0  0  0  0  0  0  0  0  0
   34.7640   27.8980   49.1130 C   0  0  1  0  0  0  0  0  0  0  0  0
   35.4770   29.5060   47.6740 H   0  0  0  0  0  0  0  0  0  0  0  0
   33.2880   29.5740   49.0070 H   0  0  0  0  0  0  0  0  0  0  0  0
   34.2270   29.4440   50.5700 H   0  0  0  0  0  0  0  0  0  0  0  0
   35.3910   27.2300   49.7010 H   0  0  0  0  0  0  0  0  0  0  0  0
   36.7640   29.4040   49.5620 C   0  0  0  0  0  0  0  0  0  0  0  0
   36.5010   29.3890   50.6400 H   0  0  0  0  0  0  0  0  0  0  0  0
   37.3970   28.5270   49.3260 H   0  0  0  0  0  0  0  0  0  0  0  0
   37.7970   32.9080   49.5270 C   0  0  0  0  0  0  0  0  0  0  0  0
   38.6080   32.9770   48.3730 C   0  0  0  0  0  0  0  0  0  0  0  0
   38.7830   31.7910   47.6210 C   0  0  0  0  0  0  0  0  0  0  0  0
   38.1610   30.6500   48.0500 N   0  0  0  0  0  0  0  0  0  0  0  0
   37.3970   30.6490   49.1620 C   0  0  0  0  0  0  0  0  0  0  0  0
   37.2250   31.7780   49.8880 N   0  0  0  0  0  0  0  0  0  0  0  0
   37.6640   33.8110   50.1000 H   0  0  0  0  0  0  0  0  0  0  0  0
   39.0970   33.8720   48.0360 H   0  0  0  0  0  0  0  0  0  0  0  0
   39.3880   31.7600   46.7250 H   0  0  0  0  0  0  0  0  0  0  0  0
   33.0320   27.7190   47.1790 O   0  0  0  0  0  0  0  0  0  0  0  0
   31.7520   27.9300   47.6070 C   0  0  0  0  0  0  0  0  0  0  0  0
   31.1340   27.2850   48.7910 C   0  0  0  0  0  0  0  0  0  0  0  0
   29.8520   27.5970   49.0880 C   0  0  0  0  0  0  0  0  0  0  0  0
   29.1160   28.5110   48.2980 C   0  0  0  0  0  0  0  0  0  0  0  0
   30.3200   29.0050   46.9870 S   0  0  0  0  0  0  0  0  0  0  0  0
   31.7580   26.6020   49.3390 H   0  0  0  0  0  0  0  0  0  0  0  0
   29.3610   27.1520   49.9390 H   0  0  0  0  0  0  0  0  0  0  0  0
   27.8160   28.9320   48.4650 N   0  0  0  0  0  0  0  0  0  0  0  0
   26.8140   28.5450   47.6380 C   0  0  0  0  0  3  0  0  0  0  0  0
   25.5270   28.9970   47.8500 C   0  0  0  0  0  0  0  0  0  0  0  0
   24.4190   28.5620   46.9260 C   0  0  0  0  0  1  0  0  0  0  0  0
   25.2610   29.8510   48.9160 C   0  0  0  0  0  0  0  0  0  0  0  0
   24.0790   30.2650   49.1090 O   0  0  0  0  0  0  0  0  0  0  0  0
   26.2960   30.2180   49.7270 N   0  0  0  0  0  0  0  0  0  0  0  0
   27.5560   29.7580   49.4950 C   0  0  0  0  0  0  0  0  0  0  0  0
   28.3840   30.1960   50.3380 O   0  0  0  0  0  0  0  0  0  0  0  0
   26.0030   30.8560   50.4950 H   0  0  0  0  0  0  0  0  0  0  0  0
  1  5  1  0  0  0  0
  2  1  2  0  0  0  0
  3  6  1  6  0  0  0
  3  5  1  0  0  0  0
  3  4  1  0  0  0  0
  3 10  1  0  0  0  0
  4  8  1  0  0  0  0
  5  4  1  0  0  0  0
  5  9  1  1  0  0  0
  7  4  1  0  0  0  0
 10 11  1  0  0  0  0
 12 10  1  0  0  0  0
 13 18  1  0  0  0  0
 13 19  1  0  0  0  0
 14 13  2  0  0  0  0
 15 16  2  0  0  0  0
 15 14  1  0  0  0  0
 16 17  1  0  0  0  0
 17 10  1  0  0  0  0
 17 18  2  0  0  0  0
 20 14  1  0  0  0  0
 21 15  1  0  0  0  0
 22 23  1  0  0  0  0
 22  1  1  0  0  0  0
 23 24  2  0  0  0  0
 24 25  1  0  0  0  0
 24 28  1  0  0  0  0
 25 29  1  0  0  0  0
 26 30  1  0  0  0  0
 26 25  2  0  0  0  0
 27 23  1  0  0  0  0
 27 26  1  0  0  0  0
 30 37  1  0  0  0  0
 31 32  2  0  0  0  0
 31 30  1  0  0  0  0
 32 34  1  0  0  0  0
 33 32  1  0  0  0  0
 34 35  2  0  0  0  0
 34 36  1  0  0  0  0
 36 39  1  0  0  0  0
 37 36  1  0  0  0  0
 37 38  2  0  0  0  0
M  END
>  <minimizedAffinity>
-3.73825216

>  <minimizedRMSD>
2.43661809

$$$$
