
 OpenBabel03252512513D

 24 26  0  0  0  0  0  0  0  0999 V2000
   38.0530   31.4880   48.4150 C   0  0  0  0  0  0  0  0  0  0  0  0
   38.8600   32.5750   48.4000 N   0  0  0  0  0  0  0  0  0  0  0  0
   39.1940   32.8470   47.1790 O   0  0  0  0  0  0  0  0  0  0  0  0
   38.6350   31.9770   46.3870 C   0  0  0  0  0  0  0  0  0  0  0  0
   37.9140   31.1120   47.1270 N   0  0  0  0  0  0  0  0  0  0  0  0
   38.8270   32.0300   44.9780 N   0  0  0  0  0  0  0  0  0  0  0  0
   37.9100   32.4910   44.1080 C   0  0  0  0  0  0  0  0  0  0  0  0
   38.1690   32.5140   42.7370 C   0  0  0  0  0  0  0  0  0  0  0  0
   37.1880   33.0110   41.7640 C   0  0  0  0  0  0  0  0  0  0  0  0
   39.3970   32.0430   42.3460 C   0  0  0  0  0  0  0  0  0  0  0  0
   39.6620   32.0510   41.1080 O   0  0  0  0  0  0  0  0  0  0  0  0
   40.3440   31.5730   43.1990 N   0  0  0  0  0  0  0  0  0  0  0  0
   40.0220   31.5820   44.5030 C   0  0  0  0  0  0  0  0  0  0  0  0
   40.8940   31.1440   45.3250 O   0  0  0  0  0  0  0  0  0  0  0  0
   41.2700   31.2210   42.8710 H   0  0  0  0  0  0  0  0  0  0  0  0
   37.2690   29.9430   51.7540 C   0  0  0  0  0  0  0  0  0  0  0  0
   37.9680   30.6450   50.7710 C   0  0  0  0  0  0  0  0  0  0  0  0
   37.4050   30.7750   49.5130 C   0  0  0  0  0  0  0  0  0  0  0  0
   36.1860   30.2110   49.2850 N   0  0  0  0  0  0  0  0  0  0  0  0
   35.5400   29.5390   50.2650 C   0  0  0  0  0  0  0  0  0  0  0  0
   36.0720   29.4040   51.4890 N   0  0  0  0  0  0  0  0  0  0  0  0
   37.7780   29.8890   52.7050 H   0  0  0  0  0  0  0  0  0  0  0  0
   38.9520   31.1120   50.9180 H   0  0  0  0  0  0  0  0  0  0  0  0
   34.5720   29.0730   50.1380 H   0  0  0  0  0  0  0  0  0  0  0  0
  1 18  1  0  0  0  0
  2  1  2  0  0  0  0
  3  2  1  0  0  0  0
  4  5  2  0  0  0  0
  4  3  1  0  0  0  0
  5  1  1  0  0  0  0
  6  4  1  0  0  0  0
  7  6  1  0  0  0  0
  8  7  2  0  0  0  0
  9  8  1  0  0  0  0
 10  8  1  0  0  0  0
 10 12  1  0  0  0  0
 11 10  2  0  0  0  0
 12 13  1  0  0  0  0
 13  6  1  0  0  0  0
 13 14  2  0  0  0  0
 15 12  1  0  0  0  0
 16 22  1  0  0  0  0
 17 23  1  0  0  0  0
 17 16  2  0  0  0  0
 18 17  1  0  0  0  0
 19 18  2  0  0  0  0
 19 20  1  0  0  0  0
 20 21  2  0  0  0  0
 21 16  1  0  0  0  0
 24 20  1  0  0  0  0
M  END
>  <minimizedAffinity>
-6.28952789

>  <minimizedRMSD>
1.20897698

$$$$
