
 OpenBabel03252512403D

 25 27  0  0  0  0  0  0  0  0999 V2000
   38.1140   31.0910   48.1320 C   0  0  0  0  0  0  0  0  0  0  0  0
   38.5490   32.4380   48.2930 C   0  0  0  0  0  0  0  0  0  0  0  0
   39.4630   32.7980   46.7320 S   0  0  0  0  0  0  0  0  0  0  0  0
   39.0850   31.0400   46.1390 C   0  0  0  0  0  0  0  0  0  0  0  0
   38.4960   30.5930   46.9800 N   0  0  0  0  0  0  0  0  0  0  0  0
   38.3570   33.0800   49.1720 H   0  0  0  0  0  0  0  0  0  0  0  0
   39.4700   30.3790   44.8560 N   0  0  0  0  0  0  0  0  0  0  0  0
   38.7940   29.3030   44.4600 C   0  0  0  0  0  0  0  0  0  0  0  0
   39.1860   28.7210   43.2630 C   0  0  0  0  0  0  0  0  0  0  0  0
   38.5300   27.5250   42.6980 C   0  0  0  0  0  0  0  0  0  0  0  0
   40.2350   29.2990   42.5820 C   0  0  0  0  0  0  0  0  0  0  0  0
   40.5980   28.7660   41.4800 O   0  0  0  0  0  0  0  0  0  0  0  0
   40.8440   30.3890   43.0830 N   0  0  0  0  0  0  0  0  0  0  0  0
   40.4870   30.9730   44.2380 C   0  0  0  0  0  0  0  0  0  0  0  0
   41.0650   31.9890   44.6880 O   0  0  0  0  0  0  0  0  0  0  0  0
   41.6440   30.7860   42.5110 H   0  0  0  0  0  0  0  0  0  0  0  0
   37.7170   30.6630   50.5350 C   0  0  0  0  0  0  0  0  0  0  0  0
   37.3380   30.4450   49.1960 C   0  0  0  0  0  0  0  0  0  0  0  0
   36.2490   29.6270   48.9720 C   0  0  0  0  0  0  0  0  0  0  0  0
   35.6020   29.0790   50.0270 N   0  0  0  0  0  0  0  0  0  0  0  0
   35.9840   29.3040   51.2980 C   0  0  0  0  0  0  0  0  0  0  0  0
   37.0320   30.0880   51.5340 N   0  0  0  0  0  0  0  0  0  0  0  0
   38.5390   31.2740   50.8160 H   0  0  0  0  0  0  0  0  0  0  0  0
   35.9550   29.4570   47.9420 H   0  0  0  0  0  0  0  0  0  0  0  0
   35.4560   28.8580   52.1300 H   0  0  0  0  0  0  0  0  0  0  0  0
  1  2  2  0  0  0  0
  1 18  1  0  0  0  0
  2  6  1  0  0  0  0
  3  2  1  0  0  0  0
  4  3  1  0  0  0  0
  4  5  2  0  0  0  0
  5  1  1  0  0  0  0
  7  4  1  0  0  0  0
  8  7  1  0  0  0  0
  9  8  2  0  0  0  0
 10  9  1  0  0  0  0
 11 13  1  0  0  0  0
 11  9  1  0  0  0  0
 12 11  2  0  0  0  0
 13 14  1  0  0  0  0
 14 15  2  0  0  0  0
 14  7  1  0  0  0  0
 16 13  1  0  0  0  0
 17 23  1  0  0  0  0
 17 22  1  0  0  0  0
 18 17  2  0  0  0  0
 19 18  1  0  0  0  0
 19 20  2  0  0  0  0
 20 21  1  0  0  0  0
 21 22  2  0  0  0  0
 21 25  1  0  0  0  0
 24 19  1  0  0  0  0
M  END
>  <minimizedAffinity>
-6.14798307

>  <minimizedRMSD>
0.597394168

$$$$
