
 OpenBabel03252512453D

 31 33  0  0  1  0  0  0  0  0999 V2000
   39.5400   30.3820   44.4080 C   0  0  2  0  0  0  0  0  0  0  0  0
   40.1500   29.4920   44.6320 H   0  0  0  0  0  0  0  0  0  0  0  0
   38.4020   31.1410   47.8230 C   0  0  0  0  0  0  0  0  0  0  0  0
   38.8570   32.4820   47.8970 C   0  0  0  0  0  0  0  0  0  0  0  0
   39.6450   32.7640   46.2510 S   0  0  0  0  0  0  0  0  0  0  0  0
   39.2030   30.9700   45.7590 C   0  0  0  0  0  0  0  0  0  0  0  0
   38.6850   30.5820   46.6640 N   0  0  0  0  0  0  0  0  0  0  0  0
   38.7450   33.1640   48.7540 H   0  0  0  0  0  0  0  0  0  0  0  0
   38.1090   30.8700   50.2640 C   0  0  0  0  0  0  0  0  0  0  0  0
   37.7020   30.5470   48.9610 C   0  0  0  0  0  0  0  0  0  0  0  0
   36.6300   29.6660   48.8450 C   0  0  0  0  0  0  0  0  0  0  0  0
   36.0460   29.1750   49.9520 N   0  0  0  0  0  0  0  0  0  0  0  0
   36.4620   29.5050   51.1840 C   0  0  0  0  0  0  0  0  0  0  0  0
   37.4990   30.3580   51.3370 N   0  0  0  0  0  0  0  0  0  0  0  0
   38.9290   31.5430   50.4700 H   0  0  0  0  0  0  0  0  0  0  0  0
   36.3620   29.4550   47.8170 H   0  0  0  0  0  0  0  0  0  0  0  0
   35.8710   29.0110   51.9490 H   0  0  0  0  0  0  0  0  0  0  0  0
   40.2430   31.4450   43.6300 C   0  0  0  0  0  0  0  0  0  0  0  0
   41.1520   31.0960   43.1140 H   0  0  0  0  0  0  0  0  0  0  0  0
   39.5630   31.8860   42.8670 H   0  0  0  0  0  0  0  0  0  0  0  0
   40.5480   32.3210   44.2590 H   0  0  0  0  0  0  0  0  0  0  0  0
   38.2330   29.9920   43.7280 C   0  0  0  0  0  0  0  0  0  0  0  0
   37.4960   29.6170   44.4320 H   0  0  0  0  0  0  0  0  0  0  0  0
   37.9180   30.9020   43.1650 H   0  0  0  0  0  0  0  0  0  0  0  0
   38.5770   28.9630   42.7090 C   0  0  0  0  0  0  0  0  0  0  0  0
   39.0860   27.8200   43.2850 C   0  0  0  0  0  0  0  0  0  0  0  0
   39.4670   26.7430   42.4860 C   0  0  0  0  0  0  0  0  0  0  0  0
   39.3180   26.8610   41.1400 N   0  0  0  0  0  0  0  0  0  0  0  0
   38.8130   27.9990   40.6020 C   0  0  0  0  0  0  0  0  0  0  0  0
   38.6970   28.0870   39.5270 H   0  0  0  0  0  0  0  0  0  0  0  0
   38.4420   29.0480   41.3700 N   0  0  0  0  0  0  0  0  0  0  0  0
  1  2  1  1  0  0  0
  1  6  1  0  0  0  0
  3  4  2  0  0  0  0
  3 10  1  0  0  0  0
  4  8  1  0  0  0  0
  5  4  1  0  0  0  0
  6  5  1  0  0  0  0
  6  7  2  0  0  0  0
  7  3  1  0  0  0  0
  9 15  1  0  0  0  0
  9 14  1  0  0  0  0
 10  9  2  0  0  0  0
 11 10  1  0  0  0  0
 11 12  2  0  0  0  0
 12 13  1  0  0  0  0
 13 14  2  0  0  0  0
 13 17  1  0  0  0  0
 16 11  1  0  0  0  0
 18 21  1  0  0  0  0
 18  1  1  0  0  0  0
 19 18  1  0  0  0  0
 20 18  1  0  0  0  0
 22  1  1  0  0  0  0
 22 23  1  0  0  0  0
 24 22  1  0  0  0  0
 25 26  1  0  0  0  0
 25 22  1  0  0  0  0
 27 26  2  0  0  0  0
 28 27  1  0  0  0  0
 29 28  2  0  0  0  0
 29 31  1  0  0  0  0
 30 29  1  0  0  0  0
 31 25  2  0  0  0  0
M  END
>  <minimizedAffinity>
-5.24249601

>  <minimizedRMSD>
0.849942744

$$$$
