
 OpenBabel03252514013D

 29 31  0  0  1  0  0  0  0  0999 V2000
   35.8900   29.8810   49.8780 C   0  0  2  0  0  0  0  0  0  0  0  0
   35.1380   29.1530   50.9110 C   0  0  0  0  0  0  0  0  0  0  0  0
   35.1560   28.5570   49.5870 C   0  0  1  0  0  0  0  0  0  0  0  0
   35.5030   30.7780   49.3970 H   0  0  0  0  0  0  0  0  0  0  0  0
   35.7300   28.7000   51.7540 H   0  0  0  0  0  0  0  0  0  0  0  0
   34.2130   29.6350   51.3170 H   0  0  0  0  0  0  0  0  0  0  0  0
   35.8610   27.7890   49.2480 H   0  0  0  0  0  0  0  0  0  0  0  0
   37.4080   29.7050   49.8510 C   0  0  0  0  0  0  0  0  0  0  0  0
   37.7980   29.5490   50.8770 H   0  0  0  0  0  0  0  0  0  0  0  0
   37.5850   28.7860   49.2620 H   0  0  0  0  0  0  0  0  0  0  0  0
   38.6950   33.0850   49.2690 C   0  0  0  0  0  0  0  0  0  0  0  0
   39.0450   33.0590   47.9100 C   0  0  0  0  0  0  0  0  0  0  0  0
   38.8310   31.8640   47.2040 C   0  0  0  0  0  0  0  0  0  0  0  0
   38.2950   30.7920   47.8780 N   0  0  0  0  0  0  0  0  0  0  0  0
   37.9790   30.8730   49.1780 C   0  0  0  0  0  0  0  0  0  0  0  0
   38.1840   32.0220   49.8600 N   0  0  0  0  0  0  0  0  0  0  0  0
   38.8980   34.0440   49.7160 H   0  0  0  0  0  0  0  0  0  0  0  0
   39.4630   33.8270   47.2990 H   0  0  0  0  0  0  0  0  0  0  0  0
   39.0390   31.6700   46.1700 H   0  0  0  0  0  0  0  0  0  0  0  0
   33.8680   28.6500   48.8190 C   0  0  0  0  0  0  0  0  0  0  0  0
   33.9780   29.1610   47.6330 O   0  0  0  0  0  0  0  0  0  0  0  0
   32.6190   28.2370   49.2610 O   0  0  0  0  0  0  0  0  0  0  0  0
   31.8130   27.4550   48.4470 C   0  0  0  0  0  0  0  0  0  0  0  0
   30.5050   27.7930   48.1360 C   0  0  0  0  0  3  0  0  0  0  0  0
   29.7770   26.9440   47.3120 C   0  0  0  0  0  0  0  0  0  0  0  0
   28.7620   27.2310   47.0860 H   0  0  0  0  0  0  0  0  0  0  0  0
   30.3480   25.8230   46.8350 N   0  0  0  0  0  0  0  0  0  0  0  0
   31.6320   25.4840   47.1360 C   0  0  0  0  0  3  0  0  0  0  0  0
   32.3330   26.3090   47.9340 N   0  0  0  0  0  0  0  0  0  0  0  0
  1  4  1  6  0  0  0
  1  2  1  0  0  0  0
  2  6  1  0  0  0  0
  2  5  1  0  0  0  0
  3  7  1  6  0  0  0
  3  1  1  0  0  0  0
  3  2  1  0  0  0  0
  8  1  1  0  0  0  0
  8  9  1  0  0  0  0
 10  8  1  0  0  0  0
 11 17  1  0  0  0  0
 11 16  1  0  0  0  0
 12 11  2  0  0  0  0
 13 14  2  0  0  0  0
 13 12  1  0  0  0  0
 14 15  1  0  0  0  0
 15  8  1  0  0  0  0
 15 16  2  0  0  0  0
 18 12  1  0  0  0  0
 19 13  1  0  0  0  0
 20 22  1  0  0  0  0
 20  3  1  0  0  0  0
 21 20  2  0  0  0  0
 23 22  1  0  0  0  0
 24 23  1  0  0  0  0
 25 24  2  0  0  0  0
 26 25  1  0  0  0  0
 27 28  2  0  0  0  0
 27 25  1  0  0  0  0
 28 29  1  0  0  0  0
 29 23  2  0  0  0  0
M  END
>  <minimizedAffinity>
-5.03415823

>  <minimizedRMSD>
1.1248498

$$$$
