
     RDKit          3D

 31 33  0  0  0  0  0  0  0  0999 V2000
   36.8931   29.4335   49.6530 C   0  0  0  0  0  0  0  0  0  0  0  0
   38.4350   32.7453   49.3844 C   0  0  0  0  0  0  0  0  0  0  0  0
   38.9387   32.7532   48.0742 C   0  0  0  0  0  0  0  0  0  0  0  0
   38.7387   31.6036   47.2918 C   0  0  0  0  0  0  0  0  0  0  0  0
   38.0655   30.5412   47.8481 N   0  0  0  0  0  0  0  0  0  0  0  0
   37.6061   30.5892   49.1056 C   0  0  0  0  0  0  0  0  0  0  0  0
   37.7967   31.6944   49.8622 N   0  0  0  0  0  0  0  0  0  0  0  0
   35.4326   29.5382   49.2144 C   0  0  2  0  0  0  0  0  0  0  0  0
   34.4010   29.4774   50.2602 C   0  0  0  0  0  0  0  0  0  0  0  0
   34.6480   28.2487   49.5250 C   0  0  1  0  0  0  0  0  0  0  0  0
   33.5773   27.8535   48.5491 C   0  0  0  0  0  0  0  0  0  0  0  0
   33.8787   26.8489   47.7884 O   0  0  0  0  0  0  0  0  0  0  0  0
   32.3317   28.4509   48.4108 O   0  0  0  0  0  0  0  0  0  0  0  0
   36.9605   29.3511   50.7557 H   0  0  0  0  0  0  0  0  0  0  0  0
   37.2650   28.4928   49.2054 H   0  0  0  0  0  0  0  0  0  0  0  0
   38.6402   33.6699   49.8974 H   0  0  0  0  0  0  0  0  0  0  0  0
   39.4689   33.5167   47.5530 H   0  0  0  0  0  0  0  0  0  0  0  0
   39.0539   31.4401   46.2803 H   0  0  0  0  0  0  0  0  0  0  0  0
   35.2558   30.0039   48.2450 H   0  0  0  0  0  0  0  0  0  0  0  0
   34.7427   29.5892   51.3257 H   0  0  0  0  0  0  0  0  0  0  0  0
   33.4644   30.0694   50.1013 H   0  0  0  0  0  0  0  0  0  0  0  0
   35.3267   27.4484   49.8416 H   0  0  0  0  0  0  0  0  0  0  0  0
   31.4289   27.9756   47.4718 C   0  0  0  0  0  0  0  0  0  0  0  0
   31.7936   27.6605   46.1716 C   0  0  0  0  0  0  0  0  0  0  0  0
   30.8151   27.1903   45.3031 C   0  0  0  0  0  0  0  0  0  0  0  0
   31.1262   26.9531   44.2985 H   0  0  0  0  0  0  0  0  0  0  0  0
   29.5489   27.0515   45.7340 N   0  0  0  0  0  0  0  0  0  0  0  0
   29.1834   27.3590   47.0095 C   0  0  0  0  0  0  0  0  0  0  0  0
   30.1335   27.8134   47.8460 N   0  0  0  0  0  0  0  0  0  0  0  0
   32.8219   27.7892   45.8744 H   0  0  0  0  0  0  0  0  0  0  0  0
   28.1490   27.2271   47.3005 H   0  0  0  0  0  0  0  0  0  0  0  0
  2  7  2  0
  3  2  1  0
  4  5  1  0
  4  3  2  0
  5  6  2  0
  6  1  1  0
  6  7  1  0
  8 10  1  0
  8  1  1  0
  8  9  1  0
 10  9  1  0
 11 10  1  0
 12 11  2  0
 13 11  1  0
  1 14  1  0
  1 15  1  0
  2 16  1  0
  3 17  1  0
  4 18  1  0
  8 19  1  6
  9 20  1  0
  9 21  1  0
 10 22  1  1
 23 24  2  0
 24 25  1  0
 25 26  1  0
 25 27  2  0
 27 28  1  0
 28 29  2  0
 29 23  1  0
 24 30  1  0
 28 31  1  0
 13 23  1  0
M  ISO  8  14   8  15   8  16  14  17  14  18  14  19  13  20  13  21  13
M  ISO  2  22  13  26  14
M  END
>  <DihAtoms>  (1) 
10,12,22,23

>  <DihDeg>  (1) 
-89.99621237464628

$$$$
