
 OpenBabel03252514013D

 29 31  0  0  1  0  0  0  0  0999 V2000
   35.8500   29.8610   49.8430 C   0  0  2  0  0  0  0  0  0  0  0  0
   35.0910   29.1530   50.8840 C   0  0  0  0  0  0  0  0  0  0  0  0
   35.1130   28.5350   49.5700 C   0  0  1  0  0  0  0  0  0  0  0  0
   35.4680   30.7510   49.3440 H   0  0  0  0  0  0  0  0  0  0  0  0
   35.6770   28.7130   51.7380 H   0  0  0  0  0  0  0  0  0  0  0  0
   34.1650   29.6440   51.2770 H   0  0  0  0  0  0  0  0  0  0  0  0
   35.8180   27.7590   49.2480 H   0  0  0  0  0  0  0  0  0  0  0  0
   37.3670   29.6800   49.8270 C   0  0  0  0  0  0  0  0  0  0  0  0
   37.7480   29.5110   50.8540 H   0  0  0  0  0  0  0  0  0  0  0  0
   37.5460   28.7680   49.2280 H   0  0  0  0  0  0  0  0  0  0  0  0
   38.6540   33.0680   49.2920 C   0  0  0  0  0  0  0  0  0  0  0  0
   39.0320   33.0520   47.9400 C   0  0  0  0  0  0  0  0  0  0  0  0
   38.8370   31.8610   47.2230 C   0  0  0  0  0  0  0  0  0  0  0  0
   38.2910   30.7820   47.8790 N   0  0  0  0  0  0  0  0  0  0  0  0
   37.9480   30.8550   49.1730 C   0  0  0  0  0  0  0  0  0  0  0  0
   38.1350   32.0000   49.8660 N   0  0  0  0  0  0  0  0  0  0  0  0
   38.8440   34.0250   49.7490 H   0  0  0  0  0  0  0  0  0  0  0  0
   39.4600   33.8250   47.3440 H   0  0  0  0  0  0  0  0  0  0  0  0
   39.0670   31.6740   46.1920 H   0  0  0  0  0  0  0  0  0  0  0  0
   33.8300   28.6190   48.7950 C   0  0  0  0  0  0  0  0  0  0  0  0
   33.9440   29.1250   47.6070 O   0  0  0  0  0  0  0  0  0  0  0  0
   32.5800   28.2020   49.2300 O   0  0  0  0  0  0  0  0  0  0  0  0
   31.7650   27.4490   48.3980 C   0  0  0  0  0  0  0  0  0  0  0  0
   32.1570   26.2290   47.8660 C   0  0  0  0  0  3  0  0  0  0  0  0
   31.2680   25.5490   47.0420 C   0  0  0  0  0  0  0  0  0  0  0  0
   31.5980   24.6040   46.6420 H   0  0  0  0  0  0  0  0  0  0  0  0
   30.0600   26.0780   46.7790 N   0  0  0  0  0  0  0  0  0  0  0  0
   29.6680   27.2750   47.2970 C   0  0  0  0  0  3  0  0  0  0  0  0
   30.5310   27.9300   48.0940 N   0  0  0  0  0  0  0  0  0  0  0  0
  1  4  1  6  0  0  0
  1  2  1  0  0  0  0
  2  6  1  0  0  0  0
  2  5  1  0  0  0  0
  3  7  1  6  0  0  0
  3  1  1  0  0  0  0
  3  2  1  0  0  0  0
  8  1  1  0  0  0  0
  8  9  1  0  0  0  0
 10  8  1  0  0  0  0
 11 17  1  0  0  0  0
 11 16  1  0  0  0  0
 12 11  2  0  0  0  0
 13 14  2  0  0  0  0
 13 12  1  0  0  0  0
 14 15  1  0  0  0  0
 15  8  1  0  0  0  0
 15 16  2  0  0  0  0
 18 12  1  0  0  0  0
 19 13  1  0  0  0  0
 20 22  1  0  0  0  0
 20  3  1  0  0  0  0
 21 20  2  0  0  0  0
 23 22  1  0  0  0  0
 24 23  2  0  0  0  0
 25 24  1  0  0  0  0
 26 25  1  0  0  0  0
 27 25  2  0  0  0  0
 27 28  1  0  0  0  0
 28 29  2  0  0  0  0
 29 23  1  0  0  0  0
M  END
>  <minimizedAffinity>
-5.03703117

>  <minimizedRMSD>
1.06414497

$$$$
