
     RDKit          3D

 36 38  0  0  0  0  0  0  0  0999 V2000
   36.4238   30.9586   48.7426 N   0  0  0  0  0  0  0  0  0  0  0  0
   36.3943   31.7261   49.8688 C   0  0  0  0  0  0  0  0  0  0  0  0
   37.3685   32.6596   49.7842 N   0  0  0  0  0  0  0  0  0  0  0  0
   37.9871   32.4574   48.6082 C   0  0  0  0  0  0  0  0  0  0  0  0
   39.0446   33.0784   47.9625 C   0  0  0  0  0  0  0  0  0  0  0  0
   39.4735   32.6677   46.7651 N   0  0  0  0  0  0  0  0  0  0  0  0
   38.8951   31.6236   46.1238 C   0  0  0  0  0  0  0  0  0  0  0  0
   37.8724   31.0266   46.7531 N   0  0  0  0  0  0  0  0  0  0  0  0
   37.4086   31.3969   47.9437 C   0  0  0  0  0  0  0  0  0  0  0  0
   39.6794   34.1754   48.5976 N   0  0  0  0  0  0  0  0  0  0  0  0
   34.6629   29.9820   47.3962 C   0  0  0  0  0  0  0  0  0  0  0  0
   35.5312   29.8819   48.5075 C   0  0  0  0  0  0  0  0  0  0  0  0
   35.4295   28.7329   49.2702 C   0  0  0  0  0  0  0  0  0  0  0  0
   34.5239   27.7783   48.9258 N   0  0  0  0  0  0  0  0  0  0  0  0
   33.7121   27.9049   47.8615 C   0  0  0  0  0  0  0  0  0  0  0  0
   33.7848   28.9992   47.1062 N   0  0  0  0  0  0  0  0  0  0  0  0
   32.7354   26.8544   47.5067 C   0  0  0  0  0  0  0  0  0  0  0  0
   31.5368   26.9012   48.4385 C   0  0  0  0  0  0  0  0  0  0  0  0
   32.1707   27.1104   46.1037 C   0  0  0  0  0  0  0  0  0  0  0  0
   33.3263   25.4644   47.4640 C   0  0  0  0  0  0  0  0  0  0  0  0
   35.7196   31.6387   50.7167 H   0  0  0  0  0  0  0  0  0  0  0  0
   39.3014   31.3600   45.1665 H   0  0  0  0  0  0  0  0  0  0  0  0
   39.0575   34.8623   49.0872 H   0  0  0  0  0  0  0  0  0  0  0  0
   40.6948   34.3723   48.6302 H   0  0  0  0  0  0  0  0  0  0  0  0
   34.7189   30.8784   46.7733 H   0  0  0  0  0  0  0  0  0  0  0  0
   36.0946   28.6554   50.1221 H   0  0  0  0  0  0  0  0  0  0  0  0
   30.6456   26.5080   47.8840 H   0  0  0  0  0  0  0  0  0  0  0  0
   31.3059   27.9926   48.5744 H   0  0  0  0  0  0  0  0  0  0  0  0
   31.7112   26.3780   49.3778 H   0  0  0  0  0  0  0  0  0  0  0  0
   31.2634   26.5100   45.9610 H   0  0  0  0  0  0  0  0  0  0  0  0
   32.0625   28.1867   45.9128 H   0  0  0  0  0  0  0  0  0  0  0  0
   32.9444   26.7061   45.4078 H   0  0  0  0  0  0  0  0  0  0  0  0
   33.6898   25.2507   48.4925 H   0  0  0  0  0  0  0  0  0  0  0  0
   32.4759   24.7810   47.2607 H   0  0  0  0  0  0  0  0  0  0  0  0
   34.3401   25.3573   46.5417 O   0  0  0  0  0  0  0  0  0  0  0  0
   35.0361   24.7296   46.8900 H   0  0  0  0  0  0  0  0  0  0  0  0
  1  2  1  0
  3  2  2  0
  4  3  1  0
  5 10  1  0
  5  4  2  0
  6  5  1  0
  7  8  1  0
  7  6  2  0
  8  9  2  0
  9  4  1  0
  9  1  1  0
 11 12  2  0
 12  1  1  0
 12 13  1  0
 14 13  2  0
 15 14  1  0
 16 11  1  0
 16 15  2  0
 17 15  1  0
 17 18  1  0
 19 17  1  0
 20 17  1  0
  2 21  1  0
  7 22  1  0
 10 23  1  0
 10 24  1  0
 11 25  1  0
 13 26  1  0
 18 27  1  0
 18 28  1  0
 18 29  1  0
 19 30  1  0
 19 31  1  0
 19 32  1  0
 20 33  1  0
 20 34  1  0
 35 36  1  0
 20 35  1  0
M  ISO  8  21  14  22  14  25  14  26  14  27   8  28   8  29   8  30   8
M  ISO  5  31   8  32   8  33   8  34   8  36   3
M  END
>  <DihAtoms>  (1) 
16,19,34,35

>  <DihDeg>  (1) 
-110.06544361966304

$$$$
