REMARK  Name = 
REMARK  7 active torsions:
REMARK  status: ('A' for Active; 'I' for Inactive)
REMARK    1  A    between atoms: N_1  and  C_12
REMARK    2  A    between atoms: C_5  and  N_10
REMARK    3  A    between atoms: C_15  and  C_17
REMARK    4  A    between atoms: C_17  and  C_18
REMARK    5  A    between atoms: C_17  and  C_19
REMARK    6  A    between atoms: C_17  and  C_20
REMARK    7  A    between atoms: C_20  and  O_35
REMARK                            x       y       z     vdW  Elec       q    Type
REMARK                         _______ _______ _______ _____ _____    ______ ____
ROOT
ATOM      1  C   UNL     1      34.663  29.982  47.396  0.00  0.00    +0.000 A 
ATOM      2  C   UNL     1      35.531  29.882  48.508  0.00  0.00    +0.000 A 
ATOM      3  C   UNL     1      35.429  28.733  49.270  0.00  0.00    +0.000 A 
ATOM      4  N   UNL     1      34.524  27.778  48.926  0.00  0.00    +0.000 NA
ATOM      5  C   UNL     1      33.712  27.905  47.861  0.00  0.00    +0.000 A 
ATOM      6  N   UNL     1      33.785  28.999  47.106  0.00  0.00    +0.000 NA
ATOM      7  H   UNL     1      34.719  30.878  46.773  0.00  0.00    +0.000 HD
ATOM      8  H   UNL     1      36.095  28.655  50.122  0.00  0.00    +0.000 HD
ENDROOT
BRANCH   2   9
ATOM      9  N   UNL     1      36.424  30.959  48.743  0.00  0.00    +0.000 N 
ATOM     10  C   UNL     1      36.394  31.726  49.869  0.00  0.00    +0.000 A 
ATOM     11  N   UNL     1      37.368  32.660  49.784  0.00  0.00    +0.000 NA
ATOM     12  C   UNL     1      37.987  32.457  48.608  0.00  0.00    +0.000 A 
ATOM     13  C   UNL     1      39.045  33.078  47.962  0.00  0.00    +0.000 A 
ATOM     14  N   UNL     1      39.474  32.668  46.765  0.00  0.00    +0.000 NA
ATOM     15  C   UNL     1      38.895  31.624  46.124  0.00  0.00    +0.000 A 
ATOM     16  N   UNL     1      37.872  31.027  46.753  0.00  0.00    +0.000 NA
ATOM     17  C   UNL     1      37.409  31.397  47.944  0.00  0.00    +0.000 A 
ATOM     18  H   UNL     1      35.720  31.639  50.717  0.00  0.00    +0.000 HD
ATOM     19  H   UNL     1      39.301  31.360  45.166  0.00  0.00    +0.000 HD
BRANCH  13  20
ATOM     20  N   UNL     1      39.679  34.175  48.598  0.00  0.00    +0.000 N 
ATOM     21  H   UNL     1      39.057  34.862  49.087  0.00  0.00    +0.000 HD
ATOM     22  H   UNL     1      40.695  34.372  48.630  0.00  0.00    +0.000 HD
ENDBRANCH  13  20
ENDBRANCH   2   9
BRANCH   5  23
ATOM     23  C   UNL     1      32.735  26.854  47.507  0.00  0.00    +0.000 C 
BRANCH  23  24
ATOM     24  C   UNL     1      31.537  26.901  48.438  0.00  0.00    +0.000 C 
ATOM     25  H   UNL     1      30.646  26.508  47.884  0.00  0.00    +0.000 HD
ATOM     26  H   UNL     1      31.306  27.993  48.574  0.00  0.00    +0.000 HD
ATOM     27  H   UNL     1      31.711  26.378  49.378  0.00  0.00    +0.000 HD
ENDBRANCH  23  24
BRANCH  23  28
ATOM     28  C   UNL     1      32.171  27.110  46.104  0.00  0.00    +0.000 C 
ATOM     29  H   UNL     1      31.263  26.510  45.961  0.00  0.00    +0.000 HD
ATOM     30  H   UNL     1      32.062  28.187  45.913  0.00  0.00    +0.000 HD
ATOM     31  H   UNL     1      32.944  26.706  45.408  0.00  0.00    +0.000 HD
ENDBRANCH  23  28
BRANCH  23  32
ATOM     32  C   UNL     1      33.326  25.464  47.464  0.00  0.00    +0.000 C 
ATOM     33  H   UNL     1      33.690  25.251  48.492  0.00  0.00    +0.000 HD
ATOM     34  H   UNL     1      32.476  24.781  47.261  0.00  0.00    +0.000 HD
BRANCH  32  35
ATOM     35  O   UNL     1      34.340  25.357  46.542  0.00  0.00    +0.000 OA
ATOM     36  H   UNL     1      33.965  25.491  45.624  0.00  0.00    +0.000 HD
ENDBRANCH  32  35
ENDBRANCH  23  32
ENDBRANCH   5  23
TORSDOF 7
