
 OpenBabel03252512373D

 37 39  0  0  1  0  0  0  0  0999 V2000
   39.2560   30.8680   46.3810 C   0  0  2  0  0  0  0  0  0  0  0  0
   40.1530   31.8540   45.8180 C   0  0  0  0  0  0  0  0  0  0  0  0
   40.9620   31.3680   44.6640 C   0  0  0  0  0  0  0  0  0  0  0  0
   40.1820   30.6110   43.6640 C   0  0  0  0  0  0  0  0  0  0  0  0
   39.1780   29.7060   44.2160 C   0  0  0  0  0  0  0  0  0  0  0  0
   38.3160   30.3640   45.3530 C   0  0  2  0  0  0  0  0  0  0  0  0
   39.8450   29.9730   46.7060 H   0  0  0  0  0  0  0  0  0  0  0  0
   39.8310   32.8660   45.6080 H   0  0  0  0  0  0  0  0  0  0  0  0
   40.9320   32.0320   46.6300 H   0  0  0  0  0  0  0  0  0  0  0  0
   41.5290   32.1950   44.1870 H   0  0  0  0  0  0  0  0  0  0  0  0
   41.7620   30.6700   45.0480 H   0  0  0  0  0  0  0  0  0  0  0  0
   39.6840   31.3290   42.9590 H   0  0  0  0  0  0  0  0  0  0  0  0
   40.8870   30.0230   43.0590 H   0  0  0  0  0  0  0  0  0  0  0  0
   38.4760   29.3470   43.4230 H   0  0  0  0  0  0  0  0  0  0  0  0
   39.6690   28.8460   44.6890 H   0  0  0  0  0  0  0  0  0  0  0  0
   37.6650   29.5040   45.6590 H   0  0  0  0  0  0  0  0  0  0  0  0
   38.6840   32.6160   48.1810 C   0  0  0  0  0  0  0  0  0  0  0  0
   38.5270   31.3270   47.5600 C   0  0  0  0  0  0  0  0  0  0  0  0
   37.6330   30.4540   48.0730 C   0  0  0  0  0  0  0  0  0  0  0  0
   36.9130   30.8520   49.1750 N   0  0  0  0  0  0  0  0  0  0  0  0
   37.0840   32.0940   49.7510 C   0  0  0  0  0  0  0  0  0  0  0  0
   37.9890   32.9810   49.2350 N   0  0  0  0  0  0  0  0  0  0  0  0
   39.4070   33.2380   47.7110 H   0  0  0  0  0  0  0  0  0  0  0  0
   37.4430   29.4780   47.6870 H   0  0  0  0  0  0  0  0  0  0  0  0
   36.4540   32.2440   50.5910 H   0  0  0  0  0  0  0  0  0  0  0  0
   37.5480   31.4110   44.6940 C   0  0  0  0  0  0  0  0  0  0  0  0
   37.6400   32.6720   44.9060 O   0  0  0  0  0  0  0  0  0  0  0  0
   36.6590   30.9610   43.7770 O   0  0  0  0  0  0  0  0  0  0  0  0
   35.9950   31.8970   42.9470 C   0  0  0  0  0  0  0  0  0  0  0  0
   34.6050   32.0550   42.9780 C   0  0  0  0  0  0  0  0  0  0  0  0
   34.3560   33.0480   42.0360 C   0  0  0  0  0  0  0  0  0  0  0  0
   35.5320   33.4530   41.4790 N   0  0  0  0  0  0  0  0  0  0  0  0
   36.4890   32.7410   42.0510 N   0  0  0  0  0  0  0  0  0  0  0  0
   33.8490   31.5550   43.5720 H   0  0  0  0  0  0  0  0  0  0  0  0
   33.3600   33.4300   41.7940 H   0  0  0  0  0  0  0  0  0  0  0  0
   35.6420   34.4750   40.4610 C   0  0  0  0  0  0  0  0  0  0  0  0
   36.7090   34.7510   40.2530 H   0  0  0  0  0  0  0  0  0  0  0  0
  1  7  1  1  0  0  0
  1 18  1  0  0  0  0
  2  1  1  0  0  0  0
  2  9  1  0  0  0  0
  3 11  1  0  0  0  0
  3  2  1  0  0  0  0
  4  5  1  0  0  0  0
  4  3  1  0  0  0  0
  5 15  1  0  0  0  0
  5  6  1  0  0  0  0
  6 16  1  1  0  0  0
  6  1  1  0  0  0  0
  8  2  1  0  0  0  0
 10  3  1  0  0  0  0
 12  4  1  0  0  0  0
 13  4  1  0  0  0  0
 14  5  1  0  0  0  0
 17 22  1  0  0  0  0
 18 19  1  0  0  0  0
 18 17  2  0  0  0  0
 19 20  2  0  0  0  0
 20 21  1  0  0  0  0
 21 25  1  0  0  0  0
 22 21  2  0  0  0  0
 23 17  1  0  0  0  0
 24 19  1  0  0  0  0
 26 27  2  0  0  0  0
 26  6  1  0  0  0  0
 28 26  1  0  0  0  0
 29 30  1  0  0  0  0
 29 28  1  0  0  0  0
 30 34  1  0  0  0  0
 31 30  2  0  0  0  0
 32 31  1  0  0  0  0
 32 33  1  0  0  0  0
 33 29  2  0  0  0  0
 35 31  1  0  0  0  0
 36 32  1  0  0  0  0
 37 36  1  0  0  0  0
M  END
>  <minimizedAffinity>
-5.05677938

>  <minimizedRMSD>
0.437451363

$$$$
