
 OpenBabel03252514013D

 32 35  0  0  1  0  0  0  0  0999 V2000
   35.3520   29.4360   49.0680 C   0  0  2  0  0  0  0  0  0  0  0  0
   34.2510   29.4090   50.0410 C   0  0  0  0  0  0  0  0  0  0  0  0
   34.5610   28.1510   49.3730 C   0  0  1  0  0  0  0  0  0  0  0  0
   35.1990   29.8920   48.0850 H   0  0  0  0  0  0  0  0  0  0  0  0
   33.3020   29.9590   49.8270 H   0  0  0  0  0  0  0  0  0  0  0  0
   34.4770   29.4240   51.1440 H   0  0  0  0  0  0  0  0  0  0  0  0
   35.1920   27.3240   49.6820 H   0  0  0  0  0  0  0  0  0  0  0  0
   36.7760   29.3650   49.6160 C   0  0  0  0  0  0  0  0  0  0  0  0
   36.6890   29.3640   50.7190 H   0  0  0  0  0  0  0  0  0  0  0  0
   37.2480   28.3740   49.3630 H   0  0  0  0  0  0  0  0  0  0  0  0
   38.3710   32.6580   49.4140 C   0  0  0  0  0  0  0  0  0  0  0  0
   38.8930   32.6760   48.1130 C   0  0  0  0  0  0  0  0  0  0  0  0
   38.6850   31.5390   47.3130 C   0  0  0  0  0  0  0  0  0  0  0  0
   37.9880   30.4820   47.8480 N   0  0  0  0  0  0  0  0  0  0  0  0
   37.5110   30.5210   49.0980 C   0  0  0  0  0  0  0  0  0  0  0  0
   37.7080   31.6130   49.8730 N   0  0  0  0  0  0  0  0  0  0  0  0
   38.5880   33.5800   49.9360 H   0  0  0  0  0  0  0  0  0  0  0  0
   39.4420   33.5000   47.6830 H   0  0  0  0  0  0  0  0  0  0  0  0
   39.0530   31.4680   46.3000 H   0  0  0  0  0  0  0  0  0  0  0  0
   33.5510   27.7060   48.3500 C   0  0  0  0  0  0  0  0  0  0  0  0
   33.7670   26.5200   47.8730 O   0  0  0  0  0  0  0  0  0  0  0  0
   32.4560   28.4320   47.9080 O   0  0  0  0  0  0  0  0  0  0  0  0
   27.4920   26.4870   49.5870 H   0  0  0  0  0  0  0  0  0  0  0  0
   28.4430   26.9130   49.4440 N   0  0  0  0  0  0  0  0  0  0  0  0
   29.1550   27.5520   50.4170 C   0  0  0  0  0  3  0  0  0  0  0  0
   30.3180   27.9670   49.8850 N   0  0  0  0  0  0  0  0  0  0  0  0
   30.3880   27.6150   48.5820 C   0  0  0  0  0  0  0  0  0  0  0  0
   31.2970   27.7580   47.5540 C   0  0  0  0  0  0  0  0  0  0  0  0
   31.0150   27.2540   46.3270 N   0  0  0  0  0  0  0  0  0  0  0  0
   29.8500   26.6130   46.1000 C   0  0  0  0  0  3  0  0  0  0  0  0
   28.9240   26.4500   47.0830 N   0  0  0  0  0  0  0  0  0  0  0  0
   29.2010   26.9510   48.3140 C   0  0  0  0  0  0  0  0  0  0  0  0
  1  4  1  6  0  0  0
  1  3  1  0  0  0  0
  1  8  1  0  0  0  0
  1  2  1  0  0  0  0
  2  6  1  0  0  0  0
  3  7  1  1  0  0  0
  3  2  1  0  0  0  0
  5  2  1  0  0  0  0
  8  9  1  0  0  0  0
 10  8  1  0  0  0  0
 11 16  1  0  0  0  0
 11 17  1  0  0  0  0
 12 11  2  0  0  0  0
 13 14  2  0  0  0  0
 13 12  1  0  0  0  0
 14 15  1  0  0  0  0
 15  8  1  0  0  0  0
 15 16  2  0  0  0  0
 18 12  1  0  0  0  0
 19 13  1  0  0  0  0
 20  3  1  0  0  0  0
 21 20  2  0  0  0  0
 22 20  1  0  0  0  0
 24 23  1  0  0  0  0
 24 25  1  0  0  0  0
 26 25  2  0  0  0  0
 27 26  1  0  0  0  0
 28 22  1  0  0  0  0
 28 27  2  0  0  0  0
 29 28  1  0  0  0  0
 30 29  2  0  0  0  0
 30 31  1  0  0  0  0
 31 32  2  0  0  0  0
 32 27  1  0  0  0  0
 32 24  1  0  0  0  0
M  END
>  <minimizedAffinity>
-5.7945652

>  <minimizedRMSD>
1.07154834

$$$$
