
 OpenBabel03252514083D

 41 44  0  0  0  0  0  0  0  0999 V2000
   34.9480   29.7210   47.2160 C   0  0  0  0  0  0  0  0  0  0  0  0
   35.5810   29.7670   48.4610 C   0  0  0  0  0  0  0  0  0  0  0  0
   35.3470   28.6890   49.3040 C   0  0  0  0  0  0  0  0  0  0  0  0
   34.5500   27.6770   48.9030 N   0  0  0  0  0  0  0  0  0  0  0  0
   33.9560   27.6500   47.7120 C   0  0  0  0  0  0  0  0  0  0  0  0
   34.1660   28.6810   46.8800 N   0  0  0  0  0  0  0  0  0  0  0  0
   35.0820   30.5230   46.5050 H   0  0  0  0  0  0  0  0  0  0  0  0
   35.8270   28.7040   50.2730 H   0  0  0  0  0  0  0  0  0  0  0  0
   36.3990   30.8850   48.7740 N   0  0  0  0  0  0  0  0  0  0  0  0
   36.2590   31.6420   49.8780 C   0  0  0  0  0  0  0  0  0  0  0  0
   37.2050   32.6160   49.8510 N   0  0  0  0  0  0  0  0  0  0  0  0
   37.9120   32.4440   48.7310 C   0  0  0  0  0  0  0  0  0  0  0  0
   38.9820   33.1160   48.1760 C   0  0  0  0  0  0  0  0  0  0  0  0
   39.5160   32.7180   47.0030 N   0  0  0  0  0  0  0  0  0  0  0  0
   39.0300   31.6500   46.3210 C   0  0  0  0  0  0  0  0  0  0  0  0
   37.9880   31.0030   46.8720 N   0  0  0  0  0  0  0  0  0  0  0  0
   37.4240   31.3600   48.0370 C   0  0  0  0  0  0  0  0  0  0  0  0
   35.5390   31.5480   50.6920 H   0  0  0  0  0  0  0  0  0  0  0  0
   39.4550   31.3270   45.3810 H   0  0  0  0  0  0  0  0  0  0  0  0
   39.5340   34.2350   48.8350 N   0  0  0  0  0  0  0  0  0  0  0  0
   40.5660   34.1900   48.9950 H   0  0  0  0  0  0  0  0  0  0  0  0
   38.9360   35.0480   49.1370 H   0  0  0  0  0  0  0  0  0  0  0  0
   33.0720   26.5550   47.2360 C   0  0  0  0  0  0  0  0  0  0  0  0
   31.8830   26.4260   48.2010 C   0  0  0  0  0  0  0  0  0  0  0  0
   30.9900   26.0270   47.7020 H   0  0  0  0  0  0  0  0  0  0  0  0
   31.6340   27.4930   48.4690 H   0  0  0  0  0  0  0  0  0  0  0  0
   32.1550   25.9560   49.1490 H   0  0  0  0  0  0  0  0  0  0  0  0
   32.4570   26.8750   45.8900 C   0  0  0  0  0  0  0  0  0  0  0  0
   33.2330   26.9200   45.1160 H   0  0  0  0  0  0  0  0  0  0  0  0
   31.7070   26.0620   45.7130 H   0  0  0  0  0  0  0  0  0  0  0  0
   31.8970   27.8470   45.9960 H   0  0  0  0  0  0  0  0  0  0  0  0
   33.7990   25.2570   47.1140 C   0  0  0  0  0  0  0  0  0  0  0  0
   34.4660   25.1340   48.0100 H   0  0  0  0  0  0  0  0  0  0  0  0
   34.5100   25.3820   46.2560 H   0  0  0  0  0  0  0  0  0  0  0  0
   32.9190   24.1110   46.9050 C   0  0  0  0  0  0  0  0  0  0  0  0
   32.1380   23.8950   45.7900 C   0  0  0  0  0  3  0  0  0  0  0  0
   31.3060   22.8140   45.5870 C   0  0  0  0  0  3  0  0  0  0  0  0
   31.3210   21.9150   46.6570 C   0  0  0  0  0  0  0  0  0  0  0  0
   30.7030   21.0230   46.6110 H   0  0  0  0  0  0  0  0  0  0  0  0
   32.0840   22.0880   47.7930 C   0  0  0  0  0  3  0  0  0  0  0  0
   32.8550   23.1750   47.8800 N   0  0  0  0  0  0  0  0  0  0  0  0
  1  2  1  0  0  0  0
  2  9  1  0  0  0  0
  2  3  2  0  0  0  0
  3  8  1  0  0  0  0
  4  3  1  0  0  0  0
  5  4  2  0  0  0  0
  6  1  2  0  0  0  0
  6  5  1  0  0  0  0
  7  1  1  0  0  0  0
  9 10  1  0  0  0  0
 10 18  1  0  0  0  0
 11 10  2  0  0  0  0
 12 11  1  0  0  0  0
 13 12  1  0  0  0  0
 13 20  1  0  0  0  0
 14 13  2  0  0  0  0
 15 16  2  0  0  0  0
 15 14  1  0  0  0  0
 16 17  1  0  0  0  0
 17 12  2  0  0  0  0
 17  9  1  0  0  0  0
 19 15  1  0  0  0  0
 20 21  1  0  0  0  0
 20 22  1  0  0  0  0
 23  5  1  0  0  0  0
 23 24  1  0  0  0  0
 24 26  1  0  0  0  0
 24 27  1  0  0  0  0
 25 24  1  0  0  0  0
 28 31  1  0  0  0  0
 28 23  1  0  0  0  0
 29 28  1  0  0  0  0
 30 28  1  0  0  0  0
 32 23  1  0  0  0  0
 32 33  1  0  0  0  0
 34 32  1  0  0  0  0
 35 32  1  0  0  0  0
 35 41  1  0  0  0  0
 36 35  2  0  0  0  0
 37 36  1  0  0  0  0
 37 38  2  0  0  0  0
 38 40  1  0  0  0  0
 39 38  1  0  0  0  0
 40 41  2  0  0  0  0
M  END
>  <minimizedAffinity>
-5.54826975

>  <minimizedRMSD>
0.493958473

$$$$
