
 OpenBabel03252510413D

 39 43  0  0  0  0  0  0  0  0999 V2000
   36.7760   29.1470   49.4570 C   0  0  0  0  0  0  0  0  0  0  0  0
   37.7220   30.1530   49.2030 C   0  0  0  0  0  0  0  0  0  0  0  0
   37.3660   31.2240   48.3080 C   0  0  0  0  0  0  0  0  0  0  0  0
   36.0940   31.1560   47.7700 N   0  0  0  0  0  0  0  0  0  0  0  0
   35.2270   30.1810   48.0390 C   0  0  0  0  0  0  0  0  0  0  0  0
   35.5440   29.1900   48.8620 N   0  0  0  0  0  0  0  0  0  0  0  0
   38.2550   32.2590   48.0060 N   0  0  0  0  0  0  0  0  0  0  0  0
   38.4600   33.3170   49.0170 C   0  0  0  0  0  0  0  0  0  0  0  0
   39.7460   34.0050   48.8060 C   0  0  0  0  0  0  0  0  0  0  0  0
   39.9800   34.3580   47.3980 N   0  0  0  0  0  0  0  0  0  0  0  0
   39.7890   33.3190   46.4510 C   0  0  0  0  0  0  0  0  0  0  0  0
   38.8870   32.2160   46.7590 C   0  0  0  0  0  0  0  0  0  0  0  0
   37.0380   28.3440   50.1270 H   0  0  0  0  0  0  0  0  0  0  0  0
   38.6930   30.1550   49.6470 H   0  0  0  0  0  0  0  0  0  0  0  0
   34.2620   30.2850   47.5250 H   0  0  0  0  0  0  0  0  0  0  0  0
   38.5000   32.7950   49.9970 H   0  0  0  0  0  0  0  0  0  0  0  0
   37.5840   33.9890   49.0590 H   0  0  0  0  0  0  0  0  0  0  0  0
   40.5830   33.4380   49.2290 H   0  0  0  0  0  0  0  0  0  0  0  0
   39.7070   34.9840   49.3540 H   0  0  0  0  0  0  0  0  0  0  0  0
   40.2730   35.2810   46.9940 H   0  0  0  0  0  0  0  0  0  0  0  0
   40.2820   33.3150   45.5190 H   0  0  0  0  0  0  0  0  0  0  0  0
   38.8160   31.2840   45.7210 N   0  0  0  0  0  0  0  0  0  0  0  0
   39.5140   30.1650   45.6240 C   0  0  0  0  0  0  0  0  0  0  0  0
   39.2490   29.4340   44.5050 C   0  0  0  0  0  0  0  0  0  0  0  0
   38.3130   30.1410   43.8430 N   0  0  0  0  0  0  0  0  0  0  0  0
   38.0550   31.2760   44.5990 C   0  0  0  0  0  0  0  0  0  0  0  0
   40.2610   29.7920   46.3420 H   0  0  0  0  0  0  0  0  0  0  0  0
   39.6580   28.4920   44.1650 H   0  0  0  0  0  0  0  0  0  0  0  0
   37.1420   32.2740   44.2610 O   0  0  0  0  0  0  0  0  0  0  0  0
   34.6630   34.2880   39.6580 H   0  0  0  0  0  0  0  0  0  0  0  0
   34.9200   33.8750   40.5780 N   0  0  0  0  0  0  0  0  0  0  0  0
   34.0490   33.4110   41.4950 C   0  0  0  0  0  0  0  0  0  0  0  0
   34.7620   32.9490   42.5640 N   0  0  0  0  0  0  0  0  0  0  0  0
   36.0680   33.1310   42.3000 C   0  0  0  0  0  0  0  0  0  0  0  0
   37.2210   32.8580   43.0070 C   0  0  0  0  0  0  0  0  0  0  0  0
   38.4280   33.1680   42.4540 N   0  0  0  0  0  0  0  0  0  0  0  0
   38.5380   33.7300   41.2500 C   0  0  0  0  0  0  0  0  0  0  0  0
   37.4090   34.0090   40.5350 N   0  0  0  0  0  0  0  0  0  0  0  0
   36.1950   33.7200   41.0380 C   0  0  0  0  0  0  0  0  0  0  0  0
  1 13  1  0  0  0  0
  2  1  1  0  0  0  0
  2 14  1  0  0  0  0
  3  2  2  0  0  0  0
  4  5  2  0  0  0  0
  4  3  1  0  0  0  0
  5  6  1  0  0  0  0
  6  1  2  0  0  0  0
  7  3  1  0  0  0  0
  7  8  1  0  0  0  0
  8 17  1  0  0  0  0
  8 16  1  0  0  0  0
  9  8  1  0  0  0  0
  9 18  1  0  0  0  0
  9 19  1  0  0  0  0
 10  9  1  0  0  0  0
 11 12  2  0  0  0  0
 11 10  1  0  0  0  0
 12  7  1  0  0  0  0
 15  5  1  0  0  0  0
 20 10  1  0  0  0  0
 21 11  1  0  0  0  0
 22 12  1  0  0  0  0
 23 22  1  0  0  0  0
 23 27  1  0  0  0  0
 24 23  2  0  0  0  0
 25 24  1  0  0  0  0
 25 26  2  0  0  0  0
 26 22  1  0  0  0  0
 28 24  1  0  0  0  0
 29 26  1  0  0  0  0
 30 31  1  0  0  0  0
 31 39  1  0  0  0  0
 31 32  1  0  0  0  0
 32 33  2  0  0  0  0
 34 33  1  0  0  0  0
 34 35  1  0  0  0  0
 35 29  1  0  0  0  0
 36 35  2  0  0  0  0
 37 36  1  0  0  0  0
 38 39  1  0  0  0  0
 38 37  2  0  0  0  0
 39 34  2  0  0  0  0
M  END
>  <minimizedAffinity>
-5.59600306

>  <minimizedRMSD>
4.73423481

$$$$
