
 OpenBabel03252514013D

 32 35  0  0  1  0  0  0  0  0999 V2000
   35.4610   29.4490   49.0610 C   0  0  2  0  0  0  0  0  0  0  0  0
   34.3730   29.5250   50.0460 C   0  0  0  0  0  0  0  0  0  0  0  0
   34.6570   28.2080   49.4890 C   0  0  1  0  0  0  0  0  0  0  0  0
   35.3000   29.8190   48.0430 H   0  0  0  0  0  0  0  0  0  0  0  0
   33.4280   30.0670   49.7970 H   0  0  0  0  0  0  0  0  0  0  0  0
   34.6150   29.6340   51.1410 H   0  0  0  0  0  0  0  0  0  0  0  0
   35.2810   27.4020   49.8620 H   0  0  0  0  0  0  0  0  0  0  0  0
   36.8910   29.4070   49.5950 C   0  0  0  0  0  0  0  0  0  0  0  0
   36.8160   29.4080   50.6990 H   0  0  0  0  0  0  0  0  0  0  0  0
   37.3800   28.4240   49.3400 H   0  0  0  0  0  0  0  0  0  0  0  0
   38.4180   32.7300   49.3660 C   0  0  0  0  0  0  0  0  0  0  0  0
   38.9300   32.7520   48.0600 C   0  0  0  0  0  0  0  0  0  0  0  0
   38.7400   31.6070   47.2670 C   0  0  0  0  0  0  0  0  0  0  0  0
   38.0670   30.5390   47.8130 N   0  0  0  0  0  0  0  0  0  0  0  0
   37.5990   30.5750   49.0660 C   0  0  0  0  0  0  0  0  0  0  0  0
   37.7800   31.6740   49.8340 N   0  0  0  0  0  0  0  0  0  0  0  0
   38.6210   33.6590   49.8820 H   0  0  0  0  0  0  0  0  0  0  0  0
   39.4590   33.5850   47.6230 H   0  0  0  0  0  0  0  0  0  0  0  0
   39.1010   31.5390   46.2520 H   0  0  0  0  0  0  0  0  0  0  0  0
   33.6270   27.6890   48.5230 C   0  0  0  0  0  0  0  0  0  0  0  0
   34.0550   26.7380   47.7520 O   0  0  0  0  0  0  0  0  0  0  0  0
   32.3160   28.1250   48.4070 O   0  0  0  0  0  0  0  0  0  0  0  0
   31.4240   30.5200   43.4350 H   0  0  0  0  0  0  0  0  0  0  0  0
   31.6980   30.2160   44.4050 N   0  0  0  0  0  0  0  0  0  0  0  0
   32.5190   30.9250   45.2330 C   0  0  0  0  0  3  0  0  0  0  0  0
   32.6490   30.2440   46.3840 N   0  0  0  0  0  0  0  0  0  0  0  0
   31.9300   29.1010   46.3340 C   0  0  0  0  0  0  0  0  0  0  0  0
   31.6820   28.0380   47.1770 C   0  0  0  0  0  0  0  0  0  0  0  0
   30.8760   27.0260   46.7700 N   0  0  0  0  0  0  0  0  0  0  0  0
   30.3120   27.0490   45.5460 C   0  0  0  0  0  3  0  0  0  0  0  0
   30.5280   28.0770   44.6810 N   0  0  0  0  0  0  0  0  0  0  0  0
   31.3350   29.0930   45.0820 C   0  0  0  0  0  0  0  0  0  0  0  0
  1  4  1  6  0  0  0
  1  3  1  0  0  0  0
  1  8  1  0  0  0  0
  1  2  1  0  0  0  0
  2  6  1  0  0  0  0
  3  7  1  1  0  0  0
  3  2  1  0  0  0  0
  5  2  1  0  0  0  0
  8  9  1  0  0  0  0
 10  8  1  0  0  0  0
 11 16  1  0  0  0  0
 11 17  1  0  0  0  0
 12 11  2  0  0  0  0
 13 14  2  0  0  0  0
 13 12  1  0  0  0  0
 14 15  1  0  0  0  0
 15  8  1  0  0  0  0
 15 16  2  0  0  0  0
 18 12  1  0  0  0  0
 19 13  1  0  0  0  0
 20  3  1  0  0  0  0
 21 20  2  0  0  0  0
 22 20  1  0  0  0  0
 23 24  1  0  0  0  0
 24 32  1  0  0  0  0
 24 25  1  0  0  0  0
 25 26  2  0  0  0  0
 27 26  1  0  0  0  0
 27 28  1  0  0  0  0
 28 22  1  0  0  0  0
 29 28  2  0  0  0  0
 30 29  1  0  0  0  0
 31 32  1  0  0  0  0
 31 30  2  0  0  0  0
 32 27  2  0  0  0  0
M  END
>  <minimizedAffinity>
-5.11210012

>  <minimizedRMSD>
1.38377082

$$$$
