REMARK  Name = 
REMARK  7 active torsions:
REMARK  status: ('A' for Active; 'I' for Inactive)
REMARK    1  A    between atoms: N_1  and  C_12
REMARK    2  A    between atoms: C_5  and  N_10
REMARK    3  A    between atoms: C_15  and  C_17
REMARK    4  A    between atoms: C_17  and  C_18
REMARK    5  A    between atoms: C_17  and  C_19
REMARK    6  A    between atoms: C_17  and  C_20
REMARK    7  A    between atoms: C_20  and  C_35
REMARK                            x       y       z     vdW  Elec       q    Type
REMARK                         _______ _______ _______ _____ _____    ______ ____
ROOT
ATOM      1  C   UNL     1      34.653  29.983  47.403  0.00  0.00    +0.000 A 
ATOM      2  C   UNL     1      35.517  29.899  48.498  0.00  0.00    +0.000 A 
ATOM      3  C   UNL     1      35.425  28.741  49.260  0.00  0.00    +0.000 A 
ATOM      4  N   UNL     1      34.539  27.780  48.925  0.00  0.00    +0.000 NA
ATOM      5  C   UNL     1      33.724  27.878  47.877  0.00  0.00    +0.000 A 
ATOM      6  N   UNL     1      33.794  28.987  47.126  0.00  0.00    +0.000 NA
ATOM      7  H   UNL     1      34.666  30.853  46.763  0.00  0.00    +0.000 HD
ATOM      8  H   UNL     1      36.084  28.655  50.112  0.00  0.00    +0.000 HD
ENDROOT
BRANCH   2   9
ATOM      9  N   UNL     1      36.408  30.974  48.754  0.00  0.00    +0.000 N 
ATOM     10  C   UNL     1      36.383  31.733  49.865  0.00  0.00    +0.000 A 
ATOM     11  N   UNL     1      37.371  32.660  49.772  0.00  0.00    +0.000 NA
ATOM     12  C   UNL     1      37.989  32.458  48.605  0.00  0.00    +0.000 A 
ATOM     13  C   UNL     1      39.049  33.079  47.977  0.00  0.00    +0.000 A 
ATOM     14  N   UNL     1      39.480  32.660  46.769  0.00  0.00    +0.000 NA
ATOM     15  C   UNL     1      38.896  31.619  46.123  0.00  0.00    +0.000 A 
ATOM     16  N   UNL     1      37.865  31.022  46.745  0.00  0.00    +0.000 NA
ATOM     17  C   UNL     1      37.401  31.402  47.947  0.00  0.00    +0.000 A 
ATOM     18  H   UNL     1      35.718  31.672  50.727  0.00  0.00    +0.000 HD
ATOM     19  H   UNL     1      39.238  31.279  45.155  0.00  0.00    +0.000 HD
BRANCH  13  20
ATOM     20  N   UNL     1      39.699  34.168  48.596  0.00  0.00    +0.000 N 
ATOM     21  H   UNL     1      40.737  34.072  48.683  0.00  0.00    +0.000 HD
ATOM     22  H   UNL     1      39.164  35.008  48.939  0.00  0.00    +0.000 HD
ENDBRANCH  13  20
ENDBRANCH   2   9
BRANCH   5  23
ATOM     23  C   UNL     1      32.737  26.842  47.478  0.00  0.00    +0.000 C 
BRANCH  23  24
ATOM     24  C   UNL     1      31.543  26.900  48.444  0.00  0.00    +0.000 C 
ATOM     25  H   UNL     1      30.614  26.554  47.970  0.00  0.00    +0.000 HD
ATOM     26  H   UNL     1      31.399  28.003  48.631  0.00  0.00    +0.000 HD
ATOM     27  H   UNL     1      31.770  26.477  49.425  0.00  0.00    +0.000 HD
ENDBRANCH  23  24
BRANCH  23  28
ATOM     28  C   UNL     1      32.154  27.120  46.109  0.00  0.00    +0.000 C 
ATOM     29  H   UNL     1      32.929  27.032  45.338  0.00  0.00    +0.000 HD
ATOM     30  H   UNL     1      31.328  26.373  45.988  0.00  0.00    +0.000 HD
ATOM     31  H   UNL     1      31.691  28.147  46.140  0.00  0.00    +0.000 HD
ENDBRANCH  23  28
BRANCH  23  32
ATOM     32  C   UNL     1      33.334  25.474  47.456  0.00  0.00    +0.000 C 
ATOM     33  H   UNL     1      33.815  25.276  48.452  0.00  0.00    +0.000 HD
ATOM     34  H   UNL     1      34.196  25.526  46.740  0.00  0.00    +0.000 HD
BRANCH  32  35
ATOM     35  C   UNL     1      32.391  24.430  47.068  0.00  0.00    +0.000 A 
ATOM     36  C   UNL     1      32.726  23.150  46.685  0.00  0.00    +0.000 A 
ATOM     37  C   UNL     1      31.839  22.160  46.317  0.00  0.00    +0.000 A 
ATOM     38  C   UNL     1      30.508  22.584  46.368  0.00  0.00    +0.000 A 
ATOM     39  H   UNL     1      29.718  21.889  46.099  0.00  0.00    +0.000 HD
ATOM     40  C   UNL     1      30.122  23.854  46.744  0.00  0.00    +0.000 A 
ATOM     41  N   UNL     1      31.071  24.732  47.081  0.00  0.00    +0.000 NA
ENDBRANCH  32  35
ENDBRANCH  23  32
ENDBRANCH   5  23
TORSDOF 7
