
 OpenBabel03252514083D

 41 44  0  0  0  0  0  0  0  0999 V2000
   34.7220   29.9930   47.4070 C   0  0  0  0  0  0  0  0  0  0  0  0
   35.5790   29.9310   48.5090 C   0  0  0  0  0  0  0  0  0  0  0  0
   35.4890   28.7840   49.2880 C   0  0  0  0  0  0  0  0  0  0  0  0
   34.6110   27.8130   48.9620 N   0  0  0  0  0  0  0  0  0  0  0  0
   33.8030   27.8890   47.9070 C   0  0  0  0  0  0  0  0  0  0  0  0
   33.8710   28.9870   47.1390 N   0  0  0  0  0  0  0  0  0  0  0  0
   34.7340   30.8530   46.7540 H   0  0  0  0  0  0  0  0  0  0  0  0
   36.1420   28.7160   50.1460 H   0  0  0  0  0  0  0  0  0  0  0  0
   36.4610   31.0160   48.7550 N   0  0  0  0  0  0  0  0  0  0  0  0
   36.4330   31.7820   49.8610 C   0  0  0  0  0  0  0  0  0  0  0  0
   37.4120   32.7170   49.7580 N   0  0  0  0  0  0  0  0  0  0  0  0
   38.0280   32.5120   48.5900 C   0  0  0  0  0  0  0  0  0  0  0  0
   39.0810   33.1380   47.9550 C   0  0  0  0  0  0  0  0  0  0  0  0
   39.5120   32.7140   46.7480 N   0  0  0  0  0  0  0  0  0  0  0  0
   38.9350   31.6640   46.1120 C   0  0  0  0  0  0  0  0  0  0  0  0
   37.9110   31.0620   46.7410 N   0  0  0  0  0  0  0  0  0  0  0  0
   37.4480   31.4460   47.9420 C   0  0  0  0  0  0  0  0  0  0  0  0
   35.7710   31.7210   50.7250 H   0  0  0  0  0  0  0  0  0  0  0  0
   39.2770   31.3200   45.1450 H   0  0  0  0  0  0  0  0  0  0  0  0
   39.7230   34.2370   48.5640 N   0  0  0  0  0  0  0  0  0  0  0  0
   40.7620   34.1510   48.6480 H   0  0  0  0  0  0  0  0  0  0  0  0
   39.1820   35.0750   48.9030 H   0  0  0  0  0  0  0  0  0  0  0  0
   32.8250   26.8410   47.5170 C   0  0  0  0  0  0  0  0  0  0  0  0
   31.5950   26.9490   48.4310 C   0  0  0  0  0  0  0  0  0  0  0  0
   30.6830   26.5860   47.9370 H   0  0  0  0  0  0  0  0  0  0  0  0
   31.4510   28.0600   48.5610 H   0  0  0  0  0  0  0  0  0  0  0  0
   31.7800   26.5710   49.4390 H   0  0  0  0  0  0  0  0  0  0  0  0
   32.2990   27.0580   46.1140 C   0  0  0  0  0  0  0  0  0  0  0  0
   33.1030   26.9310   45.3800 H   0  0  0  0  0  0  0  0  0  0  0  0
   31.4730   26.3110   45.9950 H   0  0  0  0  0  0  0  0  0  0  0  0
   31.8420   28.0880   46.0800 H   0  0  0  0  0  0  0  0  0  0  0  0
   33.4130   25.4700   47.5810 C   0  0  0  0  0  0  0  0  0  0  0  0
   33.2840   25.0730   48.6240 H   0  0  0  0  0  0  0  0  0  0  0  0
   34.5220   25.6060   47.4750 H   0  0  0  0  0  0  0  0  0  0  0  0
   32.8950   24.5620   46.5630 C   0  0  0  0  0  0  0  0  0  0  0  0
   33.4900   24.2960   45.3500 C   0  0  0  0  0  3  0  0  0  0  0  0
   33.0040   23.4390   44.3840 C   0  0  0  0  0  3  0  0  0  0  0  0
   31.7990   22.8350   44.7580 C   0  0  0  0  0  0  0  0  0  0  0  0
   31.3200   22.1390   44.0760 H   0  0  0  0  0  0  0  0  0  0  0  0
   31.1660   23.0690   45.9600 C   0  0  0  0  0  3  0  0  0  0  0  0
   31.7310   23.9210   46.8200 N   0  0  0  0  0  0  0  0  0  0  0  0
  1  2  1  0  0  0  0
  2  9  1  0  0  0  0
  2  3  2  0  0  0  0
  3  8  1  0  0  0  0
  4  3  1  0  0  0  0
  5  4  2  0  0  0  0
  6  1  2  0  0  0  0
  6  5  1  0  0  0  0
  7  1  1  0  0  0  0
  9 10  1  0  0  0  0
 10 18  1  0  0  0  0
 11 10  2  0  0  0  0
 12 11  1  0  0  0  0
 13 20  1  0  0  0  0
 13 12  1  0  0  0  0
 14 13  2  0  0  0  0
 15 16  2  0  0  0  0
 15 14  1  0  0  0  0
 16 17  1  0  0  0  0
 17 12  2  0  0  0  0
 17  9  1  0  0  0  0
 19 15  1  0  0  0  0
 20 21  1  0  0  0  0
 20 22  1  0  0  0  0
 23 32  1  0  0  0  0
 23  5  1  0  0  0  0
 23 24  1  0  0  0  0
 24 26  1  0  0  0  0
 24 27  1  0  0  0  0
 25 24  1  0  0  0  0
 28 23  1  0  0  0  0
 29 28  1  0  0  0  0
 30 28  1  0  0  0  0
 31 28  1  0  0  0  0
 32 33  1  0  0  0  0
 34 32  1  0  0  0  0
 35 41  1  0  0  0  0
 35 32  1  0  0  0  0
 36 35  2  0  0  0  0
 37 38  2  0  0  0  0
 37 36  1  0  0  0  0
 38 40  1  0  0  0  0
 39 38  1  0  0  0  0
 40 41  2  0  0  0  0
M  END
>  <minimizedAffinity>
-5.40971327

>  <minimizedRMSD>
0.816644311

$$$$
