
 OpenBabel03252514043D

 36 39  0  0  1  0  0  0  0  0999 V2000
   35.2600   29.2470   48.6850 C   0  0  2  0  0  0  0  0  0  0  0  0
   34.0770   29.2820   49.5380 C   0  0  0  0  0  0  0  0  0  0  0  0
   34.4500   27.9730   49.0940 C   0  0  1  0  0  0  0  0  0  0  0  0
   35.2870   29.4300   47.6030 H   0  0  0  0  0  0  0  0  0  0  0  0
   33.1550   29.7850   49.1250 H   0  0  0  0  0  0  0  0  0  0  0  0
   34.2330   29.6160   50.5980 H   0  0  0  0  0  0  0  0  0  0  0  0
   35.0510   27.2500   49.6440 H   0  0  0  0  0  0  0  0  0  0  0  0
   36.6180   29.2670   49.4080 C   0  0  0  0  0  0  0  0  0  0  0  0
   36.4440   29.1780   50.4880 H   0  0  0  0  0  0  0  0  0  0  0  0
   37.2280   28.4120   49.0000 H   0  0  0  0  0  0  0  0  0  0  0  0
   37.7010   32.7520   49.5410 C   0  0  0  0  0  0  0  0  0  0  0  0
   38.5400   32.8610   48.4240 C   0  0  0  0  0  0  0  0  0  0  0  0
   38.7240   31.7070   47.6270 C   0  0  0  0  0  0  0  0  0  0  0  0
   38.0730   30.5570   47.9930 N   0  0  0  0  0  0  0  0  0  0  0  0
   37.2850   30.5120   49.0680 C   0  0  0  0  0  0  0  0  0  0  0  0
   37.1020   31.6140   49.8400 N   0  0  0  0  0  0  0  0  0  0  0  0
   37.5940   33.6650   50.1180 H   0  0  0  0  0  0  0  0  0  0  0  0
   39.0590   33.7430   48.1170 H   0  0  0  0  0  0  0  0  0  0  0  0
   39.3600   31.7560   46.7650 H   0  0  0  0  0  0  0  0  0  0  0  0
   33.5720   27.3730   48.0120 C   0  0  0  0  0  0  0  0  0  0  0  0
   33.9360   26.1820   47.6680 O   0  0  0  0  0  0  0  0  0  0  0  0
   32.4710   27.9820   47.4110 O   0  0  0  0  0  0  0  0  0  0  0  0
   31.2190   27.9870   47.9690 C   0  0  0  0  0  0  0  0  0  0  0  0
   30.8550   27.3580   49.2650 C   0  0  0  0  0  0  0  0  0  0  0  0
   29.5710   27.4600   49.6650 C   0  0  0  0  0  0  0  0  0  0  0  0
   28.5990   28.1320   48.8990 C   0  0  0  0  0  0  0  0  0  0  0  0
   29.5580   28.7130   47.4160 S   0  0  0  0  0  0  0  0  0  0  0  0
   31.6440   26.8640   49.7960 H   0  0  0  0  0  0  0  0  0  0  0  0
   29.2270   27.0320   50.5900 H   0  0  0  0  0  0  0  0  0  0  0  0
   27.3070   28.3710   49.0600 N   0  0  0  0  0  0  0  0  0  0  0  0
   26.5800   28.3820   50.1880 N   0  0  0  0  0  0  0  0  0  0  0  0
   25.3040   28.6660   49.9470 C   0  0  0  0  0  0  0  0  0  0  0  0
   24.5300   28.7320   50.7000 H   0  0  0  0  0  0  0  0  0  0  0  0
   25.1570   28.8560   48.5890 C   0  0  0  0  0  3  0  0  0  0  0  0
   26.4190   28.6650   48.0690 C   0  0  0  0  0  0  0  0  0  0  0  0
   26.6200   28.7520   46.9940 H   0  0  0  0  0  0  0  0  0  0  0  0
  1  4  1  6  0  0  0
  1  3  1  0  0  0  0
  1  8  1  0  0  0  0
  1  2  1  0  0  0  0
  2  6  1  0  0  0  0
  3  2  1  0  0  0  0
  3  7  1  1  0  0  0
  5  2  1  0  0  0  0
  8  9  1  0  0  0  0
 10  8  1  0  0  0  0
 11 16  1  0  0  0  0
 11 17  1  0  0  0  0
 12 11  2  0  0  0  0
 13 14  2  0  0  0  0
 13 12  1  0  0  0  0
 14 15  1  0  0  0  0
 15  8  1  0  0  0  0
 15 16  2  0  0  0  0
 18 12  1  0  0  0  0
 19 13  1  0  0  0  0
 20  3  1  0  0  0  0
 21 20  2  0  0  0  0
 22 23  1  0  0  0  0
 22 20  1  0  0  0  0
 23 24  2  0  0  0  0
 24 25  1  0  0  0  0
 24 28  1  0  0  0  0
 25 29  1  0  0  0  0
 26 30  1  0  0  0  0
 26 25  2  0  0  0  0
 27 23  1  0  0  0  0
 27 26  1  0  0  0  0
 30 31  1  0  0  0  0
 32 31  2  0  0  0  0
 32 33  1  0  0  0  0
 34 32  1  0  0  0  0
 35 34  2  0  0  0  0
 35 30  1  0  0  0  0
 36 35  1  0  0  0  0
M  END
>  <minimizedAffinity>
-6.04644823

>  <minimizedRMSD>
1.37181342

$$$$
