
 OpenBabel03252513533D

 39 41  0  0  1  0  0  0  0  0999 V2000
   37.0830   30.5970   46.0270 C   0  0  0  0  0  0  0  0  0  0  0  0
   38.0070   30.3450   46.8390 O   0  0  0  0  0  0  0  0  0  0  0  0
   37.4880   31.3800   44.8960 N   0  0  0  0  0  0  0  0  0  0  0  0
   36.9930   30.9170   43.6020 C   0  0  0  0  0  0  0  0  0  0  0  0
   37.7920   31.5250   42.4700 C   0  0  0  0  0  0  0  0  0  0  0  0
   39.1030   31.6480   42.9180 O   0  0  0  0  0  0  0  0  0  0  0  0
   39.1200   32.7860   43.7390 C   0  0  0  0  0  0  0  0  0  0  0  0
   38.3360   32.5590   45.0080 C   0  0  2  0  0  0  0  0  0  0  0  0
   35.9620   31.3310   43.5170 H   0  0  0  0  0  0  0  0  0  0  0  0
   36.9450   29.8300   43.5240 H   0  0  0  0  0  0  0  0  0  0  0  0
   37.4130   32.5530   42.2880 H   0  0  0  0  0  0  0  0  0  0  0  0
   37.7330   30.8850   41.5610 H   0  0  0  0  0  0  0  0  0  0  0  0
   40.1610   33.1220   43.9420 H   0  0  0  0  0  0  0  0  0  0  0  0
   38.5810   33.5600   43.1540 H   0  0  0  0  0  0  0  0  0  0  0  0
   37.7270   33.4360   45.2380 H   0  0  0  0  0  0  0  0  0  0  0  0
   34.0130   29.2900   47.7700 C   0  0  0  0  0  0  0  0  0  0  0  0
   35.3450   29.7680   47.5610 C   0  0  0  0  0  0  0  0  0  0  0  0
   35.7370   30.1090   46.2700 C   0  0  0  0  0  0  0  0  0  0  0  0
   34.8110   29.9600   45.2910 N   0  0  0  0  0  0  0  0  0  0  0  0
   33.5820   29.5140   45.5170 C   0  0  0  0  0  0  0  0  0  0  0  0
   33.1910   29.1860   46.7260 N   0  0  0  0  0  0  0  0  0  0  0  0
   36.0490   29.8690   48.3810 H   0  0  0  0  0  0  0  0  0  0  0  0
   32.7070   29.4190   44.3070 C   0  0  0  0  0  0  0  0  0  0  0  0
   32.6810   30.6360   43.6340 F   0  0  0  0  0  0  0  0  0  0  0  0
   33.2540   28.5180   43.4130 F   0  0  0  0  0  0  0  0  0  0  0  0
   31.4320   28.9640   44.6020 F   0  0  0  0  0  0  0  0  0  0  0  0
   33.6450   28.9550   49.0670 O   0  0  0  0  0  0  0  0  0  0  0  0
   34.0960   29.6120   50.2090 C   0  0  0  0  0  0  0  0  0  0  0  0
   35.0740   28.9260   50.8940 F   0  0  0  0  0  0  0  0  0  0  0  0
   34.4830   30.9160   50.0090 F   0  0  0  0  0  0  0  0  0  0  0  0
   32.9680   29.6690   51.0580 F   0  0  0  0  0  0  0  0  0  0  0  0
   39.3020   32.2190   45.9690 O   0  0  0  0  0  0  0  0  0  0  0  0
   39.4220   33.0310   47.0910 C   0  0  0  0  0  0  0  0  0  0  0  0
   38.8820   32.9290   48.3560 C   0  0  0  0  0  0  0  0  0  0  0  0
   39.2980   33.9920   49.1340 C   0  0  0  0  0  0  0  0  0  0  0  0
   38.9890   34.1070   50.1680 H   0  0  0  0  0  0  0  0  0  0  0  0
   40.0970   34.7310   48.3120 N   0  0  0  0  0  0  0  0  0  0  0  0
   40.1560   34.1590   47.1330 N   0  0  0  0  0  0  0  0  0  0  0  0
   40.5280   35.5990   48.7010 H   0  0  0  0  0  0  0  0  0  0  0  0
  1 18  1  0  0  0  0
  1  2  2  0  0  0  0
  3  8  1  0  0  0  0
  3  1  1  0  0  0  0
  4  3  1  0  0  0  0
  5  6  1  0  0  0  0
  5  4  1  0  0  0  0
  6  7  1  0  0  0  0
  7 13  1  0  0  0  0
  7  8  1  0  0  0  0
  8 15  1  1  0  0  0
  8 32  1  0  0  0  0
  9  4  1  0  0  0  0
 10  4  1  0  0  0  0
 11  5  1  0  0  0  0
 12  5  1  0  0  0  0
 14  7  1  0  0  0  0
 16 27  1  0  0  0  0
 17 16  1  0  0  0  0
 17 22  1  0  0  0  0
 18 17  2  0  0  0  0
 19 20  2  0  0  0  0
 19 18  1  0  0  0  0
 20 21  1  0  0  0  0
 21 16  2  0  0  0  0
 23 26  1  0  0  0  0
 23 20  1  0  0  0  0
 24 23  1  0  0  0  0
 25 23  1  0  0  0  0
 27 28  1  0  0  0  0
 28 29  1  0  0  0  0
 28 31  1  0  0  0  0
 30 28  1  0  0  0  0
 32 33  1  0  0  0  0
 33 38  2  0  0  0  0
 33 34  1  0  0  0  0
 34 35  2  0  0  0  0
 35 36  1  0  0  0  0
 37 39  1  0  0  0  0
 37 35  1  0  0  0  0
 38 37  1  0  0  0  0
M  END
>  <minimizedAffinity>
-5.5983181

>  <minimizedRMSD>
1.81115496

$$$$
