REMARK  Name = 
REMARK  7 active torsions:
REMARK  status: ('A' for Active; 'I' for Inactive)
REMARK    1  A    between atoms: N_1  and  C_12
REMARK    2  A    between atoms: C_5  and  N_10
REMARK    3  A    between atoms: C_15  and  C_17
REMARK    4  A    between atoms: C_17  and  C_18
REMARK    5  A    between atoms: C_17  and  C_19
REMARK    6  A    between atoms: C_17  and  C_20
REMARK    7  A    between atoms: C_20  and  C_35
REMARK                            x       y       z     vdW  Elec       q    Type
REMARK                         _______ _______ _______ _____ _____    ______ ____
ROOT
ATOM      1  C   UNL     1      34.666  29.982  47.384  0.00  0.00    +0.000 A 
ATOM      2  C   UNL     1      35.527  29.877  48.504  0.00  0.00    +0.000 A 
ATOM      3  C   UNL     1      35.429  28.736  49.277  0.00  0.00    +0.000 A 
ATOM      4  N   UNL     1      34.523  27.788  48.926  0.00  0.00    +0.000 NA
ATOM      5  C   UNL     1      33.715  27.890  47.872  0.00  0.00    +0.000 A 
ATOM      6  N   UNL     1      33.800  28.986  47.117  0.00  0.00    +0.000 NA
ATOM      7  H   UNL     1      34.720  30.866  46.758  0.00  0.00    +0.000 HD
ATOM      8  H   UNL     1      36.087  28.658  50.133  0.00  0.00    +0.000 HD
ENDROOT
BRANCH   2   9
ATOM      9  N   UNL     1      36.421  30.956  48.740  0.00  0.00    +0.000 N 
ATOM     10  C   UNL     1      36.394  31.732  49.864  0.00  0.00    +0.000 A 
ATOM     11  N   UNL     1      37.369  32.662  49.773  0.00  0.00    +0.000 NA
ATOM     12  C   UNL     1      37.986  32.460  48.608  0.00  0.00    +0.000 A 
ATOM     13  C   UNL     1      39.039  33.077  47.964  0.00  0.00    +0.000 A 
ATOM     14  N   UNL     1      39.470  32.664  46.770  0.00  0.00    +0.000 NA
ATOM     15  C   UNL     1      38.899  31.622  46.127  0.00  0.00    +0.000 A 
ATOM     16  N   UNL     1      37.869  31.020  46.757  0.00  0.00    +0.000 NA
ATOM     17  C   UNL     1      37.407  31.397  47.947  0.00  0.00    +0.000 A 
ATOM     18  H   UNL     1      35.728  31.673  50.732  0.00  0.00    +0.000 HD
ATOM     19  H   UNL     1      39.285  31.323  45.157  0.00  0.00    +0.000 HD
BRANCH  13  20
ATOM     20  N   UNL     1      39.682  34.178  48.599  0.00  0.00    +0.000 N 
ATOM     21  H   UNL     1      40.608  34.540  48.277  0.00  0.00    +0.000 HD
ATOM     22  H   UNL     1      39.272  34.676  49.407  0.00  0.00    +0.000 HD
ENDBRANCH  13  20
ENDBRANCH   2   9
BRANCH   5  23
ATOM     23  C   UNL     1      32.735  26.847  47.504  0.00  0.00    +0.000 C 
BRANCH  23  24
ATOM     24  C   UNL     1      31.544  26.901  48.440  0.00  0.00    +0.000 C 
ATOM     25  H   UNL     1      30.795  27.627  48.077  0.00  0.00    +0.000 HD
ATOM     26  H   UNL     1      31.073  25.899  48.397  0.00  0.00    +0.000 HD
ATOM     27  H   UNL     1      31.907  27.107  49.465  0.00  0.00    +0.000 HD
ENDBRANCH  23  24
BRANCH  23  28
ATOM     28  C   UNL     1      32.151  27.129  46.112  0.00  0.00    +0.000 C 
ATOM     29  H   UNL     1      32.938  27.390  45.407  0.00  0.00    +0.000 HD
ATOM     30  H   UNL     1      31.542  28.069  46.248  0.00  0.00    +0.000 HD
ATOM     31  H   UNL     1      31.496  26.299  45.834  0.00  0.00    +0.000 HD
ENDBRANCH  23  28
BRANCH  23  32
ATOM     32  C   UNL     1      33.335  25.476  47.446  0.00  0.00    +0.000 C 
ATOM     33  H   UNL     1      32.568  24.742  47.212  0.00  0.00    +0.000 HD
ATOM     34  H   UNL     1      33.788  25.241  48.437  0.00  0.00    +0.000 HD
BRANCH  32  35
ATOM     35  C   UNL     1      34.423  25.530  46.401  0.00  0.00    +0.000 A 
ATOM     36  C   UNL     1      35.299  26.617  46.411  0.00  0.00    +0.000 A 
ATOM     37  S   UNL     1      36.401  26.311  45.059  0.00  0.00    +0.000 S 
ATOM     38  C   UNL     1      35.488  24.674  44.640  0.00  0.00    +0.000 A 
ATOM     39  H   UNL     1      35.523  23.759  43.861  0.00  0.00    +0.000 HD
ATOM     40  N   UNL     1      34.671  24.663  45.449  0.00  0.00    +0.000 NA
ENDBRANCH  32  35
ENDBRANCH  23  32
ENDBRANCH   5  23
TORSDOF 7
