
 OpenBabel03252514083D

 40 43  0  0  0  0  0  0  0  0999 V2000
   30.0680   27.3820   44.1550 C   0  0  0  0  0  0  0  0  0  0  0  0
   29.5550   28.0960   45.2660 C   0  0  0  0  0  0  0  0  0  0  0  0
   29.9310   27.6680   46.5250 C   0  0  0  0  0  0  0  0  0  0  0  0
   30.7610   26.5990   46.6280 N   0  0  0  0  0  0  0  0  0  0  0  0
   31.2400   25.9300   45.5810 C   0  0  0  0  0  0  0  0  0  0  0  0
   30.8870   26.3330   44.3600 N   0  0  0  0  0  0  0  0  0  0  0  0
   29.7910   27.6940   43.1540 H   0  0  0  0  0  0  0  0  0  0  0  0
   29.5380   28.2150   47.3730 H   0  0  0  0  0  0  0  0  0  0  0  0
   28.6960   29.1940   44.9920 N   0  0  0  0  0  0  0  0  0  0  0  0
   27.3670   29.2150   45.3090 C   0  0  0  0  0  0  0  0  0  0  0  0
   26.8460   30.3970   44.9150 N   0  0  0  0  0  0  0  0  0  0  0  0
   27.8410   31.0920   44.3620 C   0  0  0  0  0  0  0  0  0  0  0  0
   27.9300   32.3430   43.7860 C   0  0  0  0  0  0  0  0  0  0  0  0
   29.0810   32.8100   43.2970 N   0  0  0  0  0  0  0  0  0  0  0  0
   30.2200   32.0840   43.3380 C   0  0  0  0  0  0  0  0  0  0  0  0
   30.1320   30.8610   43.9010 N   0  0  0  0  0  0  0  0  0  0  0  0
   29.0070   30.3560   44.4020 C   0  0  0  0  0  0  0  0  0  0  0  0
   26.7580   28.4470   45.7980 H   0  0  0  0  0  0  0  0  0  0  0  0
   31.1320   32.5070   42.9270 H   0  0  0  0  0  0  0  0  0  0  0  0
   26.7600   33.1530   43.7210 N   0  0  0  0  0  0  0  0  0  0  0  0
   26.8050   34.1750   43.5060 H   0  0  0  0  0  0  0  0  0  0  0  0
   25.8100   32.7790   43.8820 H   0  0  0  0  0  0  0  0  0  0  0  0
   32.1440   24.7680   45.7130 C   0  0  0  0  0  0  0  0  0  0  0  0
   32.6280   24.3300   44.3450 C   0  0  0  0  0  0  0  0  0  0  0  0
   33.5260   24.9000   44.0480 H   0  0  0  0  0  0  0  0  0  0  0  0
   32.9360   23.2710   44.4520 H   0  0  0  0  0  0  0  0  0  0  0  0
   31.7890   24.4120   43.6280 H   0  0  0  0  0  0  0  0  0  0  0  0
   33.4200   25.1650   46.4700 C   0  0  0  0  0  0  0  0  0  0  0  0
   33.1790   25.7530   47.3540 H   0  0  0  0  0  0  0  0  0  0  0  0
   33.9520   25.8730   45.7710 H   0  0  0  0  0  0  0  0  0  0  0  0
   34.0270   24.2690   46.6240 H   0  0  0  0  0  0  0  0  0  0  0  0
   31.5300   23.6340   46.4750 C   0  0  0  0  0  0  0  0  0  0  0  0
   31.0750   24.0030   47.3910 H   0  0  0  0  0  0  0  0  0  0  0  0
   32.3280   22.8970   46.7250 H   0  0  0  0  0  0  0  0  0  0  0  0
   30.5290   22.9890   45.5480 C   0  0  0  0  0  0  0  0  0  0  0  0
   29.2000   23.4180   45.6040 C   0  0  0  0  0  3  0  0  0  0  0  0
   28.3660   22.4380   44.3890 S   0  0  0  0  0  0  0  0  0  0  0  0
   30.0020   21.5350   43.9440 C   0  0  0  0  0  0  0  0  0  0  0  0
   30.4280   20.6830   43.2100 H   0  0  0  0  0  0  0  0  0  0  0  0
   30.7390   22.0450   44.6620 N   0  0  0  0  0  0  0  0  0  0  0  0
  1  6  2  0  0  0  0
  1  2  1  0  0  0  0
  2  3  2  0  0  0  0
  3  4  1  0  0  0  0
  3  8  1  0  0  0  0
  5 23  1  0  0  0  0
  5  4  2  0  0  0  0
  6  5  1  0  0  0  0
  7  1  1  0  0  0  0
  9  2  1  0  0  0  0
  9 10  1  0  0  0  0
 10 18  1  0  0  0  0
 11 10  2  0  0  0  0
 12 17  1  0  0  0  0
 12 11  1  0  0  0  0
 13 12  2  0  0  0  0
 14 15  2  0  0  0  0
 14 13  1  0  0  0  0
 15 16  1  0  0  0  0
 16 17  2  0  0  0  0
 17  9  1  0  0  0  0
 19 15  1  0  0  0  0
 20 13  1  0  0  0  0
 20 22  1  0  0  0  0
 21 20  1  0  0  0  0
 23 28  1  0  0  0  0
 23 32  1  0  0  0  0
 24 26  1  0  0  0  0
 24 23  1  0  0  0  0
 25 24  1  0  0  0  0
 27 24  1  0  0  0  0
 28 31  1  0  0  0  0
 28 29  1  0  0  0  0
 30 28  1  0  0  0  0
 32 34  1  0  0  0  0
 32 33  1  0  0  0  0
 35 36  2  0  0  0  0
 35 32  1  0  0  0  0
 37 36  1  0  0  0  0
 38 37  1  0  0  0  0
 38 40  2  0  0  0  0
 39 38  1  0  0  0  0
 40 35  1  0  0  0  0
M  END
>  <minimizedAffinity>
-2.63803744

>  <minimizedRMSD>
7.96825838

$$$$
