
 OpenBabel03252514083D

 40 43  0  0  0  0  0  0  0  0999 V2000
   34.4490   30.1960   47.5280 C   0  0  0  0  0  0  0  0  0  0  0  0
   35.4600   29.9600   48.4930 C   0  0  0  0  0  0  0  0  0  0  0  0
   35.4680   28.7270   49.1170 C   0  0  0  0  0  0  0  0  0  0  0  0
   34.5180   27.8190   48.7760 N   0  0  0  0  0  0  0  0  0  0  0  0
   33.5700   28.0440   47.8690 C   0  0  0  0  0  0  0  0  0  0  0  0
   33.5510   29.2300   47.2580 N   0  0  0  0  0  0  0  0  0  0  0  0
   34.4170   31.1540   47.0210 H   0  0  0  0  0  0  0  0  0  0  0  0
   36.2400   28.5490   49.8540 H   0  0  0  0  0  0  0  0  0  0  0  0
   36.3810   31.0130   48.7390 N   0  0  0  0  0  0  0  0  0  0  0  0
   36.3840   31.7690   49.8770 C   0  0  0  0  0  0  0  0  0  0  0  0
   37.3800   32.6770   49.7930 N   0  0  0  0  0  0  0  0  0  0  0  0
   37.9810   32.4810   48.6180 C   0  0  0  0  0  0  0  0  0  0  0  0
   39.0430   33.0840   47.9750 C   0  0  0  0  0  0  0  0  0  0  0  0
   39.4520   32.6820   46.7700 N   0  0  0  0  0  0  0  0  0  0  0  0
   38.8500   31.6660   46.1140 C   0  0  0  0  0  0  0  0  0  0  0  0
   37.8120   31.0780   46.7430 N   0  0  0  0  0  0  0  0  0  0  0  0
   37.3700   31.4440   47.9440 C   0  0  0  0  0  0  0  0  0  0  0  0
   35.7250   31.7100   50.7500 H   0  0  0  0  0  0  0  0  0  0  0  0
   39.2200   31.3750   45.1350 H   0  0  0  0  0  0  0  0  0  0  0  0
   39.7180   34.1580   48.6230 N   0  0  0  0  0  0  0  0  0  0  0  0
   40.6490   34.5030   48.2990 H   0  0  0  0  0  0  0  0  0  0  0  0
   39.3280   34.6510   49.4440 H   0  0  0  0  0  0  0  0  0  0  0  0
   32.5440   27.0430   47.5100 C   0  0  0  0  0  0  0  0  0  0  0  0
   33.1220   25.6460   47.6210 C   0  0  0  0  0  0  0  0  0  0  0  0
   33.0250   25.2650   48.6530 H   0  0  0  0  0  0  0  0  0  0  0  0
   32.4930   25.0000   46.9760 H   0  0  0  0  0  0  0  0  0  0  0  0
   34.1630   25.6610   47.2450 H   0  0  0  0  0  0  0  0  0  0  0  0
   31.3910   27.0710   48.5240 C   0  0  0  0  0  0  0  0  0  0  0  0
   31.0840   28.0940   48.7330 H   0  0  0  0  0  0  0  0  0  0  0  0
   31.8500   26.6900   49.4810 H   0  0  0  0  0  0  0  0  0  0  0  0
   30.6130   26.3820   48.1850 H   0  0  0  0  0  0  0  0  0  0  0  0
   31.9350   27.2870   46.1630 C   0  0  0  0  0  0  0  0  0  0  0  0
   31.9060   28.3530   45.9540 H   0  0  0  0  0  0  0  0  0  0  0  0
   30.8990   26.8770   46.1590 H   0  0  0  0  0  0  0  0  0  0  0  0
   32.7770   26.5250   45.1690 C   0  0  0  0  0  0  0  0  0  0  0  0
   32.2240   25.3990   44.5550 C   0  0  0  0  0  3  0  0  0  0  0  0
   33.5020   24.8040   43.4850 S   0  0  0  0  0  0  0  0  0  0  0  0
   34.6720   26.2230   44.0360 C   0  0  0  0  0  0  0  0  0  0  0  0
   35.7800   26.6470   43.8420 H   0  0  0  0  0  0  0  0  0  0  0  0
   34.0050   26.7810   44.7870 N   0  0  0  0  0  0  0  0  0  0  0  0
  1  2  1  0  0  0  0
  2  9  1  0  0  0  0
  2  3  2  0  0  0  0
  3  8  1  0  0  0  0
  4  3  1  0  0  0  0
  5  4  2  0  0  0  0
  6  1  2  0  0  0  0
  6  5  1  0  0  0  0
  7  1  1  0  0  0  0
  9 10  1  0  0  0  0
 10 18  1  0  0  0  0
 11 10  2  0  0  0  0
 12 11  1  0  0  0  0
 13 12  1  0  0  0  0
 13 20  1  0  0  0  0
 14 13  2  0  0  0  0
 15 16  2  0  0  0  0
 15 14  1  0  0  0  0
 16 17  1  0  0  0  0
 17 12  2  0  0  0  0
 17  9  1  0  0  0  0
 19 15  1  0  0  0  0
 20 22  1  0  0  0  0
 21 20  1  0  0  0  0
 23 24  1  0  0  0  0
 23  5  1  0  0  0  0
 23 28  1  0  0  0  0
 24 25  1  0  0  0  0
 26 24  1  0  0  0  0
 27 24  1  0  0  0  0
 28 29  1  0  0  0  0
 28 30  1  0  0  0  0
 31 28  1  0  0  0  0
 32 23  1  0  0  0  0
 33 32  1  0  0  0  0
 34 32  1  0  0  0  0
 35 32  1  0  0  0  0
 36 35  2  0  0  0  0
 37 38  1  0  0  0  0
 37 36  1  0  0  0  0
 38 40  2  0  0  0  0
 39 38  1  0  0  0  0
 40 35  1  0  0  0  0
M  END
>  <minimizedAffinity>
-5.18871689

>  <minimizedRMSD>
1.50126553

$$$$
