
 OpenBabel03252514013D

 29 31  0  0  1  0  0  0  0  0999 V2000
   35.4710   29.4580   49.1150 C   0  0  2  0  0  0  0  0  0  0  0  0
   34.4040   29.5350   50.1220 C   0  0  0  0  0  0  0  0  0  0  0  0
   34.6770   28.2160   49.5560 C   0  0  1  0  0  0  0  0  0  0  0  0
   35.3100   29.8810   48.1210 H   0  0  0  0  0  0  0  0  0  0  0  0
   33.4460   30.0580   49.8950 H   0  0  0  0  0  0  0  0  0  0  0  0
   34.7420   29.6990   51.1710 H   0  0  0  0  0  0  0  0  0  0  0  0
   35.3300   27.4030   49.8760 H   0  0  0  0  0  0  0  0  0  0  0  0
   36.9120   29.4100   49.6180 C   0  0  0  0  0  0  0  0  0  0  0  0
   36.8880   29.4840   50.7220 H   0  0  0  0  0  0  0  0  0  0  0  0
   37.3680   28.4570   49.3220 H   0  0  0  0  0  0  0  0  0  0  0  0
   38.4150   32.7450   49.3680 C   0  0  0  0  0  0  0  0  0  0  0  0
   38.9220   32.7610   48.0600 C   0  0  0  0  0  0  0  0  0  0  0  0
   38.7410   31.6120   47.2700 C   0  0  0  0  0  0  0  0  0  0  0  0
   38.0790   30.5400   47.8210 N   0  0  0  0  0  0  0  0  0  0  0  0
   37.6140   30.5760   49.0760 C   0  0  0  0  0  0  0  0  0  0  0  0
   37.7860   31.6810   49.8400 N   0  0  0  0  0  0  0  0  0  0  0  0
   38.6140   33.6730   49.8690 H   0  0  0  0  0  0  0  0  0  0  0  0
   39.4410   33.5490   47.5740 H   0  0  0  0  0  0  0  0  0  0  0  0
   39.1000   31.5410   46.2550 H   0  0  0  0  0  0  0  0  0  0  0  0
   33.6200   27.7090   48.6110 C   0  0  0  0  0  0  0  0  0  0  0  0
   34.0670   26.8980   47.7030 O   0  0  0  0  0  0  0  0  0  0  0  0
   32.2710   28.0190   48.6340 O   0  0  0  0  0  0  0  0  0  0  0  0
   31.5030   27.8480   47.5030 C   0  0  0  0  0  0  0  0  0  0  0  0
   30.6520   26.9220   46.9380 C   0  0  0  0  0  3  0  0  0  0  0  0
   30.2470   27.4730   45.7400 C   0  0  0  0  0  0  0  0  0  0  0  0
   29.5630   26.9200   45.1080 H   0  0  0  0  0  0  0  0  0  0  0  0
   30.8220   28.6780   45.5790 N   0  0  0  0  0  0  0  0  0  0  0  0
   31.5850   28.9080   46.6470 N   0  0  0  0  0  0  0  0  0  0  0  0
   30.6740   29.3030   44.7430 H   0  0  0  0  0  0  0  0  0  0  0  0
  1  4  1  6  0  0  0
  1  3  1  0  0  0  0
  1  8  1  0  0  0  0
  1  2  1  0  0  0  0
  2  6  1  0  0  0  0
  3  7  1  1  0  0  0
  3  2  1  0  0  0  0
  5  2  1  0  0  0  0
  8  9  1  0  0  0  0
 10  8  1  0  0  0  0
 11 16  1  0  0  0  0
 11 17  1  0  0  0  0
 12 11  2  0  0  0  0
 13 14  2  0  0  0  0
 13 12  1  0  0  0  0
 14 15  1  0  0  0  0
 15  8  1  0  0  0  0
 15 16  2  0  0  0  0
 18 12  1  0  0  0  0
 19 13  1  0  0  0  0
 20 22  1  0  0  0  0
 20  3  1  0  0  0  0
 21 20  2  0  0  0  0
 23 22  1  0  0  0  0
 24 23  1  0  0  0  0
 25 24  2  0  0  0  0
 26 25  1  0  0  0  0
 27 25  1  0  0  0  0
 27 28  1  0  0  0  0
 28 23  2  0  0  0  0
 29 27  1  0  0  0  0
M  END
>  <minimizedAffinity>
-4.7241621

>  <minimizedRMSD>
0.72126019

$$$$
