
     RDKit          3D

 37 40  0  0  0  0  0  0  0  0999 V2000
   35.2944   29.4147   48.9795 C   0  0  2  0  0  0  0  0  0  0  0  0
   34.1850   29.3705   49.9268 C   0  0  0  0  0  0  0  0  0  0  0  0
   34.5240   28.1035   49.3499 C   0  0  1  0  0  0  0  0  0  0  0  0
   36.7070   29.3905   49.5891 C   0  0  0  0  0  0  0  0  0  0  0  0
   38.0846   32.7678   49.4378 C   0  0  0  0  0  0  0  0  0  0  0  0
   38.7560   32.7767   48.2082 C   0  0  0  0  0  0  0  0  0  0  0  0
   38.7231   31.5925   47.4346 C   0  0  0  0  0  0  0  0  0  0  0  0
   38.0399   30.5142   47.9324 N   0  0  0  0  0  0  0  0  0  0  0  0
   37.4184   30.5633   49.1108 C   0  0  0  0  0  0  0  0  0  0  0  0
   37.4443   31.6954   49.8608 N   0  0  0  0  0  0  0  0  0  0  0  0
   33.5620   27.5854   48.2993 C   0  0  0  0  0  0  0  0  0  0  0  0
   33.9107   26.4375   47.8174 O   0  0  0  0  0  0  0  0  0  0  0  0
   32.4022   28.2202   47.8565 O   0  0  0  0  0  0  0  0  0  0  0  0
   31.1433   27.8279   48.2285 C   0  0  0  0  0  0  0  0  0  0  0  0
   30.6303   27.8003   49.6218 C   0  0  0  0  0  0  0  0  0  0  0  0
   29.3599   27.3855   49.8081 C   0  0  0  0  0  0  0  0  0  0  0  0
   28.5360   26.9912   48.7360 C   0  0  0  0  0  0  0  0  0  0  0  0
   29.6389   27.2100   47.2537 S   0  0  0  0  0  0  0  0  0  0  0  0
   35.2314   29.6838   47.9178 H   0  0  0  0  0  0  0  0  0  0  0  0
   33.2306   29.8962   49.6331 H   0  0  0  0  0  0  0  0  0  0  0  0
   34.4274   29.6204   50.9936 H   0  0  0  0  0  0  0  0  0  0  0  0
   35.1697   27.3464   49.7891 H   0  0  0  0  0  0  0  0  0  0  0  0
   36.6205   29.3822   50.6827 H   0  0  0  0  0  0  0  0  0  0  0  0
   37.2257   28.4718   49.1932 H   0  0  0  0  0  0  0  0  0  0  0  0
   38.1411   33.7001   49.9908 H   0  0  0  0  0  0  0  0  0  0  0  0
   39.2956   33.6026   47.7967 H   0  0  0  0  0  0  0  0  0  0  0  0
   39.2275   31.5664   46.4879 H   0  0  0  0  0  0  0  0  0  0  0  0
   31.3100   28.1141   50.3891 H   0  0  0  0  0  0  0  0  0  0  0  0
   28.9138   27.3359   50.7863 H   0  0  0  0  0  0  0  0  0  0  0  0
   27.2888   26.5567   48.6470 N   0  0  0  0  0  0  0  0  0  0  0  0
   26.8310   25.3865   48.1774 N   0  0  0  0  0  0  0  0  0  0  0  0
   25.5054   25.3131   48.2508 C   0  0  0  0  0  0  0  0  0  0  0  0
   24.9118   24.4659   47.9316 H   0  0  0  0  0  0  0  0  0  0  0  0
   25.0416   26.4910   48.7968 C   0  0  0  0  0  0  0  0  0  0  0  0
   26.1743   27.2400   49.0308 C   0  0  0  0  0  0  0  0  0  0  0  0
   26.1235   28.2446   49.4693 H   0  0  0  0  0  0  0  0  0  0  0  0
   24.0273   26.7912   49.0071 H   0  0  0  0  0  0  0  0  0  0  0  0
  1  3  1  0
  1  4  1  0
  1  2  1  0
  3  2  1  0
  5 10  2  0
  6  5  1  0
  7  8  1  0
  7  6  2  0
  8  9  2  0
  9  4  1  0
  9 10  1  0
 11  3  1  0
 12 11  2  0
 13 14  1  0
 13 11  1  0
 14 15  2  0
 15 16  1  0
 17 16  2  0
 18 14  1  0
 18 17  1  0
  1 19  1  6
  2 20  1  0
  2 21  1  0
  3 22  1  1
  4 23  1  0
  4 24  1  0
  5 25  1  0
  6 26  1  0
  7 27  1  0
 15 28  1  0
 16 29  1  0
 30 31  1  0
 31 32  2  0
 32 33  1  0
 32 34  1  0
 34 35  2  0
 35 36  1  0
 35 30  1  0
 34 37  1  0
 17 30  1  0
M  ISO  8  19  13  20  13  21  13  22  13  23   8  24   8  25  14  26  14
M  ISO  5  27  14  28  14  29  14  33  14  36  14
M  END
>  <DihAtoms>  (1) 
15,16,29,30

>  <DihDeg>  (1) 
-104.16505133424039

$$$$
