
 OpenBabel03252513373D

 26 27  0  0  0  0  0  0  0  0999 V2000
   36.9130   29.9700   49.8460 C   0  0  0  0  0  0  0  0  0  0  0  0
   38.0290   30.6960   49.4310 C   0  0  0  0  0  0  0  0  0  0  0  0
   38.0430   31.1880   48.1230 C   0  0  0  0  0  0  0  0  0  0  0  0
   36.9650   30.9300   47.3310 N   0  0  0  0  0  0  0  0  0  0  0  0
   35.9120   30.2220   47.7820 C   0  0  0  0  0  0  0  0  0  0  0  0
   35.8940   29.7520   49.0280 N   0  0  0  0  0  0  0  0  0  0  0  0
   39.1360   31.9290   47.6380 N   0  0  0  0  0  0  0  0  0  0  0  0
   39.0660   32.6470   46.4270 C   0  0  0  0  0  0  0  0  0  0  0  0
   37.9910   32.5430   45.7050 N   0  0  0  0  0  0  0  0  0  0  0  0
   40.1540   33.4570   46.0270 N   0  0  0  0  0  0  0  0  0  0  0  0
   37.9470   33.0870   44.8110 H   0  0  0  0  0  0  0  0  0  0  0  0
   38.8770   30.8830   50.1020 H   0  0  0  0  0  0  0  0  0  0  0  0
   40.0160   31.9400   48.1970 H   0  0  0  0  0  0  0  0  0  0  0  0
   40.9400   32.9790   45.5770 H   0  0  0  0  0  0  0  0  0  0  0  0
   40.1620   34.4870   46.1790 H   0  0  0  0  0  0  0  0  0  0  0  0
   34.8820   30.0510   46.8220 N   0  0  0  0  0  0  0  0  0  0  0  0
   33.6790   30.4480   47.1940 N   0  0  0  0  0  0  0  0  0  0  0  0
   32.8060   30.2210   46.1770 C   0  0  0  0  0  0  0  0  0  0  0  0
   31.7370   30.3970   46.0670 H   0  0  0  0  0  0  0  0  0  0  0  0
   33.4860   29.6560   45.1200 C   0  0  0  0  0  0  0  0  0  0  0  0
   34.8060   29.5640   45.5710 C   0  0  0  0  0  0  0  0  0  0  0  0
   35.7350   29.1910   45.1220 H   0  0  0  0  0  0  0  0  0  0  0  0
   36.8850   29.4350   51.2510 C   0  0  0  0  0  0  0  0  0  0  0  0
   35.5920   29.1320   51.6140 F   0  0  0  0  0  0  0  0  0  0  0  0
   37.7670   28.3980   51.3290 F   0  0  0  0  0  0  0  0  0  0  0  0
   37.3250   30.4790   52.0840 F   0  0  0  0  0  0  0  0  0  0  0  0
  1 23  1  0  0  0  0
  2  1  1  0  0  0  0
  2 12  1  0  0  0  0
  3  2  2  0  0  0  0
  4  5  2  0  0  0  0
  4  3  1  0  0  0  0
  5  6  1  0  0  0  0
  6  1  2  0  0  0  0
  7  3  1  0  0  0  0
  7 13  1  0  0  0  0
  8  7  1  0  0  0  0
  9  8  2  0  0  0  0
 10 15  1  0  0  0  0
 10  8  1  0  0  0  0
 11  9  1  0  0  0  0
 14 10  1  0  0  0  0
 16 17  1  0  0  0  0
 16  5  1  0  0  0  0
 18 17  2  0  0  0  0
 19 18  1  0  0  0  0
 20 21  2  0  0  0  0
 20 18  1  0  0  0  0
 21 16  1  0  0  0  0
 22 21  1  0  0  0  0
 23 25  1  0  0  0  0
 23 24  1  0  0  0  0
 23 26  1  0  0  0  0
M  END
>  <minimizedAffinity>
-6.89522457

>  <minimizedRMSD>
0.103501767

$$$$
