
 OpenBabel03252511533D

 35 38  0  0  1  0  0  0  0  0999 V2000
   37.8420   31.2630   47.9880 N   0  0  0  0  0  0  0  0  0  0  0  0
   38.8740   32.1150   47.8760 C   0  0  0  0  0  0  0  0  0  0  0  0
   39.0470   32.5000   46.6010 N   0  0  0  0  0  0  0  0  0  0  0  0
   38.1000   31.8810   45.8620 C   0  0  0  0  0  0  0  0  0  0  0  0
   37.8030   31.8590   44.5370 C   0  0  0  0  0  0  0  0  0  0  0  0
   36.7870   31.1040   44.0090 N   0  0  0  0  0  0  0  0  0  0  0  0
   36.0790   30.3690   44.8900 C   0  0  0  0  0  0  0  0  0  0  0  0
   36.3820   30.4000   46.1930 N   0  0  0  0  0  0  0  0  0  0  0  0
   37.3560   31.1140   46.7400 C   0  0  0  0  0  0  0  0  0  0  0  0
   39.4850   32.4440   48.7090 H   0  0  0  0  0  0  0  0  0  0  0  0
   35.2690   29.7610   44.5120 H   0  0  0  0  0  0  0  0  0  0  0  0
   36.2940   29.7890   49.1310 C   0  0  0  0  0  0  0  0  0  0  0  0
   37.3750   30.6520   49.1710 C   0  0  0  0  0  0  0  0  0  0  0  0
   38.0020   30.9120   50.3890 C   0  0  0  0  0  0  0  0  0  0  0  0
   37.4800   30.2690   51.4930 N   0  0  0  0  0  0  0  0  0  0  0  0
   36.4380   29.4420   51.4230 C   0  0  0  0  0  0  0  0  0  0  0  0
   35.8400   29.1950   50.2610 N   0  0  0  0  0  0  0  0  0  0  0  0
   35.7760   29.5570   48.2090 H   0  0  0  0  0  0  0  0  0  0  0  0
   38.8560   31.5850   50.4660 H   0  0  0  0  0  0  0  0  0  0  0  0
   36.0770   28.9690   52.3320 H   0  0  0  0  0  0  0  0  0  0  0  0
   38.4770   32.7560   43.5600 C   0  0  2  0  0  0  0  0  0  0  0  0
   38.6480   33.7240   44.0700 H   0  0  0  0  0  0  0  0  0  0  0  0
   37.8290   32.8620   42.2500 C   0  0  0  0  0  0  0  0  0  0  0  0
   38.6150   32.9900   41.4610 H   0  0  0  0  0  0  0  0  0  0  0  0
   37.1400   32.0200   42.0010 H   0  0  0  0  0  0  0  0  0  0  0  0
   37.2190   33.8110   42.1950 H   0  0  0  0  0  0  0  0  0  0  0  0
   39.9670   32.2840   43.4210 C   0  0  0  0  0  0  0  0  0  0  0  0
   40.4770   33.1030   42.9110 H   0  0  0  0  0  0  0  0  0  0  0  0
   40.3550   32.1510   44.4320 H   0  0  0  0  0  0  0  0  0  0  0  0
   40.0200   31.0030   42.6740 C   0  0  0  0  0  0  0  0  0  0  0  0
   40.2950   31.1400   41.2810 C   0  0  0  0  0  0  0  0  0  0  0  0
   40.2800   29.4580   40.7390 S   0  0  0  0  0  0  0  0  0  0  0  0
   39.9020   28.7810   42.4750 C   0  0  0  0  0  0  0  0  0  0  0  0
   39.7390   27.7700   42.9570 H   0  0  0  0  0  0  0  0  0  0  0  0
   39.8470   29.7850   43.1340 N   0  0  0  0  0  0  0  0  0  0  0  0
  1 13  1  0  0  0  0
  2  1  1  0  0  0  0
  2 10  1  0  0  0  0
  3  2  2  0  0  0  0
  4  3  1  0  0  0  0
  4  9  1  0  0  0  0
  5  4  2  0  0  0  0
  6  5  1  0  0  0  0
  6  7  2  0  0  0  0
  7  8  1  0  0  0  0
  8  9  2  0  0  0  0
  9  1  1  0  0  0  0
 11  7  1  0  0  0  0
 12 13  2  0  0  0  0
 12 17  1  0  0  0  0
 13 14  1  0  0  0  0
 14 19  1  0  0  0  0
 14 15  2  0  0  0  0
 16 15  1  0  0  0  0
 16 20  1  0  0  0  0
 17 16  2  0  0  0  0
 18 12  1  0  0  0  0
 21 22  1  1  0  0  0
 21  5  1  0  0  0  0
 23 21  1  0  0  0  0
 24 23  1  0  0  0  0
 25 23  1  0  0  0  0
 26 23  1  0  0  0  0
 27 21  1  0  0  0  0
 27 29  1  0  0  0  0
 28 27  1  0  0  0  0
 30 35  1  0  0  0  0
 30 27  1  0  0  0  0
 31 30  2  0  0  0  0
 32 31  1  0  0  0  0
 32 33  1  0  0  0  0
 33 34  1  0  0  0  0
 33 35  2  0  0  0  0
M  END
>  <minimizedAffinity>
-5.48607349

>  <minimizedRMSD>
1.75353026

$$$$
