
 OpenBabel03252513503D

 28 30  0  0  0  0  0  0  0  0999 V2000
   33.6710   28.4890   48.0950 C   0  0  0  0  0  0  0  0  0  0  0  0
   34.9470   28.8660   48.6480 C   0  0  0  0  0  0  0  0  0  0  0  0
   35.7660   29.7040   47.8950 C   0  0  0  0  0  0  0  0  0  0  0  0
   35.2910   30.1010   46.6910 N   0  0  0  0  0  0  0  0  0  0  0  0
   34.1090   29.7380   46.2040 C   0  0  0  0  0  0  0  0  0  0  0  0
   33.3150   28.9480   46.8910 N   0  0  0  0  0  0  0  0  0  0  0  0
   35.2480   28.5060   49.6110 H   0  0  0  0  0  0  0  0  0  0  0  0
   33.7840   30.2870   44.8660 C   0  0  0  0  0  0  0  0  0  0  0  0
   32.8180   31.3020   44.9700 F   0  0  0  0  0  0  0  0  0  0  0  0
   34.8780   30.8830   44.3110 F   0  0  0  0  0  0  0  0  0  0  0  0
   33.3410   29.2980   43.9800 F   0  0  0  0  0  0  0  0  0  0  0  0
   37.0770   30.1170   48.4210 C   0  0  0  0  0  0  0  0  0  0  0  0
   37.3390   29.7990   49.6230 O   0  0  0  0  0  0  0  0  0  0  0  0
   37.9760   30.8550   47.5420 C   0  0  0  0  0  0  0  0  0  0  0  0
   38.3070   30.4150   46.2730 C   0  0  0  0  0  0  0  0  0  0  0  0
   39.1570   31.0670   45.4080 C   0  0  0  0  0  0  0  0  0  0  0  0
   39.7400   32.2600   45.8240 C   0  0  0  0  0  0  0  0  0  0  0  0
   39.4540   32.7550   47.0800 C   0  0  0  0  0  0  0  0  0  0  0  0
   40.0230   33.9390   47.5050 C   0  0  0  0  0  0  0  0  0  0  0  0
   39.7640   34.4690   48.7440 C   0  0  0  0  0  0  0  0  0  0  0  0
   38.9010   33.7750   49.5760 C   0  0  0  0  0  0  0  0  0  0  0  0
   38.3480   32.5970   49.1220 C   0  0  0  0  0  0  0  0  0  0  0  0
   38.5910   32.0410   47.8840 C   0  0  0  0  0  0  0  0  0  0  0  0
   32.8630   27.6580   48.8460 O   0  0  0  0  0  0  0  0  0  0  0  0
   31.4800   27.7000   48.8600 C   0  0  0  0  0  0  0  0  0  0  0  0
   30.9420   28.2260   50.0250 F   0  0  0  0  0  0  0  0  0  0  0  0
   30.9160   28.3240   47.7750 F   0  0  0  0  0  0  0  0  0  0  0  0
   31.0770   26.3510   48.8160 F   0  0  0  0  0  0  0  0  0  0  0  0
  1  2  1  0  0  0  0
  1 24  1  0  0  0  0
  2  7  1  0  0  0  0
  3 12  1  0  0  0  0
  3  2  2  0  0  0  0
  4  3  1  0  0  0  0
  5  4  2  0  0  0  0
  5  6  1  0  0  0  0
  6  1  2  0  0  0  0
  8  9  1  0  0  0  0
  8  5  1  0  0  0  0
 10  8  1  0  0  0  0
 11  8  1  0  0  0  0
 12 13  2  0  0  0  0
 14 23  1  0  0  0  0
 14 12  1  0  0  0  0
 15 14  2  0  0  0  0
 16 17  2  0  0  0  0
 16 15  1  0  0  0  0
 17 18  1  0  0  0  0
 18 19  2  0  0  0  0
 18 23  1  0  0  0  0
 19 20  1  0  0  0  0
 20 21  2  0  0  0  0
 22 21  1  0  0  0  0
 23 22  2  0  0  0  0
 24 25  1  0  0  0  0
 25 26  1  0  0  0  0
 27 25  1  0  0  0  0
 28 25  1  0  0  0  0
M  END
>  <minimizedAffinity>
-6.58395338

>  <minimizedRMSD>
4.76469755

$$$$
