
 OpenBabel03252512013D

 21 22  0  0  0  0  0  0  0  0999 V2000
   38.2500   32.7200   48.4700 C   0  0  0  0  0  0  0  0  0  0  0  0
   37.1500   32.6810   48.2420 H   0  0  0  0  0  0  0  0  0  0  0  0
   38.5620   33.7560   48.7150 H   0  0  0  0  0  0  0  0  0  0  0  0
   39.8720   33.1240   46.6550 C   0  0  0  0  0  0  0  0  0  0  0  0
   38.9620   32.2470   47.3080 C   0  0  0  0  0  0  0  0  0  0  0  0
   38.8360   30.9780   46.7490 C   0  0  0  0  0  0  0  0  0  0  0  0
   39.5610   30.6650   45.6570 N   0  0  0  0  0  0  0  0  0  0  0  0
   40.4090   31.5090   45.0630 C   0  0  0  0  0  0  0  0  0  0  0  0
   40.5650   32.7560   45.5720 N   0  0  0  0  0  0  0  0  0  0  0  0
   40.0610   34.1350   46.9890 H   0  0  0  0  0  0  0  0  0  0  0  0
   38.1640   30.2600   47.1870 H   0  0  0  0  0  0  0  0  0  0  0  0
   40.9070   31.0920   44.1980 H   0  0  0  0  0  0  0  0  0  0  0  0
   38.5020   31.7590   49.5970 C   0  0  0  0  0  0  0  0  0  0  0  0
   38.8800   32.3300   50.4630 H   0  0  0  0  0  0  0  0  0  0  0  0
   39.3210   31.0340   49.3010 H   0  0  0  0  0  0  0  0  0  0  0  0
   37.2620   30.9900   49.9060 C   0  0  0  0  0  0  0  0  0  0  0  0
   37.2720   29.9960   51.0300 C   0  0  0  0  0  0  0  0  0  0  0  0
   35.5530   29.3460   50.9910 S   0  0  0  0  0  0  0  0  0  0  0  0
   35.1200   30.4610   49.5390 C   0  0  0  0  0  0  0  0  0  0  0  0
   34.1140   30.4060   49.1500 H   0  0  0  0  0  0  0  0  0  0  0  0
   36.0730   31.0390   49.3170 N   0  0  0  0  0  0  0  0  0  0  0  0
  1  3  1  0  0  0  0
  1 13  1  0  0  0  0
  2  1  1  0  0  0  0
  4 10  1  0  0  0  0
  4  5  1  0  0  0  0
  5  1  1  0  0  0  0
  6 11  1  0  0  0  0
  6  5  2  0  0  0  0
  7  6  1  0  0  0  0
  8  9  1  0  0  0  0
  8  7  2  0  0  0  0
  9  4  2  0  0  0  0
 12  8  1  0  0  0  0
 13 16  1  0  0  0  0
 13 14  1  0  0  0  0
 15 13  1  0  0  0  0
 16 17  2  0  0  0  0
 18 17  1  0  0  0  0
 19 18  1  0  0  0  0
 20 19  1  0  0  0  0
 21 19  2  0  0  0  0
 21 16  1  0  0  0  0
M  END
>  <minimizedAffinity>
-4.3879056

>  <minimizedRMSD>
5.04674387

$$$$
