
 OpenBabel03252513013D

 21 22  0  0  0  0  0  0  0  0999 V2000
   36.8390   30.9530   47.5770 C   0  0  0  0  0  0  0  0  0  0  0  0
   36.3730   31.9210   47.4190 H   0  0  0  0  0  0  0  0  0  0  0  0
   36.5880   30.2320   46.7460 H   0  0  0  0  0  0  0  0  0  0  0  0
   36.4940   29.2210   50.9420 C   0  0  0  0  0  0  0  0  0  0  0  0
   37.0990   29.7950   49.8250 C   0  0  0  0  0  0  0  0  0  0  0  0
   36.3250   30.3220   48.8070 C   0  0  0  0  0  0  0  0  0  0  0  0
   34.9780   30.2410   48.9720 N   0  0  0  0  0  0  0  0  0  0  0  0
   34.3950   29.6910   50.0440 C   0  0  0  0  0  0  0  0  0  0  0  0
   35.1550   29.1820   51.0290 N   0  0  0  0  0  0  0  0  0  0  0  0
   37.1290   28.8230   51.7110 H   0  0  0  0  0  0  0  0  0  0  0  0
   38.1800   29.8520   49.7050 H   0  0  0  0  0  0  0  0  0  0  0  0
   33.3090   29.6970   50.0410 H   0  0  0  0  0  0  0  0  0  0  0  0
   38.3600   31.0280   47.5910 C   0  0  0  0  0  0  0  0  0  0  0  0
   38.6580   30.8830   46.5180 H   0  0  0  0  0  0  0  0  0  0  0  0
   38.7880   30.1580   48.1270 H   0  0  0  0  0  0  0  0  0  0  0  0
   38.8710   32.3260   48.0280 C   0  0  0  0  0  0  0  0  0  0  0  0
   38.6990   32.9860   49.2310 C   0  0  0  0  0  0  0  0  0  0  0  0
   39.3580   34.1860   49.2080 C   0  0  0  0  0  0  0  0  0  0  0  0
   39.9300   34.2190   47.9490 C   0  0  0  0  0  0  0  0  0  0  0  0
   40.5390   35.0140   47.5400 H   0  0  0  0  0  0  0  0  0  0  0  0
   39.6250   33.1360   47.3070 O   0  0  0  0  0  0  0  0  0  0  0  0
  1 13  1  0  0  0  0
  1  6  1  0  0  0  0
  2  1  1  0  0  0  0
  3  1  1  0  0  0  0
  4  9  1  0  0  0  0
  4 10  1  0  0  0  0
  5  4  2  0  0  0  0
  6  7  2  0  0  0  0
  6  5  1  0  0  0  0
  7  8  1  0  0  0  0
  8  9  2  0  0  0  0
 11  5  1  0  0  0  0
 12  8  1  0  0  0  0
 13 16  1  0  0  0  0
 13 15  1  0  0  0  0
 14 13  1  0  0  0  0
 16 17  2  0  0  0  0
 18 17  1  0  0  0  0
 19 18  2  0  0  0  0
 20 19  1  0  0  0  0
 21 19  1  0  0  0  0
 21 16  1  0  0  0  0
M  END
>  <minimizedAffinity>
-4.46330023

>  <minimizedRMSD>
2.08316493

$$$$
