
 OpenBabel03252514083D

 40 43  0  0  0  0  0  0  0  0999 V2000
   34.2560   30.0650   47.5840 C   0  0  0  0  0  0  0  0  0  0  0  0
   35.2720   29.8110   48.5400 C   0  0  0  0  0  0  0  0  0  0  0  0
   35.2060   28.5930   49.1870 C   0  0  0  0  0  0  0  0  0  0  0  0
   34.2100   27.7230   48.8920 N   0  0  0  0  0  0  0  0  0  0  0  0
   33.2560   27.9950   47.9760 C   0  0  0  0  0  0  0  0  0  0  0  0
   33.2920   29.1600   47.3350 N   0  0  0  0  0  0  0  0  0  0  0  0
   34.2630   31.0100   47.0470 H   0  0  0  0  0  0  0  0  0  0  0  0
   35.9680   28.4030   49.9030 H   0  0  0  0  0  0  0  0  0  0  0  0
   36.2450   30.8280   48.7330 N   0  0  0  0  0  0  0  0  0  0  0  0
   36.3610   31.5310   49.9000 C   0  0  0  0  0  0  0  0  0  0  0  0
   37.3700   32.4210   49.7550 N   0  0  0  0  0  0  0  0  0  0  0  0
   37.8610   32.2560   48.5150 C   0  0  0  0  0  0  0  0  0  0  0  0
   38.8800   32.8580   47.7910 C   0  0  0  0  0  0  0  0  0  0  0  0
   39.1670   32.4970   46.5450 N   0  0  0  0  0  0  0  0  0  0  0  0
   38.4730   31.5090   45.9070 C   0  0  0  0  0  0  0  0  0  0  0  0
   37.4870   30.9290   46.6080 N   0  0  0  0  0  0  0  0  0  0  0  0
   37.1590   31.2580   47.8660 C   0  0  0  0  0  0  0  0  0  0  0  0
   35.7440   31.3940   50.7820 H   0  0  0  0  0  0  0  0  0  0  0  0
   38.7340   31.2510   44.9110 H   0  0  0  0  0  0  0  0  0  0  0  0
   39.6270   33.8850   48.3870 N   0  0  0  0  0  0  0  0  0  0  0  0
   40.6650   33.9570   48.3700 H   0  0  0  0  0  0  0  0  0  0  0  0
   39.1200   34.6430   48.8930 H   0  0  0  0  0  0  0  0  0  0  0  0
   32.1740   27.0390   47.6620 C   0  0  0  0  0  0  0  0  0  0  0  0
   31.0720   27.1350   48.7030 C   0  0  0  0  0  0  0  0  0  0  0  0
   31.3250   26.5960   49.6500 H   0  0  0  0  0  0  0  0  0  0  0  0
   30.9270   28.2320   48.9200 H   0  0  0  0  0  0  0  0  0  0  0  0
   30.1460   26.6770   48.2980 H   0  0  0  0  0  0  0  0  0  0  0  0
   31.5090   27.4030   46.3310 C   0  0  0  0  0  0  0  0  0  0  0  0
   32.2900   27.7000   45.6170 H   0  0  0  0  0  0  0  0  0  0  0  0
   30.9970   26.5050   45.9600 H   0  0  0  0  0  0  0  0  0  0  0  0
   30.8170   28.2660   46.4940 H   0  0  0  0  0  0  0  0  0  0  0  0
   32.6460   25.6120   47.5300 C   0  0  0  0  0  0  0  0  0  0  0  0
   33.3070   25.4100   48.4050 H   0  0  0  0  0  0  0  0  0  0  0  0
   31.7530   24.9760   47.7120 H   0  0  0  0  0  0  0  0  0  0  0  0
   33.3090   25.3460   46.2480 C   0  0  0  0  0  0  0  0  0  0  0  0
   32.8340   24.3740   45.3590 C   0  0  0  0  0  3  0  0  0  0  0  0
   33.6880   24.3820   44.2510 C   0  0  0  0  0  3  0  0  0  0  0  0
   34.6410   25.3660   44.5300 C   0  0  0  0  0  0  0  0  0  0  0  0
   35.4660   25.6360   43.8670 H   0  0  0  0  0  0  0  0  0  0  0  0
   34.3680   25.8980   45.7140 O   0  0  0  0  0  0  0  0  0  0  0  0
  1  2  1  0  0  0  0
  2  9  1  0  0  0  0
  2  3  2  0  0  0  0
  3  8  1  0  0  0  0
  4  3  1  0  0  0  0
  5  4  2  0  0  0  0
  6  1  2  0  0  0  0
  6  5  1  0  0  0  0
  7  1  1  0  0  0  0
  9 10  1  0  0  0  0
 10 18  1  0  0  0  0
 11 10  2  0  0  0  0
 12 11  1  0  0  0  0
 13 20  1  0  0  0  0
 13 12  2  0  0  0  0
 14 13  1  0  0  0  0
 15 14  2  0  0  0  0
 15 16  1  0  0  0  0
 16 17  2  0  0  0  0
 17 12  1  0  0  0  0
 17  9  1  0  0  0  0
 19 15  1  0  0  0  0
 20 22  1  0  0  0  0
 21 20  1  0  0  0  0
 23  5  1  0  0  0  0
 23 24  1  0  0  0  0
 24 26  1  0  0  0  0
 24 25  1  0  0  0  0
 27 24  1  0  0  0  0
 28 31  1  0  0  0  0
 28 23  1  0  0  0  0
 29 28  1  0  0  0  0
 30 28  1  0  0  0  0
 32 23  1  0  0  0  0
 32 34  1  0  0  0  0
 32 33  1  0  0  0  0
 35 32  1  0  0  0  0
 36 35  2  0  0  0  0
 37 38  2  0  0  0  0
 37 36  1  0  0  0  0
 38 40  1  0  0  0  0
 39 38  1  0  0  0  0
 40 35  1  0  0  0  0
M  END
>  <minimizedAffinity>
-5.25715542

>  <minimizedRMSD>
0.809856117

$$$$
