
 OpenBabel03252512263D

 31 33  0  0  1  0  0  0  0  0999 V2000
   35.1910   29.4690   48.6070 C   0  0  0  0  0  0  0  0  0  0  0  0
   34.7770   28.3020   49.2670 C   0  0  0  0  0  0  0  0  0  0  0  0
   33.6940   27.6680   48.7860 C   0  0  0  0  0  0  0  0  0  0  0  0
   33.0700   28.1710   47.7220 C   0  0  0  0  0  0  0  0  0  0  0  0
   34.0020   29.6630   47.2750 S   0  0  0  0  0  0  0  0  0  0  0  0
   35.3630   27.9690   50.1410 H   0  0  0  0  0  0  0  0  0  0  0  0
   33.2960   26.7590   49.2230 H   0  0  0  0  0  0  0  0  0  0  0  0
   38.0370   30.8900   50.5000 C   0  0  0  0  0  0  0  0  0  0  0  0
   38.5310   31.8480   49.5880 C   0  0  0  0  0  0  0  0  0  0  0  0
   37.8910   32.0020   48.3500 C   0  0  0  0  0  0  0  0  0  0  0  0
   36.8130   31.2030   48.0930 N   0  0  0  0  0  0  0  0  0  0  0  0
   36.3690   30.3100   48.9700 C   0  0  0  0  0  0  0  0  0  0  0  0
   36.9590   30.1390   50.1650 N   0  0  0  0  0  0  0  0  0  0  0  0
   38.5160   30.7590   51.4560 H   0  0  0  0  0  0  0  0  0  0  0  0
   39.3890   32.4530   49.8430 H   0  0  0  0  0  0  0  0  0  0  0  0
   38.2420   32.7200   47.6340 H   0  0  0  0  0  0  0  0  0  0  0  0
   31.8790   27.7150   46.9650 C   0  0  2  0  0  0  0  0  0  0  0  0
   32.2640   27.1720   46.0690 H   0  0  0  0  0  0  0  0  0  0  0  0
   31.0390   28.8820   46.6330 C   0  0  0  0  0  0  0  0  0  0  0  0
   31.1940   29.7680   47.2710 H   0  0  0  0  0  0  0  0  0  0  0  0
   29.9500   28.6300   46.6300 H   0  0  0  0  0  0  0  0  0  0  0  0
   31.2540   29.2100   45.5900 H   0  0  0  0  0  0  0  0  0  0  0  0
   31.1650   26.6570   47.7970 C   0  0  0  0  0  0  0  0  0  0  0  0
   30.8140   25.9060   47.0600 H   0  0  0  0  0  0  0  0  0  0  0  0
   31.8490   26.1370   48.4670 H   0  0  0  0  0  0  0  0  0  0  0  0
   29.9730   27.2100   48.4980 C   0  0  0  0  0  0  0  0  0  0  0  0
   30.0130   27.8170   49.7590 C   0  0  0  0  0  0  0  0  0  0  0  0
   28.7420   28.2160   50.1160 C   0  0  0  0  0  0  0  0  0  0  0  0
   27.9880   27.8210   49.0320 C   0  0  0  0  0  0  0  0  0  0  0  0
   26.9230   27.9330   48.8750 H   0  0  0  0  0  0  0  0  0  0  0  0
   28.7190   27.2430   48.1100 O   0  0  0  0  0  0  0  0  0  0  0  0
  1 12  1  0  0  0  0
  1  2  2  0  0  0  0
  2  6  1  0  0  0  0
  3  7  1  0  0  0  0
  3  2  1  0  0  0  0
  4  3  2  0  0  0  0
  5  4  1  0  0  0  0
  5  1  1  0  0  0  0
  8 14  1  0  0  0  0
  9 15  1  0  0  0  0
  9  8  2  0  0  0  0
 10  9  1  0  0  0  0
 11 10  2  0  0  0  0
 11 12  1  0  0  0  0
 12 13  2  0  0  0  0
 13  8  1  0  0  0  0
 16 10  1  0  0  0  0
 17 18  1  6  0  0  0
 17  4  1  0  0  0  0
 17 23  1  0  0  0  0
 19 17  1  0  0  0  0
 19 20  1  0  0  0  0
 21 19  1  0  0  0  0
 22 19  1  0  0  0  0
 23 25  1  0  0  0  0
 23 26  1  0  0  0  0
 24 23  1  0  0  0  0
 26 27  2  0  0  0  0
 27 28  1  0  0  0  0
 29 28  2  0  0  0  0
 30 29  1  0  0  0  0
 31 26  1  0  0  0  0
 31 29  1  0  0  0  0
M  END
>  <minimizedAffinity>
-5.10254431

>  <minimizedRMSD>
0.979146063

$$$$
