
 OpenBabel03252514043D

 34 37  0  0  1  0  0  0  0  0999 V2000
   35.2580   29.2170   48.6340 C   0  0  2  0  0  0  0  0  0  0  0  0
   34.0530   29.3180   49.4500 C   0  0  0  0  0  0  0  0  0  0  0  0
   34.4150   27.9790   49.0850 C   0  0  1  0  0  0  0  0  0  0  0  0
   35.2620   29.4520   47.5590 H   0  0  0  0  0  0  0  0  0  0  0  0
   33.1370   29.8270   49.0480 H   0  0  0  0  0  0  0  0  0  0  0  0
   34.1910   29.5960   50.5330 H   0  0  0  0  0  0  0  0  0  0  0  0
   34.9940   27.2550   49.6570 H   0  0  0  0  0  0  0  0  0  0  0  0
   36.5970   29.2510   49.3920 C   0  0  0  0  0  0  0  0  0  0  0  0
   37.2220   28.3970   49.0110 H   0  0  0  0  0  0  0  0  0  0  0  0
   36.4080   29.0980   50.4710 H   0  0  0  0  0  0  0  0  0  0  0  0
   37.6620   32.7400   49.5620 C   0  0  0  0  0  0  0  0  0  0  0  0
   38.5190   32.8550   48.4470 C   0  0  0  0  0  0  0  0  0  0  0  0
   38.7140   31.7050   47.6490 C   0  0  0  0  0  0  0  0  0  0  0  0
   38.0620   30.5500   48.0010 N   0  0  0  0  0  0  0  0  0  0  0  0
   37.2620   30.5010   49.0690 C   0  0  0  0  0  0  0  0  0  0  0  0
   37.0680   31.6030   49.8450 N   0  0  0  0  0  0  0  0  0  0  0  0
   37.4590   33.5720   50.2250 H   0  0  0  0  0  0  0  0  0  0  0  0
   38.9940   33.8010   48.2410 H   0  0  0  0  0  0  0  0  0  0  0  0
   39.3660   31.7810   46.7960 H   0  0  0  0  0  0  0  0  0  0  0  0
   33.5530   27.3440   48.0100 C   0  0  0  0  0  0  0  0  0  0  0  0
   33.8640   26.1150   47.7670 O   0  0  0  0  0  0  0  0  0  0  0  0
   32.5130   27.9470   47.3140 O   0  0  0  0  0  0  0  0  0  0  0  0
   31.2450   28.0880   47.8110 C   0  0  0  0  0  0  0  0  0  0  0  0
   30.7910   27.6190   49.1430 C   0  0  0  0  0  0  0  0  0  0  0  0
   29.5030   27.8390   49.4830 C   0  0  0  0  0  0  0  0  0  0  0  0
   28.6060   28.4940   48.6140 C   0  0  0  0  0  0  0  0  0  0  0  0
   29.6570   28.8600   47.1240 S   0  0  0  0  0  0  0  0  0  0  0  0
   31.5230   27.1310   49.7530 H   0  0  0  0  0  0  0  0  0  0  0  0
   29.1040   27.5260   50.4330 H   0  0  0  0  0  0  0  0  0  0  0  0
   27.3120   28.8200   48.7280 N   0  0  0  0  0  0  0  0  0  0  0  0
   26.1820   28.0610   48.7490 C   0  0  0  0  0  3  0  0  0  0  0  0
   25.1120   28.8820   48.8860 N   0  0  0  0  0  0  0  0  0  0  0  0
   25.5660   30.1530   48.9500 C   0  0  0  0  0  3  0  0  0  0  0  0
   26.9250   30.0860   48.8500 N   0  0  0  0  0  0  0  0  0  0  0  0
  1  4  1  6  0  0  0
  1  3  1  0  0  0  0
  1  8  1  0  0  0  0
  1  2  1  0  0  0  0
  2  6  1  0  0  0  0
  3  2  1  0  0  0  0
  3  7  1  1  0  0  0
  5  2  1  0  0  0  0
  8 10  1  0  0  0  0
  9  8  1  0  0  0  0
 11 16  1  0  0  0  0
 11 17  1  0  0  0  0
 12 11  2  0  0  0  0
 13 14  2  0  0  0  0
 13 12  1  0  0  0  0
 14 15  1  0  0  0  0
 15  8  1  0  0  0  0
 15 16  2  0  0  0  0
 18 12  1  0  0  0  0
 19 13  1  0  0  0  0
 20  3  1  0  0  0  0
 21 20  2  0  0  0  0
 22 23  1  0  0  0  0
 22 20  1  0  0  0  0
 23 24  2  0  0  0  0
 24 25  1  0  0  0  0
 24 28  1  0  0  0  0
 25 29  1  0  0  0  0
 26 30  1  0  0  0  0
 26 25  2  0  0  0  0
 27 23  1  0  0  0  0
 27 26  1  0  0  0  0
 30 31  1  0  0  0  0
 30 34  1  0  0  0  0
 31 32  2  0  0  0  0
 32 33  1  0  0  0  0
 34 33  2  0  0  0  0
M  END
>  <minimizedAffinity>
-6.1662817

>  <minimizedRMSD>
1.51405299

$$$$
