
 OpenBabel03252513483D

 21 22  0  0  0  0  0  0  0  0999 V2000
   37.3670   30.9810   45.2190 C   0  0  0  0  0  0  0  0  0  0  0  0
   37.0120   30.6820   46.5680 C   0  0  0  0  0  0  0  0  0  0  0  0
   37.7660   31.2670   47.5700 C   0  0  0  0  0  0  0  0  0  0  0  0
   38.7870   32.0850   47.2280 N   0  0  0  0  0  0  0  0  0  0  0  0
   39.0940   32.3450   45.9390 C   0  0  0  0  0  0  0  0  0  0  0  0
   38.3850   31.7940   44.9730 N   0  0  0  0  0  0  0  0  0  0  0  0
   36.1960   30.0300   46.7940 H   0  0  0  0  0  0  0  0  0  0  0  0
   37.4190   30.9740   48.9200 N   0  0  0  0  0  0  0  0  0  0  0  0
   37.0310   31.6220   50.0300 C   0  0  0  0  0  0  0  0  0  0  0  0
   36.8560   30.7300   51.0100 N   0  0  0  0  0  0  0  0  0  0  0  0
   37.1310   29.5100   50.5270 C   0  0  0  0  0  0  0  0  0  0  0  0
   37.4790   29.6710   49.2270 N   0  0  0  0  0  0  0  0  0  0  0  0
   40.2430   33.2610   45.7260 C   0  0  0  0  0  0  0  0  0  0  0  0
   39.9670   34.1440   44.6750 F   0  0  0  0  0  0  0  0  0  0  0  0
   40.4250   34.0430   46.8450 F   0  0  0  0  0  0  0  0  0  0  0  0
   41.4290   32.5720   45.4970 F   0  0  0  0  0  0  0  0  0  0  0  0
   36.6110   30.3920   44.2190 O   0  0  0  0  0  0  0  0  0  0  0  0
   35.4850   30.9650   43.6290 C   0  0  0  0  0  0  0  0  0  0  0  0
   34.3310   30.8000   44.3690 F   0  0  0  0  0  0  0  0  0  0  0  0
   35.6380   32.2770   43.2780 F   0  0  0  0  0  0  0  0  0  0  0  0
   35.2920   30.2360   42.4460 F   0  0  0  0  0  0  0  0  0  0  0  0
  1  2  1  0  0  0  0
  2  7  1  0  0  0  0
  2  3  2  0  0  0  0
  3  8  1  0  0  0  0
  4  3  1  0  0  0  0
  5  4  2  0  0  0  0
  6  1  2  0  0  0  0
  6  5  1  0  0  0  0
  8 12  1  0  0  0  0
  8  9  1  0  0  0  0
  9 10  2  0  0  0  0
 11 10  1  0  0  0  0
 12 11  2  0  0  0  0
 13  5  1  0  0  0  0
 13 15  1  0  0  0  0
 14 13  1  0  0  0  0
 16 13  1  0  0  0  0
 17  1  1  0  0  0  0
 18 17  1  0  0  0  0
 18 19  1  0  0  0  0
 20 18  1  0  0  0  0
 21 18  1  0  0  0  0
M  END
>  <minimizedAffinity>
-5.30591106

>  <minimizedRMSD>
4.58302164

$$$$
