
 OpenBabel03252513483D

 21 22  0  0  0  0  0  0  0  0999 V2000
   36.6320   29.8900   48.5270 C   0  0  0  0  0  0  0  0  0  0  0  0
   37.4670   31.0010   48.8480 C   0  0  0  0  0  0  0  0  0  0  0  0
   37.8010   31.8660   47.8210 C   0  0  0  0  0  0  0  0  0  0  0  0
   37.3250   31.6220   46.5790 N   0  0  0  0  0  0  0  0  0  0  0  0
   36.5350   30.5590   46.3120 C   0  0  0  0  0  0  0  0  0  0  0  0
   36.2100   29.7250   47.2810 N   0  0  0  0  0  0  0  0  0  0  0  0
   37.8220   31.1570   49.8440 H   0  0  0  0  0  0  0  0  0  0  0  0
   38.6350   32.9780   48.1330 N   0  0  0  0  0  0  0  0  0  0  0  0
   38.6220   34.0620   48.9250 C   0  0  0  0  0  3  0  0  0  0  0  0
   39.7600   34.7390   48.7450 N   0  0  0  0  0  0  0  0  0  0  0  0
   40.5020   34.0890   47.8380 C   0  0  0  0  0  3  0  0  0  0  0  0
   39.7940   32.9950   47.4640 N   0  0  0  0  0  0  0  0  0  0  0  0
   36.0950   30.4270   44.9010 C   0  0  0  0  0  0  0  0  0  0  0  0
   34.6990   30.3310   44.8380 F   0  0  0  0  0  0  0  0  0  0  0  0
   36.4310   31.5650   44.2020 F   0  0  0  0  0  0  0  0  0  0  0  0
   36.6950   29.3470   44.2610 F   0  0  0  0  0  0  0  0  0  0  0  0
   36.3020   29.0270   49.5580 O   0  0  0  0  0  0  0  0  0  0  0  0
   35.1270   29.0920   50.3070 C   0  0  0  0  0  0  0  0  0  0  0  0
   35.3360   28.9850   51.6680 F   0  0  0  0  0  0  0  0  0  0  0  0
   34.3410   30.1750   50.0320 F   0  0  0  0  0  0  0  0  0  0  0  0
   34.4050   27.9470   49.9380 F   0  0  0  0  0  0  0  0  0  0  0  0
  1  2  1  0  0  0  0
  1 17  1  0  0  0  0
  2  7  1  0  0  0  0
  3  8  1  0  0  0  0
  3  2  2  0  0  0  0
  4  3  1  0  0  0  0
  5  4  2  0  0  0  0
  5  6  1  0  0  0  0
  6  1  2  0  0  0  0
  8  9  1  0  0  0  0
 10  9  2  0  0  0  0
 11 10  1  0  0  0  0
 12 11  2  0  0  0  0
 12  8  1  0  0  0  0
 13  5  1  0  0  0  0
 14 13  1  0  0  0  0
 15 13  1  0  0  0  0
 16 13  1  0  0  0  0
 17 18  1  0  0  0  0
 18 19  1  0  0  0  0
 20 18  1  0  0  0  0
 21 18  1  0  0  0  0
M  END
>  <minimizedAffinity>
-3.96738911

>  <minimizedRMSD>
2.51093125

$$$$
