
 OpenBabel03252511353D

 27 29  0  0  0  0  0  0  0  0999 V2000
   36.6470   30.6750   46.4880 C   0  0  0  0  0  0  0  0  0  0  0  0
   35.3890   30.1150   46.3670 C   0  0  0  0  0  0  0  0  0  0  0  0
   34.8010   29.7930   45.1700 C   0  0  0  0  0  0  0  0  0  0  0  0
   35.4990   30.0370   44.0060 C   0  0  0  0  0  0  0  0  0  0  0  0
   36.7720   30.6010   44.0920 C   0  0  0  0  0  0  0  0  0  0  0  0
   37.3310   30.9140   45.3260 C   0  0  0  0  0  0  0  0  0  0  0  0
   34.8400   29.9240   47.2800 H   0  0  0  0  0  0  0  0  0  0  0  0
   33.8090   29.3570   45.1600 H   0  0  0  0  0  0  0  0  0  0  0  0
   35.0240   29.7780   43.0790 H   0  0  0  0  0  0  0  0  0  0  0  0
   37.2910   30.7790   43.1580 H   0  0  0  0  0  0  0  0  0  0  0  0
   37.4540   30.4010   50.0400 C   0  0  0  0  0  0  0  0  0  0  0  0
   38.1900   31.5630   50.2890 C   0  0  0  0  0  0  0  0  0  0  0  0
   38.4090   32.4420   49.2250 C   0  0  0  0  0  0  0  0  0  0  0  0
   37.8980   32.1260   48.0130 N   0  0  0  0  0  0  0  0  0  0  0  0
   37.1820   30.9810   47.8080 C   0  0  0  0  0  0  0  0  0  0  0  0
   36.9730   30.1380   48.8270 N   0  0  0  0  0  0  0  0  0  0  0  0
   38.5690   31.7550   51.2730 H   0  0  0  0  0  0  0  0  0  0  0  0
   38.9760   33.3480   49.3910 H   0  0  0  0  0  0  0  0  0  0  0  0
   37.2240   29.4590   51.1940 C   0  0  0  0  0  0  0  0  0  0  0  0
   35.8750   29.2090   51.3210 F   0  0  0  0  0  0  0  0  0  0  0  0
   37.9500   28.3210   50.9520 F   0  0  0  0  0  0  0  0  0  0  0  0
   37.6660   30.0930   52.3500 F   0  0  0  0  0  0  0  0  0  0  0  0
   38.6310   31.4880   45.3910 N   0  0  0  0  0  0  0  0  0  0  0  0
   39.6680   30.6240   45.4910 C   0  0  0  0  0  0  0  0  0  0  0  0
   40.8610   31.2860   45.5460 N   0  0  0  0  0  0  0  0  0  0  0  0
   40.5080   32.6030   45.4750 C   0  0  0  0  0  0  0  0  0  0  0  0
   39.1550   32.7160   45.3810 N   0  0  0  0  0  0  0  0  0  0  0  0
  1 15  1  0  0  0  0
  2  1  1  0  0  0  0
  2  7  1  0  0  0  0
  3  2  2  0  0  0  0
  4  5  2  0  0  0  0
  4  3  1  0  0  0  0
  5  6  1  0  0  0  0
  6 23  1  0  0  0  0
  6  1  2  0  0  0  0
  8  3  1  0  0  0  0
  9  4  1  0  0  0  0
 10  5  1  0  0  0  0
 11 12  1  0  0  0  0
 11 19  1  0  0  0  0
 12 17  1  0  0  0  0
 13 18  1  0  0  0  0
 13 12  2  0  0  0  0
 14 13  1  0  0  0  0
 15 14  2  0  0  0  0
 15 16  1  0  0  0  0
 16 11  2  0  0  0  0
 19 20  1  0  0  0  0
 19 22  1  0  0  0  0
 21 19  1  0  0  0  0
 23 24  1  0  0  0  0
 24 25  2  0  0  0  0
 26 25  1  0  0  0  0
 27 23  1  0  0  0  0
 27 26  2  0  0  0  0
M  END
>  <minimizedAffinity>
-6.4458065

>  <minimizedRMSD>
0.401271015

$$$$
