
 OpenBabel03252514083D

 40 43  0  0  0  0  0  0  0  0999 V2000
   34.5300   30.0770   47.4950 C   0  0  0  0  0  0  0  0  0  0  0  0
   35.4770   29.9060   48.5380 C   0  0  0  0  0  0  0  0  0  0  0  0
   35.4040   28.7160   49.2320 C   0  0  0  0  0  0  0  0  0  0  0  0
   34.4670   27.7940   48.9020 N   0  0  0  0  0  0  0  0  0  0  0  0
   33.5790   27.9890   47.9030 C   0  0  0  0  0  0  0  0  0  0  0  0
   33.6230   29.1250   47.2150 N   0  0  0  0  0  0  0  0  0  0  0  0
   34.5450   30.9980   46.9170 H   0  0  0  0  0  0  0  0  0  0  0  0
   36.1140   28.5870   50.0140 H   0  0  0  0  0  0  0  0  0  0  0  0
   36.3930   30.9690   48.7580 N   0  0  0  0  0  0  0  0  0  0  0  0
   36.3760   31.7400   49.8860 C   0  0  0  0  0  0  0  0  0  0  0  0
   37.3650   32.6580   49.7820 N   0  0  0  0  0  0  0  0  0  0  0  0
   37.9750   32.4430   48.6040 C   0  0  0  0  0  0  0  0  0  0  0  0
   39.0370   33.0410   47.9420 C   0  0  0  0  0  0  0  0  0  0  0  0
   39.4520   32.6210   46.7510 N   0  0  0  0  0  0  0  0  0  0  0  0
   38.8530   31.5740   46.1120 C   0  0  0  0  0  0  0  0  0  0  0  0
   37.8260   30.9960   46.7530 N   0  0  0  0  0  0  0  0  0  0  0  0
   37.3710   31.3840   47.9540 C   0  0  0  0  0  0  0  0  0  0  0  0
   35.6840   31.6300   50.7150 H   0  0  0  0  0  0  0  0  0  0  0  0
   39.2150   31.2690   45.1620 H   0  0  0  0  0  0  0  0  0  0  0  0
   39.6920   34.1280   48.5420 N   0  0  0  0  0  0  0  0  0  0  0  0
   40.7230   34.2380   48.6160 H   0  0  0  0  0  0  0  0  0  0  0  0
   39.1150   34.8930   48.9530 H   0  0  0  0  0  0  0  0  0  0  0  0
   32.5610   26.9770   47.5520 C   0  0  0  0  0  0  0  0  0  0  0  0
   31.4240   27.0060   48.5590 C   0  0  0  0  0  0  0  0  0  0  0  0
   31.6760   26.4750   49.5100 H   0  0  0  0  0  0  0  0  0  0  0  0
   31.2120   28.0920   48.7770 H   0  0  0  0  0  0  0  0  0  0  0  0
   30.5370   26.5010   48.1220 H   0  0  0  0  0  0  0  0  0  0  0  0
   31.9180   27.3130   46.2030 C   0  0  0  0  0  0  0  0  0  0  0  0
   32.7030   27.6570   45.5150 H   0  0  0  0  0  0  0  0  0  0  0  0
   31.4680   26.3910   45.8120 H   0  0  0  0  0  0  0  0  0  0  0  0
   31.1750   28.1360   46.3490 H   0  0  0  0  0  0  0  0  0  0  0  0
   33.1140   25.5780   47.4270 C   0  0  0  0  0  0  0  0  0  0  0  0
   33.6790   25.3720   48.3660 H   0  0  0  0  0  0  0  0  0  0  0  0
   32.2370   24.8970   47.4820 H   0  0  0  0  0  0  0  0  0  0  0  0
   33.9320   25.3930   46.2230 C   0  0  0  0  0  0  0  0  0  0  0  0
   34.7990   24.3040   46.0800 C   0  0  0  0  0  3  0  0  0  0  0  0
   35.4160   24.4330   44.8320 C   0  0  0  0  0  3  0  0  0  0  0  0
   34.8850   25.6020   44.2800 C   0  0  0  0  0  0  0  0  0  0  0  0
   35.1520   26.0030   43.3000 H   0  0  0  0  0  0  0  0  0  0  0  0
   34.0210   26.1220   45.1410 O   0  0  0  0  0  0  0  0  0  0  0  0
  1  2  1  0  0  0  0
  2  9  1  0  0  0  0
  2  3  2  0  0  0  0
  3  8  1  0  0  0  0
  4  3  1  0  0  0  0
  5  4  2  0  0  0  0
  6  1  2  0  0  0  0
  6  5  1  0  0  0  0
  7  1  1  0  0  0  0
  9 10  1  0  0  0  0
 10 18  1  0  0  0  0
 11 10  2  0  0  0  0
 12 11  1  0  0  0  0
 13 20  1  0  0  0  0
 13 12  2  0  0  0  0
 14 13  1  0  0  0  0
 15 14  2  0  0  0  0
 15 16  1  0  0  0  0
 16 17  2  0  0  0  0
 17 12  1  0  0  0  0
 17  9  1  0  0  0  0
 19 15  1  0  0  0  0
 20 21  1  0  0  0  0
 20 22  1  0  0  0  0
 23  5  1  0  0  0  0
 23 24  1  0  0  0  0
 24 26  1  0  0  0  0
 24 25  1  0  0  0  0
 27 24  1  0  0  0  0
 28 31  1  0  0  0  0
 28 23  1  0  0  0  0
 29 28  1  0  0  0  0
 30 28  1  0  0  0  0
 32 34  1  0  0  0  0
 32 23  1  0  0  0  0
 32 33  1  0  0  0  0
 35 32  1  0  0  0  0
 36 35  2  0  0  0  0
 37 36  1  0  0  0  0
 38 37  2  0  0  0  0
 38 40  1  0  0  0  0
 39 38  1  0  0  0  0
 40 35  1  0  0  0  0
M  END
>  <minimizedAffinity>
-5.64017105

>  <minimizedRMSD>
0.404969364

$$$$
