
 OpenBabel03252512103D

 28 31  0  0  0  0  0  0  0  0999 V2000
   35.6590   30.0320   47.8460 C   0  0  0  0  0  0  0  0  0  0  0  0
   36.6330   30.6840   47.1160 C   0  0  0  0  0  0  0  0  0  0  0  0
   37.6670   31.0340   47.8960 N   0  0  0  0  0  0  0  0  0  0  0  0
   37.3800   30.6130   49.1520 C   0  0  0  0  0  0  0  0  0  0  0  0
   38.0930   30.7090   50.3490 C   0  0  0  0  0  0  0  0  0  0  0  0
   37.5290   30.1710   51.4990 C   0  0  0  0  0  0  0  0  0  0  0  0
   36.3010   29.5640   51.4440 C   0  0  0  0  0  0  0  0  0  0  0  0
   35.5590   29.4490   50.2670 C   0  0  0  0  0  0  0  0  0  0  0  0
   36.1460   29.9950   49.1360 C   0  0  0  0  0  0  0  0  0  0  0  0
   36.6070   30.9080   46.0390 H   0  0  0  0  0  0  0  0  0  0  0  0
   38.5330   31.5360   47.5920 H   0  0  0  0  0  0  0  0  0  0  0  0
   39.0540   31.1940   50.3400 H   0  0  0  0  0  0  0  0  0  0  0  0
   38.0810   30.2420   52.4370 H   0  0  0  0  0  0  0  0  0  0  0  0
   35.8970   29.1590   52.3560 H   0  0  0  0  0  0  0  0  0  0  0  0
   34.5850   28.9620   50.2490 H   0  0  0  0  0  0  0  0  0  0  0  0
   32.3860   29.8250   46.1630 C   0  0  0  0  0  0  0  0  0  0  0  0
   32.1050   28.4650   46.2860 C   0  0  0  0  0  0  0  0  0  0  0  0
   33.0320   27.6370   46.9400 C   0  0  0  0  0  0  0  0  0  0  0  0
   34.1790   28.2080   47.4300 N   0  0  0  0  0  0  0  0  0  0  0  0
   34.4200   29.5290   47.2930 C   0  0  0  0  0  0  0  0  0  0  0  0
   33.5350   30.3290   46.6680 N   0  0  0  0  0  0  0  0  0  0  0  0
   31.7270   30.5310   45.6770 H   0  0  0  0  0  0  0  0  0  0  0  0
   31.1720   28.0800   45.8720 H   0  0  0  0  0  0  0  0  0  0  0  0
   32.7600   26.2450   47.0740 N   0  0  0  0  0  0  0  0  0  0  0  0
   31.6560   25.4810   47.1040 C   0  0  0  0  0  0  0  0  0  0  0  0
   32.0550   24.1880   47.2580 N   0  0  0  0  0  0  0  0  0  0  0  0
   33.4160   24.1980   47.3190 C   0  0  0  0  0  0  0  0  0  0  0  0
   33.8580   25.4840   47.2040 N   0  0  0  0  0  0  0  0  0  0  0  0
  1  9  1  0  0  0  0
  2  1  2  0  0  0  0
  2  3  1  0  0  0  0
  3  4  1  0  0  0  0
  4  5  1  0  0  0  0
  5  6  2  0  0  0  0
  6 13  1  0  0  0  0
  7  6  1  0  0  0  0
  7 14  1  0  0  0  0
  8  7  2  0  0  0  0
  9  4  2  0  0  0  0
  9  8  1  0  0  0  0
 10  2  1  0  0  0  0
 11  3  1  0  0  0  0
 12  5  1  0  0  0  0
 15  8  1  0  0  0  0
 16 17  2  0  0  0  0
 16 21  1  0  0  0  0
 17 18  1  0  0  0  0
 18 24  1  0  0  0  0
 18 19  2  0  0  0  0
 20 19  1  0  0  0  0
 20  1  1  0  0  0  0
 21 20  2  0  0  0  0
 22 16  1  0  0  0  0
 23 17  1  0  0  0  0
 24 25  1  0  0  0  0
 24 28  1  0  0  0  0
 25 26  2  0  0  0  0
 26 27  1  0  0  0  0
 28 27  2  0  0  0  0
M  END
>  <minimizedAffinity>
-5.66821861

>  <minimizedRMSD>
0.374738067

$$$$
