
 OpenBabel03252513313D

 44 47  0  0  0  0  0  0  0  0999 V2000
   31.7310   26.1850   47.5700 C   0  0  0  0  0  0  0  0  0  0  0  0
   31.4360   25.1080   46.8160 C   0  0  0  0  0  0  0  0  0  0  0  0
   32.3820   24.3460   46.1580 C   0  0  0  0  0  0  0  0  0  0  0  0
   33.6970   24.7570   46.3170 C   0  0  0  0  0  0  0  0  0  0  0  0
   34.0170   25.8450   47.0750 C   0  0  0  0  0  0  0  0  0  0  0  0
   33.0460   26.5800   47.7160 C   0  0  0  0  0  0  0  0  0  0  0  0
   30.3970   24.8140   46.7140 H   0  0  0  0  0  0  0  0  0  0  0  0
   32.0650   23.4940   45.5710 H   0  0  0  0  0  0  0  0  0  0  0  0
   34.4710   24.1830   45.8150 H   0  0  0  0  0  0  0  0  0  0  0  0
   35.0560   26.1340   47.1750 H   0  0  0  0  0  0  0  0  0  0  0  0
   29.3960   27.4760   50.1100 C   0  0  0  0  0  0  0  0  0  0  0  0
   28.7070   28.4920   49.3970 C   0  0  0  0  0  0  0  0  0  0  0  0
   29.0730   28.6970   48.0620 C   0  0  0  0  0  0  0  0  0  0  0  0
   30.0660   27.9150   47.5170 N   0  0  0  0  0  0  0  0  0  0  0  0
   30.6910   26.9590   48.2470 C   0  0  0  0  0  0  0  0  0  0  0  0
   30.3460   26.7610   49.5140 N   0  0  0  0  0  0  0  0  0  0  0  0
   29.1220   27.3090   51.1420 H   0  0  0  0  0  0  0  0  0  0  0  0
   28.6090   29.4410   47.4420 H   0  0  0  0  0  0  0  0  0  0  0  0
   27.6400   29.3190   50.0060 C   0  0  0  0  0  0  0  0  0  0  0  0
   28.0590   30.5710   50.3660 F   0  0  0  0  0  0  0  0  0  0  0  0
   27.1130   28.7140   51.1380 F   0  0  0  0  0  0  0  0  0  0  0  0
   26.5930   29.4810   49.0830 F   0  0  0  0  0  0  0  0  0  0  0  0
   33.3490   27.7620   48.5450 C   0  0  0  0  0  0  0  0  0  0  0  0
   32.4440   28.0310   49.1510 H   0  0  0  0  0  0  0  0  0  0  0  0
   34.0890   27.4290   49.2980 H   0  0  0  0  0  0  0  0  0  0  0  0
   33.7130   28.9830   47.7790 C   0  0  0  0  0  0  0  0  0  0  0  0
   33.6930   28.7850   46.6830 H   0  0  0  0  0  0  0  0  0  0  0  0
   32.9600   29.8140   47.9100 H   0  0  0  0  0  0  0  0  0  0  0  0
   34.9870   29.5250   48.2500 C   0  0  0  0  0  0  0  0  0  0  0  0
   35.7320   28.9490   49.2640 C   0  0  0  0  0  0  0  0  0  0  0  0
   36.8720   29.6940   49.4760 C   0  0  0  0  0  0  0  0  0  0  0  0
   36.7800   30.7210   48.5640 N   0  0  0  0  0  0  0  0  0  0  0  0
   35.6730   30.6160   47.8490 N   0  0  0  0  0  0  0  0  0  0  0  0
   35.6290   28.0810   49.9010 H   0  0  0  0  0  0  0  0  0  0  0  0
   37.7160   29.5980   50.1650 H   0  0  0  0  0  0  0  0  0  0  0  0
   37.7630   31.7630   48.4180 C   0  0  0  0  0  0  0  0  0  0  0  0
   38.4720   31.8180   47.2140 C   0  0  0  0  0  0  0  0  0  0  0  0
   38.3170   31.1280   46.4030 H   0  0  0  0  0  0  0  0  0  0  0  0
   39.4340   32.8150   47.0340 C   0  0  0  0  0  0  0  0  0  0  0  0
   39.6470   33.7200   48.0790 C   0  0  0  0  0  0  0  0  0  0  0  0
   40.3870   34.5210   47.9970 H   0  0  0  0  0  0  0  0  0  0  0  0
   38.9370   33.6610   49.2820 C   0  0  0  0  0  0  0  0  0  0  0  0
   39.1360   34.3850   50.0650 H   0  0  0  0  0  0  0  0  0  0  0  0
   37.9760   32.6610   49.4510 C   0  0  0  0  0  0  0  0  0  0  0  0
  1  6  1  0  0  0  0
  1 15  1  0  0  0  0
  2  1  2  0  0  0  0
  3  4  2  0  0  0  0
  3  2  1  0  0  0  0
  4  5  1  0  0  0  0
  5 10  1  0  0  0  0
  5  6  2  0  0  0  0
  6 23  1  0  0  0  0
  7  2  1  0  0  0  0
  8  3  1  0  0  0  0
  9  4  1  0  0  0  0
 11 17  1  0  0  0  0
 12 19  1  0  0  0  0
 12 11  2  0  0  0  0
 13 12  1  0  0  0  0
 14 13  2  0  0  0  0
 14 15  1  0  0  0  0
 15 16  2  0  0  0  0
 16 11  1  0  0  0  0
 18 13  1  0  0  0  0
 19 20  1  0  0  0  0
 19 21  1  0  0  0  0
 22 19  1  0  0  0  0
 23 24  1  0  0  0  0
 23 25  1  0  0  0  0
 26 28  1  0  0  0  0
 26 29  1  0  0  0  0
 26 23  1  0  0  0  0
 27 26  1  0  0  0  0
 29 30  1  0  0  0  0
 30 31  2  0  0  0  0
 30 34  1  0  0  0  0
 31 35  1  0  0  0  0
 32 31  1  0  0  0  0
 33 29  2  0  0  0  0
 33 32  1  0  0  0  0
 36 32  1  0  0  0  0
 36 44  1  0  0  0  0
 37 36  2  0  0  0  0
 38 37  1  0  0  0  0
 39 37  1  0  0  0  0
 39 40  2  0  0  0  0
 40 42  1  0  0  0  0
 41 40  1  0  0  0  0
 42 44  2  0  0  0  0
 42 43  1  0  0  0  0
M  END
>  <minimizedAffinity>
-7.2998929

>  <minimizedRMSD>
1.28917074

$$$$
