
 OpenBabel03252512523D

 24 27  0  0  0  0  0  0  0  0999 V2000
   38.2900   31.3630   48.1160 C   0  0  0  0  0  0  0  0  0  0  0  0
   38.9360   32.5530   48.0380 N   0  0  0  0  0  0  0  0  0  0  0  0
   39.3360   32.7600   46.8220 O   0  0  0  0  0  0  0  0  0  0  0  0
   38.9710   31.7340   46.0970 C   0  0  0  0  0  0  0  0  0  0  0  0
   38.3160   30.8440   46.8690 N   0  0  0  0  0  0  0  0  0  0  0  0
   39.2740   31.6780   44.7100 N   0  0  0  0  0  0  0  0  0  0  0  0
   39.5820   32.7730   43.9640 C   0  0  0  0  0  0  0  0  0  0  0  0
   39.8270   32.4400   42.6810 N   0  0  0  0  0  0  0  0  0  0  0  0
   39.6770   31.0970   42.5770 C   0  0  0  0  0  0  0  0  0  0  0  0
   39.7940   30.1950   41.5380 C   0  0  0  0  0  0  0  0  0  0  0  0
   40.0590   30.5500   40.5580 H   0  0  0  0  0  0  0  0  0  0  0  0
   39.5630   28.8910   41.8190 N   0  0  0  0  0  0  0  0  0  0  0  0
   39.2300   28.4450   43.0490 C   0  0  0  0  0  0  0  0  0  0  0  0
   39.1220   29.3520   44.0510 N   0  0  0  0  0  0  0  0  0  0  0  0
   39.3380   30.6630   43.8400 C   0  0  0  0  0  0  0  0  0  0  0  0
   37.3850   30.1740   51.5690 C   0  0  0  0  0  0  0  0  0  0  0  0
   38.0370   30.8670   50.5540 C   0  0  0  0  0  0  0  0  0  0  0  0
   37.6620   30.6780   49.2330 C   0  0  0  0  0  0  0  0  0  0  0  0
   36.6450   29.7980   48.9600 N   0  0  0  0  0  0  0  0  0  0  0  0
   36.0290   29.1350   49.9780 C   0  0  0  0  0  0  0  0  0  0  0  0
   36.3820   29.3110   51.2580 N   0  0  0  0  0  0  0  0  0  0  0  0
   37.7760   30.4160   52.5430 H   0  0  0  0  0  0  0  0  0  0  0  0
   38.8370   31.5670   50.7060 H   0  0  0  0  0  0  0  0  0  0  0  0
   35.2320   28.4370   49.8560 H   0  0  0  0  0  0  0  0  0  0  0  0
  1 18  1  0  0  0  0
  2  1  2  0  0  0  0
  3  2  1  0  0  0  0
  4  3  1  0  0  0  0
  4  5  2  0  0  0  0
  5  1  1  0  0  0  0
  6  4  1  0  0  0  0
  7  6  1  0  0  0  0
  8  7  2  0  0  0  0
  9  8  1  0  0  0  0
  9 15  1  0  0  0  0
 10 12  1  0  0  0  0
 10  9  2  0  0  0  0
 11 10  1  0  0  0  0
 12 13  2  0  0  0  0
 13 14  1  0  0  0  0
 15 14  2  0  0  0  0
 15  6  1  0  0  0  0
 16 22  1  0  0  0  0
 17 23  1  0  0  0  0
 17 16  2  0  0  0  0
 18 17  1  0  0  0  0
 19 18  2  0  0  0  0
 19 20  1  0  0  0  0
 20 21  2  0  0  0  0
 21 16  1  0  0  0  0
 24 20  1  0  0  0  0
M  END
>  <minimizedAffinity>
-6.12637711

>  <minimizedRMSD>
0.733543038

$$$$
