
 OpenBabel03252514013D

 25 27  0  0  1  0  0  0  0  0999 V2000
   35.3710   29.4260   49.0280 C   0  0  2  0  0  0  0  0  0  0  0  0
   34.2400   29.4110   49.9660 C   0  0  0  0  0  0  0  0  0  0  0  0
   34.5890   28.1370   49.3500 C   0  0  1  0  0  0  0  0  0  0  0  0
   35.3190   29.7340   47.9780 H   0  0  0  0  0  0  0  0  0  0  0  0
   34.4610   29.5320   51.0490 H   0  0  0  0  0  0  0  0  0  0  0  0
   33.3160   29.9540   49.6290 H   0  0  0  0  0  0  0  0  0  0  0  0
   35.2610   27.3460   49.7240 H   0  0  0  0  0  0  0  0  0  0  0  0
   36.7820   29.3930   49.6160 C   0  0  0  0  0  0  0  0  0  0  0  0
   36.6760   29.4630   50.7140 H   0  0  0  0  0  0  0  0  0  0  0  0
   37.3090   28.4680   49.3480 H   0  0  0  0  0  0  0  0  0  0  0  0
   38.2230   32.7590   49.4670 C   0  0  0  0  0  0  0  0  0  0  0  0
   38.8320   32.7810   48.2020 C   0  0  0  0  0  0  0  0  0  0  0  0
   38.7400   31.6280   47.4060 C   0  0  0  0  0  0  0  0  0  0  0  0
   38.0610   30.5490   47.9130 N   0  0  0  0  0  0  0  0  0  0  0  0
   37.4970   30.5710   49.1210 C   0  0  0  0  0  0  0  0  0  0  0  0
   37.5860   31.6830   49.8890 N   0  0  0  0  0  0  0  0  0  0  0  0
   38.2920   33.6450   50.0820 H   0  0  0  0  0  0  0  0  0  0  0  0
   39.3580   33.6190   47.8080 H   0  0  0  0  0  0  0  0  0  0  0  0
   39.1920   31.6090   46.4340 H   0  0  0  0  0  0  0  0  0  0  0  0
   33.6220   27.6500   48.3060 C   0  0  0  0  0  0  0  0  0  0  0  0
   33.9850   26.5600   47.7090 O   0  0  0  0  0  0  0  0  0  0  0  0
   32.4210   28.2420   47.9530 O   0  0  0  0  0  0  0  0  0  0  0  0
   31.2450   27.5010   47.8500 C   0  0  0  0  0  3  0  0  0  0  0  0
   30.4890   27.0430   49.0280 C   0  0  0  0  0  2  0  0  0  0  0  0
   29.9020   28.0790   48.0420 C   0  0  0  0  0  2  0  0  0  0  0  0
  1  4  1  6  0  0  0
  1  3  1  0  0  0  0
  1  8  1  0  0  0  0
  1  2  1  0  0  0  0
  2  5  1  0  0  0  0
  3  7  1  1  0  0  0
  3  2  1  0  0  0  0
  6  2  1  0  0  0  0
  8  9  1  0  0  0  0
 10  8  1  0  0  0  0
 11 16  1  0  0  0  0
 11 17  1  0  0  0  0
 12 11  2  0  0  0  0
 13 14  2  0  0  0  0
 13 12  1  0  0  0  0
 14 15  1  0  0  0  0
 15  8  1  0  0  0  0
 15 16  2  0  0  0  0
 18 12  1  0  0  0  0
 19 13  1  0  0  0  0
 20  3  1  0  0  0  0
 21 20  2  0  0  0  0
 22 20  1  0  0  0  0
 23 22  1  0  0  0  0
 23 25  1  0  0  0  0
 23 24  1  0  0  0  0
 25 24  1  0  0  0  0
M  END
>  <minimizedAffinity>
-4.77349949

>  <minimizedRMSD>
0.61896503

$$$$
