
     RDKit          3D

 49 53  0  0  0  0  0  0  0  0999 V2000
   36.4229   30.9652   48.7486 N   0  0  0  0  0  0  0  0  0  0  0  0
   36.3794   31.7383   49.8647 C   0  0  0  0  0  0  0  0  0  0  0  0
   37.3601   32.6747   49.7682 N   0  0  0  0  0  0  0  0  0  0  0  0
   37.9805   32.4632   48.6103 C   0  0  0  0  0  0  0  0  0  0  0  0
   39.0438   33.0789   47.9619 C   0  0  0  0  0  0  0  0  0  0  0  0
   39.4812   32.6576   46.7765 N   0  0  0  0  0  0  0  0  0  0  0  0
   38.9107   31.6043   46.1395 C   0  0  0  0  0  0  0  0  0  0  0  0
   37.8833   31.0069   46.7623 N   0  0  0  0  0  0  0  0  0  0  0  0
   37.4078   31.3871   47.9449 C   0  0  0  0  0  0  0  0  0  0  0  0
   39.6689   34.1849   48.5832 N   0  0  0  0  0  0  0  0  0  0  0  0
   34.6556   29.9882   47.4004 C   0  0  0  0  0  0  0  0  0  0  0  0
   35.5328   29.8837   48.5112 C   0  0  0  0  0  0  0  0  0  0  0  0
   35.4367   28.7241   49.2665 C   0  0  0  0  0  0  0  0  0  0  0  0
   34.5373   27.7755   48.9178 N   0  0  0  0  0  0  0  0  0  0  0  0
   33.7182   27.9073   47.8550 C   0  0  0  0  0  0  0  0  0  0  0  0
   33.7809   29.0058   47.1065 N   0  0  0  0  0  0  0  0  0  0  0  0
   32.7397   26.8474   47.5018 C   0  0  0  0  0  0  0  0  0  0  0  0
   31.5597   26.8805   48.4612 C   0  0  0  0  0  0  0  0  0  0  0  0
   32.1387   27.1318   46.1234 C   0  0  0  0  0  0  0  0  0  0  0  0
   33.3228   25.4747   47.4259 C   0  0  0  0  0  0  0  0  0  0  0  0
   35.7209   31.6927   50.7249 H   0  0  0  0  0  0  0  0  0  0  0  0
   39.3312   31.3267   45.1722 H   0  0  0  0  0  0  0  0  0  0  0  0
   39.1365   35.0214   48.1972 H   0  0  0  0  0  0  0  0  0  0  0  0
   40.4139   33.7383   49.1816 H   0  0  0  0  0  0  0  0  0  0  0  0
   34.7170   30.8924   46.7949 H   0  0  0  0  0  0  0  0  0  0  0  0
   36.1051   28.6471   50.1122 H   0  0  0  0  0  0  0  0  0  0  0  0
   30.7475   26.3149   47.9673 H   0  0  0  0  0  0  0  0  0  0  0  0
   31.8729   26.4941   49.4295 H   0  0  0  0  0  0  0  0  0  0  0  0
   31.1879   27.9209   48.5297 H   0  0  0  0  0  0  0  0  0  0  0  0
   32.7736   27.8889   45.5886 H   0  0  0  0  0  0  0  0  0  0  0  0
   31.1343   27.6002   46.1906 H   0  0  0  0  0  0  0  0  0  0  0  0
   32.0035   26.1986   45.5324 H   0  0  0  0  0  0  0  0  0  0  0  0
   33.6640   25.2525   48.4764 H   0  0  0  0  0  0  0  0  0  0  0  0
   32.5016   24.7873   47.1563 H   0  0  0  0  0  0  0  0  0  0  0  0
   34.3806   25.3323   46.4339 C   0  0  0  0  0  0  0  0  0  0  0  0
   34.8577   24.1068   46.1501 N   0  0  0  0  0  0  0  0  0  0  0  0
   35.8473   23.9781   45.2235 C   0  0  0  0  0  0  0  0  0  0  0  0
   36.3848   25.0303   44.5627 N   0  0  0  0  0  0  0  0  0  0  0  0
   35.9302   26.2719   44.8223 C   0  0  0  0  0  0  0  0  0  0  0  0
   36.4337   27.3869   44.1863 C   0  0  0  0  0  0  0  0  0  0  0  0
   35.9874   28.6755   44.4333 C   0  0  0  0  0  0  0  0  0  0  0  0
   36.3877   29.5215   43.9336 H   0  0  0  0  0  0  0  0  0  0  0  0
   34.9874   28.8057   45.3701 C   0  0  0  0  0  0  0  0  0  0  0  0
   34.5825   29.7937   45.6199 H   0  0  0  0  0  0  0  0  0  0  0  0
   34.4722   27.7013   46.0159 C   0  0  0  0  0  0  0  0  0  0  0  0
   34.9150   26.4187   45.7713 C   0  0  0  0  0  0  0  0  0  0  0  0
   36.2362   22.9734   44.9936 H   0  0  0  0  0  0  0  0  0  0  0  0
   37.2155   27.1833   43.4675 H   0  0  0  0  0  0  0  0  0  0  0  0
   33.6924   27.8673   46.7399 H   0  0  0  0  0  0  0  0  0  0  0  0
  1  2  1  0
  3  2  2  0
  4  3  1  0
  5 10  1  0
  5  4  2  0
  6  5  1  0
  7  8  1  0
  7  6  2  0
  8  9  2  0
  9  4  1  0
  9  1  1  0
 11 12  2  0
 12  1  1  0
 12 13  1  0
 14 13  2  0
 15 14  1  0
 16 11  1  0
 16 15  2  0
 17 15  1  0
 17 18  1  0
 19 17  1  0
 20 17  1  0
  2 21  1  0
  7 22  1  0
 10 23  1  0
 10 24  1  0
 11 25  1  0
 13 26  1  0
 18 27  1  0
 18 28  1  0
 18 29  1  0
 19 30  1  0
 19 31  1  0
 19 32  1  0
 20 33  1  0
 20 34  1  0
 35 36  2  0
 36 37  1  0
 37 38  2  0
 38 39  1  0
 39 40  2  0
 40 41  1  0
 41 42  1  0
 41 43  2  0
 43 44  1  0
 43 45  1  0
 45 46  2  0
 46 35  1  0
 46 39  1  0
 37 47  1  0
 40 48  1  0
 45 49  1  0
 20 35  1  0
M  ISO  8  21  14  22  14  25  14  26  14  27   8  28   8  29   8  30   8
M  ISO  6  31   8  32   8  33   8  34   8  42  16  44  16
M  END
>  <DihAtoms>  (1) 
16,19,34,35

>  <DihDeg>  (1) 
-21.24897960734738

$$$$
