
 OpenBabel03252514043D

 39 43  0  0  1  0  0  0  0  0999 V2000
   33.7570   27.4090   48.0070 C   0  0  0  0  0  0  0  0  0  0  0  0
   34.0640   26.1920   47.7180 O   0  0  0  0  0  0  0  0  0  0  0  0
   35.4070   29.2990   48.7150 C   0  0  2  0  0  0  0  0  0  0  0  0
   34.2040   29.3140   49.5460 C   0  0  0  0  0  0  0  0  0  0  0  0
   34.6050   28.0120   49.1080 C   0  0  1  0  0  0  0  0  0  0  0  0
   35.4630   29.4440   47.6400 H   0  0  0  0  0  0  0  0  0  0  0  0
   34.3240   29.6440   50.6110 H   0  0  0  0  0  0  0  0  0  0  0  0
   33.3030   29.8230   49.1020 H   0  0  0  0  0  0  0  0  0  0  0  0
   35.2080   27.3040   49.6740 H   0  0  0  0  0  0  0  0  0  0  0  0
   36.7480   29.3330   49.4660 C   0  0  0  0  0  0  0  0  0  0  0  0
   37.3030   28.4280   49.1200 H   0  0  0  0  0  0  0  0  0  0  0  0
   36.5750   29.2470   50.5410 H   0  0  0  0  0  0  0  0  0  0  0  0
   38.1660   32.7000   49.4660 C   0  0  0  0  0  0  0  0  0  0  0  0
   38.8110   32.7600   48.2160 C   0  0  0  0  0  0  0  0  0  0  0  0
   38.7470   31.6220   47.3850 C   0  0  0  0  0  0  0  0  0  0  0  0
   38.0610   30.5280   47.8420 N   0  0  0  0  0  0  0  0  0  0  0  0
   37.4650   30.5240   49.0390 C   0  0  0  0  0  0  0  0  0  0  0  0
   37.5200   31.6160   49.8510 N   0  0  0  0  0  0  0  0  0  0  0  0
   38.2750   33.6250   50.0260 H   0  0  0  0  0  0  0  0  0  0  0  0
   39.3700   33.5480   47.7570 H   0  0  0  0  0  0  0  0  0  0  0  0
   39.1910   31.5400   46.4210 H   0  0  0  0  0  0  0  0  0  0  0  0
   32.7270   28.0220   47.3280 O   0  0  0  0  0  0  0  0  0  0  0  0
   31.4390   28.0920   47.7690 C   0  0  0  0  0  0  0  0  0  0  0  0
   30.9730   27.5850   49.0660 C   0  0  0  0  0  0  0  0  0  0  0  0
   29.6730   27.7050   49.4200 C   0  0  0  0  0  0  0  0  0  0  0  0
   28.7590   28.3220   48.5310 C   0  0  0  0  0  0  0  0  0  0  0  0
   29.8310   28.7740   47.0620 S   0  0  0  0  0  0  0  0  0  0  0  0
   31.7170   27.1230   49.6990 H   0  0  0  0  0  0  0  0  0  0  0  0
   29.3010   27.3440   50.3640 H   0  0  0  0  0  0  0  0  0  0  0  0
   27.3640   28.5180   48.7710 N   0  0  0  0  0  0  0  0  0  0  0  0
   26.5610   27.5320   49.1540 C   0  0  0  0  0  3  0  0  0  0  0  0
   25.3510   28.1000   49.2740 N   0  0  0  0  0  0  0  0  0  0  0  0
   25.4300   29.4080   48.9670 C   0  0  0  0  0  0  0  0  0  0  0  0
   24.4420   30.4000   48.9460 C   0  0  0  0  0  0  0  0  0  0  0  0
   23.4020   30.1760   49.2080 H   0  0  0  0  0  0  0  0  0  0  0  0
   24.8310   31.6580   48.5880 N   0  0  0  0  0  0  0  0  0  0  0  0
   26.1150   31.9150   48.2690 C   0  0  0  0  0  3  0  0  0  0  0  0
   27.0610   30.9510   48.2910 N   0  0  0  0  0  0  0  0  0  0  0  0
   26.7480   29.6980   48.6330 C   0  0  0  0  0  0  0  0  0  0  0  0
  1  5  1  0  0  0  0
  2  1  2  0  0  0  0
  3  6  1  6  0  0  0
  3  5  1  0  0  0  0
  3 10  1  0  0  0  0
  3  4  1  0  0  0  0
  4  7  1  0  0  0  0
  5  4  1  0  0  0  0
  5  9  1  1  0  0  0
  8  4  1  0  0  0  0
 10 12  1  0  0  0  0
 11 10  1  0  0  0  0
 13 18  1  0  0  0  0
 13 19  1  0  0  0  0
 14 13  2  0  0  0  0
 15 16  2  0  0  0  0
 15 14  1  0  0  0  0
 16 17  1  0  0  0  0
 17 10  1  0  0  0  0
 17 18  2  0  0  0  0
 20 14  1  0  0  0  0
 21 15  1  0  0  0  0
 22 23  1  0  0  0  0
 22  1  1  0  0  0  0
 23 24  2  0  0  0  0
 24 25  1  0  0  0  0
 24 28  1  0  0  0  0
 25 29  1  0  0  0  0
 26 30  1  0  0  0  0
 26 25  2  0  0  0  0
 27 23  1  0  0  0  0
 27 26  1  0  0  0  0
 30 31  1  0  0  0  0
 31 32  2  0  0  0  0
 33 32  1  0  0  0  0
 34 33  1  0  0  0  0
 34 35  1  0  0  0  0
 36 34  2  0  0  0  0
 37 38  2  0  0  0  0
 37 36  1  0  0  0  0
 38 39  1  0  0  0  0
 39 30  1  0  0  0  0
 39 33  2  0  0  0  0
M  END
>  <minimizedAffinity>
-6.68845415

>  <minimizedRMSD>
1.71287334

$$$$
