REMARK  Name = 
REMARK  7 active torsions:
REMARK  status: ('A' for Active; 'I' for Inactive)
REMARK    1  A    between atoms: N_1  and  C_12
REMARK    2  A    between atoms: C_5  and  N_10
REMARK    3  A    between atoms: C_15  and  C_17
REMARK    4  A    between atoms: C_17  and  C_18
REMARK    5  A    between atoms: C_17  and  C_19
REMARK    6  A    between atoms: C_17  and  C_20
REMARK    7  A    between atoms: C_20  and  C_35
REMARK                            x       y       z     vdW  Elec       q    Type
REMARK                         _______ _______ _______ _____ _____    ______ ____
ROOT
ATOM      1  C   UNL     1      32.740  26.847  47.502  0.00  0.00    +0.000 C 
ENDROOT
BRANCH   1   6
ATOM      2  C   UNL     1      34.656  29.988  47.400  0.00  0.00    +0.000 A 
ATOM      3  C   UNL     1      35.533  29.884  48.511  0.00  0.00    +0.000 A 
ATOM      4  C   UNL     1      35.437  28.724  49.267  0.00  0.00    +0.000 A 
ATOM      5  N   UNL     1      34.537  27.776  48.918  0.00  0.00    +0.000 NA
ATOM      6  C   UNL     1      33.718  27.907  47.855  0.00  0.00    +0.000 A 
ATOM      7  N   UNL     1      33.781  29.006  47.106  0.00  0.00    +0.000 NA
ATOM      8  H   UNL     1      34.717  30.892  46.795  0.00  0.00    +0.000 HD
ATOM      9  H   UNL     1      36.105  28.647  50.112  0.00  0.00    +0.000 HD
BRANCH   3  10
ATOM     10  N   UNL     1      36.423  30.965  48.749  0.00  0.00    +0.000 N 
ATOM     11  C   UNL     1      36.379  31.738  49.865  0.00  0.00    +0.000 A 
ATOM     12  N   UNL     1      37.360  32.675  49.768  0.00  0.00    +0.000 NA
ATOM     13  C   UNL     1      37.980  32.463  48.610  0.00  0.00    +0.000 A 
ATOM     14  C   UNL     1      39.044  33.079  47.962  0.00  0.00    +0.000 A 
ATOM     15  N   UNL     1      39.481  32.658  46.776  0.00  0.00    +0.000 NA
ATOM     16  C   UNL     1      38.911  31.604  46.139  0.00  0.00    +0.000 A 
ATOM     17  N   UNL     1      37.883  31.007  46.762  0.00  0.00    +0.000 NA
ATOM     18  C   UNL     1      37.408  31.387  47.945  0.00  0.00    +0.000 A 
ATOM     19  H   UNL     1      35.721  31.693  50.725  0.00  0.00    +0.000 HD
ATOM     20  H   UNL     1      39.331  31.327  45.172  0.00  0.00    +0.000 HD
BRANCH  14  21
ATOM     21  N   UNL     1      39.669  34.185  48.583  0.00  0.00    +0.000 N 
ATOM     22  H   UNL     1      39.136  35.021  48.197  0.00  0.00    +0.000 HD
ATOM     23  H   UNL     1      40.414  33.738  49.182  0.00  0.00    +0.000 HD
ENDBRANCH  14  21
ENDBRANCH   3  10
ENDBRANCH   1   6
BRANCH   1  24
ATOM     24  C   UNL     1      31.560  26.881  48.461  0.00  0.00    +0.000 C 
ATOM     25  H   UNL     1      30.747  26.315  47.967  0.00  0.00    +0.000 HD
ATOM     26  H   UNL     1      31.873  26.494  49.429  0.00  0.00    +0.000 HD
ATOM     27  H   UNL     1      31.188  27.921  48.530  0.00  0.00    +0.000 HD
ENDBRANCH   1  24
BRANCH   1  28
ATOM     28  C   UNL     1      32.139  27.132  46.123  0.00  0.00    +0.000 C 
ATOM     29  H   UNL     1      32.774  27.889  45.589  0.00  0.00    +0.000 HD
ATOM     30  H   UNL     1      31.134  27.600  46.191  0.00  0.00    +0.000 HD
ATOM     31  H   UNL     1      32.004  26.199  45.532  0.00  0.00    +0.000 HD
ENDBRANCH   1  28
BRANCH   1  32
ATOM     32  C   UNL     1      33.323  25.475  47.426  0.00  0.00    +0.000 C 
ATOM     33  H   UNL     1      33.664  25.253  48.476  0.00  0.00    +0.000 HD
ATOM     34  H   UNL     1      32.502  24.787  47.156  0.00  0.00    +0.000 HD
BRANCH  32  35
ATOM     35  C   UNL     1      34.381  25.332  46.434  0.00  0.00    +0.000 A 
ATOM     36  N   UNL     1      35.264  26.333  46.264  0.00  0.00    +0.000 NA
ATOM     37  C   UNL     1      36.250  26.196  45.334  0.00  0.00    +0.000 A 
ATOM     38  N   UNL     1      36.393  25.094  44.562  0.00  0.00    +0.000 NA
ATOM     39  C   UNL     1      35.526  24.073  44.707  0.00  0.00    +0.000 A 
ATOM     40  C   UNL     1      35.613  22.922  43.952  0.00  0.00    +0.000 A 
ATOM     41  C   UNL     1      34.736  21.856  44.078  0.00  0.00    +0.000 A 
ATOM     42  H   UNL     1      34.819  20.979  43.487  0.00  0.00    +0.000 HD
ATOM     43  C   UNL     1      33.739  21.994  45.016  0.00  0.00    +0.000 A 
ATOM     44  H   UNL     1      33.006  21.194  45.173  0.00  0.00    +0.000 HD
ATOM     45  C   UNL     1      33.636  23.138  45.780  0.00  0.00    +0.000 A 
ATOM     46  C   UNL     1      34.508  24.199  45.656  0.00  0.00    +0.000 A 
ENDBRANCH  32  35
ENDBRANCH   1  32
TORSDOF 7
