
 OpenBabel03252514013D

 25 27  0  0  1  0  0  0  0  0999 V2000
   35.4140   29.3300   48.8130 C   0  0  2  0  0  0  0  0  0  0  0  0
   34.2100   29.4830   49.6420 C   0  0  0  0  0  0  0  0  0  0  0  0
   34.5630   28.1230   49.2520 C   0  0  1  0  0  0  0  0  0  0  0  0
   35.4590   29.4790   47.7280 H   0  0  0  0  0  0  0  0  0  0  0  0
   34.3470   29.7590   50.7110 H   0  0  0  0  0  0  0  0  0  0  0  0
   33.3370   29.9910   49.1500 H   0  0  0  0  0  0  0  0  0  0  0  0
   35.1730   27.3820   49.7950 H   0  0  0  0  0  0  0  0  0  0  0  0
   36.7700   29.3530   49.5190 C   0  0  0  0  0  0  0  0  0  0  0  0
   36.5700   29.4830   50.5980 H   0  0  0  0  0  0  0  0  0  0  0  0
   37.3290   28.4230   49.3490 H   0  0  0  0  0  0  0  0  0  0  0  0
   38.3540   32.6560   49.3880 C   0  0  0  0  0  0  0  0  0  0  0  0
   38.8960   32.6900   48.0930 C   0  0  0  0  0  0  0  0  0  0  0  0
   38.7110   31.5660   47.2710 C   0  0  0  0  0  0  0  0  0  0  0  0
   38.0110   30.5030   47.7830 N   0  0  0  0  0  0  0  0  0  0  0  0
   37.5120   30.5130   49.0200 C   0  0  0  0  0  0  0  0  0  0  0  0
   37.6900   31.5960   49.8130 N   0  0  0  0  0  0  0  0  0  0  0  0
   38.4940   33.5190   50.0230 H   0  0  0  0  0  0  0  0  0  0  0  0
   39.4380   33.5160   47.6960 H   0  0  0  0  0  0  0  0  0  0  0  0
   39.1100   31.5570   46.2770 H   0  0  0  0  0  0  0  0  0  0  0  0
   33.6680   27.5080   48.2120 C   0  0  0  0  0  0  0  0  0  0  0  0
   34.1320   26.4210   47.6840 O   0  0  0  0  0  0  0  0  0  0  0  0
   32.4350   27.9840   47.7990 O   0  0  0  0  0  0  0  0  0  0  0  0
   32.2470   28.5120   46.5230 C   0  0  0  0  0  3  0  0  0  0  0  0
   31.1440   29.4340   46.1980 C   0  0  0  0  0  2  0  0  0  0  0  0
   32.6210   29.8890   46.1510 C   0  0  0  0  0  2  0  0  0  0  0  0
  1  4  1  6  0  0  0
  1  3  1  0  0  0  0
  1  8  1  0  0  0  0
  1  2  1  0  0  0  0
  2  5  1  0  0  0  0
  3  2  1  0  0  0  0
  3  7  1  1  0  0  0
  6  2  1  0  0  0  0
  8  9  1  0  0  0  0
 10  8  1  0  0  0  0
 11 16  1  0  0  0  0
 11 17  1  0  0  0  0
 12 11  2  0  0  0  0
 13 14  2  0  0  0  0
 13 12  1  0  0  0  0
 14 15  1  0  0  0  0
 15  8  1  0  0  0  0
 15 16  2  0  0  0  0
 18 12  1  0  0  0  0
 19 13  1  0  0  0  0
 20  3  1  0  0  0  0
 21 20  2  0  0  0  0
 22 20  1  0  0  0  0
 23 22  1  0  0  0  0
 24 23  1  0  0  0  0
 25 24  1  0  0  0  0
 25 23  1  0  0  0  0
M  END
>  <minimizedAffinity>
-4.48723507

>  <minimizedRMSD>
0.776161551

$$$$
