
     RDKit          3D

 30 32  0  0  0  0  0  0  0  0999 V2000
   36.8917   29.4358   49.6586 C   0  0  0  0  0  0  0  0  0  0  0  0
   38.4357   32.7482   49.3829 C   0  0  0  0  0  0  0  0  0  0  0  0
   38.9377   32.7493   48.0725 C   0  0  0  0  0  0  0  0  0  0  0  0
   38.7399   31.6003   47.2889 C   0  0  0  0  0  0  0  0  0  0  0  0
   38.0671   30.5456   47.8526 N   0  0  0  0  0  0  0  0  0  0  0  0
   37.6062   30.5879   49.1041 C   0  0  0  0  0  0  0  0  0  0  0  0
   37.7970   31.6949   49.8593 N   0  0  0  0  0  0  0  0  0  0  0  0
   35.4309   29.5389   49.2194 C   0  0  2  0  0  0  0  0  0  0  0  0
   34.3985   29.4740   50.2621 C   0  0  0  0  0  0  0  0  0  0  0  0
   34.6519   28.2442   49.5219 C   0  0  1  0  0  0  0  0  0  0  0  0
   33.5747   27.8549   48.5474 C   0  0  0  0  0  0  0  0  0  0  0  0
   33.8808   26.8548   47.7851 O   0  0  0  0  0  0  0  0  0  0  0  0
   32.3308   28.4490   48.4124 O   0  0  0  0  0  0  0  0  0  0  0  0
   36.9022   29.4959   50.7632 H   0  0  0  0  0  0  0  0  0  0  0  0
   37.3475   28.4918   49.3299 H   0  0  0  0  0  0  0  0  0  0  0  0
   38.5867   33.6313   49.9884 H   0  0  0  0  0  0  0  0  0  0  0  0
   39.4599   33.5676   47.6341 H   0  0  0  0  0  0  0  0  0  0  0  0
   39.1093   31.5648   46.2837 H   0  0  0  0  0  0  0  0  0  0  0  0
   35.2841   29.9266   48.2050 H   0  0  0  0  0  0  0  0  0  0  0  0
   34.7283   29.5079   51.3239 H   0  0  0  0  0  0  0  0  0  0  0  0
   33.4603   30.0584   50.0596 H   0  0  0  0  0  0  0  0  0  0  0  0
   35.3370   27.4150   49.7678 H   0  0  0  0  0  0  0  0  0  0  0  0
   31.4039   27.9949   47.4761 C   0  0  0  0  0  0  0  0  0  0  0  0
   30.7499   28.8907   46.5062 C   0  0  0  0  0  0  0  0  0  0  0  0
   31.7263   27.7806   46.0530 C   0  0  0  0  0  0  0  0  0  0  0  0
   30.7372   27.2018   47.9035 H   0  0  0  0  0  0  0  0  0  0  0  0
   31.0616   29.9391   46.3472 H   0  0  0  0  0  0  0  0  0  0  0  0
   29.6812   28.7124   46.2044 H   0  0  0  0  0  0  0  0  0  0  0  0
   32.6396   28.1653   45.5710 H   0  0  0  0  0  0  0  0  0  0  0  0
   31.2980   26.9212   45.4968 H   0  0  0  0  0  0  0  0  0  0  0  0
  2  7  2  0
  3  2  1  0
  4  5  1  0
  4  3  2  0
  5  6  2  0
  6  1  1  0
  6  7  1  0
  8 10  1  0
  8  1  1  0
  8  9  1  0
 10  9  1  0
 11 10  1  0
 12 11  2  0
 13 11  1  0
  1 14  1  0
  1 15  1  0
  2 16  1  0
  3 17  1  0
  4 18  1  0
  8 19  1  6
  9 20  1  0
  9 21  1  0
 10 22  1  1
 23 24  1  0
 24 25  1  0
 25 23  1  0
 23 26  1  0
 24 27  1  0
 24 28  1  0
 25 29  1  0
 25 30  1  0
 13 23  1  0
M  ISO  8  14   8  15   8  16  14  17  14  18  14  19  13  20  13  21  13
M  ISO  1  22  13
M  END
>  <DihAtoms>  (1) 
10,12,22,23

>  <DihDeg>  (1) 
142.04105754370792

$$$$
