
 OpenBabel03252511463D

 34 37  0  0  1  0  0  0  0  0999 V2000
   37.6150   31.5880   48.0780 C   0  0  0  0  0  0  0  0  0  0  0  0
   37.5720   32.4010   49.1760 C   0  0  0  0  0  0  0  0  0  0  0  0
   38.4750   33.4520   49.3440 C   0  0  0  0  0  0  0  0  0  0  0  0
   39.4360   33.6790   48.3820 C   0  0  0  0  0  0  0  0  0  0  0  0
   39.4650   32.8520   47.2850 C   0  0  0  0  0  0  0  0  0  0  0  0
   40.4020   32.9940   46.2430 C   0  0  0  0  0  0  0  0  0  0  0  0
   40.3810   32.1340   45.1660 C   0  0  0  0  0  0  0  0  0  0  0  0
   39.4690   31.1220   45.0600 C   0  0  0  0  0  0  0  0  0  0  0  0
   38.5420   30.9670   46.0710 C   0  0  0  0  0  0  0  0  0  0  0  0
   38.5730   31.8290   47.1390 C   0  0  0  0  0  0  0  0  0  0  0  0
   36.8800   32.3420   50.0030 H   0  0  0  0  0  0  0  0  0  0  0  0
   38.4780   34.1170   50.1930 H   0  0  0  0  0  0  0  0  0  0  0  0
   40.1580   34.4750   48.4590 H   0  0  0  0  0  0  0  0  0  0  0  0
   41.1220   33.7980   46.3320 H   0  0  0  0  0  0  0  0  0  0  0  0
   41.1100   32.2620   44.3760 H   0  0  0  0  0  0  0  0  0  0  0  0
   39.5000   30.4740   44.1870 H   0  0  0  0  0  0  0  0  0  0  0  0
   37.8110   30.1490   45.9770 H   0  0  0  0  0  0  0  0  0  0  0  0
   35.5050   30.3680   47.2630 C   0  0  0  0  0  0  0  0  0  0  0  0
   36.5840   30.5750   48.1210 C   0  0  0  0  0  0  0  0  0  0  0  0
   36.6750   29.6470   49.2000 C   0  0  0  0  0  0  0  0  0  0  0  0
   35.7470   28.6580   49.3240 N   0  0  0  0  0  0  0  0  0  0  0  0
   34.7360   28.5230   48.4590 C   0  0  0  0  0  0  0  0  0  0  0  0
   34.6240   29.3720   47.4430 N   0  0  0  0  0  0  0  0  0  0  0  0
   35.4720   31.0900   46.4610 H   0  0  0  0  0  0  0  0  0  0  0  0
   37.4730   29.7120   49.9260 H   0  0  0  0  0  0  0  0  0  0  0  0
   33.7560   27.4240   48.6640 C   0  0  1  0  0  0  0  0  0  0  0  0
   32.3020   27.7350   48.6650 C   0  0  0  0  0  0  0  0  0  0  0  0
   32.9050   26.9730   47.5110 C   0  0  2  0  0  0  0  0  0  0  0  0
   34.0730   26.6230   49.3640 H   0  0  0  0  0  0  0  0  0  0  0  0
   31.5910   27.1630   49.2760 H   0  0  0  0  0  0  0  0  0  0  0  0
   31.9390   28.7600   48.3690 H   0  0  0  0  0  0  0  0  0  0  0  0
   33.1140   27.4980   46.5500 H   0  0  0  0  0  0  0  0  0  0  0  0
   32.6160   25.1890   47.3650 S   0  0  0  0  0  0  0  0  0  0  0  0
   31.5040   24.7720   48.1090 H   0  0  0  0  0  0  0  0  0  0  0  0
  1 19  1  0  0  0  0
  1  2  1  0  0  0  0
  2  3  2  0  0  0  0
  2 11  1  0  0  0  0
  3 12  1  0  0  0  0
  4 13  1  0  0  0  0
  4  3  1  0  0  0  0
  5  4  2  0  0  0  0
  6 14  1  0  0  0  0
  6  5  1  0  0  0  0
  7  6  2  0  0  0  0
  8  7  1  0  0  0  0
  8  9  2  0  0  0  0
  9 10  1  0  0  0  0
 10  5  1  0  0  0  0
 10  1  2  0  0  0  0
 15  7  1  0  0  0  0
 16  8  1  0  0  0  0
 17  9  1  0  0  0  0
 18 23  2  0  0  0  0
 18 19  1  0  0  0  0
 19 20  2  0  0  0  0
 20 21  1  0  0  0  0
 20 25  1  0  0  0  0
 22 26  1  0  0  0  0
 22 21  2  0  0  0  0
 23 22  1  0  0  0  0
 24 18  1  0  0  0  0
 26 27  1  0  0  0  0
 26 29  1  1  0  0  0
 27 30  1  0  0  0  0
 28 32  1  6  0  0  0
 28 26  1  0  0  0  0
 28 27  1  0  0  0  0
 31 27  1  0  0  0  0
 33 28  1  0  0  0  0
 33 34  1  0  0  0  0
M  END
>  <minimizedAffinity>
-6.5522542

>  <minimizedRMSD>
0.748894811

$$$$
