
 OpenBabel03252512273D

 31 33  0  0  1  0  0  0  0  0999 V2000
   35.2150   29.8540   48.3050 C   0  0  0  0  0  0  0  0  0  0  0  0
   34.9630   28.8480   49.2620 C   0  0  0  0  0  0  0  0  0  0  0  0
   33.8820   28.0670   49.0590 C   0  0  0  0  0  0  0  0  0  0  0  0
   33.1180   28.2810   47.9860 C   0  0  0  0  0  0  0  0  0  0  0  0
   33.8880   29.6740   47.1110 S   0  0  0  0  0  0  0  0  0  0  0  0
   35.6620   28.7620   50.1120 H   0  0  0  0  0  0  0  0  0  0  0  0
   33.6130   27.2700   49.7430 H   0  0  0  0  0  0  0  0  0  0  0  0
   37.6820   32.3330   49.5190 C   0  0  0  0  0  0  0  0  0  0  0  0
   38.4660   32.5340   48.3630 C   0  0  0  0  0  0  0  0  0  0  0  0
   38.1430   31.8340   47.1900 C   0  0  0  0  0  0  0  0  0  0  0  0
   37.0760   30.9760   47.2090 N   0  0  0  0  0  0  0  0  0  0  0  0
   36.3580   30.8140   48.3290 C   0  0  0  0  0  0  0  0  0  0  0  0
   36.6390   31.4680   49.4700 N   0  0  0  0  0  0  0  0  0  0  0  0
   37.9560   32.8850   50.4040 H   0  0  0  0  0  0  0  0  0  0  0  0
   39.3070   33.2190   48.3710 H   0  0  0  0  0  0  0  0  0  0  0  0
   38.7270   31.9650   46.2770 H   0  0  0  0  0  0  0  0  0  0  0  0
   31.9030   27.5920   47.5140 C   0  0  2  0  0  0  0  0  0  0  0  0
   32.1960   26.8100   46.7780 H   0  0  0  0  0  0  0  0  0  0  0  0
   31.0460   28.5990   46.8030 C   0  0  0  0  0  0  0  0  0  0  0  0
   30.3630   28.1570   46.0580 H   0  0  0  0  0  0  0  0  0  0  0  0
   30.5050   29.2650   47.4940 H   0  0  0  0  0  0  0  0  0  0  0  0
   31.7390   29.2530   46.2120 H   0  0  0  0  0  0  0  0  0  0  0  0
   31.2140   26.9160   48.6570 C   0  0  0  0  0  0  0  0  0  0  0  0
   30.9530   25.8550   48.4320 H   0  0  0  0  0  0  0  0  0  0  0  0
   32.0090   26.8120   49.4620 H   0  0  0  0  0  0  0  0  0  0  0  0
   30.0580   27.6600   49.1960 C   0  0  0  0  0  0  0  0  0  0  0  0
   28.7960   27.1390   48.9000 C   0  0  0  0  0  0  0  0  0  0  0  0
   27.8130   27.8980   49.4290 N   0  0  0  0  0  0  0  0  0  0  0  0
   28.4460   28.9160   50.0720 C   0  0  0  0  0  0  0  0  0  0  0  0
   29.7700   28.7540   49.9210 N   0  0  0  0  0  0  0  0  0  0  0  0
   30.5690   29.3220   50.2700 H   0  0  0  0  0  0  0  0  0  0  0  0
  1 12  1  0  0  0  0
  1  2  2  0  0  0  0
  2  6  1  0  0  0  0
  3  2  1  0  0  0  0
  3  7  1  0  0  0  0
  4  3  2  0  0  0  0
  5  4  1  0  0  0  0
  5  1  1  0  0  0  0
  8 14  1  0  0  0  0
  9 15  1  0  0  0  0
  9  8  2  0  0  0  0
 10 11  2  0  0  0  0
 10  9  1  0  0  0  0
 11 12  1  0  0  0  0
 12 13  2  0  0  0  0
 13  8  1  0  0  0  0
 16 10  1  0  0  0  0
 17 18  1  6  0  0  0
 17  4  1  0  0  0  0
 17 23  1  0  0  0  0
 19 21  1  0  0  0  0
 19 17  1  0  0  0  0
 20 19  1  0  0  0  0
 22 19  1  0  0  0  0
 23 26  1  0  0  0  0
 23 25  1  0  0  0  0
 24 23  1  0  0  0  0
 26 30  1  0  0  0  0
 27 26  2  0  0  0  0
 27 28  1  0  0  0  0
 28 29  2  0  0  0  0
 30 29  1  0  0  0  0
 30 31  1  0  0  0  0
M  END
>  <minimizedAffinity>
-5.54785061

>  <minimizedRMSD>
1.65491664

$$$$
