
 OpenBabel03252513023D

 21 22  0  0  0  0  0  0  0  0999 V2000
   36.8490   30.9490   47.5410 C   0  0  0  0  0  0  0  0  0  0  0  0
   36.5000   30.4720   46.6030 H   0  0  0  0  0  0  0  0  0  0  0  0
   36.4590   32.0080   47.4660 H   0  0  0  0  0  0  0  0  0  0  0  0
   36.5320   29.2010   50.8920 C   0  0  0  0  0  0  0  0  0  0  0  0
   37.0970   29.7830   49.7480 C   0  0  0  0  0  0  0  0  0  0  0  0
   36.3040   30.3320   48.7590 C   0  0  0  0  0  0  0  0  0  0  0  0
   34.9570   30.2860   48.9430 N   0  0  0  0  0  0  0  0  0  0  0  0
   34.4100   29.7290   50.0390 C   0  0  0  0  0  0  0  0  0  0  0  0
   35.1830   29.1910   51.0050 N   0  0  0  0  0  0  0  0  0  0  0  0
   37.1100   28.7670   51.6750 H   0  0  0  0  0  0  0  0  0  0  0  0
   38.1640   29.7960   49.6480 H   0  0  0  0  0  0  0  0  0  0  0  0
   33.3280   29.7520   50.0700 H   0  0  0  0  0  0  0  0  0  0  0  0
   38.3510   31.1110   47.5640 C   0  0  0  0  0  0  0  0  0  0  0  0
   38.7010   30.9990   46.5170 H   0  0  0  0  0  0  0  0  0  0  0  0
   38.8580   30.3120   48.1340 H   0  0  0  0  0  0  0  0  0  0  0  0
   38.8250   32.3880   48.0880 C   0  0  0  0  0  0  0  0  0  0  0  0
   38.7310   33.0090   49.3150 C   0  0  0  0  0  0  0  0  0  0  0  0
   39.3610   34.2110   49.2720 N   0  0  0  0  0  0  0  0  0  0  0  0
   39.8680   34.3940   48.0390 C   0  0  0  0  0  0  0  0  0  0  0  0
   39.5280   33.2850   47.3590 N   0  0  0  0  0  0  0  0  0  0  0  0
   39.8030   33.1600   46.3450 H   0  0  0  0  0  0  0  0  0  0  0  0
  1 13  1  0  0  0  0
  1  6  1  0  0  0  0
  2  1  1  0  0  0  0
  3  1  1  0  0  0  0
  4  9  1  0  0  0  0
  4 10  1  0  0  0  0
  5  4  2  0  0  0  0
  6  7  2  0  0  0  0
  6  5  1  0  0  0  0
  7  8  1  0  0  0  0
  8 12  1  0  0  0  0
  8  9  2  0  0  0  0
 11  5  1  0  0  0  0
 13 16  1  0  0  0  0
 13 15  1  0  0  0  0
 14 13  1  0  0  0  0
 16 17  2  0  0  0  0
 18 17  1  0  0  0  0
 19 18  2  0  0  0  0
 20 19  1  0  0  0  0
 20 16  1  0  0  0  0
 21 20  1  0  0  0  0
M  END
>  <minimizedAffinity>
-4.37573004

>  <minimizedRMSD>
2.0724709

$$$$
