
 OpenBabel03252514023D

 27 29  0  0  1  0  0  0  0  0999 V2000
   35.2480   29.4540   49.0740 C   0  0  2  0  0  0  0  0  0  0  0  0
   34.1670   29.4250   50.0680 C   0  0  0  0  0  0  0  0  0  0  0  0
   34.4690   28.1640   49.4090 C   0  0  1  0  0  0  0  0  0  0  0  0
   35.1170   29.7830   48.0410 H   0  0  0  0  0  0  0  0  0  0  0  0
   34.4750   29.6530   51.1150 H   0  0  0  0  0  0  0  0  0  0  0  0
   33.2020   29.9630   49.8240 H   0  0  0  0  0  0  0  0  0  0  0  0
   35.1400   27.3870   49.8050 H   0  0  0  0  0  0  0  0  0  0  0  0
   36.6820   29.4070   49.6070 C   0  0  0  0  0  0  0  0  0  0  0  0
   37.1770   28.4620   49.3050 H   0  0  0  0  0  0  0  0  0  0  0  0
   36.6250   29.4270   50.7070 H   0  0  0  0  0  0  0  0  0  0  0  0
   37.8890   32.8610   49.4390 C   0  0  0  0  0  0  0  0  0  0  0  0
   38.6580   32.8710   48.2650 C   0  0  0  0  0  0  0  0  0  0  0  0
   38.7510   31.6720   47.5380 C   0  0  0  0  0  0  0  0  0  0  0  0
   38.0840   30.5620   48.0190 N   0  0  0  0  0  0  0  0  0  0  0  0
   37.3670   30.6140   49.1440 C   0  0  0  0  0  0  0  0  0  0  0  0
   37.2760   31.7670   49.8460 N   0  0  0  0  0  0  0  0  0  0  0  0
   37.8080   33.7710   50.0070 H   0  0  0  0  0  0  0  0  0  0  0  0
   39.1440   33.7670   47.9580 H   0  0  0  0  0  0  0  0  0  0  0  0
   39.3350   31.6410   46.6270 H   0  0  0  0  0  0  0  0  0  0  0  0
   33.4620   27.6910   48.4020 C   0  0  0  0  0  0  0  0  0  0  0  0
   33.9360   26.9060   47.4920 O   0  0  0  0  0  0  0  0  0  0  0  0
   32.1160   28.0240   48.3980 O   0  0  0  0  0  0  0  0  0  0  0  0
   31.1330   27.1720   48.9040 C   0  0  0  0  0  3  0  0  0  0  0  0
   30.1060   27.8540   49.7560 C   0  0  0  0  0  2  0  0  0  0  0  0
   29.1850   28.4480   48.7100 C   0  0  0  0  0  2  0  0  0  0  0  0
   28.9520   27.2680   47.8120 C   0  0  0  0  0  2  0  0  0  0  0  0
   30.3120   26.6080   47.7630 C   0  0  0  0  0  2  0  0  0  0  0  0
  1  4  1  6  0  0  0
  1  3  1  0  0  0  0
  1  8  1  0  0  0  0
  1  2  1  0  0  0  0
  2  5  1  0  0  0  0
  3  7  1  1  0  0  0
  3  2  1  0  0  0  0
  6  2  1  0  0  0  0
  8 10  1  0  0  0  0
  9  8  1  0  0  0  0
 11 16  1  0  0  0  0
 11 17  1  0  0  0  0
 12 11  2  0  0  0  0
 13 14  2  0  0  0  0
 13 12  1  0  0  0  0
 14 15  1  0  0  0  0
 15  8  1  0  0  0  0
 15 16  2  0  0  0  0
 18 12  1  0  0  0  0
 19 13  1  0  0  0  0
 20  3  1  0  0  0  0
 21 20  2  0  0  0  0
 22 20  1  0  0  0  0
 22 23  1  0  0  0  0
 23 24  1  0  0  0  0
 25 24  1  0  0  0  0
 26 25  1  0  0  0  0
 27 26  1  0  0  0  0
 27 23  1  0  0  0  0
M  END
>  <minimizedAffinity>
-5.1853137

>  <minimizedRMSD>
1.7243886

$$$$
