
 OpenBabel03252514023D

 27 29  0  0  1  0  0  0  0  0999 V2000
   35.3990   29.3900   48.8980 C   0  0  2  0  0  0  0  0  0  0  0  0
   34.2420   29.4830   49.7980 C   0  0  0  0  0  0  0  0  0  0  0  0
   34.5740   28.1530   49.3140 C   0  0  1  0  0  0  0  0  0  0  0  0
   35.3560   29.5990   47.8270 H   0  0  0  0  0  0  0  0  0  0  0  0
   34.4710   29.8270   50.8350 H   0  0  0  0  0  0  0  0  0  0  0  0
   33.3090   29.9970   49.4190 H   0  0  0  0  0  0  0  0  0  0  0  0
   35.1980   27.4210   49.8480 H   0  0  0  0  0  0  0  0  0  0  0  0
   36.7860   29.3920   49.5470 C   0  0  0  0  0  0  0  0  0  0  0  0
   37.3190   28.4460   49.3270 H   0  0  0  0  0  0  0  0  0  0  0  0
   36.6380   29.4550   50.6370 H   0  0  0  0  0  0  0  0  0  0  0  0
   38.1290   32.7990   49.4510 C   0  0  0  0  0  0  0  0  0  0  0  0
   38.8060   32.8370   48.2230 C   0  0  0  0  0  0  0  0  0  0  0  0
   38.7900   31.6740   47.4330 C   0  0  0  0  0  0  0  0  0  0  0  0
   38.1120   30.5690   47.9110 N   0  0  0  0  0  0  0  0  0  0  0  0
   37.4860   30.5920   49.0900 C   0  0  0  0  0  0  0  0  0  0  0  0
   37.5000   31.7110   49.8520 N   0  0  0  0  0  0  0  0  0  0  0  0
   38.1320   33.6800   50.0670 H   0  0  0  0  0  0  0  0  0  0  0  0
   39.3060   33.7270   47.9210 H   0  0  0  0  0  0  0  0  0  0  0  0
   39.3000   31.6660   46.4790 H   0  0  0  0  0  0  0  0  0  0  0  0
   33.6420   27.5750   48.2880 C   0  0  0  0  0  0  0  0  0  0  0  0
   33.9230   26.3690   47.9220 O   0  0  0  0  0  0  0  0  0  0  0  0
   32.5440   28.2270   47.7480 O   0  0  0  0  0  0  0  0  0  0  0  0
   32.3880   28.4160   46.3730 C   0  0  0  0  0  3  0  0  0  0  0  0
   31.5990   29.6350   46.0040 C   0  0  0  0  0  2  0  0  0  0  0  0
   32.6450   30.7250   46.1290 C   0  0  0  0  0  2  0  0  0  0  0  0
   33.7850   30.1360   45.3500 C   0  0  0  0  0  2  0  0  0  0  0  0
   33.7380   28.6750   45.7370 C   0  0  0  0  0  2  0  0  0  0  0  0
  1  4  1  6  0  0  0
  1  3  1  0  0  0  0
  1  8  1  0  0  0  0
  1  2  1  0  0  0  0
  2  5  1  0  0  0  0
  3  2  1  0  0  0  0
  3  7  1  1  0  0  0
  6  2  1  0  0  0  0
  8 10  1  0  0  0  0
  9  8  1  0  0  0  0
 11 16  1  0  0  0  0
 11 17  1  0  0  0  0
 12 11  2  0  0  0  0
 13 14  2  0  0  0  0
 13 12  1  0  0  0  0
 14 15  1  0  0  0  0
 15  8  1  0  0  0  0
 15 16  2  0  0  0  0
 18 12  1  0  0  0  0
 19 13  1  0  0  0  0
 20  3  1  0  0  0  0
 21 20  2  0  0  0  0
 22 20  1  0  0  0  0
 23 22  1  0  0  0  0
 24 25  1  0  0  0  0
 24 23  1  0  0  0  0
 26 27  1  0  0  0  0
 26 25  1  0  0  0  0
 27 23  1  0  0  0  0
M  END
>  <minimizedAffinity>
-4.85229158

>  <minimizedRMSD>
1.3774693

$$$$
