
 OpenBabel03252514013D

 27 29  0  0  1  0  0  0  0  0999 V2000
   35.2270   29.4640   49.0610 C   0  0  2  0  0  0  0  0  0  0  0  0
   34.0920   29.2820   49.9760 C   0  0  0  0  0  0  0  0  0  0  0  0
   34.5100   28.1070   49.2290 C   0  0  1  0  0  0  0  0  0  0  0  0
   35.1370   29.8790   48.0550 H   0  0  0  0  0  0  0  0  0  0  0  0
   34.3230   29.4290   51.0570 H   0  0  0  0  0  0  0  0  0  0  0  0
   33.1130   29.7870   49.7200 H   0  0  0  0  0  0  0  0  0  0  0  0
   35.2010   27.3350   49.5970 H   0  0  0  0  0  0  0  0  0  0  0  0
   36.6270   29.4470   49.6790 C   0  0  0  0  0  0  0  0  0  0  0  0
   37.1370   28.4870   49.4600 H   0  0  0  0  0  0  0  0  0  0  0  0
   36.5050   29.5270   50.7710 H   0  0  0  0  0  0  0  0  0  0  0  0
   37.9150   32.8670   49.4380 C   0  0  0  0  0  0  0  0  0  0  0  0
   38.6870   32.8330   48.2660 C   0  0  0  0  0  0  0  0  0  0  0  0
   38.7540   31.6160   47.5660 C   0  0  0  0  0  0  0  0  0  0  0  0
   38.0590   30.5320   48.0700 N   0  0  0  0  0  0  0  0  0  0  0  0
   37.3410   30.6270   49.1910 C   0  0  0  0  0  0  0  0  0  0  0  0
   37.2750   31.7970   49.8670 N   0  0  0  0  0  0  0  0  0  0  0  0
   37.8540   33.7910   49.9850 H   0  0  0  0  0  0  0  0  0  0  0  0
   39.1940   33.7100   47.9400 H   0  0  0  0  0  0  0  0  0  0  0  0
   39.3390   31.5500   46.6580 H   0  0  0  0  0  0  0  0  0  0  0  0
   33.5940   27.6740   48.1200 C   0  0  0  0  0  0  0  0  0  0  0  0
   34.0170   26.6640   47.4340 O   0  0  0  0  0  0  0  0  0  0  0  0
   32.3770   28.2610   47.8130 O   0  0  0  0  0  0  0  0  0  0  0  0
   31.2100   27.5150   47.6330 C   0  0  0  0  0  3  0  0  0  0  0  0
   30.7840   26.7380   48.8420 C   0  0  0  0  0  2  0  0  0  0  0  0
   30.0870   27.8050   49.6610 C   0  0  0  0  0  2  0  0  0  0  0  0
   29.1790   28.4220   48.6380 C   0  0  0  0  0  2  0  0  0  0  0  0
   30.0410   28.4470   47.3950 C   0  0  0  0  0  2  0  0  0  0  0  0
  1  4  1  6  0  0  0
  1  3  1  0  0  0  0
  1  8  1  0  0  0  0
  1  2  1  0  0  0  0
  2  5  1  0  0  0  0
  3  7  1  1  0  0  0
  3  2  1  0  0  0  0
  6  2  1  0  0  0  0
  8 10  1  0  0  0  0
  9  8  1  0  0  0  0
 11 16  1  0  0  0  0
 11 17  1  0  0  0  0
 12 11  2  0  0  0  0
 13 14  2  0  0  0  0
 13 12  1  0  0  0  0
 14 15  1  0  0  0  0
 15  8  1  0  0  0  0
 15 16  2  0  0  0  0
 18 12  1  0  0  0  0
 19 13  1  0  0  0  0
 20  3  1  0  0  0  0
 21 20  2  0  0  0  0
 22 20  1  0  0  0  0
 23 22  1  0  0  0  0
 23 24  1  0  0  0  0
 24 25  1  0  0  0  0
 26 25  1  0  0  0  0
 27 23  1  0  0  0  0
 27 26  1  0  0  0  0
M  END
>  <minimizedAffinity>
-5.2067914

>  <minimizedRMSD>
1.63926601

$$$$
