
 OpenBabel03252512523D

 19 21  0  0  0  0  0  0  0  0999 V2000
   38.3570   31.4470   48.1650 C   0  0  0  0  0  0  0  0  0  0  0  0
   38.9680   32.6450   48.1060 N   0  0  0  0  0  0  0  0  0  0  0  0
   39.4130   32.8700   46.9250 O   0  0  0  0  0  0  0  0  0  0  0  0
   39.1160   31.8460   46.1780 C   0  0  0  0  0  0  0  0  0  0  0  0
   38.4560   30.9390   46.9170 N   0  0  0  0  0  0  0  0  0  0  0  0
   37.3310   30.1360   51.5330 C   0  0  0  0  0  0  0  0  0  0  0  0
   38.0300   30.8900   50.5790 C   0  0  0  0  0  0  0  0  0  0  0  0
   37.6870   30.7070   49.2390 C   0  0  0  0  0  0  0  0  0  0  0  0
   36.7040   29.8190   48.9160 N   0  0  0  0  0  0  0  0  0  0  0  0
   36.0580   29.1150   49.8710 C   0  0  0  0  0  0  0  0  0  0  0  0
   36.3680   29.2700   51.1780 N   0  0  0  0  0  0  0  0  0  0  0  0
   37.6710   30.3490   52.5410 H   0  0  0  0  0  0  0  0  0  0  0  0
   38.8030   31.5980   50.7390 H   0  0  0  0  0  0  0  0  0  0  0  0
   35.2880   28.4260   49.5480 H   0  0  0  0  0  0  0  0  0  0  0  0
   39.4470   31.7070   44.7570 C   0  0  0  0  0  0  0  0  0  0  0  0
   40.3230   30.8570   44.2020 C   0  0  0  0  0  0  0  0  0  0  0  0
   40.5010   30.8710   42.8450 C   0  0  0  0  0  0  0  0  0  0  0  0
   39.7500   31.7830   42.1180 C   0  0  0  0  0  0  0  0  0  0  0  0
   38.7570   32.6350   43.4820 S   0  0  0  0  0  0  0  0  0  0  0  0
  1  8  1  0  0  0  0
  2  1  2  0  0  0  0
  3  2  1  0  0  0  0
  4  5  2  0  0  0  0
  4  3  1  0  0  0  0
  5  1  1  0  0  0  0
  6 12  1  0  0  0  0
  7 13  1  0  0  0  0
  7  6  2  0  0  0  0
  8  7  1  0  0  0  0
  9  8  2  0  0  0  0
  9 10  1  0  0  0  0
 10 11  2  0  0  0  0
 11  6  1  0  0  0  0
 14 10  1  0  0  0  0
 15  4  1  0  0  0  0
 16 15  2  0  0  0  0
 17 16  1  0  0  0  0
 18 17  2  0  0  0  0
 18 19  1  0  0  0  0
 19 15  1  0  0  0  0
M  END
>  <minimizedAffinity>
-5.27733135

>  <minimizedRMSD>
0.405939758

$$$$
