
     RDKit          3D

 40 43  0  0  0  0  0  0  0  0999 V2000
   36.4106   30.9612   48.7466 N   0  0  0  0  0  0  0  0  0  0  0  0
   36.3869   31.7352   49.8671 C   0  0  0  0  0  0  0  0  0  0  0  0
   37.3636   32.6617   49.7774 N   0  0  0  0  0  0  0  0  0  0  0  0
   37.9887   32.4558   48.5983 C   0  0  0  0  0  0  0  0  0  0  0  0
   39.0449   33.0788   47.9694 C   0  0  0  0  0  0  0  0  0  0  0  0
   39.4831   32.6646   46.7641 N   0  0  0  0  0  0  0  0  0  0  0  0
   38.8999   31.6219   46.1305 C   0  0  0  0  0  0  0  0  0  0  0  0
   37.8714   31.0237   46.7547 N   0  0  0  0  0  0  0  0  0  0  0  0
   37.4022   31.3959   47.9454 C   0  0  0  0  0  0  0  0  0  0  0  0
   39.6852   34.1738   48.5951 N   0  0  0  0  0  0  0  0  0  0  0  0
   34.6608   29.9832   47.4018 C   0  0  0  0  0  0  0  0  0  0  0  0
   35.5214   29.8855   48.5024 C   0  0  0  0  0  0  0  0  0  0  0  0
   35.4259   28.7346   49.2621 C   0  0  0  0  0  0  0  0  0  0  0  0
   34.5369   27.7792   48.9270 N   0  0  0  0  0  0  0  0  0  0  0  0
   33.7234   27.8825   47.8783 C   0  0  0  0  0  0  0  0  0  0  0  0
   33.7912   28.9908   47.1179 N   0  0  0  0  0  0  0  0  0  0  0  0
   32.7323   26.8555   47.4757 C   0  0  0  0  0  0  0  0  0  0  0  0
   31.5472   26.9037   48.4549 C   0  0  0  0  0  0  0  0  0  0  0  0
   32.1553   27.1218   46.1048 C   0  0  0  0  0  0  0  0  0  0  0  0
   33.3300   25.4704   47.4563 C   0  0  0  0  0  0  0  0  0  0  0  0
   35.6885   31.6141   50.6914 H   0  0  0  0  0  0  0  0  0  0  0  0
   39.2670   31.2955   45.1496 H   0  0  0  0  0  0  0  0  0  0  0  0
   39.8879   34.1453   49.6202 H   0  0  0  0  0  0  0  0  0  0  0  0
   39.9655   35.0204   48.0589 H   0  0  0  0  0  0  0  0  0  0  0  0
   34.6849   30.8523   46.7709 H   0  0  0  0  0  0  0  0  0  0  0  0
   36.0857   28.6476   50.1151 H   0  0  0  0  0  0  0  0  0  0  0  0
   31.8701   26.5067   49.4310 H   0  0  0  0  0  0  0  0  0  0  0  0
   30.7403   26.3112   48.0110 H   0  0  0  0  0  0  0  0  0  0  0  0
   31.2018   27.9549   48.5005 H   0  0  0  0  0  0  0  0  0  0  0  0
   32.5776   28.0892   45.7342 H   0  0  0  0  0  0  0  0  0  0  0  0
   31.0566   27.2766   46.1133 H   0  0  0  0  0  0  0  0  0  0  0  0
   32.3447   26.3158   45.3736 H   0  0  0  0  0  0  0  0  0  0  0  0
   32.5042   24.7826   47.1817 H   0  0  0  0  0  0  0  0  0  0  0  0
   33.7341   25.2701   48.4704 H   0  0  0  0  0  0  0  0  0  0  0  0
   34.4380   25.4907   46.4853 C   0  0  0  0  0  0  0  0  0  0  0  0
   34.3556   26.0630   45.2504 N   0  0  0  0  0  0  0  0  0  0  0  0
   35.4875   25.9220   44.6268 O   0  0  0  0  0  0  0  0  0  0  0  0
   36.3188   25.2778   45.4003 C   0  0  0  0  0  0  0  0  0  0  0  0
   37.3092   25.0919   44.9973 H   0  0  0  0  0  0  0  0  0  0  0  0
   35.6920   24.9993   46.5579 N   0  0  0  0  0  0  0  0  0  0  0  0
  1  2  1  0
  3  2  2  0
  4  3  1  0
  5 10  1  0
  5  4  2  0
  6  5  1  0
  7  8  1  0
  7  6  2  0
  8  9  2  0
  9  4  1  0
  9  1  1  0
 11 12  2  0
 12  1  1  0
 12 13  1  0
 14 13  2  0
 15 14  1  0
 16 11  1  0
 16 15  2  0
 17 15  1  0
 17 18  1  0
 19 17  1  0
 20 17  1  0
  2 21  1  0
  7 22  1  0
 10 23  1  0
 10 24  1  0
 11 25  1  0
 13 26  1  0
 18 27  1  0
 18 28  1  0
 18 29  1  0
 19 30  1  0
 19 31  1  0
 19 32  1  0
 20 33  1  0
 20 34  1  0
 35 36  2  0
 36 37  1  0
 37 38  1  0
 38 39  1  0
 38 40  2  0
 40 35  1  0
 20 35  1  0
M  ISO  8  21  14  22  14  25  14  26  14  27   8  28   8  29   8  30   8
M  ISO  5  31   8  32   8  33   8  34   8  39  14
M  END
>  <DihAtoms>  (1) 
16,19,34,35

>  <DihDeg>  (1) 
89.99935601277868

$$$$
