
 OpenBabel03252513273D

 34 36  0  0  0  0  0  0  0  0999 V2000
   31.6750   26.3890   47.7490 C   0  0  0  0  0  0  0  0  0  0  0  0
   31.4830   25.2310   47.0610 C   0  0  0  0  0  0  0  0  0  0  0  0
   32.4900   24.4520   46.5440 C   0  0  0  0  0  0  0  0  0  0  0  0
   33.7790   24.9190   46.7600 C   0  0  0  0  0  0  0  0  0  0  0  0
   34.0260   26.0790   47.4450 C   0  0  0  0  0  0  0  0  0  0  0  0
   32.9810   26.8320   47.9500 C   0  0  0  0  0  0  0  0  0  0  0  0
   30.4570   24.9000   46.9130 H   0  0  0  0  0  0  0  0  0  0  0  0
   32.2870   23.5360   46.0020 H   0  0  0  0  0  0  0  0  0  0  0  0
   34.6040   24.3390   46.3700 H   0  0  0  0  0  0  0  0  0  0  0  0
   35.0490   26.3760   47.5730 H   0  0  0  0  0  0  0  0  0  0  0  0
   29.1240   27.8040   49.9740 C   0  0  0  0  0  0  0  0  0  0  0  0
   28.4790   28.7460   49.1340 C   0  0  0  0  0  0  0  0  0  0  0  0
   28.9480   28.8570   47.8390 C   0  0  0  0  0  0  0  0  0  0  0  0
   29.9950   28.0660   47.4300 N   0  0  0  0  0  0  0  0  0  0  0  0
   30.5770   27.1780   48.2770 C   0  0  0  0  0  0  0  0  0  0  0  0
   30.1380   27.0610   49.5210 N   0  0  0  0  0  0  0  0  0  0  0  0
   28.7360   27.7320   50.9970 H   0  0  0  0  0  0  0  0  0  0  0  0
   28.5160   29.5550   47.1160 H   0  0  0  0  0  0  0  0  0  0  0  0
   27.3520   29.5940   49.5830 C   0  0  0  0  0  0  0  0  0  0  0  0
   27.7470   30.7500   50.2110 F   0  0  0  0  0  0  0  0  0  0  0  0
   26.5310   28.9130   50.4620 F   0  0  0  0  0  0  0  0  0  0  0  0
   26.5780   29.9750   48.4850 F   0  0  0  0  0  0  0  0  0  0  0  0
   33.1970   28.0710   48.6850 C   0  0  0  0  0  0  0  0  0  0  0  0
   32.2740   28.7230   48.6860 H   0  0  0  0  0  0  0  0  0  0  0  0
   33.3760   27.8310   49.7600 H   0  0  0  0  0  0  0  0  0  0  0  0
   34.3300   28.9260   48.2110 C   0  0  0  0  0  0  0  0  0  0  0  0
   33.9010   29.8850   47.8260 H   0  0  0  0  0  0  0  0  0  0  0  0
   34.8150   28.4600   47.3330 H   0  0  0  0  0  0  0  0  0  0  0  0
   35.2910   29.1650   49.3110 C   0  0  0  0  0  0  0  0  0  0  0  0
   36.6060   29.3760   49.1080 N   0  0  0  0  0  0  0  0  0  0  0  0
   37.2110   29.5560   50.2470 O   0  0  0  0  0  0  0  0  0  0  0  0
   36.3120   29.4670   51.2220 C   0  0  0  0  0  0  0  0  0  0  0  0
   36.3140   29.5390   52.3020 H   0  0  0  0  0  0  0  0  0  0  0  0
   35.1320   29.2260   50.6440 N   0  0  0  0  0  0  0  0  0  0  0  0
  1  6  1  0  0  0  0
  1 15  1  0  0  0  0
  2  1  2  0  0  0  0
  3  4  2  0  0  0  0
  3  2  1  0  0  0  0
  4  5  1  0  0  0  0
  5 10  1  0  0  0  0
  5  6  2  0  0  0  0
  6 23  1  0  0  0  0
  7  2  1  0  0  0  0
  8  3  1  0  0  0  0
  9  4  1  0  0  0  0
 11 17  1  0  0  0  0
 12 19  1  0  0  0  0
 12 11  2  0  0  0  0
 13 12  1  0  0  0  0
 14 13  2  0  0  0  0
 14 15  1  0  0  0  0
 15 16  2  0  0  0  0
 16 11  1  0  0  0  0
 18 13  1  0  0  0  0
 19 20  1  0  0  0  0
 19 21  1  0  0  0  0
 22 19  1  0  0  0  0
 23 24  1  0  0  0  0
 23 25  1  0  0  0  0
 26 23  1  0  0  0  0
 26 29  1  0  0  0  0
 27 26  1  0  0  0  0
 28 26  1  0  0  0  0
 29 34  1  0  0  0  0
 30 29  2  0  0  0  0
 30 31  1  0  0  0  0
 31 32  1  0  0  0  0
 32 33  1  0  0  0  0
 34 32  2  0  0  0  0
M  END
>  <minimizedAffinity>
-5.58452988

>  <minimizedRMSD>
6.74943066

$$$$
