
 OpenBabel03252511583D

 33 36  0  0  0  0  0  0  0  0999 V2000
   36.3740   30.3070   47.4890 N   0  0  0  0  0  0  0  0  0  0  0  0
   35.1250   29.9780   47.0760 C   0  0  0  0  0  0  0  0  0  0  0  0
   34.7600   30.0770   45.7490 C   0  0  0  0  0  0  0  0  0  0  0  0
   35.7580   30.5260   44.9210 C   0  0  0  0  0  0  0  0  0  0  0  0
   35.4710   30.6340   43.6830 O   0  0  0  0  0  0  0  0  0  0  0  0
   37.0260   30.8690   45.2780 N   0  0  0  0  0  0  0  0  0  0  0  0
   37.2700   30.7320   46.6040 C   0  0  0  0  0  0  0  0  0  0  0  0
   38.4110   31.0260   46.9980 O   0  0  0  0  0  0  0  0  0  0  0  0
   34.3950   29.6310   47.8010 H   0  0  0  0  0  0  0  0  0  0  0  0
   33.7990   29.8360   45.3610 H   0  0  0  0  0  0  0  0  0  0  0  0
   36.8680   31.3980   49.5060 C   0  0  0  0  0  0  0  0  0  0  0  0
   36.6680   30.1810   48.8460 C   0  0  0  0  0  0  0  0  0  0  0  0
   36.7900   29.0120   49.5920 C   0  0  0  0  0  0  0  0  0  0  0  0
   37.0910   29.0730   50.9040 N   0  0  0  0  0  0  0  0  0  0  0  0
   37.2820   30.2790   51.5190 C   0  0  0  0  0  0  0  0  0  0  0  0
   37.1670   31.4450   50.8050 N   0  0  0  0  0  0  0  0  0  0  0  0
   36.8310   32.4410   49.2230 H   0  0  0  0  0  0  0  0  0  0  0  0
   36.6240   28.1080   49.0310 H   0  0  0  0  0  0  0  0  0  0  0  0
   37.5150   30.1270   52.5640 H   0  0  0  0  0  0  0  0  0  0  0  0
   37.9450   31.3170   44.3300 C   0  0  0  0  0  0  0  0  0  0  0  0
   38.3580   32.5970   44.0990 C   0  0  0  0  0  0  0  0  0  0  0  0
   39.2640   32.9700   43.1520 C   0  0  0  0  0  0  0  0  0  0  0  0
   39.8200   31.9900   42.3510 C   0  0  0  0  0  0  0  0  0  0  0  0
   39.4000   30.7020   42.5900 C   0  0  0  0  0  0  0  0  0  0  0  0
   38.5010   30.3620   43.5350 N   0  0  0  0  0  0  0  0  0  0  0  0
   37.9050   33.3520   44.7420 H   0  0  0  0  0  0  0  0  0  0  0  0
   39.5710   34.0050   42.9960 H   0  0  0  0  0  0  0  0  0  0  0  0
   40.5350   32.2650   41.6010 H   0  0  0  0  0  0  0  0  0  0  0  0
   39.9250   29.5930   41.8010 C   0  0  0  0  0  0  0  0  0  0  0  0
   39.7710   28.2640   41.7190 C   0  0  0  0  0  0  0  0  0  0  0  0
   40.4590   27.5080   40.8170 C   0  0  0  0  0  0  0  0  0  0  0  0
   41.3750   28.1880   39.9370 C   0  0  0  0  0  0  0  0  0  0  0  0
   41.1850   29.9880   40.4880 S   0  0  0  0  0  0  0  0  0  0  0  0
  1 12  1  0  0  0  0
  2  1  1  0  0  0  0
  2  9  1  0  0  0  0
  3  2  2  0  0  0  0
  4  6  1  0  0  0  0
  4  3  1  0  0  0  0
  5  4  2  0  0  0  0
  6  7  1  0  0  0  0
  7  8  2  0  0  0  0
  7  1  1  0  0  0  0
 10  3  1  0  0  0  0
 11 16  1  0  0  0  0
 12 11  2  0  0  0  0
 12 13  1  0  0  0  0
 13 14  2  0  0  0  0
 14 15  1  0  0  0  0
 15 19  1  0  0  0  0
 16 15  2  0  0  0  0
 17 11  1  0  0  0  0
 18 13  1  0  0  0  0
 20  6  1  0  0  0  0
 21 20  1  0  0  0  0
 21 26  1  0  0  0  0
 22 21  2  0  0  0  0
 23 24  2  0  0  0  0
 23 22  1  0  0  0  0
 24 25  1  0  0  0  0
 25 20  2  0  0  0  0
 27 22  1  0  0  0  0
 28 23  1  0  0  0  0
 29 24  1  0  0  0  0
 30 29  2  0  0  0  0
 31 30  1  0  0  0  0
 32 33  1  0  0  0  0
 32 31  2  0  0  0  0
 33 29  1  0  0  0  0
M  END
>  <minimizedAffinity>
-5.32450342

>  <minimizedRMSD>
0.786828935

$$$$
