
 OpenBabel03252514023D

 27 29  0  0  1  0  0  0  0  0999 V2000
   35.3340   29.4340   49.0270 C   0  0  2  0  0  0  0  0  0  0  0  0
   34.2200   29.4080   49.9830 C   0  0  0  0  0  0  0  0  0  0  0  0
   34.5440   28.1450   49.3390 C   0  0  1  0  0  0  0  0  0  0  0  0
   35.2390   29.7600   47.9890 H   0  0  0  0  0  0  0  0  0  0  0  0
   34.4930   29.6380   51.0400 H   0  0  0  0  0  0  0  0  0  0  0  0
   33.2650   29.9460   49.7060 H   0  0  0  0  0  0  0  0  0  0  0  0
   35.1990   27.3690   49.7590 H   0  0  0  0  0  0  0  0  0  0  0  0
   36.7500   29.3860   49.6080 C   0  0  0  0  0  0  0  0  0  0  0  0
   37.2400   28.4240   49.3580 H   0  0  0  0  0  0  0  0  0  0  0  0
   36.6570   29.4480   50.7050 H   0  0  0  0  0  0  0  0  0  0  0  0
   38.1970   32.7480   49.4640 C   0  0  0  0  0  0  0  0  0  0  0  0
   38.8170   32.7720   48.2050 C   0  0  0  0  0  0  0  0  0  0  0  0
   38.7280   31.6140   47.4130 C   0  0  0  0  0  0  0  0  0  0  0  0
   38.0370   30.5280   47.9180 N   0  0  0  0  0  0  0  0  0  0  0  0
   37.4670   30.5660   49.1240 C   0  0  0  0  0  0  0  0  0  0  0  0
   37.5520   31.6800   49.8880 N   0  0  0  0  0  0  0  0  0  0  0  0
   38.2570   33.6260   50.0820 H   0  0  0  0  0  0  0  0  0  0  0  0
   39.3320   33.6470   47.8850 H   0  0  0  0  0  0  0  0  0  0  0  0
   39.1930   31.5940   46.4360 H   0  0  0  0  0  0  0  0  0  0  0  0
   33.5700   27.6710   48.2980 C   0  0  0  0  0  0  0  0  0  0  0  0
   33.9400   26.6120   47.6570 O   0  0  0  0  0  0  0  0  0  0  0  0
   32.3530   28.2670   48.0100 O   0  0  0  0  0  0  0  0  0  0  0  0
   31.1930   27.5270   47.7730 C   0  0  0  0  0  3  0  0  0  0  0  0
   30.6810   26.7870   48.9710 C   0  0  0  0  0  2  0  0  0  0  0  0
   29.9400   27.8810   49.7120 C   0  0  0  0  0  2  0  0  0  0  0  0
   29.1090   28.4770   48.6130 C   0  0  0  0  0  2  0  0  0  0  0  0
   30.0520   28.4610   47.4310 C   0  0  0  0  0  2  0  0  0  0  0  0
  1  4  1  6  0  0  0
  1  3  1  0  0  0  0
  1  8  1  0  0  0  0
  1  2  1  0  0  0  0
  2  5  1  0  0  0  0
  3  7  1  1  0  0  0
  3  2  1  0  0  0  0
  6  2  1  0  0  0  0
  8 10  1  0  0  0  0
  9  8  1  0  0  0  0
 11 16  1  0  0  0  0
 11 17  1  0  0  0  0
 12 11  2  0  0  0  0
 13 14  2  0  0  0  0
 13 12  1  0  0  0  0
 14 15  1  0  0  0  0
 15  8  1  0  0  0  0
 15 16  2  0  0  0  0
 18 12  1  0  0  0  0
 19 13  1  0  0  0  0
 20  3  1  0  0  0  0
 21 20  2  0  0  0  0
 22 20  1  0  0  0  0
 23 22  1  0  0  0  0
 23 24  1  0  0  0  0
 24 25  1  0  0  0  0
 26 25  1  0  0  0  0
 27 23  1  0  0  0  0
 27 26  1  0  0  0  0
M  END
>  <minimizedAffinity>
-5.2249651

>  <minimizedRMSD>
0.538160861

$$$$
