
 OpenBabel03252513313D

 45 49  0  0  0  0  0  0  0  0999 V2000
   33.3000   27.7850   48.5960 C   0  0  0  0  0  0  0  0  0  0  0  0
   32.4070   28.0480   49.2090 H   0  0  0  0  0  0  0  0  0  0  0  0
   34.0570   27.4610   49.3360 H   0  0  0  0  0  0  0  0  0  0  0  0
   31.6870   26.2360   47.5740 C   0  0  0  0  0  0  0  0  0  0  0  0
   31.3950   25.1520   46.8260 C   0  0  0  0  0  0  0  0  0  0  0  0
   32.3580   24.3510   46.2270 C   0  0  0  0  0  0  0  0  0  0  0  0
   33.6720   24.7290   46.4410 C   0  0  0  0  0  0  0  0  0  0  0  0
   33.9920   25.8250   47.1970 C   0  0  0  0  0  0  0  0  0  0  0  0
   33.0060   26.5940   47.7730 C   0  0  0  0  0  0  0  0  0  0  0  0
   30.3610   24.8690   46.6690 H   0  0  0  0  0  0  0  0  0  0  0  0
   32.0590   23.4880   45.6360 H   0  0  0  0  0  0  0  0  0  0  0  0
   34.4190   24.0940   45.9670 H   0  0  0  0  0  0  0  0  0  0  0  0
   35.0370   26.0830   47.3360 H   0  0  0  0  0  0  0  0  0  0  0  0
   29.3070   27.6440   50.0090 C   0  0  0  0  0  0  0  0  0  0  0  0
   28.6450   28.6400   49.2420 C   0  0  0  0  0  0  0  0  0  0  0  0
   29.0450   28.7910   47.9110 C   0  0  0  0  0  0  0  0  0  0  0  0
   30.0430   27.9780   47.4210 N   0  0  0  0  0  0  0  0  0  0  0  0
   30.6400   27.0490   48.1850 C   0  0  0  0  0  0  0  0  0  0  0  0
   30.2600   26.9050   49.4520 N   0  0  0  0  0  0  0  0  0  0  0  0
   28.9870   27.5390   51.0370 H   0  0  0  0  0  0  0  0  0  0  0  0
   28.5700   29.5280   47.3080 H   0  0  0  0  0  0  0  0  0  0  0  0
   27.5740   29.4960   49.8010 C   0  0  0  0  0  0  0  0  0  0  0  0
   28.0470   30.6020   50.4540 F   0  0  0  0  0  0  0  0  0  0  0  0
   26.7740   28.8030   50.6890 F   0  0  0  0  0  0  0  0  0  0  0  0
   26.7530   29.9490   48.7470 F   0  0  0  0  0  0  0  0  0  0  0  0
   33.6530   29.0040   47.8230 C   0  0  0  0  0  0  0  0  0  0  0  0
   33.5940   28.7440   46.7360 H   0  0  0  0  0  0  0  0  0  0  0  0
   32.9140   29.8380   47.9830 H   0  0  0  0  0  0  0  0  0  0  0  0
   34.9740   29.4980   48.2110 C   0  0  0  0  0  0  0  0  0  0  0  0
   35.6900   28.9920   49.2810 C   0  0  0  0  0  0  0  0  0  0  0  0
   36.8880   29.6660   49.3880 C   0  0  0  0  0  0  0  0  0  0  0  0
   36.8560   30.5760   48.3560 N   0  0  0  0  0  0  0  0  0  0  0  0
   35.7340   30.4780   47.6650 N   0  0  0  0  0  0  0  0  0  0  0  0
   35.5350   28.2200   50.0220 H   0  0  0  0  0  0  0  0  0  0  0  0
   37.7330   29.5940   50.0710 H   0  0  0  0  0  0  0  0  0  0  0  0
   37.8300   31.5450   47.9760 C   0  0  0  0  0  0  0  0  0  0  0  0
   38.1400   32.7260   48.6280 C   0  0  0  0  0  0  0  0  0  0  0  0
   39.1160   33.3790   47.9660 N   0  0  0  0  0  0  0  0  0  0  0  0
   39.4770   32.6720   46.8800 C   0  0  0  0  0  0  0  0  0  0  0  0
   40.4150   32.9130   45.9010 C   0  0  0  0  0  0  0  0  0  0  0  0
   40.5960   32.0030   44.8690 C   0  0  0  0  0  0  0  0  0  0  0  0
   39.7950   30.8610   44.8760 C   0  0  0  0  0  0  0  0  0  0  0  0
   38.8650   30.6470   45.8660 C   0  0  0  0  0  0  0  0  0  0  0  0
   38.6830   31.5400   46.8890 C   0  0  0  0  0  0  0  0  0  0  0  0
   39.4750   34.2800   48.3070 H   0  0  0  0  0  0  0  0  0  0  0  0
  1  2  1  0  0  0  0
  1  3  1  0  0  0  0
  4  9  1  0  0  0  0
  4 18  1  0  0  0  0
  5  4  2  0  0  0  0
  6  7  2  0  0  0  0
  6  5  1  0  0  0  0
  7  8  1  0  0  0  0
  8 13  1  0  0  0  0
  8  9  2  0  0  0  0
  9  1  1  0  0  0  0
 10  5  1  0  0  0  0
 11  6  1  0  0  0  0
 12  7  1  0  0  0  0
 14 20  1  0  0  0  0
 15 22  1  0  0  0  0
 15 14  2  0  0  0  0
 16 15  1  0  0  0  0
 17 16  2  0  0  0  0
 17 18  1  0  0  0  0
 18 19  2  0  0  0  0
 19 14  1  0  0  0  0
 21 16  1  0  0  0  0
 22 23  1  0  0  0  0
 22 24  1  0  0  0  0
 25 22  1  0  0  0  0
 26 28  1  0  0  0  0
 26 29  1  0  0  0  0
 26  1  1  0  0  0  0
 27 26  1  0  0  0  0
 29 30  1  0  0  0  0
 30 31  2  0  0  0  0
 30 34  1  0  0  0  0
 31 35  1  0  0  0  0
 32 31  1  0  0  0  0
 33 29  2  0  0  0  0
 33 32  1  0  0  0  0
 36 32  1  0  0  0  0
 36 37  2  0  0  0  0
 38 45  1  0  0  0  0
 38 37  1  0  0  0  0
 39 44  1  0  0  0  0
 39 38  1  0  0  0  0
 40 39  2  0  0  0  0
 41 42  2  0  0  0  0
 41 40  1  0  0  0  0
 42 43  1  0  0  0  0
 43 44  2  0  0  0  0
 44 36  1  0  0  0  0
M  END
>  <minimizedAffinity>
-8.15398788

>  <minimizedRMSD>
1.88976049

$$$$
