
 OpenBabel03252514043D

 34 37  0  0  1  0  0  0  0  0999 V2000
   35.2540   29.1360   48.5180 C   0  0  2  0  0  0  0  0  0  0  0  0
   33.9980   29.3860   49.2170 C   0  0  0  0  0  0  0  0  0  0  0  0
   34.3180   27.9960   49.0410 C   0  0  1  0  0  0  0  0  0  0  0  0
   35.4060   29.2090   47.4440 H   0  0  0  0  0  0  0  0  0  0  0  0
   34.0770   29.8320   50.2520 H   0  0  0  0  0  0  0  0  0  0  0  0
   33.1830   29.8820   48.6290 H   0  0  0  0  0  0  0  0  0  0  0  0
   34.8190   27.3180   49.7300 H   0  0  0  0  0  0  0  0  0  0  0  0
   36.5330   29.2030   49.3670 C   0  0  0  0  0  0  0  0  0  0  0  0
   37.1520   28.3140   49.1990 H   0  0  0  0  0  0  0  0  0  0  0  0
   36.2480   29.1840   50.4370 H   0  0  0  0  0  0  0  0  0  0  0  0
   37.5580   32.7040   49.6040 C   0  0  0  0  0  0  0  0  0  0  0  0
   38.4460   32.8370   48.5240 C   0  0  0  0  0  0  0  0  0  0  0  0
   38.6810   31.6990   47.7200 C   0  0  0  0  0  0  0  0  0  0  0  0
   38.0330   30.5340   48.0370 N   0  0  0  0  0  0  0  0  0  0  0  0
   37.1890   30.4700   49.0910 C   0  0  0  0  0  0  0  0  0  0  0  0
   36.9620   31.5590   49.8620 N   0  0  0  0  0  0  0  0  0  0  0  0
   37.4550   33.6340   50.1490 H   0  0  0  0  0  0  0  0  0  0  0  0
   38.9910   33.7210   48.2170 H   0  0  0  0  0  0  0  0  0  0  0  0
   39.3300   31.6610   46.8720 H   0  0  0  0  0  0  0  0  0  0  0  0
   33.5040   27.2790   47.9790 C   0  0  0  0  0  0  0  0  0  0  0  0
   33.8950   26.0610   47.7860 O   0  0  0  0  0  0  0  0  0  0  0  0
   32.4350   27.7990   47.2530 O   0  0  0  0  0  0  0  0  0  0  0  0
   31.2050   28.0500   47.7950 C   0  0  0  0  0  0  0  0  0  0  0  0
   30.7590   27.6150   49.1370 C   0  0  0  0  0  0  0  0  0  0  0  0
   29.5110   27.9400   49.5350 C   0  0  0  0  0  0  0  0  0  0  0  0
   28.6470   28.6750   48.7000 C   0  0  0  0  0  0  0  0  0  0  0  0
   29.6630   28.9580   47.1830 S   0  0  0  0  0  0  0  0  0  0  0  0
   31.4460   27.0660   49.7250 H   0  0  0  0  0  0  0  0  0  0  0  0
   29.0860   27.6760   50.4860 H   0  0  0  0  0  0  0  0  0  0  0  0
   27.3410   29.1520   48.8220 C   0  0  0  0  0  0  0  0  0  0  0  0
   26.9530   30.4330   48.6920 C   0  0  0  0  0  3  0  0  0  0  0  0
   25.6380   30.7740   48.8340 C   0  0  0  0  0  3  0  0  0  0  0  0
   24.7340   29.6720   49.1260 C   0  0  0  0  0  3  0  0  0  0  0  0
   25.9480   28.2140   49.1610 S   0  0  0  0  0  0  0  0  0  0  0  0
  1  4  1  6  0  0  0
  1  3  1  0  0  0  0
  1  2  1  0  0  0  0
  1  8  1  0  0  0  0
  2  5  1  0  0  0  0
  3  2  1  0  0  0  0
  3  7  1  1  0  0  0
  6  2  1  0  0  0  0
  8 10  1  0  0  0  0
  9  8  1  0  0  0  0
 11 16  1  0  0  0  0
 11 17  1  0  0  0  0
 12 11  2  0  0  0  0
 13 14  2  0  0  0  0
 13 12  1  0  0  0  0
 14 15  1  0  0  0  0
 15  8  1  0  0  0  0
 15 16  2  0  0  0  0
 18 12  1  0  0  0  0
 19 13  1  0  0  0  0
 20  3  1  0  0  0  0
 21 20  2  0  0  0  0
 22 23  1  0  0  0  0
 22 20  1  0  0  0  0
 23 24  2  0  0  0  0
 24 25  1  0  0  0  0
 24 28  1  0  0  0  0
 25 29  1  0  0  0  0
 26 30  1  0  0  0  0
 26 25  2  0  0  0  0
 27 23  1  0  0  0  0
 27 26  1  0  0  0  0
 30 34  1  0  0  0  0
 31 30  2  0  0  0  0
 31 32  1  0  0  0  0
 32 33  2  0  0  0  0
 33 34  1  0  0  0  0
M  END
>  <minimizedAffinity>
-6.1651969

>  <minimizedRMSD>
1.82880974

$$$$
