
 OpenBabel03252514023D

 31 33  0  0  1  0  0  0  0  0999 V2000
   35.5150   29.5280   49.2090 C   0  0  2  0  0  0  0  0  0  0  0  0
   34.5070   29.4970   50.2760 C   0  0  0  0  0  0  0  0  0  0  0  0
   34.7680   28.2370   49.5920 C   0  0  1  0  0  0  0  0  0  0  0  0
   35.2700   29.9130   48.2190 H   0  0  0  0  0  0  0  0  0  0  0  0
   34.9030   29.5610   51.3270 H   0  0  0  0  0  0  0  0  0  0  0  0
   33.5120   29.9820   50.2050 H   0  0  0  0  0  0  0  0  0  0  0  0
   35.4770   27.4320   49.8620 H   0  0  0  0  0  0  0  0  0  0  0  0
   36.9820   29.4780   49.6300 C   0  0  0  0  0  0  0  0  0  0  0  0
   36.9970   29.5550   50.7350 H   0  0  0  0  0  0  0  0  0  0  0  0
   37.3920   28.5180   49.2950 H   0  0  0  0  0  0  0  0  0  0  0  0
   38.3800   32.8480   49.2700 C   0  0  0  0  0  0  0  0  0  0  0  0
   38.9070   32.8290   47.9690 C   0  0  0  0  0  0  0  0  0  0  0  0
   38.7750   31.6470   47.2250 C   0  0  0  0  0  0  0  0  0  0  0  0
   38.1360   30.5760   47.8140 N   0  0  0  0  0  0  0  0  0  0  0  0
   37.6530   30.6470   49.0550 C   0  0  0  0  0  0  0  0  0  0  0  0
   37.7780   31.7850   49.7770 N   0  0  0  0  0  0  0  0  0  0  0  0
   38.4790   33.7540   49.8510 H   0  0  0  0  0  0  0  0  0  0  0  0
   39.3940   33.7230   47.5910 H   0  0  0  0  0  0  0  0  0  0  0  0
   39.1760   31.6390   46.2420 H   0  0  0  0  0  0  0  0  0  0  0  0
   33.6740   27.7820   48.6630 C   0  0  0  0  0  0  0  0  0  0  0  0
   34.0770   27.0260   47.6910 O   0  0  0  0  0  0  0  0  0  0  0  0
   32.3250   28.0850   48.7650 O   0  0  0  0  0  0  0  0  0  0  0  0
   31.4290   27.5960   47.8250 C   0  0  0  0  0  0  0  0  0  0  0  0
   30.7980   26.3690   47.7920 C   0  0  0  0  0  0  0  0  0  0  0  0
   31.0490   25.7250   48.6080 H   0  0  0  0  0  0  0  0  0  0  0  0
   29.9280   26.0830   46.7470 C   0  0  0  0  0  3  0  0  0  0  0  0
   29.7020   27.0180   45.7580 C   0  0  0  0  0  0  0  0  0  0  0  0
   29.0120   26.7820   44.9360 H   0  0  0  0  0  0  0  0  0  0  0  0
   30.3260   28.2590   45.7720 C   0  0  0  0  0  0  0  0  0  0  0  0
   30.1250   28.9770   44.9730 H   0  0  0  0  0  0  0  0  0  0  0  0
   31.2010   28.5450   46.8240 C   0  0  0  0  0  3  0  0  0  0  0  0
  1  4  1  6  0  0  0
  1  3  1  0  0  0  0
  1  8  1  0  0  0  0
  1  2  1  0  0  0  0
  2  5  1  0  0  0  0
  3  7  1  1  0  0  0
  3  2  1  0  0  0  0
  6  2  1  0  0  0  0
  8  9  1  0  0  0  0
 10  8  1  0  0  0  0
 11 16  1  0  0  0  0
 11 17  1  0  0  0  0
 12 11  2  0  0  0  0
 13 14  2  0  0  0  0
 13 12  1  0  0  0  0
 14 15  1  0  0  0  0
 15  8  1  0  0  0  0
 15 16  2  0  0  0  0
 18 12  1  0  0  0  0
 19 13  1  0  0  0  0
 20 22  1  0  0  0  0
 20  3  1  0  0  0  0
 21 20  2  0  0  0  0
 23 22  1  0  0  0  0
 24 23  1  0  0  0  0
 24 25  1  0  0  0  0
 26 24  2  0  0  0  0
 27 29  2  0  0  0  0
 27 26  1  0  0  0  0
 28 27  1  0  0  0  0
 29 31  1  0  0  0  0
 30 29  1  0  0  0  0
 31 23  2  0  0  0  0
M  END
>  <minimizedAffinity>
-4.90418005

>  <minimizedRMSD>
0.345047683

$$$$
