
     RDKit          3D

 33 35  0  0  0  0  0  0  0  0999 V2000
   36.8921   29.4384   49.6609 C   0  0  0  0  0  0  0  0  0  0  0  0
   38.4262   32.7553   49.3729 C   0  0  0  0  0  0  0  0  0  0  0  0
   38.9389   32.7486   48.0665 C   0  0  0  0  0  0  0  0  0  0  0  0
   38.7496   31.5931   47.2933 C   0  0  0  0  0  0  0  0  0  0  0  0
   38.0726   30.5350   47.8611 N   0  0  0  0  0  0  0  0  0  0  0  0
   37.6046   30.5926   49.1092 C   0  0  0  0  0  0  0  0  0  0  0  0
   37.7852   31.7054   49.8586 N   0  0  0  0  0  0  0  0  0  0  0  0
   35.4333   29.5370   49.2207 C   0  0  2  0  0  0  0  0  0  0  0  0
   34.4066   29.4599   50.2694 C   0  0  0  0  0  0  0  0  0  0  0  0
   34.6600   28.2381   49.5151 C   0  0  1  0  0  0  0  0  0  0  0  0
   33.5740   27.8581   48.5454 C   0  0  0  0  0  0  0  0  0  0  0  0
   33.8706   26.8615   47.7722 O   0  0  0  0  0  0  0  0  0  0  0  0
   32.3293   28.4549   48.4218 O   0  0  0  0  0  0  0  0  0  0  0  0
   36.8936   29.5009   50.7666 H   0  0  0  0  0  0  0  0  0  0  0  0
   37.2769   28.4698   49.3187 H   0  0  0  0  0  0  0  0  0  0  0  0
   38.5675   33.6414   49.9758 H   0  0  0  0  0  0  0  0  0  0  0  0
   39.4588   33.6309   47.7057 H   0  0  0  0  0  0  0  0  0  0  0  0
   39.1397   31.5940   46.3060 H   0  0  0  0  0  0  0  0  0  0  0  0
   35.2099   29.9839   48.2527 H   0  0  0  0  0  0  0  0  0  0  0  0
   34.7872   29.4548   51.3284 H   0  0  0  0  0  0  0  0  0  0  0  0
   33.4206   29.9645   50.2121 H   0  0  0  0  0  0  0  0  0  0  0  0
   35.3513   27.4071   49.7485 H   0  0  0  0  0  0  0  0  0  0  0  0
   31.4214   27.9870   47.4831 C   0  0  0  0  0  0  0  0  0  0  0  0
   30.6526   26.8408   47.5219 C   0  0  0  0  0  0  0  0  0  0  0  0
   30.7924   26.2504   48.4027 H   0  0  0  0  0  0  0  0  0  0  0  0
   29.8000   26.5609   46.4632 C   0  0  0  0  0  0  0  0  0  0  0  0
   29.7255   27.4216   45.3866 C   0  0  0  0  0  0  0  0  0  0  0  0
   29.0472   27.1907   44.5536 H   0  0  0  0  0  0  0  0  0  0  0  0
   30.4893   28.5804   45.3261 C   0  0  0  0  0  0  0  0  0  0  0  0
   30.4065   29.2408   44.4589 H   0  0  0  0  0  0  0  0  0  0  0  0
   31.3475   28.8599   46.3940 C   0  0  0  0  0  0  0  0  0  0  0  0
   29.2150   25.6504   46.5351 H   0  0  0  0  0  0  0  0  0  0  0  0
   31.9001   29.7766   46.2630 H   0  0  0  0  0  0  0  0  0  0  0  0
  2  7  2  0
  3  2  1  0
  4  5  1  0
  4  3  2  0
  5  6  2  0
  6  1  1  0
  6  7  1  0
  8 10  1  0
  8  1  1  0
  8  9  1  0
 10  9  1  0
 11 10  1  0
 12 11  2  0
 13 11  1  0
  1 14  1  0
  1 15  1  0
  2 16  1  0
  3 17  1  0
  4 18  1  0
  8 19  1  6
  9 20  1  0
  9 21  1  0
 10 22  1  1
 23 24  2  0
 24 25  1  0
 24 26  1  0
 26 27  2  0
 27 28  1  0
 27 29  1  0
 29 30  1  0
 29 31  2  0
 31 23  1  0
 26 32  1  0
 31 33  1  0
 13 23  1  0
M  ISO  8  14   8  15   8  16  14  17  14  18  14  19  13  20  13  21  13
M  ISO  4  22  13  25  16  28  16  30  16
M  END
>  <DihAtoms>  (1) 
10,12,22,23

>  <DihDeg>  (1) 
-89.99106430559324

$$$$
