REMARK  Name = 
REMARK  5 active torsions:
REMARK  status: ('A' for Active; 'I' for Inactive)
REMARK    1  A    between atoms: C_1  and  C_6
REMARK    2  A    between atoms: C_1  and  C_8
REMARK    3  A    between atoms: C_10  and  C_11
REMARK    4  A    between atoms: C_11  and  O_13
REMARK    5  A    between atoms: O_13  and  C_23
REMARK                            x       y       z     vdW  Elec       q    Type
REMARK                         _______ _______ _______ _____ _____    ______ ____
ROOT
ATOM      1  C   UNL     1      35.433  29.537  49.221  0.00  0.00    +0.000 C 
ATOM      2  C   UNL     1      34.407  29.460  50.269  0.00  0.00    +0.000 C 
ATOM      3  C   UNL     1      34.660  28.238  49.515  0.00  0.00    +0.000 C 
ATOM      4  H   UNL     1      35.210  29.984  48.253  0.00  0.00    +0.000 HD
ATOM      5  H   UNL     1      34.787  29.455  51.328  0.00  0.00    +0.000 HD
ATOM      6  H   UNL     1      33.421  29.965  50.212  0.00  0.00    +0.000 HD
ATOM      7  H   UNL     1      35.351  27.407  49.748  0.00  0.00    +0.000 HD
ENDROOT
BRANCH   1   8
ATOM      8  C   UNL     1      36.892  29.438  49.661  0.00  0.00    +0.000 C 
ATOM      9  H   UNL     1      36.894  29.501  50.767  0.00  0.00    +0.000 HD
ATOM     10  H   UNL     1      37.277  28.470  49.319  0.00  0.00    +0.000 HD
BRANCH   8  15
ATOM     11  C   UNL     1      38.426  32.755  49.373  0.00  0.00    +0.000 A 
ATOM     12  C   UNL     1      38.939  32.749  48.066  0.00  0.00    +0.000 A 
ATOM     13  C   UNL     1      38.750  31.593  47.293  0.00  0.00    +0.000 A 
ATOM     14  N   UNL     1      38.073  30.535  47.861  0.00  0.00    +0.000 NA
ATOM     15  C   UNL     1      37.605  30.593  49.109  0.00  0.00    +0.000 A 
ATOM     16  N   UNL     1      37.785  31.705  49.859  0.00  0.00    +0.000 NA
ATOM     17  H   UNL     1      38.568  33.641  49.976  0.00  0.00    +0.000 HD
ATOM     18  H   UNL     1      39.459  33.631  47.706  0.00  0.00    +0.000 HD
ATOM     19  H   UNL     1      39.140  31.594  46.306  0.00  0.00    +0.000 HD
ENDBRANCH   8  15
ENDBRANCH   1   8
BRANCH   3  20
ATOM     20  C   UNL     1      33.574  27.858  48.545  0.00  0.00    +0.000 C 
ATOM     21  O   UNL     1      33.871  26.861  47.772  0.00  0.00    +0.000 OA
BRANCH  20  22
ATOM     22  O   UNL     1      32.329  28.455  48.422  0.00  0.00    +0.000 OA
BRANCH  22  23
ATOM     23  C   UNL     1      31.421  27.987  47.483  0.00  0.00    +0.000 A 
ATOM     24  C   UNL     1      30.864  26.729  47.374  0.00  0.00    +0.000 A 
ATOM     25  H   UNL     1      31.190  26.039  48.123  0.00  0.00    +0.000 HD
ATOM     26  C   UNL     1      29.966  26.473  46.346  0.00  0.00    +0.000 A 
ATOM     27  C   UNL     1      29.639  27.468  45.448  0.00  0.00    +0.000 A 
ATOM     28  H   UNL     1      28.927  27.255  44.638  0.00  0.00    +0.000 HD
ATOM     29  C   UNL     1      30.187  28.741  45.538  0.00  0.00    +0.000 A 
ATOM     30  H   UNL     1      29.907  29.506  44.810  0.00  0.00    +0.000 HD
ATOM     31  C   UNL     1      31.091  28.996  46.574  0.00  0.00    +0.000 A 
ENDBRANCH  22  23
ENDBRANCH  20  22
ENDBRANCH   3  20
TORSDOF 5
