REMARK  Name = 
REMARK  7 active torsions:
REMARK  status: ('A' for Active; 'I' for Inactive)
REMARK    1  A    between atoms: N_1  and  C_12
REMARK    2  A    between atoms: C_5  and  N_10
REMARK    3  A    between atoms: C_15  and  C_17
REMARK    4  A    between atoms: C_17  and  C_18
REMARK    5  A    between atoms: C_17  and  C_19
REMARK    6  A    between atoms: C_17  and  C_20
REMARK    7  A    between atoms: C_20  and  C_35
REMARK                            x       y       z     vdW  Elec       q    Type
REMARK                         _______ _______ _______ _____ _____    ______ ____
ROOT
ATOM      1  C   UNL     1      34.659  29.985  47.395  0.00  0.00    +0.000 A 
ATOM      2  C   UNL     1      35.519  29.893  48.491  0.00  0.00    +0.000 A 
ATOM      3  C   UNL     1      35.430  28.732  49.272  0.00  0.00    +0.000 A 
ATOM      4  N   UNL     1      34.532  27.780  48.930  0.00  0.00    +0.000 NA
ATOM      5  C   UNL     1      33.714  27.894  47.867  0.00  0.00    +0.000 A 
ATOM      6  N   UNL     1      33.788  29.000  47.109  0.00  0.00    +0.000 NA
ATOM      7  H   UNL     1      34.701  30.872  46.767  0.00  0.00    +0.000 HD
ATOM      8  H   UNL     1      36.098  28.665  50.120  0.00  0.00    +0.000 HD
ENDROOT
BRANCH   2   9
ATOM      9  N   UNL     1      36.412  30.968  48.734  0.00  0.00    +0.000 N 
ATOM     10  C   UNL     1      36.385  31.738  49.859  0.00  0.00    +0.000 A 
ATOM     11  N   UNL     1      37.365  32.661  49.775  0.00  0.00    +0.000 NA
ATOM     12  C   UNL     1      37.988  32.460  48.607  0.00  0.00    +0.000 A 
ATOM     13  C   UNL     1      39.054  33.073  47.961  0.00  0.00    +0.000 A 
ATOM     14  N   UNL     1      39.481  32.659  46.767  0.00  0.00    +0.000 NA
ATOM     15  C   UNL     1      38.898  31.621  46.125  0.00  0.00    +0.000 A 
ATOM     16  N   UNL     1      37.870  31.033  46.754  0.00  0.00    +0.000 NA
ATOM     17  C   UNL     1      37.398  31.403  47.949  0.00  0.00    +0.000 A 
ATOM     18  H   UNL     1      35.718  31.668  50.708  0.00  0.00    +0.000 HD
ATOM     19  H   UNL     1      39.309  31.365  45.177  0.00  0.00    +0.000 HD
BRANCH  13  20
ATOM     20  N   UNL     1      39.692  34.163  48.617  0.00  0.00    +0.000 N 
ATOM     21  H   UNL     1      40.010  35.062  48.203  0.00  0.00    +0.000 HD
ATOM     22  H   UNL     1      39.924  34.181  49.644  0.00  0.00    +0.000 HD
ENDBRANCH  13  20
ENDBRANCH   2   9
BRANCH   5  23
ATOM     23  C   UNL     1      32.739  26.845  47.510  0.00  0.00    +0.000 C 
BRANCH  23  24
ATOM     24  C   UNL     1      31.549  26.889  48.453  0.00  0.00    +0.000 C 
ATOM     25  H   UNL     1      31.885  26.918  49.519  0.00  0.00    +0.000 HD
ATOM     26  H   UNL     1      30.891  26.027  48.263  0.00  0.00    +0.000 HD
ATOM     27  H   UNL     1      31.042  27.863  48.273  0.00  0.00    +0.000 HD
ENDBRANCH  23  24
BRANCH  23  28
ATOM     28  C   UNL     1      32.161  27.114  46.115  0.00  0.00    +0.000 C 
ATOM     29  H   UNL     1      32.962  27.367  45.393  0.00  0.00    +0.000 HD
ATOM     30  H   UNL     1      31.531  28.033  46.213  0.00  0.00    +0.000 HD
ATOM     31  H   UNL     1      31.540  26.257  45.853  0.00  0.00    +0.000 HD
ENDBRANCH  23  28
BRANCH  23  32
ATOM     32  C   UNL     1      33.326  25.468  47.441  0.00  0.00    +0.000 C 
ATOM     33  H   UNL     1      33.801  25.275  48.440  0.00  0.00    +0.000 HD
ATOM     34  H   UNL     1      32.518  24.744  47.222  0.00  0.00    +0.000 HD
BRANCH  32  35
ATOM     35  C   UNL     1      34.407  25.370  46.428  0.00  0.00    +0.000 A 
ATOM     36  C   UNL     1      34.887  26.360  45.608  0.00  0.00    +0.000 A 
ATOM     37  C   UNL     1      35.906  26.093  44.717  0.00  0.00    +0.000 A 
ATOM     38  H   UNL     1      36.276  26.882  44.075  0.00  0.00    +0.000 HD
ATOM     39  N   UNL     1      36.424  24.854  44.660  0.00  0.00    +0.000 NA
ATOM     40  C   UNL     1      35.967  23.855  45.462  0.00  0.00    +0.000 A 
ATOM     41  N   UNL     1      34.975  24.142  46.319  0.00  0.00    +0.000 NA
ENDBRANCH  32  35
ENDBRANCH  23  32
ENDBRANCH   5  23
TORSDOF 7
