
 OpenBabel03252514043D

 36 39  0  0  1  0  0  0  0  0999 V2000
   36.0150   29.7940   48.8520 C   0  0  2  0  0  0  0  0  0  0  0  0
   34.9230   30.3640   49.6360 C   0  0  0  0  0  0  0  0  0  0  0  0
   35.0690   28.9450   49.7670 C   0  0  1  0  0  0  0  0  0  0  0  0
   35.9240   29.5930   47.7850 H   0  0  0  0  0  0  0  0  0  0  0  0
   34.0800   30.8570   49.0750 H   0  0  0  0  0  0  0  0  0  0  0  0
   35.2020   31.0030   50.5130 H   0  0  0  0  0  0  0  0  0  0  0  0
   35.6080   28.4230   50.5570 H   0  0  0  0  0  0  0  0  0  0  0  0
   37.4160   29.8860   49.4820 C   0  0  0  0  0  0  0  0  0  0  0  0
   37.9150   28.9370   49.1920 H   0  0  0  0  0  0  0  0  0  0  0  0
   37.3290   29.9620   50.5780 H   0  0  0  0  0  0  0  0  0  0  0  0
   38.8440   33.2440   49.3580 C   0  0  0  0  0  0  0  0  0  0  0  0
   39.2480   33.3560   48.0090 C   0  0  0  0  0  0  0  0  0  0  0  0
   39.0150   32.2500   47.1580 C   0  0  0  0  0  0  0  0  0  0  0  0
   38.4120   31.1410   47.6950 N   0  0  0  0  0  0  0  0  0  0  0  0
   38.0510   31.0910   48.9770 C   0  0  0  0  0  0  0  0  0  0  0  0
   38.2720   32.1490   49.8000 N   0  0  0  0  0  0  0  0  0  0  0  0
   39.0630   34.1380   49.9320 H   0  0  0  0  0  0  0  0  0  0  0  0
   39.7210   34.2500   47.6240 H   0  0  0  0  0  0  0  0  0  0  0  0
   39.3180   32.3190   46.1220 H   0  0  0  0  0  0  0  0  0  0  0  0
   34.0300   28.1090   49.0490 C   0  0  0  0  0  0  0  0  0  0  0  0
   32.8200   28.3820   49.4140 O   0  0  0  0  0  0  0  0  0  0  0  0
   34.2770   27.1420   48.0840 O   0  0  0  0  0  0  0  0  0  0  0  0
   33.3100   26.5620   47.3200 C   0  0  0  0  0  0  0  0  0  0  0  0
   33.0320   26.9120   45.9160 C   0  0  0  0  0  0  0  0  0  0  0  0
   32.0470   26.2740   45.2370 C   0  0  0  0  0  0  0  0  0  0  0  0
   31.2880   25.2690   45.8930 C   0  0  0  0  0  0  0  0  0  0  0  0
   32.0200   25.2180   47.6040 S   0  0  0  0  0  0  0  0  0  0  0  0
   33.6380   27.6830   45.4680 H   0  0  0  0  0  0  0  0  0  0  0  0
   31.7940   26.4790   44.2140 H   0  0  0  0  0  0  0  0  0  0  0  0
   30.2640   24.4800   45.4740 C   0  0  0  0  0  0  0  0  0  0  0  0
   29.1700   24.9750   44.7890 C   0  0  0  0  0  3  0  0  0  0  0  0
   28.1250   24.1810   44.3580 C   0  0  0  0  0  3  0  0  0  0  0  0
   28.2140   22.8580   44.6390 N   0  0  0  0  0  0  0  0  0  0  0  0
   29.2670   22.3420   45.3050 C   0  0  0  0  0  0  0  0  0  0  0  0
   29.2840   21.2820   45.5010 H   0  0  0  0  0  0  0  0  0  0  0  0
   30.2650   23.1560   45.7070 N   0  0  0  0  0  0  0  0  0  0  0  0
  1  4  1  6  0  0  0
  1  8  1  0  0  0  0
  1  2  1  0  0  0  0
  1  3  1  0  0  0  0
  2  3  1  0  0  0  0
  2  6  1  0  0  0  0
  3  7  1  1  0  0  0
  5  2  1  0  0  0  0
  8 10  1  0  0  0  0
  9  8  1  0  0  0  0
 11 16  1  0  0  0  0
 11 17  1  0  0  0  0
 12 11  2  0  0  0  0
 13 14  2  0  0  0  0
 13 12  1  0  0  0  0
 14 15  1  0  0  0  0
 15  8  1  0  0  0  0
 15 16  2  0  0  0  0
 18 12  1  0  0  0  0
 19 13  1  0  0  0  0
 20 21  2  0  0  0  0
 20  3  1  0  0  0  0
 22 20  1  0  0  0  0
 23 27  1  0  0  0  0
 23 22  1  0  0  0  0
 24 23  2  0  0  0  0
 25 26  2  0  0  0  0
 25 24  1  0  0  0  0
 26 27  1  0  0  0  0
 28 24  1  0  0  0  0
 29 25  1  0  0  0  0
 30 36  1  0  0  0  0
 30 26  1  0  0  0  0
 31 30  2  0  0  0  0
 32 33  2  0  0  0  0
 32 31  1  0  0  0  0
 33 34  1  0  0  0  0
 34 35  1  0  0  0  0
 34 36  2  0  0  0  0
M  END
>  <minimizedAffinity>
-4.98803902

>  <minimizedRMSD>
3.56007433

$$$$
