
 OpenBabel03252514043D

 36 39  0  0  1  0  0  0  0  0999 V2000
   35.3170   29.2600   48.6700 C   0  0  2  0  0  0  0  0  0  0  0  0
   34.1210   29.2330   49.5070 C   0  0  0  0  0  0  0  0  0  0  0  0
   34.5420   27.9490   49.0320 C   0  0  1  0  0  0  0  0  0  0  0  0
   35.2860   29.5360   47.6170 H   0  0  0  0  0  0  0  0  0  0  0  0
   33.2060   29.7720   49.1280 H   0  0  0  0  0  0  0  0  0  0  0  0
   34.2520   29.4580   50.5960 H   0  0  0  0  0  0  0  0  0  0  0  0
   35.1590   27.2320   49.5730 H   0  0  0  0  0  0  0  0  0  0  0  0
   36.6610   29.3020   49.4180 C   0  0  0  0  0  0  0  0  0  0  0  0
   37.1930   28.3850   49.0890 H   0  0  0  0  0  0  0  0  0  0  0  0
   36.4850   29.2820   50.5060 H   0  0  0  0  0  0  0  0  0  0  0  0
   37.7320   32.7910   49.5410 C   0  0  0  0  0  0  0  0  0  0  0  0
   38.5720   32.8940   48.4100 C   0  0  0  0  0  0  0  0  0  0  0  0
   38.7540   31.7360   47.6170 C   0  0  0  0  0  0  0  0  0  0  0  0
   38.1030   30.5890   47.9950 N   0  0  0  0  0  0  0  0  0  0  0  0
   37.3210   30.5500   49.0740 C   0  0  0  0  0  0  0  0  0  0  0  0
   37.1430   31.6580   49.8400 N   0  0  0  0  0  0  0  0  0  0  0  0
   37.6540   33.7250   50.0860 H   0  0  0  0  0  0  0  0  0  0  0  0
   39.0670   33.8190   48.1460 H   0  0  0  0  0  0  0  0  0  0  0  0
   39.3930   31.7970   46.7470 H   0  0  0  0  0  0  0  0  0  0  0  0
   33.7010   27.3500   47.9240 C   0  0  0  0  0  0  0  0  0  0  0  0
   34.1060   26.1790   47.5560 O   0  0  0  0  0  0  0  0  0  0  0  0
   32.5920   27.9350   47.3260 O   0  0  0  0  0  0  0  0  0  0  0  0
   31.3540   27.9780   47.8920 C   0  0  0  0  0  0  0  0  0  0  0  0
   31.0000   27.3480   49.1760 C   0  0  0  0  0  0  0  0  0  0  0  0
   29.7380   27.4490   49.6590 C   0  0  0  0  0  0  0  0  0  0  0  0
   28.7630   28.1650   48.9160 C   0  0  0  0  0  0  0  0  0  0  0  0
   29.6990   28.7430   47.4140 S   0  0  0  0  0  0  0  0  0  0  0  0
   31.7790   26.8150   49.6980 H   0  0  0  0  0  0  0  0  0  0  0  0
   29.4140   27.0150   50.5870 H   0  0  0  0  0  0  0  0  0  0  0  0
   27.4490   28.4250   49.1470 C   0  0  0  0  0  0  0  0  0  0  0  0
   26.6100   28.9510   48.1830 C   0  0  0  0  0  3  0  0  0  0  0  0
   25.2730   29.2190   48.4080 C   0  0  0  0  0  3  0  0  0  0  0  0
   24.8000   28.9380   49.6470 N   0  0  0  0  0  0  0  0  0  0  0  0
   25.5910   28.4240   50.6120 C   0  0  0  0  0  0  0  0  0  0  0  0
   25.1610   28.2210   51.5780 H   0  0  0  0  0  0  0  0  0  0  0  0
   26.8910   28.1790   50.3450 N   0  0  0  0  0  0  0  0  0  0  0  0
  1  4  1  6  0  0  0
  1  3  1  0  0  0  0
  1  8  1  0  0  0  0
  1  2  1  0  0  0  0
  2  6  1  0  0  0  0
  3  2  1  0  0  0  0
  3  7  1  1  0  0  0
  5  2  1  0  0  0  0
  8 10  1  0  0  0  0
  9  8  1  0  0  0  0
 11 16  1  0  0  0  0
 11 17  1  0  0  0  0
 12 11  2  0  0  0  0
 13 14  2  0  0  0  0
 13 12  1  0  0  0  0
 14 15  1  0  0  0  0
 15  8  1  0  0  0  0
 15 16  2  0  0  0  0
 18 12  1  0  0  0  0
 19 13  1  0  0  0  0
 20  3  1  0  0  0  0
 21 20  2  0  0  0  0
 22 23  1  0  0  0  0
 22 20  1  0  0  0  0
 23 24  2  0  0  0  0
 24 25  1  0  0  0  0
 24 28  1  0  0  0  0
 25 29  1  0  0  0  0
 26 30  1  0  0  0  0
 26 25  2  0  0  0  0
 27 23  1  0  0  0  0
 27 26  1  0  0  0  0
 30 36  1  0  0  0  0
 31 32  1  0  0  0  0
 31 30  2  0  0  0  0
 32 33  2  0  0  0  0
 33 34  1  0  0  0  0
 34 35  1  0  0  0  0
 36 34  2  0  0  0  0
M  END
>  <minimizedAffinity>
-5.95863008

>  <minimizedRMSD>
1.57345092

$$$$
