
 OpenBabel03252513213D

 19 20  0  0  0  0  0  0  0  0999 V2000
   35.3060   29.1890   50.4690 C   0  0  0  0  0  0  0  0  0  0  0  0
   36.0960   30.1600   49.8080 C   0  0  0  0  0  0  0  0  0  0  0  0
   35.7800   30.4680   48.4770 C   0  0  0  0  0  0  0  0  0  0  0  0
   34.7200   29.8130   47.8880 N   0  0  0  0  0  0  0  0  0  0  0  0
   33.9920   28.8930   48.5570 C   0  0  0  0  0  0  0  0  0  0  0  0
   34.2940   28.5920   49.8370 N   0  0  0  0  0  0  0  0  0  0  0  0
   35.5540   28.9570   51.4850 H   0  0  0  0  0  0  0  0  0  0  0  0
   36.3450   31.2010   47.9170 H   0  0  0  0  0  0  0  0  0  0  0  0
   32.8810   28.2270   47.8900 C   0  0  0  0  0  0  0  0  0  0  0  0
   31.8850   27.6390   48.6410 C   0  0  0  0  0  0  0  0  0  0  0  0
   30.8520   27.0190   47.9440 C   0  0  0  0  0  0  0  0  0  0  0  0
   30.8670   27.0180   46.6030 N   0  0  0  0  0  0  0  0  0  0  0  0
   31.8360   27.5900   45.8720 C   0  0  0  0  0  0  0  0  0  0  0  0
   31.7740   27.5450   44.7890 H   0  0  0  0  0  0  0  0  0  0  0  0
   32.8410   28.1930   46.5460 N   0  0  0  0  0  0  0  0  0  0  0  0
   37.2310   30.8630   50.4420 C   0  0  0  0  0  0  0  0  0  0  0  0
   38.4440   30.5840   49.9230 F   0  0  0  0  0  0  0  0  0  0  0  0
   37.2850   30.5820   51.7970 F   0  0  0  0  0  0  0  0  0  0  0  0
   37.0290   32.2490   50.3340 F   0  0  0  0  0  0  0  0  0  0  0  0
  1  7  1  0  0  0  0
  2 16  1  0  0  0  0
  2  1  2  0  0  0  0
  3  2  1  0  0  0  0
  4  3  2  0  0  0  0
  4  5  1  0  0  0  0
  5  6  2  0  0  0  0
  6  1  1  0  0  0  0
  8  3  1  0  0  0  0
  9  5  1  0  0  0  0
  9 10  1  0  0  0  0
 11 10  2  0  0  0  0
 12 11  1  0  0  0  0
 13 15  1  0  0  0  0
 13 12  2  0  0  0  0
 14 13  1  0  0  0  0
 15  9  2  0  0  0  0
 16 18  1  0  0  0  0
 17 16  1  0  0  0  0
 19 16  1  0  0  0  0
M  END
>  <minimizedAffinity>
-4.90728045

>  <minimizedRMSD>
0.822728693

$$$$
