
     RDKit          3D

 42 45  0  0  0  0  0  0  0  0999 V2000
   36.4241   30.9579   48.7399 N   0  0  0  0  0  0  0  0  0  0  0  0
   36.3908   31.7268   49.8685 C   0  0  0  0  0  0  0  0  0  0  0  0
   37.3621   32.6619   49.7883 N   0  0  0  0  0  0  0  0  0  0  0  0
   37.9814   32.4625   48.6188 C   0  0  0  0  0  0  0  0  0  0  0  0
   39.0423   33.0809   47.9647 C   0  0  0  0  0  0  0  0  0  0  0  0
   39.4746   32.6731   46.7709 N   0  0  0  0  0  0  0  0  0  0  0  0
   38.8978   31.6243   46.1251 C   0  0  0  0  0  0  0  0  0  0  0  0
   37.8711   31.0224   46.7531 N   0  0  0  0  0  0  0  0  0  0  0  0
   37.4054   31.3944   47.9446 C   0  0  0  0  0  0  0  0  0  0  0  0
   39.6821   34.1771   48.5856 N   0  0  0  0  0  0  0  0  0  0  0  0
   34.6690   29.9726   47.3964 C   0  0  0  0  0  0  0  0  0  0  0  0
   35.5316   29.8776   48.5018 C   0  0  0  0  0  0  0  0  0  0  0  0
   35.4299   28.7304   49.2628 C   0  0  0  0  0  0  0  0  0  0  0  0
   34.5372   27.7763   48.9284 N   0  0  0  0  0  0  0  0  0  0  0  0
   33.7199   27.8949   47.8590 C   0  0  0  0  0  0  0  0  0  0  0  0
   33.7958   28.9916   47.1060 N   0  0  0  0  0  0  0  0  0  0  0  0
   32.7252   26.8411   47.4816 C   0  0  0  0  0  0  0  0  0  0  0  0
   31.5398   26.9163   48.4516 C   0  0  0  0  0  0  0  0  0  0  0  0
   32.1625   27.1238   46.1072 C   0  0  0  0  0  0  0  0  0  0  0  0
   33.3184   25.4742   47.4755 C   0  0  0  0  0  0  0  0  0  0  0  0
   35.7077   31.6262   50.7079 H   0  0  0  0  0  0  0  0  0  0  0  0
   39.2867   31.3349   45.1600 H   0  0  0  0  0  0  0  0  0  0  0  0
   40.4980   34.0578   49.2532 H   0  0  0  0  0  0  0  0  0  0  0  0
   39.2706   35.1073   48.3201 H   0  0  0  0  0  0  0  0  0  0  0  0
   34.6969   30.8540   46.7515 H   0  0  0  0  0  0  0  0  0  0  0  0
   36.0806   28.6486   50.1045 H   0  0  0  0  0  0  0  0  0  0  0  0
   30.6101   27.2537   47.9611 H   0  0  0  0  0  0  0  0  0  0  0  0
   31.7584   27.6736   49.2361 H   0  0  0  0  0  0  0  0  0  0  0  0
   31.4342   25.9541   49.0029 H   0  0  0  0  0  0  0  0  0  0  0  0
   32.7311   27.9887   45.6528 H   0  0  0  0  0  0  0  0  0  0  0  0
   32.2269   26.2350   45.4846 H   0  0  0  0  0  0  0  0  0  0  0  0
   31.0888   27.4336   46.1323 H   0  0  0  0  0  0  0  0  0  0  0  0
   33.7302   25.2503   48.5020 H   0  0  0  0  0  0  0  0  0  0  0  0
   34.2077   25.4668   46.8204 H   0  0  0  0  0  0  0  0  0  0  0  0
   32.3644   24.4194   47.1111 C   0  0  0  0  0  0  0  0  0  0  0  0
   31.0451   24.3109   46.7654 C   0  0  0  0  0  0  0  0  0  0  0  0
   30.7153   22.9942   46.5294 C   0  0  0  0  0  0  0  0  0  0  0  0
   29.7566   22.6223   46.2441 H   0  0  0  0  0  0  0  0  0  0  0  0
   31.8776   22.3343   46.7464 N   0  0  0  0  0  0  0  0  0  0  0  0
   32.8637   23.1484   47.0898 N   0  0  0  0  0  0  0  0  0  0  0  0
   30.4559   25.1970   46.7199 H   0  0  0  0  0  0  0  0  0  0  0  0
   31.9333   21.2860   46.6390 H   0  0  0  0  0  0  0  0  0  0  0  0
  1  2  1  0
  3  2  2  0
  4  3  1  0
  5 10  1  0
  5  4  2  0
  6  5  1  0
  7  8  1  0
  7  6  2  0
  8  9  2  0
  9  4  1  0
  9  1  1  0
 11 12  2  0
 12  1  1  0
 12 13  1  0
 14 13  2  0
 15 14  1  0
 16 11  1  0
 16 15  2  0
 17 15  1  0
 17 18  1  0
 19 17  1  0
 20 17  1  0
  2 21  1  0
  7 22  1  0
 10 23  1  0
 10 24  1  0
 11 25  1  0
 13 26  1  0
 18 27  1  0
 18 28  1  0
 18 29  1  0
 19 30  1  0
 19 31  1  0
 19 32  1  0
 20 33  1  0
 20 34  1  0
 35 36  1  0
 36 37  2  0
 37 38  1  0
 37 39  1  0
 39 40  1  0
 40 35  2  0
 36 41  1  0
 39 42  1  0
 20 35  1  0
M  ISO  8  21  14  22  14  25  14  26  14  27   8  28   8  29   8  30   8
M  ISO  5  31   8  32   8  33   8  34   8  38  14
M  END
>  <DihAtoms>  (1) 
16,19,34,35

>  <DihDeg>  (1) 
-0.1741068055612508

$$$$
