
 OpenBabel03252514023D

 32 34  0  0  1  0  0  0  0  0999 V2000
   35.4360   29.4850   49.0850 C   0  0  2  0  0  0  0  0  0  0  0  0
   34.4870   29.4960   50.2080 C   0  0  0  0  0  0  0  0  0  0  0  0
   34.6710   28.2200   49.5270 C   0  0  1  0  0  0  0  0  0  0  0  0
   35.1460   29.8260   48.0890 H   0  0  0  0  0  0  0  0  0  0  0  0
   34.9370   29.6370   51.2150 H   0  0  0  0  0  0  0  0  0  0  0  0
   33.5160   30.0650   50.1260 H   0  0  0  0  0  0  0  0  0  0  0  0
   35.3310   27.3940   49.7720 H   0  0  0  0  0  0  0  0  0  0  0  0
   36.9240   29.3960   49.4250 C   0  0  0  0  0  0  0  0  0  0  0  0
   37.4120   28.5310   48.9370 H   0  0  0  0  0  0  0  0  0  0  0  0
   36.9950   29.3210   50.5230 H   0  0  0  0  0  0  0  0  0  0  0  0
   37.9880   32.9040   49.3850 C   0  0  0  0  0  0  0  0  0  0  0  0
   38.7280   32.9890   48.1960 C   0  0  0  0  0  0  0  0  0  0  0  0
   38.8550   31.8280   47.4140 C   0  0  0  0  0  0  0  0  0  0  0  0
   38.2470   30.6820   47.8600 N   0  0  0  0  0  0  0  0  0  0  0  0
   37.5520   30.6470   48.9980 C   0  0  0  0  0  0  0  0  0  0  0  0
   37.4270   31.7630   49.7540 N   0  0  0  0  0  0  0  0  0  0  0  0
   37.9470   33.8350   49.9120 H   0  0  0  0  0  0  0  0  0  0  0  0
   39.2070   33.8650   47.8310 H   0  0  0  0  0  0  0  0  0  0  0  0
   39.4100   31.8180   46.4850 H   0  0  0  0  0  0  0  0  0  0  0  0
   33.5250   27.7780   48.6710 C   0  0  0  0  0  0  0  0  0  0  0  0
   33.8540   27.0610   47.6550 O   0  0  0  0  0  0  0  0  0  0  0  0
   32.1910   28.0540   48.8740 O   0  0  0  0  0  0  0  0  0  0  0  0
   29.1690   27.3410   46.1670 C   0  0  0  0  0  0  0  0  0  0  0  0
   30.0260   28.3870   45.9580 C   0  0  0  0  0  3  0  0  0  0  0  0
   31.0520   28.6460   46.8570 C   0  0  0  0  0  3  0  0  0  0  0  0
   31.2020   27.8360   47.9700 C   0  0  0  0  0  0  0  0  0  0  0  0
   30.3420   26.7740   48.1930 C   0  0  0  0  0  3  0  0  0  0  0  0
   29.3380   26.5560   47.2740 C   0  0  0  0  0  3  0  0  0  0  0  0
   28.3740   27.8040   43.8270 H   0  0  0  0  0  0  0  0  0  0  0  0
   27.9300   27.1340   44.9590 S   0  0  0  0  0  0  0  0  0  0  0  0
   26.6340   27.7380   45.3730 O   0  0  0  0  0  0  0  0  0  0  0  0
   27.7970   25.6950   44.5870 O   0  0  0  0  0  0  0  0  0  0  0  0
  1  4  1  6  0  0  0
  1  8  1  0  0  0  0
  1  3  1  0  0  0  0
  1  2  1  0  0  0  0
  2  5  1  0  0  0  0
  3  7  1  1  0  0  0
  3  2  1  0  0  0  0
  6  2  1  0  0  0  0
  8 10  1  0  0  0  0
  9  8  1  0  0  0  0
 11 16  1  0  0  0  0
 11 17  1  0  0  0  0
 12 11  2  0  0  0  0
 13 14  2  0  0  0  0
 13 12  1  0  0  0  0
 14 15  1  0  0  0  0
 15  8  1  0  0  0  0
 15 16  2  0  0  0  0
 18 12  1  0  0  0  0
 19 13  1  0  0  0  0
 20 22  1  0  0  0  0
 20  3  1  0  0  0  0
 21 20  2  0  0  0  0
 23 28  1  0  0  0  0
 24 23  2  0  0  0  0
 24 25  1  0  0  0  0
 25 26  2  0  0  0  0
 26 27  1  0  0  0  0
 26 22  1  0  0  0  0
 28 27  2  0  0  0  0
 29 30  1  0  0  0  0
 30 31  2  0  0  0  0
 30 23  1  0  0  0  0
 32 30  2  0  0  0  0
M  END
>  <minimizedAffinity>
-5.1570611

>  <minimizedRMSD>
0.605763674

$$$$
