
 OpenBabel03252514043D

 36 39  0  0  1  0  0  0  0  0999 V2000
   35.2640   29.1200   48.5210 C   0  0  2  0  0  0  0  0  0  0  0  0
   34.0040   29.3730   49.2150 C   0  0  0  0  0  0  0  0  0  0  0  0
   34.3230   27.9840   49.0440 C   0  0  1  0  0  0  0  0  0  0  0  0
   35.4190   29.0820   47.4440 H   0  0  0  0  0  0  0  0  0  0  0  0
   34.0720   29.8860   50.2200 H   0  0  0  0  0  0  0  0  0  0  0  0
   33.1490   29.8340   48.6410 H   0  0  0  0  0  0  0  0  0  0  0  0
   34.8260   27.3050   49.7390 H   0  0  0  0  0  0  0  0  0  0  0  0
   36.5310   29.2030   49.3900 C   0  0  0  0  0  0  0  0  0  0  0  0
   36.2750   29.1270   50.4490 H   0  0  0  0  0  0  0  0  0  0  0  0
   37.1580   28.3300   49.0520 H   0  0  0  0  0  0  0  0  0  0  0  0
   37.5560   32.7030   49.6060 C   0  0  0  0  0  0  0  0  0  0  0  0
   38.4450   32.8300   48.5190 C   0  0  0  0  0  0  0  0  0  0  0  0
   38.6760   31.6870   47.7220 C   0  0  0  0  0  0  0  0  0  0  0  0
   38.0260   30.5250   48.0500 N   0  0  0  0  0  0  0  0  0  0  0  0
   37.1940   30.4610   49.0910 C   0  0  0  0  0  0  0  0  0  0  0  0
   36.9640   31.5570   49.8650 N   0  0  0  0  0  0  0  0  0  0  0  0
   37.3190   33.5280   50.2720 H   0  0  0  0  0  0  0  0  0  0  0  0
   38.9130   33.7890   48.3360 H   0  0  0  0  0  0  0  0  0  0  0  0
   39.3500   31.7850   46.8980 H   0  0  0  0  0  0  0  0  0  0  0  0
   33.5160   27.2590   47.9860 C   0  0  0  0  0  0  0  0  0  0  0  0
   33.8810   26.0280   47.8260 O   0  0  0  0  0  0  0  0  0  0  0  0
   32.4780   27.7850   47.2320 O   0  0  0  0  0  0  0  0  0  0  0  0
   31.2360   28.0540   47.7230 C   0  0  0  0  0  0  0  0  0  0  0  0
   30.7540   27.6280   49.0480 C   0  0  0  0  0  0  0  0  0  0  0  0
   29.5040   27.9390   49.4620 C   0  0  0  0  0  0  0  0  0  0  0  0
   28.6570   28.6840   48.5990 C   0  0  0  0  0  0  0  0  0  0  0  0
   29.7130   28.9640   47.0870 S   0  0  0  0  0  0  0  0  0  0  0  0
   31.4380   27.0640   49.6630 H   0  0  0  0  0  0  0  0  0  0  0  0
   29.0970   27.6590   50.4160 H   0  0  0  0  0  0  0  0  0  0  0  0
   27.3370   29.1290   48.7870 C   0  0  0  0  0  0  0  0  0  0  0  0
   26.9560   30.4400   48.5940 C   0  0  0  0  0  3  0  0  0  0  0  0
   25.6330   30.7690   48.8070 C   0  0  0  0  0  3  0  0  0  0  0  0
   24.7180   29.8040   49.2040 C   0  0  0  0  0  0  0  0  0  0  0  0
   23.7180   30.1890   49.3370 H   0  0  0  0  0  0  0  0  0  0  0  0
   25.1380   28.5010   49.3870 C   0  0  0  0  0  3  0  0  0  0  0  0
   26.4340   28.2170   49.1710 N   0  0  0  0  0  0  0  0  0  0  0  0
  1  4  1  6  0  0  0
  1  3  1  0  0  0  0
  1  2  1  0  0  0  0
  1  8  1  0  0  0  0
  2  5  1  0  0  0  0
  3  2  1  0  0  0  0
  3  7  1  1  0  0  0
  6  2  1  0  0  0  0
  8  9  1  0  0  0  0
 10  8  1  0  0  0  0
 11 16  1  0  0  0  0
 11 17  1  0  0  0  0
 12 11  2  0  0  0  0
 13 14  2  0  0  0  0
 13 12  1  0  0  0  0
 14 15  1  0  0  0  0
 15  8  1  0  0  0  0
 15 16  2  0  0  0  0
 18 12  1  0  0  0  0
 19 13  1  0  0  0  0
 20  3  1  0  0  0  0
 21 20  2  0  0  0  0
 22 23  1  0  0  0  0
 22 20  1  0  0  0  0
 23 24  2  0  0  0  0
 24 25  1  0  0  0  0
 24 28  1  0  0  0  0
 25 29  1  0  0  0  0
 26 30  1  0  0  0  0
 26 25  2  0  0  0  0
 27 23  1  0  0  0  0
 27 26  1  0  0  0  0
 30 36  1  0  0  0  0
 31 30  2  0  0  0  0
 31 32  1  0  0  0  0
 32 33  2  0  0  0  0
 33 34  1  0  0  0  0
 33 35  1  0  0  0  0
 36 35  2  0  0  0  0
M  END
>  <minimizedAffinity>
-6.5797801

>  <minimizedRMSD>
1.9032321

$$$$
