
 OpenBabel03252513543D

 19 20  0  0  0  0  0  0  0  0999 V2000
   35.8350   30.3480   50.0810 C   0  0  0  0  0  0  0  0  0  0  0  0
   36.1590   29.7040   50.9100 H   0  0  0  0  0  0  0  0  0  0  0  0
   35.1650   31.1180   50.5560 H   0  0  0  0  0  0  0  0  0  0  0  0
   34.0160   27.5970   48.4430 C   0  0  0  0  0  0  0  0  0  0  0  0
   33.4610   28.2290   47.3100 C   0  0  0  0  0  0  0  0  0  0  0  0
   33.7160   29.6100   47.1090 C   0  0  0  0  0  0  0  0  0  0  0  0
   34.4910   30.2260   48.0460 N   0  0  0  0  0  0  0  0  0  0  0  0
   35.0050   29.6060   49.1120 C   0  0  0  0  0  0  0  0  0  0  0  0
   34.7660   28.2910   49.3070 N   0  0  0  0  0  0  0  0  0  0  0  0
   33.8050   26.5450   48.5680 H   0  0  0  0  0  0  0  0  0  0  0  0
   32.8510   27.7470   46.5690 H   0  0  0  0  0  0  0  0  0  0  0  0
   33.3040   30.1010   46.2570 H   0  0  0  0  0  0  0  0  0  0  0  0
   37.0040   31.0050   49.4900 C   0  0  0  0  0  0  0  0  0  0  0  0
   37.2890   32.3490   49.6960 C   0  0  0  0  0  0  0  0  0  0  0  0
   38.4400   32.6380   49.0080 C   0  0  0  0  0  0  0  0  0  0  0  0
   38.9110   33.6310   48.9850 H   0  0  0  0  0  0  0  0  0  0  0  0
   38.8230   31.4880   48.4110 N   0  0  0  0  0  0  0  0  0  0  0  0
   37.9820   30.5170   48.6890 N   0  0  0  0  0  0  0  0  0  0  0  0
   39.6980   31.5150   47.8310 H   0  0  0  0  0  0  0  0  0  0  0  0
  1  3  1  0  0  0  0
  1  2  1  0  0  0  0
  4 10  1  0  0  0  0
  4  9  1  0  0  0  0
  5  4  2  0  0  0  0
  6  5  1  0  0  0  0
  6  7  2  0  0  0  0
  7  8  1  0  0  0  0
  8  9  2  0  0  0  0
  8  1  1  0  0  0  0
 11  5  1  0  0  0  0
 12  6  1  0  0  0  0
 13 14  1  0  0  0  0
 13  1  1  0  0  0  0
 15 14  2  0  0  0  0
 16 15  1  0  0  0  0
 17 18  1  0  0  0  0
 17 15  1  0  0  0  0
 18 13  2  0  0  0  0
 19 17  1  0  0  0  0
M  END
>  <minimizedAffinity>
-4.15861845

>  <minimizedRMSD>
5.19393444

$$$$
