
 OpenBabel03252512033D

 30 32  0  0  0  0  0  0  0  0999 V2000
   36.1750   30.6290   48.1020 C   0  0  0  0  0  0  0  0  0  0  0  0
   35.7520   31.2910   48.8260 H   0  0  0  0  0  0  0  0  0  0  0  0
   36.4680   29.6960   48.6900 H   0  0  0  0  0  0  0  0  0  0  0  0
   37.4510   31.1100   47.4550 C   0  0  0  0  0  0  0  0  0  0  0  0
   38.1660   32.1580   47.9770 C   0  0  0  0  0  0  0  0  0  0  0  0
   39.3200   32.6160   47.3830 C   0  0  0  0  0  0  0  0  0  0  0  0
   39.7170   31.9820   46.2530 N   0  0  0  0  0  0  0  0  0  0  0  0
   39.0400   30.9590   45.7230 C   0  0  0  0  0  0  0  0  0  0  0  0
   37.9100   30.5230   46.3210 N   0  0  0  0  0  0  0  0  0  0  0  0
   37.8260   32.6380   48.8710 H   0  0  0  0  0  0  0  0  0  0  0  0
   39.8750   33.4450   47.8060 H   0  0  0  0  0  0  0  0  0  0  0  0
   39.4880   30.2910   44.5040 C   0  0  0  0  0  0  0  0  0  0  0  0
   40.5150   30.8920   43.7650 C   0  0  0  0  0  0  0  0  0  0  0  0
   40.9340   30.2390   42.6000 C   0  0  0  0  0  0  0  0  0  0  0  0
   40.3090   29.0550   42.2640 C   0  0  0  0  0  0  0  0  0  0  0  0
   40.6710   28.6080   41.3680 H   0  0  0  0  0  0  0  0  0  0  0  0
   39.2970   28.4640   42.9940 C   0  0  0  0  0  0  0  0  0  0  0  0
   38.9330   29.1330   44.1020 N   0  0  0  0  0  0  0  0  0  0  0  0
   35.3110   30.1370   46.9770 C   0  0  0  0  0  0  0  0  0  0  0  0
   34.7560   30.9700   46.4470 H   0  0  0  0  0  0  0  0  0  0  0  0
   35.9160   29.6800   46.1410 H   0  0  0  0  0  0  0  0  0  0  0  0
   34.0430   29.0340   48.7710 C   0  0  0  0  0  0  0  0  0  0  0  0
   34.3520   29.1760   47.4170 C   0  0  0  0  0  0  0  0  0  0  0  0
   33.6890   28.3570   46.5300 C   0  0  0  0  0  0  0  0  0  0  0  0
   32.7700   27.4500   46.9760 N   0  0  0  0  0  0  0  0  0  0  0  0
   32.4920   27.3350   48.2900 C   0  0  0  0  0  0  0  0  0  0  0  0
   33.1270   28.1210   49.1540 N   0  0  0  0  0  0  0  0  0  0  0  0
   34.5340   29.6500   49.5100 H   0  0  0  0  0  0  0  0  0  0  0  0
   33.7680   28.2810   45.4610 H   0  0  0  0  0  0  0  0  0  0  0  0
   31.7660   26.6240   48.6730 H   0  0  0  0  0  0  0  0  0  0  0  0
  1  3  1  0  0  0  0
  1  2  1  0  0  0  0
  4  5  1  0  0  0  0
  4  1  1  0  0  0  0
  5 10  1  0  0  0  0
  6 11  1  0  0  0  0
  6  5  2  0  0  0  0
  7  6  1  0  0  0  0
  8  7  2  0  0  0  0
  8  9  1  0  0  0  0
  9  4  2  0  0  0  0
 12  8  1  0  0  0  0
 13 12  2  0  0  0  0
 14 13  1  0  0  0  0
 15 14  2  0  0  0  0
 15 17  1  0  0  0  0
 16 15  1  0  0  0  0
 17 18  2  0  0  0  0
 18 12  1  0  0  0  0
 19 23  1  0  0  0  0
 19  1  1  0  0  0  0
 20 19  1  0  0  0  0
 21 19  1  0  0  0  0
 22 27  1  0  0  0  0
 22 28  1  0  0  0  0
 23 22  2  0  0  0  0
 24 25  2  0  0  0  0
 24 23  1  0  0  0  0
 25 26  1  0  0  0  0
 26 30  1  0  0  0  0
 26 27  2  0  0  0  0
 29 24  1  0  0  0  0
M  END
>  <minimizedAffinity>
-4.82210064

>  <minimizedRMSD>
4.42811728

$$$$
