
 OpenBabel03252514013D

 32 34  0  0  1  0  0  0  0  0999 V2000
   35.5700   29.5260   49.1910 C   0  0  2  0  0  0  0  0  0  0  0  0
   34.6100   29.4750   50.3030 C   0  0  0  0  0  0  0  0  0  0  0  0
   34.8280   28.2300   49.5780 C   0  0  1  0  0  0  0  0  0  0  0  0
   35.2830   29.8980   48.2050 H   0  0  0  0  0  0  0  0  0  0  0  0
   35.0460   29.5890   51.3200 H   0  0  0  0  0  0  0  0  0  0  0  0
   33.6270   30.0250   50.2320 H   0  0  0  0  0  0  0  0  0  0  0  0
   35.5040   27.4090   49.8000 H   0  0  0  0  0  0  0  0  0  0  0  0
   37.0560   29.4580   49.5440 C   0  0  0  0  0  0  0  0  0  0  0  0
   37.5450   28.5630   49.1140 H   0  0  0  0  0  0  0  0  0  0  0  0
   37.1210   29.4520   50.6450 H   0  0  0  0  0  0  0  0  0  0  0  0
   38.2720   32.9120   49.3680 C   0  0  0  0  0  0  0  0  0  0  0  0
   38.8710   32.9640   48.1000 C   0  0  0  0  0  0  0  0  0  0  0  0
   38.8510   31.8010   47.3120 C   0  0  0  0  0  0  0  0  0  0  0  0
   38.2460   30.6830   47.8300 N   0  0  0  0  0  0  0  0  0  0  0  0
   37.6880   30.6790   49.0420 C   0  0  0  0  0  0  0  0  0  0  0  0
   37.7050   31.7970   49.8040 N   0  0  0  0  0  0  0  0  0  0  0  0
   38.3370   33.8420   49.8930 H   0  0  0  0  0  0  0  0  0  0  0  0
   39.3450   33.8170   47.6790 H   0  0  0  0  0  0  0  0  0  0  0  0
   39.2930   31.7660   46.3250 H   0  0  0  0  0  0  0  0  0  0  0  0
   33.7020   27.7940   48.6940 C   0  0  0  0  0  0  0  0  0  0  0  0
   34.0380   26.9980   47.7410 O   0  0  0  0  0  0  0  0  0  0  0  0
   32.3770   28.1520   48.8120 O   0  0  0  0  0  0  0  0  0  0  0  0
   29.4190   27.1810   46.1150 C   0  0  0  0  0  0  0  0  0  0  0  0
   29.5640   26.4330   47.2510 C   0  0  0  0  0  3  0  0  0  0  0  0
   30.5550   26.7400   48.1750 C   0  0  0  0  0  3  0  0  0  0  0  0
   31.3960   27.8150   47.9360 C   0  0  0  0  0  0  0  0  0  0  0  0
   31.2590   28.5810   46.7900 C   0  0  0  0  0  3  0  0  0  0  0  0
   30.2620   28.2370   45.9040 C   0  0  0  0  0  3  0  0  0  0  0  0
   26.9500   27.0860   45.6450 H   0  0  0  0  0  0  0  0  0  0  0  0
   28.1350   26.6810   45.0470 S   0  0  0  0  0  0  0  0  0  0  0  0
   28.0870   25.2020   44.8820 O   0  0  0  0  0  0  0  0  0  0  0  0
   28.2310   27.3970   43.7430 O   0  0  0  0  0  0  0  0  0  0  0  0
  1  4  1  6  0  0  0
  1  8  1  0  0  0  0
  1  3  1  0  0  0  0
  1  2  1  0  0  0  0
  2  5  1  0  0  0  0
  3  7  1  1  0  0  0
  3  2  1  0  0  0  0
  6  2  1  0  0  0  0
  8 10  1  0  0  0  0
  9  8  1  0  0  0  0
 11 16  1  0  0  0  0
 11 17  1  0  0  0  0
 12 11  2  0  0  0  0
 13 14  2  0  0  0  0
 13 12  1  0  0  0  0
 14 15  1  0  0  0  0
 15  8  1  0  0  0  0
 15 16  2  0  0  0  0
 18 12  1  0  0  0  0
 19 13  1  0  0  0  0
 20 22  1  0  0  0  0
 20  3  1  0  0  0  0
 21 20  2  0  0  0  0
 23 24  1  0  0  0  0
 24 25  2  0  0  0  0
 26 25  1  0  0  0  0
 26 22  1  0  0  0  0
 27 26  2  0  0  0  0
 28 23  2  0  0  0  0
 28 27  1  0  0  0  0
 30 29  1  0  0  0  0
 30 23  1  0  0  0  0
 31 30  2  0  0  0  0
 32 30  2  0  0  0  0
M  END
>  <minimizedAffinity>
-5.02104187

>  <minimizedRMSD>
0.437356114

$$$$
