
 OpenBabel03252512463D

 31 33  0  0  1  0  0  0  0  0999 V2000
   39.5650   30.3790   44.4330 C   0  0  2  0  0  0  0  0  0  0  0  0
   40.2470   29.5390   44.6570 H   0  0  0  0  0  0  0  0  0  0  0  0
   38.4000   31.1330   47.8280 C   0  0  0  0  0  0  0  0  0  0  0  0
   38.8500   32.4740   47.8960 C   0  0  0  0  0  0  0  0  0  0  0  0
   39.6420   32.7480   46.2640 S   0  0  0  0  0  0  0  0  0  0  0  0
   39.2100   30.9510   45.7700 C   0  0  0  0  0  0  0  0  0  0  0  0
   38.6900   30.5670   46.6710 N   0  0  0  0  0  0  0  0  0  0  0  0
   38.7340   33.1550   48.7420 H   0  0  0  0  0  0  0  0  0  0  0  0
   38.0930   30.8510   50.2620 C   0  0  0  0  0  0  0  0  0  0  0  0
   37.6900   30.5390   48.9600 C   0  0  0  0  0  0  0  0  0  0  0  0
   36.6090   29.6660   48.8430 C   0  0  0  0  0  0  0  0  0  0  0  0
   36.0220   29.1800   49.9530 N   0  0  0  0  0  0  0  0  0  0  0  0
   36.4490   29.5120   51.1770 C   0  0  0  0  0  0  0  0  0  0  0  0
   37.5010   30.3620   51.3430 N   0  0  0  0  0  0  0  0  0  0  0  0
   38.9220   31.5190   50.4780 H   0  0  0  0  0  0  0  0  0  0  0  0
   36.3130   29.4380   47.8240 H   0  0  0  0  0  0  0  0  0  0  0  0
   35.8990   29.0590   52.0090 H   0  0  0  0  0  0  0  0  0  0  0  0
   40.1980   31.4610   43.6190 C   0  0  0  0  0  0  0  0  0  0  0  0
   40.9970   31.0720   42.9540 H   0  0  0  0  0  0  0  0  0  0  0  0
   39.4700   31.9950   42.9790 H   0  0  0  0  0  0  0  0  0  0  0  0
   40.6540   32.2670   44.2660 H   0  0  0  0  0  0  0  0  0  0  0  0
   38.2930   29.8770   43.7650 C   0  0  0  0  0  0  0  0  0  0  0  0
   37.5760   29.5400   44.5210 H   0  0  0  0  0  0  0  0  0  0  0  0
   37.8550   30.6630   43.1170 H   0  0  0  0  0  0  0  0  0  0  0  0
   38.6850   28.7440   42.8850 C   0  0  0  0  0  0  0  0  0  0  0  0
   39.1810   27.4900   43.1760 C   0  0  0  0  0  0  0  0  0  0  0  0
   39.3940   26.7910   42.0040 C   0  0  0  0  0  0  0  0  0  0  0  0
   39.7790   25.7850   41.9740 H   0  0  0  0  0  0  0  0  0  0  0  0
   39.0160   27.6460   41.0100 N   0  0  0  0  0  0  0  0  0  0  0  0
   38.6000   28.7920   41.5290 N   0  0  0  0  0  0  0  0  0  0  0  0
   39.0750   27.3670   40.0040 H   0  0  0  0  0  0  0  0  0  0  0  0
  1  2  1  1  0  0  0
  1  6  1  0  0  0  0
  3  4  2  0  0  0  0
  3 10  1  0  0  0  0
  4  8  1  0  0  0  0
  5  4  1  0  0  0  0
  6  5  1  0  0  0  0
  6  7  2  0  0  0  0
  7  3  1  0  0  0  0
  9 15  1  0  0  0  0
  9 14  1  0  0  0  0
 10  9  2  0  0  0  0
 11 10  1  0  0  0  0
 11 12  2  0  0  0  0
 12 13  1  0  0  0  0
 13 14  2  0  0  0  0
 13 17  1  0  0  0  0
 16 11  1  0  0  0  0
 18 21  1  0  0  0  0
 18  1  1  0  0  0  0
 19 18  1  0  0  0  0
 20 18  1  0  0  0  0
 22  1  1  0  0  0  0
 22 23  1  0  0  0  0
 24 22  1  0  0  0  0
 25 26  1  0  0  0  0
 25 22  1  0  0  0  0
 27 26  2  0  0  0  0
 28 27  1  0  0  0  0
 29 30  1  0  0  0  0
 29 27  1  0  0  0  0
 30 25  2  0  0  0  0
 31 29  1  0  0  0  0
M  END
>  <minimizedAffinity>
-5.1166997

>  <minimizedRMSD>
0.994235992

$$$$
