
 OpenBabel03252514043D

 36 39  0  0  1  0  0  0  0  0999 V2000
   35.3670   29.2590   48.6860 C   0  0  2  0  0  0  0  0  0  0  0  0
   34.1600   29.2750   49.5080 C   0  0  0  0  0  0  0  0  0  0  0  0
   34.5790   27.9680   49.0860 C   0  0  1  0  0  0  0  0  0  0  0  0
   35.4230   29.4070   47.6080 H   0  0  0  0  0  0  0  0  0  0  0  0
   34.2770   29.6270   50.5760 H   0  0  0  0  0  0  0  0  0  0  0  0
   33.2190   29.7330   49.0860 H   0  0  0  0  0  0  0  0  0  0  0  0
   35.2000   27.2420   49.6180 H   0  0  0  0  0  0  0  0  0  0  0  0
   36.6970   29.3300   49.4540 C   0  0  0  0  0  0  0  0  0  0  0  0
   36.5220   29.2660   50.5300 H   0  0  0  0  0  0  0  0  0  0  0  0
   37.2840   28.4450   49.0770 H   0  0  0  0  0  0  0  0  0  0  0  0
   37.7670   32.8220   49.5460 C   0  0  0  0  0  0  0  0  0  0  0  0
   38.5920   32.9210   48.4070 C   0  0  0  0  0  0  0  0  0  0  0  0
   38.7660   31.7600   47.6190 C   0  0  0  0  0  0  0  0  0  0  0  0
   38.1250   30.6120   48.0060 N   0  0  0  0  0  0  0  0  0  0  0  0
   37.3540   30.5750   49.0940 C   0  0  0  0  0  0  0  0  0  0  0  0
   37.1800   31.6880   49.8600 N   0  0  0  0  0  0  0  0  0  0  0  0
   37.5770   33.6620   50.2090 H   0  0  0  0  0  0  0  0  0  0  0  0
   39.0580   33.8710   48.1800 H   0  0  0  0  0  0  0  0  0  0  0  0
   39.3920   31.8370   46.7560 H   0  0  0  0  0  0  0  0  0  0  0  0
   33.7410   27.3430   47.9890 C   0  0  0  0  0  0  0  0  0  0  0  0
   34.1160   26.1410   47.6890 O   0  0  0  0  0  0  0  0  0  0  0  0
   32.6670   27.9250   47.3330 O   0  0  0  0  0  0  0  0  0  0  0  0
   31.4110   28.0130   47.8520 C   0  0  0  0  0  0  0  0  0  0  0  0
   31.0110   27.4760   49.1640 C   0  0  0  0  0  0  0  0  0  0  0  0
   29.7400   27.6080   49.6080 C   0  0  0  0  0  0  0  0  0  0  0  0
   28.7900   28.2740   48.7890 C   0  0  0  0  0  0  0  0  0  0  0  0
   29.7720   28.7470   47.2770 S   0  0  0  0  0  0  0  0  0  0  0  0
   31.7730   26.9780   49.7450 H   0  0  0  0  0  0  0  0  0  0  0  0
   29.3900   27.2390   50.5540 H   0  0  0  0  0  0  0  0  0  0  0  0
   27.4280   28.5380   49.0140 C   0  0  0  0  0  0  0  0  0  0  0  0
   26.6100   29.1110   48.0620 C   0  0  0  0  0  3  0  0  0  0  0  0
   25.2890   29.3280   48.3890 C   0  0  0  0  0  3  0  0  0  0  0  0
   24.8000   28.9790   49.6400 C   0  0  0  0  0  0  0  0  0  0  0  0
   23.7510   29.1990   49.7690 H   0  0  0  0  0  0  0  0  0  0  0  0
   25.6500   28.4070   50.5670 C   0  0  0  0  0  3  0  0  0  0  0  0
   26.9320   28.2100   50.2160 N   0  0  0  0  0  0  0  0  0  0  0  0
  1  4  1  6  0  0  0
  1  3  1  0  0  0  0
  1  8  1  0  0  0  0
  1  2  1  0  0  0  0
  2  5  1  0  0  0  0
  3  2  1  0  0  0  0
  3  7  1  1  0  0  0
  6  2  1  0  0  0  0
  8  9  1  0  0  0  0
 10  8  1  0  0  0  0
 11 16  1  0  0  0  0
 11 17  1  0  0  0  0
 12 11  2  0  0  0  0
 13 14  2  0  0  0  0
 13 12  1  0  0  0  0
 14 15  1  0  0  0  0
 15  8  1  0  0  0  0
 15 16  2  0  0  0  0
 18 12  1  0  0  0  0
 19 13  1  0  0  0  0
 20  3  1  0  0  0  0
 21 20  2  0  0  0  0
 22 23  1  0  0  0  0
 22 20  1  0  0  0  0
 23 24  2  0  0  0  0
 24 25  1  0  0  0  0
 24 28  1  0  0  0  0
 25 29  1  0  0  0  0
 26 30  1  0  0  0  0
 26 25  2  0  0  0  0
 27 23  1  0  0  0  0
 27 26  1  0  0  0  0
 30 36  1  0  0  0  0
 31 32  1  0  0  0  0
 31 30  2  0  0  0  0
 32 33  2  0  0  0  0
 33 34  1  0  0  0  0
 33 35  1  0  0  0  0
 36 35  2  0  0  0  0
M  END
>  <minimizedAffinity>
-6.13582087

>  <minimizedRMSD>
1.56682801

$$$$
