
 OpenBabel03252514043D

 36 39  0  0  1  0  0  0  0  0999 V2000
   35.2610   29.1490   48.5670 C   0  0  2  0  0  0  0  0  0  0  0  0
   34.0230   29.3260   49.3210 C   0  0  0  0  0  0  0  0  0  0  0  0
   34.3690   27.9590   49.0530 C   0  0  1  0  0  0  0  0  0  0  0  0
   35.3760   29.1800   47.4840 H   0  0  0  0  0  0  0  0  0  0  0  0
   34.1170   29.7790   50.3520 H   0  0  0  0  0  0  0  0  0  0  0  0
   33.1360   29.7980   48.8070 H   0  0  0  0  0  0  0  0  0  0  0  0
   34.9150   27.2530   49.6870 H   0  0  0  0  0  0  0  0  0  0  0  0
   36.5580   29.2130   49.3920 C   0  0  0  0  0  0  0  0  0  0  0  0
   36.3390   29.1210   50.4570 H   0  0  0  0  0  0  0  0  0  0  0  0
   37.1700   28.3440   49.0180 H   0  0  0  0  0  0  0  0  0  0  0  0
   37.5690   32.7180   49.6020 C   0  0  0  0  0  0  0  0  0  0  0  0
   38.4550   32.8480   48.5140 C   0  0  0  0  0  0  0  0  0  0  0  0
   38.6900   31.7040   47.7180 C   0  0  0  0  0  0  0  0  0  0  0  0
   38.0460   30.5410   48.0480 N   0  0  0  0  0  0  0  0  0  0  0  0
   37.2160   30.4740   49.0900 C   0  0  0  0  0  0  0  0  0  0  0  0
   36.9820   31.5700   49.8640 N   0  0  0  0  0  0  0  0  0  0  0  0
   37.3290   33.5430   50.2670 H   0  0  0  0  0  0  0  0  0  0  0  0
   38.9190   33.8080   48.3290 H   0  0  0  0  0  0  0  0  0  0  0  0
   39.3630   31.8050   46.8930 H   0  0  0  0  0  0  0  0  0  0  0  0
   33.5410   27.2780   47.9830 C   0  0  0  0  0  0  0  0  0  0  0  0
   33.8740   26.0420   47.7940 O   0  0  0  0  0  0  0  0  0  0  0  0
   32.5120   27.8460   47.2460 O   0  0  0  0  0  0  0  0  0  0  0  0
   31.2620   28.0800   47.7330 C   0  0  0  0  0  0  0  0  0  0  0  0
   30.7830   27.6320   49.0510 C   0  0  0  0  0  0  0  0  0  0  0  0
   29.5240   27.9090   49.4610 C   0  0  0  0  0  0  0  0  0  0  0  0
   28.6640   28.6410   48.6000 C   0  0  0  0  0  0  0  0  0  0  0  0
   29.7200   28.9590   47.0970 S   0  0  0  0  0  0  0  0  0  0  0  0
   31.4780   27.0780   49.6650 H   0  0  0  0  0  0  0  0  0  0  0  0
   29.1190   27.6100   50.4110 H   0  0  0  0  0  0  0  0  0  0  0  0
   27.3330   29.0520   48.7850 C   0  0  0  0  0  0  0  0  0  0  0  0
   26.3190   28.1760   49.1160 C   0  0  0  0  0  3  0  0  0  0  0  0
   25.0480   28.6860   49.2730 C   0  0  0  0  0  3  0  0  0  0  0  0
   24.8020   30.0420   49.1050 C   0  0  0  0  0  0  0  0  0  0  0  0
   23.7660   30.3120   49.2560 H   0  0  0  0  0  0  0  0  0  0  0  0
   25.8420   30.8870   48.7740 C   0  0  0  0  0  3  0  0  0  0  0  0
   27.0680   30.3560   48.6280 N   0  0  0  0  0  0  0  0  0  0  0  0
  1  4  1  6  0  0  0
  1  3  1  0  0  0  0
  1  2  1  0  0  0  0
  1  8  1  0  0  0  0
  2  5  1  0  0  0  0
  3  2  1  0  0  0  0
  3  7  1  1  0  0  0
  6  2  1  0  0  0  0
  8  9  1  0  0  0  0
 10  8  1  0  0  0  0
 11 16  1  0  0  0  0
 11 17  1  0  0  0  0
 12 11  2  0  0  0  0
 13 14  2  0  0  0  0
 13 12  1  0  0  0  0
 14 15  1  0  0  0  0
 15  8  1  0  0  0  0
 15 16  2  0  0  0  0
 18 12  1  0  0  0  0
 19 13  1  0  0  0  0
 20  3  1  0  0  0  0
 21 20  2  0  0  0  0
 22 23  1  0  0  0  0
 22 20  1  0  0  0  0
 23 24  2  0  0  0  0
 24 25  1  0  0  0  0
 24 28  1  0  0  0  0
 25 29  1  0  0  0  0
 26 30  1  0  0  0  0
 26 25  2  0  0  0  0
 27 23  1  0  0  0  0
 27 26  1  0  0  0  0
 30 31  1  0  0  0  0
 31 32  2  0  0  0  0
 33 34  1  0  0  0  0
 33 32  1  0  0  0  0
 35 33  2  0  0  0  0
 36 35  1  0  0  0  0
 36 30  2  0  0  0  0
M  END
>  <minimizedAffinity>
-6.683043

>  <minimizedRMSD>
1.85235977

$$$$
