
 OpenBabel03252514023D

 32 34  0  0  1  0  0  0  0  0999 V2000
   35.4360   29.4850   49.0780 C   0  0  2  0  0  0  0  0  0  0  0  0
   34.4870   29.5050   50.1990 C   0  0  0  0  0  0  0  0  0  0  0  0
   34.6690   28.2250   49.5260 C   0  0  1  0  0  0  0  0  0  0  0  0
   35.1480   29.8210   48.0790 H   0  0  0  0  0  0  0  0  0  0  0  0
   34.9360   29.6520   51.2060 H   0  0  0  0  0  0  0  0  0  0  0  0
   33.5160   30.0740   50.1130 H   0  0  0  0  0  0  0  0  0  0  0  0
   35.3280   27.3990   49.7780 H   0  0  0  0  0  0  0  0  0  0  0  0
   36.9240   29.3960   49.4200 C   0  0  0  0  0  0  0  0  0  0  0  0
   37.4130   28.5320   48.9310 H   0  0  0  0  0  0  0  0  0  0  0  0
   36.9930   29.3200   50.5170 H   0  0  0  0  0  0  0  0  0  0  0  0
   37.9880   32.9050   49.3840 C   0  0  0  0  0  0  0  0  0  0  0  0
   38.7290   32.9900   48.1960 C   0  0  0  0  0  0  0  0  0  0  0  0
   38.8570   31.8310   47.4120 C   0  0  0  0  0  0  0  0  0  0  0  0
   38.2480   30.6850   47.8560 N   0  0  0  0  0  0  0  0  0  0  0  0
   37.5530   30.6480   48.9940 C   0  0  0  0  0  0  0  0  0  0  0  0
   37.4270   31.7630   49.7520 N   0  0  0  0  0  0  0  0  0  0  0  0
   37.9460   33.8340   49.9130 H   0  0  0  0  0  0  0  0  0  0  0  0
   39.2080   33.8670   47.8330 H   0  0  0  0  0  0  0  0  0  0  0  0
   39.4120   31.8230   46.4840 H   0  0  0  0  0  0  0  0  0  0  0  0
   33.5240   27.7780   48.6730 C   0  0  0  0  0  0  0  0  0  0  0  0
   33.8530   27.0600   47.6570 O   0  0  0  0  0  0  0  0  0  0  0  0
   32.1890   28.0520   48.8760 O   0  0  0  0  0  0  0  0  0  0  0  0
   29.1690   27.3410   46.1660 C   0  0  0  0  0  0  0  0  0  0  0  0
   30.0250   28.3860   45.9590 C   0  0  0  0  0  3  0  0  0  0  0  0
   31.0520   28.6450   46.8580 C   0  0  0  0  0  3  0  0  0  0  0  0
   31.2010   27.8340   47.9720 C   0  0  0  0  0  0  0  0  0  0  0  0
   30.3400   26.7730   48.1940 C   0  0  0  0  0  3  0  0  0  0  0  0
   29.3370   26.5560   47.2730 C   0  0  0  0  0  3  0  0  0  0  0  0
   28.3750   27.8050   43.8260 H   0  0  0  0  0  0  0  0  0  0  0  0
   27.9300   27.1340   44.9570 S   0  0  0  0  0  0  0  0  0  0  0  0
   26.6350   27.7380   45.3720 O   0  0  0  0  0  0  0  0  0  0  0  0
   27.7960   25.6960   44.5850 O   0  0  0  0  0  0  0  0  0  0  0  0
  1  4  1  6  0  0  0
  1  8  1  0  0  0  0
  1  3  1  0  0  0  0
  1  2  1  0  0  0  0
  2  5  1  0  0  0  0
  3  7  1  1  0  0  0
  3  2  1  0  0  0  0
  6  2  1  0  0  0  0
  8 10  1  0  0  0  0
  9  8  1  0  0  0  0
 11 16  1  0  0  0  0
 11 17  1  0  0  0  0
 12 11  2  0  0  0  0
 13 14  2  0  0  0  0
 13 12  1  0  0  0  0
 14 15  1  0  0  0  0
 15  8  1  0  0  0  0
 15 16  2  0  0  0  0
 18 12  1  0  0  0  0
 19 13  1  0  0  0  0
 20 22  1  0  0  0  0
 20  3  1  0  0  0  0
 21 20  2  0  0  0  0
 23 28  1  0  0  0  0
 24 23  2  0  0  0  0
 24 25  1  0  0  0  0
 25 26  2  0  0  0  0
 26 27  1  0  0  0  0
 26 22  1  0  0  0  0
 28 27  2  0  0  0  0
 29 30  1  0  0  0  0
 30 31  2  0  0  0  0
 30 23  1  0  0  0  0
 32 30  2  0  0  0  0
M  END
>  <minimizedAffinity>
-5.15743828

>  <minimizedRMSD>
0.520250201

$$$$
