
 OpenBabel03252514043D

 36 39  0  0  1  0  0  0  0  0999 V2000
   35.2570   29.1490   48.5670 C   0  0  2  0  0  0  0  0  0  0  0  0
   34.0200   29.3290   49.3220 C   0  0  0  0  0  0  0  0  0  0  0  0
   34.3630   27.9610   49.0540 C   0  0  1  0  0  0  0  0  0  0  0  0
   35.3700   29.1800   47.4840 H   0  0  0  0  0  0  0  0  0  0  0  0
   34.1160   29.7810   50.3540 H   0  0  0  0  0  0  0  0  0  0  0  0
   33.1330   29.8020   48.8100 H   0  0  0  0  0  0  0  0  0  0  0  0
   34.9080   27.2540   49.6870 H   0  0  0  0  0  0  0  0  0  0  0  0
   36.5550   29.2110   49.3890 C   0  0  0  0  0  0  0  0  0  0  0  0
   36.3380   29.1150   50.4550 H   0  0  0  0  0  0  0  0  0  0  0  0
   37.1660   28.3430   49.0120 H   0  0  0  0  0  0  0  0  0  0  0  0
   37.5620   32.7160   49.6060 C   0  0  0  0  0  0  0  0  0  0  0  0
   38.4510   32.8480   48.5200 C   0  0  0  0  0  0  0  0  0  0  0  0
   38.6890   31.7050   47.7230 C   0  0  0  0  0  0  0  0  0  0  0  0
   38.0450   30.5410   48.0510 N   0  0  0  0  0  0  0  0  0  0  0  0
   37.2120   30.4720   49.0900 C   0  0  0  0  0  0  0  0  0  0  0  0
   36.9760   31.5670   49.8650 N   0  0  0  0  0  0  0  0  0  0  0  0
   37.3210   33.5400   50.2710 H   0  0  0  0  0  0  0  0  0  0  0  0
   38.9150   33.8080   48.3370 H   0  0  0  0  0  0  0  0  0  0  0  0
   39.3640   31.8070   46.9000 H   0  0  0  0  0  0  0  0  0  0  0  0
   33.5320   27.2820   47.9850 C   0  0  0  0  0  0  0  0  0  0  0  0
   33.8640   26.0460   47.7940 O   0  0  0  0  0  0  0  0  0  0  0  0
   32.5010   27.8510   47.2520 O   0  0  0  0  0  0  0  0  0  0  0  0
   31.2520   28.0850   47.7420 C   0  0  0  0  0  0  0  0  0  0  0  0
   30.7780   27.6380   49.0620 C   0  0  0  0  0  0  0  0  0  0  0  0
   29.5200   27.9150   49.4760 C   0  0  0  0  0  0  0  0  0  0  0  0
   28.6560   28.6440   48.6150 C   0  0  0  0  0  0  0  0  0  0  0  0
   29.7080   28.9610   47.1080 S   0  0  0  0  0  0  0  0  0  0  0  0
   31.4750   27.0870   49.6750 H   0  0  0  0  0  0  0  0  0  0  0  0
   29.1180   27.6180   50.4270 H   0  0  0  0  0  0  0  0  0  0  0  0
   27.3250   29.0540   48.8040 C   0  0  0  0  0  0  0  0  0  0  0  0
   26.3250   28.1880   49.1930 C   0  0  0  0  0  3  0  0  0  0  0  0
   25.0520   28.6970   49.3480 C   0  0  0  0  0  3  0  0  0  0  0  0
   24.7920   30.0400   49.1200 C   0  0  0  0  0  0  0  0  0  0  0  0
   23.7580   30.3110   49.2750 H   0  0  0  0  0  0  0  0  0  0  0  0
   25.8210   30.8770   48.7310 C   0  0  0  0  0  3  0  0  0  0  0  0
   27.0470   30.3480   48.5890 N   0  0  0  0  0  0  0  0  0  0  0  0
  1  4  1  6  0  0  0
  1  3  1  0  0  0  0
  1  2  1  0  0  0  0
  1  8  1  0  0  0  0
  2  5  1  0  0  0  0
  3  2  1  0  0  0  0
  3  7  1  1  0  0  0
  6  2  1  0  0  0  0
  8  9  1  0  0  0  0
 10  8  1  0  0  0  0
 11 16  1  0  0  0  0
 11 17  1  0  0  0  0
 12 11  2  0  0  0  0
 13 14  2  0  0  0  0
 13 12  1  0  0  0  0
 14 15  1  0  0  0  0
 15  8  1  0  0  0  0
 15 16  2  0  0  0  0
 18 12  1  0  0  0  0
 19 13  1  0  0  0  0
 20  3  1  0  0  0  0
 21 20  2  0  0  0  0
 22 23  1  0  0  0  0
 22 20  1  0  0  0  0
 23 24  2  0  0  0  0
 24 25  1  0  0  0  0
 24 28  1  0  0  0  0
 25 29  1  0  0  0  0
 26 30  1  0  0  0  0
 26 25  2  0  0  0  0
 27 23  1  0  0  0  0
 27 26  1  0  0  0  0
 30 31  1  0  0  0  0
 31 32  2  0  0  0  0
 33 34  1  0  0  0  0
 33 32  1  0  0  0  0
 35 33  2  0  0  0  0
 36 35  1  0  0  0  0
 36 30  2  0  0  0  0
M  END
>  <minimizedAffinity>
-6.68455839

>  <minimizedRMSD>
1.86265087

$$$$
