
 OpenBabel03252514023D

 32 34  0  0  1  0  0  0  0  0999 V2000
   35.5360   29.5040   49.1460 C   0  0  2  0  0  0  0  0  0  0  0  0
   34.5130   29.5690   50.1990 C   0  0  0  0  0  0  0  0  0  0  0  0
   34.7650   28.2550   49.6210 C   0  0  1  0  0  0  0  0  0  0  0  0
   35.3090   29.7720   48.1110 H   0  0  0  0  0  0  0  0  0  0  0  0
   34.8900   29.7880   51.2220 H   0  0  0  0  0  0  0  0  0  0  0  0
   33.5390   30.1080   50.0140 H   0  0  0  0  0  0  0  0  0  0  0  0
   35.4220   27.4620   49.9650 H   0  0  0  0  0  0  0  0  0  0  0  0
   36.9990   29.4730   49.5900 C   0  0  0  0  0  0  0  0  0  0  0  0
   37.5110   28.5460   49.2690 H   0  0  0  0  0  0  0  0  0  0  0  0
   36.9980   29.5640   50.6890 H   0  0  0  0  0  0  0  0  0  0  0  0
   38.3710   32.8560   49.2530 C   0  0  0  0  0  0  0  0  0  0  0  0
   38.9000   32.8460   47.9530 C   0  0  0  0  0  0  0  0  0  0  0  0
   38.7780   31.6670   47.2000 C   0  0  0  0  0  0  0  0  0  0  0  0
   38.1490   30.5950   47.7800 N   0  0  0  0  0  0  0  0  0  0  0  0
   37.6610   30.6480   49.0210 C   0  0  0  0  0  0  0  0  0  0  0  0
   37.7760   31.7820   49.7500 N   0  0  0  0  0  0  0  0  0  0  0  0
   38.5110   33.7940   49.7490 H   0  0  0  0  0  0  0  0  0  0  0  0
   39.3900   33.6640   47.4840 H   0  0  0  0  0  0  0  0  0  0  0  0
   39.1610   31.5860   46.1910 H   0  0  0  0  0  0  0  0  0  0  0  0
   33.6900   27.7300   48.7230 C   0  0  0  0  0  0  0  0  0  0  0  0
   34.1020   26.9710   47.7690 O   0  0  0  0  0  0  0  0  0  0  0  0
   32.3380   27.9730   48.8280 O   0  0  0  0  0  0  0  0  0  0  0  0
   29.5920   27.5610   45.7840 C   0  0  0  0  0  0  0  0  0  0  0  0
   30.4940   28.5890   45.7410 C   0  0  0  0  0  3  0  0  0  0  0  0
   31.4290   28.7480   46.7570 C   0  0  0  0  0  3  0  0  0  0  0  0
   31.4420   27.8550   47.8150 C   0  0  0  0  0  0  0  0  0  0  0  0
   30.5350   26.8100   47.8700 C   0  0  0  0  0  3  0  0  0  0  0  0
   29.6260   26.6930   46.8400 C   0  0  0  0  0  3  0  0  0  0  0  0
   29.2450   27.2310   43.3170 H   0  0  0  0  0  0  0  0  0  0  0  0
   28.4790   27.4840   44.4450 S   0  0  0  0  0  0  0  0  0  0  0  0
   27.7630   28.7720   44.2350 O   0  0  0  0  0  0  0  0  0  0  0  0
   27.5460   26.3310   44.6060 O   0  0  0  0  0  0  0  0  0  0  0  0
  1  4  1  6  0  0  0
  1  8  1  0  0  0  0
  1  3  1  0  0  0  0
  1  2  1  0  0  0  0
  2  5  1  0  0  0  0
  3  7  1  1  0  0  0
  3  2  1  0  0  0  0
  6  2  1  0  0  0  0
  8 10  1  0  0  0  0
  9  8  1  0  0  0  0
 11 17  1  0  0  0  0
 11 16  1  0  0  0  0
 12 11  2  0  0  0  0
 13 14  2  0  0  0  0
 13 12  1  0  0  0  0
 14 15  1  0  0  0  0
 15  8  1  0  0  0  0
 15 16  2  0  0  0  0
 18 12  1  0  0  0  0
 19 13  1  0  0  0  0
 20 22  1  0  0  0  0
 20  3  1  0  0  0  0
 21 20  2  0  0  0  0
 23 28  1  0  0  0  0
 24 23  2  0  0  0  0
 24 25  1  0  0  0  0
 25 26  2  0  0  0  0
 26 27  1  0  0  0  0
 26 22  1  0  0  0  0
 28 27  2  0  0  0  0
 29 30  1  0  0  0  0
 30 32  2  0  0  0  0
 30 23  1  0  0  0  0
 31 30  2  0  0  0  0
M  END
>  <minimizedAffinity>
-4.97557545

>  <minimizedRMSD>
0.604590833

$$$$
