
 OpenBabel03252514023D

 32 34  0  0  1  0  0  0  0  0999 V2000
   35.4670   29.4470   49.1380 C   0  0  2  0  0  0  0  0  0  0  0  0
   34.5030   29.4640   50.2470 C   0  0  0  0  0  0  0  0  0  0  0  0
   34.6720   28.1930   49.5540 C   0  0  1  0  0  0  0  0  0  0  0  0
   35.1990   29.8060   48.1410 H   0  0  0  0  0  0  0  0  0  0  0  0
   34.9400   29.5850   51.2620 H   0  0  0  0  0  0  0  0  0  0  0  0
   33.5440   30.0520   50.1580 H   0  0  0  0  0  0  0  0  0  0  0  0
   35.3120   27.3510   49.7990 H   0  0  0  0  0  0  0  0  0  0  0  0
   36.9480   29.3260   49.4980 C   0  0  0  0  0  0  0  0  0  0  0  0
   37.4100   28.4190   49.0630 H   0  0  0  0  0  0  0  0  0  0  0  0
   37.0070   29.3100   50.5990 H   0  0  0  0  0  0  0  0  0  0  0  0
   38.3690   32.7040   49.3910 C   0  0  0  0  0  0  0  0  0  0  0  0
   38.8880   32.7790   48.0900 C   0  0  0  0  0  0  0  0  0  0  0  0
   38.7440   31.6580   47.2550 C   0  0  0  0  0  0  0  0  0  0  0  0
   38.1020   30.5570   47.7630 N   0  0  0  0  0  0  0  0  0  0  0  0
   37.6240   30.5290   49.0090 C   0  0  0  0  0  0  0  0  0  0  0  0
   37.7610   31.6060   49.8160 N   0  0  0  0  0  0  0  0  0  0  0  0
   38.5260   33.6020   49.9510 H   0  0  0  0  0  0  0  0  0  0  0  0
   39.3880   33.6210   47.6760 H   0  0  0  0  0  0  0  0  0  0  0  0
   39.1180   31.6440   46.2410 H   0  0  0  0  0  0  0  0  0  0  0  0
   33.5300   27.7820   48.6770 C   0  0  0  0  0  0  0  0  0  0  0  0
   33.8610   27.0810   47.6500 O   0  0  0  0  0  0  0  0  0  0  0  0
   32.1980   28.0720   48.8700 O   0  0  0  0  0  0  0  0  0  0  0  0
   29.1820   27.3360   46.1620 C   0  0  0  0  0  0  0  0  0  0  0  0
   30.0320   28.3860   45.9520 C   0  0  0  0  0  3  0  0  0  0  0  0
   31.0570   28.6530   46.8500 C   0  0  0  0  0  3  0  0  0  0  0  0
   31.2110   27.8460   47.9660 C   0  0  0  0  0  0  0  0  0  0  0  0
   30.3550   26.7800   48.1910 C   0  0  0  0  0  3  0  0  0  0  0  0
   29.3540   26.5540   47.2720 C   0  0  0  0  0  3  0  0  0  0  0  0
   28.3910   27.7770   43.8170 H   0  0  0  0  0  0  0  0  0  0  0  0
   27.9440   27.1190   44.9540 S   0  0  0  0  0  0  0  0  0  0  0  0
   26.6490   27.7300   45.3610 O   0  0  0  0  0  0  0  0  0  0  0  0
   27.8080   25.6770   44.5960 O   0  0  0  0  0  0  0  0  0  0  0  0
  1  4  1  6  0  0  0
  1  8  1  0  0  0  0
  1  3  1  0  0  0  0
  1  2  1  0  0  0  0
  2  5  1  0  0  0  0
  3  7  1  1  0  0  0
  3  2  1  0  0  0  0
  6  2  1  0  0  0  0
  8 10  1  0  0  0  0
  9  8  1  0  0  0  0
 11 16  1  0  0  0  0
 11 17  1  0  0  0  0
 12 11  2  0  0  0  0
 13 14  2  0  0  0  0
 13 12  1  0  0  0  0
 14 15  1  0  0  0  0
 15  8  1  0  0  0  0
 15 16  2  0  0  0  0
 18 12  1  0  0  0  0
 19 13  1  0  0  0  0
 20 22  1  0  0  0  0
 20  3  1  0  0  0  0
 21 20  2  0  0  0  0
 23 28  1  0  0  0  0
 24 23  2  0  0  0  0
 24 25  1  0  0  0  0
 25 26  2  0  0  0  0
 26 27  1  0  0  0  0
 26 22  1  0  0  0  0
 28 27  2  0  0  0  0
 29 30  1  0  0  0  0
 30 31  2  0  0  0  0
 30 23  1  0  0  0  0
 32 30  2  0  0  0  0
M  END
>  <minimizedAffinity>
-5.15462589

>  <minimizedRMSD>
0.462772846

$$$$
