
 OpenBabel03252514043D

 36 39  0  0  1  0  0  0  0  0999 V2000
   35.2630   29.1190   48.5220 C   0  0  2  0  0  0  0  0  0  0  0  0
   34.0040   29.3720   49.2160 C   0  0  0  0  0  0  0  0  0  0  0  0
   34.3230   27.9830   49.0450 C   0  0  1  0  0  0  0  0  0  0  0  0
   35.4180   29.0810   47.4450 H   0  0  0  0  0  0  0  0  0  0  0  0
   34.0720   29.8840   50.2220 H   0  0  0  0  0  0  0  0  0  0  0  0
   33.1490   29.8330   48.6430 H   0  0  0  0  0  0  0  0  0  0  0  0
   34.8260   27.3040   49.7390 H   0  0  0  0  0  0  0  0  0  0  0  0
   36.5310   29.2020   49.3900 C   0  0  0  0  0  0  0  0  0  0  0  0
   36.2760   29.1250   50.4480 H   0  0  0  0  0  0  0  0  0  0  0  0
   37.1580   28.3290   49.0510 H   0  0  0  0  0  0  0  0  0  0  0  0
   37.5540   32.7020   49.6070 C   0  0  0  0  0  0  0  0  0  0  0  0
   38.4430   32.8300   48.5200 C   0  0  0  0  0  0  0  0  0  0  0  0
   38.6760   31.6870   47.7230 C   0  0  0  0  0  0  0  0  0  0  0  0
   38.0260   30.5250   48.0510 N   0  0  0  0  0  0  0  0  0  0  0  0
   37.1940   30.4600   49.0910 C   0  0  0  0  0  0  0  0  0  0  0  0
   36.9630   31.5560   49.8650 N   0  0  0  0  0  0  0  0  0  0  0  0
   37.3170   33.5270   50.2720 H   0  0  0  0  0  0  0  0  0  0  0  0
   38.9110   33.7890   48.3380 H   0  0  0  0  0  0  0  0  0  0  0  0
   39.3500   31.7860   46.9000 H   0  0  0  0  0  0  0  0  0  0  0  0
   33.5160   27.2590   47.9870 C   0  0  0  0  0  0  0  0  0  0  0  0
   33.8790   26.0270   47.8280 O   0  0  0  0  0  0  0  0  0  0  0  0
   32.4770   27.7850   47.2330 O   0  0  0  0  0  0  0  0  0  0  0  0
   31.2360   28.0540   47.7240 C   0  0  0  0  0  0  0  0  0  0  0  0
   30.7530   27.6290   49.0490 C   0  0  0  0  0  0  0  0  0  0  0  0
   29.5030   27.9400   49.4630 C   0  0  0  0  0  0  0  0  0  0  0  0
   28.6560   28.6850   48.5990 C   0  0  0  0  0  0  0  0  0  0  0  0
   29.7120   28.9640   47.0880 S   0  0  0  0  0  0  0  0  0  0  0  0
   31.4380   27.0650   49.6640 H   0  0  0  0  0  0  0  0  0  0  0  0
   29.0960   27.6610   50.4170 H   0  0  0  0  0  0  0  0  0  0  0  0
   27.3370   29.1300   48.7880 C   0  0  0  0  0  0  0  0  0  0  0  0
   26.9550   30.4410   48.5950 C   0  0  0  0  0  3  0  0  0  0  0  0
   25.6320   30.7690   48.8080 C   0  0  0  0  0  3  0  0  0  0  0  0
   24.7170   29.8040   49.2040 C   0  0  0  0  0  0  0  0  0  0  0  0
   23.7170   30.1890   49.3360 H   0  0  0  0  0  0  0  0  0  0  0  0
   25.1370   28.5010   49.3870 C   0  0  0  0  0  3  0  0  0  0  0  0
   26.4330   28.2170   49.1700 N   0  0  0  0  0  0  0  0  0  0  0  0
  1  4  1  6  0  0  0
  1  3  1  0  0  0  0
  1  2  1  0  0  0  0
  1  8  1  0  0  0  0
  2  5  1  0  0  0  0
  3  2  1  0  0  0  0
  3  7  1  1  0  0  0
  6  2  1  0  0  0  0
  8  9  1  0  0  0  0
 10  8  1  0  0  0  0
 11 16  1  0  0  0  0
 11 17  1  0  0  0  0
 12 11  2  0  0  0  0
 13 14  2  0  0  0  0
 13 12  1  0  0  0  0
 14 15  1  0  0  0  0
 15  8  1  0  0  0  0
 15 16  2  0  0  0  0
 18 12  1  0  0  0  0
 19 13  1  0  0  0  0
 20  3  1  0  0  0  0
 21 20  2  0  0  0  0
 22 23  1  0  0  0  0
 22 20  1  0  0  0  0
 23 24  2  0  0  0  0
 24 25  1  0  0  0  0
 24 28  1  0  0  0  0
 25 29  1  0  0  0  0
 26 30  1  0  0  0  0
 26 25  2  0  0  0  0
 27 23  1  0  0  0  0
 27 26  1  0  0  0  0
 30 36  1  0  0  0  0
 31 30  2  0  0  0  0
 31 32  1  0  0  0  0
 32 33  2  0  0  0  0
 33 34  1  0  0  0  0
 33 35  1  0  0  0  0
 36 35  2  0  0  0  0
M  END
>  <minimizedAffinity>
-6.57958603

>  <minimizedRMSD>
1.930004

$$$$
