
 OpenBabel03252512173D

 38 42  0  0  0  0  0  0  0  0999 V2000
   32.3330   29.8810   46.1710 C   0  0  0  0  0  0  0  0  0  0  0  0
   32.0710   28.5070   46.1810 C   0  0  0  0  0  0  0  0  0  0  0  0
   33.0350   27.6670   46.7510 C   0  0  0  0  0  0  0  0  0  0  0  0
   34.1620   28.2150   47.2590 N   0  0  0  0  0  0  0  0  0  0  0  0
   34.3870   29.5510   47.2350 C   0  0  0  0  0  0  0  0  0  0  0  0
   33.4770   30.3790   46.6940 N   0  0  0  0  0  0  0  0  0  0  0  0
   31.6340   30.5810   45.7490 H   0  0  0  0  0  0  0  0  0  0  0  0
   31.1510   28.1290   45.7600 H   0  0  0  0  0  0  0  0  0  0  0  0
   35.6340   30.0350   47.8100 C   0  0  0  0  0  0  0  0  0  0  0  0
   36.6260   30.6750   47.0860 C   0  0  0  0  0  0  0  0  0  0  0  0
   37.6450   30.9980   47.8900 N   0  0  0  0  0  0  0  0  0  0  0  0
   37.3410   30.5790   49.1390 C   0  0  0  0  0  0  0  0  0  0  0  0
   38.0400   30.6590   50.3340 C   0  0  0  0  0  0  0  0  0  0  0  0
   37.4660   30.1310   51.4770 C   0  0  0  0  0  0  0  0  0  0  0  0
   36.2220   29.5400   51.4030 C   0  0  0  0  0  0  0  0  0  0  0  0
   35.4970   29.4430   50.2190 C   0  0  0  0  0  0  0  0  0  0  0  0
   36.0950   29.9780   49.1050 C   0  0  0  0  0  0  0  0  0  0  0  0
   36.6860   30.9370   46.0200 H   0  0  0  0  0  0  0  0  0  0  0  0
   38.5440   31.4840   47.6730 H   0  0  0  0  0  0  0  0  0  0  0  0
   39.0160   31.1310   50.3580 H   0  0  0  0  0  0  0  0  0  0  0  0
   37.9760   30.1730   52.4300 H   0  0  0  0  0  0  0  0  0  0  0  0
   35.7710   29.1270   52.2880 H   0  0  0  0  0  0  0  0  0  0  0  0
   34.5200   28.9810   50.1500 H   0  0  0  0  0  0  0  0  0  0  0  0
   32.8090   26.2280   46.7860 C   0  0  0  0  0  0  0  0  0  0  0  0
   33.7420   25.4200   47.4000 C   0  0  0  0  0  0  0  0  0  0  0  0
   33.4560   24.0680   47.3910 C   0  0  0  0  0  0  0  0  0  0  0  0
   32.3390   23.5630   46.8210 N   0  0  0  0  0  0  0  0  0  0  0  0
   31.4450   24.3950   46.2250 C   0  0  0  0  0  0  0  0  0  0  0  0
   31.7030   25.7220   46.2210 N   0  0  0  0  0  0  0  0  0  0  0  0
   34.6360   25.8210   47.8570 H   0  0  0  0  0  0  0  0  0  0  0  0
   34.1610   23.3960   47.8620 H   0  0  0  0  0  0  0  0  0  0  0  0
   30.2230   23.9110   45.5940 C   0  0  0  0  0  0  0  0  0  0  0  0
   29.8960   22.5720   45.6510 C   0  0  0  0  0  0  0  0  0  0  0  0
   28.7910   21.9680   45.1110 C   0  0  0  0  0  0  0  0  0  0  0  0
   27.9240   22.8350   44.4370 C   0  0  0  0  0  0  0  0  0  0  0  0
   27.0370   22.4260   43.9890 H   0  0  0  0  0  0  0  0  0  0  0  0
   28.2350   24.1870   44.3680 C   0  0  0  0  0  0  0  0  0  0  0  0
   29.3570   24.7220   44.9310 N   0  0  0  0  0  0  0  0  0  0  0  0
  1  2  2  0  0  0  0
  1  6  1  0  0  0  0
  2  3  1  0  0  0  0
  3 24  1  0  0  0  0
  3  4  2  0  0  0  0
  5  4  1  0  0  0  0
  5  9  1  0  0  0  0
  6  5  2  0  0  0  0
  7  1  1  0  0  0  0
  8  2  1  0  0  0  0
  9 17  1  0  0  0  0
 10  9  2  0  0  0  0
 10 11  1  0  0  0  0
 11 12  1  0  0  0  0
 12 13  1  0  0  0  0
 13 20  1  0  0  0  0
 13 14  2  0  0  0  0
 14 21  1  0  0  0  0
 15 14  1  0  0  0  0
 15 22  1  0  0  0  0
 16 15  2  0  0  0  0
 17 12  2  0  0  0  0
 17 16  1  0  0  0  0
 18 10  1  0  0  0  0
 19 11  1  0  0  0  0
 23 16  1  0  0  0  0
 24 25  1  0  0  0  0
 25 30  1  0  0  0  0
 26 25  2  0  0  0  0
 26 31  1  0  0  0  0
 27 26  1  0  0  0  0
 28 27  2  0  0  0  0
 29 28  1  0  0  0  0
 29 24  2  0  0  0  0
 32 33  1  0  0  0  0
 32 28  1  0  0  0  0
 34 33  2  0  0  0  0
 35 34  1  0  0  0  0
 36 35  1  0  0  0  0
 37 35  2  0  0  0  0
 37 38  1  0  0  0  0
 38 32  2  0  0  0  0
M  END
>  <minimizedAffinity>
-6.30876303

>  <minimizedRMSD>
0.684164226

$$$$
