
 OpenBabel03252513153D

 42 45  0  0  0  0  0  0  0  0999 V2000
   36.8490   30.7890   46.1020 C   0  0  0  0  0  0  0  0  0  0  0  0
   35.8250   30.0240   46.6640 C   0  0  0  0  0  0  0  0  0  0  0  0
   35.5160   29.9820   47.9870 C   0  0  0  0  0  0  0  0  0  0  0  0
   36.2430   30.7340   48.8780 C   0  0  0  0  0  0  0  0  0  0  0  0
   37.2450   31.4930   48.3980 C   0  0  0  0  0  0  0  0  0  0  0  0
   37.9690   32.2470   49.3030 C   0  0  0  0  0  0  0  0  0  0  0  0
   39.0020   33.0460   48.9040 C   0  0  0  0  0  0  0  0  0  0  0  0
   39.3110   33.0850   47.5530 C   0  0  0  0  0  0  0  0  0  0  0  0
   38.5710   32.3250   46.6920 C   0  0  0  0  0  0  0  0  0  0  0  0
   37.5460   31.5270   47.0590 C   0  0  0  0  0  0  0  0  0  0  0  0
   35.2270   29.4150   45.9860 H   0  0  0  0  0  0  0  0  0  0  0  0
   34.7020   29.3570   48.3340 H   0  0  0  0  0  0  0  0  0  0  0  0
   37.7850   32.2680   50.3680 H   0  0  0  0  0  0  0  0  0  0  0  0
   39.6030   33.6580   49.5750 H   0  0  0  0  0  0  0  0  0  0  0  0
   40.1230   33.7070   47.2030 H   0  0  0  0  0  0  0  0  0  0  0  0
   38.8350   32.3740   45.6340 H   0  0  0  0  0  0  0  0  0  0  0  0
   36.1210   31.2990   42.6150 C   0  0  0  0  0  0  0  0  0  0  0  0
   37.2970   30.9830   41.9230 C   0  0  0  0  0  0  0  0  0  0  0  0
   38.3630   30.5860   42.6640 C   0  0  0  0  0  0  0  0  0  0  0  0
   38.1840   30.5360   43.9650 N   0  0  0  0  0  0  0  0  0  0  0  0
   37.1440   30.8070   44.6850 C   0  0  0  0  0  0  0  0  0  0  0  0
   36.1130   31.1940   43.9510 N   0  0  0  0  0  0  0  0  0  0  0  0
   35.2180   31.6280   42.0710 H   0  0  0  0  0  0  0  0  0  0  0  0
   39.6100   30.2210   42.1150 N   0  0  0  0  0  0  0  0  0  0  0  0
   40.7430   29.9240   42.9100 C   0  0  0  0  0  0  0  0  0  0  0  0
   40.9550   30.6490   43.9670 N   0  0  0  0  0  0  0  0  0  0  0  0
   41.6170   28.8620   42.5660 N   0  0  0  0  0  0  0  0  0  0  0  0
   41.6910   30.5350   44.6510 H   0  0  0  0  0  0  0  0  0  0  0  0
   39.8570   30.1140   41.0840 H   0  0  0  0  0  0  0  0  0  0  0  0
   42.4110   28.7890   41.8930 H   0  0  0  0  0  0  0  0  0  0  0  0
   41.9000   27.8490   42.7260 H   0  0  0  0  0  0  0  0  0  0  0  0
   37.3690   31.0870   40.4520 C   0  0  0  0  0  0  0  0  0  0  0  0
   36.4960   31.9160   39.7810 C   0  0  0  0  0  0  0  0  0  0  0  0
   36.9030   31.7570   38.0510 S   0  0  0  0  0  0  0  0  0  0  0  0
   38.2870   30.5110   38.4760 C   0  0  0  0  0  0  0  0  0  0  0  0
   39.0030   29.9590   37.8530 H   0  0  0  0  0  0  0  0  0  0  0  0
   38.1220   30.5330   39.5680 N   0  0  0  0  0  0  0  0  0  0  0  0
   35.9150   30.6780   50.2160 O   0  0  0  0  0  0  0  0  0  0  0  0
   36.4180   29.6380   51.0350 C   0  0  0  0  0  0  0  0  0  0  0  0
   37.2380   28.7420   50.4170 F   0  0  0  0  0  0  0  0  0  0  0  0
   37.1960   30.2360   52.0260 F   0  0  0  0  0  0  0  0  0  0  0  0
   35.3150   29.0040   51.5910 F   0  0  0  0  0  0  0  0  0  0  0  0
  1  2  2  0  0  0  0
  1 10  1  0  0  0  0
  2  3  1  0  0  0  0
  3 12  1  0  0  0  0
  3  4  2  0  0  0  0
  4 38  1  0  0  0  0
  5  4  1  0  0  0  0
  5  6  1  0  0  0  0
  6 13  1  0  0  0  0
  7  6  2  0  0  0  0
  7 14  1  0  0  0  0
  8  7  1  0  0  0  0
  9 10  1  0  0  0  0
  9  8  2  0  0  0  0
 10  5  2  0  0  0  0
 11  2  1  0  0  0  0
 15  8  1  0  0  0  0
 16  9  1  0  0  0  0
 17 22  1  0  0  0  0
 18 17  2  0  0  0  0
 18 19  1  0  0  0  0
 19 20  2  0  0  0  0
 20 21  1  0  0  0  0
 21  1  1  0  0  0  0
 22 21  2  0  0  0  0
 23 17  1  0  0  0  0
 24 19  1  0  0  0  0
 24 25  1  0  0  0  0
 25 26  2  0  0  0  0
 26 28  1  0  0  0  0
 27 31  1  0  0  0  0
 27 25  1  0  0  0  0
 29 24  1  0  0  0  0
 30 27  1  0  0  0  0
 32 18  1  0  0  0  0
 33 32  2  0  0  0  0
 34 35  1  0  0  0  0
 34 33  1  0  0  0  0
 35 37  2  0  0  0  0
 36 35  1  0  0  0  0
 37 32  1  0  0  0  0
 38 39  1  0  0  0  0
 39 42  1  0  0  0  0
 39 41  1  0  0  0  0
 40 39  1  0  0  0  0
M  END
>  <minimizedAffinity>
-7.38544226

>  <minimizedRMSD>
0.151636943

$$$$
