
 OpenBabel03252514023D

 32 35  0  0  1  0  0  0  0  0999 V2000
   35.6730   29.5880   49.2950 C   0  0  2  0  0  0  0  0  0  0  0  0
   34.7450   29.4710   50.4260 C   0  0  0  0  0  0  0  0  0  0  0  0
   34.9530   28.2660   49.6350 C   0  0  1  0  0  0  0  0  0  0  0  0
   35.3940   30.0710   48.3500 H   0  0  0  0  0  0  0  0  0  0  0  0
   33.7400   29.9850   50.3910 H   0  0  0  0  0  0  0  0  0  0  0  0
   35.1890   29.5700   51.4460 H   0  0  0  0  0  0  0  0  0  0  0  0
   35.6510   27.4420   49.8030 H   0  0  0  0  0  0  0  0  0  0  0  0
   37.1700   29.5000   49.5910 C   0  0  0  0  0  0  0  0  0  0  0  0
   37.2740   29.4870   50.6920 H   0  0  0  0  0  0  0  0  0  0  0  0
   37.5950   28.5690   49.1960 H   0  0  0  0  0  0  0  0  0  0  0  0
   38.5170   32.9000   49.3650 C   0  0  0  0  0  0  0  0  0  0  0  0
   38.9770   32.9670   48.0410 C   0  0  0  0  0  0  0  0  0  0  0  0
   38.8170   31.8290   47.2320 C   0  0  0  0  0  0  0  0  0  0  0  0
   38.2230   30.7200   47.7810 N   0  0  0  0  0  0  0  0  0  0  0  0
   37.8000   30.7060   49.0500 C   0  0  0  0  0  0  0  0  0  0  0  0
   37.9540   31.8020   49.8300 N   0  0  0  0  0  0  0  0  0  0  0  0
   38.6920   33.8280   49.8900 H   0  0  0  0  0  0  0  0  0  0  0  0
   39.4540   33.7950   47.5310 H   0  0  0  0  0  0  0  0  0  0  0  0
   39.1460   31.7980   46.1950 H   0  0  0  0  0  0  0  0  0  0  0  0
   33.8000   27.8710   48.7580 C   0  0  0  0  0  0  0  0  0  0  0  0
   34.1070   27.0790   47.7800 O   0  0  0  0  0  0  0  0  0  0  0  0
   32.4820   28.2650   48.9140 O   0  0  0  0  0  0  0  0  0  0  0  0
   31.4380   27.7210   48.1810 C   0  0  0  0  0  0  0  0  0  0  0  0
   30.6350   26.6010   48.3970 C   0  0  0  0  0  3  0  0  0  0  0  0
   29.7550   26.4980   47.3820 N   0  0  0  0  0  0  0  0  0  0  0  0
   29.9720   27.5160   46.5250 C   0  0  0  0  0  0  0  0  0  0  0  0
   29.2960   27.8060   45.3330 C   0  0  0  0  0  3  0  0  0  0  0  0
   29.6960   28.9180   44.6060 C   0  0  0  0  0  3  0  0  0  0  0  0
   30.7430   29.7120   45.0640 C   0  0  0  0  0  3  0  0  0  0  0  0
   31.3910   29.4050   46.2410 C   0  0  0  0  0  3  0  0  0  0  0  0
   31.0110   28.2940   46.9930 C   0  0  0  0  0  0  0  0  0  0  0  0
   29.0380   25.7300   47.3180 H   0  0  0  0  0  0  0  0  0  0  0  0
  1  4  1  6  0  0  0
  1  8  1  0  0  0  0
  1  3  1  0  0  0  0
  1  2  1  0  0  0  0
  2  6  1  0  0  0  0
  3  7  1  1  0  0  0
  3  2  1  0  0  0  0
  5  2  1  0  0  0  0
  8  9  1  0  0  0  0
 10  8  1  0  0  0  0
 11 16  1  0  0  0  0
 11 17  1  0  0  0  0
 12 11  2  0  0  0  0
 13 14  2  0  0  0  0
 13 12  1  0  0  0  0
 14 15  1  0  0  0  0
 15  8  1  0  0  0  0
 15 16  2  0  0  0  0
 18 12  1  0  0  0  0
 19 13  1  0  0  0  0
 20 22  1  0  0  0  0
 20  3  1  0  0  0  0
 21 20  2  0  0  0  0
 23 24  2  0  0  0  0
 23 22  1  0  0  0  0
 25 24  1  0  0  0  0
 26 31  1  0  0  0  0
 26 25  1  0  0  0  0
 27 26  2  0  0  0  0
 28 29  2  0  0  0  0
 28 27  1  0  0  0  0
 29 30  1  0  0  0  0
 30 31  2  0  0  0  0
 31 23  1  0  0  0  0
 32 25  1  0  0  0  0
M  END
>  <minimizedAffinity>
-5.19281626

>  <minimizedRMSD>
0.67912817

$$$$
