
     RDKit          3D

 37 40  0  0  0  0  0  0  0  0999 V2000
   36.8890   29.4368   49.6578 C   0  0  0  0  0  0  0  0  0  0  0  0
   38.4374   32.7471   49.3827 C   0  0  0  0  0  0  0  0  0  0  0  0
   38.9410   32.7491   48.0726 C   0  0  0  0  0  0  0  0  0  0  0  0
   38.7403   31.5989   47.2908 C   0  0  0  0  0  0  0  0  0  0  0  0
   38.0656   30.5424   47.8509 N   0  0  0  0  0  0  0  0  0  0  0  0
   37.6044   30.5888   49.1047 C   0  0  0  0  0  0  0  0  0  0  0  0
   37.7973   31.6965   49.8588 N   0  0  0  0  0  0  0  0  0  0  0  0
   35.4279   29.5458   49.2210 C   0  0  2  0  0  0  0  0  0  0  0  0
   34.3956   29.4733   50.2623 C   0  0  0  0  0  0  0  0  0  0  0  0
   34.6518   28.2470   49.5199 C   0  0  1  0  0  0  0  0  0  0  0  0
   33.5783   27.8526   48.5468 C   0  0  0  0  0  0  0  0  0  0  0  0
   33.8807   26.8547   47.7783 O   0  0  0  0  0  0  0  0  0  0  0  0
   32.3337   28.4450   48.4204 O   0  0  0  0  0  0  0  0  0  0  0  0
   36.8933   29.4916   50.7625 H   0  0  0  0  0  0  0  0  0  0  0  0
   37.3169   28.4720   49.3618 H   0  0  0  0  0  0  0  0  0  0  0  0
   38.6491   33.6790   49.8880 H   0  0  0  0  0  0  0  0  0  0  0  0
   39.4803   33.5333   47.5567 H   0  0  0  0  0  0  0  0  0  0  0  0
   39.0985   31.5185   46.2665 H   0  0  0  0  0  0  0  0  0  0  0  0
   35.2495   30.0122   48.2436 H   0  0  0  0  0  0  0  0  0  0  0  0
   33.4105   30.0052   50.1212 H   0  0  0  0  0  0  0  0  0  0  0  0
   34.7452   29.5877   51.3172 H   0  0  0  0  0  0  0  0  0  0  0  0
   35.3142   27.4142   49.7714 H   0  0  0  0  0  0  0  0  0  0  0  0
   31.3844   28.0197   47.5032 C   0  0  0  0  0  0  0  0  0  0  0  0
   31.1195   26.7665   46.9517 C   0  0  0  0  0  0  0  0  0  0  0  0
   30.0822   26.8794   46.0999 N   0  0  0  0  0  0  0  0  0  0  0  0
   29.6766   28.1651   46.0902 C   0  0  0  0  0  0  0  0  0  0  0  0
   28.6338   28.7397   45.3539 C   0  0  0  0  0  0  0  0  0  0  0  0
   28.3953   30.0980   45.5051 C   0  0  0  0  0  0  0  0  0  0  0  0
   29.1819   30.8535   46.3701 C   0  0  0  0  0  0  0  0  0  0  0  0
   30.2023   30.2627   47.0831 C   0  0  0  0  0  0  0  0  0  0  0  0
   30.4652   28.8991   46.9513 C   0  0  0  0  0  0  0  0  0  0  0  0
   31.7110   25.8857   47.2249 H   0  0  0  0  0  0  0  0  0  0  0  0
   29.6919   26.0657   45.5564 H   0  0  0  0  0  0  0  0  0  0  0  0
   28.0359   28.1081   44.6815 H   0  0  0  0  0  0  0  0  0  0  0  0
   27.5977   30.5726   44.9511 H   0  0  0  0  0  0  0  0  0  0  0  0
   29.0249   31.9161   46.5135 H   0  0  0  0  0  0  0  0  0  0  0  0
   30.8272   30.8335   47.7627 H   0  0  0  0  0  0  0  0  0  0  0  0
  2  7  2  0
  3  2  1  0
  4  5  1  0
  4  3  2  0
  5  6  2  0
  6  1  1  0
  6  7  1  0
  8 10  1  0
  8  1  1  0
  8  9  1  0
 10  9  1  0
 11 10  1  0
 12 11  2  0
 13 11  1  0
  1 14  1  0
  1 15  1  0
  2 16  1  0
  3 17  1  0
  4 18  1  0
  8 19  1  6
  9 20  1  0
  9 21  1  0
 10 22  1  1
 23 24  2  0
 24 25  1  0
 25 26  1  0
 26 27  2  0
 27 28  1  0
 28 29  2  0
 29 30  1  0
 30 31  2  0
 31 23  1  0
 31 26  1  0
 24 32  1  0
 25 33  1  0
 27 34  1  0
 28 35  1  0
 29 36  1  0
 30 37  1  0
 13 23  1  0
M  ISO  8  14   8  15   8  16  14  17  14  18  14  19  13  20  13  21  13
M  ISO  1  22  13
M  END
>  <DihAtoms>  (1) 
10,12,22,23

>  <DihDeg>  (1) 
-89.99689956519023

$$$$
