
 OpenBabel03252513533D

 42 45  0  0  1  0  0  0  0  0999 V2000
   36.0640   30.1700   45.2900 C   0  0  0  0  0  0  0  0  0  0  0  0
   37.1890   29.8840   45.7870 O   0  0  0  0  0  0  0  0  0  0  0  0
   36.1220   30.9880   44.1320 N   0  0  0  0  0  0  0  0  0  0  0  0
   35.2600   30.5920   43.0360 C   0  0  0  0  0  0  0  0  0  0  0  0
   35.6770   31.2430   41.7300 C   0  0  0  0  0  0  0  0  0  0  0  0
   37.0670   31.3520   41.7580 O   0  0  0  0  0  0  0  0  0  0  0  0
   37.3400   32.4440   42.5910 C   0  0  0  0  0  0  0  0  0  0  0  0
   36.9780   32.1470   44.0260 C   0  0  2  0  0  0  0  0  0  0  0  0
   35.4120   29.4920   42.9240 H   0  0  0  0  0  0  0  0  0  0  0  0
   34.1940   30.7560   43.2450 H   0  0  0  0  0  0  0  0  0  0  0  0
   35.1690   32.2040   41.6690 H   0  0  0  0  0  0  0  0  0  0  0  0
   35.4270   30.5980   40.8800 H   0  0  0  0  0  0  0  0  0  0  0  0
   38.3670   32.8300   42.4770 H   0  0  0  0  0  0  0  0  0  0  0  0
   36.6720   33.2730   42.2700 H   0  0  0  0  0  0  0  0  0  0  0  0
   36.5870   33.0160   44.5620 H   0  0  0  0  0  0  0  0  0  0  0  0
   33.6100   28.9420   47.8620 C   0  0  0  0  0  0  0  0  0  0  0  0
   34.8140   29.4440   47.2840 C   0  0  0  0  0  0  0  0  0  0  0  0
   34.8580   29.6610   45.9110 C   0  0  0  0  0  0  0  0  0  0  0  0
   33.7290   29.3770   45.2020 N   0  0  0  0  0  0  0  0  0  0  0  0
   32.6250   28.9130   45.7740 C   0  0  0  0  0  0  0  0  0  0  0  0
   32.5620   28.6980   47.0780 N   0  0  0  0  0  0  0  0  0  0  0  0
   35.6590   29.6380   47.9320 H   0  0  0  0  0  0  0  0  0  0  0  0
   31.4920   28.6610   44.8370 C   0  0  0  0  0  0  0  0  0  0  0  0
   31.0840   29.8560   44.2340 F   0  0  0  0  0  0  0  0  0  0  0  0
   31.9150   27.8650   43.7980 F   0  0  0  0  0  0  0  0  0  0  0  0
   30.4310   28.0000   45.4340 F   0  0  0  0  0  0  0  0  0  0  0  0
   33.5820   28.7310   49.2330 O   0  0  0  0  0  0  0  0  0  0  0  0
   34.1310   29.5860   50.1690 C   0  0  0  0  0  0  0  0  0  0  0  0
   35.2410   29.0610   50.8090 F   0  0  0  0  0  0  0  0  0  0  0  0
   34.4050   30.8490   49.7110 F   0  0  0  0  0  0  0  0  0  0  0  0
   33.1340   29.7230   51.1540 F   0  0  0  0  0  0  0  0  0  0  0  0
   38.2060   31.7620   44.6180 O   0  0  0  0  0  0  0  0  0  0  0  0
   38.9860   32.5980   45.3780 C   0  0  0  0  0  0  0  0  0  0  0  0
   40.0500   33.4520   45.0970 C   0  0  0  0  0  0  0  0  0  0  0  0
   40.4420   34.0420   46.2620 N   0  0  0  0  0  0  0  0  0  0  0  0
   39.6690   33.5940   47.2670 C   0  0  0  0  0  0  0  0  0  0  0  0
   39.6810   33.8970   48.6220 C   0  0  0  0  0  0  0  0  0  0  0  0
   38.7820   33.3140   49.5040 C   0  0  0  0  0  0  0  0  0  0  0  0
   37.8570   32.4060   48.9860 C   0  0  0  0  0  0  0  0  0  0  0  0
   37.8740   32.1330   47.6500 C   0  0  0  0  0  0  0  0  0  0  0  0
   38.7510   32.6910   46.7440 C   0  0  0  0  0  0  0  0  0  0  0  0
   41.2380   34.7350   46.3000 H   0  0  0  0  0  0  0  0  0  0  0  0
  1  2  2  0  0  0  0
  1 18  1  0  0  0  0
  3  1  1  0  0  0  0
  4 10  1  0  0  0  0
  4  3  1  0  0  0  0
  5  6  1  0  0  0  0
  5  4  1  0  0  0  0
  6  7  1  0  0  0  0
  7  8  1  0  0  0  0
  8  3  1  0  0  0  0
  8 15  1  1  0  0  0
  8 32  1  0  0  0  0
  9  4  1  0  0  0  0
 11  5  1  0  0  0  0
 12  5  1  0  0  0  0
 13  7  1  0  0  0  0
 14  7  1  0  0  0  0
 16 27  1  0  0  0  0
 17 16  1  0  0  0  0
 17 22  1  0  0  0  0
 18 17  2  0  0  0  0
 19 20  2  0  0  0  0
 19 18  1  0  0  0  0
 20 21  1  0  0  0  0
 21 16  2  0  0  0  0
 23 26  1  0  0  0  0
 23 20  1  0  0  0  0
 24 23  1  0  0  0  0
 25 23  1  0  0  0  0
 27 28  1  0  0  0  0
 28 29  1  0  0  0  0
 28 31  1  0  0  0  0
 30 28  1  0  0  0  0
 32 33  1  0  0  0  0
 33 41  1  0  0  0  0
 34 33  2  0  0  0  0
 34 35  1  0  0  0  0
 35 42  1  0  0  0  0
 35 36  1  0  0  0  0
 36 37  1  0  0  0  0
 37 38  2  0  0  0  0
 39 38  1  0  0  0  0
 40 39  2  0  0  0  0
 41 36  2  0  0  0  0
 41 40  1  0  0  0  0
M  END
>  <minimizedAffinity>
-5.75577402

>  <minimizedRMSD>
2.97941136

$$$$
