REMARK  Name = 
REMARK  6 active torsions:
REMARK  status: ('A' for Active; 'I' for Inactive)
REMARK    1  A    between atoms: C_1  and  C_4
REMARK    2  A    between atoms: C_3  and  C_11
REMARK    3  A    between atoms: C_4  and  C_9
REMARK    4  A    between atoms: C_11  and  O_13
REMARK    5  A    between atoms: O_13  and  C_14
REMARK    6  A    between atoms: C_17  and  C_30
REMARK                            x       y       z     vdW  Elec       q    Type
REMARK                         _______ _______ _______ _____ _____    ______ ____
ROOT
ATOM      1  C   UNL     1      35.295  29.411  48.983  0.00  0.00    +0.000 C 
ATOM      2  C   UNL     1      34.188  29.363  49.933  0.00  0.00    +0.000 C 
ATOM      3  C   UNL     1      34.528  28.098  49.350  0.00  0.00    +0.000 C 
ATOM      4  H   UNL     1      35.210  29.701  47.934  0.00  0.00    +0.000 HD
ATOM      5  H   UNL     1      33.237  29.903  49.690  0.00  0.00    +0.000 HD
ATOM      6  H   UNL     1      34.450  29.528  51.020  0.00  0.00    +0.000 HD
ATOM      7  H   UNL     1      35.179  27.324  49.753  0.00  0.00    +0.000 HD
ENDROOT
BRANCH   1   8
ATOM      8  C   UNL     1      36.710  29.388  49.587  0.00  0.00    +0.000 C 
ATOM      9  H   UNL     1      36.642  29.332  50.693  0.00  0.00    +0.000 HD
ATOM     10  H   UNL     1      37.181  28.446  49.179  0.00  0.00    +0.000 HD
BRANCH   8  15
ATOM     11  C   UNL     1      38.085  32.767  49.444  0.00  0.00    +0.000 A 
ATOM     12  C   UNL     1      38.752  32.779  48.209  0.00  0.00    +0.000 A 
ATOM     13  C   UNL     1      38.718  31.599  47.432  0.00  0.00    +0.000 A 
ATOM     14  N   UNL     1      38.037  30.517  47.927  0.00  0.00    +0.000 NA
ATOM     15  C   UNL     1      37.419  30.562  49.109  0.00  0.00    +0.000 A 
ATOM     16  N   UNL     1      37.447  31.694  49.866  0.00  0.00    +0.000 NA
ATOM     17  H   UNL     1      38.175  33.704  49.944  0.00  0.00    +0.000 HD
ATOM     18  H   UNL     1      39.305  33.562  47.740  0.00  0.00    +0.000 HD
ATOM     19  H   UNL     1      39.178  31.457  46.474  0.00  0.00    +0.000 HD
ENDBRANCH   8  15
ENDBRANCH   1   8
BRANCH   3  20
ATOM     20  C   UNL     1      33.563  27.586  48.299  0.00  0.00    +0.000 C 
ATOM     21  O   UNL     1      33.908  26.439  47.811  0.00  0.00    +0.000 OA
BRANCH  20  22
ATOM     22  O   UNL     1      32.404  28.218  47.854  0.00  0.00    +0.000 OA
BRANCH  22  23
ATOM     23  C   UNL     1      31.144  27.827  48.225  0.00  0.00    +0.000 A 
ATOM     24  C   UNL     1      30.625  27.818  49.614  0.00  0.00    +0.000 A 
ATOM     25  C   UNL     1      29.356  27.404  49.807  0.00  0.00    +0.000 A 
ATOM     26  C   UNL     1      28.542  26.992  48.741  0.00  0.00    +0.000 A 
ATOM     27  S   UNL     1      29.642  27.187  47.258  0.00  0.00    +0.000 S 
ATOM     28  H   UNL     1      31.299  28.146  50.383  0.00  0.00    +0.000 HD
ATOM     29  H   UNL     1      28.901  27.366  50.781  0.00  0.00    +0.000 HD
BRANCH  26  30
ATOM     30  C   UNL     1      27.249  26.535  48.645  0.00  0.00    +0.000 A 
ATOM     31  C   UNL     1      26.162  27.372  49.090  0.00  0.00    +0.000 A 
ATOM     32  S   UNL     1      24.716  26.328  48.752  0.00  0.00    +0.000 S 
ATOM     33  C   UNL     1      25.806  24.929  48.064  0.00  0.00    +0.000 A 
ATOM     34  H   UNL     1      25.519  23.874  47.632  0.00  0.00    +0.000 HD
ATOM     35  N   UNL     1      26.832  25.375  48.177  0.00  0.00    +0.000 NA
ENDBRANCH  26  30
ENDBRANCH  22  23
ENDBRANCH  20  22
ENDBRANCH   3  20
TORSDOF 6
