
 OpenBabel03252513223D

 18 19  0  0  0  0  0  0  0  0999 V2000
   35.3910   29.1320   50.4000 C   0  0  0  0  0  0  0  0  0  0  0  0
   36.1290   30.1570   49.8040 C   0  0  0  0  0  0  0  0  0  0  0  0
   35.7900   30.5230   48.4860 C   0  0  0  0  0  0  0  0  0  0  0  0
   34.7630   29.8620   47.8660 N   0  0  0  0  0  0  0  0  0  0  0  0
   34.0810   28.8720   48.4970 C   0  0  0  0  0  0  0  0  0  0  0  0
   34.4010   28.5220   49.7440 N   0  0  0  0  0  0  0  0  0  0  0  0
   35.6840   28.8760   51.4210 H   0  0  0  0  0  0  0  0  0  0  0  0
   36.3050   31.3060   47.9440 H   0  0  0  0  0  0  0  0  0  0  0  0
   32.9790   28.1800   47.7960 C   0  0  0  0  0  0  0  0  0  0  0  0
   32.6790   28.4360   46.5110 C   0  0  0  0  0  0  0  0  0  0  0  0
   31.2630   27.3170   46.1740 S   0  0  0  0  0  0  0  0  0  0  0  0
   31.3520   26.6640   47.9750 C   0  0  0  0  0  0  0  0  0  0  0  0
   30.6870   25.9040   48.3930 H   0  0  0  0  0  0  0  0  0  0  0  0
   32.2430   27.2770   48.4120 N   0  0  0  0  0  0  0  0  0  0  0  0
   37.2430   30.8800   50.4660 C   0  0  0  0  0  0  0  0  0  0  0  0
   38.4780   30.5890   49.9570 F   0  0  0  0  0  0  0  0  0  0  0  0
   37.2900   30.5820   51.8090 F   0  0  0  0  0  0  0  0  0  0  0  0
   37.0630   32.2480   50.3480 F   0  0  0  0  0  0  0  0  0  0  0  0
  1  7  1  0  0  0  0
  2  1  1  0  0  0  0
  2 15  1  0  0  0  0
  3  2  2  0  0  0  0
  4  3  1  0  0  0  0
  4  5  2  0  0  0  0
  5  6  1  0  0  0  0
  6  1  2  0  0  0  0
  8  3  1  0  0  0  0
  9 14  1  0  0  0  0
  9  5  1  0  0  0  0
 10  9  2  0  0  0  0
 11 10  1  0  0  0  0
 11 12  1  0  0  0  0
 12 13  1  0  0  0  0
 12 14  2  0  0  0  0
 15 17  1  0  0  0  0
 16 15  1  0  0  0  0
 18 15  1  0  0  0  0
M  END
>  <minimizedAffinity>
-4.76291418

>  <minimizedRMSD>
0.644703448

$$$$
