
 OpenBabel03252513543D

 15 16  0  0  0  0  0  0  0  0999 V2000
   37.3770   30.2400   51.4010 C   0  0  0  0  0  0  0  0  0  0  0  0
   38.1280   30.7170   50.3150 C   0  0  0  0  0  0  0  0  0  0  0  0
   37.6980   30.3880   49.0200 C   0  0  0  0  0  0  0  0  0  0  0  0
   36.5680   29.6210   48.8990 N   0  0  0  0  0  0  0  0  0  0  0  0
   35.8720   29.1810   49.9730 C   0  0  0  0  0  0  0  0  0  0  0  0
   36.2860   29.4980   51.2210 N   0  0  0  0  0  0  0  0  0  0  0  0
   37.7540   30.5250   52.3790 H   0  0  0  0  0  0  0  0  0  0  0  0
   39.0220   31.3240   50.3780 H   0  0  0  0  0  0  0  0  0  0  0  0
   38.1730   30.6840   48.0950 H   0  0  0  0  0  0  0  0  0  0  0  0
   34.6660   28.3580   49.7550 C   0  0  0  0  0  0  0  0  0  0  0  0
   33.7860   28.8740   50.2430 H   0  0  0  0  0  0  0  0  0  0  0  0
   34.8040   27.3480   50.1950 H   0  0  0  0  0  0  0  0  0  0  0  0
   34.4510   28.2630   48.2640 C   0  0  0  0  0  3  0  0  0  0  0  0
   33.0800   28.2420   47.6950 C   0  0  0  0  0  2  0  0  0  0  0  0
   33.8270   26.9620   47.8010 C   0  0  0  0  0  2  0  0  0  0  0  0
  1  7  1  0  0  0  0
  2  8  1  0  0  0  0
  2  1  2  0  0  0  0
  3  2  1  0  0  0  0
  4  3  2  0  0  0  0
  4  5  1  0  0  0  0
  5  6  2  0  0  0  0
  6  1  1  0  0  0  0
  9  3  1  0  0  0  0
 10  5  1  0  0  0  0
 10 12  1  0  0  0  0
 10 11  1  0  0  0  0
 13 10  1  0  0  0  0
 14 15  1  0  0  0  0
 14 13  1  0  0  0  0
 15 13  1  0  0  0  0
M  END
>  <minimizedAffinity>
-3.96091247

>  <minimizedRMSD>
1.10356796

$$$$
