
 OpenBabel03252514043D

 35 38  0  0  1  0  0  0  0  0999 V2000
   35.2820   29.1780   48.5810 C   0  0  2  0  0  0  0  0  0  0  0  0
   34.0470   29.3150   49.3460 C   0  0  0  0  0  0  0  0  0  0  0  0
   34.4170   27.9620   49.0480 C   0  0  1  0  0  0  0  0  0  0  0  0
   35.3640   29.2800   47.4970 H   0  0  0  0  0  0  0  0  0  0  0  0
   33.1650   29.8170   48.8730 H   0  0  0  0  0  0  0  0  0  0  0  0
   34.1540   29.6650   50.4160 H   0  0  0  0  0  0  0  0  0  0  0  0
   34.9690   27.2620   49.6720 H   0  0  0  0  0  0  0  0  0  0  0  0
   36.5910   29.2410   49.3870 C   0  0  0  0  0  0  0  0  0  0  0  0
   36.3690   29.1240   50.4680 H   0  0  0  0  0  0  0  0  0  0  0  0
   37.1980   28.3630   49.0180 H   0  0  0  0  0  0  0  0  0  0  0  0
   37.6420   32.7330   49.5600 C   0  0  0  0  0  0  0  0  0  0  0  0
   38.5020   32.8540   48.4570 C   0  0  0  0  0  0  0  0  0  0  0  0
   38.7110   31.7070   47.6580 C   0  0  0  0  0  0  0  0  0  0  0  0
   38.0630   30.5500   48.0040 N   0  0  0  0  0  0  0  0  0  0  0  0
   37.2550   30.4920   49.0650 C   0  0  0  0  0  0  0  0  0  0  0  0
   37.0480   31.5910   49.8420 N   0  0  0  0  0  0  0  0  0  0  0  0
   37.5580   33.6540   50.0900 H   0  0  0  0  0  0  0  0  0  0  0  0
   39.0480   33.7010   48.1070 H   0  0  0  0  0  0  0  0  0  0  0  0
   39.3360   31.6450   46.7890 H   0  0  0  0  0  0  0  0  0  0  0  0
   33.5960   27.2870   47.9670 C   0  0  0  0  0  0  0  0  0  0  0  0
   33.9650   26.0690   47.7380 O   0  0  0  0  0  0  0  0  0  0  0  0
   32.5380   27.8460   47.2530 O   0  0  0  0  0  0  0  0  0  0  0  0
   31.2940   28.0530   47.7900 C   0  0  0  0  0  0  0  0  0  0  0  0
   30.8440   27.5690   49.1180 C   0  0  0  0  0  0  0  0  0  0  0  0
   29.5830   27.8630   49.4980 C   0  0  0  0  0  0  0  0  0  0  0  0
   28.7160   28.5990   48.6770 C   0  0  0  0  0  0  0  0  0  0  0  0
   29.7410   28.9500   47.1690 S   0  0  0  0  0  0  0  0  0  0  0  0
   31.5570   27.0120   49.6960 H   0  0  0  0  0  0  0  0  0  0  0  0
   29.1760   27.5510   50.4430 H   0  0  0  0  0  0  0  0  0  0  0  0
   27.4170   29.0340   48.8030 C   0  0  0  0  0  0  0  0  0  0  0  0
   26.3840   28.0980   49.1670 C   0  0  0  0  0  3  0  0  0  0  0  0
   24.9070   29.1520   49.1940 S   0  0  0  0  0  0  0  0  0  0  0  0
   25.9170   30.6890   48.7090 C   0  0  0  0  0  0  0  0  0  0  0  0
   25.5840   31.8030   48.5350 H   0  0  0  0  0  0  0  0  0  0  0  0
   26.9520   30.2550   48.6270 N   0  0  0  0  0  0  0  0  0  0  0  0
  1  4  1  6  0  0  0
  1  3  1  0  0  0  0
  1  2  1  0  0  0  0
  1  8  1  0  0  0  0
  2  6  1  0  0  0  0
  3  2  1  0  0  0  0
  3  7  1  1  0  0  0
  5  2  1  0  0  0  0
  8  9  1  0  0  0  0
 10  8  1  0  0  0  0
 11 16  1  0  0  0  0
 11 17  1  0  0  0  0
 12 11  2  0  0  0  0
 13 14  2  0  0  0  0
 13 12  1  0  0  0  0
 14 15  1  0  0  0  0
 15  8  1  0  0  0  0
 15 16  2  0  0  0  0
 18 12  1  0  0  0  0
 19 13  1  0  0  0  0
 20  3  1  0  0  0  0
 21 20  2  0  0  0  0
 22 23  1  0  0  0  0
 22 20  1  0  0  0  0
 23 24  2  0  0  0  0
 24 25  1  0  0  0  0
 24 28  1  0  0  0  0
 25 29  1  0  0  0  0
 26 30  1  0  0  0  0
 26 25  2  0  0  0  0
 27 23  1  0  0  0  0
 27 26  1  0  0  0  0
 30 31  2  0  0  0  0
 31 32  1  0  0  0  0
 33 32  1  0  0  0  0
 34 33  1  0  0  0  0
 35 33  2  0  0  0  0
 35 30  1  0  0  0  0
M  END
>  <minimizedAffinity>
-6.1495676

>  <minimizedRMSD>
1.72252679

$$$$
