
 OpenBabel03252512303D

 36 39  0  0  1  0  0  0  0  0999 V2000
   29.9140   27.6590   45.3890 C   0  0  2  0  0  0  0  0  0  0  0  0
   28.8510   28.0150   45.4820 H   0  0  0  0  0  0  0  0  0  0  0  0
   29.1380   23.6430   45.5110 C   0  0  0  0  0  0  0  0  0  0  0  0
   30.4480   23.9740   45.9170 C   0  0  0  0  0  0  0  0  0  0  0  0
   30.7870   25.2750   45.9030 C   0  0  0  0  0  0  0  0  0  0  0  0
   29.8690   26.1690   45.5080 C   0  0  0  0  0  0  0  0  0  0  0  0
   28.3580   25.2300   45.0930 S   0  0  0  0  0  0  0  0  0  0  0  0
   31.0740   23.1150   46.2120 H   0  0  0  0  0  0  0  0  0  0  0  0
   31.7890   25.5600   46.1980 H   0  0  0  0  0  0  0  0  0  0  0  0
   28.2610   20.1880   46.4110 C   0  0  0  0  0  0  0  0  0  0  0  0
   27.4060   19.8040   45.3410 C   0  0  0  0  0  0  0  0  0  0  0  0
   27.1530   20.7360   44.3390 C   0  0  0  0  0  0  0  0  0  0  0  0
   27.7320   21.9530   44.4400 N   0  0  0  0  0  0  0  0  0  0  0  0
   28.5180   22.2840   45.4370 C   0  0  0  0  0  0  0  0  0  0  0  0
   28.8310   21.4270   46.4800 N   0  0  0  0  0  0  0  0  0  0  0  0
   28.4500   19.4540   47.1810 H   0  0  0  0  0  0  0  0  0  0  0  0
   26.9840   18.8270   45.3290 H   0  0  0  0  0  0  0  0  0  0  0  0
   26.5150   20.5020   43.5070 H   0  0  0  0  0  0  0  0  0  0  0  0
   30.5530   28.0390   44.1300 C   0  0  0  0  0  0  0  0  0  0  0  0
   29.9740   28.8890   43.6780 H   0  0  0  0  0  0  0  0  0  0  0  0
   31.6040   28.4280   44.2510 H   0  0  0  0  0  0  0  0  0  0  0  0
   30.6100   27.2510   43.3530 H   0  0  0  0  0  0  0  0  0  0  0  0
   30.5860   28.1750   46.6470 C   0  0  0  0  0  0  0  0  0  0  0  0
   31.3110   27.3980   47.0450 H   0  0  0  0  0  0  0  0  0  0  0  0
   31.2970   28.9740   46.2620 H   0  0  0  0  0  0  0  0  0  0  0  0
   29.8010   28.6490   47.5740 O   0  0  0  0  0  0  0  0  0  0  0  0
   28.5840   28.9650   47.9750 C   0  0  0  0  0  0  0  0  0  0  0  0
   27.5720   29.7550   47.4810 C   0  0  0  0  0  0  0  0  0  0  0  0
   26.3370   29.9810   48.0380 C   0  0  0  0  0  0  0  0  0  0  0  0
   26.1200   29.3260   49.2290 C   0  0  0  0  0  0  0  0  0  0  0  0
   27.0480   28.5090   49.8280 C   0  0  0  0  0  0  0  0  0  0  0  0
   26.6820   27.9240   51.0190 C   0  0  0  0  0  0  0  0  0  0  0  0
   27.5950   27.1050   51.6330 C   0  0  0  0  0  0  0  0  0  0  0  0
   28.8240   26.8800   51.0800 C   0  0  0  0  0  0  0  0  0  0  0  0
   29.1330   27.4900   49.8890 C   0  0  0  0  0  0  0  0  0  0  0  0
   28.2780   28.3370   49.1900 C   0  0  0  0  0  0  0  0  0  0  0  0
  1  2  1  6  0  0  0
  1  6  1  0  0  0  0
  1 23  1  0  0  0  0
  3  4  2  0  0  0  0
  4  8  1  0  0  0  0
  5  4  1  0  0  0  0
  5  9  1  0  0  0  0
  6  5  2  0  0  0  0
  7  6  1  0  0  0  0
  7  3  1  0  0  0  0
 10 15  1  0  0  0  0
 10 16  1  0  0  0  0
 11 10  2  0  0  0  0
 12 13  2  0  0  0  0
 12 11  1  0  0  0  0
 13 14  1  0  0  0  0
 14  3  1  0  0  0  0
 14 15  2  0  0  0  0
 17 11  1  0  0  0  0
 18 12  1  0  0  0  0
 19 21  1  0  0  0  0
 19  1  1  0  0  0  0
 20 19  1  0  0  0  0
 22 19  1  0  0  0  0
 23 24  1  0  0  0  0
 23 26  1  0  0  0  0
 25 23  1  0  0  0  0
 26 27  1  0  0  0  0
 27 36  1  0  0  0  0
 28 27  2  0  0  0  0
 28 29  1  0  0  0  0
 29 30  2  0  0  0  0
 30 31  1  0  0  0  0
 31 32  1  0  0  0  0
 32 33  2  0  0  0  0
 34 33  1  0  0  0  0
 35 34  2  0  0  0  0
 36 31  2  0  0  0  0
 36 35  1  0  0  0  0
M  END
>  <minimizedAffinity>
-5.44599867

>  <minimizedRMSD>
8.84776211

$$$$
