
 OpenBabel03252513333D

 18 19  0  0  0  0  0  0  0  0999 V2000
   36.9470   30.0440   49.9920 C   0  0  0  0  0  0  0  0  0  0  0  0
   37.8550   31.0760   49.7740 C   0  0  0  0  0  0  0  0  0  0  0  0
   37.8870   31.6590   48.5000 C   0  0  0  0  0  0  0  0  0  0  0  0
   37.0400   31.1900   47.5580 N   0  0  0  0  0  0  0  0  0  0  0  0
   36.1610   30.1700   47.8140 C   0  0  0  0  0  0  0  0  0  0  0  0
   36.1250   29.6110   49.0230 N   0  0  0  0  0  0  0  0  0  0  0  0
   38.5220   31.4290   50.5550 H   0  0  0  0  0  0  0  0  0  0  0  0
   35.5270   29.8720   46.9850 H   0  0  0  0  0  0  0  0  0  0  0  0
   38.8080   32.7460   48.1830 C   0  0  0  0  0  0  0  0  0  0  0  0
   39.1350   33.7760   49.0420 C   0  0  0  0  0  0  0  0  0  0  0  0
   40.0320   34.5580   48.3160 C   0  0  0  0  0  0  0  0  0  0  0  0
   40.1950   33.9660   47.0740 C   0  0  0  0  0  0  0  0  0  0  0  0
   40.8210   34.3100   46.2620 H   0  0  0  0  0  0  0  0  0  0  0  0
   39.4480   32.8980   47.0500 O   0  0  0  0  0  0  0  0  0  0  0  0
   36.9030   29.4110   51.3540 C   0  0  0  0  0  0  0  0  0  0  0  0
   35.5910   29.0880   51.6820 F   0  0  0  0  0  0  0  0  0  0  0  0
   37.7410   28.3400   51.3650 F   0  0  0  0  0  0  0  0  0  0  0  0
   37.3140   30.3700   52.2690 F   0  0  0  0  0  0  0  0  0  0  0  0
  1 15  1  0  0  0  0
  2  1  1  0  0  0  0
  2  7  1  0  0  0  0
  3  2  2  0  0  0  0
  4  5  2  0  0  0  0
  4  3  1  0  0  0  0
  5  6  1  0  0  0  0
  6  1  2  0  0  0  0
  8  5  1  0  0  0  0
  9  3  1  0  0  0  0
  9 10  2  0  0  0  0
 11 10  1  0  0  0  0
 12 11  2  0  0  0  0
 13 12  1  0  0  0  0
 14 12  1  0  0  0  0
 14  9  1  0  0  0  0
 15 17  1  0  0  0  0
 15 16  1  0  0  0  0
 15 18  1  0  0  0  0
M  END
>  <minimizedAffinity>
-5.31639194

>  <minimizedRMSD>
1.08735049

$$$$
