REMARK  Name = 
REMARK  6 active torsions:
REMARK  status: ('A' for Active; 'I' for Inactive)
REMARK    1  A    between atoms: C_1  and  C_4
REMARK    2  A    between atoms: C_3  and  C_11
REMARK    3  A    between atoms: C_4  and  C_9
REMARK    4  A    between atoms: C_11  and  O_13
REMARK    5  A    between atoms: O_13  and  C_14
REMARK    6  A    between atoms: C_17  and  C_30
REMARK                            x       y       z     vdW  Elec       q    Type
REMARK                         _______ _______ _______ _____ _____    ______ ____
ROOT
ATOM      1  C   UNL     1      35.294  29.415  48.979  0.00  0.00    +0.000 C 
ATOM      2  C   UNL     1      34.185  29.372  49.926  0.00  0.00    +0.000 C 
ATOM      3  C   UNL     1      34.521  28.106  49.347  0.00  0.00    +0.000 C 
ATOM      4  H   UNL     1      35.143  29.820  47.983  0.00  0.00    +0.000 HD
ATOM      5  H   UNL     1      33.215  29.884  49.654  0.00  0.00    +0.000 HD
ATOM      6  H   UNL     1      34.427  29.590  50.994  0.00  0.00    +0.000 HD
ATOM      7  H   UNL     1      35.167  27.350  49.794  0.00  0.00    +0.000 HD
ENDROOT
BRANCH   1   8
ATOM      8  C   UNL     1      36.706  29.388  49.587  0.00  0.00    +0.000 C 
ATOM      9  H   UNL     1      37.214  28.420  49.338  0.00  0.00    +0.000 HD
ATOM     10  H   UNL     1      36.621  29.435  50.685  0.00  0.00    +0.000 HD
BRANCH   8  15
ATOM     11  C   UNL     1      38.080  32.768  49.440  0.00  0.00    +0.000 A 
ATOM     12  C   UNL     1      38.760  32.774  48.210  0.00  0.00    +0.000 A 
ATOM     13  C   UNL     1      38.730  31.587  47.440  0.00  0.00    +0.000 A 
ATOM     14  N   UNL     1      38.045  30.509  47.937  0.00  0.00    +0.000 NA
ATOM     15  C   UNL     1      37.418  30.563  49.112  0.00  0.00    +0.000 A 
ATOM     16  N   UNL     1      37.443  31.701  49.856  0.00  0.00    +0.000 NA
ATOM     17  H   UNL     1      38.160  33.718  49.954  0.00  0.00    +0.000 HD
ATOM     18  H   UNL     1      39.323  33.585  47.750  0.00  0.00    +0.000 HD
ATOM     19  H   UNL     1      39.215  31.468  46.477  0.00  0.00    +0.000 HD
ENDBRANCH   8  15
ENDBRANCH   1   8
BRANCH   3  20
ATOM     20  C   UNL     1      33.559  27.591  48.294  0.00  0.00    +0.000 C 
ATOM     21  O   UNL     1      33.910  26.441  47.813  0.00  0.00    +0.000 OA
BRANCH  20  22
ATOM     22  O   UNL     1      32.400  28.229  47.850  0.00  0.00    +0.000 OA
BRANCH  22  23
ATOM     23  C   UNL     1      31.143  27.832  48.225  0.00  0.00    +0.000 A 
ATOM     24  C   UNL     1      30.628  27.805  49.615  0.00  0.00    +0.000 A 
ATOM     25  C   UNL     1      29.363  27.385  49.810  0.00  0.00    +0.000 A 
ATOM     26  C   UNL     1      28.538  26.980  48.745  0.00  0.00    +0.000 A 
ATOM     27  S   UNL     1      29.637  27.199  47.262  0.00  0.00    +0.000 S 
ATOM     28  H   UNL     1      31.306  28.127  50.383  0.00  0.00    +0.000 HD
ATOM     29  H   UNL     1      28.916  27.336  50.788  0.00  0.00    +0.000 HD
BRANCH  26  30
ATOM     30  C   UNL     1      27.244  26.521  48.667  0.00  0.00    +0.000 A 
ATOM     31  C   UNL     1      26.100  27.270  48.506  0.00  0.00    +0.000 A 
ATOM     32  C   UNL     1      25.027  26.369  48.482  0.00  0.00    +0.000 A 
ATOM     33  C   UNL     1      25.618  25.109  48.634  0.00  0.00    +0.000 A 
ATOM     34  H   UNL     1      25.081  24.150  48.663  0.00  0.00    +0.000 HD
ATOM     35  O   UNL     1      26.917  25.255  48.738  0.00  0.00    +0.000 OA
ENDBRANCH  26  30
ENDBRANCH  22  23
ENDBRANCH  20  22
ENDBRANCH   3  20
TORSDOF 6
