
 OpenBabel03252514013D

 32 35  0  0  1  0  0  0  0  0999 V2000
   35.1340   29.3430   48.9830 C   0  0  2  0  0  0  0  0  0  0  0  0
   34.1170   29.3380   50.0430 C   0  0  0  0  0  0  0  0  0  0  0  0
   34.3330   28.0770   49.3430 C   0  0  1  0  0  0  0  0  0  0  0  0
   34.9450   29.8020   48.0190 H   0  0  0  0  0  0  0  0  0  0  0  0
   33.1550   29.9060   49.9100 H   0  0  0  0  0  0  0  0  0  0  0  0
   34.4220   29.3610   51.1250 H   0  0  0  0  0  0  0  0  0  0  0  0
   34.9860   27.2320   49.5840 H   0  0  0  0  0  0  0  0  0  0  0  0
   36.5960   29.2330   49.4160 C   0  0  0  0  0  0  0  0  0  0  0  0
   36.5970   29.1100   50.5110 H   0  0  0  0  0  0  0  0  0  0  0  0
   37.0870   28.3600   48.9430 H   0  0  0  0  0  0  0  0  0  0  0  0
   37.6380   32.7450   49.5540 C   0  0  0  0  0  0  0  0  0  0  0  0
   38.4920   32.8530   48.4450 C   0  0  0  0  0  0  0  0  0  0  0  0
   38.7050   31.7140   47.6570 C   0  0  0  0  0  0  0  0  0  0  0  0
   38.0610   30.5510   48.0170 N   0  0  0  0  0  0  0  0  0  0  0  0
   37.2570   30.4940   49.0800 C   0  0  0  0  0  0  0  0  0  0  0  0
   37.0540   31.5960   49.8410 N   0  0  0  0  0  0  0  0  0  0  0  0
   37.4290   33.5730   50.2010 H   0  0  0  0  0  0  0  0  0  0  0  0
   38.9440   33.8190   48.2570 H   0  0  0  0  0  0  0  0  0  0  0  0
   39.3520   31.8020   46.8200 H   0  0  0  0  0  0  0  0  0  0  0  0
   33.2330   27.6740   48.4010 C   0  0  0  0  0  0  0  0  0  0  0  0
   33.4460   26.5610   47.7790 O   0  0  0  0  0  0  0  0  0  0  0  0
   32.0590   28.3700   48.1720 O   0  0  0  0  0  0  0  0  0  0  0  0
   30.9580   27.8400   47.5670 C   0  0  0  0  0  0  0  0  0  0  0  0
   30.8120   27.6090   46.2040 C   0  0  0  0  0  0  0  0  0  0  0  0
   29.6170   27.0590   45.7320 C   0  0  0  0  0  0  0  0  0  0  0  0
   28.5900   26.7450   46.6020 C   0  0  0  0  0  0  0  0  0  0  0  0
   28.7220   26.9690   47.9650 C   0  0  0  0  0  0  0  0  0  0  0  0
   27.6790   26.6460   48.7950 C   0  0  0  0  0  0  0  0  0  0  0  0
   27.8040   26.8690   50.1680 C   0  0  0  0  0  0  0  0  0  0  0  0
   28.9830   27.4170   50.6760 C   0  0  0  0  0  0  0  0  0  0  0  0
   29.9860   27.7190   49.7890 C   0  0  0  0  0  0  0  0  0  0  0  0
   29.9070   27.5150   48.4200 C   0  0  0  0  0  0  0  0  0  0  0  0
  1  4  1  6  0  0  0
  1  3  1  0  0  0  0
  1  8  1  0  0  0  0
  1  2  1  0  0  0  0
  2  6  1  0  0  0  0
  3  7  1  1  0  0  0
  3  2  1  0  0  0  0
  5  2  1  0  0  0  0
  8  9  1  0  0  0  0
 10  8  1  0  0  0  0
 11 16  1  0  0  0  0
 11 17  1  0  0  0  0
 12 11  2  0  0  0  0
 13 14  2  0  0  0  0
 13 12  1  0  0  0  0
 14 15  1  0  0  0  0
 15  8  1  0  0  0  0
 15 16  2  0  0  0  0
 18 12  1  0  0  0  0
 19 13  1  0  0  0  0
 20  3  1  0  0  0  0
 21 20  2  0  0  0  0
 22 20  1  0  0  0  0
 23 22  1  0  0  0  0
 23 32  1  0  0  0  0
 24 23  2  0  0  0  0
 25 24  1  0  0  0  0
 25 26  2  0  0  0  0
 26 27  1  0  0  0  0
 27 32  2  0  0  0  0
 27 28  1  0  0  0  0
 28 29  2  0  0  0  0
 29 30  1  0  0  0  0
 31 30  2  0  0  0  0
 32 31  1  0  0  0  0
M  END
>  <minimizedAffinity>
-6.20482159

>  <minimizedRMSD>
1.635144

$$$$
