
     RDKit          3D

 37 40  0  0  0  0  0  0  0  0999 V2000
   35.2941   29.4149   48.9793 C   0  0  2  0  0  0  0  0  0  0  0  0
   34.1847   29.3725   49.9263 C   0  0  0  0  0  0  0  0  0  0  0  0
   34.5214   28.1056   49.3473 C   0  0  1  0  0  0  0  0  0  0  0  0
   36.7064   29.3880   49.5867 C   0  0  0  0  0  0  0  0  0  0  0  0
   38.0801   32.7683   49.4397 C   0  0  0  0  0  0  0  0  0  0  0  0
   38.7598   32.7744   48.2098 C   0  0  0  0  0  0  0  0  0  0  0  0
   38.7301   31.5873   47.4402 C   0  0  0  0  0  0  0  0  0  0  0  0
   38.0449   30.5095   47.9368 N   0  0  0  0  0  0  0  0  0  0  0  0
   37.4179   30.5630   49.1122 C   0  0  0  0  0  0  0  0  0  0  0  0
   37.4427   31.7008   49.8565 N   0  0  0  0  0  0  0  0  0  0  0  0
   33.5593   27.5910   48.2942 C   0  0  0  0  0  0  0  0  0  0  0  0
   33.9105   26.4411   47.8126 O   0  0  0  0  0  0  0  0  0  0  0  0
   32.3995   28.2292   47.8505 O   0  0  0  0  0  0  0  0  0  0  0  0
   31.1432   27.8316   48.2255 C   0  0  0  0  0  0  0  0  0  0  0  0
   30.6284   27.8054   49.6151 C   0  0  0  0  0  0  0  0  0  0  0  0
   29.3625   27.3848   49.8105 C   0  0  0  0  0  0  0  0  0  0  0  0
   28.5378   26.9802   48.7453 C   0  0  0  0  0  0  0  0  0  0  0  0
   29.6367   27.1994   47.2624 S   0  0  0  0  0  0  0  0  0  0  0  0
   35.1426   29.8198   47.9834 H   0  0  0  0  0  0  0  0  0  0  0  0
   33.2145   29.8839   49.6545 H   0  0  0  0  0  0  0  0  0  0  0  0
   34.4268   29.5901   50.9942 H   0  0  0  0  0  0  0  0  0  0  0  0
   35.1673   27.3498   49.7937 H   0  0  0  0  0  0  0  0  0  0  0  0
   37.2136   28.4203   49.3382 H   0  0  0  0  0  0  0  0  0  0  0  0
   36.6206   29.4354   50.6854 H   0  0  0  0  0  0  0  0  0  0  0  0
   38.1598   33.7182   49.9540 H   0  0  0  0  0  0  0  0  0  0  0  0
   39.3227   33.5850   47.7502 H   0  0  0  0  0  0  0  0  0  0  0  0
   39.2151   31.4682   46.4769 H   0  0  0  0  0  0  0  0  0  0  0  0
   31.3059   28.1270   50.3833 H   0  0  0  0  0  0  0  0  0  0  0  0
   28.9157   27.3359   50.7882 H   0  0  0  0  0  0  0  0  0  0  0  0
   27.2435   26.5210   48.6667 C   0  0  0  0  0  0  0  0  0  0  0  0
   26.0993   27.1752   49.0639 C   0  0  0  0  0  0  0  0  0  0  0  0
   25.0266   26.3174   48.7886 C   0  0  0  0  0  0  0  0  0  0  0  0
   25.6178   25.1778   48.2305 C   0  0  0  0  0  0  0  0  0  0  0  0
   25.0817   24.2813   47.8869 H   0  0  0  0  0  0  0  0  0  0  0  0
   26.9178   25.3496   48.1820 O   0  0  0  0  0  0  0  0  0  0  0  0
   26.0382   28.1694   49.5075 H   0  0  0  0  0  0  0  0  0  0  0  0
   23.9734   26.5041   48.9714 H   0  0  0  0  0  0  0  0  0  0  0  0
  1  3  1  0
  1  4  1  0
  1  2  1  0
  3  2  1  0
  5 10  2  0
  6  5  1  0
  7  8  1  0
  7  6  2  0
  8  9  2  0
  9  4  1  0
  9 10  1  0
 11  3  1  0
 12 11  2  0
 13 14  1  0
 13 11  1  0
 14 15  2  0
 15 16  1  0
 17 16  2  0
 18 14  1  0
 18 17  1  0
  1 19  1  6
  2 20  1  0
  2 21  1  0
  3 22  1  1
  4 23  1  0
  4 24  1  0
  5 25  1  0
  6 26  1  0
  7 27  1  0
 15 28  1  0
 16 29  1  0
 30 31  2  0
 31 32  1  0
 32 33  2  0
 33 34  1  0
 33 35  1  0
 35 30  1  0
 31 36  1  0
 32 37  1  0
 17 30  1  0
M  ISO  8  19  13  20  13  21  13  22  13  23   8  24   8  25  14  26  14
M  ISO  4  27  14  28  14  29  14  34  14
M  END
>  <DihAtoms>  (1) 
15,16,29,30

>  <DihDeg>  (1) 
-179.99988093070073

$$$$
