REMARK  Name = 
REMARK  7 active torsions:
REMARK  status: ('A' for Active; 'I' for Inactive)
REMARK    1  A    between atoms: N_1  and  C_12
REMARK    2  A    between atoms: C_5  and  N_10
REMARK    3  A    between atoms: C_15  and  C_17
REMARK    4  A    between atoms: C_17  and  C_18
REMARK    5  A    between atoms: C_17  and  C_19
REMARK    6  A    between atoms: C_17  and  C_20
REMARK    7  A    between atoms: C_20  and  C_35
REMARK                            x       y       z     vdW  Elec       q    Type
REMARK                         _______ _______ _______ _____ _____    ______ ____
ROOT
ATOM      1  C   UNL     1      34.663  29.985  47.382  0.00  0.00    +0.000 A 
ATOM      2  C   UNL     1      35.521  29.885  48.505  0.00  0.00    +0.000 A 
ATOM      3  C   UNL     1      35.424  28.734  49.279  0.00  0.00    +0.000 A 
ATOM      4  N   UNL     1      34.527  27.779  48.929  0.00  0.00    +0.000 NA
ATOM      5  C   UNL     1      33.720  27.907  47.846  0.00  0.00    +0.000 A 
ATOM      6  N   UNL     1      33.790  28.996  47.088  0.00  0.00    +0.000 NA
ATOM      7  H   UNL     1      34.712  30.865  46.759  0.00  0.00    +0.000 HD
ATOM      8  H   UNL     1      36.076  28.663  50.127  0.00  0.00    +0.000 HD
ENDROOT
BRANCH   2   9
ATOM      9  N   UNL     1      36.413  30.965  48.752  0.00  0.00    +0.000 N 
ATOM     10  C   UNL     1      36.390  31.732  49.864  0.00  0.00    +0.000 A 
ATOM     11  N   UNL     1      37.369  32.663  49.777  0.00  0.00    +0.000 NA
ATOM     12  C   UNL     1      37.985  32.460  48.613  0.00  0.00    +0.000 A 
ATOM     13  C   UNL     1      39.046  33.076  47.967  0.00  0.00    +0.000 A 
ATOM     14  N   UNL     1      39.481  32.659  46.759  0.00  0.00    +0.000 NA
ATOM     15  C   UNL     1      38.902  31.618  46.121  0.00  0.00    +0.000 A 
ATOM     16  N   UNL     1      37.873  31.028  46.760  0.00  0.00    +0.000 NA
ATOM     17  C   UNL     1      37.406  31.400  47.949  0.00  0.00    +0.000 A 
ATOM     18  H   UNL     1      35.721  31.658  50.714  0.00  0.00    +0.000 HD
ATOM     19  H   UNL     1      39.242  31.285  45.167  0.00  0.00    +0.000 HD
BRANCH  13  20
ATOM     20  N   UNL     1      39.683  34.175  48.604  0.00  0.00    +0.000 N 
ATOM     21  H   UNL     1      39.812  34.306  49.621  0.00  0.00    +0.000 HD
ATOM     22  H   UNL     1      40.092  34.978  48.078  0.00  0.00    +0.000 HD
ENDBRANCH  13  20
ENDBRANCH   2   9
BRANCH   5  23
ATOM     23  C   UNL     1      32.756  26.828  47.516  0.00  0.00    +0.000 C 
BRANCH  23  24
ATOM     24  C   UNL     1      31.553  26.895  48.447  0.00  0.00    +0.000 C 
ATOM     25  H   UNL     1      31.816  26.395  49.411  0.00  0.00    +0.000 HD
ATOM     26  H   UNL     1      30.667  26.386  47.986  0.00  0.00    +0.000 HD
ATOM     27  H   UNL     1      31.342  27.968  48.594  0.00  0.00    +0.000 HD
ENDBRANCH  23  24
BRANCH  23  28
ATOM     28  C   UNL     1      32.143  27.122  46.130  0.00  0.00    +0.000 C 
ATOM     29  H   UNL     1      31.314  26.421  46.024  0.00  0.00    +0.000 HD
ATOM     30  H   UNL     1      32.885  27.129  45.336  0.00  0.00    +0.000 HD
ATOM     31  H   UNL     1      31.704  28.146  46.214  0.00  0.00    +0.000 HD
ENDBRANCH  23  28
BRANCH  23  32
ATOM     32  C   UNL     1      33.319  25.472  47.441  0.00  0.00    +0.000 C 
ATOM     33  H   UNL     1      33.692  25.189  48.455  0.00  0.00    +0.000 HD
ATOM     34  H   UNL     1      32.448  24.768  47.248  0.00  0.00    +0.000 HD
BRANCH  32  35
ATOM     35  C   UNL     1      34.348  25.136  46.449  0.00  0.00    +0.000 C 
ATOM     36  C   UNL     1      35.291  26.167  45.976  0.00  0.00    +0.000 C 
ATOM     37  C   UNL     1      35.951  25.625  44.691  0.00  0.00    +0.000 C 
ATOM     38  C   UNL     1      36.234  24.169  44.919  0.00  0.00    +0.000 C 
ATOM     39  C   UNL     1      36.502  23.849  46.359  0.00  0.00    +0.000 C 
ATOM     40  C   UNL     1      35.230  24.061  47.134  0.00  0.00    +0.000 C 
ENDBRANCH  32  35
ENDBRANCH  23  32
ENDBRANCH   5  23
TORSDOF 7
