
 OpenBabel03252512423D

 21 23  0  0  0  0  0  0  0  0999 V2000
   38.3980   31.1290   47.8280 C   0  0  0  0  0  0  0  0  0  0  0  0
   38.8360   32.4700   47.8750 C   0  0  0  0  0  0  0  0  0  0  0  0
   39.6320   32.7220   46.2340 S   0  0  0  0  0  0  0  0  0  0  0  0
   39.2210   30.9370   45.7740 C   0  0  0  0  0  0  0  0  0  0  0  0
   38.6940   30.5550   46.6900 N   0  0  0  0  0  0  0  0  0  0  0  0
   38.7140   33.1740   48.7190 H   0  0  0  0  0  0  0  0  0  0  0  0
   38.1250   30.8820   50.2820 C   0  0  0  0  0  0  0  0  0  0  0  0
   37.7020   30.5480   48.9820 C   0  0  0  0  0  0  0  0  0  0  0  0
   36.6260   29.6690   48.8780 C   0  0  0  0  0  0  0  0  0  0  0  0
   36.0530   29.1890   50.0000 N   0  0  0  0  0  0  0  0  0  0  0  0
   36.4790   29.5250   51.2240 C   0  0  0  0  0  0  0  0  0  0  0  0
   37.5090   30.3670   51.3570 N   0  0  0  0  0  0  0  0  0  0  0  0
   38.9620   31.5660   50.3380 H   0  0  0  0  0  0  0  0  0  0  0  0
   36.2950   29.4070   47.8730 H   0  0  0  0  0  0  0  0  0  0  0  0
   36.0270   29.1470   52.1360 H   0  0  0  0  0  0  0  0  0  0  0  0
   39.5810   30.3270   44.4570 C   0  0  0  0  0  0  0  0  0  0  0  0
   38.9920   29.2690   43.7980 C   0  0  0  0  0  0  0  0  0  0  0  0
   39.7150   29.1250   42.6330 C   0  0  0  0  0  0  0  0  0  0  0  0
   40.7050   30.0840   42.6180 C   0  0  0  0  0  0  0  0  0  0  0  0
   41.3950   30.1710   41.8120 H   0  0  0  0  0  0  0  0  0  0  0  0
   40.5740   30.7700   43.7330 O   0  0  0  0  0  0  0  0  0  0  0  0
  1  2  2  0  0  0  0
  1  8  1  0  0  0  0
  2  6  1  0  0  0  0
  3  2  1  0  0  0  0
  4  3  1  0  0  0  0
  4  5  2  0  0  0  0
  5  1  1  0  0  0  0
  7 13  1  0  0  0  0
  7 12  1  0  0  0  0
  8  7  2  0  0  0  0
  9  8  1  0  0  0  0
  9 10  2  0  0  0  0
 10 11  1  0  0  0  0
 11 12  2  0  0  0  0
 11 15  1  0  0  0  0
 14  9  1  0  0  0  0
 16  4  1  0  0  0  0
 17 16  2  0  0  0  0
 18 17  1  0  0  0  0
 19 18  2  0  0  0  0
 19 21  1  0  0  0  0
 20 19  1  0  0  0  0
 21 16  1  0  0  0  0
M  END
>  <minimizedAffinity>
-5.26899242

>  <minimizedRMSD>
0.648744166

$$$$
