
 OpenBabel03252512053D

 35 37  0  0  0  0  0  0  0  0999 V2000
   37.5600   32.0050   47.9160 C   0  0  0  0  0  0  0  0  0  0  0  0
   37.0190   31.5570   47.0220 H   0  0  0  0  0  0  0  0  0  0  0  0
   37.1830   33.0090   48.0310 H   0  0  0  0  0  0  0  0  0  0  0  0
   37.1990   31.0730   49.0450 C   0  0  0  0  0  0  0  0  0  0  0  0
   37.8390   31.1180   50.2490 C   0  0  0  0  0  0  0  0  0  0  0  0
   37.4990   30.2450   51.2610 C   0  0  0  0  0  0  0  0  0  0  0  0
   36.5080   29.3460   51.0120 N   0  0  0  0  0  0  0  0  0  0  0  0
   35.8840   29.3000   49.8420 C   0  0  0  0  0  0  0  0  0  0  0  0
   36.2120   30.1450   48.8600 N   0  0  0  0  0  0  0  0  0  0  0  0
   38.6120   31.8110   50.4690 H   0  0  0  0  0  0  0  0  0  0  0  0
   37.9770   30.2430   52.2310 H   0  0  0  0  0  0  0  0  0  0  0  0
   34.8040   28.3100   49.5960 C   0  0  0  0  0  0  0  0  0  0  0  0
   35.2220   27.2690   49.5020 H   0  0  0  0  0  0  0  0  0  0  0  0
   34.0470   28.2610   50.3910 H   0  0  0  0  0  0  0  0  0  0  0  0
   34.1560   28.5600   48.2250 C   0  0  0  0  0  0  0  0  0  0  0  0
   34.5880   27.9500   47.4320 H   0  0  0  0  0  0  0  0  0  0  0  0
   34.3490   29.6330   47.9780 H   0  0  0  0  0  0  0  0  0  0  0  0
   33.0540   28.4790   48.2980 H   0  0  0  0  0  0  0  0  0  0  0  0
   39.0340   31.8430   47.7250 C   0  0  0  0  0  0  0  0  0  0  0  0
   39.3200   30.9740   48.4010 H   0  0  0  0  0  0  0  0  0  0  0  0
   39.5820   32.6950   48.2060 H   0  0  0  0  0  0  0  0  0  0  0  0
   40.3470   32.2010   45.6920 C   0  0  0  0  0  0  0  0  0  0  0  0
   39.3940   31.4830   46.4010 C   0  0  0  0  0  0  0  0  0  0  0  0
   38.8320   30.4080   45.7800 C   0  0  0  0  0  0  0  0  0  0  0  0
   39.1930   30.0500   44.5040 N   0  0  0  0  0  0  0  0  0  0  0  0
   40.1190   30.7640   43.8390 C   0  0  0  0  0  0  0  0  0  0  0  0
   40.6710   31.8120   44.4330 N   0  0  0  0  0  0  0  0  0  0  0  0
   40.8120   33.0610   46.1560 H   0  0  0  0  0  0  0  0  0  0  0  0
   38.0810   29.7250   46.1400 H   0  0  0  0  0  0  0  0  0  0  0  0
   40.5710   30.4690   42.4850 C   0  0  0  0  0  0  0  0  0  0  0  0
   40.4200   30.9830   41.2180 C   0  0  0  0  0  0  0  0  0  0  0  0
   41.1700   30.1490   40.3900 C   0  0  0  0  0  0  0  0  0  0  0  0
   41.7290   29.1810   41.1900 C   0  0  0  0  0  0  0  0  0  0  0  0
   42.3600   28.4140   40.7570 H   0  0  0  0  0  0  0  0  0  0  0  0
   41.3470   29.4110   42.4210 O   0  0  0  0  0  0  0  0  0  0  0  0
  1  3  1  0  0  0  0
  1  4  1  0  0  0  0
  2  1  1  0  0  0  0
  4  5  1  0  0  0  0
  5 10  1  0  0  0  0
  5  6  2  0  0  0  0
  6 11  1  0  0  0  0
  7  6  1  0  0  0  0
  8  7  2  0  0  0  0
  9  4  2  0  0  0  0
  9  8  1  0  0  0  0
 12  8  1  0  0  0  0
 12 14  1  0  0  0  0
 13 12  1  0  0  0  0
 15 18  1  0  0  0  0
 15 12  1  0  0  0  0
 16 15  1  0  0  0  0
 17 15  1  0  0  0  0
 19  1  1  0  0  0  0
 19 21  1  0  0  0  0
 19 20  1  0  0  0  0
 22 28  1  0  0  0  0
 22 23  1  0  0  0  0
 23 19  1  0  0  0  0
 24 29  1  0  0  0  0
 24 23  2  0  0  0  0
 25 24  1  0  0  0  0
 26 27  1  0  0  0  0
 26 25  2  0  0  0  0
 27 22  2  0  0  0  0
 30 26  1  0  0  0  0
 31 30  2  0  0  0  0
 32 33  2  0  0  0  0
 32 31  1  0  0  0  0
 33 35  1  0  0  0  0
 34 33  1  0  0  0  0
 35 30  1  0  0  0  0
M  END
>  <minimizedAffinity>
-5.84983158

>  <minimizedRMSD>
8.4793272

$$$$
