
 OpenBabel03252513393D

 25 26  0  0  0  0  0  0  0  0999 V2000
   36.8880   29.9610   49.8280 C   0  0  0  0  0  0  0  0  0  0  0  0
   38.0100   30.6480   49.3900 C   0  0  0  0  0  0  0  0  0  0  0  0
   38.0110   31.1350   48.0750 C   0  0  0  0  0  0  0  0  0  0  0  0
   36.9160   30.9010   47.3190 N   0  0  0  0  0  0  0  0  0  0  0  0
   35.8370   30.2200   47.7920 C   0  0  0  0  0  0  0  0  0  0  0  0
   35.8390   29.7610   49.0360 N   0  0  0  0  0  0  0  0  0  0  0  0
   39.1160   31.8410   47.5660 N   0  0  0  0  0  0  0  0  0  0  0  0
   39.0220   32.5760   46.3740 C   0  0  0  0  0  0  0  0  0  0  0  0
   37.9170   32.5370   45.6880 N   0  0  0  0  0  0  0  0  0  0  0  0
   40.1420   33.3510   45.9410 N   0  0  0  0  0  0  0  0  0  0  0  0
   37.8760   33.0460   44.7830 H   0  0  0  0  0  0  0  0  0  0  0  0
   38.8670   30.8150   50.0290 H   0  0  0  0  0  0  0  0  0  0  0  0
   40.0150   31.8140   48.0840 H   0  0  0  0  0  0  0  0  0  0  0  0
   40.9880   32.7960   45.6900 H   0  0  0  0  0  0  0  0  0  0  0  0
   40.1090   34.3800   45.8820 H   0  0  0  0  0  0  0  0  0  0  0  0
   34.6930   30.0160   46.8920 C   0  0  0  0  0  0  0  0  0  0  0  0
   34.6690   29.2890   45.7400 C   0  0  0  0  0  0  0  0  0  0  0  0
   33.3950   29.3780   45.2360 C   0  0  0  0  0  0  0  0  0  0  0  0
   32.6790   30.1690   46.1120 C   0  0  0  0  0  0  0  0  0  0  0  0
   31.6240   30.4390   46.0010 H   0  0  0  0  0  0  0  0  0  0  0  0
   33.5000   30.5210   47.0780 O   0  0  0  0  0  0  0  0  0  0  0  0
   36.8870   29.4360   51.2460 C   0  0  0  0  0  0  0  0  0  0  0  0
   35.5910   29.1290   51.6240 F   0  0  0  0  0  0  0  0  0  0  0  0
   37.7510   28.4050   51.3410 F   0  0  0  0  0  0  0  0  0  0  0  0
   37.3070   30.5020   52.0640 F   0  0  0  0  0  0  0  0  0  0  0  0
  1 22  1  0  0  0  0
  2  1  1  0  0  0  0
  2 12  1  0  0  0  0
  3  2  2  0  0  0  0
  4  5  2  0  0  0  0
  4  3  1  0  0  0  0
  5  6  1  0  0  0  0
  6  1  2  0  0  0  0
  7  3  1  0  0  0  0
  7 13  1  0  0  0  0
  8  7  1  0  0  0  0
  9  8  2  0  0  0  0
 10  8  1  0  0  0  0
 11  9  1  0  0  0  0
 14 10  1  0  0  0  0
 15 10  1  0  0  0  0
 16 21  1  0  0  0  0
 16  5  1  0  0  0  0
 17 16  2  0  0  0  0
 18 17  1  0  0  0  0
 18 19  2  0  0  0  0
 19 21  1  0  0  0  0
 20 19  1  0  0  0  0
 22 24  1  0  0  0  0
 22 23  1  0  0  0  0
 22 25  1  0  0  0  0
M  END
>  <minimizedAffinity>
-6.53842163

>  <minimizedRMSD>
0.0683783516

$$$$
