
 OpenBabel03252511483D

 36 39  0  0  1  0  0  0  0  0999 V2000
   34.3940   30.2210   47.3900 C   0  0  0  0  0  0  0  0  0  0  0  0
   35.5220   30.1420   48.1880 C   0  0  0  0  0  0  0  0  0  0  0  0
   35.5560   29.0000   49.0530 C   0  0  0  0  0  0  0  0  0  0  0  0
   34.5350   28.1070   49.0430 N   0  0  0  0  0  0  0  0  0  0  0  0
   33.4780   28.2580   48.2390 C   0  0  0  0  0  0  0  0  0  0  0  0
   33.4130   29.3020   47.4260 N   0  0  0  0  0  0  0  0  0  0  0  0
   34.4020   31.0900   46.7540 H   0  0  0  0  0  0  0  0  0  0  0  0
   36.3740   28.7930   49.7420 H   0  0  0  0  0  0  0  0  0  0  0  0
   36.6570   31.0210   48.2890 C   0  0  0  0  0  0  0  0  0  0  0  0
   36.7210   31.6430   49.5030 C   0  0  0  0  0  0  0  0  0  0  0  0
   37.7480   32.5380   49.8140 C   0  0  0  0  0  0  0  0  0  0  0  0
   38.7270   32.8070   48.8740 C   0  0  0  0  0  0  0  0  0  0  0  0
   38.6460   32.1720   47.6610 C   0  0  0  0  0  0  0  0  0  0  0  0
   39.5830   32.3730   46.6400 C   0  0  0  0  0  0  0  0  0  0  0  0
   39.4550   31.7080   45.4270 C   0  0  0  0  0  0  0  0  0  0  0  0
   38.4250   30.8390   45.1750 C   0  0  0  0  0  0  0  0  0  0  0  0
   37.4920   30.6350   46.1860 C   0  0  0  0  0  0  0  0  0  0  0  0
   37.6350   31.3020   47.3790 C   0  0  0  0  0  0  0  0  0  0  0  0
   36.0290   31.5290   50.3270 H   0  0  0  0  0  0  0  0  0  0  0  0
   37.8300   33.0490   50.7660 H   0  0  0  0  0  0  0  0  0  0  0  0
   39.5500   33.4860   49.0440 H   0  0  0  0  0  0  0  0  0  0  0  0
   40.4050   33.0620   46.8290 H   0  0  0  0  0  0  0  0  0  0  0  0
   40.2090   31.9040   44.6760 H   0  0  0  0  0  0  0  0  0  0  0  0
   38.3650   30.3420   44.2160 H   0  0  0  0  0  0  0  0  0  0  0  0
   36.6750   29.9400   45.9740 H   0  0  0  0  0  0  0  0  0  0  0  0
   32.3940   27.2330   48.2760 C   0  0  1  0  0  0  0  0  0  0  0  0
   31.1430   27.5550   49.0390 C   0  0  0  0  0  0  0  0  0  0  0  0
   31.1190   27.4710   47.5440 C   0  0  2  0  0  0  0  0  0  0  0  0
   32.7360   26.1860   48.4130 H   0  0  0  0  0  0  0  0  0  0  0  0
   30.6770   26.7630   49.6490 H   0  0  0  0  0  0  0  0  0  0  0  0
   31.1450   28.5390   49.5300 H   0  0  0  0  0  0  0  0  0  0  0  0
   31.0690   28.4440   47.0070 H   0  0  0  0  0  0  0  0  0  0  0  0
   30.3660   26.0730   46.6870 S   0  0  0  0  0  0  0  0  0  0  0  0
   28.6100   26.4180   46.3670 C   0  0  0  0  0  0  0  0  0  0  0  0
   27.8240   26.5850   47.6320 C   0  0  0  0  0  0  0  0  0  0  0  0
   27.4670   25.5770   47.9410 H   0  0  0  0  0  0  0  0  0  0  0  0
  1  6  2  0  0  0  0
  1  2  1  0  0  0  0
  2  9  1  0  0  0  0
  2  3  2  0  0  0  0
  3  8  1  0  0  0  0
  4  3  1  0  0  0  0
  5 26  1  0  0  0  0
  5  4  2  0  0  0  0
  6  5  1  0  0  0  0
  7  1  1  0  0  0  0
  9 10  1  0  0  0  0
 10 11  2  0  0  0  0
 10 19  1  0  0  0  0
 11 20  1  0  0  0  0
 12 21  1  0  0  0  0
 12 11  1  0  0  0  0
 13 12  2  0  0  0  0
 14 22  1  0  0  0  0
 14 13  1  0  0  0  0
 15 14  2  0  0  0  0
 16 15  1  0  0  0  0
 16 17  2  0  0  0  0
 17 18  1  0  0  0  0
 18 13  1  0  0  0  0
 18  9  2  0  0  0  0
 23 15  1  0  0  0  0
 24 16  1  0  0  0  0
 25 17  1  0  0  0  0
 26 29  1  1  0  0  0
 26 27  1  0  0  0  0
 27 31  1  0  0  0  0
 27 30  1  0  0  0  0
 28 32  1  6  0  0  0
 28 26  1  0  0  0  0
 28 27  1  0  0  0  0
 33 28  1  0  0  0  0
 34 33  1  0  0  0  0
 34 35  1  0  0  0  0
 35 36  1  0  0  0  0
M  END
>  <minimizedAffinity>
-6.33428383

>  <minimizedRMSD>
1.63945854

$$$$
