
 OpenBabel03252513523D

 36 37  0  0  1  0  0  0  0  0999 V2000
   37.7920   30.9450   46.7370 C   0  0  0  0  0  0  0  0  0  0  0  0
   38.4400   30.8940   47.8070 O   0  0  0  0  0  0  0  0  0  0  0  0
   38.4790   31.5580   45.6500 N   0  0  0  0  0  0  0  0  0  0  0  0
   38.4010   30.8760   44.3830 C   0  0  0  0  0  0  0  0  0  0  0  0
   39.4770   31.3510   43.4250 C   0  0  0  0  0  0  0  0  0  0  0  0
   40.5830   31.6740   44.1860 O   0  0  0  0  0  0  0  0  0  0  0  0
   40.3110   32.9370   44.7740 C   0  0  0  0  0  0  0  0  0  0  0  0
   39.2280   32.8070   45.7850 C   0  0  2  0  0  0  0  0  0  0  0  0
   37.3800   31.0150   43.9700 H   0  0  0  0  0  0  0  0  0  0  0  0
   38.5500   29.8040   44.5490 H   0  0  0  0  0  0  0  0  0  0  0  0
   39.0870   32.2370   42.8610 H   0  0  0  0  0  0  0  0  0  0  0  0
   39.7070   30.5580   42.6770 H   0  0  0  0  0  0  0  0  0  0  0  0
   41.3020   33.2670   45.1920 H   0  0  0  0  0  0  0  0  0  0  0  0
   40.0960   33.6120   43.9240 H   0  0  0  0  0  0  0  0  0  0  0  0
   38.5200   33.6540   45.7170 H   0  0  0  0  0  0  0  0  0  0  0  0
   34.4880   29.4280   47.7440 C   0  0  0  0  0  0  0  0  0  0  0  0
   35.8220   29.9580   47.8480 C   0  0  0  0  0  0  0  0  0  0  0  0
   36.4450   30.4030   46.6780 C   0  0  0  0  0  0  0  0  0  0  0  0
   35.7330   30.2970   45.5250 N   0  0  0  0  0  0  0  0  0  0  0  0
   34.5040   29.8020   45.4700 C   0  0  0  0  0  0  0  0  0  0  0  0
   33.8900   29.3750   46.5560 N   0  0  0  0  0  0  0  0  0  0  0  0
   36.3550   30.0250   48.7870 H   0  0  0  0  0  0  0  0  0  0  0  0
   33.8840   29.7660   44.1130 C   0  0  0  0  0  0  0  0  0  0  0  0
   33.7830   31.0530   43.5940 F   0  0  0  0  0  0  0  0  0  0  0  0
   34.7250   29.0890   43.2470 F   0  0  0  0  0  0  0  0  0  0  0  0
   32.6640   29.1110   44.0890 F   0  0  0  0  0  0  0  0  0  0  0  0
   33.8940   28.9930   48.9240 O   0  0  0  0  0  0  0  0  0  0  0  0
   34.0620   29.6000   50.1650 C   0  0  0  0  0  0  0  0  0  0  0  0
   35.0320   28.9760   50.9350 F   0  0  0  0  0  0  0  0  0  0  0  0
   34.2670   30.9460   50.1250 F   0  0  0  0  0  0  0  0  0  0  0  0
   32.8330   29.4080   50.8290 F   0  0  0  0  0  0  0  0  0  0  0  0
   39.8680   32.7060   47.0470 O   0  0  0  0  0  0  0  0  0  0  0  0
   39.5990   33.7760   47.9220 C   0  0  0  0  0  0  0  0  0  0  0  0
   40.4170   34.7420   48.0470 O   0  0  0  0  0  0  0  0  0  0  0  0
   38.4510   33.8190   48.6660 O   0  0  0  0  0  0  0  0  0  0  0  0
   38.2930   34.5730   49.3520 H   0  0  0  0  0  0  0  0  0  0  0  0
  1  2  2  0  0  0  0
  3  8  1  0  0  0  0
  3  1  1  0  0  0  0
  4 10  1  0  0  0  0
  4  3  1  0  0  0  0
  5  6  1  0  0  0  0
  5  4  1  0  0  0  0
  6  7  1  0  0  0  0
  7 13  1  0  0  0  0
  7  8  1  0  0  0  0
  8 15  1  6  0  0  0
  8 32  1  0  0  0  0
  9  4  1  0  0  0  0
 11  5  1  0  0  0  0
 12  5  1  0  0  0  0
 14  7  1  0  0  0  0
 16 17  1  0  0  0  0
 16 27  1  0  0  0  0
 17 22  1  0  0  0  0
 18  1  1  0  0  0  0
 18 17  2  0  0  0  0
 19 18  1  0  0  0  0
 20 19  2  0  0  0  0
 20 21  1  0  0  0  0
 21 16  2  0  0  0  0
 23 20  1  0  0  0  0
 24 23  1  0  0  0  0
 25 23  1  0  0  0  0
 26 23  1  0  0  0  0
 27 28  1  0  0  0  0
 28 31  1  0  0  0  0
 28 29  1  0  0  0  0
 30 28  1  0  0  0  0
 32 33  1  0  0  0  0
 33 34  2  0  0  0  0
 33 35  1  0  0  0  0
 35 36  1  0  0  0  0
M  END
>  <minimizedAffinity>
-5.26184654

>  <minimizedRMSD>
0.836737156

$$$$
