
 OpenBabel03252514073D

 37 39  0  0  0  0  0  0  0  0999 V2000
   34.3480   30.0800   47.3500 C   0  0  0  0  0  0  0  0  0  0  0  0
   35.2660   29.8290   48.3980 C   0  0  0  0  0  0  0  0  0  0  0  0
   35.1910   28.5890   49.0070 C   0  0  0  0  0  0  0  0  0  0  0  0
   34.2690   27.6970   48.5870 N   0  0  0  0  0  0  0  0  0  0  0  0
   33.4100   27.9420   47.6020 C   0  0  0  0  0  0  0  0  0  0  0  0
   33.4570   29.1360   46.9910 N   0  0  0  0  0  0  0  0  0  0  0  0
   34.3700   31.0400   46.8440 H   0  0  0  0  0  0  0  0  0  0  0  0
   35.8960   28.4040   49.8050 H   0  0  0  0  0  0  0  0  0  0  0  0
   36.1800   30.8620   48.7310 N   0  0  0  0  0  0  0  0  0  0  0  0
   36.1580   31.5450   49.9140 C   0  0  0  0  0  0  0  0  0  0  0  0
   37.1610   32.4550   49.9040 N   0  0  0  0  0  0  0  0  0  0  0  0
   37.7890   32.3270   48.7220 C   0  0  0  0  0  0  0  0  0  0  0  0
   38.8680   32.9700   48.1430 C   0  0  0  0  0  0  0  0  0  0  0  0
   39.3030   32.6450   46.9290 N   0  0  0  0  0  0  0  0  0  0  0  0
   38.7080   31.6640   46.1940 C   0  0  0  0  0  0  0  0  0  0  0  0
   37.6600   31.0460   46.7640 N   0  0  0  0  0  0  0  0  0  0  0  0
   37.1900   31.3350   47.9740 C   0  0  0  0  0  0  0  0  0  0  0  0
   35.5070   31.4560   50.7670 H   0  0  0  0  0  0  0  0  0  0  0  0
   39.0790   31.4110   45.1960 H   0  0  0  0  0  0  0  0  0  0  0  0
   39.5280   33.9970   48.8560 N   0  0  0  0  0  0  0  0  0  0  0  0
   39.0390   34.6160   49.5310 H   0  0  0  0  0  0  0  0  0  0  0  0
   40.5490   34.2180   48.7690 H   0  0  0  0  0  0  0  0  0  0  0  0
   32.3970   26.9730   47.1350 C   0  0  0  0  0  0  0  0  0  0  0  0
   31.5180   26.5290   48.2920 C   0  0  0  0  0  0  0  0  0  0  0  0
   32.1500   26.3360   49.1590 H   0  0  0  0  0  0  0  0  0  0  0  0
   30.7580   27.3180   48.4570 H   0  0  0  0  0  0  0  0  0  0  0  0
   31.0040   25.5810   47.9570 H   0  0  0  0  0  0  0  0  0  0  0  0
   31.4440   27.6030   46.1180 C   0  0  0  0  0  0  0  0  0  0  0  0
   32.0390   28.2430   45.4370 H   0  0  0  0  0  0  0  0  0  0  0  0
   30.6160   28.1360   46.6110 H   0  0  0  0  0  0  0  0  0  0  0  0
   30.9990   26.8030   45.4860 H   0  0  0  0  0  0  0  0  0  0  0  0
   33.0130   25.7770   46.4500 C   0  0  0  0  0  0  0  0  0  0  0  0
   32.2100   25.1720   46.0130 H   0  0  0  0  0  0  0  0  0  0  0  0
   33.7020   26.1020   45.6460 H   0  0  0  0  0  0  0  0  0  0  0  0
   33.8000   25.0290   47.4190 N   0  0  0  0  0  0  0  0  0  0  0  0
   34.5970   24.5390   46.9530 H   0  0  0  0  0  0  0  0  0  0  0  0
   34.1840   25.5910   48.1850 H   0  0  0  0  0  0  0  0  0  0  0  0
  1  2  1  0  0  0  0
  2  9  1  0  0  0  0
  2  3  2  0  0  0  0
  3  8  1  0  0  0  0
  4  3  1  0  0  0  0
  5  4  2  0  0  0  0
  6  1  2  0  0  0  0
  6  5  1  0  0  0  0
  7  1  1  0  0  0  0
  9 10  1  0  0  0  0
 10 18  1  0  0  0  0
 11 10  2  0  0  0  0
 12 11  1  0  0  0  0
 13 12  1  0  0  0  0
 13 20  1  0  0  0  0
 14 13  2  0  0  0  0
 15 16  2  0  0  0  0
 15 14  1  0  0  0  0
 16 17  1  0  0  0  0
 17 12  2  0  0  0  0
 17  9  1  0  0  0  0
 19 15  1  0  0  0  0
 20 21  1  0  0  0  0
 22 20  1  0  0  0  0
 23  5  1  0  0  0  0
 23 24  1  0  0  0  0
 24 26  1  0  0  0  0
 24 25  1  0  0  0  0
 27 24  1  0  0  0  0
 28 30  1  0  0  0  0
 28 23  1  0  0  0  0
 29 28  1  0  0  0  0
 31 28  1  0  0  0  0
 32 23  1  0  0  0  0
 32 35  1  0  0  0  0
 33 32  1  0  0  0  0
 34 32  1  0  0  0  0
 35 37  1  0  0  0  0
 36 35  1  0  0  0  0
M  END
>  <minimizedAffinity>
-5.07128525

>  <minimizedRMSD>
0.525602102

$$$$
