
 OpenBabel03252514023D

 30 32  0  0  1  0  0  0  0  0999 V2000
   35.5490   29.4990   49.0930 C   0  0  2  0  0  0  0  0  0  0  0  0
   34.5480   29.6000   50.1650 C   0  0  0  0  0  0  0  0  0  0  0  0
   34.7570   28.2760   49.6010 C   0  0  1  0  0  0  0  0  0  0  0  0
   35.3690   29.7270   48.0560 H   0  0  0  0  0  0  0  0  0  0  0  0
   33.6230   30.1890   49.8950 H   0  0  0  0  0  0  0  0  0  0  0  0
   34.8660   29.8670   51.2060 H   0  0  0  0  0  0  0  0  0  0  0  0
   35.4280   27.5080   50.0180 H   0  0  0  0  0  0  0  0  0  0  0  0
   37.0170   29.4520   49.5190 C   0  0  0  0  0  0  0  0  0  0  0  0
   37.0410   29.4450   50.6270 H   0  0  0  0  0  0  0  0  0  0  0  0
   37.5060   28.5090   49.1900 H   0  0  0  0  0  0  0  0  0  0  0  0
   38.2260   32.9060   49.3660 C   0  0  0  0  0  0  0  0  0  0  0  0
   38.8560   32.9680   48.1130 C   0  0  0  0  0  0  0  0  0  0  0  0
   38.8550   31.8010   47.3280 C   0  0  0  0  0  0  0  0  0  0  0  0
   38.2460   30.6880   47.8320 N   0  0  0  0  0  0  0  0  0  0  0  0
   37.6570   30.6770   49.0330 C   0  0  0  0  0  0  0  0  0  0  0  0
   37.6520   31.7930   49.7960 N   0  0  0  0  0  0  0  0  0  0  0  0
   38.2490   33.8160   49.9350 H   0  0  0  0  0  0  0  0  0  0  0  0
   39.3410   33.8470   47.7080 H   0  0  0  0  0  0  0  0  0  0  0  0
   39.3120   31.7500   46.3550 H   0  0  0  0  0  0  0  0  0  0  0  0
   33.6570   27.7570   48.7230 C   0  0  0  0  0  0  0  0  0  0  0  0
   34.0560   27.0060   47.7520 O   0  0  0  0  0  0  0  0  0  0  0  0
   32.3060   28.0160   48.8930 O   0  0  0  0  0  0  0  0  0  0  0  0
   31.4080   27.8390   47.8780 C   0  0  0  0  0  0  0  0  0  0  0  0
   30.5320   26.7770   48.1250 C   0  0  0  0  0  3  0  0  0  0  0  0
   29.5450   26.4550   47.1880 C   0  0  0  0  0  0  0  0  0  0  0  0
   28.8500   25.6390   47.3480 H   0  0  0  0  0  0  0  0  0  0  0  0
   29.4390   27.1870   46.0210 C   0  0  0  0  0  3  0  0  0  0  0  0
   30.3060   28.2360   45.7750 C   0  0  0  0  0  0  0  0  0  0  0  0
   30.2970   28.8600   44.8940 H   0  0  0  0  0  0  0  0  0  0  0  0
   31.2790   28.5430   46.7170 C   0  0  0  0  0  3  0  0  0  0  0  0
  1  4  1  6  0  0  0
  1  8  1  0  0  0  0
  1  3  1  0  0  0  0
  1  2  1  0  0  0  0
  2  6  1  0  0  0  0
  3  7  1  1  0  0  0
  3  2  1  0  0  0  0
  5  2  1  0  0  0  0
  8  9  1  0  0  0  0
 10  8  1  0  0  0  0
 11 16  1  0  0  0  0
 11 17  1  0  0  0  0
 12 11  2  0  0  0  0
 13 14  2  0  0  0  0
 13 12  1  0  0  0  0
 14 15  1  0  0  0  0
 15  8  1  0  0  0  0
 15 16  2  0  0  0  0
 18 12  1  0  0  0  0
 19 13  1  0  0  0  0
 20 22  1  0  0  0  0
 20  3  1  0  0  0  0
 21 20  2  0  0  0  0
 23 24  1  0  0  0  0
 23 22  1  0  0  0  0
 25 26  1  0  0  0  0
 25 24  2  0  0  0  0
 27 25  1  0  0  0  0
 28 27  2  0  0  0  0
 28 30  1  0  0  0  0
 29 28  1  0  0  0  0
 30 23  2  0  0  0  0
M  END
>  <minimizedAffinity>
-4.96015549

>  <minimizedRMSD>
0.310076147

$$$$
