
     RDKit          3D

 33 35  0  0  0  0  0  0  0  0999 V2000
   36.8908   29.4410   49.6744 C   0  0  0  0  0  0  0  0  0  0  0  0
   38.4282   32.7514   49.3660 C   0  0  0  0  0  0  0  0  0  0  0  0
   38.9381   32.7450   48.0581 C   0  0  0  0  0  0  0  0  0  0  0  0
   38.7424   31.5830   47.2911 C   0  0  0  0  0  0  0  0  0  0  0  0
   38.0727   30.5400   47.8631 N   0  0  0  0  0  0  0  0  0  0  0  0
   37.6039   30.5918   49.1153 C   0  0  0  0  0  0  0  0  0  0  0  0
   37.7865   31.7041   49.8618 N   0  0  0  0  0  0  0  0  0  0  0  0
   35.4329   29.5381   49.2224 C   0  0  2  0  0  0  0  0  0  0  0  0
   34.4052   29.4596   50.2709 C   0  0  0  0  0  0  0  0  0  0  0  0
   34.6473   28.2431   49.5125 C   0  0  1  0  0  0  0  0  0  0  0  0
   33.5756   27.8552   48.5370 C   0  0  0  0  0  0  0  0  0  0  0  0
   33.8919   26.8771   47.7559 O   0  0  0  0  0  0  0  0  0  0  0  0
   32.3276   28.4486   48.4385 O   0  0  0  0  0  0  0  0  0  0  0  0
   36.9010   29.5102   50.7799 H   0  0  0  0  0  0  0  0  0  0  0  0
   37.3307   28.4522   49.4188 H   0  0  0  0  0  0  0  0  0  0  0  0
   38.5976   33.6552   49.9185 H   0  0  0  0  0  0  0  0  0  0  0  0
   39.4700   33.5676   47.5976 H   0  0  0  0  0  0  0  0  0  0  0  0
   39.0965   31.4832   46.2787 H   0  0  0  0  0  0  0  0  0  0  0  0
   35.2753   29.9230   48.2289 H   0  0  0  0  0  0  0  0  0  0  0  0
   33.4776   30.0741   50.0709 H   0  0  0  0  0  0  0  0  0  0  0  0
   34.6938   29.5651   51.3478 H   0  0  0  0  0  0  0  0  0  0  0  0
   35.3195   27.4260   49.8232 H   0  0  0  0  0  0  0  0  0  0  0  0
   31.4017   28.0265   47.5255 C   0  0  0  0  0  0  0  0  0  0  0  0
   31.2993   26.6309   47.4836 C   0  0  0  0  0  0  0  0  0  0  0  0
   30.3981   26.0247   46.6035 C   0  0  0  0  0  0  0  0  0  0  0  0
   30.2932   24.9478   46.5449 H   0  0  0  0  0  0  0  0  0  0  0  0
   29.6119   26.8051   45.7784 C   0  0  0  0  0  0  0  0  0  0  0  0
   29.7122   28.1848   45.8189 C   0  0  0  0  0  0  0  0  0  0  0  0
   29.1397   28.8698   45.2131 H   0  0  0  0  0  0  0  0  0  0  0  0
   30.6127   28.7699   46.6992 C   0  0  0  0  0  0  0  0  0  0  0  0
   31.8852   25.9389   48.1031 H   0  0  0  0  0  0  0  0  0  0  0  0
   28.8894   26.4184   45.0685 H   0  0  0  0  0  0  0  0  0  0  0  0
   30.7682   29.8367   46.8091 H   0  0  0  0  0  0  0  0  0  0  0  0
  2  7  2  0
  3  2  1  0
  4  5  1  0
  4  3  2  0
  5  6  2  0
  6  1  1  0
  6  7  1  0
  8 10  1  0
  8  1  1  0
  8  9  1  0
 10  9  1  0
 11 10  1  0
 12 11  2  0
 13 11  1  0
  1 14  1  0
  1 15  1  0
  2 16  1  0
  3 17  1  0
  4 18  1  0
  8 19  1  6
  9 20  1  0
  9 21  1  0
 10 22  1  1
 23 24  2  0
 24 25  1  0
 25 26  1  0
 25 27  2  0
 27 28  1  0
 28 29  1  0
 28 30  2  0
 30 23  1  0
 24 31  1  0
 27 32  1  0
 30 33  1  0
 13 23  1  0
M  ISO  8  14   8  15   8  16  14  17  14  18  14  19  13  20  13  21  13
M  ISO  3  22  13  26  16  29  16
M  END
>  <DihAtoms>  (1) 
10,12,22,23

>  <DihDeg>  (1) 
-89.99898769464255

$$$$
