
 OpenBabel03252511013D

 35 38  0  0  0  0  0  0  0  0999 V2000
   39.1190   32.4640   45.9440 C   0  0  0  0  0  0  0  0  0  0  0  0
   40.3280   33.0810   45.7340 C   0  0  0  0  0  0  0  0  0  0  0  0
   40.6120   32.9930   44.3790 C   0  0  0  0  0  0  0  0  0  0  0  0
   39.5450   32.3170   43.8190 C   0  0  0  0  0  0  0  0  0  0  0  0
   38.7360   32.0490   44.7810 O   0  0  0  0  0  0  0  0  0  0  0  0
   40.9260   33.5440   46.5010 H   0  0  0  0  0  0  0  0  0  0  0  0
   41.4900   33.3920   43.9370 H   0  0  0  0  0  0  0  0  0  0  0  0
   39.5670   32.0710   42.3820 C   0  0  0  0  0  0  0  0  0  0  0  0
   38.9600   32.8640   41.4820 N   0  0  0  0  0  0  0  0  0  0  0  0
   38.9660   32.6590   40.1620 C   0  0  0  0  0  0  0  0  0  0  0  0
   39.5910   31.6230   39.6180 N   0  0  0  0  0  0  0  0  0  0  0  0
   40.2460   30.7440   40.4320 C   0  0  0  0  0  0  0  0  0  0  0  0
   40.9030   29.6610   39.8910 C   0  0  0  0  0  0  0  0  0  0  0  0
   41.5680   28.7650   40.6990 C   0  0  0  0  0  0  0  0  0  0  0  0
   42.0510   27.9490   40.1900 H   0  0  0  0  0  0  0  0  0  0  0  0
   41.5520   28.9910   42.0660 C   0  0  0  0  0  0  0  0  0  0  0  0
   42.0770   28.2810   42.6880 H   0  0  0  0  0  0  0  0  0  0  0  0
   40.8800   30.0900   42.5540 C   0  0  0  0  0  0  0  0  0  0  0  0
   40.2040   31.0080   41.7830 C   0  0  0  0  0  0  0  0  0  0  0  0
   36.8860   31.2480   48.5440 C   0  0  0  0  0  0  0  0  0  0  0  0
   37.2040   32.0570   49.6560 C   0  0  0  0  0  0  0  0  0  0  0  0
   38.1970   33.0230   49.4910 C   0  0  0  0  0  0  0  0  0  0  0  0
   38.8050   33.1280   48.2530 N   0  0  0  0  0  0  0  0  0  0  0  0
   38.4650   32.3410   47.2450 C   0  0  0  0  0  0  0  0  0  0  0  0
   37.4920   31.3770   47.3670 N   0  0  0  0  0  0  0  0  0  0  0  0
   36.7290   31.9750   50.6220 H   0  0  0  0  0  0  0  0  0  0  0  0
   38.5140   33.6900   50.2770 H   0  0  0  0  0  0  0  0  0  0  0  0
   35.8450   30.2450   48.7410 C   0  0  0  0  0  0  0  0  0  0  0  0
   34.6730   30.4630   48.2930 O   0  0  0  0  0  0  0  0  0  0  0  0
   36.1560   29.0600   49.4190 O   0  0  0  0  0  0  0  0  0  0  0  0
   36.5290   29.0550   50.7650 C   0  0  0  0  0  0  0  0  0  0  0  0
   37.8690   28.8620   51.1910 N   0  0  0  0  0  0  0  0  0  0  0  0
   35.5590   29.2400   51.5460 O   0  0  0  0  0  0  0  0  0  0  0  0
   38.3780   29.5150   51.8400 H   0  0  0  0  0  0  0  0  0  0  0  0
   38.5170   28.0710   50.9310 H   0  0  0  0  0  0  0  0  0  0  0  0
  1 24  1  0  0  0  0
  2  1  2  0  0  0  0
  2  6  1  0  0  0  0
  3  2  1  0  0  0  0
  4  3  2  0  0  0  0
  4  5  1  0  0  0  0
  5  1  1  0  0  0  0
  7  3  1  0  0  0  0
  8  4  1  0  0  0  0
  9  8  2  0  0  0  0
 10  9  1  0  0  0  0
 11 10  2  0  0  0  0
 11 12  1  0  0  0  0
 12 19  1  0  0  0  0
 13 12  2  0  0  0  0
 13 14  1  0  0  0  0
 14 16  2  0  0  0  0
 15 14  1  0  0  0  0
 16 18  1  0  0  0  0
 16 17  1  0  0  0  0
 19  8  1  0  0  0  0
 19 18  2  0  0  0  0
 20 28  1  0  0  0  0
 20 21  1  0  0  0  0
 21 26  1  0  0  0  0
 22 21  2  0  0  0  0
 22 27  1  0  0  0  0
 23 22  1  0  0  0  0
 24 25  1  0  0  0  0
 24 23  2  0  0  0  0
 25 20  2  0  0  0  0
 28 30  1  0  0  0  0
 29 28  2  0  0  0  0
 30 31  1  0  0  0  0
 31 32  1  0  0  0  0
 31 33  2  0  0  0  0
 32 34  1  0  0  0  0
 35 32  1  0  0  0  0
M  END
>  <minimizedAffinity>
-6.77435112

>  <minimizedRMSD>
1.60016286

$$$$
