
 OpenBabel03252512563D

 33 37  0  0  0  0  0  0  0  0999 V2000
   38.0770   33.0530   49.6550 C   0  0  0  0  0  0  0  0  0  0  0  0
   38.8860   33.2430   48.5370 C   0  0  0  0  0  0  0  0  0  0  0  0
   38.6840   32.3900   47.4640 C   0  0  0  0  0  0  0  0  0  0  0  0
   37.7350   31.4450   47.5630 N   0  0  0  0  0  0  0  0  0  0  0  0
   36.9560   31.2640   48.6410 C   0  0  0  0  0  0  0  0  0  0  0  0
   37.1440   32.0980   49.7060 N   0  0  0  0  0  0  0  0  0  0  0  0
   38.2330   33.7240   50.5050 H   0  0  0  0  0  0  0  0  0  0  0  0
   39.6440   33.9940   48.4520 H   0  0  0  0  0  0  0  0  0  0  0  0
   39.4490   32.4760   46.2190 C   0  0  0  0  0  0  0  0  0  0  0  0
   40.4110   33.3550   45.8060 N   0  0  0  0  0  0  0  0  0  0  0  0
   40.8070   33.0320   44.6100 O   0  0  0  0  0  0  0  0  0  0  0  0
   40.1380   31.9770   44.2330 C   0  0  0  0  0  0  0  0  0  0  0  0
   39.2740   31.5910   45.2100 N   0  0  0  0  0  0  0  0  0  0  0  0
   40.2490   31.2780   42.9870 N   0  0  0  0  0  0  0  0  0  0  0  0
   39.8770   31.8130   41.8240 N   0  0  0  0  0  0  0  0  0  0  0  0
   40.0960   30.9360   40.8400 C   0  0  0  0  0  0  0  0  0  0  0  0
   40.6290   29.8040   41.4390 C   0  0  0  0  0  0  0  0  0  0  0  0
   40.7280   30.0240   42.8150 C   0  0  0  0  0  0  0  0  0  0  0  0
   39.9030   31.0530   39.7720 H   0  0  0  0  0  0  0  0  0  0  0  0
   40.9210   28.9050   40.9320 H   0  0  0  0  0  0  0  0  0  0  0  0
   41.1010   29.3480   43.5710 H   0  0  0  0  0  0  0  0  0  0  0  0
   35.9060   30.2860   48.8550 C   0  0  0  0  0  0  0  0  0  0  0  0
   35.6090   29.8230   50.0800 N   0  0  0  0  0  0  0  0  0  0  0  0
   34.6670   28.9300   50.3710 C   0  0  0  0  0  0  0  0  0  0  0  0
   33.8920   28.3920   49.3850 N   0  0  0  0  0  0  0  0  0  0  0  0
   34.1080   28.7930   48.0990 C   0  0  0  0  0  0  0  0  0  0  0  0
   33.3390   28.2650   47.0870 C   0  0  0  0  0  0  0  0  0  0  0  0
   33.5320   28.6480   45.7800 C   0  0  0  0  0  0  0  0  0  0  0  0
   32.8690   28.1640   45.0780 H   0  0  0  0  0  0  0  0  0  0  0  0
   34.5350   29.5870   45.5430 C   0  0  0  0  0  0  0  0  0  0  0  0
   34.6470   29.8550   44.4980 H   0  0  0  0  0  0  0  0  0  0  0  0
   35.2750   30.0820   46.5930 C   0  0  0  0  0  0  0  0  0  0  0  0
   35.1030   29.7190   47.8950 C   0  0  0  0  0  0  0  0  0  0  0  0
  1  6  1  0  0  0  0
  1  7  1  0  0  0  0
  2  1  2  0  0  0  0
  3  4  2  0  0  0  0
  3  2  1  0  0  0  0
  4  5  1  0  0  0  0
  5 22  1  0  0  0  0
  5  6  2  0  0  0  0
  8  2  1  0  0  0  0
  9  3  1  0  0  0  0
 10  9  2  0  0  0  0
 11 10  1  0  0  0  0
 12 11  1  0  0  0  0
 12 13  2  0  0  0  0
 13  9  1  0  0  0  0
 14 12  1  0  0  0  0
 15 14  1  0  0  0  0
 16 17  1  0  0  0  0
 16 15  2  0  0  0  0
 17 18  2  0  0  0  0
 18 14  1  0  0  0  0
 18 21  1  0  0  0  0
 19 16  1  0  0  0  0
 20 17  1  0  0  0  0
 22 23  1  0  0  0  0
 23 24  2  0  0  0  0
 25 24  1  0  0  0  0
 26 25  2  0  0  0  0
 27 26  1  0  0  0  0
 28 27  2  0  0  0  0
 29 28  1  0  0  0  0
 30 28  1  0  0  0  0
 30 32  2  0  0  0  0
 31 30  1  0  0  0  0
 32 33  1  0  0  0  0
 33 26  1  0  0  0  0
 33 22  2  0  0  0  0
M  END
>  <minimizedAffinity>
-7.28067064

>  <minimizedRMSD>
3.0015254

$$$$
