
 OpenBabel03252514023D

 30 32  0  0  1  0  0  0  0  0999 V2000
   35.8580   29.8820   49.8490 C   0  0  2  0  0  0  0  0  0  0  0  0
   35.0960   29.1580   50.8770 C   0  0  0  0  0  0  0  0  0  0  0  0
   35.1270   28.5560   49.5540 C   0  0  1  0  0  0  0  0  0  0  0  0
   35.4870   30.7140   49.2760 H   0  0  0  0  0  0  0  0  0  0  0  0
   34.1640   29.6870   51.2350 H   0  0  0  0  0  0  0  0  0  0  0  0
   35.6270   28.7080   51.7550 H   0  0  0  0  0  0  0  0  0  0  0  0
   35.8310   27.7720   49.2310 H   0  0  0  0  0  0  0  0  0  0  0  0
   37.3780   29.7100   49.8650 C   0  0  0  0  0  0  0  0  0  0  0  0
   37.7000   29.7080   50.9260 H   0  0  0  0  0  0  0  0  0  0  0  0
   37.6810   28.7260   49.4450 H   0  0  0  0  0  0  0  0  0  0  0  0
   38.6970   33.0750   49.2720 C   0  0  0  0  0  0  0  0  0  0  0  0
   39.0500   33.0440   47.9130 C   0  0  0  0  0  0  0  0  0  0  0  0
   38.8250   31.8460   47.2120 C   0  0  0  0  0  0  0  0  0  0  0  0
   38.2820   30.7950   47.8930 N   0  0  0  0  0  0  0  0  0  0  0  0
   37.9610   30.8720   49.1890 C   0  0  0  0  0  0  0  0  0  0  0  0
   38.1720   32.0180   49.8740 N   0  0  0  0  0  0  0  0  0  0  0  0
   38.8850   34.0060   49.7720 H   0  0  0  0  0  0  0  0  0  0  0  0
   39.4820   33.8730   47.3680 H   0  0  0  0  0  0  0  0  0  0  0  0
   39.0620   31.7250   46.1690 H   0  0  0  0  0  0  0  0  0  0  0  0
   33.8510   28.6340   48.7690 C   0  0  0  0  0  0  0  0  0  0  0  0
   33.9660   29.2080   47.6180 O   0  0  0  0  0  0  0  0  0  0  0  0
   32.6240   28.1420   49.1820 O   0  0  0  0  0  0  0  0  0  0  0  0
   31.8600   27.3470   48.3740 C   0  0  0  0  0  0  0  0  0  0  0  0
   30.5530   27.8330   48.2370 C   0  0  0  0  0  3  0  0  0  0  0  0
   29.6340   27.1430   47.4430 C   0  0  0  0  0  0  0  0  0  0  0  0
   28.6160   27.4890   47.3140 H   0  0  0  0  0  0  0  0  0  0  0  0
   30.0160   25.9830   46.7950 C   0  0  0  0  0  3  0  0  0  0  0  0
   31.3080   25.5030   46.9300 C   0  0  0  0  0  0  0  0  0  0  0  0
   31.6920   24.6100   46.4630 H   0  0  0  0  0  0  0  0  0  0  0  0
   32.2080   26.2010   47.7230 C   0  0  0  0  0  3  0  0  0  0  0  0
  1  4  1  6  0  0  0
  1  8  1  0  0  0  0
  1  2  1  0  0  0  0
  2  5  1  0  0  0  0
  2  6  1  0  0  0  0
  3  7  1  6  0  0  0
  3  1  1  0  0  0  0
  3  2  1  0  0  0  0
  8  9  1  0  0  0  0
 10  8  1  0  0  0  0
 11 17  1  0  0  0  0
 11 16  1  0  0  0  0
 12 11  2  0  0  0  0
 13 14  2  0  0  0  0
 13 12  1  0  0  0  0
 14 15  1  0  0  0  0
 15  8  1  0  0  0  0
 15 16  2  0  0  0  0
 18 12  1  0  0  0  0
 19 13  1  0  0  0  0
 20 22  1  0  0  0  0
 20  3  1  0  0  0  0
 21 20  2  0  0  0  0
 23 22  1  0  0  0  0
 24 23  1  0  0  0  0
 25 24  2  0  0  0  0
 26 25  1  0  0  0  0
 27 28  2  0  0  0  0
 27 25  1  0  0  0  0
 28 30  1  0  0  0  0
 29 28  1  0  0  0  0
 30 23  2  0  0  0  0
M  END
>  <minimizedAffinity>
-5.07229948

>  <minimizedRMSD>
1.15014803

$$$$
