
 OpenBabel03252513283D

 33 35  0  0  0  0  0  0  0  0999 V2000
   32.8770   27.8410   48.5500 C   0  0  0  0  0  0  0  0  0  0  0  0
   31.7590   28.2150   49.2500 C   0  0  0  0  0  0  0  0  0  0  0  0
   30.5480   27.5640   49.1660 C   0  0  0  0  0  0  0  0  0  0  0  0
   30.5010   26.4840   48.3190 C   0  0  0  0  0  0  0  0  0  0  0  0
   31.5990   26.0840   47.6050 C   0  0  0  0  0  0  0  0  0  0  0  0
   32.8000   26.7550   47.7100 C   0  0  0  0  0  0  0  0  0  0  0  0
   31.8090   29.0760   49.9210 H   0  0  0  0  0  0  0  0  0  0  0  0
   29.7090   27.9200   49.7520 H   0  0  0  0  0  0  0  0  0  0  0  0
   29.5510   25.9620   48.2430 H   0  0  0  0  0  0  0  0  0  0  0  0
   31.4910   25.2250   46.9580 H   0  0  0  0  0  0  0  0  0  0  0  0
   36.1820   28.9680   49.6750 C   0  0  0  0  0  0  0  0  0  0  0  0
   36.4680   30.0190   48.7850 C   0  0  0  0  0  0  0  0  0  0  0  0
   35.5060   30.3150   47.8130 C   0  0  0  0  0  0  0  0  0  0  0  0
   34.3540   29.5710   47.7850 N   0  0  0  0  0  0  0  0  0  0  0  0
   34.1330   28.5620   48.6750 C   0  0  0  0  0  0  0  0  0  0  0  0
   35.0390   28.2840   49.5890 N   0  0  0  0  0  0  0  0  0  0  0  0
   36.9640   28.7910   50.3990 H   0  0  0  0  0  0  0  0  0  0  0  0
   35.6310   31.0940   47.0940 H   0  0  0  0  0  0  0  0  0  0  0  0
   37.7200   30.8160   48.8280 C   0  0  0  0  0  0  0  0  0  0  0  0
   38.5480   30.5930   47.7630 F   0  0  0  0  0  0  0  0  0  0  0  0
   38.4480   30.5390   49.9630 F   0  0  0  0  0  0  0  0  0  0  0  0
   37.4200   32.1790   48.8320 F   0  0  0  0  0  0  0  0  0  0  0  0
   33.9890   26.3660   46.9670 C   0  0  0  0  0  0  0  0  0  0  0  0
   34.9060   26.7000   47.5090 H   0  0  0  0  0  0  0  0  0  0  0  0
   33.9070   26.9150   45.9810 H   0  0  0  0  0  0  0  0  0  0  0  0
   34.1350   24.9090   46.7090 C   0  0  0  0  0  0  0  0  0  0  0  0
   33.1310   24.3910   46.6810 H   0  0  0  0  0  0  0  0  0  0  0  0
   34.6770   24.4510   47.5620 H   0  0  0  0  0  0  0  0  0  0  0  0
   34.8800   24.5500   45.4760 C   0  0  0  0  0  0  0  0  0  0  0  0
   34.1010   24.0120   44.3430 C   0  0  0  0  0  0  0  0  0  0  0  0
   34.6160   22.6170   44.0310 C   0  0  0  0  0  0  0  0  0  0  0  0
   35.4030   22.1920   45.2480 C   0  0  0  0  0  0  0  0  0  0  0  0
   35.8970   23.4750   45.8740 C   0  0  0  0  0  0  0  0  0  0  0  0
  1 15  1  0  0  0  0
  1  2  1  0  0  0  0
  2  7  1  0  0  0  0
  3  2  2  0  0  0  0
  3  8  1  0  0  0  0
  4  3  1  0  0  0  0
  5  6  1  0  0  0  0
  5  4  2  0  0  0  0
  6  1  2  0  0  0  0
  9  4  1  0  0  0  0
 10  5  1  0  0  0  0
 11 17  1  0  0  0  0
 12 19  1  0  0  0  0
 12 11  2  0  0  0  0
 13 12  1  0  0  0  0
 14 13  2  0  0  0  0
 14 15  1  0  0  0  0
 15 16  2  0  0  0  0
 16 11  1  0  0  0  0
 18 13  1  0  0  0  0
 19 22  1  0  0  0  0
 19 21  1  0  0  0  0
 20 19  1  0  0  0  0
 23 24  1  0  0  0  0
 23  6  1  0  0  0  0
 25 23  1  0  0  0  0
 26 23  1  0  0  0  0
 26 28  1  0  0  0  0
 27 26  1  0  0  0  0
 29 33  1  0  0  0  0
 29 26  1  0  0  0  0
 30 29  1  0  0  0  0
 31 30  1  0  0  0  0
 31 32  1  0  0  0  0
 32 33  1  0  0  0  0
M  END
>  <minimizedAffinity>
-5.08045721

>  <minimizedRMSD>
0.382086873

$$$$
