
 OpenBabel03252513533D

 40 42  0  0  1  0  0  0  0  0999 V2000
   36.8800   30.5140   45.9720 C   0  0  0  0  0  0  0  0  0  0  0  0
   37.8220   30.3670   46.7990 O   0  0  0  0  0  0  0  0  0  0  0  0
   37.2250   31.2540   44.8130 N   0  0  0  0  0  0  0  0  0  0  0  0
   36.7550   30.7090   43.5480 C   0  0  0  0  0  0  0  0  0  0  0  0
   37.4960   31.2940   42.3700 C   0  0  0  0  0  0  0  0  0  0  0  0
   38.7990   31.5430   42.7840 O   0  0  0  0  0  0  0  0  0  0  0  0
   38.7470   32.7080   43.5640 C   0  0  0  0  0  0  0  0  0  0  0  0
   37.9960   32.4750   44.8550 C   0  0  2  0  0  0  0  0  0  0  0  0
   35.6570   30.7650   43.4290 H   0  0  0  0  0  0  0  0  0  0  0  0
   37.0270   29.6170   43.5920 H   0  0  0  0  0  0  0  0  0  0  0  0
   37.4390   30.6420   41.4940 H   0  0  0  0  0  0  0  0  0  0  0  0
   37.0290   32.2940   42.1560 H   0  0  0  0  0  0  0  0  0  0  0  0
   38.2650   33.5490   42.9860 H   0  0  0  0  0  0  0  0  0  0  0  0
   39.7930   33.0410   43.7080 H   0  0  0  0  0  0  0  0  0  0  0  0
   37.3230   33.2990   45.1150 H   0  0  0  0  0  0  0  0  0  0  0  0
   33.9010   29.1260   47.8090 C   0  0  0  0  0  0  0  0  0  0  0  0
   35.1920   29.6940   47.5680 C   0  0  0  0  0  0  0  0  0  0  0  0
   35.5840   29.9400   46.2620 C   0  0  0  0  0  0  0  0  0  0  0  0
   34.6890   29.6160   45.2770 N   0  0  0  0  0  0  0  0  0  0  0  0
   33.4990   29.0910   45.5360 C   0  0  0  0  0  0  0  0  0  0  0  0
   33.1100   28.8490   46.7780 N   0  0  0  0  0  0  0  0  0  0  0  0
   35.8250   29.9150   48.4170 H   0  0  0  0  0  0  0  0  0  0  0  0
   32.6590   28.8030   44.3380 C   0  0  0  0  0  0  0  0  0  0  0  0
   32.5780   29.9410   43.5190 F   0  0  0  0  0  0  0  0  0  0  0  0
   33.2770   27.8360   43.5600 F   0  0  0  0  0  0  0  0  0  0  0  0
   31.3980   28.3280   44.6560 F   0  0  0  0  0  0  0  0  0  0  0  0
   33.5310   28.8890   49.1220 O   0  0  0  0  0  0  0  0  0  0  0  0
   34.0370   29.5680   50.2230 C   0  0  0  0  0  0  0  0  0  0  0  0
   35.0300   28.9060   50.9030 F   0  0  0  0  0  0  0  0  0  0  0  0
   34.4270   30.8630   49.9590 F   0  0  0  0  0  0  0  0  0  0  0  0
   32.9320   29.6760   51.1030 F   0  0  0  0  0  0  0  0  0  0  0  0
   39.0130   32.2460   45.8060 O   0  0  0  0  0  0  0  0  0  0  0  0
   39.1860   32.8770   47.0000 C   0  0  0  0  0  0  0  0  0  0  0  0
   38.5370   32.6030   48.1900 C   0  0  0  0  0  0  0  0  0  0  0  0
   38.8100   33.3310   49.3500 C   0  0  0  0  0  0  0  0  0  0  0  0
   38.2540   33.0510   50.2480 H   0  0  0  0  0  0  0  0  0  0  0  0
   39.7280   34.3480   49.3690 C   0  0  0  0  0  0  0  0  0  0  0  0
   40.3760   34.6230   48.1800 C   0  0  0  0  0  0  0  0  0  0  0  0
   41.1130   35.4250   48.1600 H   0  0  0  0  0  0  0  0  0  0  0  0
   40.1130   33.9010   47.0150 C   0  0  0  0  0  0  0  0  0  0  0  0
  1 18  1  0  0  0  0
  1  2  2  0  0  0  0
  3  8  1  0  0  0  0
  3  1  1  0  0  0  0
  4 10  1  0  0  0  0
  4  3  1  0  0  0  0
  5  6  1  0  0  0  0
  5  4  1  0  0  0  0
  6  7  1  0  0  0  0
  7 14  1  0  0  0  0
  7  8  1  0  0  0  0
  8 15  1  1  0  0  0
  8 32  1  0  0  0  0
  9  4  1  0  0  0  0
 11  5  1  0  0  0  0
 12  5  1  0  0  0  0
 13  7  1  0  0  0  0
 16 27  1  0  0  0  0
 17 16  1  0  0  0  0
 17 22  1  0  0  0  0
 18 17  2  0  0  0  0
 19 20  2  0  0  0  0
 19 18  1  0  0  0  0
 20 21  1  0  0  0  0
 21 16  2  0  0  0  0
 23 26  1  0  0  0  0
 23 20  1  0  0  0  0
 24 23  1  0  0  0  0
 25 23  1  0  0  0  0
 27 28  1  0  0  0  0
 28 29  1  0  0  0  0
 28 31  1  0  0  0  0
 30 28  1  0  0  0  0
 32 33  1  0  0  0  0
 33 40  2  0  0  0  0
 33 34  1  0  0  0  0
 34 35  2  0  0  0  0
 35 37  1  0  0  0  0
 35 36  1  0  0  0  0
 38 37  2  0  0  0  0
 39 38  1  0  0  0  0
 40 38  1  0  0  0  0
M  END
>  <minimizedAffinity>
-5.77285004

>  <minimizedRMSD>
1.99434519

$$$$
