
 OpenBabel03252512013D

 24 25  0  0  0  0  0  0  0  0999 V2000
   38.5150   31.7670   49.6150 C   0  0  0  0  0  0  0  0  0  0  0  0
   39.2680   31.0780   49.1540 H   0  0  0  0  0  0  0  0  0  0  0  0
   38.9380   32.3300   50.4630 H   0  0  0  0  0  0  0  0  0  0  0  0
   37.4850   30.2040   51.1680 C   0  0  0  0  0  0  0  0  0  0  0  0
   37.3780   30.9770   50.0110 C   0  0  0  0  0  0  0  0  0  0  0  0
   36.1810   30.9340   49.3080 C   0  0  0  0  0  0  0  0  0  0  0  0
   35.1780   30.1400   49.7850 N   0  0  0  0  0  0  0  0  0  0  0  0
   35.2980   29.3990   50.9050 C   0  0  0  0  0  0  0  0  0  0  0  0
   36.4590   29.4330   51.5990 N   0  0  0  0  0  0  0  0  0  0  0  0
   38.4050   30.1990   51.7620 H   0  0  0  0  0  0  0  0  0  0  0  0
   36.0350   31.4970   48.4200 H   0  0  0  0  0  0  0  0  0  0  0  0
   34.4660   28.7850   51.2400 H   0  0  0  0  0  0  0  0  0  0  0  0
   38.0920   32.6910   48.4850 C   0  0  0  0  0  0  0  0  0  0  0  0
   37.0350   32.5820   48.2510 H   0  0  0  0  0  0  0  0  0  0  0  0
   38.3240   33.7520   48.7310 H   0  0  0  0  0  0  0  0  0  0  0  0
   38.9180   32.2770   47.2920 C   0  0  0  0  0  0  0  0  0  0  0  0
   38.9170   31.0130   46.7420 C   0  0  0  0  0  0  0  0  0  0  0  0
   38.2650   30.2900   47.2250 H   0  0  0  0  0  0  0  0  0  0  0  0
   39.7220   30.7510   45.6420 C   0  0  0  0  0  0  0  0  0  0  0  0
   40.5250   31.7300   45.0850 C   0  0  0  0  0  0  0  0  0  0  0  0
   41.1490   31.5390   44.2360 H   0  0  0  0  0  0  0  0  0  0  0  0
   40.5210   32.9830   45.6370 C   0  0  0  0  0  0  0  0  0  0  0  0
   41.1440   33.7590   45.2110 H   0  0  0  0  0  0  0  0  0  0  0  0
   39.7240   33.2390   46.7240 C   0  0  0  0  0  0  0  0  0  0  0  0
  1  5  1  0  0  0  0
  1  3  1  0  0  0  0
  2  1  1  0  0  0  0
  4  9  1  0  0  0  0
  4 10  1  0  0  0  0
  5  4  2  0  0  0  0
  6  7  2  0  0  0  0
  6  5  1  0  0  0  0
  7  8  1  0  0  0  0
  8 12  1  0  0  0  0
  8  9  2  0  0  0  0
 11  6  1  0  0  0  0
 13 15  1  0  0  0  0
 13  1  1  0  0  0  0
 14 13  1  0  0  0  0
 16 13  1  0  0  0  0
 17 18  1  0  0  0  0
 17 16  1  0  0  0  0
 19 17  2  0  0  0  0
 20 22  2  0  0  0  0
 20 19  1  0  0  0  0
 21 20  1  0  0  0  0
 22 24  1  0  0  0  0
 23 22  1  0  0  0  0
 24 16  2  0  0  0  0
M  END
>  <minimizedAffinity>
-5.34516764

>  <minimizedRMSD>
2.83788633

$$$$
