
 OpenBabel03252514043D

 35 38  0  0  1  0  0  0  0  0999 V2000
   35.2710   29.2090   48.6300 C   0  0  2  0  0  0  0  0  0  0  0  0
   34.0570   29.3070   49.4380 C   0  0  0  0  0  0  0  0  0  0  0  0
   34.4250   27.9690   49.0740 C   0  0  1  0  0  0  0  0  0  0  0  0
   35.3190   29.3250   47.5440 H   0  0  0  0  0  0  0  0  0  0  0  0
   34.1870   29.6940   50.4890 H   0  0  0  0  0  0  0  0  0  0  0  0
   33.1840   29.8220   48.9590 H   0  0  0  0  0  0  0  0  0  0  0  0
   35.0110   27.2470   49.6530 H   0  0  0  0  0  0  0  0  0  0  0  0
   36.6020   29.2500   49.3990 C   0  0  0  0  0  0  0  0  0  0  0  0
   37.2170   28.3790   49.0540 H   0  0  0  0  0  0  0  0  0  0  0  0
   36.4160   29.0770   50.4620 H   0  0  0  0  0  0  0  0  0  0  0  0
   37.6650   32.7410   49.5570 C   0  0  0  0  0  0  0  0  0  0  0  0
   38.5170   32.8550   48.4450 C   0  0  0  0  0  0  0  0  0  0  0  0
   38.7150   31.7060   47.6470 C   0  0  0  0  0  0  0  0  0  0  0  0
   38.0660   30.5540   48.0030 N   0  0  0  0  0  0  0  0  0  0  0  0
   37.2660   30.5010   49.0710 C   0  0  0  0  0  0  0  0  0  0  0  0
   37.0680   31.6010   49.8480 N   0  0  0  0  0  0  0  0  0  0  0  0
   37.4830   33.5870   50.1940 H   0  0  0  0  0  0  0  0  0  0  0  0
   39.0010   33.7720   48.2060 H   0  0  0  0  0  0  0  0  0  0  0  0
   39.3570   31.7360   46.7820 H   0  0  0  0  0  0  0  0  0  0  0  0
   33.5790   27.3270   47.9980 C   0  0  0  0  0  0  0  0  0  0  0  0
   33.8940   26.0990   47.7570 O   0  0  0  0  0  0  0  0  0  0  0  0
   32.5490   27.9190   47.2960 O   0  0  0  0  0  0  0  0  0  0  0  0
   31.2840   28.0820   47.7720 C   0  0  0  0  0  0  0  0  0  0  0  0
   30.8280   27.6020   49.0920 C   0  0  0  0  0  0  0  0  0  0  0  0
   29.5460   27.8150   49.4830 C   0  0  0  0  0  0  0  0  0  0  0  0
   28.6580   28.4990   48.6110 C   0  0  0  0  0  0  0  0  0  0  0  0
   29.6990   28.8720   47.1310 S   0  0  0  0  0  0  0  0  0  0  0  0
   31.5390   27.0870   49.7160 H   0  0  0  0  0  0  0  0  0  0  0  0
   29.1350   27.5010   50.4240 H   0  0  0  0  0  0  0  0  0  0  0  0
   27.3350   28.8560   48.7240 C   0  0  0  0  0  0  0  0  0  0  0  0
   26.2460   28.0440   48.7270 C   0  0  0  0  0  3  0  0  0  0  0  0
   25.1320   28.8260   48.8620 N   0  0  0  0  0  0  0  0  0  0  0  0
   25.5480   30.1240   48.9400 C   0  0  0  0  0  3  0  0  0  0  0  0
   26.9100   30.1040   48.8520 N   0  0  0  0  0  0  0  0  0  0  0  0
   27.4620   30.9850   48.8880 H   0  0  0  0  0  0  0  0  0  0  0  0
  1  4  1  6  0  0  0
  1  3  1  0  0  0  0
  1  8  1  0  0  0  0
  1  2  1  0  0  0  0
  2  5  1  0  0  0  0
  3  2  1  0  0  0  0
  3  7  1  1  0  0  0
  6  2  1  0  0  0  0
  8 10  1  0  0  0  0
  9  8  1  0  0  0  0
 11 16  1  0  0  0  0
 11 17  1  0  0  0  0
 12 11  2  0  0  0  0
 13 14  2  0  0  0  0
 13 12  1  0  0  0  0
 14 15  1  0  0  0  0
 15  8  1  0  0  0  0
 15 16  2  0  0  0  0
 18 12  1  0  0  0  0
 19 13  1  0  0  0  0
 20  3  1  0  0  0  0
 21 20  2  0  0  0  0
 22 23  1  0  0  0  0
 22 20  1  0  0  0  0
 23 24  2  0  0  0  0
 24 25  1  0  0  0  0
 24 28  1  0  0  0  0
 25 29  1  0  0  0  0
 26 30  1  0  0  0  0
 26 25  2  0  0  0  0
 27 23  1  0  0  0  0
 27 26  1  0  0  0  0
 30 31  2  0  0  0  0
 30 34  1  0  0  0  0
 31 32  1  0  0  0  0
 32 33  2  0  0  0  0
 34 35  1  0  0  0  0
 34 33  1  0  0  0  0
M  END
>  <minimizedAffinity>
-6.1775651

>  <minimizedRMSD>
1.57886946

$$$$
