REMARK  Name = 
REMARK  6 active torsions:
REMARK  status: ('A' for Active; 'I' for Inactive)
REMARK    1  A    between atoms: C_1  and  C_4
REMARK    2  A    between atoms: C_3  and  C_11
REMARK    3  A    between atoms: C_4  and  C_9
REMARK    4  A    between atoms: C_11  and  O_13
REMARK    5  A    between atoms: O_13  and  C_14
REMARK    6  A    between atoms: C_17  and  C_30
REMARK                            x       y       z     vdW  Elec       q    Type
REMARK                         _______ _______ _______ _____ _____    ______ ____
ROOT
ATOM      1  C   UNL     1      35.297  29.411  48.982  0.00  0.00    +0.000 C 
ATOM      2  C   UNL     1      34.190  29.363  49.934  0.00  0.00    +0.000 C 
ATOM      3  C   UNL     1      34.526  28.099  49.345  0.00  0.00    +0.000 C 
ATOM      4  H   UNL     1      35.211  29.677  47.925  0.00  0.00    +0.000 HD
ATOM      5  H   UNL     1      34.442  29.605  51.006  0.00  0.00    +0.000 HD
ATOM      6  H   UNL     1      33.259  29.914  49.639  0.00  0.00    +0.000 HD
ATOM      7  H   UNL     1      35.186  27.321  49.744  0.00  0.00    +0.000 HD
ENDROOT
BRANCH   1   8
ATOM      8  C   UNL     1      36.711  29.384  49.585  0.00  0.00    +0.000 C 
ATOM      9  H   UNL     1      37.215  28.452  49.219  0.00  0.00    +0.000 HD
ATOM     10  H   UNL     1      36.644  29.276  50.671  0.00  0.00    +0.000 HD
BRANCH   8  15
ATOM     11  C   UNL     1      38.084  32.766  49.449  0.00  0.00    +0.000 A 
ATOM     12  C   UNL     1      38.751  32.779  48.212  0.00  0.00    +0.000 A 
ATOM     13  C   UNL     1      38.716  31.601  47.433  0.00  0.00    +0.000 A 
ATOM     14  N   UNL     1      38.037  30.520  47.928  0.00  0.00    +0.000 NA
ATOM     15  C   UNL     1      37.419  30.562  49.112  0.00  0.00    +0.000 A 
ATOM     16  N   UNL     1      37.446  31.691  49.871  0.00  0.00    +0.000 NA
ATOM     17  H   UNL     1      38.082  33.638  50.077  0.00  0.00    +0.000 HD
ATOM     18  H   UNL     1      39.267  33.643  47.867  0.00  0.00    +0.000 HD
ATOM     19  H   UNL     1      39.210  31.554  46.476  0.00  0.00    +0.000 HD
ENDBRANCH   8  15
ENDBRANCH   1   8
BRANCH   3  20
ATOM     20  C   UNL     1      33.563  27.587  48.298  0.00  0.00    +0.000 C 
ATOM     21  O   UNL     1      33.903  26.448  47.796  0.00  0.00    +0.000 OA
BRANCH  20  22
ATOM     22  O   UNL     1      32.408  28.207  47.866  0.00  0.00    +0.000 OA
BRANCH  22  23
ATOM     23  C   UNL     1      31.149  27.817  48.207  0.00  0.00    +0.000 A 
ATOM     24  C   UNL     1      30.622  27.831  49.586  0.00  0.00    +0.000 A 
ATOM     25  C   UNL     1      29.350  27.426  49.828  0.00  0.00    +0.000 A 
ATOM     26  C   UNL     1      28.541  26.992  48.745  0.00  0.00    +0.000 A 
ATOM     27  S   UNL     1      29.647  27.164  47.276  0.00  0.00    +0.000 S 
ATOM     28  H   UNL     1      31.276  28.168  50.373  0.00  0.00    +0.000 HD
ATOM     29  H   UNL     1      28.890  27.407  50.798  0.00  0.00    +0.000 HD
BRANCH  26  30
ATOM     30  C   UNL     1      27.246  26.535  48.677  0.00  0.00    +0.000 A 
ATOM     31  C   UNL     1      26.631  25.631  49.485  0.00  0.00    +0.000 A 
ATOM     32  N   UNL     1      25.345  25.477  49.051  0.00  0.00    +0.000 NA
ATOM     33  C   UNL     1      25.174  26.293  47.970  0.00  0.00    +0.000 A 
ATOM     34  N   UNL     1      26.366  26.929  47.769  0.00  0.00    +0.000 N 
ATOM     35  H   UNL     1      26.484  27.611  46.991  0.00  0.00    +0.000 HD
ENDBRANCH  26  30
ENDBRANCH  22  23
ENDBRANCH  20  22
ENDBRANCH   3  20
TORSDOF 6
