
     RDKit          3D

 37 40  0  0  0  0  0  0  0  0999 V2000
   35.2974   29.4106   48.9820 C   0  0  2  0  0  0  0  0  0  0  0  0
   34.1904   29.3625   49.9340 C   0  0  0  0  0  0  0  0  0  0  0  0
   34.5261   28.0989   49.3447 C   0  0  1  0  0  0  0  0  0  0  0  0
   36.7107   29.3844   49.5852 C   0  0  0  0  0  0  0  0  0  0  0  0
   38.0843   32.7659   49.4486 C   0  0  0  0  0  0  0  0  0  0  0  0
   38.7514   32.7794   48.2115 C   0  0  0  0  0  0  0  0  0  0  0  0
   38.7162   31.6006   47.4327 C   0  0  0  0  0  0  0  0  0  0  0  0
   38.0367   30.5203   47.9283 N   0  0  0  0  0  0  0  0  0  0  0  0
   37.4190   30.5616   49.1120 C   0  0  0  0  0  0  0  0  0  0  0  0
   37.4462   31.6909   49.8706 N   0  0  0  0  0  0  0  0  0  0  0  0
   33.5627   27.5872   48.2976 C   0  0  0  0  0  0  0  0  0  0  0  0
   33.9032   26.4477   47.7961 O   0  0  0  0  0  0  0  0  0  0  0  0
   32.4077   28.2072   47.8664 O   0  0  0  0  0  0  0  0  0  0  0  0
   31.1488   27.8171   48.2073 C   0  0  0  0  0  0  0  0  0  0  0  0
   30.6215   27.8307   49.5858 C   0  0  0  0  0  0  0  0  0  0  0  0
   29.3499   27.4263   49.8277 C   0  0  0  0  0  0  0  0  0  0  0  0
   28.5414   26.9922   48.7449 C   0  0  0  0  0  0  0  0  0  0  0  0
   29.6466   27.1636   47.2757 S   0  0  0  0  0  0  0  0  0  0  0  0
   35.2114   29.6769   47.9252 H   0  0  0  0  0  0  0  0  0  0  0  0
   34.4420   29.6052   51.0064 H   0  0  0  0  0  0  0  0  0  0  0  0
   33.2587   29.9137   49.6389 H   0  0  0  0  0  0  0  0  0  0  0  0
   35.1861   27.3210   49.7443 H   0  0  0  0  0  0  0  0  0  0  0  0
   37.2145   28.4517   49.2194 H   0  0  0  0  0  0  0  0  0  0  0  0
   36.6435   29.2762   50.6712 H   0  0  0  0  0  0  0  0  0  0  0  0
   38.0824   33.6382   50.0774 H   0  0  0  0  0  0  0  0  0  0  0  0
   39.2667   33.6427   47.8669 H   0  0  0  0  0  0  0  0  0  0  0  0
   39.2103   31.5542   46.4761 H   0  0  0  0  0  0  0  0  0  0  0  0
   31.2765   28.1681   50.3732 H   0  0  0  0  0  0  0  0  0  0  0  0
   28.8899   27.4066   50.7984 H   0  0  0  0  0  0  0  0  0  0  0  0
   27.2458   26.5352   48.6766 C   0  0  0  0  0  0  0  0  0  0  0  0
   26.6314   25.6313   49.4850 C   0  0  0  0  0  0  0  0  0  0  0  0
   25.3451   25.4769   49.0510 N   0  0  0  0  0  0  0  0  0  0  0  0
   25.1743   26.2931   47.9696 C   0  0  0  0  0  0  0  0  0  0  0  0
   26.3655   26.9288   47.7687 N   0  0  0  0  0  0  0  0  0  0  0  0
   27.1002   25.1243   50.3325 H   0  0  0  0  0  0  0  0  0  0  0  0
   24.2670   26.4292   47.3636 H   0  0  0  0  0  0  0  0  0  0  0  0
   26.4837   27.6109   46.9912 H   0  0  0  0  0  0  0  0  0  0  0  0
  1  3  1  0
  1  4  1  0
  1  2  1  0
  3  2  1  0
  5 10  2  0
  6  5  1  0
  7  8  1  0
  7  6  2  0
  8  9  2  0
  9  4  1  0
  9 10  1  0
 11  3  1  0
 12 11  2  0
 13 14  1  0
 13 11  1  0
 14 15  2  0
 15 16  1  0
 17 16  2  0
 18 14  1  0
 18 17  1  0
  1 19  1  6
  2 20  1  0
  2 21  1  0
  3 22  1  1
  4 23  1  0
  4 24  1  0
  5 25  1  0
  6 26  1  0
  7 27  1  0
 15 28  1  0
 16 29  1  0
 30 31  2  0
 31 32  1  0
 32 33  2  0
 33 34  1  0
 34 30  1  0
 31 35  1  0
 33 36  1  0
 34 37  1  0
 17 30  1  0
M  ISO  8  19  13  20  13  21  13  22  13  23   8  24   8  25  14  26  14
M  ISO  3  27  14  28  14  29  14
M  END
>  <DihAtoms>  (1) 
15,16,29,30

>  <DihDeg>  (1) 
179.9978515651449

$$$$
