
 OpenBabel03252512123D

 29 32  0  0  0  0  0  0  0  0999 V2000
   35.6170   30.0350   47.8250 C   0  0  0  0  0  0  0  0  0  0  0  0
   36.6140   30.6560   47.0860 C   0  0  0  0  0  0  0  0  0  0  0  0
   37.6590   30.9760   47.8730 N   0  0  0  0  0  0  0  0  0  0  0  0
   37.3610   30.5710   49.1310 C   0  0  0  0  0  0  0  0  0  0  0  0
   38.0600   30.6410   50.3350 C   0  0  0  0  0  0  0  0  0  0  0  0
   37.4970   30.1360   51.4790 C   0  0  0  0  0  0  0  0  0  0  0  0
   36.2520   29.5690   51.4180 C   0  0  0  0  0  0  0  0  0  0  0  0
   35.5040   29.4690   50.2450 C   0  0  0  0  0  0  0  0  0  0  0  0
   36.0970   29.9850   49.1170 C   0  0  0  0  0  0  0  0  0  0  0  0
   36.6540   30.8960   46.0420 H   0  0  0  0  0  0  0  0  0  0  0  0
   38.5630   31.4490   47.6300 H   0  0  0  0  0  0  0  0  0  0  0  0
   39.0450   31.0870   50.3950 H   0  0  0  0  0  0  0  0  0  0  0  0
   38.0490   30.1960   52.4080 H   0  0  0  0  0  0  0  0  0  0  0  0
   35.8120   29.1730   52.3140 H   0  0  0  0  0  0  0  0  0  0  0  0
   34.5140   29.0110   50.2310 H   0  0  0  0  0  0  0  0  0  0  0  0
   32.3310   29.9050   46.1690 C   0  0  0  0  0  0  0  0  0  0  0  0
   32.0340   28.5290   46.2520 C   0  0  0  0  0  0  0  0  0  0  0  0
   32.9670   27.6850   46.8730 C   0  0  0  0  0  0  0  0  0  0  0  0
   34.1100   28.2540   47.3600 N   0  0  0  0  0  0  0  0  0  0  0  0
   34.3650   29.5710   47.2660 C   0  0  0  0  0  0  0  0  0  0  0  0
   33.4900   30.3790   46.6800 N   0  0  0  0  0  0  0  0  0  0  0  0
   31.6570   30.5900   45.7080 H   0  0  0  0  0  0  0  0  0  0  0  0
   31.1070   28.1480   45.8440 H   0  0  0  0  0  0  0  0  0  0  0  0
   32.7140   26.2730   46.9850 C   0  0  0  0  0  0  0  0  0  0  0  0
   31.5150   25.6680   46.6760 C   0  0  0  0  0  0  0  0  0  0  0  0
   31.6440   24.3400   46.9000 N   0  0  0  0  0  0  0  0  0  0  0  0
   32.9190   24.1610   47.3430 C   0  0  0  0  0  0  0  0  0  0  0  0
   33.5940   25.3470   47.4020 N   0  0  0  0  0  0  0  0  0  0  0  0
   34.5800   25.4580   47.7090 H   0  0  0  0  0  0  0  0  0  0  0  0
  1  9  1  0  0  0  0
  2  1  2  0  0  0  0
  2  3  1  0  0  0  0
  3  4  1  0  0  0  0
  4  5  1  0  0  0  0
  5 12  1  0  0  0  0
  5  6  2  0  0  0  0
  6 13  1  0  0  0  0
  7  6  1  0  0  0  0
  7 14  1  0  0  0  0
  8  7  2  0  0  0  0
  9  4  2  0  0  0  0
  9  8  1  0  0  0  0
 10  2  1  0  0  0  0
 11  3  1  0  0  0  0
 15  8  1  0  0  0  0
 16 17  2  0  0  0  0
 16 21  1  0  0  0  0
 17 18  1  0  0  0  0
 18 24  1  0  0  0  0
 18 19  2  0  0  0  0
 20 19  1  0  0  0  0
 20  1  1  0  0  0  0
 21 20  2  0  0  0  0
 22 16  1  0  0  0  0
 23 17  1  0  0  0  0
 24 28  1  0  0  0  0
 25 26  1  0  0  0  0
 25 24  2  0  0  0  0
 26 27  2  0  0  0  0
 27 28  1  0  0  0  0
 28 29  1  0  0  0  0
M  END
>  <minimizedAffinity>
-5.61164618

>  <minimizedRMSD>
0.303269178

$$$$
