
 OpenBabel03252513543D

 21 22  0  0  0  0  0  0  0  0999 V2000
   33.6770   26.7460   48.1390 C   0  0  0  0  0  0  0  0  0  0  0  0
   33.1730   26.6410   49.1150 H   0  0  0  0  0  0  0  0  0  0  0  0
   34.7710   26.7290   48.3560 H   0  0  0  0  0  0  0  0  0  0  0  0
   32.0680   23.6740   46.8640 C   0  0  0  0  0  0  0  0  0  0  0  0
   32.8860   23.3130   45.7740 C   0  0  0  0  0  0  0  0  0  0  0  0
   33.9810   24.1340   45.4940 C   0  0  0  0  0  0  0  0  0  0  0  0
   34.1840   25.2270   46.2910 N   0  0  0  0  0  0  0  0  0  0  0  0
   33.3920   25.5490   47.3230 C   0  0  0  0  0  0  0  0  0  0  0  0
   32.3280   24.7680   47.6120 N   0  0  0  0  0  0  0  0  0  0  0  0
   31.1920   23.0690   47.1390 H   0  0  0  0  0  0  0  0  0  0  0  0
   32.6620   22.4420   45.1950 H   0  0  0  0  0  0  0  0  0  0  0  0
   34.6410   23.9040   44.6670 H   0  0  0  0  0  0  0  0  0  0  0  0
   33.3580   28.0140   47.4550 C   0  0  0  0  0  0  0  0  0  0  0  0
   34.3480   28.9820   47.5660 C   0  0  0  0  0  0  0  0  0  0  0  0
   35.2770   28.8380   48.1020 H   0  0  0  0  0  0  0  0  0  0  0  0
   34.2050   30.2300   46.9800 C   0  0  0  0  0  3  0  0  0  0  0  0
   33.0430   30.4770   46.2820 C   0  0  0  0  0  0  0  0  0  0  0  0
   32.9480   31.4650   45.8280 H   0  0  0  0  0  0  0  0  0  0  0  0
   32.0760   29.5160   46.1800 C   0  0  0  0  0  0  0  0  0  0  0  0
   31.1690   29.7390   45.6230 H   0  0  0  0  0  0  0  0  0  0  0  0
   32.1970   28.2690   46.7540 C   0  0  0  0  0  3  0  0  0  0  0  0
  1  3  1  0  0  0  0
  1  2  1  0  0  0  0
  4 10  1  0  0  0  0
  4  9  1  0  0  0  0
  5  4  2  0  0  0  0
  6  5  1  0  0  0  0
  6  7  2  0  0  0  0
  7  8  1  0  0  0  0
  8  9  2  0  0  0  0
  8  1  1  0  0  0  0
 11  5  1  0  0  0  0
 12  6  1  0  0  0  0
 13 14  1  0  0  0  0
 13  1  1  0  0  0  0
 14 15  1  0  0  0  0
 16 14  2  0  0  0  0
 17 16  1  0  0  0  0
 18 17  1  0  0  0  0
 19 17  2  0  0  0  0
 19 21  1  0  0  0  0
 20 19  1  0  0  0  0
 21 13  2  0  0  0  0
M  END
>  <minimizedAffinity>
-2.30596828

>  <minimizedRMSD>
6.50171566

$$$$
