
 OpenBabel03252513543D

 21 22  0  0  0  0  0  0  0  0999 V2000
   34.0660   29.3880   50.0190 C   0  0  0  0  0  0  0  0  0  0  0  0
   34.0190   29.1350   51.0930 H   0  0  0  0  0  0  0  0  0  0  0  0
   33.4020   30.2740   49.8850 H   0  0  0  0  0  0  0  0  0  0  0  0
   37.7300   29.8450   50.1530 C   0  0  0  0  0  0  0  0  0  0  0  0
   37.9870   30.6910   49.0550 C   0  0  0  0  0  0  0  0  0  0  0  0
   36.8930   31.0910   48.2840 C   0  0  0  0  0  0  0  0  0  0  0  0
   35.6540   30.6380   48.6440 N   0  0  0  0  0  0  0  0  0  0  0  0
   35.4350   29.8350   49.6940 C   0  0  0  0  0  0  0  0  0  0  0  0
   36.4780   29.4360   50.4530 N   0  0  0  0  0  0  0  0  0  0  0  0
   38.5460   29.4950   50.8010 H   0  0  0  0  0  0  0  0  0  0  0  0
   38.9860   31.0030   48.8350 H   0  0  0  0  0  0  0  0  0  0  0  0
   37.0340   31.7400   47.4290 H   0  0  0  0  0  0  0  0  0  0  0  0
   33.5770   28.3040   49.1460 C   0  0  0  0  0  0  0  0  0  0  0  0
   32.1970   28.1450   49.1560 C   0  0  0  0  0  0  0  0  0  0  0  0
   31.5240   28.7540   49.7460 H   0  0  0  0  0  0  0  0  0  0  0  0
   31.5770   27.1720   48.3880 C   0  0  0  0  0  0  0  0  0  0  0  0
   32.3810   26.3640   47.6140 C   0  0  0  0  0  0  0  0  0  0  0  0
   31.8750   25.6020   47.0170 H   0  0  0  0  0  0  0  0  0  0  0  0
   33.7380   26.5290   47.6120 C   0  0  0  0  0  0  0  0  0  0  0  0
   34.3470   25.8780   46.9910 H   0  0  0  0  0  0  0  0  0  0  0  0
   34.3750   27.4910   48.3670 C   0  0  0  0  0  0  0  0  0  0  0  0
  1  2  1  0  0  0  0
  3  1  1  0  0  0  0
  4  9  1  0  0  0  0
  4 10  1  0  0  0  0
  5  4  2  0  0  0  0
  6  7  2  0  0  0  0
  6  5  1  0  0  0  0
  7  8  1  0  0  0  0
  8  1  1  0  0  0  0
  8  9  2  0  0  0  0
 11  5  1  0  0  0  0
 12  6  1  0  0  0  0
 13 14  1  0  0  0  0
 13  1  1  0  0  0  0
 14 15  1  0  0  0  0
 16 14  2  0  0  0  0
 17 16  1  0  0  0  0
 18 17  1  0  0  0  0
 19 17  2  0  0  0  0
 19 21  1  0  0  0  0
 20 19  1  0  0  0  0
 21 13  2  0  0  0  0
M  END
>  <minimizedAffinity>
-4.16298819

>  <minimizedRMSD>
2.37972641

$$$$
