
 OpenBabel03252514053D

 35 38  0  0  1  0  0  0  0  0999 V2000
   35.2240   29.1880   48.6040 C   0  0  2  0  0  0  0  0  0  0  0  0
   34.0110   29.3930   49.3920 C   0  0  0  0  0  0  0  0  0  0  0  0
   34.3190   28.0190   49.1170 C   0  0  1  0  0  0  0  0  0  0  0  0
   35.2850   29.2330   47.5140 H   0  0  0  0  0  0  0  0  0  0  0  0
   34.1500   29.8400   50.4170 H   0  0  0  0  0  0  0  0  0  0  0  0
   33.1650   29.9150   48.8720 H   0  0  0  0  0  0  0  0  0  0  0  0
   34.8670   27.3100   49.7470 H   0  0  0  0  0  0  0  0  0  0  0  0
   36.5500   29.2180   49.3820 C   0  0  0  0  0  0  0  0  0  0  0  0
   37.1680   28.3530   49.0270 H   0  0  0  0  0  0  0  0  0  0  0  0
   36.3570   29.0270   50.4420 H   0  0  0  0  0  0  0  0  0  0  0  0
   37.5870   32.7140   49.5880 C   0  0  0  0  0  0  0  0  0  0  0  0
   38.4680   32.8400   48.5000 C   0  0  0  0  0  0  0  0  0  0  0  0
   38.6940   31.6970   47.7020 C   0  0  0  0  0  0  0  0  0  0  0  0
   38.0440   30.5390   48.0330 N   0  0  0  0  0  0  0  0  0  0  0  0
   37.2150   30.4750   49.0800 C   0  0  0  0  0  0  0  0  0  0  0  0
   36.9900   31.5690   49.8560 N   0  0  0  0  0  0  0  0  0  0  0  0
   37.3830   33.5560   50.2250 H   0  0  0  0  0  0  0  0  0  0  0  0
   38.9520   33.7610   48.2800 H   0  0  0  0  0  0  0  0  0  0  0  0
   39.3600   31.7350   46.8550 H   0  0  0  0  0  0  0  0  0  0  0  0
   33.4530   27.3490   48.0750 C   0  0  0  0  0  0  0  0  0  0  0  0
   33.7780   26.1210   47.8450 O   0  0  0  0  0  0  0  0  0  0  0  0
   32.3950   27.9150   47.3930 O   0  0  0  0  0  0  0  0  0  0  0  0
   31.1430   28.0740   47.9050 C   0  0  0  0  0  0  0  0  0  0  0  0
   30.7330   27.6170   49.2480 C   0  0  0  0  0  0  0  0  0  0  0  0
   29.4610   27.8240   49.6730 C   0  0  0  0  0  0  0  0  0  0  0  0
   28.5390   28.4790   48.8150 C   0  0  0  0  0  0  0  0  0  0  0  0
   29.5300   28.8330   47.2970 S   0  0  0  0  0  0  0  0  0  0  0  0
   31.4690   27.1240   49.8600 H   0  0  0  0  0  0  0  0  0  0  0  0
   29.0830   27.5250   50.6330 H   0  0  0  0  0  0  0  0  0  0  0  0
   27.2160   28.8230   48.9610 C   0  0  0  0  0  0  0  0  0  0  0  0
   26.6400   30.0410   48.7780 C   0  0  0  0  0  3  0  0  0  0  0  0
   25.3030   29.9230   49.0340 N   0  0  0  0  0  0  0  0  0  0  0  0
   25.0620   28.6230   49.3730 C   0  0  0  0  0  3  0  0  0  0  0  0
   26.2630   27.9750   49.3170 N   0  0  0  0  0  0  0  0  0  0  0  0
   26.3350   26.9600   49.5370 H   0  0  0  0  0  0  0  0  0  0  0  0
  1  4  1  6  0  0  0
  1  3  1  0  0  0  0
  1  8  1  0  0  0  0
  1  2  1  0  0  0  0
  2  5  1  0  0  0  0
  3  2  1  0  0  0  0
  3  7  1  1  0  0  0
  6  2  1  0  0  0  0
  8 10  1  0  0  0  0
  9  8  1  0  0  0  0
 11 16  1  0  0  0  0
 11 17  1  0  0  0  0
 12 11  2  0  0  0  0
 13 14  2  0  0  0  0
 13 12  1  0  0  0  0
 14 15  1  0  0  0  0
 15  8  1  0  0  0  0
 15 16  2  0  0  0  0
 18 12  1  0  0  0  0
 19 13  1  0  0  0  0
 20  3  1  0  0  0  0
 21 20  2  0  0  0  0
 22 23  1  0  0  0  0
 22 20  1  0  0  0  0
 23 24  2  0  0  0  0
 24 25  1  0  0  0  0
 24 28  1  0  0  0  0
 25 29  1  0  0  0  0
 26 30  1  0  0  0  0
 26 25  2  0  0  0  0
 27 23  1  0  0  0  0
 27 26  1  0  0  0  0
 30 34  1  0  0  0  0
 31 30  2  0  0  0  0
 31 32  1  0  0  0  0
 32 33  2  0  0  0  0
 34 33  1  0  0  0  0
 34 35  1  0  0  0  0
M  END
>  <minimizedAffinity>
-6.27981806

>  <minimizedRMSD>
1.55028725

$$$$
