
 OpenBabel03252513223D

 18 19  0  0  0  0  0  0  0  0999 V2000
   35.3960   29.1230   50.3750 C   0  0  0  0  0  0  0  0  0  0  0  0
   36.1380   30.1610   49.7940 C   0  0  0  0  0  0  0  0  0  0  0  0
   35.8000   30.5330   48.4870 C   0  0  0  0  0  0  0  0  0  0  0  0
   34.7720   29.8720   47.8490 N   0  0  0  0  0  0  0  0  0  0  0  0
   34.0930   28.8730   48.4710 C   0  0  0  0  0  0  0  0  0  0  0  0
   34.4050   28.5120   49.7120 N   0  0  0  0  0  0  0  0  0  0  0  0
   35.6610   28.8310   51.3970 H   0  0  0  0  0  0  0  0  0  0  0  0
   36.3190   31.3240   47.9580 H   0  0  0  0  0  0  0  0  0  0  0  0
   33.0230   28.2320   47.7200 C   0  0  0  0  0  0  0  0  0  0  0  0
   33.0500   26.9300   47.2610 C   0  0  0  0  0  0  0  0  0  0  0  0
   31.8820   26.7290   46.6220 N   0  0  0  0  0  0  0  0  0  0  0  0
   31.1520   27.8660   46.6800 C   0  0  0  0  0  0  0  0  0  0  0  0
   31.8610   28.7860   47.3570 N   0  0  0  0  0  0  0  0  0  0  0  0
   31.5720   29.7510   47.5660 H   0  0  0  0  0  0  0  0  0  0  0  0
   37.2470   30.8710   50.4890 C   0  0  0  0  0  0  0  0  0  0  0  0
   38.4860   30.5820   49.9870 F   0  0  0  0  0  0  0  0  0  0  0  0
   37.2860   30.5550   51.8220 F   0  0  0  0  0  0  0  0  0  0  0  0
   37.0730   32.2380   50.3530 F   0  0  0  0  0  0  0  0  0  0  0  0
  1  7  1  0  0  0  0
  2  1  1  0  0  0  0
  2 15  1  0  0  0  0
  3  2  2  0  0  0  0
  4  5  2  0  0  0  0
  4  3  1  0  0  0  0
  5  6  1  0  0  0  0
  6  1  2  0  0  0  0
  8  3  1  0  0  0  0
  9  5  1  0  0  0  0
 10  9  2  0  0  0  0
 11 12  2  0  0  0  0
 11 10  1  0  0  0  0
 12 13  1  0  0  0  0
 13 14  1  0  0  0  0
 13  9  1  0  0  0  0
 15 17  1  0  0  0  0
 16 15  1  0  0  0  0
 18 15  1  0  0  0  0
M  END
>  <minimizedAffinity>
-4.84085178

>  <minimizedRMSD>
0.633580089

$$$$
