
 OpenBabel03252513013D

 24 25  0  0  0  0  0  0  0  0999 V2000
   38.0250   30.6390   47.8010 C   0  0  0  0  0  0  0  0  0  0  0  0
   37.2810   30.6310   47.0140 H   0  0  0  0  0  0  0  0  0  0  0  0
   38.8070   29.8620   47.5770 H   0  0  0  0  0  0  0  0  0  0  0  0
   37.2710   30.1540   51.4880 C   0  0  0  0  0  0  0  0  0  0  0  0
   37.9480   30.5980   50.3310 C   0  0  0  0  0  0  0  0  0  0  0  0
   37.4340   30.2540   49.0950 C   0  0  0  0  0  0  0  0  0  0  0  0
   36.2900   29.4980   49.0710 N   0  0  0  0  0  0  0  0  0  0  0  0
   35.6670   29.0890   50.1780 C   0  0  0  0  0  0  0  0  0  0  0  0
   36.1560   29.4160   51.3860 N   0  0  0  0  0  0  0  0  0  0  0  0
   37.6980   30.4400   52.4450 H   0  0  0  0  0  0  0  0  0  0  0  0
   38.8500   31.1950   50.3540 H   0  0  0  0  0  0  0  0  0  0  0  0
   34.7730   28.4970   50.0760 H   0  0  0  0  0  0  0  0  0  0  0  0
   38.7570   31.9720   47.9050 C   0  0  0  0  0  0  0  0  0  0  0  0
   38.1450   32.7450   48.3750 H   0  0  0  0  0  0  0  0  0  0  0  0
   39.7400   31.8590   48.3820 H   0  0  0  0  0  0  0  0  0  0  0  0
   38.9780   32.4020   46.4780 C   0  0  0  0  0  0  0  0  0  0  0  0
   37.9840   32.1210   45.5420 C   0  0  0  0  0  0  0  0  0  0  0  0
   37.0810   31.6020   45.8740 H   0  0  0  0  0  0  0  0  0  0  0  0
   38.0630   32.4610   44.2060 C   0  0  0  0  0  0  0  0  0  0  0  0
   39.1970   33.1120   43.7910 C   0  0  0  0  0  0  0  0  0  0  0  0
   39.2670   33.3800   42.7570 H   0  0  0  0  0  0  0  0  0  0  0  0
   40.1820   33.3980   44.6840 C   0  0  0  0  0  0  0  0  0  0  0  0
   41.0600   33.9120   44.3210 H   0  0  0  0  0  0  0  0  0  0  0  0
   40.1160   33.0660   46.0150 C   0  0  0  0  0  0  0  0  0  0  0  0
  1 13  1  0  0  0  0
  1  6  1  0  0  0  0
  2  1  1  0  0  0  0
  3  1  1  0  0  0  0
  4 10  1  0  0  0  0
  5 11  1  0  0  0  0
  5  4  2  0  0  0  0
  6  5  1  0  0  0  0
  7  6  2  0  0  0  0
  7  8  1  0  0  0  0
  8  9  2  0  0  0  0
  9  4  1  0  0  0  0
 12  8  1  0  0  0  0
 13 14  1  0  0  0  0
 13 15  1  0  0  0  0
 16 13  1  0  0  0  0
 17 18  1  0  0  0  0
 17 16  2  0  0  0  0
 19 17  1  0  0  0  0
 20 19  2  0  0  0  0
 20 22  1  0  0  0  0
 21 20  1  0  0  0  0
 22 24  2  0  0  0  0
 23 22  1  0  0  0  0
 24 16  1  0  0  0  0
M  END
>  <minimizedAffinity>
-5.33542395

>  <minimizedRMSD>
0.665863931

$$$$
