
 OpenBabel03252513443D

 19 20  0  0  0  0  0  0  0  0999 V2000
   37.6640   30.6090   48.9750 C   0  0  0  0  0  0  0  0  0  0  0  0
   37.7770   31.6190   49.9550 C   0  0  0  0  0  0  0  0  0  0  0  0
   38.4300   32.8000   49.6200 C   0  0  0  0  0  0  0  0  0  0  0  0
   38.9300   32.9210   48.3580 N   0  0  0  0  0  0  0  0  0  0  0  0
   38.8070   31.9450   47.4550 C   0  0  0  0  0  0  0  0  0  0  0  0
   38.1850   30.7930   47.7360 N   0  0  0  0  0  0  0  0  0  0  0  0
   37.3740   31.5100   50.9560 H   0  0  0  0  0  0  0  0  0  0  0  0
   38.5260   33.5880   50.3600 H   0  0  0  0  0  0  0  0  0  0  0  0
   39.3640   32.1360   46.1200 C   0  0  0  0  0  0  0  0  0  0  0  0
   40.2600   31.3050   45.4620 C   0  0  0  0  0  3  0  0  0  0  0  0
   40.5390   31.8290   44.2340 N   0  0  0  0  0  0  0  0  0  0  0  0
   39.8290   32.9820   44.1070 C   0  0  0  0  0  3  0  0  0  0  0  0
   39.1450   33.1220   45.2570 N   0  0  0  0  0  0  0  0  0  0  0  0
   38.5150   33.9520   45.3960 H   0  0  0  0  0  0  0  0  0  0  0  0
   37.0230   29.4440   49.2950 O   0  0  0  0  0  0  0  0  0  0  0  0
   35.7880   29.3400   49.9200 C   0  0  0  0  0  0  0  0  0  0  0  0
   35.8800   29.2520   51.2980 F   0  0  0  0  0  0  0  0  0  0  0  0
   34.8980   30.3220   49.5680 F   0  0  0  0  0  0  0  0  0  0  0  0
   35.2300   28.1460   49.4660 F   0  0  0  0  0  0  0  0  0  0  0  0
  1 15  1  0  0  0  0
  1  2  1  0  0  0  0
  2  7  1  0  0  0  0
  3  2  2  0  0  0  0
  3  8  1  0  0  0  0
  4  3  1  0  0  0  0
  5  6  1  0  0  0  0
  5  4  2  0  0  0  0
  6  1  2  0  0  0  0
  9  5  1  0  0  0  0
 10  9  2  0  0  0  0
 11 10  1  0  0  0  0
 12 11  2  0  0  0  0
 12 13  1  0  0  0  0
 13 14  1  0  0  0  0
 13  9  1  0  0  0  0
 15 16  1  0  0  0  0
 16 17  1  0  0  0  0
 18 16  1  0  0  0  0
 19 16  1  0  0  0  0
M  END
>  <minimizedAffinity>
-5.66220427

>  <minimizedRMSD>
1.56124938

$$$$
