
 OpenBabel03252513173D

 27 29  0  0  1  0  0  0  0  0999 V2000
   38.0170   31.2600   47.6420 N   0  0  0  0  0  0  0  0  0  0  0  0
   39.0140   32.3310   47.6390 C   0  0  0  0  0  0  0  0  0  0  0  0
   38.5480   33.1680   48.7890 C   0  0  0  0  0  0  0  0  0  0  0  0
   38.2620   32.1310   49.8260 C   0  0  0  0  0  0  0  0  0  0  0  0
   37.9730   30.8800   49.0390 C   0  0  1  0  0  0  0  0  0  0  0  0
   39.9970   31.9070   47.9270 H   0  0  0  0  0  0  0  0  0  0  0  0
   39.0750   32.8400   46.6750 H   0  0  0  0  0  0  0  0  0  0  0  0
   39.3390   33.8880   49.1380 H   0  0  0  0  0  0  0  0  0  0  0  0
   37.6420   33.7710   48.5150 H   0  0  0  0  0  0  0  0  0  0  0  0
   37.3050   32.4010   50.3470 H   0  0  0  0  0  0  0  0  0  0  0  0
   39.0640   32.0050   50.5830 H   0  0  0  0  0  0  0  0  0  0  0  0
   38.8100   30.1750   49.2090 H   0  0  0  0  0  0  0  0  0  0  0  0
   37.3090   30.7620   46.5270 C   0  0  0  0  0  0  0  0  0  0  0  0
   37.9100   30.5660   45.2750 C   0  0  0  0  0  0  0  0  0  0  0  0
   37.1640   30.0750   44.2010 C   0  0  0  0  0  0  0  0  0  0  0  0
   35.8510   29.8020   44.4280 N   0  0  0  0  0  0  0  0  0  0  0  0
   35.2860   29.9970   45.6430 C   0  0  0  0  0  0  0  0  0  0  0  0
   36.0220   30.4700   46.6610 N   0  0  0  0  0  0  0  0  0  0  0  0
   38.9600   30.8100   45.1860 H   0  0  0  0  0  0  0  0  0  0  0  0
   37.6470   29.9320   43.2480 H   0  0  0  0  0  0  0  0  0  0  0  0
   34.2320   29.7480   45.7180 H   0  0  0  0  0  0  0  0  0  0  0  0
   36.7060   30.2420   49.4540 C   0  0  0  0  0  0  0  0  0  0  0  0
   36.4560   28.9460   49.8500 C   0  0  0  0  0  0  0  0  0  0  0  0
   35.1590   28.7540   50.1670 N   0  0  0  0  0  0  0  0  0  0  0  0
   34.5560   29.9470   49.9730 C   0  0  0  0  0  0  0  0  0  0  0  0
   35.4850   30.8140   49.5510 N   0  0  0  0  0  0  0  0  0  0  0  0
   35.2120   31.8030   49.3490 H   0  0  0  0  0  0  0  0  0  0  0  0
  1  5  1  0  0  0  0
  2  1  1  0  0  0  0
  2  6  1  0  0  0  0
  2  3  1  0  0  0  0
  3  8  1  0  0  0  0
  3  4  1  0  0  0  0
  4 10  1  0  0  0  0
  4 11  1  0  0  0  0
  5 12  1  1  0  0  0
  5 22  1  0  0  0  0
  5  4  1  0  0  0  0
  7  2  1  0  0  0  0
  9  3  1  0  0  0  0
 13 18  1  0  0  0  0
 13  1  1  0  0  0  0
 14 13  2  0  0  0  0
 15 16  2  0  0  0  0
 15 14  1  0  0  0  0
 16 17  1  0  0  0  0
 17 21  1  0  0  0  0
 17 18  2  0  0  0  0
 19 14  1  0  0  0  0
 20 15  1  0  0  0  0
 22 26  1  0  0  0  0
 22 23  2  0  0  0  0
 23 24  1  0  0  0  0
 25 24  2  0  0  0  0
 26 25  1  0  0  0  0
 27 26  1  0  0  0  0
M  END
>  <minimizedAffinity>
-4.73023987

>  <minimizedRMSD>
3.38903642

$$$$
