
 OpenBabel03252514043D

 35 38  0  0  1  0  0  0  0  0999 V2000
   35.2730   29.2670   48.7150 C   0  0  2  0  0  0  0  0  0  0  0  0
   34.1000   29.3190   49.5850 C   0  0  0  0  0  0  0  0  0  0  0  0
   34.4550   28.0020   49.1400 C   0  0  1  0  0  0  0  0  0  0  0  0
   35.2660   29.4350   47.6350 H   0  0  0  0  0  0  0  0  0  0  0  0
   34.2800   29.6560   50.6460 H   0  0  0  0  0  0  0  0  0  0  0  0
   33.2020   29.8500   49.1750 H   0  0  0  0  0  0  0  0  0  0  0  0
   35.0720   27.2570   49.6550 H   0  0  0  0  0  0  0  0  0  0  0  0
   36.6400   29.2810   49.4180 C   0  0  0  0  0  0  0  0  0  0  0  0
   37.2250   28.4060   49.0330 H   0  0  0  0  0  0  0  0  0  0  0  0
   36.5040   29.0970   50.4880 H   0  0  0  0  0  0  0  0  0  0  0  0
   37.7230   32.7670   49.5410 C   0  0  0  0  0  0  0  0  0  0  0  0
   38.5580   32.8710   48.4150 C   0  0  0  0  0  0  0  0  0  0  0  0
   38.7360   31.7170   47.6190 C   0  0  0  0  0  0  0  0  0  0  0  0
   38.0880   30.5700   47.9920 N   0  0  0  0  0  0  0  0  0  0  0  0
   37.3050   30.5260   49.0740 C   0  0  0  0  0  0  0  0  0  0  0  0
   37.1260   31.6310   49.8470 N   0  0  0  0  0  0  0  0  0  0  0  0
   37.5560   33.6170   50.1770 H   0  0  0  0  0  0  0  0  0  0  0  0
   39.0420   33.7840   48.1640 H   0  0  0  0  0  0  0  0  0  0  0  0
   39.3650   31.7390   46.7440 H   0  0  0  0  0  0  0  0  0  0  0  0
   33.5600   27.4060   48.0780 C   0  0  0  0  0  0  0  0  0  0  0  0
   33.8660   26.1910   47.7670 O   0  0  0  0  0  0  0  0  0  0  0  0
   32.4960   28.0240   47.4540 O   0  0  0  0  0  0  0  0  0  0  0  0
   31.2290   28.0680   47.9510 C   0  0  0  0  0  0  0  0  0  0  0  0
   30.8440   27.5610   49.2830 C   0  0  0  0  0  0  0  0  0  0  0  0
   29.5540   27.6510   49.6940 C   0  0  0  0  0  0  0  0  0  0  0  0
   28.5890   28.2350   48.8310 C   0  0  0  0  0  0  0  0  0  0  0  0
   29.5630   28.6920   47.3300 S   0  0  0  0  0  0  0  0  0  0  0  0
   31.6130   27.1250   49.8990 H   0  0  0  0  0  0  0  0  0  0  0  0
   29.1910   27.3090   50.6450 H   0  0  0  0  0  0  0  0  0  0  0  0
   27.2400   28.4610   48.9640 C   0  0  0  0  0  0  0  0  0  0  0  0
   26.3380   28.7540   47.9900 C   0  0  0  0  0  3  0  0  0  0  0  0
   25.1110   28.8980   48.5740 N   0  0  0  0  0  0  0  0  0  0  0  0
   25.2670   28.6930   49.9150 C   0  0  0  0  0  3  0  0  0  0  0  0
   26.5900   28.4260   50.1180 N   0  0  0  0  0  0  0  0  0  0  0  0
   26.9560   28.2340   51.0730 H   0  0  0  0  0  0  0  0  0  0  0  0
  1  4  1  6  0  0  0
  1  3  1  0  0  0  0
  1  8  1  0  0  0  0
  1  2  1  0  0  0  0
  2  5  1  0  0  0  0
  3  2  1  0  0  0  0
  3  7  1  1  0  0  0
  6  2  1  0  0  0  0
  8 10  1  0  0  0  0
  9  8  1  0  0  0  0
 11 16  1  0  0  0  0
 11 17  1  0  0  0  0
 12 11  2  0  0  0  0
 13 14  2  0  0  0  0
 13 12  1  0  0  0  0
 14 15  1  0  0  0  0
 15  8  1  0  0  0  0
 15 16  2  0  0  0  0
 18 12  1  0  0  0  0
 19 13  1  0  0  0  0
 20  3  1  0  0  0  0
 21 20  2  0  0  0  0
 22 23  1  0  0  0  0
 22 20  1  0  0  0  0
 23 24  2  0  0  0  0
 24 25  1  0  0  0  0
 24 28  1  0  0  0  0
 25 29  1  0  0  0  0
 26 30  1  0  0  0  0
 26 25  2  0  0  0  0
 27 23  1  0  0  0  0
 27 26  1  0  0  0  0
 30 34  1  0  0  0  0
 31 32  1  0  0  0  0
 31 30  2  0  0  0  0
 32 33  2  0  0  0  0
 33 34  1  0  0  0  0
 34 35  1  0  0  0  0
M  END
>  <minimizedAffinity>
-6.08519554

>  <minimizedRMSD>
1.36618388

$$$$
