
 OpenBabel03252514043D

 35 38  0  0  1  0  0  0  0  0999 V2000
   35.2620   29.2070   48.6370 C   0  0  2  0  0  0  0  0  0  0  0  0
   34.0530   29.2930   49.4530 C   0  0  0  0  0  0  0  0  0  0  0  0
   34.4230   27.9600   49.0730 C   0  0  1  0  0  0  0  0  0  0  0  0
   35.3030   29.3340   47.5520 H   0  0  0  0  0  0  0  0  0  0  0  0
   34.1880   29.6700   50.5070 H   0  0  0  0  0  0  0  0  0  0  0  0
   33.1760   29.8100   48.9830 H   0  0  0  0  0  0  0  0  0  0  0  0
   35.0150   27.2350   49.6430 H   0  0  0  0  0  0  0  0  0  0  0  0
   36.5970   29.2450   49.3980 C   0  0  0  0  0  0  0  0  0  0  0  0
   37.2110   28.3770   49.0450 H   0  0  0  0  0  0  0  0  0  0  0  0
   36.4180   29.0660   50.4620 H   0  0  0  0  0  0  0  0  0  0  0  0
   37.6440   32.7410   49.5580 C   0  0  0  0  0  0  0  0  0  0  0  0
   38.5040   32.8570   48.4530 C   0  0  0  0  0  0  0  0  0  0  0  0
   38.7140   31.7070   47.6590 C   0  0  0  0  0  0  0  0  0  0  0  0
   38.0680   30.5530   48.0120 N   0  0  0  0  0  0  0  0  0  0  0  0
   37.2590   30.4980   49.0740 C   0  0  0  0  0  0  0  0  0  0  0  0
   37.0500   31.5990   49.8460 N   0  0  0  0  0  0  0  0  0  0  0  0
   37.4530   33.5880   50.1920 H   0  0  0  0  0  0  0  0  0  0  0  0
   38.9860   33.7750   48.2160 H   0  0  0  0  0  0  0  0  0  0  0  0
   39.3630   31.7380   46.7990 H   0  0  0  0  0  0  0  0  0  0  0  0
   33.5740   27.3260   47.9960 C   0  0  0  0  0  0  0  0  0  0  0  0
   33.8830   26.0970   47.7510 O   0  0  0  0  0  0  0  0  0  0  0  0
   32.5450   27.9240   47.2970 O   0  0  0  0  0  0  0  0  0  0  0  0
   31.2800   28.0860   47.7740 C   0  0  0  0  0  0  0  0  0  0  0  0
   30.8230   27.6030   49.0920 C   0  0  0  0  0  0  0  0  0  0  0  0
   29.5410   27.8140   49.4830 C   0  0  0  0  0  0  0  0  0  0  0  0
   28.6540   28.5000   48.6130 C   0  0  0  0  0  0  0  0  0  0  0  0
   29.6940   28.8770   47.1340 S   0  0  0  0  0  0  0  0  0  0  0  0
   31.5340   27.0870   49.7150 H   0  0  0  0  0  0  0  0  0  0  0  0
   29.1300   27.4980   50.4230 H   0  0  0  0  0  0  0  0  0  0  0  0
   27.3300   28.8560   48.7260 C   0  0  0  0  0  0  0  0  0  0  0  0
   26.2410   28.0430   48.7330 C   0  0  0  0  0  3  0  0  0  0  0  0
   25.1270   28.8240   48.8660 N   0  0  0  0  0  0  0  0  0  0  0  0
   25.5420   30.1240   48.9390 C   0  0  0  0  0  3  0  0  0  0  0  0
   26.9040   30.1040   48.8500 N   0  0  0  0  0  0  0  0  0  0  0  0
   27.4550   30.9860   48.8820 H   0  0  0  0  0  0  0  0  0  0  0  0
  1  4  1  6  0  0  0
  1  3  1  0  0  0  0
  1  8  1  0  0  0  0
  1  2  1  0  0  0  0
  2  5  1  0  0  0  0
  3  2  1  0  0  0  0
  3  7  1  1  0  0  0
  6  2  1  0  0  0  0
  8 10  1  0  0  0  0
  9  8  1  0  0  0  0
 11 16  1  0  0  0  0
 11 17  1  0  0  0  0
 12 11  2  0  0  0  0
 13 14  2  0  0  0  0
 13 12  1  0  0  0  0
 14 15  1  0  0  0  0
 15  8  1  0  0  0  0
 15 16  2  0  0  0  0
 18 12  1  0  0  0  0
 19 13  1  0  0  0  0
 20  3  1  0  0  0  0
 21 20  2  0  0  0  0
 22 23  1  0  0  0  0
 22 20  1  0  0  0  0
 23 24  2  0  0  0  0
 24 25  1  0  0  0  0
 24 28  1  0  0  0  0
 25 29  1  0  0  0  0
 26 30  1  0  0  0  0
 26 25  2  0  0  0  0
 27 23  1  0  0  0  0
 27 26  1  0  0  0  0
 30 31  2  0  0  0  0
 30 34  1  0  0  0  0
 31 32  1  0  0  0  0
 32 33  2  0  0  0  0
 34 35  1  0  0  0  0
 34 33  1  0  0  0  0
M  END
>  <minimizedAffinity>
-6.17793322

>  <minimizedRMSD>
1.55967844

$$$$
