
 OpenBabel03252513283D

 38 40  0  0  0  0  0  0  0  0999 V2000
   31.6620   26.0370   47.9630 C   0  0  0  0  0  0  0  0  0  0  0  0
   31.7570   24.6970   47.7110 C   0  0  0  0  0  0  0  0  0  0  0  0
   32.8960   24.0660   47.2640 C   0  0  0  0  0  0  0  0  0  0  0  0
   33.9890   24.8790   47.0700 C   0  0  0  0  0  0  0  0  0  0  0  0
   33.9420   26.2370   47.3110 C   0  0  0  0  0  0  0  0  0  0  0  0
   32.7750   26.8240   47.7600 C   0  0  0  0  0  0  0  0  0  0  0  0
   30.8850   24.0430   47.8650 H   0  0  0  0  0  0  0  0  0  0  0  0
   32.9750   23.0110   47.0650 H   0  0  0  0  0  0  0  0  0  0  0  0
   34.9440   24.5250   46.7250 H   0  0  0  0  0  0  0  0  0  0  0  0
   34.7860   26.8880   47.1660 H   0  0  0  0  0  0  0  0  0  0  0  0
   29.0850   27.5260   50.1040 C   0  0  0  0  0  0  0  0  0  0  0  0
   28.0500   27.8080   49.1950 C   0  0  0  0  0  0  0  0  0  0  0  0
   28.2810   27.4730   47.8750 C   0  0  0  0  0  0  0  0  0  0  0  0
   29.4780   26.8950   47.5130 N   0  0  0  0  0  0  0  0  0  0  0  0
   30.4370   26.6470   48.4330 C   0  0  0  0  0  0  0  0  0  0  0  0
   30.2180   26.9660   49.6940 N   0  0  0  0  0  0  0  0  0  0  0  0
   28.9070   27.7910   51.1550 H   0  0  0  0  0  0  0  0  0  0  0  0
   27.5130   27.6690   47.1180 H   0  0  0  0  0  0  0  0  0  0  0  0
   26.7640   28.4300   49.5800 C   0  0  0  0  0  0  0  0  0  0  0  0
   26.7720   29.8000   49.5160 F   0  0  0  0  0  0  0  0  0  0  0  0
   26.4170   28.0930   50.8830 F   0  0  0  0  0  0  0  0  0  0  0  0
   25.7460   27.9760   48.7370 F   0  0  0  0  0  0  0  0  0  0  0  0
   32.6840   28.2620   48.0270 C   0  0  0  0  0  0  0  0  0  0  0  0
   33.4470   28.5390   48.7920 H   0  0  0  0  0  0  0  0  0  0  0  0
   31.6940   28.4470   48.4940 H   0  0  0  0  0  0  0  0  0  0  0  0
   32.9010   29.1590   46.8620 C   0  0  0  0  0  0  0  0  0  0  0  0
   32.8750   28.5900   45.9170 H   0  0  0  0  0  0  0  0  0  0  0  0
   32.1920   29.9900   46.7620 H   0  0  0  0  0  0  0  0  0  0  0  0
   36.8420   30.8850   46.9890 C   0  0  0  0  0  0  0  0  0  0  0  0
   36.1260   30.7120   48.1410 C   0  0  0  0  0  0  0  0  0  0  0  0
   34.8640   30.1670   48.1560 C   0  0  0  0  0  0  0  0  0  0  0  0
   34.2560   29.7620   46.9850 C   0  0  0  0  0  0  0  0  0  0  0  0
   34.9920   29.9420   45.8140 C   0  0  0  0  0  0  0  0  0  0  0  0
   36.2640   30.4920   45.8000 C   0  0  0  0  0  0  0  0  0  0  0  0
   38.3970   32.7370   46.1980 H   0  0  0  0  0  0  0  0  0  0  0  0
   38.4440   31.5700   46.8910 S   0  0  0  0  0  0  0  0  0  0  0  0
   39.3880   30.5960   46.2240 O   0  0  0  0  0  0  0  0  0  0  0  0
   38.9480   31.7790   48.2920 O   0  0  0  0  0  0  0  0  0  0  0  0
  1 15  1  0  0  0  0
  2  7  1  0  0  0  0
  2  1  2  0  0  0  0
  3  2  1  0  0  0  0
  4  3  2  0  0  0  0
  4  5  1  0  0  0  0
  5  6  2  0  0  0  0
  6  1  1  0  0  0  0
  6 23  1  0  0  0  0
  8  3  1  0  0  0  0
  9  4  1  0  0  0  0
 10  5  1  0  0  0  0
 11 17  1  0  0  0  0
 12 19  1  0  0  0  0
 12 11  2  0  0  0  0
 13 12  1  0  0  0  0
 14 13  2  0  0  0  0
 14 15  1  0  0  0  0
 15 16  2  0  0  0  0
 16 11  1  0  0  0  0
 18 13  1  0  0  0  0
 19 21  1  0  0  0  0
 20 19  1  0  0  0  0
 22 19  1  0  0  0  0
 23 25  1  0  0  0  0
 23 24  1  0  0  0  0
 26 32  1  0  0  0  0
 26 23  1  0  0  0  0
 27 26  1  0  0  0  0
 28 26  1  0  0  0  0
 29 30  1  0  0  0  0
 30 31  2  0  0  0  0
 32 31  1  0  0  0  0
 33 32  2  0  0  0  0
 34 33  1  0  0  0  0
 34 29  2  0  0  0  0
 35 36  1  0  0  0  0
 36 29  1  0  0  0  0
 36 38  2  0  0  0  0
 37 36  2  0  0  0  0
M  END
>  <minimizedAffinity>
-5.90278006

>  <minimizedRMSD>
7.12369871

$$$$
