
 OpenBabel03252513483D

 22 23  0  0  0  0  0  0  0  0999 V2000
   36.5520   29.9140   48.5730 C   0  0  0  0  0  0  0  0  0  0  0  0
   37.4070   30.9650   49.0350 C   0  0  0  0  0  0  0  0  0  0  0  0
   37.9160   31.8300   48.0830 C   0  0  0  0  0  0  0  0  0  0  0  0
   37.5850   31.6410   46.7860 N   0  0  0  0  0  0  0  0  0  0  0  0
   36.7760   30.6390   46.3850 C   0  0  0  0  0  0  0  0  0  0  0  0
   36.2690   29.7900   47.2720 N   0  0  0  0  0  0  0  0  0  0  0  0
   37.6590   31.0990   50.0810 H   0  0  0  0  0  0  0  0  0  0  0  0
   38.7900   32.9280   48.4430 C   0  0  0  0  0  0  0  0  0  0  0  0
   38.9120   33.4370   49.6630 N   0  0  0  0  0  0  0  0  0  0  0  0
   39.7730   34.4040   49.6400 O   0  0  0  0  0  0  0  0  0  0  0  0
   40.2170   34.5360   48.4280 C   0  0  0  0  0  0  0  0  0  0  0  0
   40.9500   35.2590   48.0790 H   0  0  0  0  0  0  0  0  0  0  0  0
   39.6050   33.6070   47.6470 N   0  0  0  0  0  0  0  0  0  0  0  0
   36.5080   30.5660   44.9210 C   0  0  0  0  0  0  0  0  0  0  0  0
   36.8380   31.7820   44.3200 F   0  0  0  0  0  0  0  0  0  0  0  0
   37.3280   29.6250   44.3520 F   0  0  0  0  0  0  0  0  0  0  0  0
   35.1990   30.2120   44.6420 F   0  0  0  0  0  0  0  0  0  0  0  0
   36.0370   29.0420   49.5240 O   0  0  0  0  0  0  0  0  0  0  0  0
   34.8750   29.2790   50.2660 C   0  0  0  0  0  0  0  0  0  0  0  0
   35.0650   29.1310   51.6220 F   0  0  0  0  0  0  0  0  0  0  0  0
   34.2500   30.4690   49.9930 F   0  0  0  0  0  0  0  0  0  0  0  0
   33.9800   28.2770   49.8900 F   0  0  0  0  0  0  0  0  0  0  0  0
  1  2  1  0  0  0  0
  1 18  1  0  0  0  0
  2  7  1  0  0  0  0
  3  8  1  0  0  0  0
  3  2  2  0  0  0  0
  4  3  1  0  0  0  0
  5  4  2  0  0  0  0
  5  6  1  0  0  0  0
  6  1  2  0  0  0  0
  8  9  2  0  0  0  0
 10  9  1  0  0  0  0
 11 10  1  0  0  0  0
 12 11  1  0  0  0  0
 13 11  2  0  0  0  0
 13  8  1  0  0  0  0
 14  5  1  0  0  0  0
 15 14  1  0  0  0  0
 16 14  1  0  0  0  0
 17 14  1  0  0  0  0
 18 19  1  0  0  0  0
 19 20  1  0  0  0  0
 21 19  1  0  0  0  0
 22 19  1  0  0  0  0
M  END
>  <minimizedAffinity>
-4.83141994

>  <minimizedRMSD>
2.23448181

$$$$
