
 OpenBabel03252513573D

 26 28  0  0  1  0  0  0  0  0999 V2000
   35.4190   29.4530   49.1530 C   0  0  2  0  0  0  0  0  0  0  0  0
   34.3620   29.5830   50.1770 C   0  0  0  0  0  0  0  0  0  0  0  0
   34.5620   28.2590   49.5560 C   0  0  1  0  0  0  0  0  0  0  0  0
   35.2440   29.8950   48.1440 H   0  0  0  0  0  0  0  0  0  0  0  0
   34.6040   29.7490   51.2450 H   0  0  0  0  0  0  0  0  0  0  0  0
   33.4620   30.1600   49.8640 H   0  0  0  0  0  0  0  0  0  0  0  0
   35.0230   27.4790   50.1960 H   0  0  0  0  0  0  0  0  0  0  0  0
   33.6090   27.7280   48.5360 C   0  0  0  0  0  0  0  0  0  0  0  0
   32.2420   27.8660   48.6830 C   0  0  0  0  0  3  0  0  0  0  0  0
   31.4290   27.3500   47.6970 C   0  0  0  0  0  0  0  0  0  0  0  0
   30.3550   27.4160   47.7370 H   0  0  0  0  0  0  0  0  0  0  0  0
   31.8870   26.7120   46.5890 N   0  0  0  0  0  0  0  0  0  0  0  0
   33.2400   26.5950   46.4790 C   0  0  0  0  0  3  0  0  0  0  0  0
   34.0390   27.0950   47.4350 N   0  0  0  0  0  0  0  0  0  0  0  0
   36.8680   29.3300   49.5660 C   0  0  0  0  0  0  0  0  0  0  0  0
   36.8890   29.3370   50.6890 H   0  0  0  0  0  0  0  0  0  0  0  0
   37.3240   28.3640   49.2300 H   0  0  0  0  0  0  0  0  0  0  0  0
   38.3790   32.6780   49.3880 C   0  0  0  0  0  0  0  0  0  0  0  0
   38.8980   32.7240   48.0940 C   0  0  0  0  0  0  0  0  0  0  0  0
   38.7240   31.5970   47.2800 C   0  0  0  0  0  0  0  0  0  0  0  0
   38.0600   30.5220   47.8010 N   0  0  0  0  0  0  0  0  0  0  0  0
   37.5740   30.5250   49.0690 C   0  0  0  0  0  0  0  0  0  0  0  0
   37.7360   31.6030   49.8590 N   0  0  0  0  0  0  0  0  0  0  0  0
   38.4990   33.5400   50.0460 H   0  0  0  0  0  0  0  0  0  0  0  0
   39.4190   33.5830   47.7000 H   0  0  0  0  0  0  0  0  0  0  0  0
   39.0980   31.5490   46.2550 H   0  0  0  0  0  0  0  0  0  0  0  0
  1  4  1  6  0  0  0
  1  3  1  0  0  0  0
  1 15  1  0  0  0  0
  1  2  1  0  0  0  0
  2  5  1  0  0  0  0
  3  2  1  0  0  0  0
  3  7  1  1  0  0  0
  6  2  1  0  0  0  0
  8  9  1  0  0  0  0
  8  3  1  0  0  0  0
 10 11  1  0  0  0  0
 10  9  2  0  0  0  0
 12 10  1  0  0  0  0
 13 12  2  0  0  0  0
 13 14  1  0  0  0  0
 14  8  2  0  0  0  0
 15 16  1  0  0  0  0
 17 15  1  0  0  0  0
 18 23  1  0  0  0  0
 18 24  1  0  0  0  0
 19 18  2  0  0  0  0
 20 21  2  0  0  0  0
 20 19  1  0  0  0  0
 21 22  1  0  0  0  0
 22 15  1  0  0  0  0
 22 23  2  0  0  0  0
 25 19  1  0  0  0  0
 26 20  1  0  0  0  0
M  END
>  <minimizedAffinity>
-4.96237087

>  <minimizedRMSD>
0.722907305

$$$$
