
     RDKit          3D

 28 30  0  0  0  0  0  0  0  0999 V2000
   38.4193   32.6926   49.3882 C   0  0  0  0  0  0  0  0  0  0  0  0
   38.9108   32.6985   48.0827 C   0  0  0  0  0  0  0  0  0  0  0  0
   38.6934   31.5593   47.2977 C   0  0  0  0  0  0  0  0  0  0  0  0
   38.0143   30.5123   47.8559 N   0  0  0  0  0  0  0  0  0  0  0  0
   37.5550   30.5549   49.1334 C   0  0  0  0  0  0  0  0  0  0  0  0
   37.7589   31.6452   49.8961 N   0  0  0  0  0  0  0  0  0  0  0  0
   36.8303   29.3892   49.6712 C   0  0  0  0  0  0  0  0  0  0  0  0
   35.4077   29.4635   49.1625 C   0  0  2  0  0  0  0  0  0  0  0  0
   34.2756   29.4332   50.1124 C   0  0  0  0  0  0  0  0  0  0  0  0
   34.6066   28.1872   49.3928 C   0  0  1  0  0  0  0  0  0  0  0  0
   38.5732   33.5658   50.0239 H   0  0  0  0  0  0  0  0  0  0  0  0
   39.4454   33.5365   47.6598 H   0  0  0  0  0  0  0  0  0  0  0  0
   39.0436   31.4793   46.2666 H   0  0  0  0  0  0  0  0  0  0  0  0
   36.7815   29.4757   50.7896 H   0  0  0  0  0  0  0  0  0  0  0  0
   37.3149   28.4082   49.4334 H   0  0  0  0  0  0  0  0  0  0  0  0
   35.2750   29.9856   48.1874 H   0  0  0  0  0  0  0  0  0  0  0  0
   34.4319   29.5127   51.2065 H   0  0  0  0  0  0  0  0  0  0  0  0
   33.3641   29.9816   49.7849 H   0  0  0  0  0  0  0  0  0  0  0  0
   35.0730   27.3796   49.9944 H   0  0  0  0  0  0  0  0  0  0  0  0
   33.7641   27.6976   48.2614 C   0  0  0  0  0  0  0  0  0  0  0  0
   33.8354   26.3900   47.8191 C   0  0  0  0  0  0  0  0  0  0  0  0
   33.0256   26.0155   46.7700 C   0  0  0  0  0  0  0  0  0  0  0  0
   33.0220   25.0158   46.3674 H   0  0  0  0  0  0  0  0  0  0  0  0
   32.1589   26.8509   46.1402 N   0  0  0  0  0  0  0  0  0  0  0  0
   32.1157   28.1313   46.6028 C   0  0  0  0  0  0  0  0  0  0  0  0
   32.9024   28.5045   47.6257 N   0  0  0  0  0  0  0  0  0  0  0  0
   34.5118   25.6774   48.2866 H   0  0  0  0  0  0  0  0  0  0  0  0
   31.5029   28.9684   46.2559 H   0  0  0  0  0  0  0  0  0  0  0  0
  1  6  2  0
  2  1  1  0
  3  4  1  0
  3  2  2  0
  4  5  2  0
  5  7  1  0
  5  6  1  0
  8 10  1  0
  8  7  1  0
  8  9  1  0
 10  9  1  0
  1 11  1  0
  2 12  1  0
  3 13  1  0
  7 14  1  0
  7 15  1  0
  8 16  1  6
  9 17  1  0
  9 18  1  0
 10 19  1  1
 20 21  2  0
 21 22  1  0
 22 23  1  0
 22 24  2  0
 24 25  1  0
 25 26  2  0
 26 20  1  0
 21 27  1  0
 25 28  1  0
 10 20  1  0
M  ISO  8  11  14  12  14  13  14  14   8  15   8  16  13  17  13  18  13
M  ISO  2  19  13  23  14
M  END
>  <DihAtoms>  (1) 
7,9,19,20

>  <DihDeg>  (1) 
-35.94759140113942

$$$$
