
 OpenBabel03252510543D

 34 38  0  0  1  0  0  0  0  0999 V2000
   35.0030   30.3610   47.4620 C   0  0  0  0  0  0  0  0  0  0  0  0
   36.1550   30.2250   48.2480 C   0  0  0  0  0  0  0  0  0  0  0  0
   36.1580   29.2500   49.2180 C   0  0  0  0  0  0  0  0  0  0  0  0
   35.0280   28.4710   49.3560 N   0  0  0  0  0  0  0  0  0  0  0  0
   33.9540   28.6250   48.5980 C   0  0  0  0  0  0  0  0  0  0  0  0
   33.9290   29.5680   47.6450 N   0  0  0  0  0  0  0  0  0  0  0  0
   34.9040   31.0920   46.6810 H   0  0  0  0  0  0  0  0  0  0  0  0
   37.0100   29.1020   49.8450 H   0  0  0  0  0  0  0  0  0  0  0  0
   37.2380   31.0630   48.0290 N   0  0  0  0  0  0  0  0  0  0  0  0
   37.6190   32.0900   48.8390 C   0  0  0  0  0  0  0  0  0  0  0  0
   38.6950   32.7290   48.3850 N   0  0  0  0  0  0  0  0  0  0  0  0
   39.0430   32.1100   47.2370 C   0  0  0  0  0  0  0  0  0  0  0  0
   40.0250   32.2620   46.2980 C   0  0  0  0  0  0  0  0  0  0  0  0
   40.1670   31.4940   45.2060 N   0  0  0  0  0  0  0  0  0  0  0  0
   39.2560   30.5050   45.0480 C   0  0  0  0  0  0  0  0  0  0  0  0
   38.2870   30.3450   45.9600 N   0  0  0  0  0  0  0  0  0  0  0  0
   38.1150   31.0800   47.0480 C   0  0  0  0  0  0  0  0  0  0  0  0
   37.1770   32.4440   49.7740 H   0  0  0  0  0  0  0  0  0  0  0  0
   40.7420   33.0700   46.4600 H   0  0  0  0  0  0  0  0  0  0  0  0
   39.2630   29.8240   44.2140 H   0  0  0  0  0  0  0  0  0  0  0  0
   32.7670   27.7480   48.8250 C   0  0  2  0  0  0  0  0  0  0  0  0
   32.6480   26.6190   47.7430 C   0  0  0  0  0  0  0  0  0  0  0  0
   31.6610   27.6940   47.8570 C   0  0  1  0  0  0  0  0  0  0  0  0
   32.6470   27.4010   49.8640 H   0  0  0  0  0  0  0  0  0  0  0  0
   33.3620   26.6570   46.9090 H   0  0  0  0  0  0  0  0  0  0  0  0
   32.4540   25.6150   48.1730 H   0  0  0  0  0  0  0  0  0  0  0  0
   31.6710   28.4840   47.0620 H   0  0  0  0  0  0  0  0  0  0  0  0
   30.3110   27.4940   48.4720 C   0  0  0  0  0  0  0  0  0  0  0  0
   30.1470   27.7640   49.8160 C   0  0  0  0  0  0  0  0  0  0  0  0
   28.8660   27.5610   50.3430 C   0  0  0  0  0  0  0  0  0  0  0  0
   28.7470   27.7740   51.3970 H   0  0  0  0  0  0  0  0  0  0  0  0
   27.8270   27.1260   49.6060 N   0  0  0  0  0  0  0  0  0  0  0  0
   28.0520   26.8820   48.3030 C   0  0  0  0  0  0  0  0  0  0  0  0
   29.2760   27.0600   47.7300 N   0  0  0  0  0  0  0  0  0  0  0  0
  1  6  2  0  0  0  0
  1  2  1  0  0  0  0
  2  3  2  0  0  0  0
  3  4  1  0  0  0  0
  3  8  1  0  0  0  0
  5 21  1  0  0  0  0
  5  4  2  0  0  0  0
  6  5  1  0  0  0  0
  7  1  1  0  0  0  0
  9  2  1  0  0  0  0
  9 10  1  0  0  0  0
 10 18  1  0  0  0  0
 11 10  2  0  0  0  0
 12 11  1  0  0  0  0
 13 19  1  0  0  0  0
 13 12  2  0  0  0  0
 14 13  1  0  0  0  0
 15 14  2  0  0  0  0
 15 16  1  0  0  0  0
 16 17  2  0  0  0  0
 17 12  1  0  0  0  0
 17  9  1  0  0  0  0
 20 15  1  0  0  0  0
 21 24  1  1  0  0  0
 22 23  1  0  0  0  0
 22 26  1  0  0  0  0
 22 21  1  0  0  0  0
 23 27  1  6  0  0  0
 23 28  1  0  0  0  0
 23 21  1  0  0  0  0
 25 22  1  0  0  0  0
 28 29  1  0  0  0  0
 29 30  2  0  0  0  0
 30 31  1  0  0  0  0
 32 30  1  0  0  0  0
 33 32  2  0  0  0  0
 34 33  1  0  0  0  0
 34 28  2  0  0  0  0
M  END
>  <minimizedAffinity>
-6.39132166

>  <minimizedRMSD>
1.32885993

$$$$
