
 OpenBabel03252513083D

 44 47  0  0  0  0  0  0  0  0999 V2000
   32.5310   30.0880   43.8020 C   0  0  0  0  0  0  0  0  0  0  0  0
   32.6490   31.0540   42.7560 C   0  0  0  0  0  0  0  0  0  0  0  0
   33.8320   31.7000   42.5350 C   0  0  0  0  0  0  0  0  0  0  0  0
   34.8930   31.3870   43.3510 N   0  0  0  0  0  0  0  0  0  0  0  0
   34.7750   30.4920   44.3150 C   0  0  0  0  0  0  0  0  0  0  0  0
   33.6380   29.8370   44.5670 N   0  0  0  0  0  0  0  0  0  0  0  0
   31.6010   29.5680   43.9880 H   0  0  0  0  0  0  0  0  0  0  0  0
   31.7390   31.1820   42.2200 H   0  0  0  0  0  0  0  0  0  0  0  0
   33.9680   32.6790   41.4800 C   0  0  0  0  0  0  0  0  0  0  0  0
   34.4540   32.1890   40.5880 H   0  0  0  0  0  0  0  0  0  0  0  0
   34.7120   33.4540   41.8170 H   0  0  0  0  0  0  0  0  0  0  0  0
   32.7170   33.3230   41.0280 C   0  0  0  0  0  0  0  0  0  0  0  0
   32.0830   33.5300   41.9140 H   0  0  0  0  0  0  0  0  0  0  0  0
   32.1340   32.5150   40.4850 H   0  0  0  0  0  0  0  0  0  0  0  0
   32.7600   34.4290   40.1770 N   0  0  0  0  0  0  0  0  0  0  0  0
   33.4080   34.5610   39.0310 C   0  0  0  0  0  0  0  0  0  0  0  0
   33.4110   35.6710   38.2190 C   0  0  0  0  0  0  0  0  0  0  0  0
   32.6790   36.7660   38.6090 C   0  0  0  0  0  0  0  0  0  0  0  0
   32.6170   37.8160   37.9450 O   0  0  0  0  0  0  0  0  0  0  0  0
   32.0210   36.6660   39.7480 N   0  0  0  0  0  0  0  0  0  0  0  0
   32.0500   35.5680   40.4980 C   0  0  0  0  0  0  0  0  0  0  0  0
   31.3880   35.5660   41.5750 O   0  0  0  0  0  0  0  0  0  0  0  0
   34.0020   33.7050   38.6920 H   0  0  0  0  0  0  0  0  0  0  0  0
   33.9620   35.7380   37.2790 H   0  0  0  0  0  0  0  0  0  0  0  0
   31.2340   37.8090   40.1870 C   0  0  0  0  0  0  0  0  0  0  0  0
   30.1970   37.3960   40.9930 F   0  0  0  0  0  0  0  0  0  0  0  0
   30.6870   38.3840   39.0550 F   0  0  0  0  0  0  0  0  0  0  0  0
   32.0690   38.6740   40.8340 F   0  0  0  0  0  0  0  0  0  0  0  0
   35.9120   30.1410   45.2100 C   0  0  0  0  0  0  0  0  0  0  0  0
   36.6180   31.0190   45.1450 H   0  0  0  0  0  0  0  0  0  0  0  0
   36.3950   29.2030   44.8920 H   0  0  0  0  0  0  0  0  0  0  0  0
   35.4260   30.0700   46.6480 C   0  0  0  0  0  0  0  0  0  0  0  0
   35.0440   29.0420   46.7990 H   0  0  0  0  0  0  0  0  0  0  0  0
   34.5630   30.7600   46.7600 H   0  0  0  0  0  0  0  0  0  0  0  0
   36.4920   30.3390   47.6370 C   0  0  0  0  0  0  0  0  0  0  0  0
   37.7320   30.9130   47.3220 C   0  0  0  0  0  0  0  0  0  0  0  0
   38.5220   31.0560   48.3730 N   0  0  0  0  0  0  0  0  0  0  0  0
   37.8320   30.5800   49.4280 C   0  0  0  0  0  0  0  0  0  0  0  0
   38.1770   30.4870   50.7610 C   0  0  0  0  0  0  0  0  0  0  0  0
   37.2570   29.9450   51.6420 C   0  0  0  0  0  0  0  0  0  0  0  0
   36.0110   29.5010   51.2050 C   0  0  0  0  0  0  0  0  0  0  0  0
   35.6560   29.5940   49.8540 C   0  0  0  0  0  0  0  0  0  0  0  0
   36.5970   30.1390   48.9970 C   0  0  0  0  0  0  0  0  0  0  0  0
   39.4850   31.4450   48.4420 H   0  0  0  0  0  0  0  0  0  0  0  0
  1  7  1  0  0  0  0
  1  6  1  0  0  0  0
  2  1  2  0  0  0  0
  3  2  1  0  0  0  0
  3  4  2  0  0  0  0
  4  5  1  0  0  0  0
  5  6  2  0  0  0  0
  5 29  1  0  0  0  0
  8  2  1  0  0  0  0
  9 11  1  0  0  0  0
  9  3  1  0  0  0  0
 10  9  1  0  0  0  0
 12  9  1  0  0  0  0
 12 13  1  0  0  0  0
 14 12  1  0  0  0  0
 15 21  1  0  0  0  0
 15 12  1  0  0  0  0
 16 15  1  0  0  0  0
 17 18  1  0  0  0  0
 17 16  2  0  0  0  0
 18 20  1  0  0  0  0
 19 18  2  0  0  0  0
 20 25  1  0  0  0  0
 20 21  1  0  0  0  0
 21 22  2  0  0  0  0
 23 16  1  0  0  0  0
 24 17  1  0  0  0  0
 25 28  1  0  0  0  0
 25 26  1  0  0  0  0
 27 25  1  0  0  0  0
 29 32  1  0  0  0  0
 30 29  1  0  0  0  0
 31 29  1  0  0  0  0
 32 34  1  0  0  0  0
 32 33  1  0  0  0  0
 32 35  1  0  0  0  0
 35 43  1  0  0  0  0
 36 35  2  0  0  0  0
 36 37  1  0  0  0  0
 37 44  1  0  0  0  0
 37 38  1  0  0  0  0
 38 39  1  0  0  0  0
 39 40  2  0  0  0  0
 41 40  1  0  0  0  0
 42 41  2  0  0  0  0
 43 38  2  0  0  0  0
 43 42  1  0  0  0  0
M  END
>  <minimizedAffinity>
-5.66582155

>  <minimizedRMSD>
6.26449442

$$$$
