
 OpenBabel03252512473D

 34 37  0  0  1  0  0  0  0  0999 V2000
   39.4260   30.3900   44.4740 C   0  0  2  0  0  0  0  0  0  0  0  0
   39.4730   29.2960   44.6230 H   0  0  0  0  0  0  0  0  0  0  0  0
   38.2900   31.1000   47.8870 C   0  0  0  0  0  0  0  0  0  0  0  0
   38.7680   32.4320   47.9910 C   0  0  0  0  0  0  0  0  0  0  0  0
   39.5670   32.7320   46.3560 S   0  0  0  0  0  0  0  0  0  0  0  0
   39.0970   30.9570   45.8220 C   0  0  0  0  0  0  0  0  0  0  0  0
   38.5660   30.5600   46.7230 N   0  0  0  0  0  0  0  0  0  0  0  0
   38.6740   33.1050   48.8450 H   0  0  0  0  0  0  0  0  0  0  0  0
   37.9710   30.8220   50.3270 C   0  0  0  0  0  0  0  0  0  0  0  0
   37.5800   30.5060   49.0210 C   0  0  0  0  0  0  0  0  0  0  0  0
   36.5100   29.6250   48.8920 C   0  0  0  0  0  0  0  0  0  0  0  0
   35.9130   29.1280   49.9900 N   0  0  0  0  0  0  0  0  0  0  0  0
   36.3220   29.4600   51.2310 C   0  0  0  0  0  0  0  0  0  0  0  0
   37.3640   30.3180   51.3970 N   0  0  0  0  0  0  0  0  0  0  0  0
   38.7950   31.5000   50.5040 H   0  0  0  0  0  0  0  0  0  0  0  0
   36.2550   29.4190   47.8630 H   0  0  0  0  0  0  0  0  0  0  0  0
   35.7080   28.9520   51.9810 H   0  0  0  0  0  0  0  0  0  0  0  0
   40.7120   31.0100   44.0340 C   0  0  0  0  0  0  0  0  0  0  0  0
   40.5870   31.4450   43.0000 H   0  0  0  0  0  0  0  0  0  0  0  0
   41.0150   31.8530   44.6760 H   0  0  0  0  0  0  0  0  0  0  0  0
   41.5680   30.3060   44.0430 H   0  0  0  0  0  0  0  0  0  0  0  0
   38.2980   30.7560   43.5160 C   0  0  0  0  0  0  0  0  0  0  0  0
   38.7370   31.0520   42.5460 H   0  0  0  0  0  0  0  0  0  0  0  0
   37.7830   31.6560   43.9180 H   0  0  0  0  0  0  0  0  0  0  0  0
   37.3670   29.6150   43.3900 C   0  0  0  0  0  0  0  0  0  0  0  0
   36.0180   29.4360   43.5200 C   0  0  0  0  0  0  0  0  0  0  0  0
   35.6930   28.1330   43.2840 N   0  0  0  0  0  0  0  0  0  0  0  0
   36.8430   27.4880   43.0030 C   0  0  0  0  0  0  0  0  0  0  0  0
   37.0030   26.1540   42.6980 C   0  0  0  0  0  0  0  0  0  0  0  0
   38.2600   25.6450   42.4320 C   0  0  0  0  0  0  0  0  0  0  0  0
   39.3360   26.5130   42.4820 C   0  0  0  0  0  0  0  0  0  0  0  0
   39.1550   27.8440   42.7880 C   0  0  0  0  0  0  0  0  0  0  0  0
   37.8960   28.3690   43.0580 C   0  0  0  0  0  0  0  0  0  0  0  0
   34.6910   27.8500   43.3500 H   0  0  0  0  0  0  0  0  0  0  0  0
  1  2  1  1  0  0  0
  1  6  1  0  0  0  0
  3  4  2  0  0  0  0
  3 10  1  0  0  0  0
  4  8  1  0  0  0  0
  5  4  1  0  0  0  0
  6  5  1  0  0  0  0
  6  7  2  0  0  0  0
  7  3  1  0  0  0  0
  9 15  1  0  0  0  0
  9 14  1  0  0  0  0
 10  9  2  0  0  0  0
 11 10  1  0  0  0  0
 11 12  2  0  0  0  0
 12 13  1  0  0  0  0
 13 14  2  0  0  0  0
 13 17  1  0  0  0  0
 16 11  1  0  0  0  0
 18 21  1  0  0  0  0
 18  1  1  0  0  0  0
 18 20  1  0  0  0  0
 19 18  1  0  0  0  0
 22 24  1  0  0  0  0
 22  1  1  0  0  0  0
 23 22  1  0  0  0  0
 25 22  1  0  0  0  0
 25 26  2  0  0  0  0
 27 34  1  0  0  0  0
 27 26  1  0  0  0  0
 28 33  1  0  0  0  0
 28 27  1  0  0  0  0
 29 28  2  0  0  0  0
 30 31  2  0  0  0  0
 30 29  1  0  0  0  0
 31 32  1  0  0  0  0
 32 33  2  0  0  0  0
 33 25  1  0  0  0  0
M  END
>  <minimizedAffinity>
-5.51931047

>  <minimizedRMSD>
2.37589431

$$$$
