
 OpenBabel03252510243D

 22 23  0  0  0  0  0  0  0  0999 V2000
   37.7500   32.1190   48.8600 C   0  0  0  0  0  0  0  0  0  0  0  0
   38.3320   33.1450   49.5810 C   0  0  0  0  0  0  0  0  0  0  0  0
   39.3230   33.9080   48.9400 C   0  0  0  0  0  0  0  0  0  0  0  0
   39.6550   33.6030   47.6620 N   0  0  0  0  0  0  0  0  0  0  0  0
   39.0650   32.5970   46.9950 C   0  0  0  0  0  0  0  0  0  0  0  0
   38.1140   31.8530   47.5890 N   0  0  0  0  0  0  0  0  0  0  0  0
   38.0830   33.3990   50.5910 H   0  0  0  0  0  0  0  0  0  0  0  0
   39.8280   34.7290   49.4380 H   0  0  0  0  0  0  0  0  0  0  0  0
   39.4430   32.2930   45.6190 C   0  0  0  0  0  0  0  0  0  0  0  0
   40.2590   31.2190   45.3300 C   0  0  0  0  0  0  0  0  0  0  0  0
   40.6420   30.8960   44.0300 C   0  0  0  0  0  0  0  0  0  0  0  0
   41.2840   30.0360   43.8920 H   0  0  0  0  0  0  0  0  0  0  0  0
   40.1980   31.6670   43.0080 N   0  0  0  0  0  0  0  0  0  0  0  0
   39.4020   32.7160   43.2970 C   0  0  0  0  0  0  0  0  0  0  0  0
   39.0180   33.0450   44.5620 N   0  0  0  0  0  0  0  0  0  0  0  0
   36.7280   31.3220   49.5030 C   0  0  0  0  0  0  0  0  0  0  0  0
   35.7920   30.7980   48.8310 O   0  0  0  0  0  0  0  0  0  0  0  0
   36.7620   31.1210   50.8720 O   0  0  0  0  0  0  0  0  0  0  0  0
   36.9740   29.7900   51.3130 C   0  0  0  0  0  0  0  0  0  0  0  0
   35.7870   29.1050   51.4920 F   0  0  0  0  0  0  0  0  0  0  0  0
   37.7040   29.8490   52.4950 F   0  0  0  0  0  0  0  0  0  0  0  0
   37.7200   29.0770   50.3950 F   0  0  0  0  0  0  0  0  0  0  0  0
  1 16  1  0  0  0  0
  1  2  1  0  0  0  0
  2  7  1  0  0  0  0
  3  8  1  0  0  0  0
  3  2  2  0  0  0  0
  4  3  1  0  0  0  0
  5  6  1  0  0  0  0
  5  4  2  0  0  0  0
  6  1  2  0  0  0  0
  9  5  1  0  0  0  0
 10  9  1  0  0  0  0
 11 10  2  0  0  0  0
 12 11  1  0  0  0  0
 13 14  2  0  0  0  0
 13 11  1  0  0  0  0
 14 15  1  0  0  0  0
 15  9  2  0  0  0  0
 16 18  1  0  0  0  0
 17 16  2  0  0  0  0
 18 19  1  0  0  0  0
 19 20  1  0  0  0  0
 19 21  1  0  0  0  0
 22 19  1  0  0  0  0
M  END
>  <minimizedAffinity>
-6.08756781

>  <minimizedRMSD>
1.9118886

$$$$
