
 OpenBabel03252511353D

 29 31  0  0  0  0  0  0  0  0999 V2000
   36.4670   30.5740   46.5310 C   0  0  0  0  0  0  0  0  0  0  0  0
   35.2040   30.0020   46.4870 C   0  0  0  0  0  0  0  0  0  0  0  0
   34.5590   29.6840   45.3080 C   0  0  0  0  0  0  0  0  0  0  0  0
   35.1770   29.9370   44.1100 C   0  0  0  0  0  0  0  0  0  0  0  0
   36.4350   30.5060   44.1340 C   0  0  0  0  0  0  0  0  0  0  0  0
   37.0820   30.8260   45.3310 C   0  0  0  0  0  0  0  0  0  0  0  0
   34.7190   29.8050   47.4410 H   0  0  0  0  0  0  0  0  0  0  0  0
   33.5740   29.2390   45.3460 H   0  0  0  0  0  0  0  0  0  0  0  0
   34.7230   29.7100   43.1550 H   0  0  0  0  0  0  0  0  0  0  0  0
   36.9530   30.7200   43.2070 H   0  0  0  0  0  0  0  0  0  0  0  0
   37.4400   30.3380   50.0390 C   0  0  0  0  0  0  0  0  0  0  0  0
   38.2200   31.4770   50.2260 C   0  0  0  0  0  0  0  0  0  0  0  0
   38.4100   32.3360   49.1220 C   0  0  0  0  0  0  0  0  0  0  0  0
   37.8280   32.0020   47.9600 N   0  0  0  0  0  0  0  0  0  0  0  0
   37.0720   30.8780   47.8210 C   0  0  0  0  0  0  0  0  0  0  0  0
   36.8890   30.0640   48.8570 N   0  0  0  0  0  0  0  0  0  0  0  0
   38.6650   31.6990   51.1730 H   0  0  0  0  0  0  0  0  0  0  0  0
   39.0130   33.2260   49.2490 H   0  0  0  0  0  0  0  0  0  0  0  0
   37.2430   29.4250   51.2300 C   0  0  0  0  0  0  0  0  0  0  0  0
   35.8800   29.1820   51.3720 F   0  0  0  0  0  0  0  0  0  0  0  0
   37.9580   28.2960   51.0180 F   0  0  0  0  0  0  0  0  0  0  0  0
   37.6810   30.1110   52.3530 F   0  0  0  0  0  0  0  0  0  0  0  0
   38.4100   31.4270   45.3250 C   0  0  0  0  0  0  0  0  0  0  0  0
   39.4780   30.5430   45.4950 C   0  0  0  0  0  0  0  0  0  0  0  0
   40.7520   31.0770   45.4940 C   0  0  0  0  0  0  0  0  0  0  0  0
   41.6520   30.4610   45.6200 H   0  0  0  0  0  0  0  0  0  0  0  0
   41.0080   32.4060   45.3380 N   0  0  0  0  0  0  0  0  0  0  0  0
   39.9490   33.2170   45.1780 C   0  0  0  0  0  0  0  0  0  0  0  0
   38.7200   32.7320   45.1760 N   0  0  0  0  0  0  0  0  0  0  0  0
  1 15  1  0  0  0  0
  2  1  1  0  0  0  0
  2  7  1  0  0  0  0
  3  8  1  0  0  0  0
  3  2  2  0  0  0  0
  4  5  2  0  0  0  0
  4  3  1  0  0  0  0
  5  6  1  0  0  0  0
  6  1  2  0  0  0  0
  9  4  1  0  0  0  0
 10  5  1  0  0  0  0
 11 12  1  0  0  0  0
 11 19  1  0  0  0  0
 12 17  1  0  0  0  0
 13 18  1  0  0  0  0
 13 12  2  0  0  0  0
 14 13  1  0  0  0  0
 15 14  2  0  0  0  0
 15 16  1  0  0  0  0
 16 11  2  0  0  0  0
 19 20  1  0  0  0  0
 19 22  1  0  0  0  0
 21 19  1  0  0  0  0
 23  6  1  0  0  0  0
 23 24  1  0  0  0  0
 25 24  2  0  0  0  0
 25 26  1  0  0  0  0
 27 25  1  0  0  0  0
 28 27  2  0  0  0  0
 29 28  1  0  0  0  0
 29 23  2  0  0  0  0
M  END
>  <minimizedAffinity>
-6.98052979

>  <minimizedRMSD>
0.459607393

$$$$
