
     RDKit          3D

 38 41  0  0  0  0  0  0  0  0999 V2000
   35.2923   29.4158   48.9852 C   0  0  2  0  0  0  0  0  0  0  0  0
   34.1923   29.3552   49.9428 C   0  0  0  0  0  0  0  0  0  0  0  0
   34.5293   28.0974   49.3438 C   0  0  1  0  0  0  0  0  0  0  0  0
   36.7104   29.3841   49.5810 C   0  0  0  0  0  0  0  0  0  0  0  0
   38.0877   32.7636   49.4534 C   0  0  0  0  0  0  0  0  0  0  0  0
   38.7578   32.7766   48.2093 C   0  0  0  0  0  0  0  0  0  0  0  0
   38.7182   31.5962   47.4298 C   0  0  0  0  0  0  0  0  0  0  0  0
   38.0372   30.5169   47.9230 N   0  0  0  0  0  0  0  0  0  0  0  0
   37.4179   30.5655   49.1162 C   0  0  0  0  0  0  0  0  0  0  0  0
   37.4513   31.6912   49.8682 N   0  0  0  0  0  0  0  0  0  0  0  0
   33.5598   27.5917   48.2952 C   0  0  0  0  0  0  0  0  0  0  0  0
   33.9041   26.4453   47.8017 O   0  0  0  0  0  0  0  0  0  0  0  0
   32.3968   28.2360   47.8645 O   0  0  0  0  0  0  0  0  0  0  0  0
   31.1417   27.8305   48.2094 C   0  0  0  0  0  0  0  0  0  0  0  0
   30.6168   27.8456   49.5888 C   0  0  0  0  0  0  0  0  0  0  0  0
   29.3495   27.4206   49.8246 C   0  0  0  0  0  0  0  0  0  0  0  0
   28.5422   26.9656   48.7474 C   0  0  0  0  0  0  0  0  0  0  0  0
   29.6547   27.1492   47.2668 S   0  0  0  0  0  0  0  0  0  0  0  0
   35.2358   29.7102   47.9403 H   0  0  0  0  0  0  0  0  0  0  0  0
   33.2294   29.8708   49.7188 H   0  0  0  0  0  0  0  0  0  0  0  0
   34.4567   29.5167   51.0295 H   0  0  0  0  0  0  0  0  0  0  0  0
   35.1867   27.3243   49.7452 H   0  0  0  0  0  0  0  0  0  0  0  0
   37.1897   28.4355   49.2265 H   0  0  0  0  0  0  0  0  0  0  0  0
   36.6847   29.3937   50.6941 H   0  0  0  0  0  0  0  0  0  0  0  0
   38.0774   33.6326   50.1012 H   0  0  0  0  0  0  0  0  0  0  0  0
   39.2681   33.6561   47.8909 H   0  0  0  0  0  0  0  0  0  0  0  0
   39.2217   31.5775   46.4746 H   0  0  0  0  0  0  0  0  0  0  0  0
   31.2535   28.1935   50.3725 H   0  0  0  0  0  0  0  0  0  0  0  0
   28.8694   27.3902   50.7836 H   0  0  0  0  0  0  0  0  0  0  0  0
   27.2675   26.4825   48.6193 C   0  0  0  0  0  0  0  0  0  0  0  0
   26.8871   25.3366   49.2837 C   0  0  0  0  0  0  0  0  0  0  0  0
   25.5751   24.8710   49.1295 C   0  0  0  0  0  0  0  0  0  0  0  0
   25.2572   23.9734   49.6426 H   0  0  0  0  0  0  0  0  0  0  0  0
   24.7390   25.5842   48.3232 N   0  0  0  0  0  0  0  0  0  0  0  0
   25.1220   26.7038   47.6783 C   0  0  0  0  0  0  0  0  0  0  0  0
   26.4042   27.1485   47.8361 N   0  0  0  0  0  0  0  0  0  0  0  0
   27.5256   24.7456   49.9318 H   0  0  0  0  0  0  0  0  0  0  0  0
   24.4164   27.2150   47.0615 H   0  0  0  0  0  0  0  0  0  0  0  0
  1  3  1  0
  1  4  1  0
  1  2  1  0
  3  2  1  0
  5 10  2  0
  6  5  1  0
  7  8  1  0
  7  6  2  0
  8  9  2  0
  9  4  1  0
  9 10  1  0
 11  3  1  0
 12 11  2  0
 13 14  1  0
 13 11  1  0
 14 15  2  0
 15 16  1  0
 17 16  2  0
 18 14  1  0
 18 17  1  0
  1 19  1  6
  2 20  1  0
  2 21  1  0
  3 22  1  1
  4 23  1  0
  4 24  1  0
  5 25  1  0
  6 26  1  0
  7 27  1  0
 15 28  1  0
 16 29  1  0
 30 31  2  0
 31 32  1  0
 32 33  1  0
 32 34  2  0
 34 35  1  0
 35 36  2  0
 36 30  1  0
 31 37  1  0
 35 38  1  0
 17 30  1  0
M  ISO  8  19  13  20  13  21  13  22  13  23   8  24   8  25  14  26  14
M  ISO  4  27  14  28  14  29  14  33  14
M  END
>  <DihAtoms>  (1) 
15,16,29,30

>  <DihDeg>  (1) 
179.9929649533499

$$$$
