
 OpenBabel03252513573D

 26 28  0  0  1  0  0  0  0  0999 V2000
   35.4060   29.4370   49.1180 C   0  0  2  0  0  0  0  0  0  0  0  0
   34.3750   29.6670   50.1510 C   0  0  0  0  0  0  0  0  0  0  0  0
   34.5240   28.2980   49.6170 C   0  0  1  0  0  0  0  0  0  0  0  0
   35.2240   29.8150   48.0850 H   0  0  0  0  0  0  0  0  0  0  0  0
   34.6440   29.8960   51.2010 H   0  0  0  0  0  0  0  0  0  0  0  0
   33.4860   30.2490   49.8170 H   0  0  0  0  0  0  0  0  0  0  0  0
   34.9750   27.5500   50.2990 H   0  0  0  0  0  0  0  0  0  0  0  0
   33.5340   27.7300   48.6530 C   0  0  0  0  0  0  0  0  0  0  0  0
   33.9260   26.8960   47.6230 C   0  0  0  0  0  3  0  0  0  0  0  0
   32.9540   26.4130   46.7750 C   0  0  0  0  0  0  0  0  0  0  0  0
   33.1770   25.7600   45.9490 H   0  0  0  0  0  0  0  0  0  0  0  0
   31.6310   26.7040   46.8890 N   0  0  0  0  0  0  0  0  0  0  0  0
   31.2820   27.5280   47.9150 C   0  0  0  0  0  3  0  0  0  0  0  0
   32.2250   28.0030   48.7460 N   0  0  0  0  0  0  0  0  0  0  0  0
   36.8600   29.2970   49.5110 C   0  0  0  0  0  0  0  0  0  0  0  0
   36.8940   29.2740   50.6330 H   0  0  0  0  0  0  0  0  0  0  0  0
   37.3080   28.3390   49.1440 H   0  0  0  0  0  0  0  0  0  0  0  0
   38.3630   32.6510   49.3960 C   0  0  0  0  0  0  0  0  0  0  0  0
   38.8870   32.7210   48.1050 C   0  0  0  0  0  0  0  0  0  0  0  0
   38.7190   31.6080   47.2710 C   0  0  0  0  0  0  0  0  0  0  0  0
   38.0560   30.5220   47.7710 N   0  0  0  0  0  0  0  0  0  0  0  0
   37.5650   30.5020   49.0370 C   0  0  0  0  0  0  0  0  0  0  0  0
   37.7200   31.5670   49.8460 N   0  0  0  0  0  0  0  0  0  0  0  0
   38.4780   33.5020   50.0690 H   0  0  0  0  0  0  0  0  0  0  0  0
   39.4070   33.5880   47.7290 H   0  0  0  0  0  0  0  0  0  0  0  0
   39.0970   31.5780   46.2470 H   0  0  0  0  0  0  0  0  0  0  0  0
  1  4  1  6  0  0  0
  1 15  1  0  0  0  0
  1  3  1  0  0  0  0
  1  2  1  0  0  0  0
  2  5  1  0  0  0  0
  3  2  1  0  0  0  0
  3  7  1  1  0  0  0
  6  2  1  0  0  0  0
  8 14  1  0  0  0  0
  8  3  1  0  0  0  0
  9  8  2  0  0  0  0
 10 12  2  0  0  0  0
 10  9  1  0  0  0  0
 11 10  1  0  0  0  0
 12 13  1  0  0  0  0
 13 14  2  0  0  0  0
 15 16  1  0  0  0  0
 17 15  1  0  0  0  0
 18 23  1  0  0  0  0
 18 24  1  0  0  0  0
 19 18  2  0  0  0  0
 20 21  2  0  0  0  0
 20 19  1  0  0  0  0
 21 22  1  0  0  0  0
 22 15  1  0  0  0  0
 22 23  2  0  0  0  0
 25 19  1  0  0  0  0
 26 20  1  0  0  0  0
M  END
>  <minimizedAffinity>
-5.00198364

>  <minimizedRMSD>
0.741869628

$$$$
