
 OpenBabel03252513573D

 26 28  0  0  1  0  0  0  0  0999 V2000
   35.4190   29.4530   49.1540 C   0  0  2  0  0  0  0  0  0  0  0  0
   34.3620   29.5820   50.1780 C   0  0  0  0  0  0  0  0  0  0  0  0
   34.5630   28.2590   49.5560 C   0  0  1  0  0  0  0  0  0  0  0  0
   35.2450   29.8960   48.1450 H   0  0  0  0  0  0  0  0  0  0  0  0
   34.6040   29.7480   51.2460 H   0  0  0  0  0  0  0  0  0  0  0  0
   33.4630   30.1600   49.8650 H   0  0  0  0  0  0  0  0  0  0  0  0
   35.0240   27.4790   50.1960 H   0  0  0  0  0  0  0  0  0  0  0  0
   33.6100   27.7280   48.5360 C   0  0  0  0  0  0  0  0  0  0  0  0
   32.2420   27.8660   48.6830 C   0  0  0  0  0  3  0  0  0  0  0  0
   31.4290   27.3500   47.6990 C   0  0  0  0  0  0  0  0  0  0  0  0
   30.3540   27.4170   47.7400 H   0  0  0  0  0  0  0  0  0  0  0  0
   31.8860   26.7130   46.5900 N   0  0  0  0  0  0  0  0  0  0  0  0
   33.2380   26.5940   46.4790 C   0  0  0  0  0  3  0  0  0  0  0  0
   34.0390   27.0960   47.4340 N   0  0  0  0  0  0  0  0  0  0  0  0
   36.8690   29.3300   49.5670 C   0  0  0  0  0  0  0  0  0  0  0  0
   36.8900   29.3380   50.6900 H   0  0  0  0  0  0  0  0  0  0  0  0
   37.3250   28.3640   49.2300 H   0  0  0  0  0  0  0  0  0  0  0  0
   38.3810   32.6770   49.3870 C   0  0  0  0  0  0  0  0  0  0  0  0
   38.8980   32.7240   48.0930 C   0  0  0  0  0  0  0  0  0  0  0  0
   38.7240   31.5970   47.2790 C   0  0  0  0  0  0  0  0  0  0  0  0
   38.0600   30.5220   47.8010 N   0  0  0  0  0  0  0  0  0  0  0  0
   37.5750   30.5250   49.0690 C   0  0  0  0  0  0  0  0  0  0  0  0
   37.7370   31.6020   49.8590 N   0  0  0  0  0  0  0  0  0  0  0  0
   38.5010   33.5390   50.0450 H   0  0  0  0  0  0  0  0  0  0  0  0
   39.4200   33.5830   47.6990 H   0  0  0  0  0  0  0  0  0  0  0  0
   39.0970   31.5480   46.2540 H   0  0  0  0  0  0  0  0  0  0  0  0
  1  4  1  6  0  0  0
  1  3  1  0  0  0  0
  1 15  1  0  0  0  0
  1  2  1  0  0  0  0
  2  5  1  0  0  0  0
  3  2  1  0  0  0  0
  3  7  1  1  0  0  0
  6  2  1  0  0  0  0
  8  9  1  0  0  0  0
  8  3  1  0  0  0  0
 10 11  1  0  0  0  0
 10  9  2  0  0  0  0
 12 10  1  0  0  0  0
 13 12  2  0  0  0  0
 13 14  1  0  0  0  0
 14  8  2  0  0  0  0
 15 16  1  0  0  0  0
 17 15  1  0  0  0  0
 18 23  1  0  0  0  0
 18 24  1  0  0  0  0
 19 18  2  0  0  0  0
 20 21  2  0  0  0  0
 20 19  1  0  0  0  0
 21 22  1  0  0  0  0
 22 15  1  0  0  0  0
 22 23  2  0  0  0  0
 25 19  1  0  0  0  0
 26 20  1  0  0  0  0
M  END
>  <minimizedAffinity>
-4.96250677

>  <minimizedRMSD>
0.689436972

$$$$
