
 OpenBabel03252511253D

 32 35  0  0  0  0  0  0  0  0999 V2000
   35.5830   29.4830   49.2870 C   0  0  0  0  0  0  0  0  0  0  0  0
   35.6790   29.1980   50.6630 C   0  0  0  0  0  0  0  0  0  0  0  0
   36.6540   29.6790   51.4870 C   0  0  0  0  0  0  0  0  0  0  0  0
   37.6220   30.4960   50.9880 C   0  0  0  0  0  0  0  0  0  0  0  0
   37.5960   30.8170   49.6670 C   0  0  0  0  0  0  0  0  0  0  0  0
   38.5960   31.6460   49.2020 C   0  0  0  0  0  0  0  0  0  0  0  0
   38.6330   32.0100   47.8900 C   0  0  0  0  0  0  0  0  0  0  0  0
   37.6430   31.5230   47.0470 C   0  0  0  0  0  0  0  0  0  0  0  0
   36.6720   30.6980   47.5670 C   0  0  0  0  0  0  0  0  0  0  0  0
   36.5970   30.3120   48.8650 C   0  0  0  0  0  0  0  0  0  0  0  0
   34.9170   28.5430   51.1040 H   0  0  0  0  0  0  0  0  0  0  0  0
   36.6440   29.4030   52.5350 H   0  0  0  0  0  0  0  0  0  0  0  0
   38.3660   30.8460   51.6870 H   0  0  0  0  0  0  0  0  0  0  0  0
   39.3710   32.0290   49.8570 H   0  0  0  0  0  0  0  0  0  0  0  0
   39.4090   32.6590   47.5090 H   0  0  0  0  0  0  0  0  0  0  0  0
   37.6870   31.8210   46.0090 H   0  0  0  0  0  0  0  0  0  0  0  0
   35.9080   30.3370   46.8630 H   0  0  0  0  0  0  0  0  0  0  0  0
   33.6020   26.9010   47.7750 C   0  0  0  0  0  0  0  0  0  0  0  0
   32.6700   27.5270   46.9450 C   0  0  0  0  0  0  0  0  0  0  0  0
   32.7250   28.9010   46.9020 C   0  0  0  0  0  0  0  0  0  0  0  0
   33.6550   29.5110   47.6510 N   0  0  0  0  0  0  0  0  0  0  0  0
   34.5430   28.9610   48.4400 C   0  0  0  0  0  0  0  0  0  0  0  0
   34.4660   27.6330   48.4610 N   0  0  0  0  0  0  0  0  0  0  0  0
   33.5430   25.8080   47.7970 H   0  0  0  0  0  0  0  0  0  0  0  0
   31.9290   27.0230   46.3500 H   0  0  0  0  0  0  0  0  0  0  0  0
   31.8470   29.7410   46.1020 C   0  0  0  0  0  0  0  0  0  0  0  0
   32.2330   30.9450   45.5470 C   0  0  0  0  0  0  0  0  0  0  0  0
   31.4180   31.7530   44.7890 C   0  0  0  0  0  0  0  0  0  0  0  0
   31.7700   32.7000   44.3700 H   0  0  0  0  0  0  0  0  0  0  0  0
   30.1510   31.3690   44.5560 N   0  0  0  0  0  0  0  0  0  0  0  0
   29.7540   30.1810   45.0980 C   0  0  0  0  0  0  0  0  0  0  0  0
   30.5570   29.3980   45.8380 N   0  0  0  0  0  0  0  0  0  0  0  0
  1  2  1  0  0  0  0
  2 11  1  0  0  0  0
  2  3  2  0  0  0  0
  3 12  1  0  0  0  0
  4  3  1  0  0  0  0
  4 13  1  0  0  0  0
  5  4  2  0  0  0  0
  6  5  1  0  0  0  0
  6 14  1  0  0  0  0
  7  6  2  0  0  0  0
  8  9  2  0  0  0  0
  8  7  1  0  0  0  0
  9 10  1  0  0  0  0
 10  1  2  0  0  0  0
 10  5  1  0  0  0  0
 15  7  1  0  0  0  0
 16  8  1  0  0  0  0
 17  9  1  0  0  0  0
 18 24  1  0  0  0  0
 18 23  1  0  0  0  0
 19 18  2  0  0  0  0
 20 19  1  0  0  0  0
 20 21  2  0  0  0  0
 21 22  1  0  0  0  0
 22 23  2  0  0  0  0
 22  1  1  0  0  0  0
 25 19  1  0  0  0  0
 26 20  1  0  0  0  0
 27 26  2  0  0  0  0
 28 27  1  0  0  0  0
 29 28  1  0  0  0  0
 30 28  2  0  0  0  0
 30 31  1  0  0  0  0
 31 32  2  0  0  0  0
 32 26  1  0  0  0  0
M  END
>  <minimizedAffinity>
-6.82915926

>  <minimizedRMSD>
0.574003458

$$$$
