
 OpenBabel03252512013D

 25 27  0  0  0  0  0  0  0  0999 V2000
   36.5110   30.9180   48.8520 C   0  0  0  0  0  0  0  0  0  0  0  0
   35.5710   31.4060   48.5310 H   0  0  0  0  0  0  0  0  0  0  0  0
   36.8180   31.3650   49.7980 H   0  0  0  0  0  0  0  0  0  0  0  0
   37.5770   31.2310   47.8580 C   0  0  0  0  0  0  0  0  0  0  0  0
   37.7640   30.4730   46.7230 C   0  0  0  0  0  0  0  0  0  0  0  0
   38.7070   30.7010   45.7430 C   0  0  0  0  0  0  0  0  0  0  0  0
   39.5170   31.8080   45.9720 C   0  0  0  0  0  0  0  0  0  0  0  0
   39.4000   32.6170   47.0770 C   0  0  0  0  0  0  0  0  0  0  0  0
   40.2190   33.7050   47.2850 C   0  0  0  0  0  0  0  0  0  0  0  0
   40.1020   34.5070   48.3930 C   0  0  0  0  0  0  0  0  0  0  0  0
   39.1370   34.2390   49.3560 C   0  0  0  0  0  0  0  0  0  0  0  0
   38.3210   33.1440   49.1370 C   0  0  0  0  0  0  0  0  0  0  0  0
   38.4230   32.3330   48.0360 C   0  0  0  0  0  0  0  0  0  0  0  0
   36.3460   29.3950   48.9780 C   0  0  0  0  0  0  0  0  0  0  0  0
   37.1100   28.8370   48.4060 H   0  0  0  0  0  0  0  0  0  0  0  0
   36.3940   29.1340   50.0650 H   0  0  0  0  0  0  0  0  0  0  0  0
   34.3650   27.9310   49.0430 C   0  0  0  0  0  0  0  0  0  0  0  0
   35.0330   29.0530   48.4860 C   0  0  0  0  0  0  0  0  0  0  0  0
   34.3660   29.7520   47.4890 C   0  0  0  0  0  0  0  0  0  0  0  0
   33.1260   29.3380   47.0970 N   0  0  0  0  0  0  0  0  0  0  0  0
   32.5160   28.2720   47.6410 C   0  0  0  0  0  0  0  0  0  0  0  0
   33.1340   27.5840   48.6000 N   0  0  0  0  0  0  0  0  0  0  0  0
   34.7860   27.3120   49.8240 H   0  0  0  0  0  0  0  0  0  0  0  0
   34.7900   30.6030   47.0130 H   0  0  0  0  0  0  0  0  0  0  0  0
   31.5330   28.0750   47.2190 H   0  0  0  0  0  0  0  0  0  0  0  0
  1 14  1  0  0  0  0
  1  3  1  0  0  0  0
  2  1  1  0  0  0  0
  4 13  1  0  0  0  0
  4  1  1  0  0  0  0
  5  4  2  0  0  0  0
  6  7  2  0  0  0  0
  6  5  1  0  0  0  0
  7  8  1  0  0  0  0
  8  9  2  0  0  0  0
  8 13  1  0  0  0  0
  9 10  1  0  0  0  0
 10 11  2  0  0  0  0
 12 11  1  0  0  0  0
 13 12  2  0  0  0  0
 14 16  1  0  0  0  0
 15 14  1  0  0  0  0
 17 23  1  0  0  0  0
 18 14  1  0  0  0  0
 18 17  2  0  0  0  0
 19 18  1  0  0  0  0
 20 19  2  0  0  0  0
 20 21  1  0  0  0  0
 21 22  2  0  0  0  0
 22 17  1  0  0  0  0
 24 19  1  0  0  0  0
 25 21  1  0  0  0  0
M  END
>  <minimizedAffinity>
-5.75283337

>  <minimizedRMSD>
3.86274076

$$$$
