
     RDKit          3D

 27 29  0  0  0  0  0  0  0  0999 V2000
   38.4144   32.6972   49.3873 C   0  0  0  0  0  0  0  0  0  0  0  0
   38.9055   32.7009   48.0803 C   0  0  0  0  0  0  0  0  0  0  0  0
   38.6909   31.5524   47.2948 C   0  0  0  0  0  0  0  0  0  0  0  0
   38.0155   30.5206   47.8777 N   0  0  0  0  0  0  0  0  0  0  0  0
   37.5557   30.5513   49.1417 C   0  0  0  0  0  0  0  0  0  0  0  0
   37.7652   31.6499   49.8818 N   0  0  0  0  0  0  0  0  0  0  0  0
   36.8371   29.3721   49.6657 C   0  0  0  0  0  0  0  0  0  0  0  0
   35.4119   29.4601   49.1661 C   0  0  2  0  0  0  0  0  0  0  0  0
   34.2799   29.4330   50.1155 C   0  0  0  0  0  0  0  0  0  0  0  0
   34.5959   28.1986   49.3821 C   0  0  1  0  0  0  0  0  0  0  0  0
   38.6244   33.6136   49.9108 H   0  0  0  0  0  0  0  0  0  0  0  0
   39.4452   33.4894   47.5721 H   0  0  0  0  0  0  0  0  0  0  0  0
   39.0098   31.4046   46.2683 H   0  0  0  0  0  0  0  0  0  0  0  0
   37.2536   28.4431   49.2753 H   0  0  0  0  0  0  0  0  0  0  0  0
   36.8495   29.4103   50.7862 H   0  0  0  0  0  0  0  0  0  0  0  0
   35.2512   30.0472   48.2286 H   0  0  0  0  0  0  0  0  0  0  0  0
   34.5012   29.4577   51.2154 H   0  0  0  0  0  0  0  0  0  0  0  0
   33.3418   29.9610   49.8498 H   0  0  0  0  0  0  0  0  0  0  0  0
   35.0719   27.3594   49.9202 H   0  0  0  0  0  0  0  0  0  0  0  0
   33.8332   27.7808   48.1826 C   0  0  0  0  0  0  0  0  0  0  0  0
   32.7072   28.4534   47.6935 C   0  0  0  0  0  0  0  0  0  0  0  0
   32.2627   27.7842   46.5714 C   0  0  0  0  0  0  0  0  0  0  0  0
   31.4103   28.0238   45.9332 H   0  0  0  0  0  0  0  0  0  0  0  0
   33.1002   26.7315   46.3862 N   0  0  0  0  0  0  0  0  0  0  0  0
   34.0182   26.7452   47.3435 N   0  0  0  0  0  0  0  0  0  0  0  0
   32.2572   29.3263   48.0985 H   0  0  0  0  0  0  0  0  0  0  0  0
   33.0728   26.0017   45.6324 H   0  0  0  0  0  0  0  0  0  0  0  0
  1  6  2  0
  2  1  1  0
  3  4  1  0
  3  2  2  0
  4  5  2  0
  5  7  1  0
  5  6  1  0
  8 10  1  0
  8  7  1  0
  8  9  1  0
 10  9  1  0
  1 11  1  0
  2 12  1  0
  3 13  1  0
  7 14  1  0
  7 15  1  0
  8 16  1  6
  9 17  1  0
  9 18  1  0
 10 19  1  1
 20 21  1  0
 21 22  2  0
 22 23  1  0
 22 24  1  0
 24 25  1  0
 25 20  2  0
 21 26  1  0
 24 27  1  0
 10 20  1  0
M  ISO  8  11  14  12  14  13  14  14   8  15   8  16  13  17  13  18  13
M  ISO  2  19  13  23  14
M  END
>  <DihAtoms>  (1) 
7,9,19,20

>  <DihDeg>  (1) 
138.32474711630329

$$$$
