
 OpenBabel03252513573D

 26 28  0  0  1  0  0  0  0  0999 V2000
   35.4610   29.4260   49.1210 C   0  0  2  0  0  0  0  0  0  0  0  0
   34.3870   29.6980   50.0990 C   0  0  0  0  0  0  0  0  0  0  0  0
   34.5650   28.3150   49.6360 C   0  0  1  0  0  0  0  0  0  0  0  0
   35.2910   29.8140   48.0870 H   0  0  0  0  0  0  0  0  0  0  0  0
   34.6730   29.9350   51.1580 H   0  0  0  0  0  0  0  0  0  0  0  0
   33.4780   30.2380   49.7650 H   0  0  0  0  0  0  0  0  0  0  0  0
   35.0050   27.5690   50.3220 H   0  0  0  0  0  0  0  0  0  0  0  0
   33.7030   27.7210   48.5870 C   0  0  0  0  0  0  0  0  0  0  0  0
   32.3070   27.8150   48.5710 C   0  0  0  0  0  3  0  0  0  0  0  0
   31.8470   27.1490   47.4520 C   0  0  0  0  0  0  0  0  0  0  0  0
   30.8150   27.0170   47.1200 H   0  0  0  0  0  0  0  0  0  0  0  0
   32.9390   26.6650   46.8080 N   0  0  0  0  0  0  0  0  0  0  0  0
   34.0230   27.0110   47.4890 N   0  0  0  0  0  0  0  0  0  0  0  0
   32.9770   26.1070   45.9200 H   0  0  0  0  0  0  0  0  0  0  0  0
   36.9010   29.3220   49.5700 C   0  0  0  0  0  0  0  0  0  0  0  0
   37.3090   28.4150   49.1220 H   0  0  0  0  0  0  0  0  0  0  0  0
   36.9490   29.3050   50.6900 H   0  0  0  0  0  0  0  0  0  0  0  0
   38.4060   32.6860   49.3860 C   0  0  0  0  0  0  0  0  0  0  0  0
   38.9090   32.7330   48.0840 C   0  0  0  0  0  0  0  0  0  0  0  0
   38.7260   31.5990   47.2700 C   0  0  0  0  0  0  0  0  0  0  0  0
   38.0700   30.5390   47.8210 N   0  0  0  0  0  0  0  0  0  0  0  0
   37.5980   30.5290   49.0820 C   0  0  0  0  0  0  0  0  0  0  0  0
   37.7770   31.6130   49.8500 N   0  0  0  0  0  0  0  0  0  0  0  0
   38.5910   33.5950   49.9340 H   0  0  0  0  0  0  0  0  0  0  0  0
   39.4350   33.5450   47.6000 H   0  0  0  0  0  0  0  0  0  0  0  0
   39.0570   31.4840   46.2420 H   0  0  0  0  0  0  0  0  0  0  0  0
  1  4  1  6  0  0  0
  1 15  1  0  0  0  0
  1  3  1  0  0  0  0
  1  2  1  0  0  0  0
  2  5  1  0  0  0  0
  3  2  1  0  0  0  0
  3  7  1  1  0  0  0
  6  2  1  0  0  0  0
  8  3  1  0  0  0  0
  9  8  1  0  0  0  0
 10  9  2  0  0  0  0
 11 10  1  0  0  0  0
 12 10  1  0  0  0  0
 12 13  1  0  0  0  0
 13  8  2  0  0  0  0
 14 12  1  0  0  0  0
 15 17  1  0  0  0  0
 16 15  1  0  0  0  0
 18 23  1  0  0  0  0
 18 24  1  0  0  0  0
 19 18  2  0  0  0  0
 20 21  2  0  0  0  0
 20 19  1  0  0  0  0
 21 22  1  0  0  0  0
 22 15  1  0  0  0  0
 22 23  2  0  0  0  0
 25 19  1  0  0  0  0
 26 20  1  0  0  0  0
M  END
>  <minimizedAffinity>
-4.8391695

>  <minimizedRMSD>
0.553579986

$$$$
