
 OpenBabel03252513583D

 26 28  0  0  1  0  0  0  0  0999 V2000
   35.3860   29.4530   49.1660 C   0  0  2  0  0  0  0  0  0  0  0  0
   34.2930   29.5380   50.1570 C   0  0  0  0  0  0  0  0  0  0  0  0
   34.5210   28.2480   49.4890 C   0  0  1  0  0  0  0  0  0  0  0  0
   35.2150   29.9910   48.2020 H   0  0  0  0  0  0  0  0  0  0  0  0
   34.5580   29.6160   51.2440 H   0  0  0  0  0  0  0  0  0  0  0  0
   33.3710   30.0950   49.8950 H   0  0  0  0  0  0  0  0  0  0  0  0
   34.9780   27.4190   50.0590 H   0  0  0  0  0  0  0  0  0  0  0  0
   33.6920   27.7990   48.3470 C   0  0  0  0  0  0  0  0  0  0  0  0
   33.8930   26.5990   47.6530 C   0  0  0  0  0  3  0  0  0  0  0  0
   32.9390   26.5140   46.6580 C   0  0  0  0  0  0  0  0  0  0  0  0
   32.7940   25.7180   45.9260 H   0  0  0  0  0  0  0  0  0  0  0  0
   32.1790   27.6360   46.7490 N   0  0  0  0  0  0  0  0  0  0  0  0
   32.6360   28.3800   47.7470 N   0  0  0  0  0  0  0  0  0  0  0  0
   31.3590   27.9170   46.1570 H   0  0  0  0  0  0  0  0  0  0  0  0
   36.8240   29.3240   49.6180 C   0  0  0  0  0  0  0  0  0  0  0  0
   37.2130   28.4040   49.1790 H   0  0  0  0  0  0  0  0  0  0  0  0
   36.8710   29.3200   50.7370 H   0  0  0  0  0  0  0  0  0  0  0  0
   38.4110   32.6490   49.4000 C   0  0  0  0  0  0  0  0  0  0  0  0
   38.9010   32.6770   48.0920 C   0  0  0  0  0  0  0  0  0  0  0  0
   38.6810   31.5440   47.2860 C   0  0  0  0  0  0  0  0  0  0  0  0
   38.0030   30.5040   47.8500 N   0  0  0  0  0  0  0  0  0  0  0  0
   37.5460   30.5110   49.1150 C   0  0  0  0  0  0  0  0  0  0  0  0
   37.7590   31.5950   49.8760 N   0  0  0  0  0  0  0  0  0  0  0  0
   38.6250   33.5550   49.9410 H   0  0  0  0  0  0  0  0  0  0  0  0
   39.4410   33.4730   47.5990 H   0  0  0  0  0  0  0  0  0  0  0  0
   38.9970   31.4160   46.2550 H   0  0  0  0  0  0  0  0  0  0  0  0
  1  4  1  6  0  0  0
  1  3  1  0  0  0  0
  1 15  1  0  0  0  0
  1  2  1  0  0  0  0
  2  5  1  0  0  0  0
  3  7  1  1  0  0  0
  3  2  1  0  0  0  0
  6  2  1  0  0  0  0
  8  3  1  0  0  0  0
  9  8  1  0  0  0  0
 10 12  1  0  0  0  0
 10  9  2  0  0  0  0
 11 10  1  0  0  0  0
 12 13  1  0  0  0  0
 13  8  2  0  0  0  0
 14 12  1  0  0  0  0
 15 17  1  0  0  0  0
 16 15  1  0  0  0  0
 18 23  1  0  0  0  0
 18 24  1  0  0  0  0
 19 18  2  0  0  0  0
 20 21  2  0  0  0  0
 20 19  1  0  0  0  0
 21 22  1  0  0  0  0
 22 15  1  0  0  0  0
 22 23  2  0  0  0  0
 25 19  1  0  0  0  0
 26 20  1  0  0  0  0
M  END
>  <minimizedAffinity>
-4.83081818

>  <minimizedRMSD>
0.349631786

$$$$
