
 OpenBabel03252514053D

 36 39  0  0  1  0  0  0  0  0999 V2000
   35.2450   29.2660   48.7180 C   0  0  2  0  0  0  0  0  0  0  0  0
   34.0690   29.1760   49.5780 C   0  0  0  0  0  0  0  0  0  0  0  0
   34.4920   27.9270   49.0160 C   0  0  1  0  0  0  0  0  0  0  0  0
   35.2420   29.5180   47.6560 H   0  0  0  0  0  0  0  0  0  0  0  0
   33.1070   29.6550   49.2310 H   0  0  0  0  0  0  0  0  0  0  0  0
   34.2230   29.4340   50.6660 H   0  0  0  0  0  0  0  0  0  0  0  0
   35.1370   27.1690   49.4600 H   0  0  0  0  0  0  0  0  0  0  0  0
   36.6040   29.2840   49.4390 C   0  0  0  0  0  0  0  0  0  0  0  0
   36.4400   29.2740   50.5320 H   0  0  0  0  0  0  0  0  0  0  0  0
   37.2210   28.4140   49.1470 H   0  0  0  0  0  0  0  0  0  0  0  0
   37.7060   32.7660   49.5440 C   0  0  0  0  0  0  0  0  0  0  0  0
   38.5480   32.8580   48.4170 C   0  0  0  0  0  0  0  0  0  0  0  0
   38.7200   31.6930   47.6330 C   0  0  0  0  0  0  0  0  0  0  0  0
   38.0640   30.5530   48.0100 N   0  0  0  0  0  0  0  0  0  0  0  0
   37.2770   30.5230   49.0870 C   0  0  0  0  0  0  0  0  0  0  0  0
   37.1040   31.6390   49.8500 N   0  0  0  0  0  0  0  0  0  0  0  0
   37.5290   33.6120   50.1860 H   0  0  0  0  0  0  0  0  0  0  0  0
   39.0120   33.8070   48.2170 H   0  0  0  0  0  0  0  0  0  0  0  0
   39.3570   31.7750   46.7870 H   0  0  0  0  0  0  0  0  0  0  0  0
   33.6270   27.3950   47.8870 C   0  0  0  0  0  0  0  0  0  0  0  0
   34.0350   26.2520   47.4370 O   0  0  0  0  0  0  0  0  0  0  0  0
   32.4990   28.0090   47.3460 O   0  0  0  0  0  0  0  0  0  0  0  0
   31.2530   27.9200   47.9070 C   0  0  0  0  0  0  0  0  0  0  0  0
   30.9240   27.1600   49.1400 C   0  0  0  0  0  0  0  0  0  0  0  0
   29.6400   27.1780   49.5590 C   0  0  0  0  0  0  0  0  0  0  0  0
   28.6390   27.8860   48.8650 C   0  0  0  0  0  0  0  0  0  0  0  0
   29.5610   28.6350   47.4410 S   0  0  0  0  0  0  0  0  0  0  0  0
   31.7290   26.6410   49.6240 H   0  0  0  0  0  0  0  0  0  0  0  0
   29.3050   26.6580   50.4390 H   0  0  0  0  0  0  0  0  0  0  0  0
   27.3150   28.0950   49.0170 C   0  0  0  0  0  0  0  0  0  0  0  0
   26.6820   28.6360   50.1190 C   0  0  0  0  0  3  0  0  0  0  0  0
   25.3040   28.6840   49.8790 C   0  0  0  0  0  0  0  0  0  0  0  0
   24.4210   29.0050   50.4040 H   0  0  0  0  0  0  0  0  0  0  0  0
   25.1510   28.1650   48.6260 N   0  0  0  0  0  0  0  0  0  0  0  0
   26.3450   27.8220   48.1280 N   0  0  0  0  0  0  0  0  0  0  0  0
   24.2540   28.0270   48.0710 H   0  0  0  0  0  0  0  0  0  0  0  0
  1  4  1  6  0  0  0
  1  3  1  0  0  0  0
  1  8  1  0  0  0  0
  1  2  1  0  0  0  0
  2  6  1  0  0  0  0
  3  7  1  1  0  0  0
  3  2  1  0  0  0  0
  5  2  1  0  0  0  0
  8  9  1  0  0  0  0
 10  8  1  0  0  0  0
 11 16  1  0  0  0  0
 11 17  1  0  0  0  0
 12 11  2  0  0  0  0
 13 14  2  0  0  0  0
 13 12  1  0  0  0  0
 14 15  1  0  0  0  0
 15  8  1  0  0  0  0
 15 16  2  0  0  0  0
 18 12  1  0  0  0  0
 19 13  1  0  0  0  0
 20  3  1  0  0  0  0
 21 20  2  0  0  0  0
 22 20  1  0  0  0  0
 22 23  1  0  0  0  0
 23 24  2  0  0  0  0
 24 25  1  0  0  0  0
 24 28  1  0  0  0  0
 25 29  1  0  0  0  0
 26 30  1  0  0  0  0
 26 25  2  0  0  0  0
 27 23  1  0  0  0  0
 27 26  1  0  0  0  0
 30 31  1  0  0  0  0
 32 31  2  0  0  0  0
 32 33  1  0  0  0  0
 34 32  1  0  0  0  0
 35 34  1  0  0  0  0
 35 30  2  0  0  0  0
 36 34  1  0  0  0  0
M  END
>  <minimizedAffinity>
-6.41246939

>  <minimizedRMSD>
1.19285738

$$$$
