
 OpenBabel03252514053D

 36 39  0  0  1  0  0  0  0  0999 V2000
   35.2460   29.2670   48.7190 C   0  0  2  0  0  0  0  0  0  0  0  0
   34.0710   29.1780   49.5810 C   0  0  0  0  0  0  0  0  0  0  0  0
   34.4930   27.9290   49.0190 C   0  0  1  0  0  0  0  0  0  0  0  0
   35.2430   29.5190   47.6580 H   0  0  0  0  0  0  0  0  0  0  0  0
   33.1090   29.6580   49.2350 H   0  0  0  0  0  0  0  0  0  0  0  0
   34.2260   29.4370   50.6680 H   0  0  0  0  0  0  0  0  0  0  0  0
   35.1390   27.1700   49.4620 H   0  0  0  0  0  0  0  0  0  0  0  0
   36.6060   29.2850   49.4390 C   0  0  0  0  0  0  0  0  0  0  0  0
   36.4440   29.2740   50.5320 H   0  0  0  0  0  0  0  0  0  0  0  0
   37.2230   28.4150   49.1450 H   0  0  0  0  0  0  0  0  0  0  0  0
   37.7050   32.7680   49.5440 C   0  0  0  0  0  0  0  0  0  0  0  0
   38.5480   32.8610   48.4180 C   0  0  0  0  0  0  0  0  0  0  0  0
   38.7220   31.6960   47.6340 C   0  0  0  0  0  0  0  0  0  0  0  0
   38.0660   30.5550   48.0120 N   0  0  0  0  0  0  0  0  0  0  0  0
   37.2790   30.5250   49.0880 C   0  0  0  0  0  0  0  0  0  0  0  0
   37.1040   31.6410   49.8500 N   0  0  0  0  0  0  0  0  0  0  0  0
   37.5270   33.6140   50.1860 H   0  0  0  0  0  0  0  0  0  0  0  0
   39.0120   33.8090   48.2190 H   0  0  0  0  0  0  0  0  0  0  0  0
   39.3600   31.7770   46.7890 H   0  0  0  0  0  0  0  0  0  0  0  0
   33.6270   27.3970   47.8920 C   0  0  0  0  0  0  0  0  0  0  0  0
   34.0330   26.2530   47.4420 O   0  0  0  0  0  0  0  0  0  0  0  0
   32.4990   28.0110   47.3510 O   0  0  0  0  0  0  0  0  0  0  0  0
   31.2530   27.9210   47.9110 C   0  0  0  0  0  0  0  0  0  0  0  0
   30.9230   27.1590   49.1420 C   0  0  0  0  0  0  0  0  0  0  0  0
   29.6390   27.1760   49.5600 C   0  0  0  0  0  0  0  0  0  0  0  0
   28.6380   27.8860   48.8670 C   0  0  0  0  0  0  0  0  0  0  0  0
   29.5610   28.6380   47.4460 S   0  0  0  0  0  0  0  0  0  0  0  0
   31.7280   26.6390   49.6250 H   0  0  0  0  0  0  0  0  0  0  0  0
   29.3030   26.6550   50.4390 H   0  0  0  0  0  0  0  0  0  0  0  0
   27.3140   28.0950   49.0200 C   0  0  0  0  0  0  0  0  0  0  0  0
   26.6820   28.6430   50.1170 C   0  0  0  0  0  3  0  0  0  0  0  0
   25.3040   28.6890   49.8790 C   0  0  0  0  0  0  0  0  0  0  0  0
   24.4200   29.0140   50.4020 H   0  0  0  0  0  0  0  0  0  0  0  0
   25.1500   28.1600   48.6300 N   0  0  0  0  0  0  0  0  0  0  0  0
   26.3420   27.8150   48.1340 N   0  0  0  0  0  0  0  0  0  0  0  0
   24.2520   28.0170   48.0770 H   0  0  0  0  0  0  0  0  0  0  0  0
  1  4  1  6  0  0  0
  1  3  1  0  0  0  0
  1  8  1  0  0  0  0
  1  2  1  0  0  0  0
  2  6  1  0  0  0  0
  3  7  1  1  0  0  0
  3  2  1  0  0  0  0
  5  2  1  0  0  0  0
  8  9  1  0  0  0  0
 10  8  1  0  0  0  0
 11 16  1  0  0  0  0
 11 17  1  0  0  0  0
 12 11  2  0  0  0  0
 13 14  2  0  0  0  0
 13 12  1  0  0  0  0
 14 15  1  0  0  0  0
 15  8  1  0  0  0  0
 15 16  2  0  0  0  0
 18 12  1  0  0  0  0
 19 13  1  0  0  0  0
 20  3  1  0  0  0  0
 21 20  2  0  0  0  0
 22 20  1  0  0  0  0
 22 23  1  0  0  0  0
 23 24  2  0  0  0  0
 24 25  1  0  0  0  0
 24 28  1  0  0  0  0
 25 29  1  0  0  0  0
 26 30  1  0  0  0  0
 26 25  2  0  0  0  0
 27 23  1  0  0  0  0
 27 26  1  0  0  0  0
 30 31  1  0  0  0  0
 32 31  2  0  0  0  0
 32 33  1  0  0  0  0
 34 32  1  0  0  0  0
 35 34  1  0  0  0  0
 35 30  2  0  0  0  0
 36 34  1  0  0  0  0
M  END
>  <minimizedAffinity>
-6.41551352

>  <minimizedRMSD>
1.21064317

$$$$
