REMARK  Name = 
REMARK  6 active torsions:
REMARK  status: ('A' for Active; 'I' for Inactive)
REMARK    1  A    between atoms: C_1  and  C_4
REMARK    2  A    between atoms: C_3  and  C_11
REMARK    3  A    between atoms: C_4  and  C_9
REMARK    4  A    between atoms: C_11  and  O_13
REMARK    5  A    between atoms: O_13  and  C_14
REMARK    6  A    between atoms: C_17  and  C_30
REMARK                            x       y       z     vdW  Elec       q    Type
REMARK                         _______ _______ _______ _____ _____    ______ ____
ROOT
ATOM      1  C   UNL     1      35.295  29.411  48.985  0.00  0.00    +0.000 C 
ATOM      2  C   UNL     1      34.190  29.357  49.937  0.00  0.00    +0.000 C 
ATOM      3  C   UNL     1      34.530  28.095  49.348  0.00  0.00    +0.000 C 
ATOM      4  H   UNL     1      35.215  29.661  47.926  0.00  0.00    +0.000 HD
ATOM      5  H   UNL     1      33.218  29.864  49.667  0.00  0.00    +0.000 HD
ATOM      6  H   UNL     1      34.438  29.613  51.008  0.00  0.00    +0.000 HD
ATOM      7  H   UNL     1      35.186  27.319  49.742  0.00  0.00    +0.000 HD
ENDROOT
BRANCH   1   8
ATOM      8  C   UNL     1      36.708  29.390  49.595  0.00  0.00    +0.000 C 
ATOM      9  H   UNL     1      36.634  29.454  50.696  0.00  0.00    +0.000 HD
ATOM     10  H   UNL     1      37.250  28.469  49.311  0.00  0.00    +0.000 HD
BRANCH   8  15
ATOM     11  C   UNL     1      38.072  32.776  49.433  0.00  0.00    +0.000 A 
ATOM     12  C   UNL     1      38.754  32.776  48.199  0.00  0.00    +0.000 A 
ATOM     13  C   UNL     1      38.727  31.584  47.438  0.00  0.00    +0.000 A 
ATOM     14  N   UNL     1      38.046  30.508  47.939  0.00  0.00    +0.000 NA
ATOM     15  C   UNL     1      37.417  30.564  49.114  0.00  0.00    +0.000 A 
ATOM     16  N   UNL     1      37.436  31.707  49.856  0.00  0.00    +0.000 NA
ATOM     17  H   UNL     1      38.050  33.647  50.065  0.00  0.00    +0.000 HD
ATOM     18  H   UNL     1      39.256  33.680  47.907  0.00  0.00    +0.000 HD
ATOM     19  H   UNL     1      39.245  31.596  46.510  0.00  0.00    +0.000 HD
ENDBRANCH   8  15
ENDBRANCH   1   8
BRANCH   3  20
ATOM     20  C   UNL     1      33.562  27.587  48.295  0.00  0.00    +0.000 C 
ATOM     21  O   UNL     1      33.909  26.441  47.804  0.00  0.00    +0.000 OA
BRANCH  20  22
ATOM     22  O   UNL     1      32.402  28.224  47.857  0.00  0.00    +0.000 OA
BRANCH  22  23
ATOM     23  C   UNL     1      31.144  27.831  48.226  0.00  0.00    +0.000 A 
ATOM     24  C   UNL     1      30.632  27.803  49.620  0.00  0.00    +0.000 A 
ATOM     25  C   UNL     1      29.361  27.388  49.809  0.00  0.00    +0.000 A 
ATOM     26  C   UNL     1      28.538  26.993  48.736  0.00  0.00    +0.000 A 
ATOM     27  S   UNL     1      29.636  27.212  47.258  0.00  0.00    +0.000 S 
ATOM     28  H   UNL     1      31.306  28.116  50.394  0.00  0.00    +0.000 HD
ATOM     29  H   UNL     1      28.902  27.333  50.780  0.00  0.00    +0.000 HD
BRANCH  26  30
ATOM     30  C   UNL     1      27.273  26.546  48.596  0.00  0.00    +0.000 A 
ATOM     31  C   UNL     1      26.116  27.204  48.960  0.00  0.00    +0.000 A 
ATOM     32  C   UNL     1      25.012  26.402  48.647  0.00  0.00    +0.000 A 
ATOM     33  H   UNL     1      23.940  26.462  48.730  0.00  0.00    +0.000 HD
ATOM     34  N   UNL     1      25.549  25.273  48.097  0.00  0.00    +0.000 N 
ATOM     35  N   UNL     1      26.882  25.371  48.073  0.00  0.00    +0.000 NA
ATOM     36  H   UNL     1      25.045  24.413  47.726  0.00  0.00    +0.000 HD
ENDBRANCH  26  30
ENDBRANCH  22  23
ENDBRANCH  20  22
ENDBRANCH   3  20
TORSDOF 6
