
 OpenBabel03252512473D

 34 37  0  0  1  0  0  0  0  0999 V2000
   39.3380   30.3240   44.3700 C   0  0  2  0  0  0  0  0  0  0  0  0
   39.5740   29.2590   44.5190 H   0  0  0  0  0  0  0  0  0  0  0  0
   38.3620   31.0780   47.8260 C   0  0  0  0  0  0  0  0  0  0  0  0
   38.8760   32.3910   47.8940 C   0  0  0  0  0  0  0  0  0  0  0  0
   39.6140   32.6510   46.2220 S   0  0  0  0  0  0  0  0  0  0  0  0
   39.0740   30.8800   45.7320 C   0  0  0  0  0  0  0  0  0  0  0  0
   38.5820   30.5340   46.6600 N   0  0  0  0  0  0  0  0  0  0  0  0
   38.8450   33.0990   48.7390 H   0  0  0  0  0  0  0  0  0  0  0  0
   38.1260   30.8590   50.2790 C   0  0  0  0  0  0  0  0  0  0  0  0
   37.6710   30.4970   48.9890 C   0  0  0  0  0  0  0  0  0  0  0  0
   36.5980   29.6300   48.9010 C   0  0  0  0  0  0  0  0  0  0  0  0
   36.0430   29.1750   50.0460 N   0  0  0  0  0  0  0  0  0  0  0  0
   36.4920   29.5310   51.2590 C   0  0  0  0  0  0  0  0  0  0  0  0
   37.5290   30.3690   51.3740 N   0  0  0  0  0  0  0  0  0  0  0  0
   38.9580   31.5300   50.4280 H   0  0  0  0  0  0  0  0  0  0  0  0
   36.2580   29.3590   47.9170 H   0  0  0  0  0  0  0  0  0  0  0  0
   36.0560   29.1730   52.1890 H   0  0  0  0  0  0  0  0  0  0  0  0
   40.5280   31.0180   43.7910 C   0  0  0  0  0  0  0  0  0  0  0  0
   40.3520   32.1030   43.6080 H   0  0  0  0  0  0  0  0  0  0  0  0
   40.8200   30.5090   42.8390 H   0  0  0  0  0  0  0  0  0  0  0  0
   41.4100   30.8710   44.4620 H   0  0  0  0  0  0  0  0  0  0  0  0
   38.1170   30.5260   43.5090 C   0  0  0  0  0  0  0  0  0  0  0  0
   37.4830   31.2450   44.1100 H   0  0  0  0  0  0  0  0  0  0  0  0
   38.3760   31.1040   42.5960 H   0  0  0  0  0  0  0  0  0  0  0  0
   37.3180   29.3450   43.2330 C   0  0  0  0  0  0  0  0  0  0  0  0
   37.6600   28.3480   42.3800 C   0  0  0  0  0  0  0  0  0  0  0  0
   36.8980   27.2110   42.1150 C   0  0  0  0  0  0  0  0  0  0  0  0
   35.6870   27.0730   42.7680 C   0  0  0  0  0  0  0  0  0  0  0  0
   35.3050   28.0690   43.6430 C   0  0  0  0  0  0  0  0  0  0  0  0
   34.0780   27.8380   44.2340 C   0  0  0  0  0  0  0  0  0  0  0  0
   33.6030   28.7980   45.1290 C   0  0  0  0  0  0  0  0  0  0  0  0
   34.3550   29.9420   45.4050 C   0  0  0  0  0  0  0  0  0  0  0  0
   35.5810   30.1250   44.7840 C   0  0  0  0  0  0  0  0  0  0  0  0
   36.0900   29.1850   43.8820 C   0  0  0  0  0  0  0  0  0  0  0  0
  1  2  1  1  0  0  0
  1  6  1  0  0  0  0
  3  4  2  0  0  0  0
  3 10  1  0  0  0  0
  4  8  1  0  0  0  0
  5  4  1  0  0  0  0
  6  5  1  0  0  0  0
  6  7  2  0  0  0  0
  7  3  1  0  0  0  0
  9 15  1  0  0  0  0
  9 14  1  0  0  0  0
 10  9  2  0  0  0  0
 11 10  1  0  0  0  0
 11 12  2  0  0  0  0
 12 13  1  0  0  0  0
 13 14  2  0  0  0  0
 13 17  1  0  0  0  0
 16 11  1  0  0  0  0
 18  1  1  0  0  0  0
 18 21  1  0  0  0  0
 19 18  1  0  0  0  0
 20 18  1  0  0  0  0
 22 23  1  0  0  0  0
 22  1  1  0  0  0  0
 24 22  1  0  0  0  0
 25 22  1  0  0  0  0
 25 34  1  0  0  0  0
 26 25  2  0  0  0  0
 27 26  1  0  0  0  0
 27 28  2  0  0  0  0
 28 29  1  0  0  0  0
 29 34  2  0  0  0  0
 29 30  1  0  0  0  0
 30 31  2  0  0  0  0
 31 32  1  0  0  0  0
 33 32  2  0  0  0  0
 34 33  1  0  0  0  0
M  END
>  <minimizedAffinity>
-5.5878768

>  <minimizedRMSD>
1.47659826

$$$$
