
     RDKit          3D

 51 55  0  0  0  0  0  0  0  0999 V2000
   36.4066   30.9712   48.7586 N   0  0  0  0  0  0  0  0  0  0  0  0
   36.3889   31.7336   49.8671 C   0  0  0  0  0  0  0  0  0  0  0  0
   37.3718   32.6576   49.7733 N   0  0  0  0  0  0  0  0  0  0  0  0
   37.9846   32.4555   48.6093 C   0  0  0  0  0  0  0  0  0  0  0  0
   39.0454   33.0764   47.9733 C   0  0  0  0  0  0  0  0  0  0  0  0
   39.4764   32.6649   46.7718 N   0  0  0  0  0  0  0  0  0  0  0  0
   38.8924   31.6204   46.1233 C   0  0  0  0  0  0  0  0  0  0  0  0
   37.8662   31.0235   46.7441 N   0  0  0  0  0  0  0  0  0  0  0  0
   37.3990   31.3999   47.9477 C   0  0  0  0  0  0  0  0  0  0  0  0
   39.6963   34.1627   48.5857 N   0  0  0  0  0  0  0  0  0  0  0  0
   34.6454   30.0020   47.4074 C   0  0  0  0  0  0  0  0  0  0  0  0
   35.5157   29.8940   48.5029 C   0  0  0  0  0  0  0  0  0  0  0  0
   35.4391   28.7230   49.2660 C   0  0  0  0  0  0  0  0  0  0  0  0
   34.5490   27.7680   48.9209 N   0  0  0  0  0  0  0  0  0  0  0  0
   33.7206   27.8942   47.8608 C   0  0  0  0  0  0  0  0  0  0  0  0
   33.7768   29.0069   47.1169 N   0  0  0  0  0  0  0  0  0  0  0  0
   32.7501   26.8390   47.4847 C   0  0  0  0  0  0  0  0  0  0  0  0
   31.5566   26.8972   48.4330 C   0  0  0  0  0  0  0  0  0  0  0  0
   32.1856   27.1103   46.0924 C   0  0  0  0  0  0  0  0  0  0  0  0
   33.2944   25.4796   47.4907 C   0  0  0  0  0  0  0  0  0  0  0  0
   35.6870   31.6111   50.6976 H   0  0  0  0  0  0  0  0  0  0  0  0
   39.2414   31.2834   45.1448 H   0  0  0  0  0  0  0  0  0  0  0  0
   39.4452   35.1552   48.3995 H   0  0  0  0  0  0  0  0  0  0  0  0
   40.4792   33.9386   49.2681 H   0  0  0  0  0  0  0  0  0  0  0  0
   34.6528   30.8687   46.7852 H   0  0  0  0  0  0  0  0  0  0  0  0
   36.1054   28.6412   50.1043 H   0  0  0  0  0  0  0  0  0  0  0  0
   31.8455   26.9957   49.4858 H   0  0  0  0  0  0  0  0  0  0  0  0
   30.8784   27.7127   48.1103 H   0  0  0  0  0  0  0  0  0  0  0  0
   30.9645   25.9568   48.2677 H   0  0  0  0  0  0  0  0  0  0  0  0
   32.3626   26.2578   45.3958 H   0  0  0  0  0  0  0  0  0  0  0  0
   32.6045   28.0696   45.6770 H   0  0  0  0  0  0  0  0  0  0  0  0
   31.0874   27.2649   46.0907 H   0  0  0  0  0  0  0  0  0  0  0  0
   33.5810   25.2334   48.5557 H   0  0  0  0  0  0  0  0  0  0  0  0
   32.4458   24.7755   47.2891 H   0  0  0  0  0  0  0  0  0  0  0  0
   34.3926   25.1122   46.6479 C   0  0  0  0  0  0  0  0  0  0  0  0
   35.6498   25.6279   46.5860 C   0  0  0  0  0  0  0  0  0  0  0  0
   36.6603   25.2191   45.7409 C   0  0  0  0  0  0  0  0  0  0  0  0
   36.3642   24.1801   44.8688 C   0  0  0  0  0  0  0  0  0  0  0  0
   35.0903   23.6139   44.8891 C   0  0  0  0  0  0  0  0  0  0  0  0
   34.9049   22.5903   43.9827 C   0  0  0  0  0  0  0  0  0  0  0  0
   33.6763   21.9777   43.9380 C   0  0  0  0  0  0  0  0  0  0  0  0
   32.6711   22.4026   44.7964 C   0  0  0  0  0  0  0  0  0  0  0  0
   32.8971   23.4233   45.6821 C   0  0  0  0  0  0  0  0  0  0  0  0
   34.1182   24.0636   45.7568 C   0  0  0  0  0  0  0  0  0  0  0  0
   35.8713   26.4246   47.2558 H   0  0  0  0  0  0  0  0  0  0  0  0
   37.6257   25.7072   45.7824 H   0  0  0  0  0  0  0  0  0  0  0  0
   37.1617   23.8654   44.2094 H   0  0  0  0  0  0  0  0  0  0  0  0
   35.6862   22.2592   43.3147 H   0  0  0  0  0  0  0  0  0  0  0  0
   33.5510   21.1677   43.2110 H   0  0  0  0  0  0  0  0  0  0  0  0
   31.7180   21.8954   44.7310 H   0  0  0  0  0  0  0  0  0  0  0  0
   32.1069   23.7457   46.3456 H   0  0  0  0  0  0  0  0  0  0  0  0
  1  2  1  0
  3  2  2  0
  4  3  1  0
  5 10  1  0
  5  4  2  0
  6  5  1  0
  7  8  1  0
  7  6  2  0
  8  9  2  0
  9  4  1  0
  9  1  1  0
 11 12  2  0
 12  1  1  0
 12 13  1  0
 14 13  2  0
 15 14  1  0
 16 11  1  0
 16 15  2  0
 17 15  1  0
 17 18  1  0
 19 17  1  0
 20 17  1  0
  2 21  1  0
  7 22  1  0
 10 23  1  0
 10 24  1  0
 11 25  1  0
 13 26  1  0
 18 27  1  0
 18 28  1  0
 18 29  1  0
 19 30  1  0
 19 31  1  0
 19 32  1  0
 20 33  1  0
 20 34  1  0
 35 36  2  0
 36 37  1  0
 37 38  2  0
 38 39  1  0
 39 40  2  0
 40 41  1  0
 41 42  2  0
 42 43  1  0
 43 44  2  0
 44 35  1  0
 44 39  1  0
 36 45  1  0
 37 46  1  0
 38 47  1  0
 40 48  1  0
 41 49  1  0
 42 50  1  0
 43 51  1  0
 20 35  1  0
M  ISO  8  21  14  22  14  25  14  26  14  27   8  28   8  29   8  30   8
M  ISO  4  31   8  32   8  33   8  34   8
M  END
>  <DihAtoms>  (1) 
16,19,34,35

>  <DihDeg>  (1) 
-1.2444631234892323

$$$$
