
 OpenBabel03252511413D

 38 41  0  0  1  0  0  0  0  0999 V2000
   34.2270   29.4500   47.8510 C   0  0  0  0  0  0  0  0  0  0  0  0
   34.1880   30.3870   46.8580 C   0  0  0  0  0  0  0  0  0  0  0  0
   33.0780   30.2770   46.0820 N   0  0  0  0  0  0  0  0  0  0  0  0
   32.3650   29.2430   46.5710 C   0  0  0  0  0  0  0  0  0  0  0  0
   33.0840   28.7680   47.6340 N   0  0  0  0  0  0  0  0  0  0  0  0
   35.0060   31.1210   46.7620 H   0  0  0  0  0  0  0  0  0  0  0  0
   31.4240   28.8850   46.1830 H   0  0  0  0  0  0  0  0  0  0  0  0
   35.0870   29.0710   48.9160 C   0  0  0  0  0  0  0  0  0  0  0  0
   36.0180   28.6310   48.4240 H   0  0  0  0  0  0  0  0  0  0  0  0
   34.7270   28.1700   49.5000 H   0  0  0  0  0  0  0  0  0  0  0  0
   35.5760   30.0710   49.8530 C   0  0  2  0  0  0  0  0  0  0  0  0
   34.8210   30.7670   50.2710 H   0  0  0  0  0  0  0  0  0  0  0  0
   36.7370   30.8710   49.3010 C   0  0  0  0  0  0  0  0  0  0  0  0
   36.9590   32.1290   49.8520 C   0  0  0  0  0  0  0  0  0  0  0  0
   38.0410   32.8400   49.2770 C   0  0  0  0  0  0  0  0  0  0  0  0
   38.7650   32.2970   48.2830 N   0  0  0  0  0  0  0  0  0  0  0  0
   38.5040   31.0450   47.7730 C   0  0  0  0  0  0  0  0  0  0  0  0
   37.4730   30.3300   48.2960 N   0  0  0  0  0  0  0  0  0  0  0  0
   36.3400   32.4920   50.6420 H   0  0  0  0  0  0  0  0  0  0  0  0
   38.2510   33.8200   49.6710 H   0  0  0  0  0  0  0  0  0  0  0  0
   39.0830   30.6230   46.9840 H   0  0  0  0  0  0  0  0  0  0  0  0
   36.1140   29.3030   51.1230 C   0  0  0  0  0  0  0  0  0  0  0  0
   37.0100   28.7320   50.8520 H   0  0  0  0  0  0  0  0  0  0  0  0
   35.2670   28.6770   51.4590 H   0  0  0  0  0  0  0  0  0  0  0  0
   36.3260   30.1000   51.8660 H   0  0  0  0  0  0  0  0  0  0  0  0
   32.5510   27.6030   48.3800 C   0  0  0  0  0  0  0  0  0  0  0  0
   31.6310   27.8820   48.9180 H   0  0  0  0  0  0  0  0  0  0  0  0
   33.2920   27.4320   49.1910 H   0  0  0  0  0  0  0  0  0  0  0  0
   32.4870   26.4000   47.5790 C   0  0  0  0  0  0  0  0  0  0  0  0
   33.6470   25.6740   47.3060 C   0  0  0  0  0  0  0  0  0  0  0  0
   33.5840   24.5260   46.5410 C   0  0  0  0  0  0  0  0  0  0  0  0
   32.3860   24.0690   46.0320 C   0  0  0  0  0  0  0  0  0  0  0  0
   31.2250   24.7780   46.2950 C   0  0  0  0  0  0  0  0  0  0  0  0
   29.9850   24.3870   45.8220 C   0  0  0  0  0  0  0  0  0  0  0  0
   28.8250   25.0990   46.0870 C   0  0  0  0  0  0  0  0  0  0  0  0
   28.8920   26.2600   46.8600 C   0  0  0  0  0  0  0  0  0  0  0  0
   30.1320   26.6100   47.3070 C   0  0  0  0  0  0  0  0  0  0  0  0
   31.2910   25.9390   47.0680 C   0  0  0  0  0  0  0  0  0  0  0  0
  1  8  1  0  0  0  0
  2  1  2  0  0  0  0
  3  4  2  0  0  0  0
  3  2  1  0  0  0  0
  4  5  1  0  0  0  0
  5  1  1  0  0  0  0
  5 26  1  0  0  0  0
  6  2  1  0  0  0  0
  7  4  1  0  0  0  0
  8 10  1  0  0  0  0
  8 11  1  0  0  0  0
  9  8  1  0  0  0  0
 11 12  1  1  0  0  0
 11 22  1  0  0  0  0
 13 14  1  0  0  0  0
 13 11  1  0  0  0  0
 14 19  1  0  0  0  0
 15 20  1  0  0  0  0
 15 14  2  0  0  0  0
 16 15  1  0  0  0  0
 17 16  2  0  0  0  0
 17 18  1  0  0  0  0
 18 13  2  0  0  0  0
 21 17  1  0  0  0  0
 22 24  1  0  0  0  0
 22 25  1  0  0  0  0
 23 22  1  0  0  0  0
 26 27  1  0  0  0  0
 26 28  1  0  0  0  0
 29 26  1  0  0  0  0
 30 29  1  0  0  0  0
 31 30  2  0  0  0  0
 32 33  2  0  0  0  0
 32 31  1  0  0  0  0
 33 38  1  0  0  0  0
 34 35  2  0  0  0  0
 34 33  1  0  0  0  0
 35 36  1  0  0  0  0
 36 37  2  0  0  0  0
 38 37  1  0  0  0  0
 38 29  2  0  0  0  0
M  END
>  <minimizedAffinity>
-5.56999779

>  <minimizedRMSD>
1.39785588

$$$$
