
 OpenBabel03252514053D

 36 39  0  0  1  0  0  0  0  0999 V2000
   35.2520   29.1820   48.5910 C   0  0  2  0  0  0  0  0  0  0  0  0
   34.0310   29.3330   49.3760 C   0  0  0  0  0  0  0  0  0  0  0  0
   34.3760   27.9760   49.0690 C   0  0  1  0  0  0  0  0  0  0  0  0
   35.3240   29.2390   47.5040 H   0  0  0  0  0  0  0  0  0  0  0  0
   33.1310   29.8110   48.8900 H   0  0  0  0  0  0  0  0  0  0  0  0
   34.1500   29.7700   50.4100 H   0  0  0  0  0  0  0  0  0  0  0  0
   34.9320   27.2640   49.6790 H   0  0  0  0  0  0  0  0  0  0  0  0
   36.5700   29.2290   49.3850 C   0  0  0  0  0  0  0  0  0  0  0  0
   36.3470   29.2170   50.4670 H   0  0  0  0  0  0  0  0  0  0  0  0
   37.2190   28.3720   49.1280 H   0  0  0  0  0  0  0  0  0  0  0  0
   37.6210   32.7240   49.5640 C   0  0  0  0  0  0  0  0  0  0  0  0
   38.4900   32.8420   48.4600 C   0  0  0  0  0  0  0  0  0  0  0  0
   38.6970   31.6910   47.6650 C   0  0  0  0  0  0  0  0  0  0  0  0
   38.0470   30.5370   48.0100 N   0  0  0  0  0  0  0  0  0  0  0  0
   37.2350   30.4820   49.0670 C   0  0  0  0  0  0  0  0  0  0  0  0
   37.0280   31.5850   49.8400 N   0  0  0  0  0  0  0  0  0  0  0  0
   37.4170   33.5580   50.2130 H   0  0  0  0  0  0  0  0  0  0  0  0
   38.9460   33.7990   48.2850 H   0  0  0  0  0  0  0  0  0  0  0  0
   39.3540   31.7920   46.8360 H   0  0  0  0  0  0  0  0  0  0  0  0
   33.5280   27.3150   47.9970 C   0  0  0  0  0  0  0  0  0  0  0  0
   33.8840   26.0950   47.7560 O   0  0  0  0  0  0  0  0  0  0  0  0
   32.4620   27.8920   47.3090 O   0  0  0  0  0  0  0  0  0  0  0  0
   31.2190   28.0610   47.8540 C   0  0  0  0  0  0  0  0  0  0  0  0
   30.8020   27.5800   49.1960 C   0  0  0  0  0  0  0  0  0  0  0  0
   29.5330   27.8320   49.5820 C   0  0  0  0  0  0  0  0  0  0  0  0
   28.6250   28.5250   48.7560 C   0  0  0  0  0  0  0  0  0  0  0  0
   29.6270   28.8870   47.2390 S   0  0  0  0  0  0  0  0  0  0  0  0
   31.5380   27.0600   49.7790 H   0  0  0  0  0  0  0  0  0  0  0  0
   29.1390   27.5240   50.5340 H   0  0  0  0  0  0  0  0  0  0  0  0
   27.3390   28.9220   48.8460 C   0  0  0  0  0  0  0  0  0  0  0  0
   26.2240   28.1120   48.9070 C   0  0  0  0  0  3  0  0  0  0  0  0
   25.0780   28.9130   48.9920 C   0  0  0  0  0  0  0  0  0  0  0  0
   24.0140   28.7670   49.0590 H   0  0  0  0  0  0  0  0  0  0  0  0
   25.5480   30.1950   48.9780 N   0  0  0  0  0  0  0  0  0  0  0  0
   26.8830   30.1860   48.8930 N   0  0  0  0  0  0  0  0  0  0  0  0
   24.9980   31.1030   49.0270 H   0  0  0  0  0  0  0  0  0  0  0  0
  1  4  1  6  0  0  0
  1  3  1  0  0  0  0
  1  2  1  0  0  0  0
  1  8  1  0  0  0  0
  2  6  1  0  0  0  0
  3  2  1  0  0  0  0
  3  7  1  1  0  0  0
  5  2  1  0  0  0  0
  8  9  1  0  0  0  0
 10  8  1  0  0  0  0
 11 16  1  0  0  0  0
 11 17  1  0  0  0  0
 12 11  2  0  0  0  0
 13 14  2  0  0  0  0
 13 12  1  0  0  0  0
 14 15  1  0  0  0  0
 15  8  1  0  0  0  0
 15 16  2  0  0  0  0
 18 12  1  0  0  0  0
 19 13  1  0  0  0  0
 20  3  1  0  0  0  0
 21 20  2  0  0  0  0
 22 23  1  0  0  0  0
 22 20  1  0  0  0  0
 23 24  2  0  0  0  0
 24 25  1  0  0  0  0
 24 28  1  0  0  0  0
 25 29  1  0  0  0  0
 26 30  1  0  0  0  0
 26 25  2  0  0  0  0
 27 23  1  0  0  0  0
 27 26  1  0  0  0  0
 30 35  2  0  0  0  0
 30 31  1  0  0  0  0
 31 32  2  0  0  0  0
 32 33  1  0  0  0  0
 34 32  1  0  0  0  0
 34 36  1  0  0  0  0
 35 34  1  0  0  0  0
M  END
>  <minimizedAffinity>
-6.22632694

>  <minimizedRMSD>
1.61811566

$$$$
