
 OpenBabel03252512533D

 17 19  0  0  0  0  0  0  0  0999 V2000
   36.9840   29.7280   51.6510 C   0  0  0  0  0  0  0  0  0  0  0  0
   37.8260   30.5180   50.8530 C   0  0  0  0  0  0  0  0  0  0  0  0
   37.2970   30.8970   49.6090 C   0  0  0  0  0  0  0  0  0  0  0  0
   36.0350   30.5060   49.2240 N   0  0  0  0  0  0  0  0  0  0  0  0
   35.2850   29.7330   50.0700 C   0  0  0  0  0  0  0  0  0  0  0  0
   35.7530   29.3500   51.2670 N   0  0  0  0  0  0  0  0  0  0  0  0
   37.3500   29.4110   52.6190 H   0  0  0  0  0  0  0  0  0  0  0  0
   38.8060   30.8320   51.1310 H   0  0  0  0  0  0  0  0  0  0  0  0
   34.3270   29.4940   49.6630 H   0  0  0  0  0  0  0  0  0  0  0  0
   38.0550   31.7230   48.6630 C   0  0  0  0  0  0  0  0  0  0  0  0
   38.7670   32.8570   48.8290 N   0  0  0  0  0  0  0  0  0  0  0  0
   39.2730   33.2400   47.6990 O   0  0  0  0  0  0  0  0  0  0  0  0
   38.9060   32.3730   46.7840 C   0  0  0  0  0  0  0  0  0  0  0  0
   38.1480   31.4180   47.3520 N   0  0  0  0  0  0  0  0  0  0  0  0
   39.3090   32.5000   45.3620 C   0  0  0  0  0  0  0  0  0  0  0  0
   40.1730   33.6200   44.9350 C   0  0  0  0  0  0  0  0  0  0  0  0
   40.7820   32.2340   45.0350 C   0  0  0  0  0  0  0  0  0  0  0  0
  1  7  1  0  0  0  0
  2  8  1  0  0  0  0
  2  1  2  0  0  0  0
  3  2  1  0  0  0  0
  4  3  2  0  0  0  0
  4  5  1  0  0  0  0
  5  6  2  0  0  0  0
  6  1  1  0  0  0  0
  9  5  1  0  0  0  0
 10 11  2  0  0  0  0
 10  3  1  0  0  0  0
 12 11  1  0  0  0  0
 13 14  2  0  0  0  0
 13 12  1  0  0  0  0
 14 10  1  0  0  0  0
 15 13  1  0  0  0  0
 16 17  1  0  0  0  0
 16 15  1  0  0  0  0
 17 15  1  0  0  0  0
M  END
>  <minimizedAffinity>
-5.1330533

>  <minimizedRMSD>
0.958656609

$$$$
