
 OpenBabel03252513513D

 34 36  0  0  1  0  0  0  0  0999 V2000
   37.7870   30.7950   46.4990 C   0  0  0  0  0  0  0  0  0  0  0  0
   38.6650   30.1390   47.0610 O   0  0  0  0  0  0  0  0  0  0  0  0
   38.3140   31.9470   45.8430 N   0  0  0  0  0  0  0  0  0  0  0  0
   37.8740   32.0290   44.4470 C   0  0  0  0  0  0  0  0  0  0  0  0
   38.7290   32.9950   43.6390 C   0  0  0  0  0  0  0  0  0  0  0  0
   40.0340   32.7760   44.0750 O   0  0  0  0  0  0  0  0  0  0  0  0
   40.1650   33.4300   45.2910 C   0  0  0  0  0  0  0  0  0  0  0  0
   39.1390   32.9850   46.3150 C   0  0  2  0  0  0  0  0  0  0  0  0
   38.0640   31.0000   44.0170 H   0  0  0  0  0  0  0  0  0  0  0  0
   36.8310   32.3300   44.3520 H   0  0  0  0  0  0  0  0  0  0  0  0
   38.5870   32.7990   42.5780 H   0  0  0  0  0  0  0  0  0  0  0  0
   38.4710   34.0330   43.9460 H   0  0  0  0  0  0  0  0  0  0  0  0
   41.1490   33.0590   45.7070 H   0  0  0  0  0  0  0  0  0  0  0  0
   40.2890   34.5070   45.1960 H   0  0  0  0  0  0  0  0  0  0  0  0
   38.3730   33.8310   46.1630 H   0  0  0  0  0  0  0  0  0  0  0  0
   34.4500   29.6030   47.7570 C   0  0  0  0  0  0  0  0  0  0  0  0
   35.8340   30.0120   47.7510 C   0  0  0  0  0  0  0  0  0  0  0  0
   36.4040   30.3900   46.5390 C   0  0  0  0  0  0  0  0  0  0  0  0
   35.6150   30.3500   45.4370 N   0  0  0  0  0  0  0  0  0  0  0  0
   34.3360   29.9670   45.4810 C   0  0  0  0  0  0  0  0  0  0  0  0
   33.7700   29.6030   46.6140 N   0  0  0  0  0  0  0  0  0  0  0  0
   36.4360   30.0310   48.6500 H   0  0  0  0  0  0  0  0  0  0  0  0
   33.6350   29.9890   44.1620 C   0  0  0  0  0  0  0  0  0  0  0  0
   33.5060   31.2980   43.7170 F   0  0  0  0  0  0  0  0  0  0  0  0
   34.4100   29.3290   43.2200 F   0  0  0  0  0  0  0  0  0  0  0  0
   32.4080   29.3500   44.2030 F   0  0  0  0  0  0  0  0  0  0  0  0
   33.8990   29.2300   48.9680 O   0  0  0  0  0  0  0  0  0  0  0  0
   34.2340   29.7890   50.1880 C   0  0  0  0  0  0  0  0  0  0  0  0
   35.2160   29.0750   50.8660 F   0  0  0  0  0  0  0  0  0  0  0  0
   34.5440   31.1210   50.1440 F   0  0  0  0  0  0  0  0  0  0  0  0
   33.0710   29.6770   50.9660 F   0  0  0  0  0  0  0  0  0  0  0  0
   39.6360   33.2120   47.6410 C   0  0  0  0  0  0  0  0  0  0  0  0
   38.9020   33.4250   48.9000 C   0  0  0  0  0  0  0  0  0  0  0  0
   39.7880   34.4660   48.3960 C   0  0  0  0  0  0  0  0  0  0  0  0
  1 18  1  0  0  0  0
  1  2  2  0  0  0  0
  3  8  1  0  0  0  0
  3  1  1  0  0  0  0
  4  3  1  0  0  0  0
  5 12  1  0  0  0  0
  5  6  1  0  0  0  0
  5  4  1  0  0  0  0
  6  7  1  0  0  0  0
  7 13  1  0  0  0  0
  7  8  1  0  0  0  0
  8 15  1  6  0  0  0
  8 32  1  0  0  0  0
  9  4  1  0  0  0  0
 10  4  1  0  0  0  0
 11  5  1  0  0  0  0
 14  7  1  0  0  0  0
 16 27  1  0  0  0  0
 17 16  1  0  0  0  0
 17 22  1  0  0  0  0
 18 17  2  0  0  0  0
 19 20  2  0  0  0  0
 19 18  1  0  0  0  0
 20 21  1  0  0  0  0
 21 16  2  0  0  0  0
 23 26  1  0  0  0  0
 23 20  1  0  0  0  0
 24 23  1  0  0  0  0
 25 23  1  0  0  0  0
 27 28  1  0  0  0  0
 28 29  1  0  0  0  0
 28 31  1  0  0  0  0
 30 28  1  0  0  0  0
 32 34  1  0  0  0  0
 32 33  1  0  0  0  0
 34 33  1  0  0  0  0
M  END
>  <minimizedAffinity>
-5.14841747

>  <minimizedRMSD>
1.35426521

$$$$
