
 OpenBabel03252513163D

 39 42  0  0  0  0  0  0  0  0999 V2000
   36.9310   30.8160   46.0740 C   0  0  0  0  0  0  0  0  0  0  0  0
   35.9070   30.0430   46.6320 C   0  0  0  0  0  0  0  0  0  0  0  0
   35.5810   29.9950   47.9490 C   0  0  0  0  0  0  0  0  0  0  0  0
   36.2800   30.7490   48.8510 C   0  0  0  0  0  0  0  0  0  0  0  0
   37.2770   31.5160   48.3820 C   0  0  0  0  0  0  0  0  0  0  0  0
   37.9830   32.2760   49.3000 C   0  0  0  0  0  0  0  0  0  0  0  0
   39.0110   33.0830   48.9190 C   0  0  0  0  0  0  0  0  0  0  0  0
   39.3400   33.1280   47.5730 C   0  0  0  0  0  0  0  0  0  0  0  0
   38.6180   32.3600   46.6970 C   0  0  0  0  0  0  0  0  0  0  0  0
   37.5950   31.5510   47.0420 C   0  0  0  0  0  0  0  0  0  0  0  0
   35.3120   29.4160   45.9490 H   0  0  0  0  0  0  0  0  0  0  0  0
   34.7650   29.3610   48.2890 H   0  0  0  0  0  0  0  0  0  0  0  0
   37.7810   32.2920   50.3610 H   0  0  0  0  0  0  0  0  0  0  0  0
   39.6090   33.7040   49.5650 H   0  0  0  0  0  0  0  0  0  0  0  0
   40.1470   33.7510   47.2130 H   0  0  0  0  0  0  0  0  0  0  0  0
   38.9040   32.4200   45.6460 H   0  0  0  0  0  0  0  0  0  0  0  0
   36.2130   31.1750   42.5830 C   0  0  0  0  0  0  0  0  0  0  0  0
   37.4260   30.9540   41.9090 C   0  0  0  0  0  0  0  0  0  0  0  0
   38.5170   30.6800   42.6730 C   0  0  0  0  0  0  0  0  0  0  0  0
   38.3240   30.6460   43.9720 N   0  0  0  0  0  0  0  0  0  0  0  0
   37.2440   30.8370   44.6680 C   0  0  0  0  0  0  0  0  0  0  0  0
   36.1980   31.1020   43.9080 N   0  0  0  0  0  0  0  0  0  0  0  0
   35.3190   31.4000   41.9650 H   0  0  0  0  0  0  0  0  0  0  0  0
   39.8030   30.4630   42.1400 N   0  0  0  0  0  0  0  0  0  0  0  0
   40.8840   29.9650   42.9240 C   0  0  0  0  0  0  0  0  0  0  0  0
   41.0250   30.4870   44.1090 N   0  0  0  0  0  0  0  0  0  0  0  0
   41.7680   28.9560   42.4610 N   0  0  0  0  0  0  0  0  0  0  0  0
   41.7330   30.2700   44.8030 H   0  0  0  0  0  0  0  0  0  0  0  0
   40.0820   30.6530   41.1290 H   0  0  0  0  0  0  0  0  0  0  0  0
   42.5630   29.5590   42.1470 H   0  0  0  0  0  0  0  0  0  0  0  0
   41.7060   27.9040   42.4150 H   0  0  0  0  0  0  0  0  0  0  0  0
   37.4600   30.9870   40.4250 C   0  0  0  0  0  0  0  0  0  0  0  0
   38.1640   32.0520   39.6710 C   0  0  0  0  0  0  0  0  0  0  0  0
   36.7250   32.2400   39.8370 C   0  0  0  0  0  0  0  0  0  0  0  0
   35.9200   30.6740   50.1750 O   0  0  0  0  0  0  0  0  0  0  0  0
   36.4360   29.6430   51.0080 C   0  0  0  0  0  0  0  0  0  0  0  0
   37.2440   28.7400   50.3940 F   0  0  0  0  0  0  0  0  0  0  0  0
   37.2160   30.2610   51.9800 F   0  0  0  0  0  0  0  0  0  0  0  0
   35.3340   29.0190   51.5790 F   0  0  0  0  0  0  0  0  0  0  0  0
  1  2  2  0  0  0  0
  1 10  1  0  0  0  0
  2  3  1  0  0  0  0
  3 12  1  0  0  0  0
  3  4  2  0  0  0  0
  4 35  1  0  0  0  0
  5  4  1  0  0  0  0
  5  6  1  0  0  0  0
  6 13  1  0  0  0  0
  7  6  2  0  0  0  0
  7 14  1  0  0  0  0
  8  7  1  0  0  0  0
  9 10  1  0  0  0  0
  9  8  2  0  0  0  0
 10  5  2  0  0  0  0
 11  2  1  0  0  0  0
 15  8  1  0  0  0  0
 16  9  1  0  0  0  0
 17 22  1  0  0  0  0
 18 17  2  0  0  0  0
 18 19  1  0  0  0  0
 19 20  2  0  0  0  0
 20 21  1  0  0  0  0
 21  1  1  0  0  0  0
 22 21  2  0  0  0  0
 23 17  1  0  0  0  0
 24 19  1  0  0  0  0
 24 25  1  0  0  0  0
 25 26  2  0  0  0  0
 26 28  1  0  0  0  0
 27 25  1  0  0  0  0
 29 24  1  0  0  0  0
 30 27  1  0  0  0  0
 31 27  1  0  0  0  0
 32 18  1  0  0  0  0
 33 34  1  0  0  0  0
 33 32  1  0  0  0  0
 34 32  1  0  0  0  0
 35 36  1  0  0  0  0
 36 39  1  0  0  0  0
 36 38  1  0  0  0  0
 37 36  1  0  0  0  0
M  END
>  <minimizedAffinity>
-7.39691877

>  <minimizedRMSD>
0.291975468

$$$$
