
 OpenBabel03252514063D

 25 28  0  0  0  0  0  0  0  0999 V2000
   36.2460   30.7340   48.6850 N   0  0  0  0  0  0  0  0  0  0  0  0
   36.1230   31.4200   49.8480 C   0  0  0  0  0  0  0  0  0  0  0  0
   37.0900   32.3790   49.8670 N   0  0  0  0  0  0  0  0  0  0  0  0
   37.7760   32.2670   48.7360 C   0  0  0  0  0  0  0  0  0  0  0  0
   38.8580   32.9530   48.2030 C   0  0  0  0  0  0  0  0  0  0  0  0
   39.3730   32.6190   46.9920 N   0  0  0  0  0  0  0  0  0  0  0  0
   38.8610   31.6090   46.2590 C   0  0  0  0  0  0  0  0  0  0  0  0
   37.8100   30.9480   46.7880 N   0  0  0  0  0  0  0  0  0  0  0  0
   37.2660   31.2400   47.9770 C   0  0  0  0  0  0  0  0  0  0  0  0
   39.4320   34.0150   48.9230 N   0  0  0  0  0  0  0  0  0  0  0  0
   35.4150   31.2930   50.6640 H   0  0  0  0  0  0  0  0  0  0  0  0
   39.3120   31.3840   45.3010 H   0  0  0  0  0  0  0  0  0  0  0  0
   39.9590   33.7190   49.7730 H   0  0  0  0  0  0  0  0  0  0  0  0
   39.4080   35.0590   48.7300 H   0  0  0  0  0  0  0  0  0  0  0  0
   34.7960   29.6750   47.0310 C   0  0  0  0  0  0  0  0  0  0  0  0
   35.3960   29.6450   48.3150 C   0  0  0  0  0  0  0  0  0  0  0  0
   35.1020   28.5470   49.1120 C   0  0  0  0  0  0  0  0  0  0  0  0
   34.2740   27.5740   48.6430 N   0  0  0  0  0  0  0  0  0  0  0  0
   33.7280   27.6460   47.4160 C   0  0  0  0  0  0  0  0  0  0  0  0
   33.9860   28.6980   46.6040 N   0  0  0  0  0  0  0  0  0  0  0  0
   34.9780   30.5040   46.3460 H   0  0  0  0  0  0  0  0  0  0  0  0
   35.5570   28.5230   50.0890 H   0  0  0  0  0  0  0  0  0  0  0  0
   32.8180   26.5890   46.8840 C   0  0  0  0  0  3  0  0  0  0  0  0
   33.1890   25.1570   47.2170 C   0  0  0  0  0  2  0  0  0  0  0  0
   32.0370   25.8090   47.8900 C   0  0  0  0  0  2  0  0  0  0  0  0
  1  2  1  0  0  0  0
  2  3  2  0  0  0  0
  2 11  1  0  0  0  0
  4  3  1  0  0  0  0
  5  4  1  0  0  0  0
  5 10  1  0  0  0  0
  6  5  2  0  0  0  0
  7  8  2  0  0  0  0
  7  6  1  0  0  0  0
  8  9  1  0  0  0  0
  9  1  1  0  0  0  0
  9  4  2  0  0  0  0
 10 13  1  0  0  0  0
 12  7  1  0  0  0  0
 14 10  1  0  0  0  0
 15 16  1  0  0  0  0
 16  1  1  0  0  0  0
 16 17  2  0  0  0  0
 17 22  1  0  0  0  0
 18 17  1  0  0  0  0
 19 18  2  0  0  0  0
 20 15  2  0  0  0  0
 20 19  1  0  0  0  0
 21 15  1  0  0  0  0
 23 24  1  0  0  0  0
 23 19  1  0  0  0  0
 23 25  1  0  0  0  0
 24 25  1  0  0  0  0
M  END
>  <minimizedAffinity>
-5.23130655

>  <minimizedRMSD>
3.51375604

$$$$
