
 OpenBabel03252512573D

 24 27  0  0  0  0  0  0  0  0999 V2000
   38.2830   31.7030   48.5390 C   0  0  0  0  0  0  0  0  0  0  0  0
   38.9290   32.8970   48.6060 N   0  0  0  0  0  0  0  0  0  0  0  0
   39.4460   33.1740   47.4470 O   0  0  0  0  0  0  0  0  0  0  0  0
   39.1570   32.1960   46.6290 C   0  0  0  0  0  0  0  0  0  0  0  0
   38.4280   31.2510   47.2690 N   0  0  0  0  0  0  0  0  0  0  0  0
   39.5220   32.0700   45.2380 N   0  0  0  0  0  0  0  0  0  0  0  0
   39.0320   32.8810   44.3110 N   0  0  0  0  0  0  0  0  0  0  0  0
   39.5200   32.5630   43.1060 C   0  0  0  0  0  0  0  0  0  0  0  0
   40.3630   31.4800   43.3410 C   0  0  0  0  0  0  0  0  0  0  0  0
   40.3550   31.1750   44.7030 C   0  0  0  0  0  0  0  0  0  0  0  0
   39.2580   33.0910   42.2010 H   0  0  0  0  0  0  0  0  0  0  0  0
   40.9160   30.9860   42.5590 H   0  0  0  0  0  0  0  0  0  0  0  0
   40.9050   30.3900   45.2030 H   0  0  0  0  0  0  0  0  0  0  0  0
   37.2770   29.9360   51.7000 C   0  0  0  0  0  0  0  0  0  0  0  0
   38.0450   30.6870   50.8010 C   0  0  0  0  0  0  0  0  0  0  0  0
   37.5400   30.9280   49.5320 C   0  0  0  0  0  0  0  0  0  0  0  0
   36.3110   30.4290   49.1980 N   0  0  0  0  0  0  0  0  0  0  0  0
   35.6090   29.7120   50.0990 C   0  0  0  0  0  0  0  0  0  0  0  0
   36.0820   29.4620   51.3450 N   0  0  0  0  0  0  0  0  0  0  0  0
   37.7370   29.7890   52.6680 H   0  0  0  0  0  0  0  0  0  0  0  0
   39.0180   31.0870   51.0490 H   0  0  0  0  0  0  0  0  0  0  0  0
   34.2730   29.1550   49.7760 C   0  0  0  0  0  0  0  0  0  0  0  0
   33.8820   29.0290   48.3120 C   0  0  0  0  0  0  0  0  0  0  0  0
   34.3280   27.8190   49.0230 C   0  0  0  0  0  0  0  0  0  0  0  0
  1  2  2  0  0  0  0
  1 16  1  0  0  0  0
  3  2  1  0  0  0  0
  4  5  2  0  0  0  0
  4  3  1  0  0  0  0
  5  1  1  0  0  0  0
  6  4  1  0  0  0  0
  7  6  1  0  0  0  0
  8  9  1  0  0  0  0
  8  7  2  0  0  0  0
  9 10  2  0  0  0  0
 10 13  1  0  0  0  0
 10  6  1  0  0  0  0
 11  8  1  0  0  0  0
 12  9  1  0  0  0  0
 14 20  1  0  0  0  0
 15 21  1  0  0  0  0
 15 14  2  0  0  0  0
 16 15  1  0  0  0  0
 17 16  2  0  0  0  0
 17 18  1  0  0  0  0
 18 19  2  0  0  0  0
 19 14  1  0  0  0  0
 22 18  1  0  0  0  0
 23 24  1  0  0  0  0
 23 22  1  0  0  0  0
 24 22  1  0  0  0  0
M  END
>  <minimizedAffinity>
-6.44483757

>  <minimizedRMSD>
0.985369384

$$$$
