
 OpenBabel03252514063D

 25 28  0  0  0  0  0  0  0  0999 V2000
   36.7370   31.2290   48.7530 N   0  0  0  0  0  0  0  0  0  0  0  0
   36.8420   32.0780   49.8060 C   0  0  0  0  0  0  0  0  0  0  0  0
   37.8430   32.9580   49.5280 N   0  0  0  0  0  0  0  0  0  0  0  0
   38.3250   32.6410   48.3330 C   0  0  0  0  0  0  0  0  0  0  0  0
   39.3350   33.1670   47.5390 C   0  0  0  0  0  0  0  0  0  0  0  0
   39.6240   32.6310   46.3260 N   0  0  0  0  0  0  0  0  0  0  0  0
   38.9500   31.5670   45.8420 C   0  0  0  0  0  0  0  0  0  0  0  0
   37.9720   31.0640   46.6230 N   0  0  0  0  0  0  0  0  0  0  0  0
   37.6480   31.5570   47.8260 C   0  0  0  0  0  0  0  0  0  0  0  0
   40.0710   34.2760   47.9920 N   0  0  0  0  0  0  0  0  0  0  0  0
   36.2750   32.1170   50.7330 H   0  0  0  0  0  0  0  0  0  0  0  0
   39.2230   31.1790   44.8700 H   0  0  0  0  0  0  0  0  0  0  0  0
   40.7160   34.0640   48.7830 H   0  0  0  0  0  0  0  0  0  0  0  0
   40.0650   35.2820   47.6510 H   0  0  0  0  0  0  0  0  0  0  0  0
   34.7520   30.2500   47.7240 C   0  0  0  0  0  0  0  0  0  0  0  0
   35.7860   30.1630   48.6900 C   0  0  0  0  0  0  0  0  0  0  0  0
   35.7850   29.0360   49.5000 C   0  0  0  0  0  0  0  0  0  0  0  0
   34.8210   28.0880   49.3390 N   0  0  0  0  0  0  0  0  0  0  0  0
   33.8590   28.2150   48.4070 C   0  0  0  0  0  0  0  0  0  0  0  0
   33.8200   29.2970   47.5950 N   0  0  0  0  0  0  0  0  0  0  0  0
   34.6850   31.1040   47.0500 H   0  0  0  0  0  0  0  0  0  0  0  0
   36.5710   28.9680   50.2350 H   0  0  0  0  0  0  0  0  0  0  0  0
   32.7930   27.1880   48.2160 C   0  0  0  0  0  3  0  0  0  0  0  0
   31.4280   27.5270   48.7780 C   0  0  0  0  0  2  0  0  0  0  0  0
   31.6620   27.5580   47.3130 C   0  0  0  0  0  2  0  0  0  0  0  0
  1  2  1  0  0  0  0
  2 11  1  0  0  0  0
  3  2  2  0  0  0  0
  4  3  1  0  0  0  0
  5 10  1  0  0  0  0
  5  4  2  0  0  0  0
  6  5  1  0  0  0  0
  7  6  2  0  0  0  0
  7  8  1  0  0  0  0
  8  9  2  0  0  0  0
  9  4  1  0  0  0  0
  9  1  1  0  0  0  0
 10 13  1  0  0  0  0
 12  7  1  0  0  0  0
 14 10  1  0  0  0  0
 15 16  1  0  0  0  0
 16  1  1  0  0  0  0
 16 17  2  0  0  0  0
 17 22  1  0  0  0  0
 18 17  1  0  0  0  0
 19 18  2  0  0  0  0
 20 15  2  0  0  0  0
 20 19  1  0  0  0  0
 21 15  1  0  0  0  0
 23 19  1  0  0  0  0
 23 24  1  0  0  0  0
 25 23  1  0  0  0  0
 25 24  1  0  0  0  0
M  END
>  <minimizedAffinity>
-5.63625097

>  <minimizedRMSD>
2.63890266

$$$$
