
 OpenBabel03252512273D

 33 35  0  0  1  0  0  0  0  0999 V2000
   31.6050   28.1470   46.9970 C   0  0  2  0  0  0  0  0  0  0  0  0
   31.8000   27.2980   46.2950 H   0  0  0  0  0  0  0  0  0  0  0  0
   35.0970   29.5840   48.5590 C   0  0  0  0  0  0  0  0  0  0  0  0
   34.6990   28.3750   49.1430 C   0  0  0  0  0  0  0  0  0  0  0  0
   33.5500   27.8200   48.6890 C   0  0  0  0  0  0  0  0  0  0  0  0
   32.8650   28.4540   47.7110 C   0  0  0  0  0  0  0  0  0  0  0  0
   33.8100   29.9310   47.3430 S   0  0  0  0  0  0  0  0  0  0  0  0
   35.3180   27.9360   49.9280 H   0  0  0  0  0  0  0  0  0  0  0  0
   33.1290   26.8910   49.0520 H   0  0  0  0  0  0  0  0  0  0  0  0
   38.0030   30.8890   50.4350 C   0  0  0  0  0  0  0  0  0  0  0  0
   38.5890   31.7600   49.4930 C   0  0  0  0  0  0  0  0  0  0  0  0
   37.9810   31.8900   48.2360 C   0  0  0  0  0  0  0  0  0  0  0  0
   36.8450   31.1730   47.9670 N   0  0  0  0  0  0  0  0  0  0  0  0
   36.3260   30.3590   48.8960 C   0  0  0  0  0  0  0  0  0  0  0  0
   36.8800   30.2090   50.1080 N   0  0  0  0  0  0  0  0  0  0  0  0
   38.5020   30.8200   51.3840 H   0  0  0  0  0  0  0  0  0  0  0  0
   39.4890   32.3170   49.7280 H   0  0  0  0  0  0  0  0  0  0  0  0
   38.4220   32.5460   47.5240 H   0  0  0  0  0  0  0  0  0  0  0  0
   31.2500   29.3190   46.1240 C   0  0  0  0  0  0  0  0  0  0  0  0
   32.2130   29.6010   45.6120 H   0  0  0  0  0  0  0  0  0  0  0  0
   30.5330   29.1050   45.3270 H   0  0  0  0  0  0  0  0  0  0  0  0
   30.9040   30.1950   46.6740 H   0  0  0  0  0  0  0  0  0  0  0  0
   30.5800   27.7430   47.9950 C   0  0  0  0  0  0  0  0  0  0  0  0
   30.7420   26.6680   48.2140 H   0  0  0  0  0  0  0  0  0  0  0  0
   30.7930   28.2920   48.9490 H   0  0  0  0  0  0  0  0  0  0  0  0
   29.1850   28.0510   47.6270 C   0  0  0  0  0  0  0  0  0  0  0  0
   28.5130   27.2840   46.6760 C   0  0  0  0  0  0  0  0  0  0  0  0
   27.1970   27.6270   46.3720 C   0  0  0  0  0  0  0  0  0  0  0  0
   26.6390   27.0600   45.6410 H   0  0  0  0  0  0  0  0  0  0  0  0
   26.5370   28.6820   46.9690 C   0  0  0  0  0  0  0  0  0  0  0  0
   27.2110   29.4360   47.9100 C   0  0  0  0  0  0  0  0  0  0  0  0
   26.7560   30.2740   48.4150 H   0  0  0  0  0  0  0  0  0  0  0  0
   28.5220   29.1190   48.2330 C   0  0  0  0  0  0  0  0  0  0  0  0
  1  2  1  6  0  0  0
  1  6  1  0  0  0  0
  1 23  1  0  0  0  0
  3 14  1  0  0  0  0
  3  4  2  0  0  0  0
  4  8  1  0  0  0  0
  5  9  1  0  0  0  0
  5  4  1  0  0  0  0
  6  5  2  0  0  0  0
  7  6  1  0  0  0  0
  7  3  1  0  0  0  0
 10 16  1  0  0  0  0
 11 17  1  0  0  0  0
 11 10  2  0  0  0  0
 12 11  1  0  0  0  0
 13 12  2  0  0  0  0
 13 14  1  0  0  0  0
 14 15  2  0  0  0  0
 15 10  1  0  0  0  0
 18 12  1  0  0  0  0
 19 22  1  0  0  0  0
 19  1  1  0  0  0  0
 20 19  1  0  0  0  0
 21 19  1  0  0  0  0
 23 24  1  0  0  0  0
 23 25  1  0  0  0  0
 26 23  1  0  0  0  0
 26 33  1  0  0  0  0
 27 26  2  0  0  0  0
 28 27  1  0  0  0  0
 28 30  2  0  0  0  0
 29 28  1  0  0  0  0
 30 31  1  0  0  0  0
 31 33  2  0  0  0  0
 31 32  1  0  0  0  0
M  END
>  <minimizedAffinity>
-5.20212746

>  <minimizedRMSD>
1.62968361

$$$$
