
 OpenBabel03252513293D

 36 38  0  0  0  0  0  0  0  0999 V2000
   32.7790   27.7740   48.5730 C   0  0  0  0  0  0  0  0  0  0  0  0
   31.6610   28.1990   49.2120 C   0  0  0  0  0  0  0  0  0  0  0  0
   30.4300   27.5760   49.1400 C   0  0  0  0  0  0  0  0  0  0  0  0
   30.3870   26.4440   48.3510 C   0  0  0  0  0  0  0  0  0  0  0  0
   31.4910   25.9660   47.6800 C   0  0  0  0  0  0  0  0  0  0  0  0
   32.6950   26.6310   47.7880 C   0  0  0  0  0  0  0  0  0  0  0  0
   31.7080   29.0950   49.8320 H   0  0  0  0  0  0  0  0  0  0  0  0
   29.5500   27.9250   49.6540 H   0  0  0  0  0  0  0  0  0  0  0  0
   29.4400   25.9210   48.2660 H   0  0  0  0  0  0  0  0  0  0  0  0
   31.4030   25.0680   47.0700 H   0  0  0  0  0  0  0  0  0  0  0  0
   36.0860   28.9080   49.6900 C   0  0  0  0  0  0  0  0  0  0  0  0
   36.4080   29.8900   48.7170 C   0  0  0  0  0  0  0  0  0  0  0  0
   35.4780   30.1240   47.7160 C   0  0  0  0  0  0  0  0  0  0  0  0
   34.3040   29.4050   47.7140 N   0  0  0  0  0  0  0  0  0  0  0  0
   34.0540   28.4710   48.6820 C   0  0  0  0  0  0  0  0  0  0  0  0
   34.9320   28.2410   49.6370 N   0  0  0  0  0  0  0  0  0  0  0  0
   36.8490   28.7710   50.4400 H   0  0  0  0  0  0  0  0  0  0  0  0
   35.6450   30.8490   46.9460 H   0  0  0  0  0  0  0  0  0  0  0  0
   37.6810   30.6510   48.7440 C   0  0  0  0  0  0  0  0  0  0  0  0
   38.4600   30.4560   47.6510 F   0  0  0  0  0  0  0  0  0  0  0  0
   38.4370   30.3430   49.8560 F   0  0  0  0  0  0  0  0  0  0  0  0
   37.4010   32.0250   48.8020 F   0  0  0  0  0  0  0  0  0  0  0  0
   33.9120   26.1780   47.1010 C   0  0  0  0  0  0  0  0  0  0  0  0
   34.1970   26.8680   46.2790 H   0  0  0  0  0  0  0  0  0  0  0  0
   34.7600   26.2190   47.8210 H   0  0  0  0  0  0  0  0  0  0  0  0
   33.8690   24.7740   46.5870 C   0  0  0  0  0  0  0  0  0  0  0  0
   33.7640   24.0500   47.4190 H   0  0  0  0  0  0  0  0  0  0  0  0
   32.9450   24.7210   45.9370 H   0  0  0  0  0  0  0  0  0  0  0  0
   34.9950   24.4200   45.7050 C   0  0  0  0  0  0  0  0  0  0  0  0
   35.2480   24.9840   44.4520 C   0  0  0  0  0  0  0  0  0  0  0  0
   36.3450   24.5580   43.7280 C   0  0  0  0  0  0  0  0  0  0  0  0
   36.5040   25.0240   42.7570 H   0  0  0  0  0  0  0  0  0  0  0  0
   37.1740   23.5810   44.2570 C   0  0  0  0  0  0  0  0  0  0  0  0
   36.9330   23.0220   45.4880 C   0  0  0  0  0  0  0  0  0  0  0  0
   37.5960   22.2480   45.8980 H   0  0  0  0  0  0  0  0  0  0  0  0
   35.8350   23.4540   46.2010 C   0  0  0  0  0  0  0  0  0  0  0  0
  1 15  1  0  0  0  0
  1  2  1  0  0  0  0
  2  7  1  0  0  0  0
  3  2  2  0  0  0  0
  3  8  1  0  0  0  0
  4  3  1  0  0  0  0
  5  6  1  0  0  0  0
  5  4  2  0  0  0  0
  6  1  2  0  0  0  0
  9  4  1  0  0  0  0
 10  5  1  0  0  0  0
 11 17  1  0  0  0  0
 12 19  1  0  0  0  0
 12 11  2  0  0  0  0
 13 12  1  0  0  0  0
 14 13  2  0  0  0  0
 14 15  1  0  0  0  0
 15 16  2  0  0  0  0
 16 11  1  0  0  0  0
 18 13  1  0  0  0  0
 19 22  1  0  0  0  0
 19 21  1  0  0  0  0
 20 19  1  0  0  0  0
 23  6  1  0  0  0  0
 23 25  1  0  0  0  0
 24 23  1  0  0  0  0
 26 23  1  0  0  0  0
 26 27  1  0  0  0  0
 28 26  1  0  0  0  0
 29 36  1  0  0  0  0
 29 26  1  0  0  0  0
 30 29  2  0  0  0  0
 31 33  2  0  0  0  0
 31 30  1  0  0  0  0
 32 31  1  0  0  0  0
 33 34  1  0  0  0  0
 34 35  1  0  0  0  0
 34 36  2  0  0  0  0
M  END
>  <minimizedAffinity>
-5.49848509

>  <minimizedRMSD>
0.330084443

$$$$
