REMARK  Name = 
REMARK  7 active torsions:
REMARK  status: ('A' for Active; 'I' for Inactive)
REMARK    1  A    between atoms: N_1  and  C_12
REMARK    2  A    between atoms: C_5  and  N_10
REMARK    3  A    between atoms: C_15  and  C_17
REMARK    4  A    between atoms: C_17  and  C_18
REMARK    5  A    between atoms: C_17  and  C_19
REMARK    6  A    between atoms: C_17  and  C_20
REMARK    7  A    between atoms: C_20  and  C_35
REMARK                            x       y       z     vdW  Elec       q    Type
REMARK                         _______ _______ _______ _____ _____    ______ ____
ROOT
ATOM      1  C   UNL     1      34.655  29.986  47.409  0.00  0.00    +0.000 A 
ATOM      2  C   UNL     1      35.519  29.892  48.507  0.00  0.00    +0.000 A 
ATOM      3  C   UNL     1      35.421  28.741  49.261  0.00  0.00    +0.000 A 
ATOM      4  N   UNL     1      34.530  27.784  48.924  0.00  0.00    +0.000 NA
ATOM      5  C   UNL     1      33.709  27.896  47.863  0.00  0.00    +0.000 A 
ATOM      6  N   UNL     1      33.786  28.999  47.122  0.00  0.00    +0.000 NA
ATOM      7  H   UNL     1      34.684  30.864  46.779  0.00  0.00    +0.000 HD
ATOM      8  H   UNL     1      36.081  28.653  50.112  0.00  0.00    +0.000 HD
ENDROOT
BRANCH   2   9
ATOM      9  N   UNL     1      36.412  30.970  48.754  0.00  0.00    +0.000 N 
ATOM     10  C   UNL     1      36.388  31.735  49.868  0.00  0.00    +0.000 A 
ATOM     11  N   UNL     1      37.373  32.662  49.771  0.00  0.00    +0.000 NA
ATOM     12  C   UNL     1      37.989  32.459  48.608  0.00  0.00    +0.000 A 
ATOM     13  C   UNL     1      39.050  33.076  47.965  0.00  0.00    +0.000 A 
ATOM     14  N   UNL     1      39.481  32.667  46.775  0.00  0.00    +0.000 NA
ATOM     15  C   UNL     1      38.898  31.615  46.120  0.00  0.00    +0.000 A 
ATOM     16  N   UNL     1      37.868  31.021  46.750  0.00  0.00    +0.000 NA
ATOM     17  C   UNL     1      37.404  31.401  47.949  0.00  0.00    +0.000 A 
ATOM     18  H   UNL     1      35.719  31.669  50.729  0.00  0.00    +0.000 HD
ATOM     19  H   UNL     1      39.238  31.276  45.157  0.00  0.00    +0.000 HD
BRANCH  13  20
ATOM     20  N   UNL     1      39.691  34.166  48.591  0.00  0.00    +0.000 N 
ATOM     21  H   UNL     1      39.701  35.123  48.153  0.00  0.00    +0.000 HD
ATOM     22  H   UNL     1      40.153  33.975  49.511  0.00  0.00    +0.000 HD
ENDBRANCH  13  20
ENDBRANCH   2   9
BRANCH   5  23
ATOM     23  C   UNL     1      32.735  26.846  47.499  0.00  0.00    +0.000 C 
BRANCH  23  24
ATOM     24  C   UNL     1      31.552  26.886  48.449  0.00  0.00    +0.000 C 
ATOM     25  H   UNL     1      31.050  27.851  48.466  0.00  0.00    +0.000 HD
ATOM     26  H   UNL     1      30.876  26.025  48.293  0.00  0.00    +0.000 HD
ATOM     27  H   UNL     1      31.954  26.740  49.495  0.00  0.00    +0.000 HD
ENDBRANCH  23  24
BRANCH  23  28
ATOM     28  C   UNL     1      32.170  27.118  46.099  0.00  0.00    +0.000 C 
ATOM     29  H   UNL     1      31.309  26.474  45.890  0.00  0.00    +0.000 HD
ATOM     30  H   UNL     1      31.762  28.169  46.177  0.00  0.00    +0.000 HD
ATOM     31  H   UNL     1      32.950  27.139  45.338  0.00  0.00    +0.000 HD
ENDBRANCH  23  28
BRANCH  23  32
ATOM     32  C   UNL     1      33.331  25.460  47.446  0.00  0.00    +0.000 C 
ATOM     33  H   UNL     1      34.170  25.390  46.735  0.00  0.00    +0.000 HD
ATOM     34  H   UNL     1      33.773  25.266  48.454  0.00  0.00    +0.000 HD
BRANCH  32  35
ATOM     35  C   UNL     1      32.375  24.403  47.086  0.00  0.00    +0.000 A 
ATOM     36  C   UNL     1      31.024  24.433  47.372  0.00  0.00    +0.000 A 
ATOM     37  C   UNL     1      30.174  23.393  46.999  0.00  0.00    +0.000 A 
ATOM     38  H   UNL     1      29.108  23.463  47.248  0.00  0.00    +0.000 HD
ATOM     39  C   UNL     1      30.693  22.298  46.322  0.00  0.00    +0.000 A 
ATOM     40  C   UNL     1      32.033  22.212  46.009  0.00  0.00    +0.000 A 
ATOM     41  H   UNL     1      32.443  21.375  45.490  0.00  0.00    +0.000 HD
ATOM     42  C   UNL     1      32.842  23.274  46.403  0.00  0.00    +0.000 A 
ENDBRANCH  32  35
ENDBRANCH  23  32
ENDBRANCH   5  23
TORSDOF 7
