
 OpenBabel03252514063D

 25 28  0  0  0  0  0  0  0  0999 V2000
   36.6930   31.2210   48.8030 N   0  0  0  0  0  0  0  0  0  0  0  0
   36.7340   32.0590   49.8690 C   0  0  0  0  0  0  0  0  0  0  0  0
   37.7230   32.9690   49.6420 N   0  0  0  0  0  0  0  0  0  0  0  0
   38.2600   32.6780   48.4630 C   0  0  0  0  0  0  0  0  0  0  0  0
   39.2860   33.2390   47.7170 C   0  0  0  0  0  0  0  0  0  0  0  0
   39.6380   32.7260   46.5100 N   0  0  0  0  0  0  0  0  0  0  0  0
   39.0110   31.6520   45.9870 C   0  0  0  0  0  0  0  0  0  0  0  0
   38.0150   31.1140   46.7230 N   0  0  0  0  0  0  0  0  0  0  0  0
   37.6310   31.5840   47.9170 C   0  0  0  0  0  0  0  0  0  0  0  0
   39.9750   34.3610   48.2120 N   0  0  0  0  0  0  0  0  0  0  0  0
   36.1290   32.0730   50.7730 H   0  0  0  0  0  0  0  0  0  0  0  0
   39.3330   31.2830   45.0220 H   0  0  0  0  0  0  0  0  0  0  0  0
   40.5940   34.1560   49.0260 H   0  0  0  0  0  0  0  0  0  0  0  0
   39.9570   35.3700   47.8830 H   0  0  0  0  0  0  0  0  0  0  0  0
   34.6900   30.2680   47.7840 C   0  0  0  0  0  0  0  0  0  0  0  0
   35.7730   30.1330   48.6890 C   0  0  0  0  0  0  0  0  0  0  0  0
   35.8460   28.9400   49.3950 C   0  0  0  0  0  0  0  0  0  0  0  0
   34.9040   27.9770   49.1960 N   0  0  0  0  0  0  0  0  0  0  0  0
   33.8950   28.1510   48.3240 C   0  0  0  0  0  0  0  0  0  0  0  0
   33.7830   29.2990   47.6140 N   0  0  0  0  0  0  0  0  0  0  0  0
   34.5640   31.1750   47.1920 H   0  0  0  0  0  0  0  0  0  0  0  0
   36.6680   28.8350   50.0840 H   0  0  0  0  0  0  0  0  0  0  0  0
   32.8520   27.1090   48.0920 C   0  0  0  0  0  3  0  0  0  0  0  0
   32.6250   26.7000   46.6510 C   0  0  0  0  0  2  0  0  0  0  0  0
   33.3300   25.7870   47.5850 C   0  0  0  0  0  2  0  0  0  0  0  0
  1  2  1  0  0  0  0
  2 11  1  0  0  0  0
  3  2  2  0  0  0  0
  4  3  1  0  0  0  0
  5 10  1  0  0  0  0
  5  4  2  0  0  0  0
  6  5  1  0  0  0  0
  7  6  2  0  0  0  0
  7  8  1  0  0  0  0
  8  9  2  0  0  0  0
  9  4  1  0  0  0  0
  9  1  1  0  0  0  0
 10 13  1  0  0  0  0
 12  7  1  0  0  0  0
 14 10  1  0  0  0  0
 15 16  1  0  0  0  0
 16  1  1  0  0  0  0
 16 17  2  0  0  0  0
 17 22  1  0  0  0  0
 18 17  1  0  0  0  0
 19 18  2  0  0  0  0
 20 15  2  0  0  0  0
 20 19  1  0  0  0  0
 21 15  1  0  0  0  0
 23 19  1  0  0  0  0
 24 25  1  0  0  0  0
 24 23  1  0  0  0  0
 25 23  1  0  0  0  0
M  END
>  <minimizedAffinity>
-5.43638039

>  <minimizedRMSD>
2.55127215

$$$$
