
 OpenBabel03252514063D

 25 28  0  0  0  0  0  0  0  0999 V2000
   36.6940   31.2210   48.8030 N   0  0  0  0  0  0  0  0  0  0  0  0
   36.7350   32.0590   49.8690 C   0  0  0  0  0  0  0  0  0  0  0  0
   37.7240   32.9680   49.6420 N   0  0  0  0  0  0  0  0  0  0  0  0
   38.2610   32.6780   48.4630 C   0  0  0  0  0  0  0  0  0  0  0  0
   39.2860   33.2400   47.7160 C   0  0  0  0  0  0  0  0  0  0  0  0
   39.6380   32.7260   46.5100 N   0  0  0  0  0  0  0  0  0  0  0  0
   39.0100   31.6530   45.9860 C   0  0  0  0  0  0  0  0  0  0  0  0
   38.0150   31.1150   46.7220 N   0  0  0  0  0  0  0  0  0  0  0  0
   37.6320   31.5840   47.9170 C   0  0  0  0  0  0  0  0  0  0  0  0
   39.9760   34.3610   48.2110 N   0  0  0  0  0  0  0  0  0  0  0  0
   36.1300   32.0730   50.7730 H   0  0  0  0  0  0  0  0  0  0  0  0
   39.3320   31.2840   45.0210 H   0  0  0  0  0  0  0  0  0  0  0  0
   40.5950   34.1560   49.0250 H   0  0  0  0  0  0  0  0  0  0  0  0
   39.9570   35.3700   47.8830 H   0  0  0  0  0  0  0  0  0  0  0  0
   34.6910   30.2680   47.7830 C   0  0  0  0  0  0  0  0  0  0  0  0
   35.7730   30.1330   48.6890 C   0  0  0  0  0  0  0  0  0  0  0  0
   35.8460   28.9400   49.3950 C   0  0  0  0  0  0  0  0  0  0  0  0
   34.9050   27.9770   49.1950 N   0  0  0  0  0  0  0  0  0  0  0  0
   33.8950   28.1510   48.3240 C   0  0  0  0  0  0  0  0  0  0  0  0
   33.7830   29.2990   47.6130 N   0  0  0  0  0  0  0  0  0  0  0  0
   34.5650   31.1750   47.1910 H   0  0  0  0  0  0  0  0  0  0  0  0
   36.6690   28.8350   50.0840 H   0  0  0  0  0  0  0  0  0  0  0  0
   32.8530   27.1080   48.0910 C   0  0  0  0  0  3  0  0  0  0  0  0
   32.6270   26.6990   46.6500 C   0  0  0  0  0  2  0  0  0  0  0  0
   33.3310   25.7870   47.5860 C   0  0  0  0  0  2  0  0  0  0  0  0
  1  2  1  0  0  0  0
  2 11  1  0  0  0  0
  3  2  2  0  0  0  0
  4  3  1  0  0  0  0
  5 10  1  0  0  0  0
  5  4  2  0  0  0  0
  6  5  1  0  0  0  0
  7  6  2  0  0  0  0
  7  8  1  0  0  0  0
  8  9  2  0  0  0  0
  9  4  1  0  0  0  0
  9  1  1  0  0  0  0
 10 13  1  0  0  0  0
 12  7  1  0  0  0  0
 14 10  1  0  0  0  0
 15 16  1  0  0  0  0
 16  1  1  0  0  0  0
 16 17  2  0  0  0  0
 17 22  1  0  0  0  0
 18 17  1  0  0  0  0
 19 18  2  0  0  0  0
 20 15  2  0  0  0  0
 20 19  1  0  0  0  0
 21 15  1  0  0  0  0
 23 19  1  0  0  0  0
 24 25  1  0  0  0  0
 24 23  1  0  0  0  0
 25 23  1  0  0  0  0
M  END
>  <minimizedAffinity>
-5.43343353

>  <minimizedRMSD>
2.57214856

$$$$
