
 OpenBabel03252513583D

 25 27  0  0  1  0  0  0  0  0999 V2000
   35.4950   29.5900   47.8440 C   0  0  2  0  0  0  0  0  0  0  0  0
   34.2420   30.2990   47.4370 C   0  0  0  0  0  0  0  0  0  0  0  0
   34.1430   28.9210   47.9570 C   0  0  1  0  0  0  0  0  0  0  0  0
   36.1540   29.1270   47.0910 H   0  0  0  0  0  0  0  0  0  0  0  0
   34.0420   31.2050   48.0250 H   0  0  0  0  0  0  0  0  0  0  0  0
   34.1830   30.4930   46.3400 H   0  0  0  0  0  0  0  0  0  0  0  0
   33.6710   28.8410   48.9600 H   0  0  0  0  0  0  0  0  0  0  0  0
   33.7440   27.8710   46.9730 C   0  0  0  0  0  3  0  0  0  0  0  0
   32.6400   28.4340   46.1090 C   0  0  0  0  0  2  0  0  0  0  0  0
   31.3160   28.4920   46.8240 C   0  0  0  0  0  2  0  0  0  0  0  0
   30.9000   27.1100   47.2630 C   0  0  0  0  0  2  0  0  0  0  0  0
   31.9480   26.5900   48.1960 C   0  0  0  0  0  2  0  0  0  0  0  0
   33.3340   26.5700   47.6220 C   0  0  0  0  0  2  0  0  0  0  0  0
   36.1510   29.9000   49.1580 C   0  0  0  0  0  0  0  0  0  0  0  0
   36.7670   29.0210   49.5100 H   0  0  0  0  0  0  0  0  0  0  0  0
   35.4430   30.0900   49.9730 H   0  0  0  0  0  0  0  0  0  0  0  0
   37.9360   33.1020   49.4880 C   0  0  0  0  0  0  0  0  0  0  0  0
   38.8790   33.0420   48.4610 C   0  0  0  0  0  0  0  0  0  0  0  0
   38.9130   31.8960   47.6410 C   0  0  0  0  0  0  0  0  0  0  0  0
   38.0020   30.9050   47.9150 N   0  0  0  0  0  0  0  0  0  0  0  0
   37.1050   31.0100   48.9230 C   0  0  0  0  0  0  0  0  0  0  0  0
   37.0810   32.1180   49.7070 N   0  0  0  0  0  0  0  0  0  0  0  0
   37.8800   33.9640   50.1360 H   0  0  0  0  0  0  0  0  0  0  0  0
   39.5800   33.8450   48.2790 H   0  0  0  0  0  0  0  0  0  0  0  0
   39.6180   31.7850   46.8270 H   0  0  0  0  0  0  0  0  0  0  0  0
  1  4  1  6  0  0  0
  1  3  1  0  0  0  0
  1 14  1  0  0  0  0
  2  1  1  0  0  0  0
  2  3  1  0  0  0  0
  2  5  1  0  0  0  0
  3  7  1  1  0  0  0
  6  2  1  0  0  0  0
  8 13  1  0  0  0  0
  8  3  1  0  0  0  0
  9 10  1  0  0  0  0
  9  8  1  0  0  0  0
 10 11  1  0  0  0  0
 11 12  1  0  0  0  0
 13 12  1  0  0  0  0
 14 15  1  0  0  0  0
 14 16  1  0  0  0  0
 17 22  1  0  0  0  0
 17 23  1  0  0  0  0
 18 17  2  0  0  0  0
 19 20  2  0  0  0  0
 19 18  1  0  0  0  0
 20 21  1  0  0  0  0
 21 14  1  0  0  0  0
 21 22  2  0  0  0  0
 24 18  1  0  0  0  0
 25 19  1  0  0  0  0
M  END
>  <minimizedAffinity>
-4.62487555

>  <minimizedRMSD>
1.74711406

$$$$
