REMARK  Name = 
REMARK  2 active torsions:
REMARK  status: ('A' for Active; 'I' for Inactive)
REMARK    1  A    between atoms: N_1  and  C_11
REMARK    2  A    between atoms: C_14  and  C_23
REMARK                            x       y       z     vdW  Elec       q    Type
REMARK                         _______ _______ _______ _____ _____    ______ ____
ROOT
ATOM      1  N   UNL     1      37.798  31.813  49.056  0.00  0.00    +0.000 N 
ATOM      2  C   UNL     1      38.194  33.030  49.463  0.00  0.00    +0.000 A 
ATOM      3  N   UNL     1      38.945  33.590  48.483  0.00  0.00    +0.000 NA
ATOM      4  C   UNL     1      39.003  32.713  47.484  0.00  0.00    +0.000 A 
ATOM      5  C   UNL     1      39.613  32.729  46.248  0.00  0.00    +0.000 A 
ATOM      6  N   UNL     1      39.502  31.668  45.412  0.00  0.00    +0.000 NA
ATOM      7  C   UNL     1      38.798  30.561  45.747  0.00  0.00    +0.000 A 
ATOM      8  N   UNL     1      38.215  30.569  46.953  0.00  0.00    +0.000 NA
ATOM      9  C   UNL     1      38.286  31.583  47.822  0.00  0.00    +0.000 A 
ATOM     10  N   UNL     1      40.357  33.840  45.835  0.00  0.00    +0.000 N 
ATOM     11  H   UNL     1      37.992  33.540  50.390  0.00  0.00    +0.000 HD
ATOM     12  H   UNL     1      38.752  29.754  45.032  0.00  0.00    +0.000 HD
ATOM     13  H   UNL     1      39.862  34.580  45.258  0.00  0.00    +0.000 HD
ATOM     14  H   UNL     1      41.362  34.060  46.014  0.00  0.00    +0.000 HD
ENDROOT
BRANCH   1  16
ATOM     15  C   UNL     1      35.686  30.669  49.398  0.00  0.00    +0.000 A 
ATOM     16  C   UNL     1      36.993  30.933  49.825  0.00  0.00    +0.000 A 
ATOM     17  C   UNL     1      37.413  30.293  51.001  0.00  0.00    +0.000 A 
ATOM     18  N   UNL     1      36.544  29.468  51.652  0.00  0.00    +0.000 NA
ATOM     19  C   UNL     1      35.291  29.239  51.210  0.00  0.00    +0.000 A 
ATOM     20  N   UNL     1      34.883  29.843  50.090  0.00  0.00    +0.000 NA
ATOM     21  H   UNL     1      35.330  31.146  48.494  0.00  0.00    +0.000 HD
ATOM     22  H   UNL     1      38.415  30.499  51.322  0.00  0.00    +0.000 HD
BRANCH  19  23
ATOM     23  C   UNL     1      34.435  28.322  51.997  0.00  0.00    +0.000 C 
ATOM     24  C   UNL     1      33.043  28.863  52.242  0.00  0.00    +0.000 C 
ATOM     25  C   UNL     1      32.329  28.990  50.937  0.00  0.00    +0.000 C 
ATOM     26  C   UNL     1      32.328  27.773  50.080  0.00  0.00    +0.000 C 
ATOM     27  C   UNL     1      33.588  26.981  50.062  0.00  0.00    +0.000 C 
ATOM     28  C   UNL     1      34.301  26.959  51.393  0.00  0.00    +0.000 C 
ENDBRANCH  19  23
ENDBRANCH   1  16
TORSDOF 2
