REMARK  Name = 
REMARK  3 active torsions:
REMARK  status: ('A' for Active; 'I' for Inactive)
REMARK    1  A    between atoms: C_5  and  C_7
REMARK    2  A    between atoms: C_7  and  C_8
REMARK    3  A    between atoms: C_10  and  C_20
REMARK                            x       y       z     vdW  Elec       q    Type
REMARK                         _______ _______ _______ _____ _____    ______ ____
ROOT
ATOM      1  C   UNL     1      35.425  29.446  49.157  0.00  0.00    +0.000 C 
ATOM      2  C   UNL     1      34.273  29.455  50.112  0.00  0.00    +0.000 C 
ATOM      3  C   UNL     1      34.601  28.202  49.404  0.00  0.00    +0.000 C 
ATOM      4  H   UNL     1      35.318  29.849  48.136  0.00  0.00    +0.000 HD
ATOM      5  H   UNL     1      34.565  29.684  51.145  0.00  0.00    +0.000 HD
ATOM      6  H   UNL     1      33.422  30.090  49.769  0.00  0.00    +0.000 HD
ATOM      7  H   UNL     1      35.023  27.404  50.053  0.00  0.00    +0.000 HD
ENDROOT
BRANCH   3   8
ATOM      8  C   UNL     1      33.614  27.743  48.382  0.00  0.00    +0.000 C 
ATOM      9  C   UNL     1      32.413  28.657  48.447  0.00  0.00    +0.000 C 
ATOM     10  C   UNL     1      31.539  28.384  49.643  0.00  0.00    +0.000 C 
ATOM     11  C   UNL     1      31.036  26.962  49.606  0.00  0.00    +0.000 C 
ATOM     12  C   UNL     1      32.226  26.054  49.638  0.00  0.00    +0.000 C 
ATOM     13  C   UNL     1      33.219  26.295  48.540  0.00  0.00    +0.000 C 
ENDBRANCH   3   8
BRANCH   1  14
ATOM     14  C   UNL     1      36.835  29.374  49.667  0.00  0.00    +0.000 C 
ATOM     15  H   UNL     1      37.358  28.461  49.257  0.00  0.00    +0.000 HD
ATOM     16  H   UNL     1      36.907  29.273  50.756  0.00  0.00    +0.000 HD
BRANCH  14  21
ATOM     17  C   UNL     1      38.405  32.692  49.399  0.00  0.00    +0.000 A 
ATOM     18  C   UNL     1      38.899  32.700  48.094  0.00  0.00    +0.000 A 
ATOM     19  C   UNL     1      38.698  31.561  47.288  0.00  0.00    +0.000 A 
ATOM     20  N   UNL     1      38.020  30.509  47.853  0.00  0.00    +0.000 NA
ATOM     21  C   UNL     1      37.559  30.548  49.125  0.00  0.00    +0.000 A 
ATOM     22  N   UNL     1      37.758  31.650  49.893  0.00  0.00    +0.000 NA
ATOM     23  H   UNL     1      38.540  33.546  50.046  0.00  0.00    +0.000 HD
ATOM     24  H   UNL     1      39.428  33.551  47.687  0.00  0.00    +0.000 HD
ATOM     25  H   UNL     1      39.054  31.502  46.268  0.00  0.00    +0.000 HD
ENDBRANCH  14  21
ENDBRANCH   1  14
TORSDOF 3
