
     RDKit          3D

 36 38  0  0  0  0  0  0  0  0999 V2000
   38.4049   32.6924   49.3993 C   0  0  0  0  0  0  0  0  0  0  0  0
   38.8987   32.6999   48.0941 C   0  0  0  0  0  0  0  0  0  0  0  0
   38.6976   31.5612   47.2879 C   0  0  0  0  0  0  0  0  0  0  0  0
   38.0195   30.5090   47.8532 N   0  0  0  0  0  0  0  0  0  0  0  0
   37.5586   30.5476   49.1252 C   0  0  0  0  0  0  0  0  0  0  0  0
   37.7580   31.6496   49.8926 N   0  0  0  0  0  0  0  0  0  0  0  0
   36.8353   29.3737   49.6673 C   0  0  0  0  0  0  0  0  0  0  0  0
   35.4253   29.4459   49.1575 C   0  0  2  0  0  0  0  0  0  0  0  0
   34.2732   29.4550   50.1120 C   0  0  0  0  0  0  0  0  0  0  0  0
   34.6008   28.2018   49.4040 C   0  0  1  0  0  0  0  0  0  0  0  0
   38.5396   33.5456   50.0459 H   0  0  0  0  0  0  0  0  0  0  0  0
   39.4282   33.5507   47.6872 H   0  0  0  0  0  0  0  0  0  0  0  0
   39.0545   31.5016   46.2680 H   0  0  0  0  0  0  0  0  0  0  0  0
   37.3582   28.4612   49.2566 H   0  0  0  0  0  0  0  0  0  0  0  0
   36.9068   29.2734   50.7557 H   0  0  0  0  0  0  0  0  0  0  0  0
   35.3179   29.8488   48.1358 H   0  0  0  0  0  0  0  0  0  0  0  0
   34.5652   29.6836   51.1453 H   0  0  0  0  0  0  0  0  0  0  0  0
   33.4219   30.0904   49.7693 H   0  0  0  0  0  0  0  0  0  0  0  0
   35.0235   27.4035   50.0529 H   0  0  0  0  0  0  0  0  0  0  0  0
   33.6138   27.7433   48.3822 C   0  0  0  0  0  0  0  0  0  0  0  0
   34.1192   28.1610   47.0210 C   0  0  0  0  0  0  0  0  0  0  0  0
   33.9408   29.6336   46.7621 C   0  0  0  0  0  0  0  0  0  0  0  0
   32.4808   30.0036   46.8462 C   0  0  0  0  0  0  0  0  0  0  0  0
   32.0032   29.6774   48.2275 C   0  0  0  0  0  0  0  0  0  0  0  0
   32.2138   28.2490   48.6344 C   0  0  0  0  0  0  0  0  0  0  0  0
   33.5327   26.6328   48.3499 H   0  0  0  0  0  0  0  0  0  0  0  0
   35.2158   27.9600   47.0414 H   0  0  0  0  0  0  0  0  0  0  0  0
   33.6596   27.5922   46.1917 H   0  0  0  0  0  0  0  0  0  0  0  0
   34.5309   30.2656   47.4320 H   0  0  0  0  0  0  0  0  0  0  0  0
   34.3206   29.8205   45.7348 H   0  0  0  0  0  0  0  0  0  0  0  0
   32.3876   31.0955   46.7129 H   0  0  0  0  0  0  0  0  0  0  0  0
   31.9043   29.4805   46.0574 H   0  0  0  0  0  0  0  0  0  0  0  0
   32.4123   30.4153   48.9425 H   0  0  0  0  0  0  0  0  0  0  0  0
   30.8873   29.8326   48.2340 H   0  0  0  0  0  0  0  0  0  0  0  0
   31.9941   28.1688   49.7138 H   0  0  0  0  0  0  0  0  0  0  0  0
   31.5228   27.6183   48.0353 H   0  0  0  0  0  0  0  0  0  0  0  0
  1  6  2  0
  2  1  1  0
  3  4  1  0
  3  2  2  0
  4  5  2  0
  5  7  1  0
  5  6  1  0
  8 10  1  0
  8  7  1  0
  8  9  1  0
 10  9  1  0
  1 11  1  0
  2 12  1  0
  3 13  1  0
  7 14  1  0
  7 15  1  0
  8 16  1  6
  9 17  1  0
  9 18  1  0
 10 19  1  1
 20 21  1  0
 21 22  1  0
 22 23  1  0
 23 24  1  0
 24 25  1  0
 25 20  1  0
 20 26  1  0
 21 27  1  0
 21 28  1  0
 22 29  1  0
 22 30  1  0
 23 31  1  0
 23 32  1  0
 24 33  1  0
 24 34  1  0
 25 35  1  0
 25 36  1  0
 10 20  1  0
M  ISO  8  11  14  12  14  13  14  14   8  15   8  16  13  17  13  18  13
M  ISO  1  19  13
M  END
>  <DihAtoms>  (1) 
7,9,19,20

>  <DihDeg>  (1) 
-179.99974548381036

$$$$
