
 OpenBabel03252514053D

 35 38  0  0  1  0  0  0  0  0999 V2000
   35.2530   29.4530   49.0190 C   0  0  2  0  0  0  0  0  0  0  0  0
   34.1110   29.2670   49.9070 C   0  0  0  0  0  0  0  0  0  0  0  0
   34.5590   28.0700   49.2580 C   0  0  1  0  0  0  0  0  0  0  0  0
   35.1530   29.8970   48.0240 H   0  0  0  0  0  0  0  0  0  0  0  0
   33.1430   29.7500   49.6230 H   0  0  0  0  0  0  0  0  0  0  0  0
   34.3040   29.3750   51.0120 H   0  0  0  0  0  0  0  0  0  0  0  0
   35.2380   27.3200   49.6580 H   0  0  0  0  0  0  0  0  0  0  0  0
   36.6380   29.4750   49.6890 C   0  0  0  0  0  0  0  0  0  0  0  0
   37.1630   28.5260   49.4460 H   0  0  0  0  0  0  0  0  0  0  0  0
   36.5210   29.5500   50.7720 H   0  0  0  0  0  0  0  0  0  0  0  0
   37.9430   32.8770   49.4350 C   0  0  0  0  0  0  0  0  0  0  0  0
   38.7030   32.8280   48.2510 C   0  0  0  0  0  0  0  0  0  0  0  0
   38.7520   31.6010   47.5510 C   0  0  0  0  0  0  0  0  0  0  0  0
   38.0620   30.5320   48.0590 N   0  0  0  0  0  0  0  0  0  0  0  0
   37.3510   30.6430   49.2000 C   0  0  0  0  0  0  0  0  0  0  0  0
   37.3010   31.8170   49.8780 N   0  0  0  0  0  0  0  0  0  0  0  0
   37.9640   33.8530   49.9030 H   0  0  0  0  0  0  0  0  0  0  0  0
   39.2670   33.6490   47.8080 H   0  0  0  0  0  0  0  0  0  0  0  0
   39.3130   31.4850   46.6340 H   0  0  0  0  0  0  0  0  0  0  0  0
   33.6780   27.5750   48.1300 C   0  0  0  0  0  0  0  0  0  0  0  0
   33.9030   26.3330   47.8290 O   0  0  0  0  0  0  0  0  0  0  0  0
   32.7040   28.3100   47.4480 O   0  0  0  0  0  0  0  0  0  0  0  0
   31.3620   28.1170   47.6440 C   0  0  0  0  0  0  0  0  0  0  0  0
   30.7420   27.6270   48.8930 C   0  0  0  0  0  0  0  0  0  0  0  0
   29.3990   27.4930   48.9160 C   0  0  0  0  0  0  0  0  0  0  0  0
   28.5920   27.8040   47.8020 C   0  0  0  0  0  0  0  0  0  0  0  0
   29.8370   28.3590   46.5400 S   0  0  0  0  0  0  0  0  0  0  0  0
   31.3970   27.4040   49.7130 H   0  0  0  0  0  0  0  0  0  0  0  0
   28.8520   27.1440   49.7740 H   0  0  0  0  0  0  0  0  0  0  0  0
   27.1900   27.7670   47.5350 C   0  0  0  0  0  3  0  0  0  0  0  0
   26.3880   27.5700   48.7690 C   0  0  0  0  0  2  0  0  0  0  0  0
   25.5560   28.7410   49.2030 C   0  0  0  0  0  2  0  0  0  0  0  0
   26.1330   30.0810   48.9380 C   0  0  0  0  0  2  0  0  0  0  0  0
   26.7060   30.2440   47.5590 C   0  0  0  0  0  2  0  0  0  0  0  0
   26.7010   28.9710   46.7660 C   0  0  0  0  0  2  0  0  0  0  0  0
  1  4  1  6  0  0  0
  1  3  1  0  0  0  0
  1  8  1  0  0  0  0
  1  2  1  0  0  0  0
  2  6  1  0  0  0  0
  3  7  1  1  0  0  0
  3  2  1  0  0  0  0
  5  2  1  0  0  0  0
  8 10  1  0  0  0  0
  9  8  1  0  0  0  0
 11 16  1  0  0  0  0
 11 17  1  0  0  0  0
 12 11  2  0  0  0  0
 13 14  2  0  0  0  0
 13 12  1  0  0  0  0
 14 15  1  0  0  0  0
 15  8  1  0  0  0  0
 15 16  2  0  0  0  0
 18 12  1  0  0  0  0
 19 13  1  0  0  0  0
 20  3  1  0  0  0  0
 21 20  2  0  0  0  0
 22 23  1  0  0  0  0
 22 20  1  0  0  0  0
 23 24  2  0  0  0  0
 24 25  1  0  0  0  0
 24 28  1  0  0  0  0
 25 29  1  0  0  0  0
 26 25  2  0  0  0  0
 27 23  1  0  0  0  0
 27 26  1  0  0  0  0
 30 26  1  0  0  0  0
 30 31  1  0  0  0  0
 31 32  1  0  0  0  0
 33 32  1  0  0  0  0
 34 33  1  0  0  0  0
 35 30  1  0  0  0  0
 35 34  1  0  0  0  0
M  END
>  <minimizedAffinity>
-6.58881235

>  <minimizedRMSD>
1.11441755

$$$$
