
 OpenBabel03252514053D

 35 38  0  0  1  0  0  0  0  0999 V2000
   35.2520   29.4520   49.0190 C   0  0  2  0  0  0  0  0  0  0  0  0
   34.1090   29.2650   49.9070 C   0  0  0  0  0  0  0  0  0  0  0  0
   34.5580   28.0690   49.2580 C   0  0  1  0  0  0  0  0  0  0  0  0
   35.1520   29.8970   48.0250 H   0  0  0  0  0  0  0  0  0  0  0  0
   33.1410   29.7480   49.6220 H   0  0  0  0  0  0  0  0  0  0  0  0
   34.3010   29.3730   51.0120 H   0  0  0  0  0  0  0  0  0  0  0  0
   35.2370   27.3190   49.6570 H   0  0  0  0  0  0  0  0  0  0  0  0
   36.6360   29.4750   49.6910 C   0  0  0  0  0  0  0  0  0  0  0  0
   37.1610   28.5250   49.4490 H   0  0  0  0  0  0  0  0  0  0  0  0
   36.5180   29.5500   50.7740 H   0  0  0  0  0  0  0  0  0  0  0  0
   37.9430   32.8760   49.4350 C   0  0  0  0  0  0  0  0  0  0  0  0
   38.7020   32.8260   48.2510 C   0  0  0  0  0  0  0  0  0  0  0  0
   38.7500   31.5990   47.5510 C   0  0  0  0  0  0  0  0  0  0  0  0
   38.0600   30.5300   48.0600 N   0  0  0  0  0  0  0  0  0  0  0  0
   37.3500   30.6420   49.2010 C   0  0  0  0  0  0  0  0  0  0  0  0
   37.3000   31.8170   49.8790 N   0  0  0  0  0  0  0  0  0  0  0  0
   37.9640   33.8520   49.9030 H   0  0  0  0  0  0  0  0  0  0  0  0
   39.2670   33.6470   47.8080 H   0  0  0  0  0  0  0  0  0  0  0  0
   39.3110   31.4820   46.6340 H   0  0  0  0  0  0  0  0  0  0  0  0
   33.6780   27.5740   48.1290 C   0  0  0  0  0  0  0  0  0  0  0  0
   33.9050   26.3320   47.8270 O   0  0  0  0  0  0  0  0  0  0  0  0
   32.7040   28.3090   47.4460 O   0  0  0  0  0  0  0  0  0  0  0  0
   31.3620   28.1160   47.6430 C   0  0  0  0  0  0  0  0  0  0  0  0
   30.7420   27.6270   48.8930 C   0  0  0  0  0  0  0  0  0  0  0  0
   29.3990   27.4940   48.9160 C   0  0  0  0  0  0  0  0  0  0  0  0
   28.5920   27.8040   47.8020 C   0  0  0  0  0  0  0  0  0  0  0  0
   29.8370   28.3580   46.5390 S   0  0  0  0  0  0  0  0  0  0  0  0
   31.3970   27.4040   49.7120 H   0  0  0  0  0  0  0  0  0  0  0  0
   28.8530   27.1450   49.7740 H   0  0  0  0  0  0  0  0  0  0  0  0
   27.1900   27.7670   47.5360 C   0  0  0  0  0  3  0  0  0  0  0  0
   26.3880   27.5700   48.7700 C   0  0  0  0  0  2  0  0  0  0  0  0
   25.5560   28.7400   49.2030 C   0  0  0  0  0  2  0  0  0  0  0  0
   26.1330   30.0820   48.9380 C   0  0  0  0  0  2  0  0  0  0  0  0
   26.7060   30.2440   47.5590 C   0  0  0  0  0  2  0  0  0  0  0  0
   26.7020   28.9720   46.7670 C   0  0  0  0  0  2  0  0  0  0  0  0
  1  4  1  6  0  0  0
  1  3  1  0  0  0  0
  1  8  1  0  0  0  0
  1  2  1  0  0  0  0
  2  6  1  0  0  0  0
  3  7  1  1  0  0  0
  3  2  1  0  0  0  0
  5  2  1  0  0  0  0
  8 10  1  0  0  0  0
  9  8  1  0  0  0  0
 11 16  1  0  0  0  0
 11 17  1  0  0  0  0
 12 11  2  0  0  0  0
 13 14  2  0  0  0  0
 13 12  1  0  0  0  0
 14 15  1  0  0  0  0
 15  8  1  0  0  0  0
 15 16  2  0  0  0  0
 18 12  1  0  0  0  0
 19 13  1  0  0  0  0
 20  3  1  0  0  0  0
 21 20  2  0  0  0  0
 22 23  1  0  0  0  0
 22 20  1  0  0  0  0
 23 24  2  0  0  0  0
 24 25  1  0  0  0  0
 24 28  1  0  0  0  0
 25 29  1  0  0  0  0
 26 25  2  0  0  0  0
 27 23  1  0  0  0  0
 27 26  1  0  0  0  0
 30 26  1  0  0  0  0
 30 31  1  0  0  0  0
 31 32  1  0  0  0  0
 33 32  1  0  0  0  0
 34 33  1  0  0  0  0
 35 30  1  0  0  0  0
 35 34  1  0  0  0  0
M  END
>  <minimizedAffinity>
-6.58874893

>  <minimizedRMSD>
1.12956154

$$$$
