REMARK  Name = 
REMARK  6 active torsions:
REMARK  status: ('A' for Active; 'I' for Inactive)
REMARK    1  A    between atoms: C_1  and  C_4
REMARK    2  A    between atoms: C_3  and  C_11
REMARK    3  A    between atoms: C_4  and  C_9
REMARK    4  A    between atoms: C_11  and  O_13
REMARK    5  A    between atoms: O_13  and  C_14
REMARK    6  A    between atoms: C_17  and  C_30
REMARK                            x       y       z     vdW  Elec       q    Type
REMARK                         _______ _______ _______ _____ _____    ______ ____
ROOT
ATOM      1  C   UNL     1      35.295  29.414  48.981  0.00  0.00    +0.000 C 
ATOM      2  C   UNL     1      34.189  29.365  49.932  0.00  0.00    +0.000 C 
ATOM      3  C   UNL     1      34.525  28.101  49.346  0.00  0.00    +0.000 C 
ATOM      4  H   UNL     1      35.174  29.799  47.964  0.00  0.00    +0.000 HD
ATOM      5  H   UNL     1      33.242  29.894  49.660  0.00  0.00    +0.000 HD
ATOM      6  H   UNL     1      34.444  29.531  51.017  0.00  0.00    +0.000 HD
ATOM      7  H   UNL     1      35.172  27.333  49.764  0.00  0.00    +0.000 HD
ENDROOT
BRANCH   1   8
ATOM      8  C   UNL     1      36.710  29.385  49.584  0.00  0.00    +0.000 C 
ATOM      9  H   UNL     1      37.208  28.441  49.271  0.00  0.00    +0.000 HD
ATOM     10  H   UNL     1      36.646  29.408  50.674  0.00  0.00    +0.000 HD
BRANCH   8  15
ATOM     11  C   UNL     1      38.087  32.765  49.447  0.00  0.00    +0.000 A 
ATOM     12  C   UNL     1      38.757  32.775  48.209  0.00  0.00    +0.000 A 
ATOM     13  C   UNL     1      38.721  31.595  47.432  0.00  0.00    +0.000 A 
ATOM     14  N   UNL     1      38.041  30.511  47.922  0.00  0.00    +0.000 NA
ATOM     15  C   UNL     1      37.418  30.565  49.117  0.00  0.00    +0.000 A 
ATOM     16  N   UNL     1      37.449  31.694  49.869  0.00  0.00    +0.000 NA
ATOM     17  H   UNL     1      38.168  33.708  49.972  0.00  0.00    +0.000 HD
ATOM     18  H   UNL     1      39.310  33.610  47.778  0.00  0.00    +0.000 HD
ATOM     19  H   UNL     1      39.211  31.525  46.471  0.00  0.00    +0.000 HD
ENDBRANCH   8  15
ENDBRANCH   1   8
BRANCH   3  20
ATOM     20  C   UNL     1      33.557  27.595  48.296  0.00  0.00    +0.000 C 
ATOM     21  O   UNL     1      33.903  26.442  47.812  0.00  0.00    +0.000 OA
BRANCH  20  22
ATOM     22  O   UNL     1      32.397  28.237  47.852  0.00  0.00    +0.000 OA
BRANCH  22  23
ATOM     23  C   UNL     1      31.142  27.835  48.227  0.00  0.00    +0.000 A 
ATOM     24  C   UNL     1      30.623  27.831  49.611  0.00  0.00    +0.000 A 
ATOM     25  C   UNL     1      29.358  27.401  49.805  0.00  0.00    +0.000 A 
ATOM     26  C   UNL     1      28.539  26.966  48.742  0.00  0.00    +0.000 A 
ATOM     27  S   UNL     1      29.647  27.171  47.265  0.00  0.00    +0.000 S 
ATOM     28  H   UNL     1      31.283  28.171  50.385  0.00  0.00    +0.000 HD
ATOM     29  H   UNL     1      28.888  27.358  50.771  0.00  0.00    +0.000 HD
BRANCH  26  30
ATOM     30  C   UNL     1      27.203  26.473  48.640  0.00  0.00    +0.000 C 
ATOM     31  C   UNL     1      26.193  27.552  48.790  0.00  0.00    +0.000 C 
ATOM     32  C   UNL     1      25.409  27.888  47.557  0.00  0.00    +0.000 C 
ATOM     33  C   UNL     1      26.139  27.774  46.270  0.00  0.00    +0.000 C 
ATOM     34  C   UNL     1      26.945  26.513  46.130  0.00  0.00    +0.000 C 
ATOM     35  C   UNL     1      26.958  25.682  47.378  0.00  0.00    +0.000 C 
ENDBRANCH  26  30
ENDBRANCH  22  23
ENDBRANCH  20  22
ENDBRANCH   3  20
TORSDOF 6
