
 OpenBabel03252510433D

 27 29  0  0  1  0  0  0  0  0999 V2000
   37.5020   31.1910   48.6240 N   0  0  0  0  0  0  0  0  0  0  0  0
   38.2980   31.6470   49.7610 C   0  0  0  0  0  0  0  0  0  0  0  0
   38.6220   33.0540   49.3310 C   0  0  0  0  0  0  0  0  0  0  0  0
   39.0280   32.8340   47.9010 C   0  0  0  0  0  0  0  0  0  0  0  0
   37.9880   31.8500   47.4340 C   0  0  1  0  0  0  0  0  0  0  0  0
   37.6140   31.7240   50.6290 H   0  0  0  0  0  0  0  0  0  0  0  0
   39.1850   31.0380   49.9540 H   0  0  0  0  0  0  0  0  0  0  0  0
   37.7360   33.7020   49.4340 H   0  0  0  0  0  0  0  0  0  0  0  0
   39.5140   33.4600   49.8570 H   0  0  0  0  0  0  0  0  0  0  0  0
   38.9800   33.7790   47.3200 H   0  0  0  0  0  0  0  0  0  0  0  0
   40.0620   32.4440   47.9160 H   0  0  0  0  0  0  0  0  0  0  0  0
   37.2010   32.4190   46.9130 H   0  0  0  0  0  0  0  0  0  0  0  0
   36.3600   29.1620   49.5250 C   0  0  0  0  0  0  0  0  0  0  0  0
   36.4330   30.2680   48.6280 C   0  0  0  0  0  0  0  0  0  0  0  0
   35.4000   30.4390   47.6980 C   0  0  0  0  0  0  0  0  0  0  0  0
   34.3740   29.5420   47.6920 N   0  0  0  0  0  0  0  0  0  0  0  0
   34.3370   28.4980   48.5620 C   0  0  0  0  0  0  0  0  0  0  0  0
   35.3290   28.3150   49.4720 N   0  0  0  0  0  0  0  0  0  0  0  0
   37.2030   29.1450   50.1810 H   0  0  0  0  0  0  0  0  0  0  0  0
   35.3230   31.2170   46.9790 H   0  0  0  0  0  0  0  0  0  0  0  0
   33.5120   27.8020   48.5350 H   0  0  0  0  0  0  0  0  0  0  0  0
   38.5960   30.9130   46.4340 C   0  0  0  0  0  0  0  0  0  0  0  0
   37.8220   31.1790   45.1320 C   0  0  0  0  0  0  0  0  0  0  0  0
   38.1280   30.1240   44.1100 C   0  0  0  0  0  0  0  0  0  0  0  0
   39.6300   30.1260   43.8630 C   0  0  0  0  0  0  0  0  0  0  0  0
   40.2860   31.2650   44.5980 C   0  0  0  0  0  0  0  0  0  0  0  0
   40.0310   31.1450   46.1070 C   0  0  0  0  0  0  0  0  0  0  0  0
  1 14  1  0  0  0  0
  1  2  1  0  0  0  0
  2  7  1  0  0  0  0
  2  6  1  0  0  0  0
  3  8  1  0  0  0  0
  3  2  1  0  0  0  0
  3  9  1  0  0  0  0
  4 11  1  0  0  0  0
  4  3  1  0  0  0  0
  5 12  1  6  0  0  0
  5  4  1  0  0  0  0
  5  1  1  0  0  0  0
 10  4  1  0  0  0  0
 13 19  1  0  0  0  0
 14 13  2  0  0  0  0
 15 14  1  0  0  0  0
 16 15  2  0  0  0  0
 16 17  1  0  0  0  0
 17 18  2  0  0  0  0
 18 13  1  0  0  0  0
 20 15  1  0  0  0  0
 21 17  1  0  0  0  0
 22  5  1  0  0  0  0
 23 22  1  0  0  0  0
 24 23  1  0  0  0  0
 25 24  1  0  0  0  0
 25 26  1  0  0  0  0
 26 27  1  0  0  0  0
 27 22  1  0  0  0  0
M  END
>  <minimizedAffinity>
-5.57847404

>  <minimizedRMSD>
0.809978962

$$$$
