
 OpenBabel03252513163D

 42 45  0  0  0  0  0  0  0  0999 V2000
   37.3410   31.1170   46.3370 C   0  0  0  0  0  0  0  0  0  0  0  0
   36.3550   30.2600   46.8390 C   0  0  0  0  0  0  0  0  0  0  0  0
   36.0030   30.1650   48.1490 C   0  0  0  0  0  0  0  0  0  0  0  0
   36.6280   30.9440   49.0820 C   0  0  0  0  0  0  0  0  0  0  0  0
   37.5900   31.7940   48.6620 C   0  0  0  0  0  0  0  0  0  0  0  0
   38.2230   32.5830   49.6080 C   0  0  0  0  0  0  0  0  0  0  0  0
   39.2020   33.4640   49.2650 C   0  0  0  0  0  0  0  0  0  0  0  0
   39.5590   33.5570   47.9280 C   0  0  0  0  0  0  0  0  0  0  0  0
   38.9110   32.7620   47.0240 C   0  0  0  0  0  0  0  0  0  0  0  0
   37.9410   31.8830   47.3290 C   0  0  0  0  0  0  0  0  0  0  0  0
   35.8330   29.6230   46.1350 H   0  0  0  0  0  0  0  0  0  0  0  0
   35.2290   29.4760   48.4610 H   0  0  0  0  0  0  0  0  0  0  0  0
   37.9980   32.5660   50.6650 H   0  0  0  0  0  0  0  0  0  0  0  0
   39.7260   34.1020   49.9730 H   0  0  0  0  0  0  0  0  0  0  0  0
   40.3320   34.2440   47.6050 H   0  0  0  0  0  0  0  0  0  0  0  0
   39.2150   32.8590   45.9820 H   0  0  0  0  0  0  0  0  0  0  0  0
   37.6110   32.6870   43.1070 C   0  0  0  0  0  0  0  0  0  0  0  0
   38.1860   31.7420   42.2640 C   0  0  0  0  0  0  0  0  0  0  0  0
   38.4970   30.5210   42.8030 C   0  0  0  0  0  0  0  0  0  0  0  0
   38.2140   30.3690   44.0890 N   0  0  0  0  0  0  0  0  0  0  0  0
   37.6850   31.1870   44.9400 C   0  0  0  0  0  0  0  0  0  0  0  0
   37.3940   32.3600   44.3890 N   0  0  0  0  0  0  0  0  0  0  0  0
   37.3430   33.6830   42.7120 H   0  0  0  0  0  0  0  0  0  0  0  0
   39.0740   29.4540   42.0820 N   0  0  0  0  0  0  0  0  0  0  0  0
   40.2720   28.8230   42.4840 C   0  0  0  0  0  0  0  0  0  0  0  0
   41.2300   29.5600   42.9590 N   0  0  0  0  0  0  0  0  0  0  0  0
   40.4290   27.4170   42.3780 N   0  0  0  0  0  0  0  0  0  0  0  0
   42.1320   29.2600   43.3030 H   0  0  0  0  0  0  0  0  0  0  0  0
   38.6380   29.0570   41.1920 H   0  0  0  0  0  0  0  0  0  0  0  0
   40.3760   27.1760   41.3620 H   0  0  0  0  0  0  0  0  0  0  0  0
   40.5710   26.7590   43.1840 H   0  0  0  0  0  0  0  0  0  0  0  0
   38.4650   32.0150   40.8300 C   0  0  0  0  0  0  0  0  0  0  0  0
   37.2630   31.5180   40.0130 C   0  0  0  0  0  0  0  0  0  0  0  0
   36.1220   32.4870   40.0610 C   0  0  0  0  0  0  0  0  0  0  0  0
   36.5320   33.8890   39.6690 C   0  0  0  0  0  0  0  0  0  0  0  0
   37.9840   33.8110   39.2510 C   0  0  0  0  0  0  0  0  0  0  0  0
   38.7710   33.4480   40.5140 C   0  0  0  0  0  0  0  0  0  0  0  0
   36.2550   30.8330   50.4070 O   0  0  0  0  0  0  0  0  0  0  0  0
   36.6700   29.7280   51.1810 C   0  0  0  0  0  0  0  0  0  0  0  0
   37.4850   28.8410   50.5460 F   0  0  0  0  0  0  0  0  0  0  0  0
   37.4190   30.2280   52.2450 F   0  0  0  0  0  0  0  0  0  0  0  0
   35.5120   29.1060   51.6310 F   0  0  0  0  0  0  0  0  0  0  0  0
  1  2  2  0  0  0  0
  1 10  1  0  0  0  0
  2  3  1  0  0  0  0
  3 12  1  0  0  0  0
  3  4  2  0  0  0  0
  4 38  1  0  0  0  0
  5  4  1  0  0  0  0
  5  6  1  0  0  0  0
  6 13  1  0  0  0  0
  7  6  2  0  0  0  0
  7 14  1  0  0  0  0
  8  7  1  0  0  0  0
  9 10  1  0  0  0  0
  9  8  2  0  0  0  0
 10  5  2  0  0  0  0
 11  2  1  0  0  0  0
 15  8  1  0  0  0  0
 16  9  1  0  0  0  0
 17 22  1  0  0  0  0
 18 19  1  0  0  0  0
 18 17  2  0  0  0  0
 19 20  2  0  0  0  0
 20 21  1  0  0  0  0
 21  1  1  0  0  0  0
 22 21  2  0  0  0  0
 23 17  1  0  0  0  0
 24 25  1  0  0  0  0
 24 19  1  0  0  0  0
 25 26  2  0  0  0  0
 26 28  1  0  0  0  0
 27 25  1  0  0  0  0
 27 31  1  0  0  0  0
 29 24  1  0  0  0  0
 30 27  1  0  0  0  0
 32 18  1  0  0  0  0
 33 34  1  0  0  0  0
 33 32  1  0  0  0  0
 35 34  1  0  0  0  0
 36 35  1  0  0  0  0
 36 37  1  0  0  0  0
 37 32  1  0  0  0  0
 38 39  1  0  0  0  0
 39 42  1  0  0  0  0
 39 41  1  0  0  0  0
 40 39  1  0  0  0  0
M  END
>  <minimizedAffinity>
-7.74643517

>  <minimizedRMSD>
1.12853515

$$$$
