
     RDKit          3D

 36 38  0  0  0  0  0  0  0  0999 V2000
   38.4049   32.6924   49.3993 C   0  0  0  0  0  0  0  0  0  0  0  0
   38.8987   32.6999   48.0941 C   0  0  0  0  0  0  0  0  0  0  0  0
   38.6976   31.5612   47.2879 C   0  0  0  0  0  0  0  0  0  0  0  0
   38.0195   30.5090   47.8532 N   0  0  0  0  0  0  0  0  0  0  0  0
   37.5586   30.5476   49.1252 C   0  0  0  0  0  0  0  0  0  0  0  0
   37.7580   31.6496   49.8926 N   0  0  0  0  0  0  0  0  0  0  0  0
   36.8353   29.3737   49.6673 C   0  0  0  0  0  0  0  0  0  0  0  0
   35.4253   29.4459   49.1575 C   0  0  2  0  0  0  0  0  0  0  0  0
   34.2732   29.4550   50.1120 C   0  0  0  0  0  0  0  0  0  0  0  0
   34.6008   28.2018   49.4040 C   0  0  1  0  0  0  0  0  0  0  0  0
   38.5396   33.5456   50.0459 H   0  0  0  0  0  0  0  0  0  0  0  0
   39.4282   33.5507   47.6872 H   0  0  0  0  0  0  0  0  0  0  0  0
   39.0545   31.5016   46.2680 H   0  0  0  0  0  0  0  0  0  0  0  0
   37.3582   28.4612   49.2566 H   0  0  0  0  0  0  0  0  0  0  0  0
   36.9068   29.2734   50.7557 H   0  0  0  0  0  0  0  0  0  0  0  0
   35.3179   29.8488   48.1358 H   0  0  0  0  0  0  0  0  0  0  0  0
   34.5652   29.6836   51.1453 H   0  0  0  0  0  0  0  0  0  0  0  0
   33.4219   30.0904   49.7693 H   0  0  0  0  0  0  0  0  0  0  0  0
   35.0235   27.4035   50.0529 H   0  0  0  0  0  0  0  0  0  0  0  0
   33.6138   27.7433   48.3822 C   0  0  0  0  0  0  0  0  0  0  0  0
   32.2452   27.7356   49.0221 C   0  0  0  0  0  0  0  0  0  0  0  0
   32.0497   26.5748   49.9613 C   0  0  0  0  0  0  0  0  0  0  0  0
   32.2208   25.2718   49.2207 C   0  0  0  0  0  0  0  0  0  0  0  0
   33.6114   25.2376   48.6663 C   0  0  0  0  0  0  0  0  0  0  0  0
   33.9545   26.4003   47.7825 C   0  0  0  0  0  0  0  0  0  0  0  0
   33.5449   28.4490   47.5231 H   0  0  0  0  0  0  0  0  0  0  0  0
   32.2030   28.6664   49.6346 H   0  0  0  0  0  0  0  0  0  0  0  0
   31.4197   27.7454   48.2865 H   0  0  0  0  0  0  0  0  0  0  0  0
   32.7119   26.6057   50.8314 H   0  0  0  0  0  0  0  0  0  0  0  0
   31.0122   26.6564   50.3504 H   0  0  0  0  0  0  0  0  0  0  0  0
   32.1324   24.4430   49.9445 H   0  0  0  0  0  0  0  0  0  0  0  0
   31.4432   25.1683   48.4377 H   0  0  0  0  0  0  0  0  0  0  0  0
   34.3315   25.0677   49.4882 H   0  0  0  0  0  0  0  0  0  0  0  0
   33.6797   24.3263   48.0075 H   0  0  0  0  0  0  0  0  0  0  0  0
   35.0399   26.3638   47.5817 H   0  0  0  0  0  0  0  0  0  0  0  0
   33.3682   26.3001   46.8443 H   0  0  0  0  0  0  0  0  0  0  0  0
  1  6  2  0
  2  1  1  0
  3  4  1  0
  3  2  2  0
  4  5  2  0
  5  7  1  0
  5  6  1  0
  8 10  1  0
  8  7  1  0
  8  9  1  0
 10  9  1  0
  1 11  1  0
  2 12  1  0
  3 13  1  0
  7 14  1  0
  7 15  1  0
  8 16  1  6
  9 17  1  0
  9 18  1  0
 10 19  1  1
 20 21  1  0
 21 22  1  0
 22 23  1  0
 23 24  1  0
 24 25  1  0
 25 20  1  0
 20 26  1  0
 21 27  1  0
 21 28  1  0
 22 29  1  0
 22 30  1  0
 23 31  1  0
 23 32  1  0
 24 33  1  0
 24 34  1  0
 25 35  1  0
 25 36  1  0
 10 20  1  0
M  ISO  8  11  14  12  14  13  14  14   8  15   8  16  13  17  13  18  13
M  ISO  1  19  13
M  END
>  <DihAtoms>  (1) 
7,9,19,20

>  <DihDeg>  (1) 
-179.99974548381036

$$$$
