
 OpenBabel03252514053D

 35 38  0  0  1  0  0  0  0  0999 V2000
   35.2350   29.2820   48.7460 C   0  0  2  0  0  0  0  0  0  0  0  0
   34.0420   29.1370   49.5730 C   0  0  0  0  0  0  0  0  0  0  0  0
   34.5140   27.9150   48.9930 C   0  0  1  0  0  0  0  0  0  0  0  0
   35.1970   29.6920   47.7320 H   0  0  0  0  0  0  0  0  0  0  0  0
   33.0970   29.6180   49.2170 H   0  0  0  0  0  0  0  0  0  0  0  0
   34.1720   29.2820   50.6830 H   0  0  0  0  0  0  0  0  0  0  0  0
   35.1610   27.1730   49.4560 H   0  0  0  0  0  0  0  0  0  0  0  0
   36.5790   29.3170   49.4930 C   0  0  0  0  0  0  0  0  0  0  0  0
   37.1620   28.4110   49.2150 H   0  0  0  0  0  0  0  0  0  0  0  0
   36.4010   29.3070   50.5710 H   0  0  0  0  0  0  0  0  0  0  0  0
   37.7150   32.7880   49.5400 C   0  0  0  0  0  0  0  0  0  0  0  0
   38.5560   32.8520   48.4130 C   0  0  0  0  0  0  0  0  0  0  0  0
   38.7190   31.6760   47.6460 C   0  0  0  0  0  0  0  0  0  0  0  0
   38.0550   30.5440   48.0370 N   0  0  0  0  0  0  0  0  0  0  0  0
   37.2610   30.5470   49.1280 C   0  0  0  0  0  0  0  0  0  0  0  0
   37.1000   31.6720   49.8700 N   0  0  0  0  0  0  0  0  0  0  0  0
   37.6500   33.7320   50.0650 H   0  0  0  0  0  0  0  0  0  0  0  0
   39.1050   33.7260   48.0630 H   0  0  0  0  0  0  0  0  0  0  0  0
   39.3480   31.6460   46.7670 H   0  0  0  0  0  0  0  0  0  0  0  0
   33.6940   27.3870   47.8330 C   0  0  0  0  0  0  0  0  0  0  0  0
   33.7770   26.0990   47.7080 O   0  0  0  0  0  0  0  0  0  0  0  0
   32.9040   28.1410   46.9590 O   0  0  0  0  0  0  0  0  0  0  0  0
   31.5690   28.3580   47.1730 C   0  0  0  0  0  0  0  0  0  0  0  0
   30.7740   27.7820   48.2780 C   0  0  0  0  0  0  0  0  0  0  0  0
   29.4640   28.1010   48.3410 C   0  0  0  0  0  0  0  0  0  0  0  0
   28.8500   28.9520   47.3990 C   0  0  0  0  0  0  0  0  0  0  0  0
   30.2550   29.3820   46.2630 S   0  0  0  0  0  0  0  0  0  0  0  0
   31.2860   27.1410   48.9700 H   0  0  0  0  0  0  0  0  0  0  0  0
   28.8000   27.7340   49.1040 H   0  0  0  0  0  0  0  0  0  0  0  0
   27.5270   29.4560   47.2120 C   0  0  0  0  0  3  0  0  0  0  0  0
   27.4850   30.5830   46.2470 C   0  0  0  0  0  2  0  0  0  0  0  0
   26.7990   30.3000   44.9430 C   0  0  0  0  0  2  0  0  0  0  0  0
   26.9410   28.9200   44.4190 C   0  0  0  0  0  2  0  0  0  0  0  0
   26.7210   27.8450   45.4470 C   0  0  0  0  0  2  0  0  0  0  0  0
   26.5320   28.3860   46.8320 C   0  0  0  0  0  2  0  0  0  0  0  0
  1  4  1  6  0  0  0
  1  3  1  0  0  0  0
  1  8  1  0  0  0  0
  1  2  1  0  0  0  0
  2  6  1  0  0  0  0
  3  7  1  1  0  0  0
  3  2  1  0  0  0  0
  5  2  1  0  0  0  0
  8 10  1  0  0  0  0
  9  8  1  0  0  0  0
 11 16  1  0  0  0  0
 11 17  1  0  0  0  0
 12 11  2  0  0  0  0
 13 14  2  0  0  0  0
 13 12  1  0  0  0  0
 14 15  1  0  0  0  0
 15  8  1  0  0  0  0
 15 16  2  0  0  0  0
 18 12  1  0  0  0  0
 19 13  1  0  0  0  0
 20  3  1  0  0  0  0
 21 20  2  0  0  0  0
 22 23  1  0  0  0  0
 22 20  1  0  0  0  0
 23 24  2  0  0  0  0
 24 25  1  0  0  0  0
 24 28  1  0  0  0  0
 25 29  1  0  0  0  0
 26 25  2  0  0  0  0
 27 23  1  0  0  0  0
 27 26  1  0  0  0  0
 30 26  1  0  0  0  0
 31 30  1  0  0  0  0
 32 31  1  0  0  0  0
 33 32  1  0  0  0  0
 33 34  1  0  0  0  0
 34 35  1  0  0  0  0
 35 30  1  0  0  0  0
M  END
>  <minimizedAffinity>
-5.84772444

>  <minimizedRMSD>
2.81548691

$$$$
