
     RDKit          3D

 30 31  0  0  0  0  0  0  0  0999 V2000
   37.9701   30.9263   49.2567 C   0  0  0  0  0  0  0  0  0  0  0  0
   38.3903   32.2576   49.5502 C   0  0  0  0  0  0  0  0  0  0  0  0
   38.8745   33.0544   48.5144 C   0  0  0  0  0  0  0  0  0  0  0  0
   38.9214   32.5149   47.2649 N   0  0  0  0  0  0  0  0  0  0  0  0
   38.5174   31.2614   47.0327 C   0  0  0  0  0  0  0  0  0  0  0  0
   38.0504   30.4678   47.9847 N   0  0  0  0  0  0  0  0  0  0  0  0
   37.4998   30.1615   50.2800 O   0  0  0  0  0  0  0  0  0  0  0  0
   36.1685   29.7518   50.4306 C   0  0  0  0  0  0  0  0  0  0  0  0
   35.8341   29.4196   51.7278 F   0  0  0  0  0  0  0  0  0  0  0  0
   35.2511   30.6333   49.9295 F   0  0  0  0  0  0  0  0  0  0  0  0
   36.0395   28.5766   49.6796 F   0  0  0  0  0  0  0  0  0  0  0  0
   38.3098   32.5839   50.5768 H   0  0  0  0  0  0  0  0  0  0  0  0
   39.1799   34.0556   48.7898 H   0  0  0  0  0  0  0  0  0  0  0  0
   38.6062   30.7589   45.6341 C   0  0  0  0  0  0  0  0  0  0  0  0
   38.2582   31.8764   44.6929 C   0  0  0  0  0  0  0  0  0  0  0  0
   38.3535   31.4207   43.2831 C   0  0  0  0  0  0  0  0  0  0  0  0
   38.1350   30.0084   42.9720 C   0  0  0  0  0  0  0  0  0  0  0  0
   37.8422   29.0723   44.0885 C   0  0  0  0  0  0  0  0  0  0  0  0
   37.4813   29.7432   45.3883 C   0  0  0  0  0  0  0  0  0  0  0  0
   39.5791   30.2794   45.4252 H   0  0  0  0  0  0  0  0  0  0  0  0
   38.9156   32.7314   44.9164 H   0  0  0  0  0  0  0  0  0  0  0  0
   37.2226   32.2048   44.9797 H   0  0  0  0  0  0  0  0  0  0  0  0
   39.3478   31.7943   42.9100 H   0  0  0  0  0  0  0  0  0  0  0  0
   37.6314   32.0776   42.7109 H   0  0  0  0  0  0  0  0  0  0  0  0
   37.3209   29.9007   42.2124 H   0  0  0  0  0  0  0  0  0  0  0  0
   39.0423   29.6121   42.4292 H   0  0  0  0  0  0  0  0  0  0  0  0
   37.0154   28.3676   43.8549 H   0  0  0  0  0  0  0  0  0  0  0  0
   38.7221   28.4342   44.3248 H   0  0  0  0  0  0  0  0  0  0  0  0
   37.4272   28.9906   46.1794 H   0  0  0  0  0  0  0  0  0  0  0  0
   36.5201   30.3122   45.3173 H   0  0  0  0  0  0  0  0  0  0  0  0
  1  2  2  0
  1  7  1  0
  3  2  1  0
  4  3  2  0
  5  4  1  0
  5  6  2  0
  6  1  1  0
  7  8  1  0
  8  9  1  0
 10  8  1  0
 11  8  1  0
  2 12  1  0
  3 13  1  0
 14 15  1  0
 15 16  1  0
 16 17  1  0
 17 18  1  0
 18 19  1  0
 19 14  1  0
 14 20  1  0
 15 21  1  0
 15 22  1  0
 16 23  1  0
 16 24  1  0
 17 25  1  0
 17 26  1  0
 18 27  1  0
 18 28  1  0
 19 29  1  0
 19 30  1  0
  5 14  1  0
M  ISO  2  12  14  13  14
M  END
>  <DihAtoms>  (1) 
3,4,13,14

>  <DihDeg>  (1) 
-127.26350248677333

$$$$
