
 OpenBabel03252514053D

 34 37  0  0  1  0  0  0  0  0999 V2000
   35.5140   29.4220   48.6920 C   0  0  2  0  0  0  0  0  0  0  0  0
   34.3490   29.5040   49.5660 C   0  0  0  0  0  0  0  0  0  0  0  0
   34.6950   28.1720   49.1580 C   0  0  1  0  0  0  0  0  0  0  0  0
   35.4920   29.5610   47.6080 H   0  0  0  0  0  0  0  0  0  0  0  0
   33.4130   29.9900   49.2140 H   0  0  0  0  0  0  0  0  0  0  0  0
   34.5370   29.7810   50.6450 H   0  0  0  0  0  0  0  0  0  0  0  0
   35.3130   27.4290   49.6690 H   0  0  0  0  0  0  0  0  0  0  0  0
   36.8840   29.4520   49.3900 C   0  0  0  0  0  0  0  0  0  0  0  0
   37.4350   28.5230   49.1590 H   0  0  0  0  0  0  0  0  0  0  0  0
   36.7340   29.4830   50.4880 H   0  0  0  0  0  0  0  0  0  0  0  0
   38.1110   32.8930   49.4250 C   0  0  0  0  0  0  0  0  0  0  0  0
   38.8410   32.9720   48.2190 C   0  0  0  0  0  0  0  0  0  0  0  0
   38.8950   31.8150   47.4070 C   0  0  0  0  0  0  0  0  0  0  0  0
   38.2400   30.6910   47.8350 N   0  0  0  0  0  0  0  0  0  0  0  0
   37.5630   30.6740   48.9880 C   0  0  0  0  0  0  0  0  0  0  0  0
   37.5050   31.7820   49.7760 N   0  0  0  0  0  0  0  0  0  0  0  0
   38.1350   33.8310   49.9660 H   0  0  0  0  0  0  0  0  0  0  0  0
   39.3800   33.8260   47.8240 H   0  0  0  0  0  0  0  0  0  0  0  0
   39.4360   31.8020   46.4710 H   0  0  0  0  0  0  0  0  0  0  0  0
   33.7810   27.5640   48.1110 C   0  0  0  0  0  0  0  0  0  0  0  0
   34.2140   26.4370   47.6480 O   0  0  0  0  0  0  0  0  0  0  0  0
   32.5830   28.0880   47.6430 O   0  0  0  0  0  0  0  0  0  0  0  0
   31.3650   27.8290   48.2100 C   0  0  0  0  0  0  0  0  0  0  0  0
   31.0130   28.0830   49.6300 C   0  0  0  0  0  0  0  0  0  0  0  0
   29.7640   27.7740   50.0370 C   0  0  0  0  0  0  0  0  0  0  0  0
   28.8140   27.2280   49.1550 C   0  0  0  0  0  0  0  0  0  0  0  0
   29.7400   27.1120   47.5420 S   0  0  0  0  0  0  0  0  0  0  0  0
   31.7910   28.5010   50.2400 H   0  0  0  0  0  0  0  0  0  0  0  0
   29.4570   27.9400   51.0560 H   0  0  0  0  0  0  0  0  0  0  0  0
   27.5040   26.8200   49.2710 C   0  0  0  0  0  3  0  0  0  0  0  0
   27.0300   26.8110   50.7010 C   0  0  0  0  0  2  0  0  0  0  0  0
   26.4920   28.1760   50.9300 C   0  0  0  0  0  2  0  0  0  0  0  0
   25.9340   28.6120   49.6050 C   0  0  0  0  0  2  0  0  0  0  0  0
   26.4640   27.6560   48.5680 C   0  0  0  0  0  2  0  0  0  0  0  0
  1  4  1  6  0  0  0
  1  3  1  0  0  0  0
  1  8  1  0  0  0  0
  1  2  1  0  0  0  0
  2  6  1  0  0  0  0
  3  2  1  0  0  0  0
  3  7  1  1  0  0  0
  5  2  1  0  0  0  0
  8 10  1  0  0  0  0
  9  8  1  0  0  0  0
 11 16  1  0  0  0  0
 11 17  1  0  0  0  0
 12 11  2  0  0  0  0
 13 14  2  0  0  0  0
 13 12  1  0  0  0  0
 14 15  1  0  0  0  0
 15  8  1  0  0  0  0
 15 16  2  0  0  0  0
 18 12  1  0  0  0  0
 19 13  1  0  0  0  0
 20  3  1  0  0  0  0
 21 20  2  0  0  0  0
 22 20  1  0  0  0  0
 22 23  1  0  0  0  0
 23 24  2  0  0  0  0
 24 25  1  0  0  0  0
 24 28  1  0  0  0  0
 25 29  1  0  0  0  0
 26 30  1  0  0  0  0
 26 25  2  0  0  0  0
 27 23  1  0  0  0  0
 27 26  1  0  0  0  0
 30 31  1  0  0  0  0
 31 32  1  0  0  0  0
 33 32  1  0  0  0  0
 34 30  1  0  0  0  0
 34 33  1  0  0  0  0
M  END
>  <minimizedAffinity>
-6.13429356

>  <minimizedRMSD>
0.965789974

$$$$
