
 OpenBabel03252514053D

 34 37  0  0  1  0  0  0  0  0999 V2000
   35.3730   29.4360   48.8940 C   0  0  2  0  0  0  0  0  0  0  0  0
   34.2300   29.3760   49.7980 C   0  0  0  0  0  0  0  0  0  0  0  0
   34.6100   28.1120   49.2330 C   0  0  1  0  0  0  0  0  0  0  0  0
   35.3180   29.6960   47.8340 H   0  0  0  0  0  0  0  0  0  0  0  0
   33.2690   29.8630   49.5240 H   0  0  0  0  0  0  0  0  0  0  0  0
   34.4360   29.5360   50.8970 H   0  0  0  0  0  0  0  0  0  0  0  0
   35.2670   27.3390   49.6420 H   0  0  0  0  0  0  0  0  0  0  0  0
   36.7600   29.4380   49.5600 C   0  0  0  0  0  0  0  0  0  0  0  0
   37.2680   28.4790   49.3550 H   0  0  0  0  0  0  0  0  0  0  0  0
   36.6360   29.5180   50.6590 H   0  0  0  0  0  0  0  0  0  0  0  0
   38.1500   32.8140   49.4460 C   0  0  0  0  0  0  0  0  0  0  0  0
   38.8260   32.8280   48.2070 C   0  0  0  0  0  0  0  0  0  0  0  0
   38.7880   31.6490   47.4250 C   0  0  0  0  0  0  0  0  0  0  0  0
   38.1000   30.5690   47.9130 N   0  0  0  0  0  0  0  0  0  0  0  0
   37.4760   30.6140   49.0950 C   0  0  0  0  0  0  0  0  0  0  0  0
   37.5080   31.7440   49.8540 N   0  0  0  0  0  0  0  0  0  0  0  0
   38.2430   33.7640   49.9590 H   0  0  0  0  0  0  0  0  0  0  0  0
   39.3870   33.6440   47.7640 H   0  0  0  0  0  0  0  0  0  0  0  0
   39.2840   31.5860   46.4670 H   0  0  0  0  0  0  0  0  0  0  0  0
   33.6910   27.5930   48.1440 C   0  0  0  0  0  0  0  0  0  0  0  0
   34.0300   26.4250   47.7030 O   0  0  0  0  0  0  0  0  0  0  0  0
   32.5740   28.2310   47.6190 O   0  0  0  0  0  0  0  0  0  0  0  0
   31.2920   27.9830   48.0270 C   0  0  0  0  0  0  0  0  0  0  0  0
   30.9050   27.4900   49.3730 C   0  0  0  0  0  0  0  0  0  0  0  0
   29.5920   27.2950   49.6210 C   0  0  0  0  0  0  0  0  0  0  0  0
   28.6110   27.5470   48.6460 C   0  0  0  0  0  0  0  0  0  0  0  0
   29.6010   28.1290   47.1780 S   0  0  0  0  0  0  0  0  0  0  0  0
   31.7100   27.3220   50.0620 H   0  0  0  0  0  0  0  0  0  0  0  0
   29.2570   26.9410   50.5820 H   0  0  0  0  0  0  0  0  0  0  0  0
   27.2380   27.4450   48.6000 C   0  0  0  0  0  3  0  0  0  0  0  0
   26.5770   28.0580   49.8070 C   0  0  0  0  0  2  0  0  0  0  0  0
   26.3580   29.4800   49.4360 C   0  0  0  0  0  2  0  0  0  0  0  0
   26.1170   29.4730   47.9520 C   0  0  0  0  0  2  0  0  0  0  0  0
   26.5420   28.1190   47.4440 C   0  0  0  0  0  2  0  0  0  0  0  0
  1  4  1  6  0  0  0
  1  3  1  0  0  0  0
  1  8  1  0  0  0  0
  1  2  1  0  0  0  0
  2  6  1  0  0  0  0
  3  7  1  1  0  0  0
  3  2  1  0  0  0  0
  5  2  1  0  0  0  0
  8 10  1  0  0  0  0
  9  8  1  0  0  0  0
 11 16  1  0  0  0  0
 11 17  1  0  0  0  0
 12 11  2  0  0  0  0
 13 14  2  0  0  0  0
 13 12  1  0  0  0  0
 14 15  1  0  0  0  0
 15  8  1  0  0  0  0
 15 16  2  0  0  0  0
 18 12  1  0  0  0  0
 19 13  1  0  0  0  0
 20  3  1  0  0  0  0
 21 20  2  0  0  0  0
 22 23  1  0  0  0  0
 22 20  1  0  0  0  0
 23 24  2  0  0  0  0
 24 25  1  0  0  0  0
 24 28  1  0  0  0  0
 25 29  1  0  0  0  0
 26 25  2  0  0  0  0
 27 23  1  0  0  0  0
 27 26  1  0  0  0  0
 30 26  1  0  0  0  0
 30 31  1  0  0  0  0
 32 31  1  0  0  0  0
 33 32  1  0  0  0  0
 34 33  1  0  0  0  0
 34 30  1  0  0  0  0
M  END
>  <minimizedAffinity>
-6.23054361

>  <minimizedRMSD>
0.633755803

$$$$
