
 OpenBabel03252514053D

 34 37  0  0  1  0  0  0  0  0999 V2000
   35.3630   29.4330   48.9100 C   0  0  2  0  0  0  0  0  0  0  0  0
   34.2230   29.3570   49.8160 C   0  0  0  0  0  0  0  0  0  0  0  0
   34.6080   28.1020   49.2360 C   0  0  1  0  0  0  0  0  0  0  0  0
   35.3030   29.7050   47.8520 H   0  0  0  0  0  0  0  0  0  0  0  0
   33.2590   29.8420   49.5510 H   0  0  0  0  0  0  0  0  0  0  0  0
   34.4320   29.5060   50.9160 H   0  0  0  0  0  0  0  0  0  0  0  0
   35.2700   27.3280   49.6340 H   0  0  0  0  0  0  0  0  0  0  0  0
   36.7520   29.4350   49.5710 C   0  0  0  0  0  0  0  0  0  0  0  0
   37.2570   28.4730   49.3700 H   0  0  0  0  0  0  0  0  0  0  0  0
   36.6320   29.5220   50.6690 H   0  0  0  0  0  0  0  0  0  0  0  0
   38.1540   32.8050   49.4350 C   0  0  0  0  0  0  0  0  0  0  0  0
   38.8240   32.8100   48.1910 C   0  0  0  0  0  0  0  0  0  0  0  0
   38.7760   31.6290   47.4150 C   0  0  0  0  0  0  0  0  0  0  0  0
   38.0870   30.5540   47.9120 N   0  0  0  0  0  0  0  0  0  0  0  0
   37.4700   30.6060   49.0970 C   0  0  0  0  0  0  0  0  0  0  0  0
   37.5110   31.7390   49.8500 N   0  0  0  0  0  0  0  0  0  0  0  0
   38.2550   33.7570   49.9430 H   0  0  0  0  0  0  0  0  0  0  0  0
   39.3850   33.6230   47.7420 H   0  0  0  0  0  0  0  0  0  0  0  0
   39.2670   31.5600   46.4540 H   0  0  0  0  0  0  0  0  0  0  0  0
   33.6880   27.5890   48.1440 C   0  0  0  0  0  0  0  0  0  0  0  0
   34.0250   26.4240   47.6970 O   0  0  0  0  0  0  0  0  0  0  0  0
   32.5720   28.2330   47.6230 O   0  0  0  0  0  0  0  0  0  0  0  0
   31.2900   27.9830   48.0290 C   0  0  0  0  0  0  0  0  0  0  0  0
   30.9010   27.4860   49.3730 C   0  0  0  0  0  0  0  0  0  0  0  0
   29.5880   27.2910   49.6200 C   0  0  0  0  0  0  0  0  0  0  0  0
   28.6080   27.5470   48.6440 C   0  0  0  0  0  0  0  0  0  0  0  0
   29.5990   28.1330   47.1790 S   0  0  0  0  0  0  0  0  0  0  0  0
   31.7060   27.3150   50.0620 H   0  0  0  0  0  0  0  0  0  0  0  0
   29.2530   26.9330   50.5780 H   0  0  0  0  0  0  0  0  0  0  0  0
   27.2350   27.4450   48.5980 C   0  0  0  0  0  3  0  0  0  0  0  0
   26.5740   28.0570   49.8050 C   0  0  0  0  0  2  0  0  0  0  0  0
   26.3550   29.4780   49.4370 C   0  0  0  0  0  2  0  0  0  0  0  0
   26.1160   29.4750   47.9530 C   0  0  0  0  0  2  0  0  0  0  0  0
   26.5410   28.1230   47.4420 C   0  0  0  0  0  2  0  0  0  0  0  0
  1  4  1  6  0  0  0
  1  3  1  0  0  0  0
  1  8  1  0  0  0  0
  1  2  1  0  0  0  0
  2  6  1  0  0  0  0
  3  7  1  1  0  0  0
  3  2  1  0  0  0  0
  5  2  1  0  0  0  0
  8 10  1  0  0  0  0
  9  8  1  0  0  0  0
 11 16  1  0  0  0  0
 11 17  1  0  0  0  0
 12 11  2  0  0  0  0
 13 14  2  0  0  0  0
 13 12  1  0  0  0  0
 14 15  1  0  0  0  0
 15  8  1  0  0  0  0
 15 16  2  0  0  0  0
 18 12  1  0  0  0  0
 19 13  1  0  0  0  0
 20  3  1  0  0  0  0
 21 20  2  0  0  0  0
 22 23  1  0  0  0  0
 22 20  1  0  0  0  0
 23 24  2  0  0  0  0
 24 25  1  0  0  0  0
 24 28  1  0  0  0  0
 25 29  1  0  0  0  0
 26 25  2  0  0  0  0
 27 23  1  0  0  0  0
 27 26  1  0  0  0  0
 30 26  1  0  0  0  0
 30 31  1  0  0  0  0
 32 31  1  0  0  0  0
 33 32  1  0  0  0  0
 34 33  1  0  0  0  0
 34 30  1  0  0  0  0
M  END
>  <minimizedAffinity>
-6.23295975

>  <minimizedRMSD>
0.881921053

$$$$
