
 OpenBabel03252510403D

 33 36  0  0  0  0  0  0  0  0999 V2000
   36.7690   29.0040   49.6930 C   0  0  0  0  0  0  0  0  0  0  0  0
   37.6250   29.7740   48.8820 C   0  0  0  0  0  0  0  0  0  0  0  0
   37.0420   30.8780   48.1700 C   0  0  0  0  0  0  0  0  0  0  0  0
   35.6930   31.0820   48.3450 N   0  0  0  0  0  0  0  0  0  0  0  0
   34.9270   30.3210   49.1260 C   0  0  0  0  0  0  0  0  0  0  0  0
   35.4550   29.2830   49.8020 N   0  0  0  0  0  0  0  0  0  0  0  0
   37.8080   31.7110   47.3310 N   0  0  0  0  0  0  0  0  0  0  0  0
   38.6760   32.7320   47.9680 C   0  0  0  0  0  0  0  0  0  0  0  0
   39.7770   33.1110   47.0460 C   0  0  0  0  0  0  0  0  0  0  0  0
   39.2980   33.3910   45.6880 N   0  0  0  0  0  0  0  0  0  0  0  0
   38.4760   32.3950   45.0890 C   0  0  0  0  0  0  0  0  0  0  0  0
   37.6920   31.5120   45.9450 C   0  0  0  0  0  0  0  0  0  0  0  0
   37.3210   28.1980   50.1820 H   0  0  0  0  0  0  0  0  0  0  0  0
   38.6740   29.5880   48.7670 H   0  0  0  0  0  0  0  0  0  0  0  0
   33.8690   30.5170   49.2360 H   0  0  0  0  0  0  0  0  0  0  0  0
   38.0340   33.6170   48.2100 H   0  0  0  0  0  0  0  0  0  0  0  0
   39.0940   32.2860   48.8730 H   0  0  0  0  0  0  0  0  0  0  0  0
   40.6120   32.3940   47.0610 H   0  0  0  0  0  0  0  0  0  0  0  0
   40.2060   34.0880   47.3900 H   0  0  0  0  0  0  0  0  0  0  0  0
   39.4910   34.2380   45.1080 H   0  0  0  0  0  0  0  0  0  0  0  0
   38.4100   32.2710   44.0400 H   0  0  0  0  0  0  0  0  0  0  0  0
   36.9480   30.6010   45.2160 N   0  0  0  0  0  0  0  0  0  0  0  0
   35.6190   30.3910   45.3340 C   0  0  0  0  0  0  0  0  0  0  0  0
   35.1600   29.4210   44.4650 C   0  0  0  0  0  0  0  0  0  0  0  0
   36.2550   28.9980   43.7640 N   0  0  0  0  0  0  0  0  0  0  0  0
   37.2910   29.7370   44.2550 C   0  0  0  0  0  0  0  0  0  0  0  0
   34.9230   30.8930   46.0170 H   0  0  0  0  0  0  0  0  0  0  0  0
   34.1680   29.0530   44.3390 H   0  0  0  0  0  0  0  0  0  0  0  0
   38.6870   29.5590   43.7300 C   0  0  0  0  0  0  0  0  0  0  0  0
   38.8890   28.1000   43.3900 C   0  0  0  0  0  0  0  0  0  0  0  0
   40.1310   28.1790   42.5280 C   0  0  0  0  0  0  0  0  0  0  0  0
   40.0370   29.5230   41.8110 C   0  0  0  0  0  0  0  0  0  0  0  0
   38.9330   30.2980   42.4560 C   0  0  0  0  0  0  0  0  0  0  0  0
  1  6  1  0  0  0  0
  1 13  1  0  0  0  0
  2  1  2  0  0  0  0
  3  4  2  0  0  0  0
  3  2  1  0  0  0  0
  4  5  1  0  0  0  0
  5 15  1  0  0  0  0
  5  6  2  0  0  0  0
  7  8  1  0  0  0  0
  7  3  1  0  0  0  0
  8 16  1  0  0  0  0
  8 17  1  0  0  0  0
  9 18  1  0  0  0  0
  9 19  1  0  0  0  0
  9  8  1  0  0  0  0
 10  9  1  0  0  0  0
 11 10  1  0  0  0  0
 11 12  2  0  0  0  0
 12  7  1  0  0  0  0
 14  2  1  0  0  0  0
 20 10  1  0  0  0  0
 21 11  1  0  0  0  0
 22 23  1  0  0  0  0
 22 12  1  0  0  0  0
 23 27  1  0  0  0  0
 24 23  2  0  0  0  0
 25 26  2  0  0  0  0
 25 24  1  0  0  0  0
 26 22  1  0  0  0  0
 28 24  1  0  0  0  0
 29 26  1  0  0  0  0
 30 29  1  0  0  0  0
 31 30  1  0  0  0  0
 32 33  1  0  0  0  0
 32 31  1  0  0  0  0
 33 29  1  0  0  0  0
M  END
>  <minimizedAffinity>
-4.82274437

>  <minimizedRMSD>
3.09239388

$$$$
