
 OpenBabel03252514053D

 34 37  0  0  1  0  0  0  0  0999 V2000
   35.3680   29.4330   48.8990 C   0  0  2  0  0  0  0  0  0  0  0  0
   34.2250   29.3670   49.8030 C   0  0  0  0  0  0  0  0  0  0  0  0
   34.6080   28.1060   49.2330 C   0  0  1  0  0  0  0  0  0  0  0  0
   35.3110   29.6970   47.8400 H   0  0  0  0  0  0  0  0  0  0  0  0
   33.2630   29.8530   49.5320 H   0  0  0  0  0  0  0  0  0  0  0  0
   34.4320   29.5230   50.9030 H   0  0  0  0  0  0  0  0  0  0  0  0
   35.2660   27.3340   49.6390 H   0  0  0  0  0  0  0  0  0  0  0  0
   36.7550   29.4350   49.5640 C   0  0  0  0  0  0  0  0  0  0  0  0
   37.2620   28.4750   49.3630 H   0  0  0  0  0  0  0  0  0  0  0  0
   36.6320   29.5200   50.6620 H   0  0  0  0  0  0  0  0  0  0  0  0
   38.1560   32.8070   49.4370 C   0  0  0  0  0  0  0  0  0  0  0  0
   38.8270   32.8150   48.1950 C   0  0  0  0  0  0  0  0  0  0  0  0
   38.7800   31.6360   47.4150 C   0  0  0  0  0  0  0  0  0  0  0  0
   38.0910   30.5590   47.9080 N   0  0  0  0  0  0  0  0  0  0  0  0
   37.4730   30.6080   49.0940 C   0  0  0  0  0  0  0  0  0  0  0  0
   37.5130   31.7390   49.8500 N   0  0  0  0  0  0  0  0  0  0  0  0
   38.2560   33.7570   49.9480 H   0  0  0  0  0  0  0  0  0  0  0  0
   39.3880   33.6290   47.7480 H   0  0  0  0  0  0  0  0  0  0  0  0
   39.2710   31.5690   46.4540 H   0  0  0  0  0  0  0  0  0  0  0  0
   33.6890   27.5890   48.1430 C   0  0  0  0  0  0  0  0  0  0  0  0
   34.0270   26.4220   47.7000 O   0  0  0  0  0  0  0  0  0  0  0  0
   32.5720   28.2290   47.6190 O   0  0  0  0  0  0  0  0  0  0  0  0
   31.2900   27.9810   48.0270 C   0  0  0  0  0  0  0  0  0  0  0  0
   30.9030   27.4900   49.3740 C   0  0  0  0  0  0  0  0  0  0  0  0
   29.5900   27.2960   49.6220 C   0  0  0  0  0  0  0  0  0  0  0  0
   28.6090   27.5470   48.6460 C   0  0  0  0  0  0  0  0  0  0  0  0
   29.5990   28.1270   47.1780 S   0  0  0  0  0  0  0  0  0  0  0  0
   31.7080   27.3230   50.0630 H   0  0  0  0  0  0  0  0  0  0  0  0
   29.2550   26.9440   50.5830 H   0  0  0  0  0  0  0  0  0  0  0  0
   27.2360   27.4450   48.6010 C   0  0  0  0  0  3  0  0  0  0  0  0
   26.5750   28.0580   49.8070 C   0  0  0  0  0  2  0  0  0  0  0  0
   26.3560   29.4790   49.4370 C   0  0  0  0  0  2  0  0  0  0  0  0
   26.1150   29.4740   47.9540 C   0  0  0  0  0  2  0  0  0  0  0  0
   26.5400   28.1200   47.4440 C   0  0  0  0  0  2  0  0  0  0  0  0
  1  4  1  6  0  0  0
  1  3  1  0  0  0  0
  1  8  1  0  0  0  0
  1  2  1  0  0  0  0
  2  6  1  0  0  0  0
  3  7  1  1  0  0  0
  3  2  1  0  0  0  0
  5  2  1  0  0  0  0
  8 10  1  0  0  0  0
  9  8  1  0  0  0  0
 11 16  1  0  0  0  0
 11 17  1  0  0  0  0
 12 11  2  0  0  0  0
 13 14  2  0  0  0  0
 13 12  1  0  0  0  0
 14 15  1  0  0  0  0
 15  8  1  0  0  0  0
 15 16  2  0  0  0  0
 18 12  1  0  0  0  0
 19 13  1  0  0  0  0
 20  3  1  0  0  0  0
 21 20  2  0  0  0  0
 22 23  1  0  0  0  0
 22 20  1  0  0  0  0
 23 24  2  0  0  0  0
 24 25  1  0  0  0  0
 24 28  1  0  0  0  0
 25 29  1  0  0  0  0
 26 25  2  0  0  0  0
 27 23  1  0  0  0  0
 27 26  1  0  0  0  0
 30 26  1  0  0  0  0
 30 31  1  0  0  0  0
 32 31  1  0  0  0  0
 33 32  1  0  0  0  0
 34 33  1  0  0  0  0
 34 30  1  0  0  0  0
M  END
>  <minimizedAffinity>
-6.23364735

>  <minimizedRMSD>
0.733599484

$$$$
