REMARK  Name = 
REMARK  2 active torsions:
REMARK  status: ('A' for Active; 'I' for Inactive)
REMARK    1  A    between atoms: N_1  and  C_11
REMARK    2  A    between atoms: C_14  and  C_23
REMARK                            x       y       z     vdW  Elec       q    Type
REMARK                         _______ _______ _______ _____ _____    ______ ____
ROOT
ATOM      1  N   UNL     1      37.803  31.819  49.070  0.00  0.00    +0.000 N 
ATOM      2  C   UNL     1      38.199  33.040  49.474  0.00  0.00    +0.000 A 
ATOM      3  N   UNL     1      38.946  33.599  48.490  0.00  0.00    +0.000 NA
ATOM      4  C   UNL     1      39.001  32.709  47.482  0.00  0.00    +0.000 A 
ATOM      5  C   UNL     1      39.605  32.717  46.242  0.00  0.00    +0.000 A 
ATOM      6  N   UNL     1      39.498  31.664  45.408  0.00  0.00    +0.000 NA
ATOM      7  C   UNL     1      38.800  30.559  45.745  0.00  0.00    +0.000 A 
ATOM      8  N   UNL     1      38.218  30.564  46.955  0.00  0.00    +0.000 NA
ATOM      9  C   UNL     1      38.291  31.589  47.829  0.00  0.00    +0.000 A 
ATOM     10  N   UNL     1      40.349  33.838  45.827  0.00  0.00    +0.000 N 
ATOM     11  H   UNL     1      37.983  33.537  50.418  0.00  0.00    +0.000 HD
ATOM     12  H   UNL     1      38.688  29.699  45.115  0.00  0.00    +0.000 HD
ATOM     13  H   UNL     1      39.997  34.196  44.895  0.00  0.00    +0.000 HD
ATOM     14  H   UNL     1      41.095  34.086  46.525  0.00  0.00    +0.000 HD
ENDROOT
BRANCH   1  16
ATOM     15  C   UNL     1      35.691  30.666  49.405  0.00  0.00    +0.000 A 
ATOM     16  C   UNL     1      37.006  30.937  49.835  0.00  0.00    +0.000 A 
ATOM     17  C   UNL     1      37.409  30.292  51.004  0.00  0.00    +0.000 A 
ATOM     18  N   UNL     1      36.541  29.466  51.644  0.00  0.00    +0.000 NA
ATOM     19  C   UNL     1      35.302  29.238  51.201  0.00  0.00    +0.000 A 
ATOM     20  N   UNL     1      34.863  29.842  50.068  0.00  0.00    +0.000 NA
ATOM     21  H   UNL     1      35.327  31.153  48.486  0.00  0.00    +0.000 HD
ATOM     22  H   UNL     1      38.419  30.512  51.316  0.00  0.00    +0.000 HD
BRANCH  19  23
ATOM     23  C   UNL     1      34.497  28.300  52.040  0.00  0.00    +0.000 C 
ATOM     24  C   UNL     1      33.401  29.009  52.773  0.00  0.00    +0.000 C 
ATOM     25  C   UNL     1      32.123  28.736  52.035  0.00  0.00    +0.000 C 
ATOM     26  C   UNL     1      32.387  27.660  51.017  0.00  0.00    +0.000 C 
ATOM     27  C   UNL     1      33.828  27.246  51.165  0.00  0.00    +0.000 C 
ENDBRANCH  19  23
ENDBRANCH   1  16
TORSDOF 2
