REMARK  Name = 
REMARK  3 active torsions:
REMARK  status: ('A' for Active; 'I' for Inactive)
REMARK    1  A    between atoms: C_5  and  C_7
REMARK    2  A    between atoms: C_7  and  C_8
REMARK    3  A    between atoms: C_10  and  C_20
REMARK                            x       y       z     vdW  Elec       q    Type
REMARK                         _______ _______ _______ _____ _____    ______ ____
ROOT
ATOM      1  C   UNL     1      36.838  29.383  49.676  0.00  0.00    +0.000 C 
ATOM      2  H   UNL     1      36.774  29.437  50.784  0.00  0.00    +0.000 HD
ATOM      3  H   UNL     1      37.319  28.449  49.351  0.00  0.00    +0.000 HD
ENDROOT
BRANCH   1   8
ATOM      4  C   UNL     1      38.408  32.694  49.398  0.00  0.00    +0.000 A 
ATOM      5  C   UNL     1      38.907  32.704  48.075  0.00  0.00    +0.000 A 
ATOM      6  C   UNL     1      38.688  31.561  47.308  0.00  0.00    +0.000 A 
ATOM      7  N   UNL     1      38.017  30.508  47.856  0.00  0.00    +0.000 NA
ATOM      8  C   UNL     1      37.554  30.546  49.137  0.00  0.00    +0.000 A 
ATOM      9  N   UNL     1      37.762  31.644  49.883  0.00  0.00    +0.000 NA
ATOM     10  H   UNL     1      38.604  33.608  49.958  0.00  0.00    +0.000 HD
ATOM     11  H   UNL     1      39.437  33.553  47.664  0.00  0.00    +0.000 HD
ATOM     12  H   UNL     1      39.050  31.521  46.291  0.00  0.00    +0.000 HD
ENDBRANCH   1   8
BRANCH   1  13
ATOM     13  C   UNL     1      35.416  29.449  49.155  0.00  0.00    +0.000 C 
ATOM     14  C   UNL     1      34.285  29.444  50.114  0.00  0.00    +0.000 C 
ATOM     15  C   UNL     1      34.598  28.203  49.390  0.00  0.00    +0.000 C 
ATOM     16  H   UNL     1      35.286  29.857  48.124  0.00  0.00    +0.000 HD
ATOM     17  H   UNL     1      33.492  30.153  49.865  0.00  0.00    +0.000 HD
ATOM     18  H   UNL     1      34.564  29.518  51.205  0.00  0.00    +0.000 HD
ATOM     19  H   UNL     1      35.064  27.391  50.017  0.00  0.00    +0.000 HD
BRANCH  15  20
ATOM     20  C   UNL     1      33.727  27.656  48.292  0.00  0.00    +0.000 C 
ATOM     21  C   UNL     1      33.843  26.153  48.127  0.00  0.00    +0.000 C 
ATOM     22  C   UNL     1      35.065  25.930  47.295  0.00  0.00    +0.000 C 
ATOM     23  C   UNL     1      35.586  27.319  46.918  0.00  0.00    +0.000 C 
ATOM     24  C   UNL     1      34.296  28.108  46.963  0.00  0.00    +0.000 C 
ENDBRANCH  15  20
ENDBRANCH   1  13
TORSDOF 3
