
 OpenBabel03252514063D

 27 30  0  0  0  0  0  0  0  0999 V2000
   36.7230   31.2350   48.7460 N   0  0  0  0  0  0  0  0  0  0  0  0
   36.8530   32.0640   49.7980 C   0  0  0  0  0  0  0  0  0  0  0  0
   37.8550   32.9390   49.5370 N   0  0  0  0  0  0  0  0  0  0  0  0
   38.3340   32.6380   48.3150 C   0  0  0  0  0  0  0  0  0  0  0  0
   39.3370   33.1710   47.5320 C   0  0  0  0  0  0  0  0  0  0  0  0
   39.6150   32.6620   46.3160 N   0  0  0  0  0  0  0  0  0  0  0  0
   38.9310   31.6140   45.8100 C   0  0  0  0  0  0  0  0  0  0  0  0
   37.9590   31.1050   46.5830 N   0  0  0  0  0  0  0  0  0  0  0  0
   37.6360   31.5740   47.8060 C   0  0  0  0  0  0  0  0  0  0  0  0
   40.0900   34.2650   47.9990 N   0  0  0  0  0  0  0  0  0  0  0  0
   36.2780   32.0700   50.7220 H   0  0  0  0  0  0  0  0  0  0  0  0
   39.1170   31.1770   44.8490 H   0  0  0  0  0  0  0  0  0  0  0  0
   40.0660   35.0600   47.3000 H   0  0  0  0  0  0  0  0  0  0  0  0
   40.5180   34.0670   48.9380 H   0  0  0  0  0  0  0  0  0  0  0  0
   34.7150   30.3100   47.7390 C   0  0  0  0  0  0  0  0  0  0  0  0
   35.7770   30.1880   48.6580 C   0  0  0  0  0  0  0  0  0  0  0  0
   35.7970   29.0160   49.4130 C   0  0  0  0  0  0  0  0  0  0  0  0
   34.8240   28.0860   49.2280 N   0  0  0  0  0  0  0  0  0  0  0  0
   33.8350   28.2430   48.3450 C   0  0  0  0  0  0  0  0  0  0  0  0
   33.7710   29.3660   47.5870 N   0  0  0  0  0  0  0  0  0  0  0  0
   34.6570   31.2200   47.1190 H   0  0  0  0  0  0  0  0  0  0  0  0
   36.6180   28.9420   50.1100 H   0  0  0  0  0  0  0  0  0  0  0  0
   32.8600   27.1120   48.2860 C   0  0  0  0  0  0  0  0  0  0  0  0
   31.4860   27.5390   48.7020 C   0  0  0  0  0  0  0  0  0  0  0  0
   30.6770   27.7130   47.4500 C   0  0  0  0  0  0  0  0  0  0  0  0
   31.4620   27.1470   46.2980 C   0  0  0  0  0  0  0  0  0  0  0  0
   32.7420   26.5870   46.8600 C   0  0  0  0  0  0  0  0  0  0  0  0
  1  2  1  0  0  0  0
  2 11  1  0  0  0  0
  3  2  2  0  0  0  0
  4  3  1  0  0  0  0
  5 10  1  0  0  0  0
  5  4  2  0  0  0  0
  6  5  1  0  0  0  0
  7  6  2  0  0  0  0
  7  8  1  0  0  0  0
  8  9  2  0  0  0  0
  9  4  1  0  0  0  0
  9  1  1  0  0  0  0
 10 14  1  0  0  0  0
 12  7  1  0  0  0  0
 13 10  1  0  0  0  0
 15 16  1  0  0  0  0
 16  1  1  0  0  0  0
 16 17  2  0  0  0  0
 17 22  1  0  0  0  0
 18 17  1  0  0  0  0
 19 18  2  0  0  0  0
 20 15  2  0  0  0  0
 20 19  1  0  0  0  0
 21 15  1  0  0  0  0
 23 19  1  0  0  0  0
 23 24  1  0  0  0  0
 25 24  1  0  0  0  0
 26 27  1  0  0  0  0
 26 25  1  0  0  0  0
 27 23  1  0  0  0  0
M  END
>  <minimizedAffinity>
-5.83152914

>  <minimizedRMSD>
2.85397768

$$$$
