
 OpenBabel03252513583D

 24 26  0  0  1  0  0  0  0  0999 V2000
   36.6360   29.4440   49.3800 C   0  0  0  0  0  0  0  0  0  0  0  0
   36.7280   29.2390   50.4690 H   0  0  0  0  0  0  0  0  0  0  0  0
   36.9830   28.5880   48.7840 H   0  0  0  0  0  0  0  0  0  0  0  0
   37.9440   32.8780   49.4200 C   0  0  0  0  0  0  0  0  0  0  0  0
   38.7810   32.9170   48.2810 C   0  0  0  0  0  0  0  0  0  0  0  0
   38.8730   31.7510   47.5240 C   0  0  0  0  0  0  0  0  0  0  0  0
   38.1680   30.6490   47.9070 N   0  0  0  0  0  0  0  0  0  0  0  0
   37.3730   30.6600   49.0140 C   0  0  0  0  0  0  0  0  0  0  0  0
   37.2790   31.7800   49.7500 N   0  0  0  0  0  0  0  0  0  0  0  0
   37.9050   33.8120   49.9800 H   0  0  0  0  0  0  0  0  0  0  0  0
   39.3300   33.8050   47.9980 H   0  0  0  0  0  0  0  0  0  0  0  0
   39.4990   31.7320   46.6440 H   0  0  0  0  0  0  0  0  0  0  0  0
   35.1680   29.7090   49.1110 C   0  0  2  0  0  0  0  0  0  0  0  0
   34.1510   29.2560   50.0900 C   0  0  0  0  0  0  0  0  0  0  0  0
   34.3380   28.4740   48.8590 C   0  0  1  0  0  0  0  0  0  0  0  0
   34.9380   30.5320   48.3920 H   0  0  0  0  0  0  0  0  0  0  0  0
   33.3610   29.9870   50.2760 H   0  0  0  0  0  0  0  0  0  0  0  0
   34.5520   28.8410   51.0600 H   0  0  0  0  0  0  0  0  0  0  0  0
   34.8420   27.4770   49.0010 H   0  0  0  0  0  0  0  0  0  0  0  0
   33.3320   28.4590   47.7410 C   0  0  0  0  0  3  0  0  0  0  0  0
   32.0060   27.8360   48.1350 C   0  0  0  0  0  2  0  0  0  0  0  0
   32.2000   26.3590   48.0080 C   0  0  0  0  0  2  0  0  0  0  0  0
   33.6130   26.1570   47.4540 C   0  0  0  0  0  2  0  0  0  0  0  0
   33.7900   27.4570   46.7010 C   0  0  0  0  0  2  0  0  0  0  0  0
  1  2  1  0  0  0  0
  3  1  1  0  0  0  0
  4  9  1  0  0  0  0
  4 10  1  0  0  0  0
  5  4  2  0  0  0  0
  6  7  2  0  0  0  0
  6  5  1  0  0  0  0
  7  8  1  0  0  0  0
  8  1  1  0  0  0  0
  8  9  2  0  0  0  0
 11  5  1  0  0  0  0
 12  6  1  0  0  0  0
 13 16  1  6  0  0  0
 13  1  1  0  0  0  0
 13 14  1  0  0  0  0
 14 17  1  0  0  0  0
 14 18  1  0  0  0  0
 15 19  1  1  0  0  0
 15 13  1  0  0  0  0
 15 14  1  0  0  0  0
 20 21  1  0  0  0  0
 20 15  1  0  0  0  0
 22 21  1  0  0  0  0
 23 22  1  0  0  0  0
 24 23  1  0  0  0  0
 24 20  1  0  0  0  0
M  END
>  <minimizedAffinity>
-4.96927357

>  <minimizedRMSD>
1.36636949

$$$$
