REMARK  Name = 
REMARK  6 active torsions:
REMARK  status: ('A' for Active; 'I' for Inactive)
REMARK    1  A    between atoms: C_1  and  C_4
REMARK    2  A    between atoms: C_3  and  C_11
REMARK    3  A    between atoms: C_4  and  C_9
REMARK    4  A    between atoms: C_11  and  O_13
REMARK    5  A    between atoms: O_13  and  C_14
REMARK    6  A    between atoms: C_17  and  C_30
REMARK                            x       y       z     vdW  Elec       q    Type
REMARK                         _______ _______ _______ _____ _____    ______ ____
ROOT
ATOM      1  C   UNL     1      35.297  29.408  48.989  0.00  0.00    +0.000 C 
ATOM      2  C   UNL     1      34.190  29.354  49.937  0.00  0.00    +0.000 C 
ATOM      3  C   UNL     1      34.534  28.090  49.350  0.00  0.00    +0.000 C 
ATOM      4  H   UNL     1      35.202  29.675  47.933  0.00  0.00    +0.000 HD
ATOM      5  H   UNL     1      33.224  29.853  49.705  0.00  0.00    +0.000 HD
ATOM      6  H   UNL     1      34.442  29.505  51.028  0.00  0.00    +0.000 HD
ATOM      7  H   UNL     1      35.198  27.308  49.728  0.00  0.00    +0.000 HD
ENDROOT
BRANCH   1   8
ATOM      8  C   UNL     1      36.709  29.391  49.599  0.00  0.00    +0.000 C 
ATOM      9  H   UNL     1      37.200  28.430  49.364  0.00  0.00    +0.000 HD
ATOM     10  H   UNL     1      36.630  29.461  50.702  0.00  0.00    +0.000 HD
BRANCH   8  15
ATOM     11  C   UNL     1      38.068  32.778  49.433  0.00  0.00    +0.000 A 
ATOM     12  C   UNL     1      38.751  32.776  48.197  0.00  0.00    +0.000 A 
ATOM     13  C   UNL     1      38.727  31.584  47.436  0.00  0.00    +0.000 A 
ATOM     14  N   UNL     1      38.047  30.506  47.939  0.00  0.00    +0.000 NA
ATOM     15  C   UNL     1      37.417  30.566  49.117  0.00  0.00    +0.000 A 
ATOM     16  N   UNL     1      37.434  31.709  49.856  0.00  0.00    +0.000 NA
ATOM     17  H   UNL     1      38.150  33.737  49.930  0.00  0.00    +0.000 HD
ATOM     18  H   UNL     1      39.306  33.590  47.743  0.00  0.00    +0.000 HD
ATOM     19  H   UNL     1      39.229  31.509  46.481  0.00  0.00    +0.000 HD
ENDBRANCH   8  15
ENDBRANCH   1   8
BRANCH   3  20
ATOM     20  C   UNL     1      33.566  27.587  48.296  0.00  0.00    +0.000 C 
ATOM     21  O   UNL     1      33.907  26.446  47.792  0.00  0.00    +0.000 OA
BRANCH  20  22
ATOM     22  O   UNL     1      32.406  28.215  47.860  0.00  0.00    +0.000 OA
BRANCH  22  23
ATOM     23  C   UNL     1      31.146  27.827  48.225  0.00  0.00    +0.000 A 
ATOM     24  C   UNL     1      30.630  27.803  49.617  0.00  0.00    +0.000 A 
ATOM     25  C   UNL     1      29.358  27.395  49.813  0.00  0.00    +0.000 A 
ATOM     26  C   UNL     1      28.536  27.002  48.742  0.00  0.00    +0.000 A 
ATOM     27  S   UNL     1      29.637  27.210  47.253  0.00  0.00    +0.000 S 
ATOM     28  H   UNL     1      31.317  28.118  50.379  0.00  0.00    +0.000 HD
ATOM     29  H   UNL     1      28.934  27.361  50.802  0.00  0.00    +0.000 HD
BRANCH  26  30
ATOM     30  C   UNL     1      27.240  26.549  48.628  0.00  0.00    +0.000 C 
ATOM     31  C   UNL     1      27.084  25.529  47.530  0.00  0.00    +0.000 C 
ATOM     32  C   UNL     1      27.349  24.223  48.186  0.00  0.00    +0.000 C 
ATOM     33  C   UNL     1      26.861  24.379  49.598  0.00  0.00    +0.000 C 
ATOM     34  C   UNL     1      26.652  25.854  49.831  0.00  0.00    +0.000 C 
ENDBRANCH  26  30
ENDBRANCH  22  23
ENDBRANCH  20  22
ENDBRANCH   3  20
TORSDOF 6
