
 OpenBabel03252510323D

 22 24  0  0  0  0  0  0  0  0999 V2000
   36.5190   30.9790   48.6170 C   0  0  0  0  0  0  0  0  0  0  0  0
   36.8070   31.7310   49.7220 C   0  0  0  0  0  0  0  0  0  0  0  0
   37.8380   32.6540   49.6280 C   0  0  0  0  0  0  0  0  0  0  0  0
   38.5560   32.8360   48.5090 N   0  0  0  0  0  0  0  0  0  0  0  0
   38.2400   32.0700   47.4340 C   0  0  0  0  0  0  0  0  0  0  0  0
   37.2340   31.1610   47.5080 N   0  0  0  0  0  0  0  0  0  0  0  0
   36.2380   31.5950   50.6270 H   0  0  0  0  0  0  0  0  0  0  0  0
   38.0950   33.2710   50.4890 H   0  0  0  0  0  0  0  0  0  0  0  0
   35.5320   28.9280   49.5240 C   0  0  0  0  0  0  0  0  0  0  0  0
   35.4590   29.9770   48.5900 C   0  0  0  0  0  0  0  0  0  0  0  0
   34.4010   30.0010   47.7070 C   0  0  0  0  0  0  0  0  0  0  0  0
   33.4640   29.0180   47.7630 N   0  0  0  0  0  0  0  0  0  0  0  0
   33.5490   28.0170   48.6690 C   0  0  0  0  0  0  0  0  0  0  0  0
   34.5660   27.9800   49.5310 N   0  0  0  0  0  0  0  0  0  0  0  0
   36.3210   28.8190   50.2600 H   0  0  0  0  0  0  0  0  0  0  0  0
   34.3920   30.8270   47.0100 H   0  0  0  0  0  0  0  0  0  0  0  0
   32.7240   27.3210   48.5780 H   0  0  0  0  0  0  0  0  0  0  0  0
   38.9490   32.1590   46.1210 C   0  0  0  0  0  0  0  0  0  0  0  0
   39.6790   30.9000   45.7550 C   0  0  0  0  0  0  0  0  0  0  0  0
   41.0390   31.3580   45.2690 C   0  0  0  0  0  0  0  0  0  0  0  0
   40.8630   32.8460   44.9770 C   0  0  0  0  0  0  0  0  0  0  0  0
   40.0260   33.2480   46.1930 C   0  0  0  0  0  0  0  0  0  0  0  0
  1  2  1  0  0  0  0
  2  7  1  0  0  0  0
  3  2  2  0  0  0  0
  3  8  1  0  0  0  0
  4  3  1  0  0  0  0
  5  6  1  0  0  0  0
  5  4  2  0  0  0  0
  6  1  2  0  0  0  0
  9 14  1  0  0  0  0
  9 15  1  0  0  0  0
 10  1  1  0  0  0  0
 10  9  2  0  0  0  0
 11 12  2  0  0  0  0
 11 10  1  0  0  0  0
 12 13  1  0  0  0  0
 13 14  2  0  0  0  0
 16 11  1  0  0  0  0
 17 13  1  0  0  0  0
 18 22  1  0  0  0  0
 18  5  1  0  0  0  0
 19 18  1  0  0  0  0
 20 19  1  0  0  0  0
 21 20  1  0  0  0  0
 21 22  1  0  0  0  0
M  END
>  <minimizedAffinity>
-5.99642754

>  <minimizedRMSD>
0.597168088

$$$$
