
 OpenBabel03252514053D

 34 37  0  0  1  0  0  0  0  0999 V2000
   35.3380   29.4480   48.9140 C   0  0  2  0  0  0  0  0  0  0  0  0
   34.2030   29.3570   49.8250 C   0  0  0  0  0  0  0  0  0  0  0  0
   34.5960   28.1080   49.2360 C   0  0  1  0  0  0  0  0  0  0  0  0
   35.2710   29.7250   47.8580 H   0  0  0  0  0  0  0  0  0  0  0  0
   33.2330   29.8350   49.5670 H   0  0  0  0  0  0  0  0  0  0  0  0
   34.4160   29.5010   50.9250 H   0  0  0  0  0  0  0  0  0  0  0  0
   35.2670   27.3380   49.6270 H   0  0  0  0  0  0  0  0  0  0  0  0
   36.7300   29.4580   49.5690 C   0  0  0  0  0  0  0  0  0  0  0  0
   37.2510   28.5120   49.3400 H   0  0  0  0  0  0  0  0  0  0  0  0
   36.6130   29.5140   50.6700 H   0  0  0  0  0  0  0  0  0  0  0  0
   37.9500   32.8990   49.4450 C   0  0  0  0  0  0  0  0  0  0  0  0
   38.7340   32.9060   48.2700 C   0  0  0  0  0  0  0  0  0  0  0  0
   38.8250   31.7010   47.5350 C   0  0  0  0  0  0  0  0  0  0  0  0
   38.1520   30.6030   48.0030 N   0  0  0  0  0  0  0  0  0  0  0  0
   37.4240   30.6550   49.1230 C   0  0  0  0  0  0  0  0  0  0  0  0
   37.3300   31.8110   49.8360 N   0  0  0  0  0  0  0  0  0  0  0  0
   37.9490   33.8700   49.9260 H   0  0  0  0  0  0  0  0  0  0  0  0
   39.2890   33.7360   47.8460 H   0  0  0  0  0  0  0  0  0  0  0  0
   39.4080   31.6320   46.6260 H   0  0  0  0  0  0  0  0  0  0  0  0
   33.6750   27.5940   48.1460 C   0  0  0  0  0  0  0  0  0  0  0  0
   34.0140   26.4300   47.6980 O   0  0  0  0  0  0  0  0  0  0  0  0
   32.5580   28.2350   47.6260 O   0  0  0  0  0  0  0  0  0  0  0  0
   31.2760   27.9820   48.0320 C   0  0  0  0  0  0  0  0  0  0  0  0
   30.8910   27.4620   49.3680 C   0  0  0  0  0  0  0  0  0  0  0  0
   29.5780   27.2660   49.6160 C   0  0  0  0  0  0  0  0  0  0  0  0
   28.5960   27.5400   48.6490 C   0  0  0  0  0  0  0  0  0  0  0  0
   29.5830   28.1490   47.1900 S   0  0  0  0  0  0  0  0  0  0  0  0
   31.6980   27.2790   50.0520 H   0  0  0  0  0  0  0  0  0  0  0  0
   29.2450   26.8930   50.5700 H   0  0  0  0  0  0  0  0  0  0  0  0
   27.2220   27.4420   48.6040 C   0  0  0  0  0  3  0  0  0  0  0  0
   26.5650   28.0570   49.8130 C   0  0  0  0  0  2  0  0  0  0  0  0
   26.3490   29.4780   49.4450 C   0  0  0  0  0  2  0  0  0  0  0  0
   26.1060   29.4750   47.9620 C   0  0  0  0  0  2  0  0  0  0  0  0
   26.5270   28.1210   47.4500 C   0  0  0  0  0  2  0  0  0  0  0  0
  1  4  1  6  0  0  0
  1  3  1  0  0  0  0
  1  8  1  0  0  0  0
  1  2  1  0  0  0  0
  2  6  1  0  0  0  0
  3  7  1  1  0  0  0
  3  2  1  0  0  0  0
  5  2  1  0  0  0  0
  8 10  1  0  0  0  0
  9  8  1  0  0  0  0
 11 16  1  0  0  0  0
 11 17  1  0  0  0  0
 12 11  2  0  0  0  0
 13 14  2  0  0  0  0
 13 12  1  0  0  0  0
 14 15  1  0  0  0  0
 15  8  1  0  0  0  0
 15 16  2  0  0  0  0
 18 12  1  0  0  0  0
 19 13  1  0  0  0  0
 20  3  1  0  0  0  0
 21 20  2  0  0  0  0
 22 23  1  0  0  0  0
 22 20  1  0  0  0  0
 23 24  2  0  0  0  0
 24 25  1  0  0  0  0
 24 28  1  0  0  0  0
 25 29  1  0  0  0  0
 26 25  2  0  0  0  0
 27 23  1  0  0  0  0
 27 26  1  0  0  0  0
 30 26  1  0  0  0  0
 30 31  1  0  0  0  0
 32 31  1  0  0  0  0
 33 32  1  0  0  0  0
 34 33  1  0  0  0  0
 34 30  1  0  0  0  0
M  END
>  <minimizedAffinity>
-6.23335695

>  <minimizedRMSD>
1.66719198

$$$$
