
 OpenBabel03252512543D

 19 21  0  0  0  0  0  0  0  0999 V2000
   38.5930   31.7350   48.2310 C   0  0  0  0  0  0  0  0  0  0  0  0
   39.0400   33.0070   48.3170 N   0  0  0  0  0  0  0  0  0  0  0  0
   39.6280   33.3640   47.2280 O   0  0  0  0  0  0  0  0  0  0  0  0
   39.5830   32.3470   46.4060 C   0  0  0  0  0  0  0  0  0  0  0  0
   38.9400   31.2950   46.9970 N   0  0  0  0  0  0  0  0  0  0  0  0
   37.3180   30.0750   51.3530 C   0  0  0  0  0  0  0  0  0  0  0  0
   38.0520   30.9400   50.5390 C   0  0  0  0  0  0  0  0  0  0  0  0
   37.8800   30.8810   49.1670 C   0  0  0  0  0  0  0  0  0  0  0  0
   36.9870   29.9640   48.6720 N   0  0  0  0  0  0  0  0  0  0  0  0
   36.2900   29.1400   49.4830 C   0  0  0  0  0  0  0  0  0  0  0  0
   36.4530   29.1910   50.8100 N   0  0  0  0  0  0  0  0  0  0  0  0
   37.4610   30.1290   52.4290 H   0  0  0  0  0  0  0  0  0  0  0  0
   38.7540   31.6580   50.9450 H   0  0  0  0  0  0  0  0  0  0  0  0
   35.6230   28.4680   48.9560 H   0  0  0  0  0  0  0  0  0  0  0  0
   40.1580   32.3460   45.0240 C   0  0  0  0  0  0  0  0  0  0  0  0
   40.2850   30.9130   44.5450 C   0  0  0  0  0  0  0  0  0  0  0  0
   40.2890   31.0020   43.0300 C   0  0  0  0  0  0  0  0  0  0  0  0
   39.6630   32.3280   42.7230 C   0  0  0  0  0  0  0  0  0  0  0  0
   39.2660   32.9790   44.0110 C   0  0  0  0  0  0  0  0  0  0  0  0
  1  2  2  0  0  0  0
  1  8  1  0  0  0  0
  3  2  1  0  0  0  0
  4  5  2  0  0  0  0
  4  3  1  0  0  0  0
  5  1  1  0  0  0  0
  6 12  1  0  0  0  0
  7 13  1  0  0  0  0
  7  6  2  0  0  0  0
  8  7  1  0  0  0  0
  9  8  2  0  0  0  0
  9 10  1  0  0  0  0
 10 11  2  0  0  0  0
 11  6  1  0  0  0  0
 14 10  1  0  0  0  0
 15  4  1  0  0  0  0
 16 15  1  0  0  0  0
 17 16  1  0  0  0  0
 18 17  1  0  0  0  0
 18 19  1  0  0  0  0
 19 15  1  0  0  0  0
M  END
>  <minimizedAffinity>
-5.56574965

>  <minimizedRMSD>
0.976406991

$$$$
