
 OpenBabel03252513093D

 30 33  0  0  0  0  0  0  0  0999 V2000
   34.0300   30.0010   46.8200 C   0  0  0  0  0  0  0  0  0  0  0  0
   34.4900   30.2240   48.1130 C   0  0  0  0  0  0  0  0  0  0  0  0
   35.7990   30.5080   48.4130 C   0  0  0  0  0  0  0  0  0  0  0  0
   36.7430   30.5880   47.4190 C   0  0  0  0  0  0  0  0  0  0  0  0
   36.3350   30.3750   46.1420 C   0  0  0  0  0  0  0  0  0  0  0  0
   37.3120   30.4670   45.1680 C   0  0  0  0  0  0  0  0  0  0  0  0
   36.9960   30.2720   43.8480 C   0  0  0  0  0  0  0  0  0  0  0  0
   35.6650   29.9810   43.5300 C   0  0  0  0  0  0  0  0  0  0  0  0
   34.7490   29.9060   44.5460 C   0  0  0  0  0  0  0  0  0  0  0  0
   35.0160   30.0910   45.8570 C   0  0  0  0  0  0  0  0  0  0  0  0
   33.6880   30.1470   48.8660 H   0  0  0  0  0  0  0  0  0  0  0  0
   35.9470   30.6480   49.4740 H   0  0  0  0  0  0  0  0  0  0  0  0
   38.3420   30.6860   45.3230 H   0  0  0  0  0  0  0  0  0  0  0  0
   37.6960   30.3260   43.0340 H   0  0  0  0  0  0  0  0  0  0  0  0
   35.3510   29.8170   42.5080 H   0  0  0  0  0  0  0  0  0  0  0  0
   33.7110   29.6750   44.2550 H   0  0  0  0  0  0  0  0  0  0  0  0
   31.0350   28.0090   46.8110 C   0  0  0  0  0  0  0  0  0  0  0  0
   30.0500   28.7200   46.1480 C   0  0  0  0  0  0  0  0  0  0  0  0
   30.4280   29.9570   45.6730 C   0  0  0  0  0  0  0  0  0  0  0  0
   31.6860   30.3760   45.8790 N   0  0  0  0  0  0  0  0  0  0  0  0
   32.6400   29.7010   46.5140 C   0  0  0  0  0  0  0  0  0  0  0  0
   32.2450   28.5240   46.9540 N   0  0  0  0  0  0  0  0  0  0  0  0
   30.7280   27.0290   47.1860 H   0  0  0  0  0  0  0  0  0  0  0  0
   29.0270   28.4280   45.9590 H   0  0  0  0  0  0  0  0  0  0  0  0
   29.8060   30.6640   45.1310 H   0  0  0  0  0  0  0  0  0  0  0  0
   38.1340   30.8930   47.8370 C   0  0  0  0  0  0  0  0  0  0  0  0
   38.4680   32.3560   47.6620 C   0  0  0  0  0  0  0  0  0  0  0  0
   38.2010   33.0130   48.9980 C   0  0  0  0  0  0  0  0  0  0  0  0
   38.3520   31.9230   50.0370 C   0  0  0  0  0  0  0  0  0  0  0  0
   38.3720   30.6200   49.3090 C   0  0  0  0  0  0  0  0  0  0  0  0
  1  2  1  0  0  0  0
  2  3  2  0  0  0  0
  2 11  1  0  0  0  0
  3 12  1  0  0  0  0
  4 26  1  0  0  0  0
  4  3  1  0  0  0  0
  5  4  2  0  0  0  0
  6 13  1  0  0  0  0
  6  5  1  0  0  0  0
  7  6  2  0  0  0  0
  8  7  1  0  0  0  0
  8  9  2  0  0  0  0
  9 10  1  0  0  0  0
 10  5  1  0  0  0  0
 10  1  2  0  0  0  0
 14  7  1  0  0  0  0
 15  8  1  0  0  0  0
 16  9  1  0  0  0  0
 17 22  1  0  0  0  0
 17 23  1  0  0  0  0
 18 17  2  0  0  0  0
 19 20  2  0  0  0  0
 19 18  1  0  0  0  0
 20 21  1  0  0  0  0
 21  1  1  0  0  0  0
 21 22  2  0  0  0  0
 24 18  1  0  0  0  0
 25 19  1  0  0  0  0
 26 30  1  0  0  0  0
 27 26  1  0  0  0  0
 27 28  1  0  0  0  0
 28 29  1  0  0  0  0
 30 29  1  0  0  0  0
M  END
>  <minimizedAffinity>
-5.88887787

>  <minimizedRMSD>
3.9409616

$$$$
