
 OpenBabel03252510013D

 18 19  0  0  0  0  0  0  0  0999 V2000
   37.3110   30.2060   51.4200 C   0  0  0  0  0  0  0  0  0  0  0  0
   38.0360   30.8880   50.4050 C   0  0  0  0  0  0  0  0  0  0  0  0
   37.7100   30.6220   49.0770 C   0  0  0  0  0  0  0  0  0  0  0  0
   36.7240   29.7310   48.8080 N   0  0  0  0  0  0  0  0  0  0  0  0
   36.0490   29.0950   49.8090 C   0  0  0  0  0  0  0  0  0  0  0  0
   36.3480   29.3380   51.0920 N   0  0  0  0  0  0  0  0  0  0  0  0
   37.6180   30.4620   52.4070 H   0  0  0  0  0  0  0  0  0  0  0  0
   38.8220   31.5970   50.6200 H   0  0  0  0  0  0  0  0  0  0  0  0
   35.2820   28.4040   49.5140 H   0  0  0  0  0  0  0  0  0  0  0  0
   38.3750   31.2510   47.9430 C   0  0  0  0  0  0  0  0  0  0  0  0
   38.8880   32.5160   48.1290 C   0  0  0  0  0  0  0  0  0  0  0  0
   38.8220   33.0540   49.0620 H   0  0  0  0  0  0  0  0  0  0  0  0
   39.5420   33.1910   47.0900 C   0  0  0  0  0  0  0  0  0  0  0  0
   39.6760   32.5820   45.8600 C   0  0  0  0  0  0  0  0  0  0  0  0
   40.1800   33.1120   45.0690 H   0  0  0  0  0  0  0  0  0  0  0  0
   39.1670   31.3170   45.6600 C   0  0  0  0  0  0  0  0  0  0  0  0
   39.2510   30.7980   44.7020 H   0  0  0  0  0  0  0  0  0  0  0  0
   38.5180   30.6580   46.7080 C   0  0  0  0  0  0  0  0  0  0  0  0
  1  7  1  0  0  0  0
  2  8  1  0  0  0  0
  2  1  2  0  0  0  0
  3  2  1  0  0  0  0
  4  3  2  0  0  0  0
  4  5  1  0  0  0  0
  5  6  2  0  0  0  0
  6  1  1  0  0  0  0
  9  5  1  0  0  0  0
 10 11  1  0  0  0  0
 10  3  1  0  0  0  0
 11 12  1  0  0  0  0
 13 11  2  0  0  0  0
 14 13  1  0  0  0  0
 15 14  1  0  0  0  0
 16 14  2  0  0  0  0
 16 18  1  0  0  0  0
 17 16  1  0  0  0  0
 18 10  2  0  0  0  0
M  END
>  <minimizedAffinity>
-4.91766214

>  <minimizedRMSD>
0.406800568

$$$$
