
 OpenBabel03252513583D

 28 30  0  0  1  0  0  0  0  0999 V2000
   35.4140   29.4510   49.1510 C   0  0  2  0  0  0  0  0  0  0  0  0
   34.3710   29.5890   50.1870 C   0  0  0  0  0  0  0  0  0  0  0  0
   34.5480   28.2640   49.5590 C   0  0  1  0  0  0  0  0  0  0  0  0
   35.2160   29.8860   48.1290 H   0  0  0  0  0  0  0  0  0  0  0  0
   33.5060   30.2240   49.9360 H   0  0  0  0  0  0  0  0  0  0  0  0
   34.6750   29.7070   51.2580 H   0  0  0  0  0  0  0  0  0  0  0  0
   35.0230   27.4700   50.1840 H   0  0  0  0  0  0  0  0  0  0  0  0
   33.5820   27.7340   48.5570 C   0  0  0  0  0  0  0  0  0  0  0  0
   32.2230   27.9310   48.8060 C   0  0  0  0  0  0  0  0  0  0  0  0
   31.8500   28.4450   49.6820 H   0  0  0  0  0  0  0  0  0  0  0  0
   31.3120   27.4430   47.8820 C   0  0  0  0  0  3  0  0  0  0  0  0
   31.7750   26.7900   46.7660 C   0  0  0  0  0  0  0  0  0  0  0  0
   31.1180   26.3830   46.0020 H   0  0  0  0  0  0  0  0  0  0  0  0
   33.1240   26.5790   46.4920 C   0  0  0  0  0  0  0  0  0  0  0  0
   33.4700   26.0610   45.6080 H   0  0  0  0  0  0  0  0  0  0  0  0
   34.0330   27.0720   47.4260 C   0  0  0  0  0  3  0  0  0  0  0  0
   36.8660   29.3180   49.5310 C   0  0  0  0  0  0  0  0  0  0  0  0
   37.2680   28.3920   49.0540 H   0  0  0  0  0  0  0  0  0  0  0  0
   36.9560   29.2140   50.6300 H   0  0  0  0  0  0  0  0  0  0  0  0
   38.3630   32.6730   49.3950 C   0  0  0  0  0  0  0  0  0  0  0  0
   38.8930   32.7220   48.0890 C   0  0  0  0  0  0  0  0  0  0  0  0
   38.7280   31.6040   47.2750 C   0  0  0  0  0  0  0  0  0  0  0  0
   38.0620   30.5240   47.7930 N   0  0  0  0  0  0  0  0  0  0  0  0
   37.5700   30.5150   49.0460 C   0  0  0  0  0  0  0  0  0  0  0  0
   37.7310   31.5990   49.8330 N   0  0  0  0  0  0  0  0  0  0  0  0
   38.5440   33.5910   49.9450 H   0  0  0  0  0  0  0  0  0  0  0  0
   39.4260   33.5690   47.6550 H   0  0  0  0  0  0  0  0  0  0  0  0
   39.1120   31.5900   46.2730 H   0  0  0  0  0  0  0  0  0  0  0  0
  1  4  1  6  0  0  0
  1 17  1  0  0  0  0
  1  3  1  0  0  0  0
  1  2  1  0  0  0  0
  2  6  1  0  0  0  0
  3  7  1  1  0  0  0
  3  2  1  0  0  0  0
  5  2  1  0  0  0  0
  8  9  1  0  0  0  0
  8  3  1  0  0  0  0
  9 10  1  0  0  0  0
 11  9  2  0  0  0  0
 12 11  1  0  0  0  0
 13 12  1  0  0  0  0
 14 12  2  0  0  0  0
 14 16  1  0  0  0  0
 15 14  1  0  0  0  0
 16  8  2  0  0  0  0
 17 19  1  0  0  0  0
 18 17  1  0  0  0  0
 20 25  1  0  0  0  0
 20 26  1  0  0  0  0
 21 20  2  0  0  0  0
 22 23  2  0  0  0  0
 22 21  1  0  0  0  0
 23 24  1  0  0  0  0
 24 17  1  0  0  0  0
 24 25  2  0  0  0  0
 27 21  1  0  0  0  0
 28 22  1  0  0  0  0
M  END
>  <minimizedAffinity>
-5.22511244

>  <minimizedRMSD>
0.649051547

$$$$
