
 OpenBabel03252514053D

 38 41  0  0  1  0  0  0  0  0999 V2000
   35.2260   29.1560   48.5610 C   0  0  2  0  0  0  0  0  0  0  0  0
   33.9930   29.3860   49.3050 C   0  0  0  0  0  0  0  0  0  0  0  0
   34.3070   28.0020   49.0860 C   0  0  1  0  0  0  0  0  0  0  0  0
   35.3400   29.2230   47.4680 H   0  0  0  0  0  0  0  0  0  0  0  0
   33.0940   29.8640   48.8180 H   0  0  0  0  0  0  0  0  0  0  0  0
   34.1040   29.8030   50.3480 H   0  0  0  0  0  0  0  0  0  0  0  0
   34.8300   27.3140   49.7490 H   0  0  0  0  0  0  0  0  0  0  0  0
   36.5330   29.2030   49.3690 C   0  0  0  0  0  0  0  0  0  0  0  0
   36.2920   29.1120   50.4320 H   0  0  0  0  0  0  0  0  0  0  0  0
   37.1610   28.3180   49.1170 H   0  0  0  0  0  0  0  0  0  0  0  0
   37.5570   32.7010   49.6040 C   0  0  0  0  0  0  0  0  0  0  0  0
   38.4470   32.8360   48.5250 C   0  0  0  0  0  0  0  0  0  0  0  0
   38.6810   31.6980   47.7220 C   0  0  0  0  0  0  0  0  0  0  0  0
   38.0310   30.5330   48.0390 N   0  0  0  0  0  0  0  0  0  0  0  0
   37.1900   30.4670   49.0860 C   0  0  0  0  0  0  0  0  0  0  0  0
   36.9640   31.5580   49.8590 N   0  0  0  0  0  0  0  0  0  0  0  0
   37.4600   33.6330   50.1410 H   0  0  0  0  0  0  0  0  0  0  0  0
   39.0070   33.6820   48.1810 H   0  0  0  0  0  0  0  0  0  0  0  0
   39.3360   31.6560   46.8650 H   0  0  0  0  0  0  0  0  0  0  0  0
   33.4640   27.3080   48.0320 C   0  0  0  0  0  0  0  0  0  0  0  0
   33.8250   26.0900   47.8090 O   0  0  0  0  0  0  0  0  0  0  0  0
   32.3890   27.8530   47.3340 O   0  0  0  0  0  0  0  0  0  0  0  0
   31.1560   28.0730   47.8870 C   0  0  0  0  0  0  0  0  0  0  0  0
   30.7340   27.6290   49.2350 C   0  0  0  0  0  0  0  0  0  0  0  0
   29.4800   27.9270   49.6390 C   0  0  0  0  0  0  0  0  0  0  0  0
   28.5930   28.6380   48.8070 C   0  0  0  0  0  0  0  0  0  0  0  0
   29.5860   28.9420   47.2790 S   0  0  0  0  0  0  0  0  0  0  0  0
   31.4560   27.0920   49.8210 H   0  0  0  0  0  0  0  0  0  0  0  0
   29.0860   27.6460   50.5990 H   0  0  0  0  0  0  0  0  0  0  0  0
   27.3170   29.0770   48.9140 C   0  0  0  0  0  0  0  0  0  0  0  0
   26.2930   28.2250   49.2720 C   0  0  0  0  0  0  0  0  0  0  0  0
   26.4350   27.1700   49.4880 H   0  0  0  0  0  0  0  0  0  0  0  0
   24.9800   28.7000   49.3770 C   0  0  0  0  0  3  0  0  0  0  0  0
   24.7190   30.0490   49.1140 C   0  0  0  0  0  0  0  0  0  0  0  0
   23.6950   30.4310   49.1930 H   0  0  0  0  0  0  0  0  0  0  0  0
   25.7410   30.9290   48.7500 C   0  0  0  0  0  0  0  0  0  0  0  0
   25.5240   31.9660   48.5510 H   0  0  0  0  0  0  0  0  0  0  0  0
   27.0380   30.4030   48.6600 C   0  0  0  0  0  3  0  0  0  0  0  0
  1  4  1  6  0  0  0
  1  3  1  0  0  0  0
  1  2  1  0  0  0  0
  1  8  1  0  0  0  0
  2  6  1  0  0  0  0
  3  2  1  0  0  0  0
  3  7  1  1  0  0  0
  5  2  1  0  0  0  0
  8  9  1  0  0  0  0
 10  8  1  0  0  0  0
 11 16  1  0  0  0  0
 11 17  1  0  0  0  0
 12 11  2  0  0  0  0
 13 14  2  0  0  0  0
 13 12  1  0  0  0  0
 14 15  1  0  0  0  0
 15  8  1  0  0  0  0
 15 16  2  0  0  0  0
 18 12  1  0  0  0  0
 19 13  1  0  0  0  0
 20  3  1  0  0  0  0
 21 20  2  0  0  0  0
 22 23  1  0  0  0  0
 22 20  1  0  0  0  0
 23 24  2  0  0  0  0
 24 25  1  0  0  0  0
 24 28  1  0  0  0  0
 25 29  1  0  0  0  0
 26 30  1  0  0  0  0
 26 25  2  0  0  0  0
 27 23  1  0  0  0  0
 27 26  1  0  0  0  0
 30 31  1  0  0  0  0
 31 33  2  0  0  0  0
 31 32  1  0  0  0  0
 34 35  1  0  0  0  0
 34 33  1  0  0  0  0
 36 34  2  0  0  0  0
 37 36  1  0  0  0  0
 38 36  1  0  0  0  0
 38 30  2  0  0  0  0
M  END
>  <minimizedAffinity>
-6.79300976

>  <minimizedRMSD>
1.89499271

$$$$
