
     RDKit          3D

 30 32  0  0  0  0  0  0  0  0999 V2000
   38.4114   32.6973   49.3962 C   0  0  0  0  0  0  0  0  0  0  0  0
   38.9139   32.6945   48.0786 C   0  0  0  0  0  0  0  0  0  0  0  0
   38.7021   31.5575   47.3017 C   0  0  0  0  0  0  0  0  0  0  0  0
   38.0186   30.5118   47.8653 N   0  0  0  0  0  0  0  0  0  0  0  0
   37.5540   30.5518   49.1273 C   0  0  0  0  0  0  0  0  0  0  0  0
   37.7598   31.6537   49.8790 N   0  0  0  0  0  0  0  0  0  0  0  0
   36.8291   29.3887   49.6620 C   0  0  0  0  0  0  0  0  0  0  0  0
   35.4048   29.4690   49.1759 C   0  0  2  0  0  0  0  0  0  0  0  0
   34.2783   29.4215   50.1284 C   0  0  0  0  0  0  0  0  0  0  0  0
   34.6001   28.1902   49.3787 C   0  0  1  0  0  0  0  0  0  0  0  0
   38.6281   33.6252   49.9153 H   0  0  0  0  0  0  0  0  0  0  0  0
   39.4603   33.5143   47.6088 H   0  0  0  0  0  0  0  0  0  0  0  0
   39.0640   31.5046   46.2931 H   0  0  0  0  0  0  0  0  0  0  0  0
   37.2706   28.4333   49.2914 H   0  0  0  0  0  0  0  0  0  0  0  0
   36.8448   29.3765   50.7685 H   0  0  0  0  0  0  0  0  0  0  0  0
   35.2562   30.0030   48.1930 H   0  0  0  0  0  0  0  0  0  0  0  0
   33.3900   30.0239   49.8728 H   0  0  0  0  0  0  0  0  0  0  0  0
   34.4876   29.4384   51.2265 H   0  0  0  0  0  0  0  0  0  0  0  0
   35.0829   27.3636   49.9544 H   0  0  0  0  0  0  0  0  0  0  0  0
   33.7573   27.7148   48.2481 C   0  0  0  0  0  0  0  0  0  0  0  0
   33.6428   28.5498   47.1344 C   0  0  0  0  0  0  0  0  0  0  0  0
   34.1337   29.5112   47.0624 H   0  0  0  0  0  0  0  0  0  0  0  0
   32.8610   28.1197   46.0741 C   0  0  0  0  0  0  0  0  0  0  0  0
   32.2333   26.9011   46.1548 C   0  0  0  0  0  0  0  0  0  0  0  0
   31.6063   26.5028   45.3612 H   0  0  0  0  0  0  0  0  0  0  0  0
   32.3292   26.0481   47.2515 C   0  0  0  0  0  0  0  0  0  0  0  0
   31.8273   25.0908   47.2978 H   0  0  0  0  0  0  0  0  0  0  0  0
   33.1167   26.4866   48.3138 C   0  0  0  0  0  0  0  0  0  0  0  0
   32.7404   28.7425   45.1747 H   0  0  0  0  0  0  0  0  0  0  0  0
   33.2317   25.8612   49.2048 H   0  0  0  0  0  0  0  0  0  0  0  0
  1  6  2  0
  2  1  1  0
  3  4  1  0
  3  2  2  0
  4  5  2  0
  5  7  1  0
  5  6  1  0
  8 10  1  0
  8  7  1  0
  8  9  1  0
 10  9  1  0
  1 11  1  0
  2 12  1  0
  3 13  1  0
  7 14  1  0
  7 15  1  0
  8 16  1  6
  9 17  1  0
  9 18  1  0
 10 19  1  1
 20 21  2  0
 21 22  1  0
 21 23  1  0
 23 24  2  0
 24 25  1  0
 24 26  1  0
 26 27  1  0
 26 28  2  0
 28 20  1  0
 23 29  1  0
 28 30  1  0
 10 20  1  0
M  ISO  8  11  14  12  14  13  14  14   8  15   8  16  13  17  13  18  13
M  ISO  4  19  13  22  16  25  16  27  16
M  END
>  <DihAtoms>  (1) 
7,9,19,20

>  <DihDeg>  (1) 
142.9645686953059

$$$$
