
 OpenBabel03252513583D

 28 30  0  0  1  0  0  0  0  0999 V2000
   35.5750   29.7430   49.3690 C   0  0  2  0  0  0  0  0  0  0  0  0
   34.4770   29.4190   50.3000 C   0  0  0  0  0  0  0  0  0  0  0  0
   34.9020   28.3750   49.3450 C   0  0  1  0  0  0  0  0  0  0  0  0
   35.3570   30.4230   48.4950 H   0  0  0  0  0  0  0  0  0  0  0  0
   33.5300   29.9660   50.1570 H   0  0  0  0  0  0  0  0  0  0  0  0
   34.7050   29.2640   51.3840 H   0  0  0  0  0  0  0  0  0  0  0  0
   35.4730   27.5130   49.7650 H   0  0  0  0  0  0  0  0  0  0  0  0
   34.0870   28.0250   48.1500 C   0  0  0  0  0  0  0  0  0  0  0  0
   33.5240   29.0760   47.4230 C   0  0  0  0  0  0  0  0  0  0  0  0
   33.6540   30.1160   47.6890 H   0  0  0  0  0  0  0  0  0  0  0  0
   32.7630   28.7640   46.3080 C   0  0  0  0  0  3  0  0  0  0  0  0
   32.5910   27.4460   45.9610 C   0  0  0  0  0  0  0  0  0  0  0  0
   32.0070   27.1310   45.0990 H   0  0  0  0  0  0  0  0  0  0  0  0
   33.1400   26.3780   46.6660 C   0  0  0  0  0  0  0  0  0  0  0  0
   32.9940   25.3460   46.3770 H   0  0  0  0  0  0  0  0  0  0  0  0
   33.9040   26.7000   47.7860 C   0  0  0  0  0  3  0  0  0  0  0  0
   37.0100   29.7200   49.8300 C   0  0  0  0  0  0  0  0  0  0  0  0
   37.4400   28.7200   49.5820 H   0  0  0  0  0  0  0  0  0  0  0  0
   37.0500   29.8560   50.9280 H   0  0  0  0  0  0  0  0  0  0  0  0
   38.6150   32.9440   49.0950 C   0  0  0  0  0  0  0  0  0  0  0  0
   39.0700   32.7690   47.7720 C   0  0  0  0  0  0  0  0  0  0  0  0
   38.8180   31.5470   47.1520 C   0  0  0  0  0  0  0  0  0  0  0  0
   38.1450   30.5910   47.8660 N   0  0  0  0  0  0  0  0  0  0  0  0
   37.7270   30.7950   49.1280 C   0  0  0  0  0  0  0  0  0  0  0  0
   37.9710   31.9800   49.7280 N   0  0  0  0  0  0  0  0  0  0  0  0
   38.8600   33.9270   49.4850 H   0  0  0  0  0  0  0  0  0  0  0  0
   39.6070   33.5150   47.1840 H   0  0  0  0  0  0  0  0  0  0  0  0
   39.1430   31.3630   46.1460 H   0  0  0  0  0  0  0  0  0  0  0  0
  1  4  1  6  0  0  0
  1 17  1  0  0  0  0
  1  2  1  0  0  0  0
  2  6  1  0  0  0  0
  3  1  1  0  0  0  0
  3  7  1  1  0  0  0
  3  2  1  0  0  0  0
  5  2  1  0  0  0  0
  8  3  1  0  0  0  0
  9 10  1  0  0  0  0
  9  8  2  0  0  0  0
 11  9  1  0  0  0  0
 12 11  2  0  0  0  0
 12 14  1  0  0  0  0
 13 12  1  0  0  0  0
 14 16  2  0  0  0  0
 15 14  1  0  0  0  0
 16  8  1  0  0  0  0
 17 19  1  0  0  0  0
 18 17  1  0  0  0  0
 20 26  1  0  0  0  0
 20 25  1  0  0  0  0
 21 20  2  0  0  0  0
 22 21  1  0  0  0  0
 22 23  2  0  0  0  0
 23 24  1  0  0  0  0
 24 25  2  0  0  0  0
 24 17  1  0  0  0  0
 27 21  1  0  0  0  0
 28 22  1  0  0  0  0
M  END
>  <minimizedAffinity>
-5.15193892

>  <minimizedRMSD>
0.543676436

$$$$
