
 OpenBabel03252514053D

 38 41  0  0  1  0  0  0  0  0999 V2000
   35.2220   29.1590   48.5720 C   0  0  2  0  0  0  0  0  0  0  0  0
   33.9950   29.3740   49.3290 C   0  0  0  0  0  0  0  0  0  0  0  0
   34.3130   27.9940   49.0900 C   0  0  1  0  0  0  0  0  0  0  0  0
   35.3270   29.2400   47.4790 H   0  0  0  0  0  0  0  0  0  0  0  0
   33.0890   29.8530   48.8560 H   0  0  0  0  0  0  0  0  0  0  0  0
   34.1130   29.7770   50.3770 H   0  0  0  0  0  0  0  0  0  0  0  0
   34.8450   27.2990   49.7390 H   0  0  0  0  0  0  0  0  0  0  0  0
   36.5360   29.2020   49.3700 C   0  0  0  0  0  0  0  0  0  0  0  0
   36.3040   29.1060   50.4340 H   0  0  0  0  0  0  0  0  0  0  0  0
   37.1610   28.3180   49.1070 H   0  0  0  0  0  0  0  0  0  0  0  0
   37.5520   32.7020   49.6050 C   0  0  0  0  0  0  0  0  0  0  0  0
   38.4440   32.8390   48.5280 C   0  0  0  0  0  0  0  0  0  0  0  0
   38.6820   31.7010   47.7260 C   0  0  0  0  0  0  0  0  0  0  0  0
   38.0340   30.5340   48.0420 N   0  0  0  0  0  0  0  0  0  0  0  0
   37.1910   30.4670   49.0880 C   0  0  0  0  0  0  0  0  0  0  0  0
   36.9600   31.5570   49.8600 N   0  0  0  0  0  0  0  0  0  0  0  0
   37.4520   33.6330   50.1420 H   0  0  0  0  0  0  0  0  0  0  0  0
   39.0020   33.6850   48.1850 H   0  0  0  0  0  0  0  0  0  0  0  0
   39.3380   31.6590   46.8700 H   0  0  0  0  0  0  0  0  0  0  0  0
   33.4640   27.3090   48.0340 C   0  0  0  0  0  0  0  0  0  0  0  0
   33.8160   26.0890   47.8070 O   0  0  0  0  0  0  0  0  0  0  0  0
   32.3920   27.8650   47.3390 O   0  0  0  0  0  0  0  0  0  0  0  0
   31.1580   28.0810   47.8900 C   0  0  0  0  0  0  0  0  0  0  0  0
   30.7350   27.6310   49.2360 C   0  0  0  0  0  0  0  0  0  0  0  0
   29.4790   27.9260   49.6390 C   0  0  0  0  0  0  0  0  0  0  0  0
   28.5930   28.6390   48.8080 C   0  0  0  0  0  0  0  0  0  0  0  0
   29.5880   28.9510   47.2840 S   0  0  0  0  0  0  0  0  0  0  0  0
   31.4560   27.0920   49.8220 H   0  0  0  0  0  0  0  0  0  0  0  0
   29.0840   27.6400   50.5970 H   0  0  0  0  0  0  0  0  0  0  0  0
   27.3170   29.0770   48.9150 C   0  0  0  0  0  0  0  0  0  0  0  0
   26.2930   28.2240   49.2720 C   0  0  0  0  0  0  0  0  0  0  0  0
   26.4360   27.1690   49.4880 H   0  0  0  0  0  0  0  0  0  0  0  0
   24.9800   28.6960   49.3770 C   0  0  0  0  0  0  0  0  0  0  0  0
   24.7170   30.0460   49.1140 C   0  0  0  0  0  0  0  0  0  0  0  0
   23.6920   30.4260   49.1930 H   0  0  0  0  0  0  0  0  0  0  0  0
   25.7380   30.9260   48.7500 C   0  0  0  0  0  0  0  0  0  0  0  0
   25.5190   31.9630   48.5510 H   0  0  0  0  0  0  0  0  0  0  0  0
   27.0350   30.4020   48.6600 C   0  0  0  0  0  0  0  0  0  0  0  0
  1  4  1  6  0  0  0
  1  3  1  0  0  0  0
  1  2  1  0  0  0  0
  1  8  1  0  0  0  0
  2  6  1  0  0  0  0
  3  2  1  0  0  0  0
  3  7  1  1  0  0  0
  5  2  1  0  0  0  0
  8  9  1  0  0  0  0
 10  8  1  0  0  0  0
 11 16  1  0  0  0  0
 11 17  1  0  0  0  0
 12 11  2  0  0  0  0
 13 14  2  0  0  0  0
 13 12  1  0  0  0  0
 14 15  1  0  0  0  0
 15  8  1  0  0  0  0
 15 16  2  0  0  0  0
 18 12  1  0  0  0  0
 19 13  1  0  0  0  0
 20  3  1  0  0  0  0
 21 20  2  0  0  0  0
 22 23  1  0  0  0  0
 22 20  1  0  0  0  0
 23 24  2  0  0  0  0
 24 25  1  0  0  0  0
 24 28  1  0  0  0  0
 25 29  1  0  0  0  0
 26 30  1  0  0  0  0
 26 25  2  0  0  0  0
 27 23  1  0  0  0  0
 27 26  1  0  0  0  0
 30 31  1  0  0  0  0
 31 33  2  0  0  0  0
 31 32  1  0  0  0  0
 34 35  1  0  0  0  0
 34 33  1  0  0  0  0
 36 34  2  0  0  0  0
 37 36  1  0  0  0  0
 38 36  1  0  0  0  0
 38 30  2  0  0  0  0
M  END
>  <minimizedAffinity>
-6.79305506

>  <minimizedRMSD>
1.92389643

$$$$
