
 OpenBabel03252514053D

 38 41  0  0  1  0  0  0  0  0999 V2000
   35.2250   29.1570   48.5630 C   0  0  2  0  0  0  0  0  0  0  0  0
   33.9940   29.3840   49.3100 C   0  0  0  0  0  0  0  0  0  0  0  0
   34.3080   28.0010   49.0870 C   0  0  1  0  0  0  0  0  0  0  0  0
   35.3370   29.2270   47.4700 H   0  0  0  0  0  0  0  0  0  0  0  0
   33.0930   29.8620   48.8260 H   0  0  0  0  0  0  0  0  0  0  0  0
   34.1060   29.7980   50.3550 H   0  0  0  0  0  0  0  0  0  0  0  0
   34.8330   27.3110   49.7470 H   0  0  0  0  0  0  0  0  0  0  0  0
   36.5330   29.2030   49.3690 C   0  0  0  0  0  0  0  0  0  0  0  0
   36.2950   29.1100   50.4320 H   0  0  0  0  0  0  0  0  0  0  0  0
   37.1610   28.3180   49.1140 H   0  0  0  0  0  0  0  0  0  0  0  0
   37.5560   32.7010   49.6040 C   0  0  0  0  0  0  0  0  0  0  0  0
   38.4460   32.8370   48.5270 C   0  0  0  0  0  0  0  0  0  0  0  0
   38.6810   31.6990   47.7230 C   0  0  0  0  0  0  0  0  0  0  0  0
   38.0320   30.5330   48.0400 N   0  0  0  0  0  0  0  0  0  0  0  0
   37.1900   30.4670   49.0870 C   0  0  0  0  0  0  0  0  0  0  0  0
   36.9620   31.5570   49.8600 N   0  0  0  0  0  0  0  0  0  0  0  0
   37.4570   33.6330   50.1420 H   0  0  0  0  0  0  0  0  0  0  0  0
   39.0050   33.6830   48.1830 H   0  0  0  0  0  0  0  0  0  0  0  0
   39.3370   31.6570   46.8670 H   0  0  0  0  0  0  0  0  0  0  0  0
   33.4640   27.3090   48.0330 C   0  0  0  0  0  0  0  0  0  0  0  0
   33.8220   26.0900   47.8100 O   0  0  0  0  0  0  0  0  0  0  0  0
   32.3890   27.8560   47.3360 O   0  0  0  0  0  0  0  0  0  0  0  0
   31.1560   28.0750   47.8880 C   0  0  0  0  0  0  0  0  0  0  0  0
   30.7340   27.6300   49.2360 C   0  0  0  0  0  0  0  0  0  0  0  0
   29.4790   27.9270   49.6390 C   0  0  0  0  0  0  0  0  0  0  0  0
   28.5920   28.6380   48.8080 C   0  0  0  0  0  0  0  0  0  0  0  0
   29.5850   28.9440   47.2810 S   0  0  0  0  0  0  0  0  0  0  0  0
   31.4560   27.0930   49.8220 H   0  0  0  0  0  0  0  0  0  0  0  0
   29.0850   27.6450   50.5990 H   0  0  0  0  0  0  0  0  0  0  0  0
   27.3160   29.0770   48.9150 C   0  0  0  0  0  0  0  0  0  0  0  0
   26.2920   28.2250   49.2720 C   0  0  0  0  0  0  0  0  0  0  0  0
   26.4350   27.1700   49.4870 H   0  0  0  0  0  0  0  0  0  0  0  0
   24.9790   28.6990   49.3770 C   0  0  0  0  0  3  0  0  0  0  0  0
   24.7180   30.0480   49.1140 C   0  0  0  0  0  0  0  0  0  0  0  0
   23.6930   30.4300   49.1930 H   0  0  0  0  0  0  0  0  0  0  0  0
   25.7400   30.9280   48.7510 C   0  0  0  0  0  0  0  0  0  0  0  0
   25.5220   31.9650   48.5530 H   0  0  0  0  0  0  0  0  0  0  0  0
   27.0360   30.4030   48.6600 C   0  0  0  0  0  3  0  0  0  0  0  0
  1  4  1  6  0  0  0
  1  3  1  0  0  0  0
  1  2  1  0  0  0  0
  1  8  1  0  0  0  0
  2  6  1  0  0  0  0
  3  2  1  0  0  0  0
  3  7  1  1  0  0  0
  5  2  1  0  0  0  0
  8  9  1  0  0  0  0
 10  8  1  0  0  0  0
 11 16  1  0  0  0  0
 11 17  1  0  0  0  0
 12 11  2  0  0  0  0
 13 14  2  0  0  0  0
 13 12  1  0  0  0  0
 14 15  1  0  0  0  0
 15  8  1  0  0  0  0
 15 16  2  0  0  0  0
 18 12  1  0  0  0  0
 19 13  1  0  0  0  0
 20  3  1  0  0  0  0
 21 20  2  0  0  0  0
 22 23  1  0  0  0  0
 22 20  1  0  0  0  0
 23 24  2  0  0  0  0
 24 25  1  0  0  0  0
 24 28  1  0  0  0  0
 25 29  1  0  0  0  0
 26 30  1  0  0  0  0
 26 25  2  0  0  0  0
 27 23  1  0  0  0  0
 27 26  1  0  0  0  0
 30 31  1  0  0  0  0
 31 33  2  0  0  0  0
 31 32  1  0  0  0  0
 34 35  1  0  0  0  0
 34 33  1  0  0  0  0
 36 34  2  0  0  0  0
 37 36  1  0  0  0  0
 38 36  1  0  0  0  0
 38 30  2  0  0  0  0
M  END
>  <minimizedAffinity>
-6.79191542

>  <minimizedRMSD>
1.89695454

$$$$
