
 OpenBabel03252513583D

 29 31  0  0  1  0  0  0  0  0999 V2000
   35.4780   29.4550   49.0480 C   0  0  2  0  0  0  0  0  0  0  0  0
   34.4270   29.7930   50.0250 C   0  0  0  0  0  0  0  0  0  0  0  0
   34.5630   28.3790   49.6260 C   0  0  1  0  0  0  0  0  0  0  0  0
   35.2910   29.7540   47.9930 H   0  0  0  0  0  0  0  0  0  0  0  0
   33.5610   30.4170   49.6680 H   0  0  0  0  0  0  0  0  0  0  0  0
   34.7760   30.1530   51.0150 H   0  0  0  0  0  0  0  0  0  0  0  0
   35.0080   27.7080   50.4160 H   0  0  0  0  0  0  0  0  0  0  0  0
   31.6090   26.5560   47.0980 C   0  0  0  0  0  0  0  0  0  0  0  0
   32.9410   26.3010   46.8930 C   0  0  0  0  0  3  0  0  0  0  0  0
   33.9190   26.8760   47.6940 C   0  0  0  0  0  3  0  0  0  0  0  0
   33.5870   27.7330   48.7360 C   0  0  0  0  0  0  0  0  0  0  0  0
   32.2150   27.9570   48.8970 C   0  0  0  0  0  3  0  0  0  0  0  0
   31.2230   27.3990   48.1170 C   0  0  0  0  0  3  0  0  0  0  0  0
   30.2500   26.5140   44.9480 H   0  0  0  0  0  0  0  0  0  0  0  0
   30.3140   25.8730   46.1360 S   0  0  0  0  0  0  0  0  0  0  0  0
   28.9930   26.1150   46.8500 O   0  0  0  0  0  0  0  0  0  0  0  0
   30.5130   24.4070   46.0550 O   0  0  0  0  0  0  0  0  0  0  0  0
   36.9200   29.3360   49.4570 C   0  0  0  0  0  0  0  0  0  0  0  0
   37.3230   28.4520   48.9030 H   0  0  0  0  0  0  0  0  0  0  0  0
   37.0580   29.1740   50.5390 H   0  0  0  0  0  0  0  0  0  0  0  0
   38.4110   32.6970   49.3710 C   0  0  0  0  0  0  0  0  0  0  0  0
   38.9340   32.7730   48.0660 C   0  0  0  0  0  0  0  0  0  0  0  0
   38.7680   31.6620   47.2260 C   0  0  0  0  0  0  0  0  0  0  0  0
   38.1050   30.5750   47.7330 N   0  0  0  0  0  0  0  0  0  0  0  0
   37.6190   30.5450   48.9940 C   0  0  0  0  0  0  0  0  0  0  0  0
   37.7730   31.6030   49.8070 N   0  0  0  0  0  0  0  0  0  0  0  0
   38.5310   33.5480   50.0380 H   0  0  0  0  0  0  0  0  0  0  0  0
   39.4530   33.6480   47.6940 H   0  0  0  0  0  0  0  0  0  0  0  0
   39.1390   31.6390   46.2100 H   0  0  0  0  0  0  0  0  0  0  0  0
  1  4  1  6  0  0  0
  1 18  1  0  0  0  0
  1  3  1  0  0  0  0
  1  2  1  0  0  0  0
  2  6  1  0  0  0  0
  3  2  1  0  0  0  0
  3  7  1  1  0  0  0
  5  2  1  0  0  0  0
  8 13  1  0  0  0  0
  9  8  2  0  0  0  0
  9 10  1  0  0  0  0
 10 11  2  0  0  0  0
 11 12  1  0  0  0  0
 11  3  1  0  0  0  0
 13 12  2  0  0  0  0
 14 15  1  0  0  0  0
 15 16  2  0  0  0  0
 15  8  1  0  0  0  0
 17 15  2  0  0  0  0
 18 20  1  0  0  0  0
 19 18  1  0  0  0  0
 21 26  1  0  0  0  0
 21 27  1  0  0  0  0
 22 21  2  0  0  0  0
 23 24  2  0  0  0  0
 23 22  1  0  0  0  0
 24 25  1  0  0  0  0
 25 18  1  0  0  0  0
 25 26  2  0  0  0  0
 28 22  1  0  0  0  0
 29 23  1  0  0  0  0
M  END
>  <minimizedAffinity>
-5.37514973

>  <minimizedRMSD>
0.976963043

$$$$
