
 OpenBabel03252512583D

 31 34  0  0  0  0  0  0  0  0999 V2000
   37.9450   32.6030   49.6980 C   0  0  0  0  0  0  0  0  0  0  0  0
   38.7880   32.8530   48.6120 C   0  0  0  0  0  0  0  0  0  0  0  0
   38.5200   32.1490   47.4390 C   0  0  0  0  0  0  0  0  0  0  0  0
   37.4820   31.2750   47.4000 N   0  0  0  0  0  0  0  0  0  0  0  0
   36.6950   31.0680   48.4800 C   0  0  0  0  0  0  0  0  0  0  0  0
   36.9160   31.7270   49.6360 N   0  0  0  0  0  0  0  0  0  0  0  0
   38.1680   33.1640   50.6170 H   0  0  0  0  0  0  0  0  0  0  0  0
   39.6080   33.5470   48.6520 H   0  0  0  0  0  0  0  0  0  0  0  0
   39.3270   32.3200   46.2310 C   0  0  0  0  0  0  0  0  0  0  0  0
   40.2750   33.2300   45.8820 N   0  0  0  0  0  0  0  0  0  0  0  0
   40.7150   32.9650   44.6820 O   0  0  0  0  0  0  0  0  0  0  0  0
   40.0810   31.9080   44.2400 C   0  0  0  0  0  0  0  0  0  0  0  0
   39.1920   31.4580   45.1740 N   0  0  0  0  0  0  0  0  0  0  0  0
   40.2410   31.2610   42.9710 N   0  0  0  0  0  0  0  0  0  0  0  0
   39.8720   31.8520   41.8250 N   0  0  0  0  0  0  0  0  0  0  0  0
   40.1420   31.0070   40.8060 C   0  0  0  0  0  0  0  0  0  0  0  0
   40.7010   29.8540   41.3760 C   0  0  0  0  0  0  0  0  0  0  0  0
   40.7550   30.0360   42.7490 C   0  0  0  0  0  0  0  0  0  0  0  0
   39.9840   31.1310   39.7380 H   0  0  0  0  0  0  0  0  0  0  0  0
   41.0570   28.9380   40.9150 H   0  0  0  0  0  0  0  0  0  0  0  0
   41.1200   29.3690   43.5140 H   0  0  0  0  0  0  0  0  0  0  0  0
   33.4760   28.2610   48.3020 C   0  0  0  0  0  0  0  0  0  0  0  0
   34.3860   28.2530   49.3290 C   0  0  0  0  0  0  0  0  0  0  0  0
   35.4260   29.1630   49.3810 C   0  0  0  0  0  0  0  0  0  0  0  0
   35.5880   30.1190   48.3990 C   0  0  0  0  0  0  0  0  0  0  0  0
   34.6960   30.1670   47.3450 C   0  0  0  0  0  0  0  0  0  0  0  0
   33.6700   29.2300   47.3410 C   0  0  0  0  0  0  0  0  0  0  0  0
   31.6330   26.8230   49.4410 H   0  0  0  0  0  0  0  0  0  0  0  0
   32.1610   27.1190   48.2240 S   0  0  0  0  0  0  0  0  0  0  0  0
   32.6880   25.8110   47.6550 O   0  0  0  0  0  0  0  0  0  0  0  0
   31.0740   27.5600   47.3060 O   0  0  0  0  0  0  0  0  0  0  0  0
  1  7  1  0  0  0  0
  2  8  1  0  0  0  0
  2  1  2  0  0  0  0
  3  2  1  0  0  0  0
  4  3  2  0  0  0  0
  4  5  1  0  0  0  0
  5  6  2  0  0  0  0
  6  1  1  0  0  0  0
  9  3  1  0  0  0  0
 10  9  2  0  0  0  0
 11 10  1  0  0  0  0
 12 11  1  0  0  0  0
 12 13  2  0  0  0  0
 13  9  1  0  0  0  0
 14 12  1  0  0  0  0
 15 14  1  0  0  0  0
 16 17  1  0  0  0  0
 16 15  2  0  0  0  0
 17 18  2  0  0  0  0
 18 14  1  0  0  0  0
 18 21  1  0  0  0  0
 19 16  1  0  0  0  0
 20 17  1  0  0  0  0
 22 23  1  0  0  0  0
 23 24  2  0  0  0  0
 25  5  1  0  0  0  0
 25 24  1  0  0  0  0
 26 25  2  0  0  0  0
 27 26  1  0  0  0  0
 27 22  2  0  0  0  0
 29 22  1  0  0  0  0
 29 28  1  0  0  0  0
 30 29  2  0  0  0  0
 31 29  2  0  0  0  0
M  END
>  <minimizedAffinity>
-7.10065365

>  <minimizedRMSD>
2.3621695

$$$$
