
 OpenBabel03252513583D

 29 31  0  0  1  0  0  0  0  0999 V2000
   35.4360   29.4950   49.1010 C   0  0  2  0  0  0  0  0  0  0  0  0
   34.4140   29.7090   50.1400 C   0  0  0  0  0  0  0  0  0  0  0  0
   34.5760   28.3420   49.6080 C   0  0  1  0  0  0  0  0  0  0  0  0
   35.2020   29.8820   48.0850 H   0  0  0  0  0  0  0  0  0  0  0  0
   33.5170   30.3340   49.8730 H   0  0  0  0  0  0  0  0  0  0  0  0
   34.7890   29.9870   51.1460 H   0  0  0  0  0  0  0  0  0  0  0  0
   35.0690   27.6170   50.3170 H   0  0  0  0  0  0  0  0  0  0  0  0
   31.7850   26.5470   46.8790 C   0  0  0  0  0  0  0  0  0  0  0  0
   31.3350   27.3520   47.8950 C   0  0  0  0  0  3  0  0  0  0  0  0
   32.2130   27.9460   48.7920 C   0  0  0  0  0  3  0  0  0  0  0  0
   33.5860   27.7480   48.6970 C   0  0  0  0  0  0  0  0  0  0  0  0
   33.9880   26.9190   47.6430 C   0  0  0  0  0  3  0  0  0  0  0  0
   33.1380   26.3180   46.7390 C   0  0  0  0  0  3  0  0  0  0  0  0
   31.3610   24.6550   45.2340 H   0  0  0  0  0  0  0  0  0  0  0  0
   30.7490   25.7620   45.7080 S   0  0  0  0  0  0  0  0  0  0  0  0
   30.5430   26.7010   44.5280 O   0  0  0  0  0  0  0  0  0  0  0  0
   29.4240   25.5360   46.3310 O   0  0  0  0  0  0  0  0  0  0  0  0
   36.8960   29.3860   49.4470 C   0  0  0  0  0  0  0  0  0  0  0  0
   37.2950   28.5460   48.8260 H   0  0  0  0  0  0  0  0  0  0  0  0
   37.0800   29.1630   50.5110 H   0  0  0  0  0  0  0  0  0  0  0  0
   38.0870   32.8650   49.4110 C   0  0  0  0  0  0  0  0  0  0  0  0
   38.7940   32.9410   48.1960 C   0  0  0  0  0  0  0  0  0  0  0  0
   38.8540   31.7880   47.3990 C   0  0  0  0  0  0  0  0  0  0  0  0
   38.2190   30.6650   47.8570 N   0  0  0  0  0  0  0  0  0  0  0  0
   37.5500   30.6360   49.0320 C   0  0  0  0  0  0  0  0  0  0  0  0
   37.4860   31.7340   49.8030 N   0  0  0  0  0  0  0  0  0  0  0  0
   38.0290   33.7490   50.0440 H   0  0  0  0  0  0  0  0  0  0  0  0
   39.2860   33.8460   47.8610 H   0  0  0  0  0  0  0  0  0  0  0  0
   39.3770   31.7620   46.4520 H   0  0  0  0  0  0  0  0  0  0  0  0
  1  4  1  6  0  0  0
  1 18  1  0  0  0  0
  1  3  1  0  0  0  0
  1  2  1  0  0  0  0
  2  6  1  0  0  0  0
  3  2  1  0  0  0  0
  3  7  1  1  0  0  0
  5  2  1  0  0  0  0
  8  9  1  0  0  0  0
  9 10  2  0  0  0  0
 11 10  1  0  0  0  0
 11  3  1  0  0  0  0
 12 11  2  0  0  0  0
 13  8  2  0  0  0  0
 13 12  1  0  0  0  0
 14 15  1  0  0  0  0
 15 17  2  0  0  0  0
 15  8  1  0  0  0  0
 16 15  2  0  0  0  0
 18 20  1  0  0  0  0
 19 18  1  0  0  0  0
 21 26  1  0  0  0  0
 21 27  1  0  0  0  0
 22 21  2  0  0  0  0
 23 24  2  0  0  0  0
 23 22  1  0  0  0  0
 24 25  1  0  0  0  0
 25 18  1  0  0  0  0
 25 26  2  0  0  0  0
 28 22  1  0  0  0  0
 29 23  1  0  0  0  0
M  END
>  <minimizedAffinity>
-5.23835516

>  <minimizedRMSD>
1.23410928

$$$$
