
 OpenBabel03252513583D

 29 31  0  0  1  0  0  0  0  0999 V2000
   35.8440   29.7450   49.6820 C   0  0  2  0  0  0  0  0  0  0  0  0
   34.9750   29.2430   50.7610 C   0  0  0  0  0  0  0  0  0  0  0  0
   35.1020   28.4200   49.5430 C   0  0  1  0  0  0  0  0  0  0  0  0
   35.4550   30.6000   49.0860 H   0  0  0  0  0  0  0  0  0  0  0  0
   34.0290   29.8140   50.9800 H   0  0  0  0  0  0  0  0  0  0  0  0
   35.4810   28.9620   51.7070 H   0  0  0  0  0  0  0  0  0  0  0  0
   35.7140   27.4810   49.6720 H   0  0  0  0  0  0  0  0  0  0  0  0
   32.0050   28.1790   46.5760 C   0  0  0  0  0  0  0  0  0  0  0  0
   31.7280   27.8810   47.8870 C   0  0  0  0  0  3  0  0  0  0  0  0
   32.7100   27.9500   48.8690 C   0  0  0  0  0  3  0  0  0  0  0  0
   34.0120   28.3240   48.5610 C   0  0  0  0  0  0  0  0  0  0  0  0
   34.2370   28.6160   47.2110 C   0  0  0  0  0  3  0  0  0  0  0  0
   33.2810   28.5560   46.2170 C   0  0  0  0  0  3  0  0  0  0  0  0
   31.0800   27.0470   44.4950 H   0  0  0  0  0  0  0  0  0  0  0  0
   30.8300   28.1170   45.2800 S   0  0  0  0  0  0  0  0  0  0  0  0
   30.9910   29.3580   44.4140 O   0  0  0  0  0  0  0  0  0  0  0  0
   29.4730   28.1640   45.8740 O   0  0  0  0  0  0  0  0  0  0  0  0
   37.3410   29.6200   49.7590 C   0  0  0  0  0  0  0  0  0  0  0  0
   37.6070   28.7360   49.1270 H   0  0  0  0  0  0  0  0  0  0  0  0
   37.7160   29.4540   50.7830 H   0  0  0  0  0  0  0  0  0  0  0  0
   38.6160   33.0400   49.3120 C   0  0  0  0  0  0  0  0  0  0  0  0
   39.0210   33.0490   47.9640 C   0  0  0  0  0  0  0  0  0  0  0  0
   38.8500   31.8720   47.2190 C   0  0  0  0  0  0  0  0  0  0  0  0
   38.2990   30.7910   47.8560 N   0  0  0  0  0  0  0  0  0  0  0  0
   37.9250   30.8270   49.1550 C   0  0  0  0  0  0  0  0  0  0  0  0
   38.0840   31.9480   49.8770 N   0  0  0  0  0  0  0  0  0  0  0  0
   38.7410   33.9430   49.9060 H   0  0  0  0  0  0  0  0  0  0  0  0
   39.4530   33.9210   47.4880 H   0  0  0  0  0  0  0  0  0  0  0  0
   39.1340   31.7950   46.1780 H   0  0  0  0  0  0  0  0  0  0  0  0
  1  4  1  6  0  0  0
  1 18  1  0  0  0  0
  1  2  1  0  0  0  0
  2  5  1  0  0  0  0
  2  6  1  0  0  0  0
  3  7  1  1  0  0  0
  3  1  1  0  0  0  0
  3  2  1  0  0  0  0
  8  9  1  0  0  0  0
  9 10  2  0  0  0  0
 11 10  1  0  0  0  0
 11  3  1  0  0  0  0
 12 11  2  0  0  0  0
 13  8  2  0  0  0  0
 13 12  1  0  0  0  0
 14 15  1  0  0  0  0
 15 17  2  0  0  0  0
 15  8  1  0  0  0  0
 16 15  2  0  0  0  0
 18 20  1  0  0  0  0
 19 18  1  0  0  0  0
 21 26  1  0  0  0  0
 21 27  1  0  0  0  0
 22 21  2  0  0  0  0
 23 24  2  0  0  0  0
 23 22  1  0  0  0  0
 24 25  1  0  0  0  0
 25 18  1  0  0  0  0
 25 26  2  0  0  0  0
 28 22  1  0  0  0  0
 29 23  1  0  0  0  0
M  END
>  <minimizedAffinity>
-5.19414282

>  <minimizedRMSD>
1.18050218

$$$$
