
 OpenBabel03252513583D

 29 31  0  0  1  0  0  0  0  0999 V2000
   35.4580   29.4590   49.2030 C   0  0  2  0  0  0  0  0  0  0  0  0
   34.4520   29.5790   50.2720 C   0  0  0  0  0  0  0  0  0  0  0  0
   34.5950   28.2680   49.6090 C   0  0  1  0  0  0  0  0  0  0  0  0
   35.2130   29.9430   48.2320 H   0  0  0  0  0  0  0  0  0  0  0  0
   33.5560   30.2330   50.0780 H   0  0  0  0  0  0  0  0  0  0  0  0
   34.8420   29.7580   51.2950 H   0  0  0  0  0  0  0  0  0  0  0  0
   35.0920   27.4760   50.2390 H   0  0  0  0  0  0  0  0  0  0  0  0
   31.7560   26.7590   46.7630 C   0  0  0  0  0  0  0  0  0  0  0  0
   31.3280   27.4960   47.8390 C   0  0  0  0  0  3  0  0  0  0  0  0
   32.2220   27.9960   48.7750 C   0  0  0  0  0  3  0  0  0  0  0  0
   33.5890   27.7710   48.6600 C   0  0  0  0  0  0  0  0  0  0  0  0
   33.9680   27.0150   47.5450 C   0  0  0  0  0  3  0  0  0  0  0  0
   33.1010   26.5060   46.6000 C   0  0  0  0  0  3  0  0  0  0  0  0
   30.8630   24.7520   45.4790 H   0  0  0  0  0  0  0  0  0  0  0  0
   30.6970   26.0920   45.5380 S   0  0  0  0  0  0  0  0  0  0  0  0
   31.1000   26.6550   44.1830 O   0  0  0  0  0  0  0  0  0  0  0  0
   29.3140   26.5480   45.8150 O   0  0  0  0  0  0  0  0  0  0  0  0
   36.9220   29.3080   49.5160 C   0  0  0  0  0  0  0  0  0  0  0  0
   37.2740   28.4320   48.9160 H   0  0  0  0  0  0  0  0  0  0  0  0
   37.1250   29.1170   50.5830 H   0  0  0  0  0  0  0  0  0  0  0  0
   38.3980   32.6740   49.3940 C   0  0  0  0  0  0  0  0  0  0  0  0
   38.9050   32.7450   48.0830 C   0  0  0  0  0  0  0  0  0  0  0  0
   38.7330   31.6290   47.2510 C   0  0  0  0  0  0  0  0  0  0  0  0
   38.0810   30.5430   47.7720 N   0  0  0  0  0  0  0  0  0  0  0  0
   37.6100   30.5170   49.0390 C   0  0  0  0  0  0  0  0  0  0  0  0
   37.7690   31.5800   49.8440 N   0  0  0  0  0  0  0  0  0  0  0  0
   38.5220   33.5300   50.0550 H   0  0  0  0  0  0  0  0  0  0  0  0
   39.4160   33.6210   47.7000 H   0  0  0  0  0  0  0  0  0  0  0  0
   39.0930   31.6030   46.2310 H   0  0  0  0  0  0  0  0  0  0  0  0
  1  4  1  6  0  0  0
  1 18  1  0  0  0  0
  1  3  1  0  0  0  0
  1  2  1  0  0  0  0
  2  6  1  0  0  0  0
  3  7  1  1  0  0  0
  3  2  1  0  0  0  0
  5  2  1  0  0  0  0
  8  9  1  0  0  0  0
  9 10  2  0  0  0  0
 11 10  1  0  0  0  0
 11  3  1  0  0  0  0
 12 11  2  0  0  0  0
 13  8  2  0  0  0  0
 13 12  1  0  0  0  0
 14 15  1  0  0  0  0
 15 17  2  0  0  0  0
 15  8  1  0  0  0  0
 16 15  2  0  0  0  0
 18 20  1  0  0  0  0
 19 18  1  0  0  0  0
 21 26  1  0  0  0  0
 21 27  1  0  0  0  0
 22 21  2  0  0  0  0
 23 24  2  0  0  0  0
 23 22  1  0  0  0  0
 24 25  1  0  0  0  0
 25 18  1  0  0  0  0
 25 26  2  0  0  0  0
 28 22  1  0  0  0  0
 29 23  1  0  0  0  0
M  END
>  <minimizedAffinity>
-5.16545057

>  <minimizedRMSD>
0.642284691

$$$$
