
 OpenBabel03252513583D

 29 31  0  0  1  0  0  0  0  0999 V2000
   35.4370   29.4460   49.1370 C   0  0  2  0  0  0  0  0  0  0  0  0
   34.4000   29.6640   50.1620 C   0  0  0  0  0  0  0  0  0  0  0  0
   34.5500   28.3010   49.6160 C   0  0  1  0  0  0  0  0  0  0  0  0
   35.2260   29.8490   48.1220 H   0  0  0  0  0  0  0  0  0  0  0  0
   33.5170   30.3060   49.8860 H   0  0  0  0  0  0  0  0  0  0  0  0
   34.7620   29.9260   51.1770 H   0  0  0  0  0  0  0  0  0  0  0  0
   35.0200   27.5600   50.3250 H   0  0  0  0  0  0  0  0  0  0  0  0
   31.7810   26.5810   46.8190 C   0  0  0  0  0  0  0  0  0  0  0  0
   31.3250   27.3840   47.8350 C   0  0  0  0  0  3  0  0  0  0  0  0
   32.1970   27.9540   48.7540 C   0  0  0  0  0  3  0  0  0  0  0  0
   33.5670   27.7330   48.6810 C   0  0  0  0  0  0  0  0  0  0  0  0
   33.9740   26.9080   47.6280 C   0  0  0  0  0  3  0  0  0  0  0  0
   33.1310   26.3300   46.7010 C   0  0  0  0  0  3  0  0  0  0  0  0
   31.4420   24.8550   44.9820 H   0  0  0  0  0  0  0  0  0  0  0  0
   30.7520   25.8250   45.6210 S   0  0  0  0  0  0  0  0  0  0  0  0
   30.3700   26.8660   44.5780 O   0  0  0  0  0  0  0  0  0  0  0  0
   29.5040   25.3840   46.2870 O   0  0  0  0  0  0  0  0  0  0  0  0
   36.8890   29.3110   49.5070 C   0  0  0  0  0  0  0  0  0  0  0  0
   37.2680   28.4270   48.9360 H   0  0  0  0  0  0  0  0  0  0  0  0
   37.0530   29.1400   50.5840 H   0  0  0  0  0  0  0  0  0  0  0  0
   38.3760   32.6720   49.3910 C   0  0  0  0  0  0  0  0  0  0  0  0
   38.9000   32.7370   48.0870 C   0  0  0  0  0  0  0  0  0  0  0  0
   38.7350   31.6180   47.2560 C   0  0  0  0  0  0  0  0  0  0  0  0
   38.0730   30.5360   47.7730 N   0  0  0  0  0  0  0  0  0  0  0  0
   37.5860   30.5160   49.0340 C   0  0  0  0  0  0  0  0  0  0  0  0
   37.7390   31.5810   49.8370 N   0  0  0  0  0  0  0  0  0  0  0  0
   38.4950   33.5300   50.0510 H   0  0  0  0  0  0  0  0  0  0  0  0
   39.4180   33.6100   47.7070 H   0  0  0  0  0  0  0  0  0  0  0  0
   39.1070   31.5870   46.2410 H   0  0  0  0  0  0  0  0  0  0  0  0
  1  4  1  6  0  0  0
  1 18  1  0  0  0  0
  1  3  1  0  0  0  0
  1  2  1  0  0  0  0
  2  6  1  0  0  0  0
  3  2  1  0  0  0  0
  3  7  1  1  0  0  0
  5  2  1  0  0  0  0
  8  9  1  0  0  0  0
  9 10  2  0  0  0  0
 11 10  1  0  0  0  0
 11  3  1  0  0  0  0
 12 11  2  0  0  0  0
 13  8  2  0  0  0  0
 13 12  1  0  0  0  0
 14 15  1  0  0  0  0
 15 17  2  0  0  0  0
 15  8  1  0  0  0  0
 16 15  2  0  0  0  0
 18 20  1  0  0  0  0
 19 18  1  0  0  0  0
 21 26  1  0  0  0  0
 21 27  1  0  0  0  0
 22 21  2  0  0  0  0
 23 24  2  0  0  0  0
 23 22  1  0  0  0  0
 24 25  1  0  0  0  0
 25 18  1  0  0  0  0
 25 26  2  0  0  0  0
 28 22  1  0  0  0  0
 29 23  1  0  0  0  0
M  END
>  <minimizedAffinity>
-5.23089504

>  <minimizedRMSD>
0.986619055

$$$$
