
 OpenBabel03252514073D

 41 44  0  0  0  0  0  0  0  0999 V2000
   34.1960   30.0930   47.5620 C   0  0  0  0  0  0  0  0  0  0  0  0
   35.1860   29.8570   48.5390 C   0  0  0  0  0  0  0  0  0  0  0  0
   35.0660   28.6750   49.2670 C   0  0  0  0  0  0  0  0  0  0  0  0
   34.0390   27.8320   49.0130 N   0  0  0  0  0  0  0  0  0  0  0  0
   33.1040   28.0830   48.0710 C   0  0  0  0  0  0  0  0  0  0  0  0
   33.1900   29.2200   47.3460 N   0  0  0  0  0  0  0  0  0  0  0  0
   34.2570   31.0050   46.9750 H   0  0  0  0  0  0  0  0  0  0  0  0
   35.8150   28.4930   50.0080 H   0  0  0  0  0  0  0  0  0  0  0  0
   36.2080   30.8270   48.6970 N   0  0  0  0  0  0  0  0  0  0  0  0
   36.4640   31.4800   49.8490 C   0  0  0  0  0  0  0  0  0  0  0  0
   37.4970   32.3300   49.6480 N   0  0  0  0  0  0  0  0  0  0  0  0
   37.8690   32.1910   48.3700 C   0  0  0  0  0  0  0  0  0  0  0  0
   38.8510   32.7750   47.5760 C   0  0  0  0  0  0  0  0  0  0  0  0
   39.0130   32.4480   46.2920 N   0  0  0  0  0  0  0  0  0  0  0  0
   38.2220   31.5210   45.6940 C   0  0  0  0  0  0  0  0  0  0  0  0
   37.2730   30.9520   46.4530 N   0  0  0  0  0  0  0  0  0  0  0  0
   37.0720   31.2490   47.7480 C   0  0  0  0  0  0  0  0  0  0  0  0
   35.9890   31.4110   50.8110 H   0  0  0  0  0  0  0  0  0  0  0  0
   38.3340   31.2390   44.6560 H   0  0  0  0  0  0  0  0  0  0  0  0
   39.6980   33.7460   48.1490 N   0  0  0  0  0  0  0  0  0  0  0  0
   40.4190   33.6480   48.8750 H   0  0  0  0  0  0  0  0  0  0  0  0
   39.6050   34.7400   47.8040 H   0  0  0  0  0  0  0  0  0  0  0  0
   31.9840   27.1650   47.7830 C   0  0  0  0  0  0  0  0  0  0  0  0
   30.8780   27.4010   48.8400 C   0  0  0  0  0  0  0  0  0  0  0  0
   31.2310   27.0210   49.8180 H   0  0  0  0  0  0  0  0  0  0  0  0
   29.9770   26.8990   48.4890 H   0  0  0  0  0  0  0  0  0  0  0  0
   30.6790   28.5010   48.8490 H   0  0  0  0  0  0  0  0  0  0  0  0
   31.3250   27.4830   46.4630 C   0  0  0  0  0  0  0  0  0  0  0  0
   31.1000   26.5550   45.8850 H   0  0  0  0  0  0  0  0  0  0  0  0
   30.3040   27.9540   46.5840 H   0  0  0  0  0  0  0  0  0  0  0  0
   31.8910   28.2260   45.8580 H   0  0  0  0  0  0  0  0  0  0  0  0
   32.3780   25.7260   47.7880 C   0  0  0  0  0  0  0  0  0  0  0  0
   31.5320   25.0690   48.1540 H   0  0  0  0  0  0  0  0  0  0  0  0
   33.1240   25.6310   48.6480 H   0  0  0  0  0  0  0  0  0  0  0  0
   32.9360   25.1420   46.6700 N   0  0  0  0  0  0  0  0  0  0  0  0
   32.1290   24.1570   46.0510 C   0  0  0  0  0  2  0  0  0  0  0  0
   32.2790   24.2650   44.5500 C   0  0  0  0  0  2  0  0  0  0  0  0
   33.6280   24.0300   44.1910 N   0  0  0  0  0  0  0  0  0  0  0  0
   33.8400   23.0290   43.9400 H   0  0  0  0  0  0  0  0  0  0  0  0
   34.6510   24.5050   45.0450 C   0  0  0  0  0  2  0  0  0  0  0  0
   34.2140   25.3900   46.1870 C   0  0  0  0  0  2  0  0  0  0  0  0
  1  2  1  0  0  0  0
  2  9  1  0  0  0  0
  2  3  2  0  0  0  0
  3  8  1  0  0  0  0
  4  3  1  0  0  0  0
  5  4  2  0  0  0  0
  6  1  2  0  0  0  0
  6  5  1  0  0  0  0
  7  1  1  0  0  0  0
  9 10  1  0  0  0  0
 10 18  1  0  0  0  0
 11 10  2  0  0  0  0
 12 11  1  0  0  0  0
 13 20  1  0  0  0  0
 13 12  2  0  0  0  0
 14 13  1  0  0  0  0
 15 14  2  0  0  0  0
 15 16  1  0  0  0  0
 16 17  2  0  0  0  0
 17 12  1  0  0  0  0
 17  9  1  0  0  0  0
 19 15  1  0  0  0  0
 20 21  1  0  0  0  0
 22 20  1  0  0  0  0
 23 32  1  0  0  0  0
 23  5  1  0  0  0  0
 23 24  1  0  0  0  0
 24 27  1  0  0  0  0
 24 25  1  0  0  0  0
 26 24  1  0  0  0  0
 28 30  1  0  0  0  0
 28 23  1  0  0  0  0
 29 28  1  0  0  0  0
 31 28  1  0  0  0  0
 32 33  1  0  0  0  0
 32 34  1  0  0  0  0
 35 32  1  0  0  0  0
 36 35  1  0  0  0  0
 37 36  1  0  0  0  0
 38 37  1  0  0  0  0
 38 40  1  0  0  0  0
 39 38  1  0  0  0  0
 40 41  1  0  0  0  0
 41 35  1  0  0  0  0
M  END
>  <minimizedAffinity>
-5.22880363

>  <minimizedRMSD>
1.27352083

$$$$
