
 OpenBabel03252509583D

 16 17  0  0  0  0  0  0  0  0999 V2000
   36.2120   29.4670   51.3130 C   0  0  0  0  0  0  0  0  0  0  0  0
   37.1650   30.3460   50.7580 C   0  0  0  0  0  0  0  0  0  0  0  0
   36.8300   31.0090   49.5580 C   0  0  0  0  0  0  0  0  0  0  0  0
   35.5940   30.7450   49.0190 N   0  0  0  0  0  0  0  0  0  0  0  0
   34.7150   29.9010   49.5780 C   0  0  0  0  0  0  0  0  0  0  0  0
   35.0210   29.2620   50.7220 N   0  0  0  0  0  0  0  0  0  0  0  0
   36.5190   28.9800   52.2390 H   0  0  0  0  0  0  0  0  0  0  0  0
   38.1320   30.5430   51.1930 H   0  0  0  0  0  0  0  0  0  0  0  0
   33.7480   29.7170   49.1250 H   0  0  0  0  0  0  0  0  0  0  0  0
   37.7040   31.9190   48.9010 N   0  0  0  0  0  0  0  0  0  0  0  0
   37.8890   33.2670   49.4580 C   0  0  0  0  0  0  0  0  0  0  0  0
   39.2240   33.8020   49.0090 C   0  0  0  0  0  0  0  0  0  0  0  0
   39.4110   33.6780   47.5780 N   0  0  0  0  0  0  0  0  0  0  0  0
   40.3690   34.0550   47.3840 H   0  0  0  0  0  0  0  0  0  0  0  0
   39.3650   32.3360   47.1100 C   0  0  0  0  0  0  0  0  0  0  0  0
   38.3560   31.4370   47.7120 C   0  0  0  0  0  0  0  0  0  0  0  0
  1  7  1  0  0  0  0
  2  8  1  0  0  0  0
  2  1  1  0  0  0  0
  3  2  2  0  0  0  0
  4  3  1  0  0  0  0
  4  5  2  0  0  0  0
  5  6  1  0  0  0  0
  6  1  2  0  0  0  0
  9  5  1  0  0  0  0
 10 11  1  0  0  0  0
 10  3  1  0  0  0  0
 12 11  1  0  0  0  0
 13 12  1  0  0  0  0
 14 13  1  0  0  0  0
 15 13  1  0  0  0  0
 15 16  2  0  0  0  0
 16 10  1  0  0  0  0
M  END
>  <minimizedAffinity>
-4.92725182

>  <minimizedRMSD>
1.85665834

$$$$
