
 OpenBabel03252514073D

 41 44  0  0  0  0  0  0  0  0999 V2000
   33.9690   29.9080   47.2980 C   0  0  0  0  0  0  0  0  0  0  0  0
   34.9000   29.7530   48.3480 C   0  0  0  0  0  0  0  0  0  0  0  0
   34.6320   28.7430   49.2680 C   0  0  0  0  0  0  0  0  0  0  0  0
   33.5270   27.9760   49.1200 N   0  0  0  0  0  0  0  0  0  0  0  0
   32.6510   28.1450   48.1050 C   0  0  0  0  0  0  0  0  0  0  0  0
   32.8810   29.1170   47.1950 N   0  0  0  0  0  0  0  0  0  0  0  0
   34.1450   30.6870   46.5620 H   0  0  0  0  0  0  0  0  0  0  0  0
   35.3350   28.6230   50.0630 H   0  0  0  0  0  0  0  0  0  0  0  0
   36.0160   30.6270   48.3780 N   0  0  0  0  0  0  0  0  0  0  0  0
   36.4610   31.2520   49.4870 C   0  0  0  0  0  0  0  0  0  0  0  0
   37.5370   32.0050   49.1610 N   0  0  0  0  0  0  0  0  0  0  0  0
   37.7450   31.8350   47.8500 C   0  0  0  0  0  0  0  0  0  0  0  0
   38.6770   32.3300   46.9430 C   0  0  0  0  0  0  0  0  0  0  0  0
   38.6590   31.9920   45.6510 N   0  0  0  0  0  0  0  0  0  0  0  0
   37.7240   31.1410   45.1560 C   0  0  0  0  0  0  0  0  0  0  0  0
   36.8220   30.6600   46.0250 N   0  0  0  0  0  0  0  0  0  0  0  0
   36.7990   30.9710   47.3320 C   0  0  0  0  0  0  0  0  0  0  0  0
   36.0970   31.2240   50.4980 H   0  0  0  0  0  0  0  0  0  0  0  0
   37.6890   30.8520   44.1150 H   0  0  0  0  0  0  0  0  0  0  0  0
   39.6690   33.2190   47.4060 N   0  0  0  0  0  0  0  0  0  0  0  0
   40.4570   33.0550   48.0450 H   0  0  0  0  0  0  0  0  0  0  0  0
   39.6260   34.2180   47.0650 H   0  0  0  0  0  0  0  0  0  0  0  0
   31.4470   27.3090   47.9330 C   0  0  0  0  0  0  0  0  0  0  0  0
   30.5880   27.4230   49.2160 C   0  0  0  0  0  0  0  0  0  0  0  0
   31.1070   26.8980   50.0410 H   0  0  0  0  0  0  0  0  0  0  0  0
   29.6090   27.0020   48.9930 H   0  0  0  0  0  0  0  0  0  0  0  0
   30.4570   28.5160   49.4120 H   0  0  0  0  0  0  0  0  0  0  0  0
   30.5580   27.8300   46.8300 C   0  0  0  0  0  0  0  0  0  0  0  0
   30.1700   27.0000   46.1910 H   0  0  0  0  0  0  0  0  0  0  0  0
   29.6090   28.3080   47.2190 H   0  0  0  0  0  0  0  0  0  0  0  0
   31.0330   28.6360   46.2260 H   0  0  0  0  0  0  0  0  0  0  0  0
   31.7520   25.8740   47.6650 C   0  0  0  0  0  0  0  0  0  0  0  0
   30.8170   25.2990   47.3890 H   0  0  0  0  0  0  0  0  0  0  0  0
   31.9950   25.4320   48.6900 H   0  0  0  0  0  0  0  0  0  0  0  0
   32.7610   25.5160   46.7950 N   0  0  0  0  0  0  0  0  0  0  0  0
   32.4740   25.7470   45.4290 C   0  0  0  0  0  2  0  0  0  0  0  0
   33.7270   26.2270   44.7310 C   0  0  0  0  0  2  0  0  0  0  0  0
   34.7290   25.2300   44.8180 N   0  0  0  0  0  0  0  0  0  0  0  0
   34.7600   24.5770   43.9930 H   0  0  0  0  0  0  0  0  0  0  0  0
   34.8230   24.4620   46.0020 C   0  0  0  0  0  2  0  0  0  0  0  0
   33.9510   24.8980   47.1550 C   0  0  0  0  0  2  0  0  0  0  0  0
  1  2  1  0  0  0  0
  2  9  1  0  0  0  0
  2  3  2  0  0  0  0
  3  8  1  0  0  0  0
  4  3  1  0  0  0  0
  5  4  2  0  0  0  0
  6  1  2  0  0  0  0
  6  5  1  0  0  0  0
  7  1  1  0  0  0  0
  9 10  1  0  0  0  0
 10 18  1  0  0  0  0
 11 10  2  0  0  0  0
 12 11  1  0  0  0  0
 13 20  1  0  0  0  0
 13 12  2  0  0  0  0
 14 13  1  0  0  0  0
 15 14  2  0  0  0  0
 15 16  1  0  0  0  0
 16 17  2  0  0  0  0
 17 12  1  0  0  0  0
 17  9  1  0  0  0  0
 19 15  1  0  0  0  0
 20 21  1  0  0  0  0
 22 20  1  0  0  0  0
 23  5  1  0  0  0  0
 23 24  1  0  0  0  0
 24 27  1  0  0  0  0
 24 25  1  0  0  0  0
 26 24  1  0  0  0  0
 28 30  1  0  0  0  0
 28 23  1  0  0  0  0
 29 28  1  0  0  0  0
 31 28  1  0  0  0  0
 32 23  1  0  0  0  0
 32 34  1  0  0  0  0
 33 32  1  0  0  0  0
 35 41  1  0  0  0  0
 35 32  1  0  0  0  0
 36 35  1  0  0  0  0
 37 38  1  0  0  0  0
 37 36  1  0  0  0  0
 38 40  1  0  0  0  0
 39 38  1  0  0  0  0
 40 41  1  0  0  0  0
M  END
>  <minimizedAffinity>
-5.24301147

>  <minimizedRMSD>
1.35707426

$$$$
