
     RDKit          3D

 49 52  0  0  0  0  0  0  0  0999 V2000
   36.4128   30.9672   48.7615 N   0  0  0  0  0  0  0  0  0  0  0  0
   36.3858   31.7330   49.8706 C   0  0  0  0  0  0  0  0  0  0  0  0
   37.3629   32.6649   49.7810 N   0  0  0  0  0  0  0  0  0  0  0  0
   37.9839   32.4624   48.6129 C   0  0  0  0  0  0  0  0  0  0  0  0
   39.0469   33.0783   47.9591 C   0  0  0  0  0  0  0  0  0  0  0  0
   39.4799   32.6658   46.7654 N   0  0  0  0  0  0  0  0  0  0  0  0
   38.9009   31.6179   46.1259 C   0  0  0  0  0  0  0  0  0  0  0  0
   37.8750   31.0187   46.7502 N   0  0  0  0  0  0  0  0  0  0  0  0
   37.4037   31.3968   47.9503 C   0  0  0  0  0  0  0  0  0  0  0  0
   39.6826   34.1728   48.5804 N   0  0  0  0  0  0  0  0  0  0  0  0
   34.6564   29.9882   47.4092 C   0  0  0  0  0  0  0  0  0  0  0  0
   35.5266   29.8882   48.5147 C   0  0  0  0  0  0  0  0  0  0  0  0
   35.4340   28.7223   49.2706 C   0  0  0  0  0  0  0  0  0  0  0  0
   34.5424   27.7664   48.9234 N   0  0  0  0  0  0  0  0  0  0  0  0
   33.7191   27.8868   47.8580 C   0  0  0  0  0  0  0  0  0  0  0  0
   33.7826   29.0063   47.1026 N   0  0  0  0  0  0  0  0  0  0  0  0
   32.7476   26.8457   47.4678 C   0  0  0  0  0  0  0  0  0  0  0  0
   31.5470   26.9114   48.4434 C   0  0  0  0  0  0  0  0  0  0  0  0
   32.1520   27.1186   46.1093 C   0  0  0  0  0  0  0  0  0  0  0  0
   33.3189   25.4683   47.4737 C   0  0  0  0  0  0  0  0  0  0  0  0
   35.7433   31.6941   50.7315 H   0  0  0  0  0  0  0  0  0  0  0  0
   39.2343   31.2657   45.1587 H   0  0  0  0  0  0  0  0  0  0  0  0
   40.2560   34.2081   49.4316 H   0  0  0  0  0  0  0  0  0  0  0  0
   39.5735   35.1215   48.1267 H   0  0  0  0  0  0  0  0  0  0  0  0
   34.7000   30.8837   46.7962 H   0  0  0  0  0  0  0  0  0  0  0  0
   36.0915   28.6431   50.1090 H   0  0  0  0  0  0  0  0  0  0  0  0
   31.8744   26.5492   49.4368 H   0  0  0  0  0  0  0  0  0  0  0  0
   30.7448   26.3117   48.0146 H   0  0  0  0  0  0  0  0  0  0  0  0
   31.2112   27.9772   48.4586 H   0  0  0  0  0  0  0  0  0  0  0  0
   32.0882   26.1870   45.4958 H   0  0  0  0  0  0  0  0  0  0  0  0
   31.0731   27.4549   46.1615 H   0  0  0  0  0  0  0  0  0  0  0  0
   32.6619   27.9436   45.5632 H   0  0  0  0  0  0  0  0  0  0  0  0
   32.5114   24.6866   47.3372 H   0  0  0  0  0  0  0  0  0  0  0  0
   33.6283   25.2848   48.5582 H   0  0  0  0  0  0  0  0  0  0  0  0
   34.3866   25.1419   46.6644 N   0  0  0  0  0  0  0  0  0  0  0  0
   34.6049   23.7514   46.5045 C   0  0  0  0  0  0  0  0  0  0  0  0
   35.0314   23.4760   45.0804 C   0  0  0  0  0  0  0  0  0  0  0  0
   36.2441   24.1549   44.8094 N   0  0  0  0  0  0  0  0  0  0  0  0
   37.1085   23.5756   44.9692 H   0  0  0  0  0  0  0  0  0  0  0  0
   36.4492   25.4335   45.3789 C   0  0  0  0  0  0  0  0  0  0  0  0
   35.2681   26.0479   46.0898 C   0  0  0  0  0  0  0  0  0  0  0  0
   33.6568   23.1909   46.6497 H   0  0  0  0  0  0  0  0  0  0  0  0
   35.3517   23.3067   47.1722 H   0  0  0  0  0  0  0  0  0  0  0  0
   35.2245   22.3688   45.0339 H   0  0  0  0  0  0  0  0  0  0  0  0
   34.2638   23.7427   44.3289 H   0  0  0  0  0  0  0  0  0  0  0  0
   37.3485   25.4367   46.0638 H   0  0  0  0  0  0  0  0  0  0  0  0
   36.7371   26.1247   44.5590 H   0  0  0  0  0  0  0  0  0  0  0  0
   34.7306   26.6880   45.3587 H   0  0  0  0  0  0  0  0  0  0  0  0
   35.7100   26.7217   46.8509 H   0  0  0  0  0  0  0  0  0  0  0  0
  1  2  1  0
  3  2  2  0
  4  3  1  0
  5 10  1  0
  5  4  2  0
  6  5  1  0
  7  8  1  0
  7  6  2  0
  8  9  2  0
  9  4  1  0
  9  1  1  0
 11 12  2  0
 12  1  1  0
 12 13  1  0
 14 13  2  0
 15 14  1  0
 16 11  1  0
 16 15  2  0
 17 15  1  0
 17 18  1  0
 19 17  1  0
 20 17  1  0
  2 21  1  0
  7 22  1  0
 10 23  1  0
 10 24  1  0
 11 25  1  0
 13 26  1  0
 18 27  1  0
 18 28  1  0
 18 29  1  0
 19 30  1  0
 19 31  1  0
 19 32  1  0
 20 33  1  0
 20 34  1  0
 35 36  1  0
 36 37  1  0
 37 38  1  0
 38 39  1  0
 38 40  1  0
 40 41  1  0
 41 35  1  0
 36 42  1  0
 36 43  1  0
 37 44  1  0
 37 45  1  0
 40 46  1  0
 40 47  1  0
 41 48  1  0
 41 49  1  0
 20 35  1  0
M  ISO  8  21  14  22  14  25  14  26  14  27   8  28   8  29   8  30   8
M  ISO  5  31   8  32   8  33   8  34   8  39   5
M  END
>  <DihAtoms>  (1) 
16,19,34,35

>  <DihDeg>  (1) 
-179.33659951777003

$$$$
