
 OpenBabel03252513423D

 20 21  0  0  0  0  0  0  0  0999 V2000
   37.3130   30.1470   49.2550 C   0  0  0  0  0  0  0  0  0  0  0  0
   37.6640   31.1070   50.2530 C   0  0  0  0  0  0  0  0  0  0  0  0
   38.4220   32.2030   49.8410 C   0  0  0  0  0  0  0  0  0  0  0  0
   38.7900   32.3080   48.5220 N   0  0  0  0  0  0  0  0  0  0  0  0
   38.4220   31.3670   47.6440 C   0  0  0  0  0  0  0  0  0  0  0  0
   37.7030   30.3040   47.9720 N   0  0  0  0  0  0  0  0  0  0  0  0
   37.3440   30.9710   51.2790 H   0  0  0  0  0  0  0  0  0  0  0  0
   38.7060   32.9500   50.5720 H   0  0  0  0  0  0  0  0  0  0  0  0
   38.8310   31.5280   46.2920 N   0  0  0  0  0  0  0  0  0  0  0  0
   38.2630   30.7820   45.1850 C   0  0  0  0  0  0  0  0  0  0  0  0
   39.3400   30.0300   44.4610 C   0  0  0  0  0  0  0  0  0  0  0  0
   40.5850   30.6630   44.3230 N   0  0  0  0  0  0  0  0  0  0  0  0
   41.3380   29.9300   44.3670 H   0  0  0  0  0  0  0  0  0  0  0  0
   40.9370   31.7530   45.1290 C   0  0  0  0  0  0  0  0  0  0  0  0
   39.8610   32.4530   45.8700 C   0  0  0  0  0  0  0  0  0  0  0  0
   36.5700   29.0750   49.6670 O   0  0  0  0  0  0  0  0  0  0  0  0
   35.2910   29.1480   50.2400 C   0  0  0  0  0  0  0  0  0  0  0  0
   35.2920   29.1200   51.6170 F   0  0  0  0  0  0  0  0  0  0  0  0
   34.5440   30.2110   49.7980 F   0  0  0  0  0  0  0  0  0  0  0  0
   34.6140   27.9980   49.8240 F   0  0  0  0  0  0  0  0  0  0  0  0
  1 16  1  0  0  0  0
  1  2  1  0  0  0  0
  2  7  1  0  0  0  0
  3  2  2  0  0  0  0
  3  8  1  0  0  0  0
  4  3  1  0  0  0  0
  5  6  1  0  0  0  0
  5  4  2  0  0  0  0
  6  1  2  0  0  0  0
  9  5  1  0  0  0  0
 10  9  1  0  0  0  0
 11 10  1  0  0  0  0
 12 13  1  0  0  0  0
 12 11  1  0  0  0  0
 12 14  1  0  0  0  0
 14 15  1  0  0  0  0
 15  9  1  0  0  0  0
 16 17  1  0  0  0  0
 17 18  1  0  0  0  0
 19 17  1  0  0  0  0
 20 17  1  0  0  0  0
M  END
>  <minimizedAffinity>
-6.14463615

>  <minimizedRMSD>
1.30641723

$$$$
