
 OpenBabel03252514033D

 36 39  0  0  1  0  0  0  0  0999 V2000
   35.3490   29.3570   48.8900 C   0  0  2  0  0  0  0  0  0  0  0  0
   34.1810   29.1990   49.7480 C   0  0  0  0  0  0  0  0  0  0  0  0
   34.6480   27.9830   49.1460 C   0  0  1  0  0  0  0  0  0  0  0  0
   35.2920   29.7160   47.8620 H   0  0  0  0  0  0  0  0  0  0  0  0
   33.2090   29.6830   49.4490 H   0  0  0  0  0  0  0  0  0  0  0  0
   34.3420   29.3730   50.8530 H   0  0  0  0  0  0  0  0  0  0  0  0
   35.3190   27.2330   49.5630 H   0  0  0  0  0  0  0  0  0  0  0  0
   36.7150   29.4000   49.5970 C   0  0  0  0  0  0  0  0  0  0  0  0
   36.5790   29.3850   50.6810 H   0  0  0  0  0  0  0  0  0  0  0  0
   37.2750   28.4640   49.3320 H   0  0  0  0  0  0  0  0  0  0  0  0
   38.1190   32.7680   49.4430 C   0  0  0  0  0  0  0  0  0  0  0  0
   38.7780   32.7730   48.1990 C   0  0  0  0  0  0  0  0  0  0  0  0
   38.7230   31.5910   47.4230 C   0  0  0  0  0  0  0  0  0  0  0  0
   38.0380   30.5140   47.9210 N   0  0  0  0  0  0  0  0  0  0  0  0
   37.4270   30.5730   49.1220 C   0  0  0  0  0  0  0  0  0  0  0  0
   37.4760   31.7010   49.8690 N   0  0  0  0  0  0  0  0  0  0  0  0
   38.1810   33.6810   50.0060 H   0  0  0  0  0  0  0  0  0  0  0  0
   39.3230   33.6340   47.8050 H   0  0  0  0  0  0  0  0  0  0  0  0
   39.2090   31.5300   46.4580 H   0  0  0  0  0  0  0  0  0  0  0  0
   33.7990   27.4550   48.0070 C   0  0  0  0  0  0  0  0  0  0  0  0
   34.0020   26.1910   47.7850 O   0  0  0  0  0  0  0  0  0  0  0  0
   32.8820   28.1800   47.2450 O   0  0  0  0  0  0  0  0  0  0  0  0
   31.5400   28.2000   47.5190 C   0  0  0  0  0  0  0  0  0  0  0  0
   30.9050   27.6090   48.7220 C   0  0  0  0  0  0  0  0  0  0  0  0
   29.5640   27.7160   48.8380 C   0  0  0  0  0  0  0  0  0  0  0  0
   28.7790   28.3660   47.8630 C   0  0  0  0  0  0  0  0  0  0  0  0
   30.0350   28.9090   46.6040 S   0  0  0  0  0  0  0  0  0  0  0  0
   31.5610   27.1300   49.4240 H   0  0  0  0  0  0  0  0  0  0  0  0
   29.0360   27.3100   49.6850 H   0  0  0  0  0  0  0  0  0  0  0  0
   27.4590   28.5900   47.7670 N   0  0  0  0  0  0  0  0  0  0  0  0
   26.3830   27.8070   48.3940 C   0  0  0  0  0  2  0  0  0  0  0  0
   25.8400   28.6980   49.4800 C   0  0  0  0  0  2  0  0  0  0  0  0
   25.5330   30.0230   49.0950 N   0  0  0  0  0  0  0  0  0  0  0  0
   24.5890   30.3750   49.2580 H   0  0  0  0  0  0  0  0  0  0  0  0
   26.3150   30.6280   48.0830 C   0  0  0  0  0  2  0  0  0  0  0  0
   26.8230   29.6800   47.0100 C   0  0  0  0  0  2  0  0  0  0  0  0
  1  4  1  6  0  0  0
  1  3  1  0  0  0  0
  1  8  1  0  0  0  0
  1  2  1  0  0  0  0
  2  6  1  0  0  0  0
  3  7  1  1  0  0  0
  3  2  1  0  0  0  0
  5  2  1  0  0  0  0
  8  9  1  0  0  0  0
 10  8  1  0  0  0  0
 11 16  1  0  0  0  0
 11 17  1  0  0  0  0
 12 11  2  0  0  0  0
 13 14  2  0  0  0  0
 13 12  1  0  0  0  0
 14 15  1  0  0  0  0
 15  8  1  0  0  0  0
 15 16  2  0  0  0  0
 18 12  1  0  0  0  0
 19 13  1  0  0  0  0
 20  3  1  0  0  0  0
 21 20  2  0  0  0  0
 22 23  1  0  0  0  0
 22 20  1  0  0  0  0
 23 24  2  0  0  0  0
 24 25  1  0  0  0  0
 24 28  1  0  0  0  0
 25 29  1  0  0  0  0
 26 25  2  0  0  0  0
 27 23  1  0  0  0  0
 27 26  1  0  0  0  0
 30 26  1  0  0  0  0
 30 31  1  0  0  0  0
 31 32  1  0  0  0  0
 33 34  1  0  0  0  0
 33 32  1  0  0  0  0
 35 33  1  0  0  0  0
 36 30  1  0  0  0  0
 36 35  1  0  0  0  0
M  END
>  <minimizedAffinity>
-6.29392529

>  <minimizedRMSD>
1.59430158

$$$$
