
 OpenBabel03252514033D

 36 39  0  0  1  0  0  0  0  0999 V2000
   35.6780   29.5500   48.5940 C   0  0  2  0  0  0  0  0  0  0  0  0
   34.5210   29.6440   49.4770 C   0  0  0  0  0  0  0  0  0  0  0  0
   34.8510   28.3090   49.0660 C   0  0  1  0  0  0  0  0  0  0  0  0
   35.6310   29.7520   47.5240 H   0  0  0  0  0  0  0  0  0  0  0  0
   33.5950   30.1730   49.1160 H   0  0  0  0  0  0  0  0  0  0  0  0
   34.7260   29.9680   50.5400 H   0  0  0  0  0  0  0  0  0  0  0  0
   35.4550   27.5680   49.5880 H   0  0  0  0  0  0  0  0  0  0  0  0
   37.0580   29.5620   49.2730 C   0  0  0  0  0  0  0  0  0  0  0  0
   36.9470   29.4510   50.3550 H   0  0  0  0  0  0  0  0  0  0  0  0
   37.6300   28.6640   48.9170 H   0  0  0  0  0  0  0  0  0  0  0  0
   38.3740   32.9670   49.3740 C   0  0  0  0  0  0  0  0  0  0  0  0
   39.0220   33.0860   48.1300 C   0  0  0  0  0  0  0  0  0  0  0  0
   38.9910   31.9670   47.2650 C   0  0  0  0  0  0  0  0  0  0  0  0
   38.3380   30.8370   47.6810 N   0  0  0  0  0  0  0  0  0  0  0  0
   37.7360   30.7870   48.8870 C   0  0  0  0  0  0  0  0  0  0  0  0
   37.7620   31.8540   49.7200 N   0  0  0  0  0  0  0  0  0  0  0  0
   38.4170   33.8350   50.0060 H   0  0  0  0  0  0  0  0  0  0  0  0
   39.5420   33.9890   47.8010 H   0  0  0  0  0  0  0  0  0  0  0  0
   39.4700   31.9940   46.2940 H   0  0  0  0  0  0  0  0  0  0  0  0
   33.9260   27.7030   48.0300 C   0  0  0  0  0  0  0  0  0  0  0  0
   34.3530   26.5530   47.6010 O   0  0  0  0  0  0  0  0  0  0  0  0
   32.7370   28.2530   47.5490 O   0  0  0  0  0  0  0  0  0  0  0  0
   31.5230   28.0330   48.1430 C   0  0  0  0  0  0  0  0  0  0  0  0
   31.2490   28.1490   49.5960 C   0  0  0  0  0  0  0  0  0  0  0  0
   29.9920   27.8970   50.0180 C   0  0  0  0  0  0  0  0  0  0  0  0
   28.9620   27.5360   49.1250 C   0  0  0  0  0  0  0  0  0  0  0  0
   29.8170   27.5360   47.4730 S   0  0  0  0  0  0  0  0  0  0  0  0
   32.0780   28.4280   50.2180 H   0  0  0  0  0  0  0  0  0  0  0  0
   29.7220   27.9620   51.0590 H   0  0  0  0  0  0  0  0  0  0  0  0
   27.6650   27.2450   49.3110 N   0  0  0  0  0  0  0  0  0  0  0  0
   27.0360   26.7760   50.5550 C   0  0  0  0  0  2  0  0  0  0  0  0
   26.2150   27.9440   51.0360 C   0  0  0  0  0  2  0  0  0  0  0  0
   25.3720   28.5450   50.0730 N   0  0  0  0  0  0  0  0  0  0  0  0
   24.3740   28.6200   50.2730 H   0  0  0  0  0  0  0  0  0  0  0  0
   25.7940   28.5520   48.7210 C   0  0  0  0  0  2  0  0  0  0  0  0
   26.6050   27.3430   48.2930 C   0  0  0  0  0  2  0  0  0  0  0  0
  1  4  1  6  0  0  0
  1  3  1  0  0  0  0
  1  8  1  0  0  0  0
  1  2  1  0  0  0  0
  2  6  1  0  0  0  0
  3  2  1  0  0  0  0
  3  7  1  1  0  0  0
  5  2  1  0  0  0  0
  8  9  1  0  0  0  0
 10  8  1  0  0  0  0
 11 16  1  0  0  0  0
 11 17  1  0  0  0  0
 12 11  2  0  0  0  0
 13 14  2  0  0  0  0
 13 12  1  0  0  0  0
 14 15  1  0  0  0  0
 15  8  1  0  0  0  0
 15 16  2  0  0  0  0
 18 12  1  0  0  0  0
 19 13  1  0  0  0  0
 20  3  1  0  0  0  0
 21 20  2  0  0  0  0
 22 20  1  0  0  0  0
 22 23  1  0  0  0  0
 23 24  2  0  0  0  0
 24 25  1  0  0  0  0
 24 28  1  0  0  0  0
 25 29  1  0  0  0  0
 26 30  1  0  0  0  0
 26 25  2  0  0  0  0
 27 23  1  0  0  0  0
 27 26  1  0  0  0  0
 30 31  1  0  0  0  0
 31 32  1  0  0  0  0
 33 34  1  0  0  0  0
 33 32  1  0  0  0  0
 35 33  1  0  0  0  0
 36 35  1  0  0  0  0
 36 30  1  0  0  0  0
M  END
>  <minimizedAffinity>
-5.74514771

>  <minimizedRMSD>
0.794048429

$$$$
