
     RDKit          3D

 44 47  0  0  0  0  0  0  0  0999 V2000
   35.2955   29.4108   48.9847 C   0  0  2  0  0  0  0  0  0  0  0  0
   34.1897   29.3638   49.9352 C   0  0  0  0  0  0  0  0  0  0  0  0
   34.5273   28.0979   49.3495 C   0  0  1  0  0  0  0  0  0  0  0  0
   36.7118   29.3840   49.5833 C   0  0  0  0  0  0  0  0  0  0  0  0
   38.0858   32.7649   49.4472 C   0  0  0  0  0  0  0  0  0  0  0  0
   38.7538   32.7790   48.2077 C   0  0  0  0  0  0  0  0  0  0  0  0
   38.7160   31.5983   47.4293 C   0  0  0  0  0  0  0  0  0  0  0  0
   38.0373   30.5135   47.9192 N   0  0  0  0  0  0  0  0  0  0  0  0
   37.4173   30.5652   49.1162 C   0  0  0  0  0  0  0  0  0  0  0  0
   37.4499   31.6923   49.8657 N   0  0  0  0  0  0  0  0  0  0  0  0
   33.5581   27.5909   48.2997 C   0  0  0  0  0  0  0  0  0  0  0  0
   33.9098   26.4363   47.8200 O   0  0  0  0  0  0  0  0  0  0  0  0
   32.4000   28.2307   47.8553 O   0  0  0  0  0  0  0  0  0  0  0  0
   31.1434   27.8332   48.2253 C   0  0  0  0  0  0  0  0  0  0  0  0
   30.6243   27.8226   49.6146 C   0  0  0  0  0  0  0  0  0  0  0  0
   29.3569   27.3994   49.8060 C   0  0  0  0  0  0  0  0  0  0  0  0
   28.5392   26.9793   48.7367 C   0  0  0  0  0  0  0  0  0  0  0  0
   29.6441   27.1847   47.2554 S   0  0  0  0  0  0  0  0  0  0  0  0
   35.1807   29.7369   47.9509 H   0  0  0  0  0  0  0  0  0  0  0  0
   33.2319   29.9030   49.6923 H   0  0  0  0  0  0  0  0  0  0  0  0
   34.4486   29.5654   51.0167 H   0  0  0  0  0  0  0  0  0  0  0  0
   35.1779   27.3185   49.7428 H   0  0  0  0  0  0  0  0  0  0  0  0
   36.6598   29.3131   50.6718 H   0  0  0  0  0  0  0  0  0  0  0  0
   37.2235   28.4513   49.2256 H   0  0  0  0  0  0  0  0  0  0  0  0
   38.1350   33.6782   50.0121 H   0  0  0  0  0  0  0  0  0  0  0  0
   39.2943   33.6463   47.8203 H   0  0  0  0  0  0  0  0  0  0  0  0
   39.2095   31.5439   46.4669 H   0  0  0  0  0  0  0  0  0  0  0  0
   31.2993   28.1556   50.3795 H   0  0  0  0  0  0  0  0  0  0  0  0
   28.9149   27.3649   50.7878 H   0  0  0  0  0  0  0  0  0  0  0  0
   27.2760   26.5275   48.6873 N   0  0  0  0  0  0  0  0  0  0  0  0
   26.5721   25.7606   49.7270 C   0  0  0  0  0  0  0  0  0  0  0  0
   25.5619   26.7220   50.2969 C   0  0  0  0  0  0  0  0  0  0  0  0
   24.7659   27.4127   49.3540 N   0  0  0  0  0  0  0  0  0  0  0  0
   23.7504   27.3449   49.4261 H   0  0  0  0  0  0  0  0  0  0  0  0
   25.3358   27.7292   48.0972 C   0  0  0  0  0  0  0  0  0  0  0  0
   26.3363   26.7158   47.5694 C   0  0  0  0  0  0  0  0  0  0  0  0
   27.3156   25.5284   50.5159 H   0  0  0  0  0  0  0  0  0  0  0  0
   26.0884   24.8471   49.2992 H   0  0  0  0  0  0  0  0  0  0  0  0
   24.8643   26.1094   50.9385 H   0  0  0  0  0  0  0  0  0  0  0  0
   26.1011   27.3791   51.0309 H   0  0  0  0  0  0  0  0  0  0  0  0
   24.5329   27.7935   47.3257 H   0  0  0  0  0  0  0  0  0  0  0  0
   25.8657   28.7215   48.0845 H   0  0  0  0  0  0  0  0  0  0  0  0
   26.8366   27.1853   46.6911 H   0  0  0  0  0  0  0  0  0  0  0  0
   25.8462   25.7637   47.2824 H   0  0  0  0  0  0  0  0  0  0  0  0
  1  3  1  0
  1  4  1  0
  1  2  1  0
  3  2  1  0
  5 10  2  0
  6  5  1  0
  7  8  1  0
  7  6  2  0
  8  9  2  0
  9  4  1  0
  9 10  1  0
 11  3  1  0
 12 11  2  0
 13 14  1  0
 13 11  1  0
 14 15  2  0
 15 16  1  0
 17 16  2  0
 18 14  1  0
 18 17  1  0
  1 19  1  6
  2 20  1  0
  2 21  1  0
  3 22  1  1
  4 23  1  0
  4 24  1  0
  5 25  1  0
  6 26  1  0
  7 27  1  0
 15 28  1  0
 16 29  1  0
 30 31  1  0
 31 32  1  0
 32 33  1  0
 33 34  1  0
 33 35  1  0
 35 36  1  0
 36 30  1  0
 31 37  1  0
 31 38  1  0
 32 39  1  0
 32 40  1  0
 35 41  1  0
 35 42  1  0
 36 43  1  0
 36 44  1  0
 17 30  1  0
M  ISO  8  19  13  20  13  21  13  22  13  23   8  24   8  25  14  26  14
M  ISO  4  27  14  28  14  29  14  34   5
M  END
>  <DihAtoms>  (1) 
15,16,29,30

>  <DihDeg>  (1) 
89.04795984746744

$$$$
