
 OpenBabel03252513253D

 35 37  0  0  0  0  0  0  0  0999 V2000
   32.8230   27.7980   48.5480 C   0  0  0  0  0  0  0  0  0  0  0  0
   31.7170   28.2090   49.2280 C   0  0  0  0  0  0  0  0  0  0  0  0
   30.4910   27.5660   49.1640 C   0  0  0  0  0  0  0  0  0  0  0  0
   30.4380   26.4550   48.3540 C   0  0  0  0  0  0  0  0  0  0  0  0
   31.5340   26.0190   47.6600 C   0  0  0  0  0  0  0  0  0  0  0  0
   32.7440   26.6780   47.7420 C   0  0  0  0  0  0  0  0  0  0  0  0
   31.7950   29.0780   49.8500 H   0  0  0  0  0  0  0  0  0  0  0  0
   29.6100   27.8830   49.6980 H   0  0  0  0  0  0  0  0  0  0  0  0
   29.5020   25.9020   48.2590 H   0  0  0  0  0  0  0  0  0  0  0  0
   31.4320   25.1400   47.0380 H   0  0  0  0  0  0  0  0  0  0  0  0
   36.1310   28.9340   49.6570 C   0  0  0  0  0  0  0  0  0  0  0  0
   36.4390   29.9390   48.7100 C   0  0  0  0  0  0  0  0  0  0  0  0
   35.5010   30.1890   47.7290 C   0  0  0  0  0  0  0  0  0  0  0  0
   34.3360   29.4650   47.7180 N   0  0  0  0  0  0  0  0  0  0  0  0
   34.0900   28.5100   48.6510 C   0  0  0  0  0  0  0  0  0  0  0  0
   34.9880   28.2690   49.5910 N   0  0  0  0  0  0  0  0  0  0  0  0
   36.8850   28.7680   50.4050 H   0  0  0  0  0  0  0  0  0  0  0  0
   35.6690   30.9480   46.9730 H   0  0  0  0  0  0  0  0  0  0  0  0
   37.7050   30.7110   48.7400 C   0  0  0  0  0  0  0  0  0  0  0  0
   38.5000   30.5070   47.6560 F   0  0  0  0  0  0  0  0  0  0  0  0
   38.4630   30.4190   49.8540 F   0  0  0  0  0  0  0  0  0  0  0  0
   37.4150   32.0850   48.7830 F   0  0  0  0  0  0  0  0  0  0  0  0
   33.9420   26.2570   47.0220 C   0  0  0  0  0  0  0  0  0  0  0  0
   34.0580   26.9080   46.1470 H   0  0  0  0  0  0  0  0  0  0  0  0
   34.8420   26.4610   47.6660 H   0  0  0  0  0  0  0  0  0  0  0  0
   33.9710   24.8140   46.6490 C   0  0  0  0  0  0  0  0  0  0  0  0
   33.0870   24.6090   45.9910 H   0  0  0  0  0  0  0  0  0  0  0  0
   33.8490   24.1710   47.5380 H   0  0  0  0  0  0  0  0  0  0  0  0
   35.1540   24.4190   45.9270 N   0  0  0  0  0  0  0  0  0  0  0  0
   35.0130   24.5990   44.5010 C   0  0  0  0  0  0  0  0  0  0  0  0
   36.1390   23.8370   43.7930 C   0  0  0  0  0  0  0  0  0  0  0  0
   35.8190   22.4450   43.9160 N   0  0  0  0  0  0  0  0  0  0  0  0
   35.1800   22.1720   43.1440 H   0  0  0  0  0  0  0  0  0  0  0  0
   35.2660   22.0770   45.1890 C   0  0  0  0  0  0  0  0  0  0  0  0
   35.5300   23.0750   46.2860 C   0  0  0  0  0  0  0  0  0  0  0  0
  1 15  1  0  0  0  0
  1  2  1  0  0  0  0
  2  7  1  0  0  0  0
  3  2  2  0  0  0  0
  3  8  1  0  0  0  0
  4  3  1  0  0  0  0
  5  6  1  0  0  0  0
  5  4  2  0  0  0  0
  6  1  2  0  0  0  0
  9  4  1  0  0  0  0
 10  5  1  0  0  0  0
 11 17  1  0  0  0  0
 12 19  1  0  0  0  0
 12 11  2  0  0  0  0
 13 12  1  0  0  0  0
 14 13  2  0  0  0  0
 14 15  1  0  0  0  0
 15 16  2  0  0  0  0
 16 11  1  0  0  0  0
 18 13  1  0  0  0  0
 19 22  1  0  0  0  0
 19 21  1  0  0  0  0
 20 19  1  0  0  0  0
 23 25  1  0  0  0  0
 23  6  1  0  0  0  0
 24 23  1  0  0  0  0
 26 23  1  0  0  0  0
 26 28  1  0  0  0  0
 27 26  1  0  0  0  0
 29 35  1  0  0  0  0
 29 26  1  0  0  0  0
 30 29  1  0  0  0  0
 31 32  1  0  0  0  0
 31 30  1  0  0  0  0
 32 34  1  0  0  0  0
 33 32  1  0  0  0  0
 34 35  1  0  0  0  0
M  END
>  <minimizedAffinity>
-4.87931299

>  <minimizedRMSD>
0.426084548

$$$$
