
 OpenBabel03252514073D

 41 44  0  0  0  0  0  0  0  0999 V2000
   33.9920   29.9550   47.3930 C   0  0  0  0  0  0  0  0  0  0  0  0
   34.9600   29.6560   48.3760 C   0  0  0  0  0  0  0  0  0  0  0  0
   34.8440   28.4160   49.0000 C   0  0  0  0  0  0  0  0  0  0  0  0
   33.8420   27.5780   48.6470 N   0  0  0  0  0  0  0  0  0  0  0  0
   32.9280   27.8890   47.7020 C   0  0  0  0  0  0  0  0  0  0  0  0
   33.0110   29.0850   47.0770 N   0  0  0  0  0  0  0  0  0  0  0  0
   34.0500   30.9140   46.8850 H   0  0  0  0  0  0  0  0  0  0  0  0
   35.5750   28.1870   49.7440 H   0  0  0  0  0  0  0  0  0  0  0  0
   35.9560   30.6290   48.6430 N   0  0  0  0  0  0  0  0  0  0  0  0
   36.1320   31.2270   49.8390 C   0  0  0  0  0  0  0  0  0  0  0  0
   37.1640   32.0970   49.7440 N   0  0  0  0  0  0  0  0  0  0  0  0
   37.6150   32.0240   48.4860 C   0  0  0  0  0  0  0  0  0  0  0  0
   38.6360   32.6570   47.7830 C   0  0  0  0  0  0  0  0  0  0  0  0
   38.8810   32.3940   46.4970 N   0  0  0  0  0  0  0  0  0  0  0  0
   38.1420   31.4890   45.8070 C   0  0  0  0  0  0  0  0  0  0  0  0
   37.1550   30.8750   46.4780 N   0  0  0  0  0  0  0  0  0  0  0  0
   36.8710   31.1060   47.7700 C   0  0  0  0  0  0  0  0  0  0  0  0
   35.6000   31.1060   50.7650 H   0  0  0  0  0  0  0  0  0  0  0  0
   38.3210   31.2590   44.7660 H   0  0  0  0  0  0  0  0  0  0  0  0
   39.4330   33.6080   48.4540 N   0  0  0  0  0  0  0  0  0  0  0  0
   40.1090   33.4830   49.2170 H   0  0  0  0  0  0  0  0  0  0  0  0
   39.3480   34.6160   48.1510 H   0  0  0  0  0  0  0  0  0  0  0  0
   31.8360   26.9780   47.3070 C   0  0  0  0  0  0  0  0  0  0  0  0
   30.9960   26.6510   48.5650 C   0  0  0  0  0  0  0  0  0  0  0  0
   31.5940   26.0030   49.2350 H   0  0  0  0  0  0  0  0  0  0  0  0
   30.0740   26.1790   48.2300 H   0  0  0  0  0  0  0  0  0  0  0  0
   30.7320   27.6320   49.0330 H   0  0  0  0  0  0  0  0  0  0  0  0
   30.8650   27.6460   46.3630 C   0  0  0  0  0  0  0  0  0  0  0  0
   30.5720   26.9630   45.5280 H   0  0  0  0  0  0  0  0  0  0  0  0
   29.8720   27.8830   46.8490 H   0  0  0  0  0  0  0  0  0  0  0  0
   31.2220   28.6320   45.9910 H   0  0  0  0  0  0  0  0  0  0  0  0
   32.3150   25.7100   46.6850 C   0  0  0  0  0  0  0  0  0  0  0  0
   31.4560   25.1140   46.2510 H   0  0  0  0  0  0  0  0  0  0  0  0
   32.6240   25.0520   47.5650 H   0  0  0  0  0  0  0  0  0  0  0  0
   33.3490   25.7170   45.7720 N   0  0  0  0  0  0  0  0  0  0  0  0
   34.4930   24.9820   46.1690 C   0  0  0  0  0  2  0  0  0  0  0  0
   35.0760   24.2810   44.9640 C   0  0  0  0  0  2  0  0  0  0  0  0
   35.4700   25.2410   44.0020 N   0  0  0  0  0  0  0  0  0  0  0  0
   36.4800   25.5320   44.0710 H   0  0  0  0  0  0  0  0  0  0  0  0
   34.6800   26.4020   43.8350 C   0  0  0  0  0  2  0  0  0  0  0  0
   33.3680   26.4310   44.5820 C   0  0  0  0  0  2  0  0  0  0  0  0
  1  2  1  0  0  0  0
  2  9  1  0  0  0  0
  2  3  2  0  0  0  0
  3  8  1  0  0  0  0
  4  3  1  0  0  0  0
  5  4  2  0  0  0  0
  6  1  2  0  0  0  0
  6  5  1  0  0  0  0
  7  1  1  0  0  0  0
  9 10  1  0  0  0  0
 10 18  1  0  0  0  0
 11 10  2  0  0  0  0
 12 11  1  0  0  0  0
 13 20  1  0  0  0  0
 13 12  1  0  0  0  0
 14 13  2  0  0  0  0
 15 16  2  0  0  0  0
 15 14  1  0  0  0  0
 16 17  1  0  0  0  0
 17 12  2  0  0  0  0
 17  9  1  0  0  0  0
 19 15  1  0  0  0  0
 20 21  1  0  0  0  0
 22 20  1  0  0  0  0
 23  5  1  0  0  0  0
 23 24  1  0  0  0  0
 24 27  1  0  0  0  0
 24 25  1  0  0  0  0
 26 24  1  0  0  0  0
 28 30  1  0  0  0  0
 28 23  1  0  0  0  0
 29 28  1  0  0  0  0
 31 28  1  0  0  0  0
 32 23  1  0  0  0  0
 32 34  1  0  0  0  0
 33 32  1  0  0  0  0
 35 36  1  0  0  0  0
 35 32  1  0  0  0  0
 37 36  1  0  0  0  0
 38 39  1  0  0  0  0
 38 37  1  0  0  0  0
 40 38  1  0  0  0  0
 40 41  1  0  0  0  0
 41 35  1  0  0  0  0
M  END
>  <minimizedAffinity>
-5.16123724

>  <minimizedRMSD>
1.09360993

$$$$
