
 OpenBabel03252514073D

 41 44  0  0  0  0  0  0  0  0999 V2000
   33.9960   29.9730   47.4220 C   0  0  0  0  0  0  0  0  0  0  0  0
   34.9520   29.6910   48.4210 C   0  0  0  0  0  0  0  0  0  0  0  0
   34.8120   28.4740   49.0840 C   0  0  0  0  0  0  0  0  0  0  0  0
   33.7990   27.6410   48.7510 N   0  0  0  0  0  0  0  0  0  0  0  0
   32.8970   27.9350   47.7890 C   0  0  0  0  0  0  0  0  0  0  0  0
   33.0030   29.1080   47.1270 N   0  0  0  0  0  0  0  0  0  0  0  0
   34.0730   30.9130   46.8830 H   0  0  0  0  0  0  0  0  0  0  0  0
   35.5340   28.2580   49.8410 H   0  0  0  0  0  0  0  0  0  0  0  0
   35.9620   30.6560   48.6630 N   0  0  0  0  0  0  0  0  0  0  0  0
   36.1610   31.2640   49.8500 C   0  0  0  0  0  0  0  0  0  0  0  0
   37.2000   32.1230   49.7310 N   0  0  0  0  0  0  0  0  0  0  0  0
   37.6330   32.0330   48.4680 C   0  0  0  0  0  0  0  0  0  0  0  0
   38.6490   32.6490   47.7440 C   0  0  0  0  0  0  0  0  0  0  0  0
   38.8730   32.3700   46.4570 N   0  0  0  0  0  0  0  0  0  0  0  0
   38.1140   31.4660   45.7880 C   0  0  0  0  0  0  0  0  0  0  0  0
   37.1320   30.8680   46.4790 N   0  0  0  0  0  0  0  0  0  0  0  0
   36.8680   31.1150   47.7730 C   0  0  0  0  0  0  0  0  0  0  0  0
   35.6410   31.1590   50.7850 H   0  0  0  0  0  0  0  0  0  0  0  0
   38.2760   31.2230   44.7460 H   0  0  0  0  0  0  0  0  0  0  0  0
   39.4660   33.5980   48.3930 N   0  0  0  0  0  0  0  0  0  0  0  0
   40.1510   33.4730   49.1480 H   0  0  0  0  0  0  0  0  0  0  0  0
   39.3860   34.6040   48.0820 H   0  0  0  0  0  0  0  0  0  0  0  0
   31.7930   27.0290   47.4160 C   0  0  0  0  0  0  0  0  0  0  0  0
   30.9310   26.7680   48.6760 C   0  0  0  0  0  0  0  0  0  0  0  0
   31.5090   26.1370   49.3790 H   0  0  0  0  0  0  0  0  0  0  0  0
   30.0050   26.2990   48.3470 H   0  0  0  0  0  0  0  0  0  0  0  0
   30.6800   27.7710   49.1000 H   0  0  0  0  0  0  0  0  0  0  0  0
   30.8480   27.6750   46.4340 C   0  0  0  0  0  0  0  0  0  0  0  0
   30.5530   26.9650   45.6230 H   0  0  0  0  0  0  0  0  0  0  0  0
   29.8520   27.9500   46.8960 H   0  0  0  0  0  0  0  0  0  0  0  0
   31.2280   28.6390   46.0270 H   0  0  0  0  0  0  0  0  0  0  0  0
   32.2570   25.7280   46.8520 C   0  0  0  0  0  0  0  0  0  0  0  0
   31.3910   25.1250   46.4420 H   0  0  0  0  0  0  0  0  0  0  0  0
   32.5540   25.1050   47.7620 H   0  0  0  0  0  0  0  0  0  0  0  0
   33.2940   25.6810   45.9440 N   0  0  0  0  0  0  0  0  0  0  0  0
   34.4260   24.9500   46.3780 C   0  0  0  0  0  2  0  0  0  0  0  0
   35.0040   24.1880   45.2070 C   0  0  0  0  0  2  0  0  0  0  0  0
   35.4140   25.0990   44.2050 N   0  0  0  0  0  0  0  0  0  0  0  0
   36.4270   25.3800   44.2650 H   0  0  0  0  0  0  0  0  0  0  0  0
   34.6400   26.2620   43.9840 C   0  0  0  0  0  2  0  0  0  0  0  0
   33.3260   26.3410   44.7230 C   0  0  0  0  0  2  0  0  0  0  0  0
  1  2  1  0  0  0  0
  2  9  1  0  0  0  0
  2  3  2  0  0  0  0
  3  8  1  0  0  0  0
  4  3  1  0  0  0  0
  5  4  2  0  0  0  0
  6  1  2  0  0  0  0
  6  5  1  0  0  0  0
  7  1  1  0  0  0  0
  9 10  1  0  0  0  0
 10 18  1  0  0  0  0
 11 10  2  0  0  0  0
 12 11  1  0  0  0  0
 13 20  1  0  0  0  0
 13 12  2  0  0  0  0
 14 13  1  0  0  0  0
 15 14  2  0  0  0  0
 15 16  1  0  0  0  0
 16 17  2  0  0  0  0
 17 12  1  0  0  0  0
 17  9  1  0  0  0  0
 19 15  1  0  0  0  0
 20 21  1  0  0  0  0
 22 20  1  0  0  0  0
 23  5  1  0  0  0  0
 23 24  1  0  0  0  0
 24 27  1  0  0  0  0
 24 25  1  0  0  0  0
 26 24  1  0  0  0  0
 28 30  1  0  0  0  0
 28 23  1  0  0  0  0
 29 28  1  0  0  0  0
 31 28  1  0  0  0  0
 32 23  1  0  0  0  0
 32 34  1  0  0  0  0
 33 32  1  0  0  0  0
 35 36  1  0  0  0  0
 35 32  1  0  0  0  0
 37 36  1  0  0  0  0
 38 39  1  0  0  0  0
 38 37  1  0  0  0  0
 40 38  1  0  0  0  0
 40 41  1  0  0  0  0
 41 35  1  0  0  0  0
M  END
>  <minimizedAffinity>
-5.1835928

>  <minimizedRMSD>
1.03936982

$$$$
