
 OpenBabel03252513583D

 29 32  0  0  1  0  0  0  0  0999 V2000
   36.2740   30.2810   50.2250 C   0  0  2  0  0  0  0  0  0  0  0  0
   35.5020   29.3280   51.0740 C   0  0  0  0  0  0  0  0  0  0  0  0
   35.8150   28.9300   49.6890 C   0  0  1  0  0  0  0  0  0  0  0  0
   35.7600   31.1510   49.8030 H   0  0  0  0  0  0  0  0  0  0  0  0
   36.0050   28.7750   51.8960 H   0  0  0  0  0  0  0  0  0  0  0  0
   34.5110   29.7070   51.3900 H   0  0  0  0  0  0  0  0  0  0  0  0
   36.6180   28.1460   49.5720 H   0  0  0  0  0  0  0  0  0  0  0  0
   34.6870   28.9050   48.7280 C   0  0  0  0  0  0  0  0  0  0  0  0
   33.5060   28.3500   49.2300 C   0  0  0  0  0  0  0  0  0  0  0  0
   32.5870   28.3840   48.2230 N   0  0  0  0  0  0  0  0  0  0  0  0
   33.1010   28.9220   47.1170 C   0  0  0  0  0  0  0  0  0  0  0  0
   32.6930   29.2200   45.8340 C   0  0  0  0  0  0  0  0  0  0  0  0
   33.5950   29.8180   44.9450 C   0  0  0  0  0  0  0  0  0  0  0  0
   34.9080   30.1330   45.2980 C   0  0  0  0  0  0  0  0  0  0  0  0
   35.3210   29.8300   46.5970 C   0  0  0  0  0  0  0  0  0  0  0  0
   34.3950   29.2430   47.4280 C   0  0  0  0  0  0  0  0  0  0  0  0
   31.5860   28.0530   48.2290 H   0  0  0  0  0  0  0  0  0  0  0  0
   37.7520   30.4250   50.4220 C   0  0  0  0  0  0  0  0  0  0  0  0
   38.2810   29.4480   50.4500 H   0  0  0  0  0  0  0  0  0  0  0  0
   37.9110   30.9170   51.4210 H   0  0  0  0  0  0  0  0  0  0  0  0
   39.0250   33.4070   48.6830 C   0  0  0  0  0  0  0  0  0  0  0  0
   39.1950   32.9500   47.3620 C   0  0  0  0  0  0  0  0  0  0  0  0
   38.8680   31.6100   47.0840 C   0  0  0  0  0  0  0  0  0  0  0  0
   38.4020   30.8360   48.1270 N   0  0  0  0  0  0  0  0  0  0  0  0
   38.2570   31.3240   49.3710 C   0  0  0  0  0  0  0  0  0  0  0  0
   38.5710   32.6120   49.6440 N   0  0  0  0  0  0  0  0  0  0  0  0
   39.2790   34.4420   48.8900 H   0  0  0  0  0  0  0  0  0  0  0  0
   39.5620   33.6000   46.5920 H   0  0  0  0  0  0  0  0  0  0  0  0
   38.9790   31.2050   46.0860 H   0  0  0  0  0  0  0  0  0  0  0  0
  1  4  1  6  0  0  0
  1 18  1  0  0  0  0
  1  2  1  0  0  0  0
  2  6  1  0  0  0  0
  2  5  1  0  0  0  0
  3  7  1  6  0  0  0
  3  1  1  0  0  0  0
  3  2  1  0  0  0  0
  8  9  2  0  0  0  0
  8  3  1  0  0  0  0
 10 17  1  0  0  0  0
 10  9  1  0  0  0  0
 11 16  1  0  0  0  0
 11 10  1  0  0  0  0
 12 11  2  0  0  0  0
 13 14  2  0  0  0  0
 13 12  1  0  0  0  0
 14 15  1  0  0  0  0
 15 16  2  0  0  0  0
 16  8  1  0  0  0  0
 18 19  1  0  0  0  0
 18 20  1  0  0  0  0
 21 27  1  0  0  0  0
 21 26  1  0  0  0  0
 22 21  2  0  0  0  0
 23 22  1  0  0  0  0
 23 24  2  0  0  0  0
 24 25  1  0  0  0  0
 25 26  2  0  0  0  0
 25 18  1  0  0  0  0
 28 22  1  0  0  0  0
 29 23  1  0  0  0  0
M  END
>  <minimizedAffinity>
-5.91954613

>  <minimizedRMSD>
1.80971599

$$$$
