
 OpenBabel03252512573D

 31 35  0  0  0  0  0  0  0  0999 V2000
   37.4450   30.4720   51.0270 C   0  0  0  0  0  0  0  0  0  0  0  0
   38.2610   31.1370   50.0960 C   0  0  0  0  0  0  0  0  0  0  0  0
   37.8030   31.1640   48.7760 C   0  0  0  0  0  0  0  0  0  0  0  0
   36.6160   30.5660   48.4250 N   0  0  0  0  0  0  0  0  0  0  0  0
   35.8870   29.9440   49.3860 C   0  0  0  0  0  0  0  0  0  0  0  0
   36.2850   29.8900   50.6740 N   0  0  0  0  0  0  0  0  0  0  0  0
   37.7970   30.4510   52.0440 H   0  0  0  0  0  0  0  0  0  0  0  0
   39.1870   31.6090   50.3470 H   0  0  0  0  0  0  0  0  0  0  0  0
   38.5560   31.8300   47.7070 C   0  0  0  0  0  0  0  0  0  0  0  0
   39.3500   32.9360   47.7150 N   0  0  0  0  0  0  0  0  0  0  0  0
   39.8100   33.1530   46.5170 O   0  0  0  0  0  0  0  0  0  0  0  0
   39.3410   32.2230   45.7330 C   0  0  0  0  0  0  0  0  0  0  0  0
   38.5480   31.3690   46.4340 N   0  0  0  0  0  0  0  0  0  0  0  0
   39.5770   32.0560   44.3310 N   0  0  0  0  0  0  0  0  0  0  0  0
   39.1260   32.9320   43.4290 N   0  0  0  0  0  0  0  0  0  0  0  0
   39.4930   32.5260   42.1870 C   0  0  0  0  0  0  0  0  0  0  0  0
   40.2080   31.3300   42.3840 C   0  0  0  0  0  0  0  0  0  0  0  0
   40.2410   31.0640   43.7330 C   0  0  0  0  0  0  0  0  0  0  0  0
   39.2360   33.0850   41.2840 H   0  0  0  0  0  0  0  0  0  0  0  0
   40.6270   30.7740   41.5550 H   0  0  0  0  0  0  0  0  0  0  0  0
   40.7130   30.2220   44.1930 H   0  0  0  0  0  0  0  0  0  0  0  0
   34.6270   29.3080   49.0170 C   0  0  0  0  0  0  0  0  0  0  0  0
   33.6840   28.7680   49.8690 C   0  0  0  0  0  0  0  0  0  0  0  0
   32.6930   28.2940   49.1200 N   0  0  0  0  0  0  0  0  0  0  0  0
   32.9020   28.4770   47.8220 C   0  0  0  0  0  0  0  0  0  0  0  0
   32.1780   28.1640   46.6880 C   0  0  0  0  0  0  0  0  0  0  0  0
   32.6540   28.4830   45.4390 C   0  0  0  0  0  0  0  0  0  0  0  0
   33.8860   29.1280   45.3640 C   0  0  0  0  0  0  0  0  0  0  0  0
   34.6120   29.4450   46.4730 C   0  0  0  0  0  0  0  0  0  0  0  0
   34.1390   29.1260   47.7350 C   0  0  0  0  0  0  0  0  0  0  0  0
   31.8590   27.8340   49.5900 H   0  0  0  0  0  0  0  0  0  0  0  0
  1  7  1  0  0  0  0
  2  8  1  0  0  0  0
  2  1  2  0  0  0  0
  3  2  1  0  0  0  0
  4  3  2  0  0  0  0
  4  5  1  0  0  0  0
  5  6  2  0  0  0  0
  6  1  1  0  0  0  0
  9 10  2  0  0  0  0
  9  3  1  0  0  0  0
 11 10  1  0  0  0  0
 12 13  2  0  0  0  0
 12 11  1  0  0  0  0
 13  9  1  0  0  0  0
 14 12  1  0  0  0  0
 15 14  1  0  0  0  0
 16 17  1  0  0  0  0
 16 15  2  0  0  0  0
 17 18  2  0  0  0  0
 18 21  1  0  0  0  0
 18 14  1  0  0  0  0
 19 16  1  0  0  0  0
 20 17  1  0  0  0  0
 22  5  1  0  0  0  0
 22 23  2  0  0  0  0
 24 31  1  0  0  0  0
 24 23  1  0  0  0  0
 25 24  1  0  0  0  0
 26 25  2  0  0  0  0
 27 26  1  0  0  0  0
 28 27  2  0  0  0  0
 28 29  1  0  0  0  0
 29 30  2  0  0  0  0
 30 25  1  0  0  0  0
 30 22  1  0  0  0  0
M  END
>  <minimizedAffinity>
-6.97504854

>  <minimizedRMSD>
1.34028733

$$$$
