
 OpenBabel03252512183D

 41 46  0  0  0  0  0  0  0  0999 V2000
   31.9710   29.4850   46.2350 C   0  0  0  0  0  0  0  0  0  0  0  0
   31.7790   28.0980   46.2400 C   0  0  0  0  0  0  0  0  0  0  0  0
   32.8260   27.3070   46.7380 C   0  0  0  0  0  0  0  0  0  0  0  0
   33.9510   27.9030   47.1820 N   0  0  0  0  0  0  0  0  0  0  0  0
   34.1030   29.2530   47.1620 C   0  0  0  0  0  0  0  0  0  0  0  0
   33.1170   30.0340   46.6910 N   0  0  0  0  0  0  0  0  0  0  0  0
   31.1470   30.0710   45.8440 H   0  0  0  0  0  0  0  0  0  0  0  0
   30.8730   27.6340   45.8810 H   0  0  0  0  0  0  0  0  0  0  0  0
   35.3540   29.7980   47.6640 C   0  0  0  0  0  0  0  0  0  0  0  0
   36.2900   30.4430   46.8760 C   0  0  0  0  0  0  0  0  0  0  0  0
   37.3270   30.8260   47.6240 N   0  0  0  0  0  0  0  0  0  0  0  0
   37.0920   30.4420   48.9100 C   0  0  0  0  0  0  0  0  0  0  0  0
   37.8440   30.5950   50.0570 C   0  0  0  0  0  0  0  0  0  0  0  0
   37.3270   30.0830   51.2470 C   0  0  0  0  0  0  0  0  0  0  0  0
   36.0990   29.4470   51.2470 C   0  0  0  0  0  0  0  0  0  0  0  0
   35.3420   29.2920   50.0970 C   0  0  0  0  0  0  0  0  0  0  0  0
   35.8740   29.8080   48.9240 C   0  0  0  0  0  0  0  0  0  0  0  0
   36.2080   30.6200   45.8090 H   0  0  0  0  0  0  0  0  0  0  0  0
   38.1990   31.3330   47.3500 H   0  0  0  0  0  0  0  0  0  0  0  0
   38.8040   31.0860   50.0840 H   0  0  0  0  0  0  0  0  0  0  0  0
   37.8230   30.1430   52.2030 H   0  0  0  0  0  0  0  0  0  0  0  0
   35.6670   29.0370   52.1560 H   0  0  0  0  0  0  0  0  0  0  0  0
   34.3750   28.7940   50.0840 H   0  0  0  0  0  0  0  0  0  0  0  0
   32.6730   25.8570   46.7640 C   0  0  0  0  0  0  0  0  0  0  0  0
   33.6760   25.0960   47.3360 C   0  0  0  0  0  0  0  0  0  0  0  0
   33.4520   23.7280   47.3200 C   0  0  0  0  0  0  0  0  0  0  0  0
   32.3360   23.1780   46.7850 N   0  0  0  0  0  0  0  0  0  0  0  0
   31.3810   23.9640   46.2350 C   0  0  0  0  0  0  0  0  0  0  0  0
   31.5770   25.3050   46.2390 N   0  0  0  0  0  0  0  0  0  0  0  0
   34.5800   25.5020   47.7730 H   0  0  0  0  0  0  0  0  0  0  0  0
   34.1830   23.0470   47.7460 H   0  0  0  0  0  0  0  0  0  0  0  0
   30.1490   23.4530   45.6370 C   0  0  0  0  0  0  0  0  0  0  0  0
   29.3490   24.0760   44.6900 C   0  0  0  0  0  0  0  0  0  0  0  0
   28.3120   23.2820   44.4000 N   0  0  0  0  0  0  0  0  0  0  0  0
   28.4440   22.1720   45.1450 C   0  0  0  0  0  0  0  0  0  0  0  0
   27.6360   21.0520   45.2130 C   0  0  0  0  0  0  0  0  0  0  0  0
   27.9750   20.0190   46.0640 C   0  0  0  0  0  0  0  0  0  0  0  0
   29.1070   20.0340   46.8800 C   0  0  0  0  0  0  0  0  0  0  0  0
   29.8890   21.1770   46.7800 C   0  0  0  0  0  0  0  0  0  0  0  0
   29.5780   22.2150   45.9460 C   0  0  0  0  0  0  0  0  0  0  0  0
   27.5540   23.5020   43.7180 H   0  0  0  0  0  0  0  0  0  0  0  0
  1  2  2  0  0  0  0
  1  6  1  0  0  0  0
  2  3  1  0  0  0  0
  3 24  1  0  0  0  0
  3  4  2  0  0  0  0
  5  4  1  0  0  0  0
  5  9  1  0  0  0  0
  6  5  2  0  0  0  0
  7  1  1  0  0  0  0
  8  2  1  0  0  0  0
  9 17  1  0  0  0  0
 10 11  1  0  0  0  0
 10  9  2  0  0  0  0
 11 12  1  0  0  0  0
 12 17  2  0  0  0  0
 12 13  1  0  0  0  0
 13 20  1  0  0  0  0
 13 14  2  0  0  0  0
 14 15  1  0  0  0  0
 14 21  1  0  0  0  0
 15 22  1  0  0  0  0
 16 15  2  0  0  0  0
 17 16  1  0  0  0  0
 18 10  1  0  0  0  0
 19 11  1  0  0  0  0
 23 16  1  0  0  0  0
 24 25  1  0  0  0  0
 25 30  1  0  0  0  0
 26 25  2  0  0  0  0
 26 31  1  0  0  0  0
 27 26  1  0  0  0  0
 28 29  1  0  0  0  0
 28 27  2  0  0  0  0
 29 24  2  0  0  0  0
 32 40  1  0  0  0  0
 32 28  1  0  0  0  0
 33 32  2  0  0  0  0
 34 33  1  0  0  0  0
 34 35  1  0  0  0  0
 35 36  2  0  0  0  0
 35 40  1  0  0  0  0
 36 37  1  0  0  0  0
 37 38  2  0  0  0  0
 39 38  1  0  0  0  0
 40 39  2  0  0  0  0
 41 34  1  0  0  0  0
M  END
>  <minimizedAffinity>
-6.99068403

>  <minimizedRMSD>
1.63244402

$$$$
