REMARK  Name = 
REMARK  6 active torsions:
REMARK  status: ('A' for Active; 'I' for Inactive)
REMARK    1  A    between atoms: C_1  and  C_4
REMARK    2  A    between atoms: C_3  and  C_11
REMARK    3  A    between atoms: C_4  and  C_9
REMARK    4  A    between atoms: C_11  and  O_13
REMARK    5  A    between atoms: O_13  and  C_14
REMARK    6  A    between atoms: C_17  and  C_30
REMARK                            x       y       z     vdW  Elec       q    Type
REMARK                         _______ _______ _______ _____ _____    ______ ____
ROOT
ATOM      1  C   UNL     1      33.566  27.581  48.301  0.00  0.00    +0.000 C 
ATOM      2  O   UNL     1      33.910  26.435  47.815  0.00  0.00    +0.000 OA
ENDROOT
BRANCH   1   5
ATOM      3  C   UNL     1      35.297  29.410  48.980  0.00  0.00    +0.000 C 
ATOM      4  C   UNL     1      34.189  29.365  49.929  0.00  0.00    +0.000 C 
ATOM      5  C   UNL     1      34.528  28.098  49.353  0.00  0.00    +0.000 C 
ATOM      6  H   UNL     1      35.188  29.791  47.968  0.00  0.00    +0.000 HD
ATOM      7  H   UNL     1      34.426  29.592  51.006  0.00  0.00    +0.000 HD
ATOM      8  H   UNL     1      33.255  29.922  49.637  0.00  0.00    +0.000 HD
ATOM      9  H   UNL     1      35.175  27.347  49.802  0.00  0.00    +0.000 HD
BRANCH   3  10
ATOM     10  C   UNL     1      36.711  29.384  49.581  0.00  0.00    +0.000 C 
ATOM     11  H   UNL     1      36.630  29.399  50.678  0.00  0.00    +0.000 HD
ATOM     12  H   UNL     1      37.199  28.416  49.319  0.00  0.00    +0.000 HD
BRANCH  10  17
ATOM     13  C   UNL     1      38.075  32.769  49.445  0.00  0.00    +0.000 A 
ATOM     14  C   UNL     1      38.751  32.781  48.208  0.00  0.00    +0.000 A 
ATOM     15  C   UNL     1      38.721  31.596  47.435  0.00  0.00    +0.000 A 
ATOM     16  N   UNL     1      38.040  30.515  47.931  0.00  0.00    +0.000 NA
ATOM     17  C   UNL     1      37.418  30.563  49.110  0.00  0.00    +0.000 A 
ATOM     18  N   UNL     1      37.443  31.700  49.861  0.00  0.00    +0.000 NA
ATOM     19  H   UNL     1      38.159  33.720  49.958  0.00  0.00    +0.000 HD
ATOM     20  H   UNL     1      39.309  33.565  47.730  0.00  0.00    +0.000 HD
ATOM     21  H   UNL     1      39.201  31.494  46.478  0.00  0.00    +0.000 HD
ENDBRANCH  10  17
ENDBRANCH   3  10
ENDBRANCH   1   5
BRANCH   1  22
ATOM     22  O   UNL     1      32.406  28.211  47.856  0.00  0.00    +0.000 OA
BRANCH  22  23
ATOM     23  C   UNL     1      31.145  27.825  48.224  0.00  0.00    +0.000 A 
ATOM     24  C   UNL     1      30.629  27.808  49.617  0.00  0.00    +0.000 A 
ATOM     25  C   UNL     1      29.357  27.399  49.811  0.00  0.00    +0.000 A 
ATOM     26  C   UNL     1      28.537  27.002  48.736  0.00  0.00    +0.000 A 
ATOM     27  S   UNL     1      29.636  27.205  47.258  0.00  0.00    +0.000 S 
ATOM     28  H   UNL     1      31.319  28.127  50.376  0.00  0.00    +0.000 HD
ATOM     29  H   UNL     1      28.940  27.370  50.805  0.00  0.00    +0.000 HD
BRANCH  26  30
ATOM     30  C   UNL     1      27.250  26.566  48.715  0.00  0.00    +0.000 A 
ATOM     31  C   UNL     1      26.774  25.344  48.258  0.00  0.00    +0.000 A 
ATOM     32  N   UNL     1      25.434  25.286  48.404  0.00  0.00    +0.000 N 
ATOM     33  C   UNL     1      25.008  26.444  48.950  0.00  0.00    +0.000 A 
ATOM     34  C   UNL     1      23.724  26.829  49.277  0.00  0.00    +0.000 A 
ATOM     35  C   UNL     1      23.529  28.077  49.831  0.00  0.00    +0.000 A 
ATOM     36  C   UNL     1      24.590  28.905  50.047  0.00  0.00    +0.000 A 
ATOM     37  C   UNL     1      25.850  28.468  49.701  0.00  0.00    +0.000 A 
ATOM     38  C   UNL     1      26.132  27.248  49.147  0.00  0.00    +0.000 A 
ATOM     39  H   UNL     1      24.875  24.443  48.118  0.00  0.00    +0.000 HD
ENDBRANCH  26  30
ENDBRANCH  22  23
ENDBRANCH   1  22
TORSDOF 6
