
 OpenBabel03252514053D

 39 43  0  0  1  0  0  0  0  0999 V2000
   33.8760   27.4980   47.9980 C   0  0  0  0  0  0  0  0  0  0  0  0
   34.2350   26.2940   47.6980 O   0  0  0  0  0  0  0  0  0  0  0  0
   35.5200   29.4070   48.6700 C   0  0  2  0  0  0  0  0  0  0  0  0
   34.3250   29.4310   49.5090 C   0  0  0  0  0  0  0  0  0  0  0  0
   34.7270   28.1220   49.0860 C   0  0  1  0  0  0  0  0  0  0  0  0
   35.5070   29.6940   47.6220 H   0  0  0  0  0  0  0  0  0  0  0  0
   34.4550   29.7580   50.5780 H   0  0  0  0  0  0  0  0  0  0  0  0
   33.4200   29.9440   49.0790 H   0  0  0  0  0  0  0  0  0  0  0  0
   35.3330   27.4250   49.6610 H   0  0  0  0  0  0  0  0  0  0  0  0
   36.8690   29.4580   49.4040 C   0  0  0  0  0  0  0  0  0  0  0  0
   36.6820   29.4670   50.4880 H   0  0  0  0  0  0  0  0  0  0  0  0
   37.4320   28.5190   49.1930 H   0  0  0  0  0  0  0  0  0  0  0  0
   38.1110   32.8920   49.4250 C   0  0  0  0  0  0  0  0  0  0  0  0
   38.8410   32.9650   48.2210 C   0  0  0  0  0  0  0  0  0  0  0  0
   38.8900   31.8030   47.4150 C   0  0  0  0  0  0  0  0  0  0  0  0
   38.2280   30.6840   47.8490 N   0  0  0  0  0  0  0  0  0  0  0  0
   37.5520   30.6750   48.9990 C   0  0  0  0  0  0  0  0  0  0  0  0
   37.5010   31.7900   49.7820 N   0  0  0  0  0  0  0  0  0  0  0  0
   38.1360   33.8300   49.9680 H   0  0  0  0  0  0  0  0  0  0  0  0
   39.3900   33.7820   47.7910 H   0  0  0  0  0  0  0  0  0  0  0  0
   39.4160   31.7470   46.4790 H   0  0  0  0  0  0  0  0  0  0  0  0
   32.7960   28.0900   47.3460 O   0  0  0  0  0  0  0  0  0  0  0  0
   31.5140   28.0640   47.8260 C   0  0  0  0  0  0  0  0  0  0  0  0
   31.1100   27.5390   49.1560 C   0  0  0  0  0  0  0  0  0  0  0  0
   29.8000   27.5860   49.4780 C   0  0  0  0  0  0  0  0  0  0  0  0
   28.8400   28.1160   48.5930 C   0  0  0  0  0  0  0  0  0  0  0  0
   29.8440   28.6160   47.1180 S   0  0  0  0  0  0  0  0  0  0  0  0
   31.9040   27.1540   49.7680 H   0  0  0  0  0  0  0  0  0  0  0  0
   29.4600   27.2160   50.4320 H   0  0  0  0  0  0  0  0  0  0  0  0
   27.4950   28.2560   48.7220 C   0  0  0  0  0  0  0  0  0  0  0  0
   26.5450   27.2510   48.8540 C   0  0  0  0  0  3  0  0  0  0  0  0
   25.3130   27.7920   48.9580 N   0  0  0  0  0  0  0  0  0  0  0  0
   25.4220   29.1350   48.8970 C   0  0  0  0  0  0  0  0  0  0  0  0
   24.4300   30.0900   48.9610 C   0  0  0  0  0  3  0  0  0  0  0  0
   24.7860   31.4200   48.8760 C   0  0  0  0  0  3  0  0  0  0  0  0
   26.0950   31.7720   48.7330 C   0  0  0  0  0  3  0  0  0  0  0  0
   27.0440   30.7740   48.6740 C   0  0  0  0  0  3  0  0  0  0  0  0
   26.7780   29.4340   48.7500 C   0  0  0  0  0  0  0  0  0  0  0  0
   24.4490   27.2010   49.0660 H   0  0  0  0  0  0  0  0  0  0  0  0
  1  5  1  0  0  0  0
  2  1  2  0  0  0  0
  3  6  1  6  0  0  0
  3  5  1  0  0  0  0
  3 10  1  0  0  0  0
  3  4  1  0  0  0  0
  4  7  1  0  0  0  0
  5  4  1  0  0  0  0
  5  9  1  1  0  0  0
  8  4  1  0  0  0  0
 10 11  1  0  0  0  0
 12 10  1  0  0  0  0
 13 18  1  0  0  0  0
 13 19  1  0  0  0  0
 14 13  2  0  0  0  0
 15 16  2  0  0  0  0
 15 14  1  0  0  0  0
 16 17  1  0  0  0  0
 17 10  1  0  0  0  0
 17 18  2  0  0  0  0
 20 14  1  0  0  0  0
 21 15  1  0  0  0  0
 22 23  1  0  0  0  0
 22  1  1  0  0  0  0
 23 24  2  0  0  0  0
 24 25  1  0  0  0  0
 24 28  1  0  0  0  0
 25 29  1  0  0  0  0
 26 30  1  0  0  0  0
 26 25  2  0  0  0  0
 27 23  1  0  0  0  0
 27 26  1  0  0  0  0
 30 38  1  0  0  0  0
 30 31  2  0  0  0  0
 31 32  1  0  0  0  0
 32 39  1  0  0  0  0
 33 32  1  0  0  0  0
 33 34  1  0  0  0  0
 35 34  2  0  0  0  0
 36 35  1  0  0  0  0
 37 36  2  0  0  0  0
 37 38  1  0  0  0  0
 38 33  2  0  0  0  0
M  END
>  <minimizedAffinity>
-7.34092903

>  <minimizedRMSD>
1.60967469

$$$$
