
 OpenBabel03252514053D

 39 43  0  0  1  0  0  0  0  0999 V2000
   33.8760   27.5000   47.9960 C   0  0  0  0  0  0  0  0  0  0  0  0
   34.2340   26.2960   47.6950 O   0  0  0  0  0  0  0  0  0  0  0  0
   35.5190   29.4100   48.6700 C   0  0  2  0  0  0  0  0  0  0  0  0
   34.3260   29.4300   49.5100 C   0  0  0  0  0  0  0  0  0  0  0  0
   34.7290   28.1230   49.0840 C   0  0  1  0  0  0  0  0  0  0  0  0
   35.5050   29.6980   47.6230 H   0  0  0  0  0  0  0  0  0  0  0  0
   34.4570   29.7550   50.5800 H   0  0  0  0  0  0  0  0  0  0  0  0
   33.4200   29.9440   49.0820 H   0  0  0  0  0  0  0  0  0  0  0  0
   35.3360   27.4250   49.6580 H   0  0  0  0  0  0  0  0  0  0  0  0
   36.8690   29.4600   49.4020 C   0  0  0  0  0  0  0  0  0  0  0  0
   36.6840   29.4670   50.4870 H   0  0  0  0  0  0  0  0  0  0  0  0
   37.4330   28.5210   49.1900 H   0  0  0  0  0  0  0  0  0  0  0  0
   38.1060   32.8960   49.4230 C   0  0  0  0  0  0  0  0  0  0  0  0
   38.8390   32.9690   48.2210 C   0  0  0  0  0  0  0  0  0  0  0  0
   38.8920   31.8060   47.4160 C   0  0  0  0  0  0  0  0  0  0  0  0
   38.2310   30.6860   47.8500 N   0  0  0  0  0  0  0  0  0  0  0  0
   37.5520   30.6780   48.9980 C   0  0  0  0  0  0  0  0  0  0  0  0
   37.4970   31.7930   49.7790 N   0  0  0  0  0  0  0  0  0  0  0  0
   38.1280   33.8350   49.9640 H   0  0  0  0  0  0  0  0  0  0  0  0
   39.3880   33.7860   47.7920 H   0  0  0  0  0  0  0  0  0  0  0  0
   39.4200   31.7490   46.4810 H   0  0  0  0  0  0  0  0  0  0  0  0
   32.7970   28.0930   47.3450 O   0  0  0  0  0  0  0  0  0  0  0  0
   31.5150   28.0660   47.8250 C   0  0  0  0  0  0  0  0  0  0  0  0
   31.1110   27.5390   49.1540 C   0  0  0  0  0  0  0  0  0  0  0  0
   29.8000   27.5860   49.4770 C   0  0  0  0  0  0  0  0  0  0  0  0
   28.8410   28.1170   48.5920 C   0  0  0  0  0  0  0  0  0  0  0  0
   29.8450   28.6190   47.1180 S   0  0  0  0  0  0  0  0  0  0  0  0
   31.9050   27.1540   49.7670 H   0  0  0  0  0  0  0  0  0  0  0  0
   29.4610   27.2140   50.4310 H   0  0  0  0  0  0  0  0  0  0  0  0
   27.4950   28.2560   48.7220 C   0  0  0  0  0  0  0  0  0  0  0  0
   26.5450   27.2510   48.8540 C   0  0  0  0  0  3  0  0  0  0  0  0
   25.3140   27.7910   48.9580 N   0  0  0  0  0  0  0  0  0  0  0  0
   25.4230   29.1340   48.8970 C   0  0  0  0  0  0  0  0  0  0  0  0
   24.4290   30.0900   48.9610 C   0  0  0  0  0  3  0  0  0  0  0  0
   24.7860   31.4190   48.8760 C   0  0  0  0  0  3  0  0  0  0  0  0
   26.0940   31.7720   48.7310 C   0  0  0  0  0  3  0  0  0  0  0  0
   27.0430   30.7740   48.6730 C   0  0  0  0  0  3  0  0  0  0  0  0
   26.7780   29.4340   48.7490 C   0  0  0  0  0  0  0  0  0  0  0  0
   24.4500   27.2000   49.0670 H   0  0  0  0  0  0  0  0  0  0  0  0
  1  5  1  0  0  0  0
  2  1  2  0  0  0  0
  3  6  1  6  0  0  0
  3  5  1  0  0  0  0
  3 10  1  0  0  0  0
  3  4  1  0  0  0  0
  4  7  1  0  0  0  0
  5  4  1  0  0  0  0
  5  9  1  1  0  0  0
  8  4  1  0  0  0  0
 10 11  1  0  0  0  0
 12 10  1  0  0  0  0
 13 18  1  0  0  0  0
 13 19  1  0  0  0  0
 14 13  2  0  0  0  0
 15 16  2  0  0  0  0
 15 14  1  0  0  0  0
 16 17  1  0  0  0  0
 17 10  1  0  0  0  0
 17 18  2  0  0  0  0
 20 14  1  0  0  0  0
 21 15  1  0  0  0  0
 22 23  1  0  0  0  0
 22  1  1  0  0  0  0
 23 24  2  0  0  0  0
 24 25  1  0  0  0  0
 24 28  1  0  0  0  0
 25 29  1  0  0  0  0
 26 30  1  0  0  0  0
 26 25  2  0  0  0  0
 27 23  1  0  0  0  0
 27 26  1  0  0  0  0
 30 38  1  0  0  0  0
 30 31  2  0  0  0  0
 31 32  1  0  0  0  0
 32 39  1  0  0  0  0
 33 32  1  0  0  0  0
 33 34  1  0  0  0  0
 35 34  2  0  0  0  0
 36 35  1  0  0  0  0
 37 36  2  0  0  0  0
 37 38  1  0  0  0  0
 38 33  2  0  0  0  0
M  END
>  <minimizedAffinity>
-7.34282017

>  <minimizedRMSD>
1.6058104

$$$$
