
     RDKit          3D

 34 37  0  0  0  0  0  0  0  0999 V2000
   38.4055   32.6998   49.3941 C   0  0  0  0  0  0  0  0  0  0  0  0
   38.9113   32.7013   48.0804 C   0  0  0  0  0  0  0  0  0  0  0  0
   38.7033   31.5516   47.2946 C   0  0  0  0  0  0  0  0  0  0  0  0
   38.0169   30.5021   47.8688 N   0  0  0  0  0  0  0  0  0  0  0  0
   37.5545   30.5534   49.1303 C   0  0  0  0  0  0  0  0  0  0  0  0
   37.7520   31.6558   49.8889 N   0  0  0  0  0  0  0  0  0  0  0  0
   36.8321   29.3841   49.6600 C   0  0  0  0  0  0  0  0  0  0  0  0
   35.4201   29.4610   49.1651 C   0  0  2  0  0  0  0  0  0  0  0  0
   34.2908   29.4254   50.1393 C   0  0  0  0  0  0  0  0  0  0  0  0
   34.5855   28.2015   49.3714 C   0  0  1  0  0  0  0  0  0  0  0  0
   38.5700   33.5902   49.9938 H   0  0  0  0  0  0  0  0  0  0  0  0
   39.4385   33.5498   47.6883 H   0  0  0  0  0  0  0  0  0  0  0  0
   39.0704   31.4982   46.2782 H   0  0  0  0  0  0  0  0  0  0  0  0
   37.3248   28.4203   49.4121 H   0  0  0  0  0  0  0  0  0  0  0  0
   36.7986   29.4619   50.7812 H   0  0  0  0  0  0  0  0  0  0  0  0
   35.2745   29.9659   48.2054 H   0  0  0  0  0  0  0  0  0  0  0  0
   34.4923   29.4101   51.2307 H   0  0  0  0  0  0  0  0  0  0  0  0
   33.4597   30.1144   49.8922 H   0  0  0  0  0  0  0  0  0  0  0  0
   35.0835   27.3677   49.9464 H   0  0  0  0  0  0  0  0  0  0  0  0
   33.6182   27.8226   48.3145 C   0  0  0  0  0  0  0  0  0  0  0  0
   33.9944   28.1986   47.0214 C   0  0  0  0  0  0  0  0  0  0  0  0
   32.9952   27.7982   46.1825 N   0  0  0  0  0  0  0  0  0  0  0  0
   32.0137   27.1953   46.8513 C   0  0  0  0  0  0  0  0  0  0  0  0
   30.7996   26.5991   46.5794 C   0  0  0  0  0  0  0  0  0  0  0  0
   30.0479   26.0568   47.6289 C   0  0  0  0  0  0  0  0  0  0  0  0
   30.4722   26.0895   48.9586 C   0  0  0  0  0  0  0  0  0  0  0  0
   31.7000   26.6926   49.2331 C   0  0  0  0  0  0  0  0  0  0  0  0
   32.3972   27.2096   48.1657 C   0  0  0  0  0  0  0  0  0  0  0  0
   34.8503   28.7040   46.5809 H   0  0  0  0  0  0  0  0  0  0  0  0
   32.9265   27.9094   45.1354 H   0  0  0  0  0  0  0  0  0  0  0  0
   30.4635   26.5681   45.5613 H   0  0  0  0  0  0  0  0  0  0  0  0
   29.0905   25.5874   47.4103 H   0  0  0  0  0  0  0  0  0  0  0  0
   29.8214   25.6438   49.6969 H   0  0  0  0  0  0  0  0  0  0  0  0
   32.0063   26.7001   50.2497 H   0  0  0  0  0  0  0  0  0  0  0  0
  1  6  2  0
  2  1  1  0
  3  4  1  0
  3  2  2  0
  4  5  2  0
  5  7  1  0
  5  6  1  0
  8 10  1  0
  8  7  1  0
  8  9  1  0
 10  9  1  0
  1 11  1  0
  2 12  1  0
  3 13  1  0
  7 14  1  0
  7 15  1  0
  8 16  1  6
  9 17  1  0
  9 18  1  0
 10 19  1  1
 20 21  2  0
 21 22  1  0
 22 23  1  0
 23 24  2  0
 24 25  1  0
 25 26  2  0
 26 27  1  0
 27 28  2  0
 28 20  1  0
 28 23  1  0
 21 29  1  0
 22 30  1  0
 24 31  1  0
 25 32  1  0
 26 33  1  0
 27 34  1  0
 10 20  1  0
M  ISO  8  11  14  12  14  13  14  14   8  15   8  16  13  17  13  18  13
M  ISO  1  19  13
M  END
>  <DihAtoms>  (1) 
7,9,19,20

>  <DihDeg>  (1) 
75.59700366608321

$$$$
