
 OpenBabel03252513583D

 29 32  0  0  1  0  0  0  0  0999 V2000
   35.5860   29.7040   49.2880 C   0  0  2  0  0  0  0  0  0  0  0  0
   34.5130   29.3700   50.2690 C   0  0  0  0  0  0  0  0  0  0  0  0
   34.8530   28.3680   49.2420 C   0  0  1  0  0  0  0  0  0  0  0  0
   35.3580   30.3910   48.4680 H   0  0  0  0  0  0  0  0  0  0  0  0
   34.7700   29.1360   51.3230 H   0  0  0  0  0  0  0  0  0  0  0  0
   33.6250   30.0290   50.2070 H   0  0  0  0  0  0  0  0  0  0  0  0
   35.4360   27.4720   49.6030 H   0  0  0  0  0  0  0  0  0  0  0  0
   33.8610   28.1510   48.1630 C   0  0  0  0  0  0  0  0  0  0  0  0
   33.3920   26.8380   48.0600 C   0  0  0  0  0  3  0  0  0  0  0  0
   32.5140   26.8060   47.0160 N   0  0  0  0  0  0  0  0  0  0  0  0
   32.3930   28.0050   46.4500 C   0  0  0  0  0  0  0  0  0  0  0  0
   31.6940   28.5870   45.4120 C   0  0  0  0  0  3  0  0  0  0  0  0
   31.8630   29.9510   45.1450 C   0  0  0  0  0  3  0  0  0  0  0  0
   32.7190   30.7660   45.8880 C   0  0  0  0  0  3  0  0  0  0  0  0
   33.4260   30.1790   46.9370 C   0  0  0  0  0  3  0  0  0  0  0  0
   33.2220   28.8350   47.1560 C   0  0  0  0  0  0  0  0  0  0  0  0
   31.9630   25.9890   46.6400 H   0  0  0  0  0  0  0  0  0  0  0  0
   37.0230   29.6330   49.7050 C   0  0  0  0  0  0  0  0  0  0  0  0
   37.5030   28.6670   49.4420 H   0  0  0  0  0  0  0  0  0  0  0  0
   37.0520   29.7250   50.8250 H   0  0  0  0  0  0  0  0  0  0  0  0
   38.4510   32.9970   49.2630 C   0  0  0  0  0  0  0  0  0  0  0  0
   39.0170   32.9280   47.9760 C   0  0  0  0  0  0  0  0  0  0  0  0
   38.9000   31.7170   47.2700 C   0  0  0  0  0  0  0  0  0  0  0  0
   38.2380   30.6780   47.8900 N   0  0  0  0  0  0  0  0  0  0  0  0
   37.7140   30.7960   49.1220 C   0  0  0  0  0  0  0  0  0  0  0  0
   37.8240   31.9590   49.8050 N   0  0  0  0  0  0  0  0  0  0  0  0
   38.5450   33.9340   49.8020 H   0  0  0  0  0  0  0  0  0  0  0  0
   39.5210   33.7720   47.5450 H   0  0  0  0  0  0  0  0  0  0  0  0
   39.3160   31.6080   46.2760 H   0  0  0  0  0  0  0  0  0  0  0  0
  1  4  1  6  0  0  0
  1 18  1  0  0  0  0
  1  2  1  0  0  0  0
  2  5  1  0  0  0  0
  3  1  1  0  0  0  0
  3  7  1  1  0  0  0
  3  2  1  0  0  0  0
  6  2  1  0  0  0  0
  8  3  1  0  0  0  0
  9  8  2  0  0  0  0
 10  9  1  0  0  0  0
 11 10  1  0  0  0  0
 11 16  1  0  0  0  0
 12 11  2  0  0  0  0
 13 12  1  0  0  0  0
 13 14  2  0  0  0  0
 14 15  1  0  0  0  0
 15 16  2  0  0  0  0
 16  8  1  0  0  0  0
 17 10  1  0  0  0  0
 18 20  1  0  0  0  0
 19 18  1  0  0  0  0
 21 27  1  0  0  0  0
 21 26  1  0  0  0  0
 22 21  2  0  0  0  0
 23 24  2  0  0  0  0
 23 22  1  0  0  0  0
 24 25  1  0  0  0  0
 25 18  1  0  0  0  0
 25 26  2  0  0  0  0
 28 22  1  0  0  0  0
 29 23  1  0  0  0  0
M  END
>  <minimizedAffinity>
-5.34782171

>  <minimizedRMSD>
0.969236434

$$$$
