
     RDKit          3D

 44 48  0  0  0  0  0  0  0  0999 V2000
   35.2966   29.4100   48.9802 C   0  0  2  0  0  0  0  0  0  0  0  0
   34.1887   29.3650   49.9286 C   0  0  0  0  0  0  0  0  0  0  0  0
   34.5281   28.0980   49.3526 C   0  0  1  0  0  0  0  0  0  0  0  0
   36.7114   29.3840   49.5812 C   0  0  0  0  0  0  0  0  0  0  0  0
   38.0754   32.7690   49.4449 C   0  0  0  0  0  0  0  0  0  0  0  0
   38.7514   32.7811   48.2083 C   0  0  0  0  0  0  0  0  0  0  0  0
   38.7207   31.5963   47.4348 C   0  0  0  0  0  0  0  0  0  0  0  0
   38.0399   30.5151   47.9312 N   0  0  0  0  0  0  0  0  0  0  0  0
   37.4182   30.5633   49.1098 C   0  0  0  0  0  0  0  0  0  0  0  0
   37.4425   31.6995   49.8612 N   0  0  0  0  0  0  0  0  0  0  0  0
   33.5661   27.5805   48.3007 C   0  0  0  0  0  0  0  0  0  0  0  0
   33.9101   26.4353   47.8150 O   0  0  0  0  0  0  0  0  0  0  0  0
   32.4062   28.2114   47.8559 O   0  0  0  0  0  0  0  0  0  0  0  0
   31.1454   27.8248   48.2245 C   0  0  0  0  0  0  0  0  0  0  0  0
   30.6294   27.8078   49.6172 C   0  0  0  0  0  0  0  0  0  0  0  0
   29.3565   27.3994   49.8114 C   0  0  0  0  0  0  0  0  0  0  0  0
   28.5371   27.0017   48.7356 C   0  0  0  0  0  0  0  0  0  0  0  0
   29.6364   27.2047   47.2579 S   0  0  0  0  0  0  0  0  0  0  0  0
   35.1882   29.7913   47.9684 H   0  0  0  0  0  0  0  0  0  0  0  0
   34.4256   29.5924   51.0056 H   0  0  0  0  0  0  0  0  0  0  0  0
   33.2554   29.9225   49.6369 H   0  0  0  0  0  0  0  0  0  0  0  0
   35.1745   27.3468   49.8019 H   0  0  0  0  0  0  0  0  0  0  0  0
   36.6297   29.3987   50.6782 H   0  0  0  0  0  0  0  0  0  0  0  0
   37.1985   28.4157   49.3193 H   0  0  0  0  0  0  0  0  0  0  0  0
   38.1587   33.7201   49.9578 H   0  0  0  0  0  0  0  0  0  0  0  0
   39.3092   33.5645   47.7298 H   0  0  0  0  0  0  0  0  0  0  0  0
   39.2013   31.4939   46.4778 H   0  0  0  0  0  0  0  0  0  0  0  0
   31.3194   28.1269   50.3762 H   0  0  0  0  0  0  0  0  0  0  0  0
   28.9396   27.3700   50.8054 H   0  0  0  0  0  0  0  0  0  0  0  0
   27.2498   26.5658   48.7150 C   0  0  0  0  0  0  0  0  0  0  0  0
   26.0947   27.3204   48.8717 C   0  0  0  0  0  0  0  0  0  0  0  0
   25.0085   26.5250   48.7888 N   0  0  0  0  0  0  0  0  0  0  0  0
   25.4161   25.2557   48.5801 C   0  0  0  0  0  0  0  0  0  0  0  0
   24.6567   24.1136   48.4325 C   0  0  0  0  0  0  0  0  0  0  0  0
   25.3037   22.9130   48.2259 C   0  0  0  0  0  0  0  0  0  0  0  0
   26.6641   22.8666   48.1701 C   0  0  0  0  0  0  0  0  0  0  0  0
   27.3717   24.0400   48.3243 C   0  0  0  0  0  0  0  0  0  0  0  0
   26.8115   25.2714   48.5327 C   0  0  0  0  0  0  0  0  0  0  0  0
   26.0984   28.3895   49.0350 H   0  0  0  0  0  0  0  0  0  0  0  0
   24.0303   26.9004   48.8812 H   0  0  0  0  0  0  0  0  0  0  0  0
   23.5736   24.1777   48.4811 H   0  0  0  0  0  0  0  0  0  0  0  0
   24.6360   22.0539   48.1184 H   0  0  0  0  0  0  0  0  0  0  0  0
   27.1387   21.9148   48.0076 H   0  0  0  0  0  0  0  0  0  0  0  0
   28.4478   23.9867   48.2777 H   0  0  0  0  0  0  0  0  0  0  0  0
  1  3  1  0
  1  4  1  0
  1  2  1  0
  3  2  1  0
  5 10  2  0
  6  5  1  0
  7  8  1  0
  7  6  2  0
  8  9  2  0
  9  4  1  0
  9 10  1  0
 11  3  1  0
 12 11  2  0
 13 14  1  0
 13 11  1  0
 14 15  2  0
 15 16  1  0
 17 16  2  0
 18 14  1  0
 18 17  1  0
  1 19  1  6
  2 20  1  0
  2 21  1  0
  3 22  1  1
  4 23  1  0
  4 24  1  0
  5 25  1  0
  6 26  1  0
  7 27  1  0
 15 28  1  0
 16 29  1  0
 30 31  2  0
 31 32  1  0
 32 33  1  0
 33 34  2  0
 34 35  1  0
 35 36  2  0
 36 37  1  0
 37 38  2  0
 38 30  1  0
 38 33  1  0
 31 39  1  0
 32 40  1  0
 34 41  1  0
 35 42  1  0
 36 43  1  0
 37 44  1  0
 17 30  1  0
M  ISO  8  19  13  20  13  21  13  22  13  23   8  24   8  25  14  26  14
M  ISO  3  27  14  28  14  29  14
M  END
>  <DihAtoms>  (1) 
15,16,29,30

>  <DihDeg>  (1) 
-0.001202883142071807

$$$$
