
 OpenBabel03252514053D

 39 43  0  0  1  0  0  0  0  0999 V2000
   33.9770   27.1630   47.8500 C   0  0  0  0  0  0  0  0  0  0  0  0
   34.2600   25.9100   47.7150 O   0  0  0  0  0  0  0  0  0  0  0  0
   35.3980   29.1790   48.6940 C   0  0  2  0  0  0  0  0  0  0  0  0
   34.1520   29.0700   49.4470 C   0  0  0  0  0  0  0  0  0  0  0  0
   34.6950   27.8170   49.0140 C   0  0  1  0  0  0  0  0  0  0  0  0
   35.4310   29.5020   47.6570 H   0  0  0  0  0  0  0  0  0  0  0  0
   34.1800   29.3680   50.5320 H   0  0  0  0  0  0  0  0  0  0  0  0
   33.2370   29.5200   48.9700 H   0  0  0  0  0  0  0  0  0  0  0  0
   35.3190   27.1540   49.6090 H   0  0  0  0  0  0  0  0  0  0  0  0
   36.6850   29.3180   49.5230 C   0  0  0  0  0  0  0  0  0  0  0  0
   36.4180   29.3420   50.5900 H   0  0  0  0  0  0  0  0  0  0  0  0
   37.3090   28.4040   49.3800 H   0  0  0  0  0  0  0  0  0  0  0  0
   37.7410   32.8140   49.5350 C   0  0  0  0  0  0  0  0  0  0  0  0
   38.5610   32.8930   48.3900 C   0  0  0  0  0  0  0  0  0  0  0  0
   38.7340   31.7140   47.6270 C   0  0  0  0  0  0  0  0  0  0  0  0
   38.0990   30.5730   48.0420 N   0  0  0  0  0  0  0  0  0  0  0  0
   37.3340   30.5590   49.1350 C   0  0  0  0  0  0  0  0  0  0  0  0
   37.1630   31.6890   49.8760 N   0  0  0  0  0  0  0  0  0  0  0  0
   37.6750   33.7660   50.0480 H   0  0  0  0  0  0  0  0  0  0  0  0
   39.1000   33.7270   47.9800 H   0  0  0  0  0  0  0  0  0  0  0  0
   39.3360   31.6610   46.7370 H   0  0  0  0  0  0  0  0  0  0  0  0
   33.0820   27.7760   46.9750 O   0  0  0  0  0  0  0  0  0  0  0  0
   31.7920   28.0900   47.3080 C   0  0  0  0  0  0  0  0  0  0  0  0
   31.0420   27.5180   48.4560 C   0  0  0  0  0  0  0  0  0  0  0  0
   29.7720   27.9340   48.6470 C   0  0  0  0  0  0  0  0  0  0  0  0
   29.1690   28.8810   47.7950 C   0  0  0  0  0  0  0  0  0  0  0  0
   30.4990   29.2580   46.5610 S   0  0  0  0  0  0  0  0  0  0  0  0
   31.5760   26.8050   49.0550 H   0  0  0  0  0  0  0  0  0  0  0  0
   29.1900   27.5460   49.4670 H   0  0  0  0  0  0  0  0  0  0  0  0
   27.9240   29.4260   47.8130 C   0  0  0  0  0  0  0  0  0  0  0  0
   27.3880   30.3490   46.9260 C   0  0  0  0  0  3  0  0  0  0  0  0
   26.1210   30.6470   47.2780 N   0  0  0  0  0  0  0  0  0  0  0  0
   25.8010   29.9420   48.3820 C   0  0  0  0  0  0  0  0  0  0  0  0
   24.6180   29.9280   49.0910 C   0  0  0  0  0  3  0  0  0  0  0  0
   24.5240   29.1170   50.2030 C   0  0  0  0  0  3  0  0  0  0  0  0
   25.5820   28.3480   50.5830 C   0  0  0  0  0  3  0  0  0  0  0  0
   26.7400   28.4010   49.8370 C   0  0  0  0  0  3  0  0  0  0  0  0
   26.9190   29.1780   48.7240 C   0  0  0  0  0  0  0  0  0  0  0  0
   25.5330   31.3300   46.7340 H   0  0  0  0  0  0  0  0  0  0  0  0
  1  5  1  0  0  0  0
  2  1  2  0  0  0  0
  3  6  1  6  0  0  0
  3  5  1  0  0  0  0
  3  4  1  0  0  0  0
  3 10  1  0  0  0  0
  4  7  1  0  0  0  0
  5  4  1  0  0  0  0
  5  9  1  1  0  0  0
  8  4  1  0  0  0  0
 10 11  1  0  0  0  0
 12 10  1  0  0  0  0
 13 18  1  0  0  0  0
 13 19  1  0  0  0  0
 14 13  2  0  0  0  0
 15 16  2  0  0  0  0
 15 14  1  0  0  0  0
 16 17  1  0  0  0  0
 17 10  1  0  0  0  0
 17 18  2  0  0  0  0
 20 14  1  0  0  0  0
 21 15  1  0  0  0  0
 22 23  1  0  0  0  0
 22  1  1  0  0  0  0
 23 24  2  0  0  0  0
 24 25  1  0  0  0  0
 24 28  1  0  0  0  0
 25 29  1  0  0  0  0
 26 30  1  0  0  0  0
 26 25  2  0  0  0  0
 27 23  1  0  0  0  0
 27 26  1  0  0  0  0
 30 38  1  0  0  0  0
 31 32  1  0  0  0  0
 31 30  2  0  0  0  0
 32 33  1  0  0  0  0
 33 38  2  0  0  0  0
 33 34  1  0  0  0  0
 34 35  2  0  0  0  0
 35 36  1  0  0  0  0
 37 36  2  0  0  0  0
 38 37  1  0  0  0  0
 39 32  1  0  0  0  0
M  END
>  <minimizedAffinity>
-6.28137493

>  <minimizedRMSD>
2.9595058

$$$$
