
 OpenBabel03252513463D

 23 25  0  0  0  0  0  0  0  0999 V2000
   37.2770   30.3520   49.4720 C   0  0  0  0  0  0  0  0  0  0  0  0
   38.0310   31.3090   50.1700 C   0  0  0  0  0  0  0  0  0  0  0  0
   38.6250   32.3140   49.4220 C   0  0  0  0  0  0  0  0  0  0  0  0
   38.4630   32.3350   48.0830 N   0  0  0  0  0  0  0  0  0  0  0  0
   37.7420   31.4150   47.4410 C   0  0  0  0  0  0  0  0  0  0  0  0
   37.1770   30.4600   48.1580 N   0  0  0  0  0  0  0  0  0  0  0  0
   38.1500   31.2780   51.2320 H   0  0  0  0  0  0  0  0  0  0  0  0
   39.2180   33.0900   49.8460 H   0  0  0  0  0  0  0  0  0  0  0  0
   37.4430   31.2700   46.0100 C   0  0  0  0  0  0  0  0  0  0  0  0
   36.4140   30.4600   45.5110 C   0  0  0  0  0  3  0  0  0  0  0  0
   36.1210   30.3170   44.1820 C   0  0  0  0  0  3  0  0  0  0  0  0
   36.8570   30.9890   43.2430 C   0  0  0  0  0  3  0  0  0  0  0  0
   37.8690   31.7890   43.6570 C   0  0  0  0  0  0  0  0  0  0  0  0
   38.5830   32.4490   42.6840 C   0  0  0  0  0  3  0  0  0  0  0  0
   39.6200   33.2810   43.0160 C   0  0  0  0  0  3  0  0  0  0  0  0
   39.9140   33.4240   44.3770 C   0  0  0  0  0  3  0  0  0  0  0  0
   39.1660   32.7390   45.3080 C   0  0  0  0  0  3  0  0  0  0  0  0
   38.1250   31.9030   44.9990 C   0  0  0  0  0  0  0  0  0  0  0  0
   36.6720   29.3390   50.1750 O   0  0  0  0  0  0  0  0  0  0  0  0
   35.3290   29.2520   50.5020 C   0  0  0  0  0  0  0  0  0  0  0  0
   35.1010   29.0790   51.8510 F   0  0  0  0  0  0  0  0  0  0  0  0
   34.5770   30.2970   50.0130 F   0  0  0  0  0  0  0  0  0  0  0  0
   34.8520   28.0950   49.8550 F   0  0  0  0  0  0  0  0  0  0  0  0
  1  2  1  0  0  0  0
  1 19  1  0  0  0  0
  2  7  1  0  0  0  0
  3  8  1  0  0  0  0
  3  2  2  0  0  0  0
  4  3  1  0  0  0  0
  5  4  2  0  0  0  0
  5  6  1  0  0  0  0
  6  1  2  0  0  0  0
  9  5  1  0  0  0  0
 10  9  1  0  0  0  0
 11 10  2  0  0  0  0
 12 13  2  0  0  0  0
 12 11  1  0  0  0  0
 13 18  1  0  0  0  0
 14 15  2  0  0  0  0
 14 13  1  0  0  0  0
 15 16  1  0  0  0  0
 16 17  2  0  0  0  0
 18 17  1  0  0  0  0
 18  9  2  0  0  0  0
 19 20  1  0  0  0  0
 20 21  1  0  0  0  0
 22 20  1  0  0  0  0
 23 20  1  0  0  0  0
M  END
>  <minimizedAffinity>
-6.27137566

>  <minimizedRMSD>
1.42604029

$$$$
