
     RDKit          3D

 36 38  0  0  0  0  0  0  0  0999 V2000
   36.9000   29.9574   49.8470 C   0  0  0  0  0  0  0  0  0  0  0  0
   38.0086   30.6309   49.3781 C   0  0  0  0  0  0  0  0  0  0  0  0
   38.0014   31.0857   48.0653 C   0  0  0  0  0  0  0  0  0  0  0  0
   36.8954   30.8400   47.3112 N   0  0  0  0  0  0  0  0  0  0  0  0
   35.8168   30.1739   47.7990 C   0  0  0  0  0  0  0  0  0  0  0  0
   35.8587   29.7519   49.0640 N   0  0  0  0  0  0  0  0  0  0  0  0
   39.1009   31.7870   47.5171 N   0  0  0  0  0  0  0  0  0  0  0  0
   38.9615   32.5993   46.3580 C   0  0  0  0  0  0  0  0  0  0  0  0
   37.8817   32.5113   45.6823 N   0  0  0  0  0  0  0  0  0  0  0  0
   40.0003   33.4790   45.9737 N   0  0  0  0  0  0  0  0  0  0  0  0
   37.8323   32.9838   44.7472 H   0  0  0  0  0  0  0  0  0  0  0  0
   36.8744   29.4499   51.2567 C   0  0  0  0  0  0  0  0  0  0  0  0
   35.5848   29.1701   51.6538 F   0  0  0  0  0  0  0  0  0  0  0  0
   37.7418   28.4012   51.3523 F   0  0  0  0  0  0  0  0  0  0  0  0
   37.3494   30.5005   52.0652 F   0  0  0  0  0  0  0  0  0  0  0  0
   38.8623   30.7996   50.0198 H   0  0  0  0  0  0  0  0  0  0  0  0
   40.0311   31.7144   47.9613 H   0  0  0  0  0  0  0  0  0  0  0  0
   39.8274   34.1679   45.1976 H   0  0  0  0  0  0  0  0  0  0  0  0
   40.9214   33.4402   46.4563 H   0  0  0  0  0  0  0  0  0  0  0  0
   34.7612   30.0036   46.8111 C   0  0  0  0  0  0  0  0  0  0  0  0
   33.8183   29.0087   46.9370 C   0  0  0  0  0  0  0  0  0  0  0  0
   32.8037   28.7842   46.0421 C   0  0  0  0  0  0  0  0  0  0  0  0
   32.6688   29.5721   44.9273 C   0  0  0  0  0  0  0  0  0  0  0  0
   33.5825   30.5855   44.7444 C   0  0  0  0  0  0  0  0  0  0  0  0
   33.4619   31.3761   43.6296 C   0  0  0  0  0  0  0  0  0  0  0  0
   34.3459   32.4034   43.3801 C   0  0  0  0  0  0  0  0  0  0  0  0
   35.3621   32.5955   44.3139 C   0  0  0  0  0  0  0  0  0  0  0  0
   35.4403   31.7780   45.4135 C   0  0  0  0  0  0  0  0  0  0  0  0
   34.5748   30.7535   45.6821 C   0  0  0  0  0  0  0  0  0  0  0  0
   33.7985   28.3245   47.7579 H   0  0  0  0  0  0  0  0  0  0  0  0
   32.0694   28.0004   46.1515 H   0  0  0  0  0  0  0  0  0  0  0  0
   31.8786   29.4157   44.2087 H   0  0  0  0  0  0  0  0  0  0  0  0
   32.6699   31.2212   42.9081 H   0  0  0  0  0  0  0  0  0  0  0  0
   34.2250   33.0039   42.4999 H   0  0  0  0  0  0  0  0  0  0  0  0
   36.0427   33.4089   44.0936 H   0  0  0  0  0  0  0  0  0  0  0  0
   36.2606   32.0200   46.0453 H   0  0  0  0  0  0  0  0  0  0  0  0
  1 12  1  0
  2  1  2  0
  3  2  1  0
  4  5  1  0
  4  3  2  0
  5  6  2  0
  6  1  1  0
  7  3  1  0
  8  7  1  0
  9  8  2  0
 10  8  1  0
 11  9  1  0
 12 14  1  0
 12 13  1  0
 12 15  1  0
  2 16  1  0
  7 17  1  0
 10 18  1  0
 10 19  1  0
 20 21  2  0
 21 22  1  0
 22 23  2  0
 23 24  1  0
 24 25  2  0
 25 26  1  0
 26 27  2  0
 27 28  1  0
 28 29  2  0
 29 20  1  0
 29 24  1  0
 21 30  1  0
 22 31  1  0
 23 32  1  0
 25 33  1  0
 26 34  1  0
 27 35  1  0
 28 36  1  0
  5 20  1  0
M  ISO  1  16  14
M  END
>  <DihAtoms>  (1) 
3,4,19,20

>  <DihDeg>  (1) 
7.840036438915178

$$$$
