
 OpenBabel03252513463D

 23 25  0  0  0  0  0  0  0  0999 V2000
   37.1690   30.1230   49.4620 C   0  0  0  0  0  0  0  0  0  0  0  0
   37.9510   30.9790   50.2540 C   0  0  0  0  0  0  0  0  0  0  0  0
   38.6390   31.9910   49.6040 C   0  0  0  0  0  0  0  0  0  0  0  0
   38.5370   32.1130   48.2640 N   0  0  0  0  0  0  0  0  0  0  0  0
   37.7890   31.2880   47.5310 C   0  0  0  0  0  0  0  0  0  0  0  0
   37.1340   30.3260   48.1560 N   0  0  0  0  0  0  0  0  0  0  0  0
   38.0200   30.8680   51.3160 H   0  0  0  0  0  0  0  0  0  0  0  0
   39.2600   32.6960   50.1040 H   0  0  0  0  0  0  0  0  0  0  0  0
   37.5450   31.2610   46.0830 C   0  0  0  0  0  0  0  0  0  0  0  0
   36.5340   30.4990   45.4800 C   0  0  0  0  0  3  0  0  0  0  0  0
   36.2930   30.4640   44.1340 C   0  0  0  0  0  3  0  0  0  0  0  0
   37.0640   31.2070   43.2820 C   0  0  0  0  0  3  0  0  0  0  0  0
   38.0600   31.9680   43.7970 C   0  0  0  0  0  0  0  0  0  0  0  0
   38.8120   32.7010   42.9080 C   0  0  0  0  0  3  0  0  0  0  0  0
   39.8360   33.4980   43.3450 C   0  0  0  0  0  3  0  0  0  0  0  0
   40.0780   33.5310   44.7240 C   0  0  0  0  0  3  0  0  0  0  0  0
   39.2940   32.7760   45.5680 C   0  0  0  0  0  3  0  0  0  0  0  0
   38.2650   31.9710   45.1530 C   0  0  0  0  0  0  0  0  0  0  0  0
   36.4720   29.1060   50.0670 O   0  0  0  0  0  0  0  0  0  0  0  0
   35.1480   29.1440   50.4720 C   0  0  0  0  0  0  0  0  0  0  0  0
   34.9880   29.0530   51.8390 F   0  0  0  0  0  0  0  0  0  0  0  0
   34.4520   30.2230   49.9730 F   0  0  0  0  0  0  0  0  0  0  0  0
   34.5440   28.0010   49.9120 F   0  0  0  0  0  0  0  0  0  0  0  0
  1 19  1  0  0  0  0
  1  2  1  0  0  0  0
  2  7  1  0  0  0  0
  3  8  1  0  0  0  0
  3  2  2  0  0  0  0
  4  3  1  0  0  0  0
  5  6  1  0  0  0  0
  5  4  2  0  0  0  0
  6  1  2  0  0  0  0
  9  5  1  0  0  0  0
 10  9  1  0  0  0  0
 11 10  2  0  0  0  0
 12 13  2  0  0  0  0
 12 11  1  0  0  0  0
 13 18  1  0  0  0  0
 14 15  2  0  0  0  0
 14 13  1  0  0  0  0
 15 16  1  0  0  0  0
 16 17  2  0  0  0  0
 18 17  1  0  0  0  0
 18  9  2  0  0  0  0
 19 20  1  0  0  0  0
 20 21  1  0  0  0  0
 22 20  1  0  0  0  0
 23 20  1  0  0  0  0
M  END
>  <minimizedAffinity>
-6.33228874

>  <minimizedRMSD>
1.60611546

$$$$
