
 OpenBabel03252510483D

 39 43  0  0  1  0  0  0  0  0999 V2000
   37.5870   31.4390   48.5460 N   0  0  0  0  0  0  0  0  0  0  0  0
   38.4560   31.7930   49.6530 C   0  0  0  0  0  0  0  0  0  0  0  0
   38.7780   33.2210   49.3440 C   0  0  0  0  0  0  0  0  0  0  0  0
   39.0850   33.1190   47.8700 C   0  0  0  0  0  0  0  0  0  0  0  0
   37.9200   32.2720   47.4240 C   0  0  1  0  0  0  0  0  0  0  0  0
   37.8770   31.7390   50.6070 H   0  0  0  0  0  0  0  0  0  0  0  0
   39.3710   31.1910   49.6780 H   0  0  0  0  0  0  0  0  0  0  0  0
   39.7350   33.5140   49.8400 H   0  0  0  0  0  0  0  0  0  0  0  0
   37.9820   33.9270   49.5700 H   0  0  0  0  0  0  0  0  0  0  0  0
   39.0150   34.1230   47.4300 H   0  0  0  0  0  0  0  0  0  0  0  0
   40.0640   32.6860   47.6800 H   0  0  0  0  0  0  0  0  0  0  0  0
   37.0580   32.9520   47.2950 H   0  0  0  0  0  0  0  0  0  0  0  0
   36.5130   29.3750   49.4340 C   0  0  0  0  0  0  0  0  0  0  0  0
   36.5830   30.4520   48.5320 C   0  0  0  0  0  0  0  0  0  0  0  0
   35.5860   30.5570   47.5340 C   0  0  0  0  0  0  0  0  0  0  0  0
   34.6100   29.6130   47.4970 N   0  0  0  0  0  0  0  0  0  0  0  0
   34.5790   28.5850   48.3890 C   0  0  0  0  0  0  0  0  0  0  0  0
   35.5280   28.4670   49.3550 N   0  0  0  0  0  0  0  0  0  0  0  0
   37.3250   29.4000   50.1470 H   0  0  0  0  0  0  0  0  0  0  0  0
   35.5980   31.3630   46.8240 H   0  0  0  0  0  0  0  0  0  0  0  0
   33.8030   27.8360   48.3560 H   0  0  0  0  0  0  0  0  0  0  0  0
   38.2890   31.5540   46.2040 C   0  0  0  0  0  0  0  0  0  0  0  0
   39.0720   30.4110   46.0490 C   0  0  0  0  0  0  0  0  0  0  0  0
   39.2790   29.9250   44.7880 C   0  0  0  0  0  0  0  0  0  0  0  0
   38.7460   30.5320   43.7510 N   0  0  0  0  0  0  0  0  0  0  0  0
   37.9920   31.6250   43.8460 C   0  0  0  0  0  0  0  0  0  0  0  0
   37.8020   32.0830   45.0940 N   0  0  0  0  0  0  0  0  0  0  0  0
   39.4500   30.0080   46.9760 H   0  0  0  0  0  0  0  0  0  0  0  0
   39.8810   29.0460   44.6720 H   0  0  0  0  0  0  0  0  0  0  0  0
   37.3250   32.4200   42.7870 C   0  0  0  0  0  0  0  0  0  0  0  0
   38.0720   33.2850   41.9750 C   0  0  0  0  0  0  0  0  0  0  0  0
   37.5100   34.0430   40.9820 C   0  0  0  0  0  0  0  0  0  0  0  0
   36.1600   33.9840   40.7350 C   0  0  0  0  0  0  0  0  0  0  0  0
   35.3950   33.1490   41.5050 C   0  0  0  0  0  0  0  0  0  0  0  0
   34.0460   33.0900   41.2590 C   0  0  0  0  0  0  0  0  0  0  0  0
   33.2150   32.2720   41.9960 C   0  0  0  0  0  0  0  0  0  0  0  0
   33.8270   31.5170   42.9970 C   0  0  0  0  0  0  0  0  0  0  0  0
   35.1780   31.6030   43.2140 C   0  0  0  0  0  0  0  0  0  0  0  0
   36.0010   32.4140   42.4850 C   0  0  0  0  0  0  0  0  0  0  0  0
  1  2  1  0  0  0  0
  2  7  1  0  0  0  0
  2  6  1  0  0  0  0
  3  9  1  0  0  0  0
  3  2  1  0  0  0  0
  3  8  1  0  0  0  0
  4  3  1  0  0  0  0
  5 12  1  6  0  0  0
  5  4  1  0  0  0  0
  5  1  1  0  0  0  0
 10  4  1  0  0  0  0
 11  4  1  0  0  0  0
 13 19  1  0  0  0  0
 14  1  1  0  0  0  0
 14 13  2  0  0  0  0
 15 14  1  0  0  0  0
 16 15  2  0  0  0  0
 16 17  1  0  0  0  0
 17 18  2  0  0  0  0
 18 13  1  0  0  0  0
 20 15  1  0  0  0  0
 21 17  1  0  0  0  0
 22  5  1  0  0  0  0
 23 22  1  0  0  0  0
 23 28  1  0  0  0  0
 24 23  2  0  0  0  0
 25 26  2  0  0  0  0
 25 24  1  0  0  0  0
 26 27  1  0  0  0  0
 27 22  2  0  0  0  0
 29 24  1  0  0  0  0
 30 26  1  0  0  0  0
 31 30  2  0  0  0  0
 32 31  1  0  0  0  0
 33 32  2  0  0  0  0
 33 34  1  0  0  0  0
 34 39  1  0  0  0  0
 35 34  2  0  0  0  0
 35 36  1  0  0  0  0
 36 37  2  0  0  0  0
 37 38  1  0  0  0  0
 39 30  1  0  0  0  0
 39 38  2  0  0  0  0
M  END
>  <minimizedAffinity>
-6.03235435

>  <minimizedRMSD>
0.49073565

$$$$
