
     RDKit          3D

 33 35  0  0  0  0  0  0  0  0999 V2000
   37.4906   30.3335   49.1631 C   0  0  0  0  0  0  0  0  0  0  0  0
   37.7699   31.4054   50.0490 C   0  0  0  0  0  0  0  0  0  0  0  0
   38.4703   32.5050   49.5598 C   0  0  0  0  0  0  0  0  0  0  0  0
   38.8284   32.4536   48.2612 N   0  0  0  0  0  0  0  0  0  0  0  0
   38.5578   31.4390   47.4425 C   0  0  0  0  0  0  0  0  0  0  0  0
   37.8961   30.3972   47.9009 N   0  0  0  0  0  0  0  0  0  0  0  0
   39.0449   31.5967   46.0471 C   0  0  0  0  0  0  0  0  0  0  0  0
   38.3079   32.5949   45.3856 F   0  0  0  0  0  0  0  0  0  0  0  0
   40.3497   32.0030   46.0292 F   0  0  0  0  0  0  0  0  0  0  0  0
   38.9585   30.4104   45.3251 F   0  0  0  0  0  0  0  0  0  0  0  0
   36.7925   29.2345   49.6479 O   0  0  0  0  0  0  0  0  0  0  0  0
   35.5414   29.2768   50.2317 C   0  0  0  0  0  0  0  0  0  0  0  0
   35.5480   29.2281   51.6195 F   0  0  0  0  0  0  0  0  0  0  0  0
   34.7639   30.3386   49.7977 F   0  0  0  0  0  0  0  0  0  0  0  0
   34.8920   28.1163   49.7916 F   0  0  0  0  0  0  0  0  0  0  0  0
   37.3879   31.2389   51.0358 H   0  0  0  0  0  0  0  0  0  0  0  0
   38.7079   33.5741   50.5088 C   0  0  0  0  0  0  0  0  0  0  0  0
   39.9766   33.8894   50.9415 C   0  0  0  0  0  0  0  0  0  0  0  0
   40.2645   34.8773   51.8394 C   0  0  0  0  0  0  0  0  0  0  0  0
   39.2644   35.6514   52.3907 C   0  0  0  0  0  0  0  0  0  0  0  0
   37.9822   35.3845   51.9992 C   0  0  0  0  0  0  0  0  0  0  0  0
   36.9696   36.1437   52.5450 C   0  0  0  0  0  0  0  0  0  0  0  0
   35.6576   35.9312   52.2074 C   0  0  0  0  0  0  0  0  0  0  0  0
   35.3999   34.9111   51.2868 C   0  0  0  0  0  0  0  0  0  0  0  0
   36.4375   34.1903   50.7772 C   0  0  0  0  0  0  0  0  0  0  0  0
   37.7553   34.3777   51.0925 C   0  0  0  0  0  0  0  0  0  0  0  0
   40.8644   33.3978   50.6165 H   0  0  0  0  0  0  0  0  0  0  0  0
   41.2662   35.1221   52.1771 H   0  0  0  0  0  0  0  0  0  0  0  0
   39.4644   36.4354   53.0994 H   0  0  0  0  0  0  0  0  0  0  0  0
   37.1897   36.9224   53.2506 H   0  0  0  0  0  0  0  0  0  0  0  0
   34.8640   36.5156   52.6257 H   0  0  0  0  0  0  0  0  0  0  0  0
   34.3510   34.7771   51.0487 H   0  0  0  0  0  0  0  0  0  0  0  0
   36.1288   33.4364   50.0934 H   0  0  0  0  0  0  0  0  0  0  0  0
  1 11  1  0
  1  2  2  0
  3  2  1  0
  4  3  2  0
  5  6  2  0
  5  4  1  0
  6  1  1  0
  7  5  1  0
  8  7  1  0
  9  7  1  0
 10  7  1  0
 11 12  1  0
 12 13  1  0
 14 12  1  0
 15 12  1  0
  2 16  1  0
 17 18  2  0
 18 19  1  0
 19 20  2  0
 20 21  1  0
 21 22  2  0
 22 23  1  0
 23 24  2  0
 24 25  1  0
 25 26  2  0
 26 17  1  0
 26 21  1  0
 18 27  1  0
 19 28  1  0
 20 29  1  0
 22 30  1  0
 23 31  1  0
 24 32  1  0
 25 33  1  0
  3 17  1  0
M  ISO  1  16  14
M  END
>  <DihAtoms>  (1) 
1,2,16,17

>  <DihDeg>  (1) 
8.47671972568453

$$$$
