
     RDKit          3D

 30 32  0  0  0  0  0  0  0  0999 V2000
   37.9662   30.9547   49.2632 C   0  0  0  0  0  0  0  0  0  0  0  0
   38.3956   32.2586   49.5589 C   0  0  0  0  0  0  0  0  0  0  0  0
   38.8823   33.0188   48.5072 C   0  0  0  0  0  0  0  0  0  0  0  0
   38.9248   32.4910   47.2664 N   0  0  0  0  0  0  0  0  0  0  0  0
   38.5113   31.2501   47.0081 C   0  0  0  0  0  0  0  0  0  0  0  0
   38.0485   30.5299   48.0142 N   0  0  0  0  0  0  0  0  0  0  0  0
   37.4778   30.1675   50.2768 O   0  0  0  0  0  0  0  0  0  0  0  0
   36.1676   29.7462   50.4339 C   0  0  0  0  0  0  0  0  0  0  0  0
   35.8489   29.4123   51.7345 F   0  0  0  0  0  0  0  0  0  0  0  0
   35.2428   30.6267   49.9193 F   0  0  0  0  0  0  0  0  0  0  0  0
   36.0510   28.5690   49.6686 F   0  0  0  0  0  0  0  0  0  0  0  0
   38.3549   32.6620   50.5490 H   0  0  0  0  0  0  0  0  0  0  0  0
   39.2339   34.0169   48.6156 H   0  0  0  0  0  0  0  0  0  0  0  0
   38.4700   30.5064   45.7421 C   0  0  0  0  0  0  0  0  0  0  0  0
   37.7680   29.3052   45.5704 C   0  0  0  0  0  0  0  0  0  0  0  0
   37.7180   28.6018   44.3977 C   0  0  0  0  0  0  0  0  0  0  0  0
   38.3824   29.0645   43.2938 C   0  0  0  0  0  0  0  0  0  0  0  0
   39.0815   30.2210   43.3893 C   0  0  0  0  0  0  0  0  0  0  0  0
   39.7334   30.6541   42.2577 C   0  0  0  0  0  0  0  0  0  0  0  0
   40.4605   31.8144   42.2669 C   0  0  0  0  0  0  0  0  0  0  0  0
   40.5075   32.5298   43.4691 C   0  0  0  0  0  0  0  0  0  0  0  0
   39.8363   32.0500   44.5712 C   0  0  0  0  0  0  0  0  0  0  0  0
   39.1030   30.8916   44.5850 C   0  0  0  0  0  0  0  0  0  0  0  0
   37.2226   28.9067   46.4414 H   0  0  0  0  0  0  0  0  0  0  0  0
   37.1488   27.6956   44.3863 H   0  0  0  0  0  0  0  0  0  0  0  0
   38.2950   28.4584   42.4154 H   0  0  0  0  0  0  0  0  0  0  0  0
   39.6863   30.0886   41.3369 H   0  0  0  0  0  0  0  0  0  0  0  0
   40.9588   32.1242   41.3623 H   0  0  0  0  0  0  0  0  0  0  0  0
   41.0929   33.4386   43.4286 H   0  0  0  0  0  0  0  0  0  0  0  0
   39.9570   32.6918   45.4058 H   0  0  0  0  0  0  0  0  0  0  0  0
  1  2  2  0
  1  7  1  0
  3  2  1  0
  4  3  2  0
  5  4  1  0
  5  6  2  0
  6  1  1  0
  7  8  1  0
  8  9  1  0
 10  8  1  0
 11  8  1  0
  2 12  1  0
  3 13  1  0
 14 15  2  0
 15 16  1  0
 16 17  2  0
 17 18  1  0
 18 19  2  0
 19 20  1  0
 20 21  2  0
 21 22  1  0
 22 23  2  0
 23 14  1  0
 23 18  1  0
 15 24  1  0
 16 25  1  0
 17 26  1  0
 19 27  1  0
 20 28  1  0
 21 29  1  0
 22 30  1  0
  5 14  1  0
M  ISO  2  12  14  13  14
M  END
>  <DihAtoms>  (1) 
3,4,13,14

>  <DihDeg>  (1) 
178.12556590517548

$$$$
