
 OpenBabel03252510143D

 36 40  0  0  1  0  0  0  0  0999 V2000
   35.6720   29.6820   47.9200 N   0  0  0  0  0  0  0  0  0  0  0  0
   34.6230   28.8090   48.0720 C   0  0  0  0  0  0  0  0  0  0  0  0
   33.8180   28.4520   46.9910 C   0  0  0  0  0  0  0  0  0  0  0  0
   34.1190   29.0120   45.7480 C   0  0  0  0  0  0  0  0  0  0  0  0
   33.4040   28.7020   44.7850 O   0  0  0  0  0  0  0  0  0  0  0  0
   35.1720   29.8710   45.6530 N   0  0  0  0  0  0  0  0  0  0  0  0
   35.9020   30.1760   46.7180 C   0  0  0  0  0  0  0  0  0  0  0  0
   36.8630   30.9520   46.6970 O   0  0  0  0  0  0  0  0  0  0  0  0
   34.3280   28.3370   48.9950 H   0  0  0  0  0  0  0  0  0  0  0  0
   32.9860   27.7680   47.0890 H   0  0  0  0  0  0  0  0  0  0  0  0
   38.1430   30.8430   50.3620 C   0  0  0  0  0  0  0  0  0  0  0  0
   37.4900   30.6540   49.1200 C   0  0  0  0  0  0  0  0  0  0  0  0
   36.3360   29.8860   49.1420 C   0  0  0  0  0  0  0  0  0  0  0  0
   35.8870   29.3570   50.3280 N   0  0  0  0  0  0  0  0  0  0  0  0
   36.5450   29.5640   51.4900 C   0  0  0  0  0  0  0  0  0  0  0  0
   37.6710   30.3070   51.5110 N   0  0  0  0  0  0  0  0  0  0  0  0
   39.0480   31.4400   50.3770 H   0  0  0  0  0  0  0  0  0  0  0  0
   37.9450   31.1210   48.2680 H   0  0  0  0  0  0  0  0  0  0  0  0
   36.1520   29.1290   52.3910 H   0  0  0  0  0  0  0  0  0  0  0  0
   35.4510   30.4110   44.3550 C   0  0  2  0  0  0  0  0  0  0  0  0
   36.4650   29.8290   43.4760 C   0  0  0  0  0  0  0  0  0  0  0  0
   36.5520   31.2850   44.0620 C   0  0  1  0  0  0  0  0  0  0  0  0
   34.4670   30.5960   43.8140 H   0  0  0  0  0  0  0  0  0  0  0  0
   37.4650   29.4500   43.5920 H   0  0  0  0  0  0  0  0  0  0  0  0
   36.2100   29.7640   42.3710 H   0  0  0  0  0  0  0  0  0  0  0  0
   37.2260   31.4270   44.9580 H   0  0  0  0  0  0  0  0  0  0  0  0
   36.8460   32.2270   43.0240 C   0  0  0  0  0  0  0  0  0  0  0  0
   38.2320   32.2990   42.7830 C   0  0  0  0  0  0  0  0  0  0  0  0
   38.7610   33.1230   41.7870 C   0  0  0  0  0  0  0  0  0  0  0  0
   37.8940   33.8660   41.0410 C   0  0  0  0  0  0  0  0  0  0  0  0
   36.5340   33.8380   41.2290 C   0  0  0  0  0  0  0  0  0  0  0  0
   35.6250   34.5860   40.5010 C   0  0  0  0  0  0  0  0  0  0  0  0
   34.2510   34.5140   40.7600 C   0  0  0  0  0  0  0  0  0  0  0  0
   33.8180   33.6650   41.7780 C   0  0  0  0  0  0  0  0  0  0  0  0
   34.7490   32.9340   42.4840 C   0  0  0  0  0  0  0  0  0  0  0  0
   36.0810   33.0180   42.2140 C   0  0  0  0  0  0  0  0  0  0  0  0
  1  2  1  0  0  0  0
  1 13  1  0  0  0  0
  2  9  1  0  0  0  0
  3 10  1  0  0  0  0
  3  2  2  0  0  0  0
  4  3  1  0  0  0  0
  5  4  2  0  0  0  0
  6  4  1  0  0  0  0
  6  7  1  0  0  0  0
  7  1  1  0  0  0  0
  8  7  2  0  0  0  0
 11 17  1  0  0  0  0
 11 16  1  0  0  0  0
 12 13  1  0  0  0  0
 12 11  2  0  0  0  0
 13 14  2  0  0  0  0
 14 15  1  0  0  0  0
 15 16  2  0  0  0  0
 15 19  1  0  0  0  0
 18 12  1  0  0  0  0
 20 23  1  6  0  0  0
 20  6  1  0  0  0  0
 21 24  1  0  0  0  0
 21 22  1  0  0  0  0
 21 20  1  0  0  0  0
 22 20  1  0  0  0  0
 22 26  1  1  0  0  0
 25 21  1  0  0  0  0
 27 22  1  0  0  0  0
 28 27  1  0  0  0  0
 29 28  2  0  0  0  0
 30 31  2  0  0  0  0
 30 29  1  0  0  0  0
 31 36  1  0  0  0  0
 32 33  2  0  0  0  0
 32 31  1  0  0  0  0
 33 34  1  0  0  0  0
 34 35  2  0  0  0  0
 36 35  1  0  0  0  0
 36 27  2  0  0  0  0
M  END
>  <minimizedAffinity>
-5.63160944

>  <minimizedRMSD>
5.6289649

$$$$
