
     RDKit          3D

 30 32  0  0  0  0  0  0  0  0999 V2000
   37.9662   30.9547   49.2632 C   0  0  0  0  0  0  0  0  0  0  0  0
   38.3956   32.2586   49.5589 C   0  0  0  0  0  0  0  0  0  0  0  0
   38.8823   33.0188   48.5072 C   0  0  0  0  0  0  0  0  0  0  0  0
   38.9248   32.4910   47.2664 N   0  0  0  0  0  0  0  0  0  0  0  0
   38.5113   31.2501   47.0081 C   0  0  0  0  0  0  0  0  0  0  0  0
   38.0485   30.5299   48.0142 N   0  0  0  0  0  0  0  0  0  0  0  0
   37.4778   30.1675   50.2768 O   0  0  0  0  0  0  0  0  0  0  0  0
   36.1676   29.7462   50.4339 C   0  0  0  0  0  0  0  0  0  0  0  0
   35.8489   29.4123   51.7345 F   0  0  0  0  0  0  0  0  0  0  0  0
   35.2428   30.6267   49.9193 F   0  0  0  0  0  0  0  0  0  0  0  0
   36.0510   28.5690   49.6686 F   0  0  0  0  0  0  0  0  0  0  0  0
   38.3549   32.6620   50.5490 H   0  0  0  0  0  0  0  0  0  0  0  0
   39.2339   34.0169   48.6156 H   0  0  0  0  0  0  0  0  0  0  0  0
   38.4700   30.5064   45.7421 C   0  0  0  0  0  0  0  0  0  0  0  0
   39.5403   29.7430   45.2554 C   0  0  0  0  0  0  0  0  0  0  0  0
   39.5168   29.0432   44.0797 C   0  0  0  0  0  0  0  0  0  0  0  0
   38.3951   29.0614   43.2952 C   0  0  0  0  0  0  0  0  0  0  0  0
   37.3224   29.7797   43.7060 C   0  0  0  0  0  0  0  0  0  0  0  0
   36.2136   29.7709   42.8914 C   0  0  0  0  0  0  0  0  0  0  0  0
   35.0857   30.4681   43.2331 C   0  0  0  0  0  0  0  0  0  0  0  0
   35.1154   31.1815   44.4370 C   0  0  0  0  0  0  0  0  0  0  0  0
   36.2520   31.1556   45.2136 C   0  0  0  0  0  0  0  0  0  0  0  0
   37.3918   30.4651   44.8913 C   0  0  0  0  0  0  0  0  0  0  0  0
   40.4581   29.7086   45.8648 H   0  0  0  0  0  0  0  0  0  0  0  0
   40.3959   28.4953   43.8107 H   0  0  0  0  0  0  0  0  0  0  0  0
   38.4550   28.4896   42.3919 H   0  0  0  0  0  0  0  0  0  0  0  0
   36.2080   29.2138   41.9643 H   0  0  0  0  0  0  0  0  0  0  0  0
   34.2349   30.4393   42.5715 H   0  0  0  0  0  0  0  0  0  0  0  0
   34.2032   31.7163   44.6651 H   0  0  0  0  0  0  0  0  0  0  0  0
   36.1316   31.7350   46.0927 H   0  0  0  0  0  0  0  0  0  0  0  0
  1  2  2  0
  1  7  1  0
  3  2  1  0
  4  3  2  0
  5  4  1  0
  5  6  2  0
  6  1  1  0
  7  8  1  0
  8  9  1  0
 10  8  1  0
 11  8  1  0
  2 12  1  0
  3 13  1  0
 14 15  2  0
 15 16  1  0
 16 17  2  0
 17 18  1  0
 18 19  2  0
 19 20  1  0
 20 21  2  0
 21 22  1  0
 22 23  2  0
 23 14  1  0
 23 18  1  0
 15 24  1  0
 16 25  1  0
 17 26  1  0
 19 27  1  0
 20 28  1  0
 21 29  1  0
 22 30  1  0
  5 14  1  0
M  ISO  2  12  14  13  14
M  END
>  <DihAtoms>  (1) 
3,4,13,14

>  <DihDeg>  (1) 
178.12556590517548

$$$$
