
 OpenBabel03252513463D

 23 25  0  0  0  0  0  0  0  0999 V2000
   37.4420   30.7180   49.3740 C   0  0  0  0  0  0  0  0  0  0  0  0
   38.0790   31.8970   49.7950 C   0  0  0  0  0  0  0  0  0  0  0  0
   38.5510   32.7490   48.8090 C   0  0  0  0  0  0  0  0  0  0  0  0
   38.3860   32.4220   47.5100 N   0  0  0  0  0  0  0  0  0  0  0  0
   37.7780   31.2970   47.1330 C   0  0  0  0  0  0  0  0  0  0  0  0
   37.3290   30.4890   48.0770 N   0  0  0  0  0  0  0  0  0  0  0  0
   38.2010   32.1410   50.8300 H   0  0  0  0  0  0  0  0  0  0  0  0
   39.0480   33.6670   49.0130 H   0  0  0  0  0  0  0  0  0  0  0  0
   37.4980   30.7720   45.7900 C   0  0  0  0  0  0  0  0  0  0  0  0
   36.2290   30.3490   45.3720 C   0  0  0  0  0  3  0  0  0  0  0  0
   35.9510   29.8600   44.1240 C   0  0  0  0  0  3  0  0  0  0  0  0
   36.9480   29.7610   43.1910 C   0  0  0  0  0  3  0  0  0  0  0  0
   38.1990   30.1550   43.5270 C   0  0  0  0  0  0  0  0  0  0  0  0
   39.1730   30.0430   42.5620 C   0  0  0  0  0  3  0  0  0  0  0  0
   40.4640   30.4200   42.8180 C   0  0  0  0  0  3  0  0  0  0  0  0
   40.7420   30.9190   44.0970 C   0  0  0  0  0  3  0  0  0  0  0  0
   39.7290   31.0100   45.0240 C   0  0  0  0  0  3  0  0  0  0  0  0
   38.4300   30.6380   44.7900 C   0  0  0  0  0  0  0  0  0  0  0  0
   36.9610   29.8470   50.3200 O   0  0  0  0  0  0  0  0  0  0  0  0
   35.6400   29.4690   50.4940 C   0  0  0  0  0  0  0  0  0  0  0  0
   35.3290   29.1360   51.7960 F   0  0  0  0  0  0  0  0  0  0  0  0
   34.7370   30.3850   50.0000 F   0  0  0  0  0  0  0  0  0  0  0  0
   35.4710   28.3020   49.7230 F   0  0  0  0  0  0  0  0  0  0  0  0
  1  2  1  0  0  0  0
  1 19  1  0  0  0  0
  2  7  1  0  0  0  0
  3  8  1  0  0  0  0
  3  2  2  0  0  0  0
  4  3  1  0  0  0  0
  5  4  2  0  0  0  0
  5  6  1  0  0  0  0
  6  1  2  0  0  0  0
  9  5  1  0  0  0  0
 10  9  1  0  0  0  0
 11 10  2  0  0  0  0
 12 13  2  0  0  0  0
 12 11  1  0  0  0  0
 13 18  1  0  0  0  0
 14 15  2  0  0  0  0
 14 13  1  0  0  0  0
 15 16  1  0  0  0  0
 16 17  2  0  0  0  0
 18 17  1  0  0  0  0
 18  9  2  0  0  0  0
 19 20  1  0  0  0  0
 20 21  1  0  0  0  0
 22 20  1  0  0  0  0
 23 20  1  0  0  0  0
M  END
>  <minimizedAffinity>
-6.17406559

>  <minimizedRMSD>
0.975232124

$$$$
