
     RDKit          3D

 30 32  0  0  0  0  0  0  0  0999 V2000
   37.9662   30.9547   49.2632 C   0  0  0  0  0  0  0  0  0  0  0  0
   38.3956   32.2586   49.5589 C   0  0  0  0  0  0  0  0  0  0  0  0
   38.8823   33.0188   48.5072 C   0  0  0  0  0  0  0  0  0  0  0  0
   38.9248   32.4910   47.2664 N   0  0  0  0  0  0  0  0  0  0  0  0
   38.5113   31.2501   47.0081 C   0  0  0  0  0  0  0  0  0  0  0  0
   38.0485   30.5299   48.0142 N   0  0  0  0  0  0  0  0  0  0  0  0
   37.4778   30.1675   50.2768 O   0  0  0  0  0  0  0  0  0  0  0  0
   36.1676   29.7462   50.4339 C   0  0  0  0  0  0  0  0  0  0  0  0
   35.8489   29.4123   51.7345 F   0  0  0  0  0  0  0  0  0  0  0  0
   35.2428   30.6267   49.9193 F   0  0  0  0  0  0  0  0  0  0  0  0
   36.0510   28.5690   49.6686 F   0  0  0  0  0  0  0  0  0  0  0  0
   38.3549   32.6620   50.5490 H   0  0  0  0  0  0  0  0  0  0  0  0
   39.2339   34.0169   48.6156 H   0  0  0  0  0  0  0  0  0  0  0  0
   38.4700   30.5064   45.7421 C   0  0  0  0  0  0  0  0  0  0  0  0
   37.2966   29.9663   45.1974 C   0  0  0  0  0  0  0  0  0  0  0  0
   37.2412   29.2733   44.0188 C   0  0  0  0  0  0  0  0  0  0  0  0
   38.3825   29.0700   43.2906 C   0  0  0  0  0  0  0  0  0  0  0  0
   39.5531   29.5656   43.7590 C   0  0  0  0  0  0  0  0  0  0  0  0
   40.6770   29.3425   42.9974 C   0  0  0  0  0  0  0  0  0  0  0  0
   41.9001   29.8114   43.3966 C   0  0  0  0  0  0  0  0  0  0  0  0
   41.9504   30.5201   44.6026 C   0  0  0  0  0  0  0  0  0  0  0  0
   40.7945   30.7139   45.3249 C   0  0  0  0  0  0  0  0  0  0  0  0
   39.5602   30.2537   44.9448 C   0  0  0  0  0  0  0  0  0  0  0  0
   36.3607   30.1134   45.7607 H   0  0  0  0  0  0  0  0  0  0  0  0
   36.2864   28.9073   43.7027 H   0  0  0  0  0  0  0  0  0  0  0  0
   38.2569   28.5191   42.3810 H   0  0  0  0  0  0  0  0  0  0  0  0
   40.6198   28.7928   42.0677 H   0  0  0  0  0  0  0  0  0  0  0  0
   42.7601   29.6186   42.7755 H   0  0  0  0  0  0  0  0  0  0  0  0
   42.9364   30.8706   44.8770 H   0  0  0  0  0  0  0  0  0  0  0  0
   40.9809   31.2661   46.2099 H   0  0  0  0  0  0  0  0  0  0  0  0
  1  2  2  0
  1  7  1  0
  3  2  1  0
  4  3  2  0
  5  4  1  0
  5  6  2  0
  6  1  1  0
  7  8  1  0
  8  9  1  0
 10  8  1  0
 11  8  1  0
  2 12  1  0
  3 13  1  0
 14 15  2  0
 15 16  1  0
 16 17  2  0
 17 18  1  0
 18 19  2  0
 19 20  1  0
 20 21  2  0
 21 22  1  0
 22 23  2  0
 23 14  1  0
 23 18  1  0
 15 24  1  0
 16 25  1  0
 17 26  1  0
 19 27  1  0
 20 28  1  0
 21 29  1  0
 22 30  1  0
  5 14  1  0
M  ISO  2  12  14  13  14
M  END
>  <DihAtoms>  (1) 
3,4,13,14

>  <DihDeg>  (1) 
178.12556590517548

$$$$
