
 OpenBabel03252512433D

 25 28  0  0  0  0  0  0  0  0999 V2000
   38.2950   31.0550   47.8120 C   0  0  0  0  0  0  0  0  0  0  0  0
   38.8480   32.3550   47.8600 C   0  0  0  0  0  0  0  0  0  0  0  0
   39.5400   32.5880   46.1680 S   0  0  0  0  0  0  0  0  0  0  0  0
   38.9510   30.8590   45.6860 C   0  0  0  0  0  0  0  0  0  0  0  0
   38.4760   30.5320   46.6390 N   0  0  0  0  0  0  0  0  0  0  0  0
   38.8640   33.0670   48.7050 H   0  0  0  0  0  0  0  0  0  0  0  0
   39.2790   30.4900   44.2800 C   0  0  0  0  0  0  0  0  0  0  0  0
   40.5330   30.6230   43.7340 C   0  0  0  0  0  0  0  0  0  0  0  0
   40.8140   30.2740   42.4300 C   0  0  0  0  0  0  0  0  0  0  0  0
   39.8170   29.7770   41.6400 C   0  0  0  0  0  0  0  0  0  0  0  0
   38.5390   29.6210   42.1300 C   0  0  0  0  0  0  0  0  0  0  0  0
   37.5340   29.1260   41.3530 C   0  0  0  0  0  0  0  0  0  0  0  0
   36.2400   28.9700   41.8540 C   0  0  0  0  0  0  0  0  0  0  0  0
   36.0460   29.3500   43.1880 C   0  0  0  0  0  0  0  0  0  0  0  0
   37.0640   29.8490   43.9700 C   0  0  0  0  0  0  0  0  0  0  0  0
   38.3240   29.9870   43.4390 C   0  0  0  0  0  0  0  0  0  0  0  0
   38.1060   30.8660   50.2720 C   0  0  0  0  0  0  0  0  0  0  0  0
   37.6490   30.4960   48.9900 C   0  0  0  0  0  0  0  0  0  0  0  0
   36.5970   29.6060   48.9630 C   0  0  0  0  0  0  0  0  0  0  0  0
   36.0670   29.1400   50.1200 N   0  0  0  0  0  0  0  0  0  0  0  0
   36.5400   29.5240   51.3150 C   0  0  0  0  0  0  0  0  0  0  0  0
   37.5690   30.3940   51.3930 N   0  0  0  0  0  0  0  0  0  0  0  0
   38.9340   31.5640   50.3700 H   0  0  0  0  0  0  0  0  0  0  0  0
   36.2340   29.3110   47.9790 H   0  0  0  0  0  0  0  0  0  0  0  0
   35.9650   29.0250   52.0980 H   0  0  0  0  0  0  0  0  0  0  0  0
  1  2  2  0  0  0  0
  1 18  1  0  0  0  0
  2  6  1  0  0  0  0
  3  2  1  0  0  0  0
  4  3  1  0  0  0  0
  4  5  2  0  0  0  0
  5  1  1  0  0  0  0
  7  4  1  0  0  0  0
  8  7  1  0  0  0  0
  9  8  2  0  0  0  0
 10 11  2  0  0  0  0
 10  9  1  0  0  0  0
 11 16  1  0  0  0  0
 12 13  2  0  0  0  0
 12 11  1  0  0  0  0
 13 14  1  0  0  0  0
 14 15  2  0  0  0  0
 16 15  1  0  0  0  0
 16  7  2  0  0  0  0
 17 23  1  0  0  0  0
 17 22  1  0  0  0  0
 18 17  2  0  0  0  0
 19 18  1  0  0  0  0
 19 20  2  0  0  0  0
 20 21  1  0  0  0  0
 21 22  2  0  0  0  0
 21 25  1  0  0  0  0
 24 19  1  0  0  0  0
M  END
>  <minimizedAffinity>
-5.73131371

>  <minimizedRMSD>
0.320372701

$$$$
