
     RDKit          3D

 36 38  0  0  0  0  0  0  0  0999 V2000
   36.9000   29.9574   49.8470 C   0  0  0  0  0  0  0  0  0  0  0  0
   38.0086   30.6309   49.3781 C   0  0  0  0  0  0  0  0  0  0  0  0
   38.0014   31.0857   48.0653 C   0  0  0  0  0  0  0  0  0  0  0  0
   36.8954   30.8400   47.3112 N   0  0  0  0  0  0  0  0  0  0  0  0
   35.8168   30.1739   47.7990 C   0  0  0  0  0  0  0  0  0  0  0  0
   35.8587   29.7519   49.0640 N   0  0  0  0  0  0  0  0  0  0  0  0
   39.1009   31.7870   47.5171 N   0  0  0  0  0  0  0  0  0  0  0  0
   38.9615   32.5993   46.3580 C   0  0  0  0  0  0  0  0  0  0  0  0
   37.8817   32.5113   45.6823 N   0  0  0  0  0  0  0  0  0  0  0  0
   40.0003   33.4790   45.9737 N   0  0  0  0  0  0  0  0  0  0  0  0
   37.8323   32.9838   44.7472 H   0  0  0  0  0  0  0  0  0  0  0  0
   36.8744   29.4499   51.2567 C   0  0  0  0  0  0  0  0  0  0  0  0
   35.5848   29.1701   51.6538 F   0  0  0  0  0  0  0  0  0  0  0  0
   37.7418   28.4012   51.3523 F   0  0  0  0  0  0  0  0  0  0  0  0
   37.3494   30.5005   52.0652 F   0  0  0  0  0  0  0  0  0  0  0  0
   38.8623   30.7996   50.0198 H   0  0  0  0  0  0  0  0  0  0  0  0
   40.0311   31.7144   47.9613 H   0  0  0  0  0  0  0  0  0  0  0  0
   39.8274   34.1679   45.1976 H   0  0  0  0  0  0  0  0  0  0  0  0
   40.9214   33.4402   46.4563 H   0  0  0  0  0  0  0  0  0  0  0  0
   34.7612   30.0036   46.8111 C   0  0  0  0  0  0  0  0  0  0  0  0
   34.6281   28.8311   46.1023 C   0  0  0  0  0  0  0  0  0  0  0  0
   33.6656   28.6045   45.1521 C   0  0  0  0  0  0  0  0  0  0  0  0
   32.7458   29.5746   44.8445 C   0  0  0  0  0  0  0  0  0  0  0  0
   32.8268   30.7716   45.5198 C   0  0  0  0  0  0  0  0  0  0  0  0
   31.9165   31.7522   45.2161 C   0  0  0  0  0  0  0  0  0  0  0  0
   31.9441   32.9766   45.8478 C   0  0  0  0  0  0  0  0  0  0  0  0
   32.9389   33.1650   46.8049 C   0  0  0  0  0  0  0  0  0  0  0  0
   33.8263   32.1531   47.0735 C   0  0  0  0  0  0  0  0  0  0  0  0
   33.8179   30.9304   46.4604 C   0  0  0  0  0  0  0  0  0  0  0  0
   35.2712   27.9890   46.2421 H   0  0  0  0  0  0  0  0  0  0  0  0
   33.5708   27.6801   44.6024 H   0  0  0  0  0  0  0  0  0  0  0  0
   31.9788   29.4202   44.1010 H   0  0  0  0  0  0  0  0  0  0  0  0
   31.1461   31.5991   44.4712 H   0  0  0  0  0  0  0  0  0  0  0  0
   31.2186   33.7226   45.5884 H   0  0  0  0  0  0  0  0  0  0  0  0
   32.9381   34.1357   47.2857 H   0  0  0  0  0  0  0  0  0  0  0  0
   34.5395   32.4209   47.8151 H   0  0  0  0  0  0  0  0  0  0  0  0
  1 12  1  0
  2  1  2  0
  3  2  1  0
  4  5  1  0
  4  3  2  0
  5  6  2  0
  6  1  1  0
  7  3  1  0
  8  7  1  0
  9  8  2  0
 10  8  1  0
 11  9  1  0
 12 14  1  0
 12 13  1  0
 12 15  1  0
  2 16  1  0
  7 17  1  0
 10 18  1  0
 10 19  1  0
 20 21  2  0
 21 22  1  0
 22 23  2  0
 23 24  1  0
 24 25  2  0
 25 26  1  0
 26 27  2  0
 27 28  1  0
 28 29  2  0
 29 20  1  0
 29 24  1  0
 21 30  1  0
 22 31  1  0
 23 32  1  0
 25 33  1  0
 26 34  1  0
 27 35  1  0
 28 36  1  0
  5 20  1  0
M  ISO  1  16  14
M  END
>  <DihAtoms>  (1) 
3,4,19,20

>  <DihDeg>  (1) 
7.840036438915178

$$$$
