
 OpenBabel03252513233D

 22 24  0  0  0  0  0  0  0  0999 V2000
   35.6800   28.8790   50.3080 C   0  0  0  0  0  0  0  0  0  0  0  0
   36.1380   30.0810   49.7700 C   0  0  0  0  0  0  0  0  0  0  0  0
   35.6270   30.4450   48.5310 C   0  0  0  0  0  0  0  0  0  0  0  0
   34.7160   29.6060   47.9260 N   0  0  0  0  0  0  0  0  0  0  0  0
   34.3040   28.4550   48.4810 C   0  0  0  0  0  0  0  0  0  0  0  0
   34.8010   28.1370   49.6500 N   0  0  0  0  0  0  0  0  0  0  0  0
   36.0670   28.5860   51.2640 H   0  0  0  0  0  0  0  0  0  0  0  0
   35.9360   31.3610   48.0570 H   0  0  0  0  0  0  0  0  0  0  0  0
   33.3440   27.7820   47.6150 C   0  0  0  0  0  0  0  0  0  0  0  0
   33.6790   27.3140   46.3640 C   0  0  0  0  0  0  0  0  0  0  0  0
   32.8070   26.6720   45.5100 C   0  0  0  0  0  0  0  0  0  0  0  0
   31.5060   26.4630   45.8920 C   0  0  0  0  0  0  0  0  0  0  0  0
   31.1080   26.9070   47.1320 C   0  0  0  0  0  0  0  0  0  0  0  0
   29.7980   26.6850   47.4930 C   0  0  0  0  0  0  0  0  0  0  0  0
   29.3340   27.1040   48.7200 C   0  0  0  0  0  0  0  0  0  0  0  0
   30.2330   27.7440   49.5540 C   0  0  0  0  0  0  0  0  0  0  0  0
   31.5310   27.9410   49.1460 C   0  0  0  0  0  0  0  0  0  0  0  0
   32.0290   27.5390   47.9320 C   0  0  0  0  0  0  0  0  0  0  0  0
   37.1200   30.9840   50.4230 C   0  0  0  0  0  0  0  0  0  0  0  0
   38.3710   30.9430   49.8710 F   0  0  0  0  0  0  0  0  0  0  0  0
   37.2580   30.6540   51.7610 F   0  0  0  0  0  0  0  0  0  0  0  0
   36.6780   32.2960   50.3410 F   0  0  0  0  0  0  0  0  0  0  0  0
  1  7  1  0  0  0  0
  2  1  1  0  0  0  0
  2 19  1  0  0  0  0
  3  2  2  0  0  0  0
  4  5  2  0  0  0  0
  4  3  1  0  0  0  0
  5  6  1  0  0  0  0
  6  1  2  0  0  0  0
  8  3  1  0  0  0  0
  9 18  1  0  0  0  0
  9  5  1  0  0  0  0
 10  9  2  0  0  0  0
 11 12  2  0  0  0  0
 11 10  1  0  0  0  0
 12 13  1  0  0  0  0
 13 14  2  0  0  0  0
 13 18  1  0  0  0  0
 14 15  1  0  0  0  0
 15 16  2  0  0  0  0
 17 16  1  0  0  0  0
 18 17  2  0  0  0  0
 19 21  1  0  0  0  0
 20 19  1  0  0  0  0
 22 19  1  0  0  0  0
M  END
>  <minimizedAffinity>
-5.82244492

>  <minimizedRMSD>
1.38609064

$$$$
