
     RDKit          3D

 30 32  0  0  0  0  0  0  0  0999 V2000
   38.4096   32.6956   49.3821 C   0  0  0  0  0  0  0  0  0  0  0  0
   38.9093   32.7031   48.0801 C   0  0  0  0  0  0  0  0  0  0  0  0
   38.6996   31.5545   47.2991 C   0  0  0  0  0  0  0  0  0  0  0  0
   38.0242   30.5179   47.8694 N   0  0  0  0  0  0  0  0  0  0  0  0
   37.5588   30.5535   49.1312 C   0  0  0  0  0  0  0  0  0  0  0  0
   37.7512   31.6448   49.8911 N   0  0  0  0  0  0  0  0  0  0  0  0
   36.8334   29.3766   49.6698 C   0  0  0  0  0  0  0  0  0  0  0  0
   35.4057   29.4530   49.1549 C   0  0  2  0  0  0  0  0  0  0  0  0
   34.2829   29.4395   50.1418 C   0  0  0  0  0  0  0  0  0  0  0  0
   34.5973   28.1976   49.3736 C   0  0  1  0  0  0  0  0  0  0  0  0
   38.6111   33.6148   49.9189 H   0  0  0  0  0  0  0  0  0  0  0  0
   39.4410   33.5124   47.6234 H   0  0  0  0  0  0  0  0  0  0  0  0
   39.0521   31.4822   46.2908 H   0  0  0  0  0  0  0  0  0  0  0  0
   37.3115   28.4031   49.3708 H   0  0  0  0  0  0  0  0  0  0  0  0
   36.7755   29.4747   50.7734 H   0  0  0  0  0  0  0  0  0  0  0  0
   35.2373   30.0513   48.2580 H   0  0  0  0  0  0  0  0  0  0  0  0
   33.3296   29.9277   49.8618 H   0  0  0  0  0  0  0  0  0  0  0  0
   34.4915   29.4853   51.2312 H   0  0  0  0  0  0  0  0  0  0  0  0
   35.0377   27.3920   49.9965 H   0  0  0  0  0  0  0  0  0  0  0  0
   33.6726   27.7219   48.3308 C   0  0  0  0  0  0  0  0  0  0  0  0
   32.6386   28.5711   47.9576 C   0  0  0  0  0  0  0  0  0  0  0  0
   31.7068   28.2138   46.9769 C   0  0  0  0  0  0  0  0  0  0  0  0
   30.8970   28.8572   46.6723 H   0  0  0  0  0  0  0  0  0  0  0  0
   31.8246   26.9794   46.3662 C   0  0  0  0  0  0  0  0  0  0  0  0
   32.8667   26.1304   46.7463 C   0  0  0  0  0  0  0  0  0  0  0  0
   32.9663   25.1458   46.2640 H   0  0  0  0  0  0  0  0  0  0  0  0
   33.7878   26.4928   47.7210 C   0  0  0  0  0  0  0  0  0  0  0  0
   32.4468   29.5702   48.3715 H   0  0  0  0  0  0  0  0  0  0  0  0
   31.1236   26.6529   45.5954 H   0  0  0  0  0  0  0  0  0  0  0  0
   34.5904   25.8319   48.0097 H   0  0  0  0  0  0  0  0  0  0  0  0
  1  6  2  0
  2  1  1  0
  3  4  1  0
  3  2  2  0
  4  5  2  0
  5  7  1  0
  5  6  1  0
  8 10  1  0
  8  7  1  0
  8  9  1  0
 10  9  1  0
  1 11  1  0
  2 12  1  0
  3 13  1  0
  7 14  1  0
  7 15  1  0
  8 16  1  6
  9 17  1  0
  9 18  1  0
 10 19  1  1
 20 21  2  0
 21 22  1  0
 22 23  1  0
 22 24  2  0
 24 25  1  0
 25 26  1  0
 25 27  2  0
 27 20  1  0
 21 28  1  0
 24 29  1  0
 27 30  1  0
 10 20  1  0
M  ISO  8  11  14  12  14  13  14  14   8  15   8  16  13  17  13  18  13
M  ISO  3  19  13  23  16  26  16
M  END
>  <DihAtoms>  (1) 
7,9,19,20

>  <DihDeg>  (1) 
149.66636786923587

$$$$
