
 OpenBabel03252513583D

 27 29  0  0  1  0  0  0  0  0999 V2000
   35.4440   29.4130   49.1280 C   0  0  2  0  0  0  0  0  0  0  0  0
   34.3920   29.6060   50.1730 C   0  0  0  0  0  0  0  0  0  0  0  0
   34.5770   28.2570   49.5610 C   0  0  1  0  0  0  0  0  0  0  0  0
   35.2520   29.9000   48.1710 H   0  0  0  0  0  0  0  0  0  0  0  0
   33.4540   30.1200   49.8860 H   0  0  0  0  0  0  0  0  0  0  0  0
   34.6760   29.7790   51.2310 H   0  0  0  0  0  0  0  0  0  0  0  0
   35.0090   27.5100   50.2590 H   0  0  0  0  0  0  0  0  0  0  0  0
   33.5570   27.7140   48.6480 C   0  0  0  0  0  0  0  0  0  0  0  0
   33.9960   26.9080   47.6050 C   0  0  0  0  0  3  0  0  0  0  0  0
   33.1080   26.3430   46.6830 C   0  0  0  0  0  0  0  0  0  0  0  0
   33.4280   25.7150   45.8670 H   0  0  0  0  0  0  0  0  0  0  0  0
   31.7560   26.5990   46.8200 C   0  0  0  0  0  3  0  0  0  0  0  0
   31.3210   27.4100   47.8700 C   0  0  0  0  0  0  0  0  0  0  0  0
   30.2470   27.6180   47.9850 H   0  0  0  0  0  0  0  0  0  0  0  0
   32.2100   27.9670   48.7820 C   0  0  0  0  0  3  0  0  0  0  0  0
   36.8950   29.3060   49.5640 C   0  0  0  0  0  0  0  0  0  0  0  0
   37.3570   28.3540   49.1790 H   0  0  0  0  0  0  0  0  0  0  0  0
   36.8950   29.3330   50.6730 H   0  0  0  0  0  0  0  0  0  0  0  0
   38.3930   32.6690   49.3880 C   0  0  0  0  0  0  0  0  0  0  0  0
   38.8980   32.7290   48.0890 C   0  0  0  0  0  0  0  0  0  0  0  0
   38.7210   31.6010   47.2720 C   0  0  0  0  0  0  0  0  0  0  0  0
   38.0670   30.5310   47.8060 N   0  0  0  0  0  0  0  0  0  0  0  0
   37.5950   30.5150   49.0660 C   0  0  0  0  0  0  0  0  0  0  0  0
   37.7570   31.5870   49.8600 N   0  0  0  0  0  0  0  0  0  0  0  0
   38.5690   33.5760   49.9540 H   0  0  0  0  0  0  0  0  0  0  0  0
   39.4130   33.5640   47.6600 H   0  0  0  0  0  0  0  0  0  0  0  0
   39.0790   31.5670   46.2640 H   0  0  0  0  0  0  0  0  0  0  0  0
  1  4  1  6  0  0  0
  1  3  1  0  0  0  0
  1 16  1  0  0  0  0
  1  2  1  0  0  0  0
  2  6  1  0  0  0  0
  3  2  1  0  0  0  0
  3  7  1  1  0  0  0
  5  2  1  0  0  0  0
  8 15  1  0  0  0  0
  8  3  1  0  0  0  0
  9  8  2  0  0  0  0
 10 12  2  0  0  0  0
 10  9  1  0  0  0  0
 11 10  1  0  0  0  0
 12 13  1  0  0  0  0
 13 14  1  0  0  0  0
 13 15  2  0  0  0  0
 16 18  1  0  0  0  0
 17 16  1  0  0  0  0
 19 24  1  0  0  0  0
 19 25  1  0  0  0  0
 20 19  2  0  0  0  0
 21 22  2  0  0  0  0
 21 20  1  0  0  0  0
 22 23  1  0  0  0  0
 23 16  1  0  0  0  0
 23 24  2  0  0  0  0
 26 20  1  0  0  0  0
 27 21  1  0  0  0  0
M  END
>  <minimizedAffinity>
-5.25405312

>  <minimizedRMSD>
0.824783683

$$$$
