REMARK  Name = 
REMARK  3 active torsions:
REMARK  status: ('A' for Active; 'I' for Inactive)
REMARK    1  A    between atoms: C_5  and  C_7
REMARK    2  A    between atoms: C_7  and  C_8
REMARK    3  A    between atoms: C_10  and  C_20
REMARK                            x       y       z     vdW  Elec       q    Type
REMARK                         _______ _______ _______ _____ _____    ______ ____
ROOT
ATOM      1  C   UNL     1      35.406  29.453  49.155  0.00  0.00    +0.000 C 
ATOM      2  C   UNL     1      34.283  29.439  50.142  0.00  0.00    +0.000 C 
ATOM      3  C   UNL     1      34.597  28.198  49.374  0.00  0.00    +0.000 C 
ATOM      4  H   UNL     1      35.237  30.051  48.258  0.00  0.00    +0.000 HD
ATOM      5  H   UNL     1      33.330  29.928  49.862  0.00  0.00    +0.000 HD
ATOM      6  H   UNL     1      34.492  29.485  51.231  0.00  0.00    +0.000 HD
ATOM      7  H   UNL     1      35.038  27.392  49.996  0.00  0.00    +0.000 HD
ENDROOT
BRANCH   3   8
ATOM      8  C   UNL     1      33.673  27.722  48.331  0.00  0.00    +0.000 A 
ATOM      9  C   UNL     1      32.847  28.664  47.730  0.00  0.00    +0.000 A 
ATOM     10  C   UNL     1      31.934  28.315  46.730  0.00  0.00    +0.000 A 
ATOM     11  H   UNL     1      31.284  29.030  46.251  0.00  0.00    +0.000 HD
ATOM     12  C   UNL     1      31.856  26.993  46.332  0.00  0.00    +0.000 A 
ATOM     13  C   UNL     1      32.689  26.051  46.940  0.00  0.00    +0.000 A 
ATOM     14  H   UNL     1      32.632  24.997  46.628  0.00  0.00    +0.000 HD
ATOM     15  C   UNL     1      33.593  26.406  47.933  0.00  0.00    +0.000 A 
ENDBRANCH   3   8
BRANCH   1  16
ATOM     16  C   UNL     1      36.833  29.377  49.670  0.00  0.00    +0.000 C 
ATOM     17  H   UNL     1      37.312  28.403  49.371  0.00  0.00    +0.000 HD
ATOM     18  H   UNL     1      36.776  29.475  50.773  0.00  0.00    +0.000 HD
BRANCH  16  23
ATOM     19  C   UNL     1      38.410  32.696  49.382  0.00  0.00    +0.000 A 
ATOM     20  C   UNL     1      38.909  32.703  48.080  0.00  0.00    +0.000 A 
ATOM     21  C   UNL     1      38.700  31.555  47.299  0.00  0.00    +0.000 A 
ATOM     22  N   UNL     1      38.024  30.518  47.869  0.00  0.00    +0.000 NA
ATOM     23  C   UNL     1      37.559  30.553  49.131  0.00  0.00    +0.000 A 
ATOM     24  N   UNL     1      37.751  31.645  49.891  0.00  0.00    +0.000 NA
ATOM     25  H   UNL     1      38.611  33.615  49.919  0.00  0.00    +0.000 HD
ATOM     26  H   UNL     1      39.441  33.512  47.623  0.00  0.00    +0.000 HD
ATOM     27  H   UNL     1      39.052  31.482  46.291  0.00  0.00    +0.000 HD
ENDBRANCH  16  23
ENDBRANCH   1  16
TORSDOF 3
