
     RDKit          3D

 30 32  0  0  0  0  0  0  0  0999 V2000
   38.4096   32.6956   49.3821 C   0  0  0  0  0  0  0  0  0  0  0  0
   38.9093   32.7031   48.0801 C   0  0  0  0  0  0  0  0  0  0  0  0
   38.6996   31.5545   47.2991 C   0  0  0  0  0  0  0  0  0  0  0  0
   38.0242   30.5179   47.8694 N   0  0  0  0  0  0  0  0  0  0  0  0
   37.5588   30.5535   49.1312 C   0  0  0  0  0  0  0  0  0  0  0  0
   37.7512   31.6448   49.8911 N   0  0  0  0  0  0  0  0  0  0  0  0
   36.8334   29.3766   49.6698 C   0  0  0  0  0  0  0  0  0  0  0  0
   35.4057   29.4530   49.1549 C   0  0  2  0  0  0  0  0  0  0  0  0
   34.2829   29.4395   50.1418 C   0  0  0  0  0  0  0  0  0  0  0  0
   34.5973   28.1976   49.3736 C   0  0  1  0  0  0  0  0  0  0  0  0
   38.6111   33.6148   49.9189 H   0  0  0  0  0  0  0  0  0  0  0  0
   39.4410   33.5124   47.6234 H   0  0  0  0  0  0  0  0  0  0  0  0
   39.0521   31.4822   46.2908 H   0  0  0  0  0  0  0  0  0  0  0  0
   37.3115   28.4031   49.3708 H   0  0  0  0  0  0  0  0  0  0  0  0
   36.7755   29.4747   50.7734 H   0  0  0  0  0  0  0  0  0  0  0  0
   35.2373   30.0513   48.2580 H   0  0  0  0  0  0  0  0  0  0  0  0
   33.3296   29.9277   49.8618 H   0  0  0  0  0  0  0  0  0  0  0  0
   34.4915   29.4853   51.2312 H   0  0  0  0  0  0  0  0  0  0  0  0
   35.0377   27.3920   49.9965 H   0  0  0  0  0  0  0  0  0  0  0  0
   33.6726   27.7219   48.3308 C   0  0  0  0  0  0  0  0  0  0  0  0
   33.9039   26.4598   47.7987 C   0  0  0  0  0  0  0  0  0  0  0  0
   33.0839   25.9159   46.8040 C   0  0  0  0  0  0  0  0  0  0  0  0
   33.2453   24.9389   46.3774 H   0  0  0  0  0  0  0  0  0  0  0  0
   32.0153   26.6611   46.3423 C   0  0  0  0  0  0  0  0  0  0  0  0
   31.7885   27.9296   46.8817 C   0  0  0  0  0  0  0  0  0  0  0  0
   30.9391   28.5285   46.5185 H   0  0  0  0  0  0  0  0  0  0  0  0
   32.6074   28.4623   47.8692 C   0  0  0  0  0  0  0  0  0  0  0  0
   34.7178   25.7807   48.0864 H   0  0  0  0  0  0  0  0  0  0  0  0
   31.3456   26.2825   45.5674 H   0  0  0  0  0  0  0  0  0  0  0  0
   32.4263   29.4429   48.2815 H   0  0  0  0  0  0  0  0  0  0  0  0
  1  6  2  0
  2  1  1  0
  3  4  1  0
  3  2  2  0
  4  5  2  0
  5  7  1  0
  5  6  1  0
  8 10  1  0
  8  7  1  0
  8  9  1  0
 10  9  1  0
  1 11  1  0
  2 12  1  0
  3 13  1  0
  7 14  1  0
  7 15  1  0
  8 16  1  6
  9 17  1  0
  9 18  1  0
 10 19  1  1
 20 21  2  0
 21 22  1  0
 22 23  1  0
 22 24  2  0
 24 25  1  0
 25 26  1  0
 25 27  2  0
 27 20  1  0
 21 28  1  0
 24 29  1  0
 27 30  1  0
 10 20  1  0
M  ISO  8  11  14  12  14  13  14  14   8  15   8  16  13  17  13  18  13
M  ISO  3  19  13  23  16  26  16
M  END
>  <DihAtoms>  (1) 
7,9,19,20

>  <DihDeg>  (1) 
149.66636786923587

$$$$
