
 OpenBabel03252513353D

 26 27  0  0  0  0  0  0  0  0999 V2000
   36.9360   29.9170   49.8650 C   0  0  0  0  0  0  0  0  0  0  0  0
   38.0340   30.6790   49.4510 C   0  0  0  0  0  0  0  0  0  0  0  0
   38.0130   31.1250   48.1150 C   0  0  0  0  0  0  0  0  0  0  0  0
   36.9650   30.8010   47.3370 N   0  0  0  0  0  0  0  0  0  0  0  0
   35.9330   30.0600   47.7970 C   0  0  0  0  0  0  0  0  0  0  0  0
   35.9250   29.6220   49.0600 N   0  0  0  0  0  0  0  0  0  0  0  0
   39.0800   31.8990   47.6170 N   0  0  0  0  0  0  0  0  0  0  0  0
   38.9690   32.6240   46.4070 C   0  0  0  0  0  0  0  0  0  0  0  0
   37.9610   32.3900   45.6570 N   0  0  0  0  0  0  0  0  0  0  0  0
   39.9570   33.5810   46.0540 N   0  0  0  0  0  0  0  0  0  0  0  0
   37.8680   32.9010   44.7450 H   0  0  0  0  0  0  0  0  0  0  0  0
   38.8510   30.9110   50.1190 H   0  0  0  0  0  0  0  0  0  0  0  0
   39.9860   31.9330   48.1660 H   0  0  0  0  0  0  0  0  0  0  0  0
   40.9330   33.5620   46.3790 H   0  0  0  0  0  0  0  0  0  0  0  0
   39.6900   34.3760   45.4130 H   0  0  0  0  0  0  0  0  0  0  0  0
   34.8660   29.7590   46.9190 N   0  0  0  0  0  0  0  0  0  0  0  0
   35.0210   29.9470   45.4840 C   0  0  0  0  0  0  0  0  0  0  0  0
   34.3780   28.7370   44.8390 C   0  0  0  0  0  0  0  0  0  0  0  0
   32.9050   28.7220   45.1030 C   0  0  0  0  0  0  0  0  0  0  0  0
   32.4240   29.3490   44.3220 H   0  0  0  0  0  0  0  0  0  0  0  0
   32.5090   29.2750   46.4360 C   0  0  0  0  0  0  0  0  0  0  0  0
   33.6090   29.2590   47.4600 C   0  0  0  0  0  0  0  0  0  0  0  0
   36.9340   29.4340   51.2920 C   0  0  0  0  0  0  0  0  0  0  0  0
   35.6170   29.1680   51.6790 F   0  0  0  0  0  0  0  0  0  0  0  0
   37.7770   28.3980   51.4220 F   0  0  0  0  0  0  0  0  0  0  0  0
   37.3340   30.5300   52.0830 F   0  0  0  0  0  0  0  0  0  0  0  0
  1 23  1  0  0  0  0
  2  1  1  0  0  0  0
  2 12  1  0  0  0  0
  3  2  2  0  0  0  0
  4  5  2  0  0  0  0
  4  3  1  0  0  0  0
  5  6  1  0  0  0  0
  6  1  2  0  0  0  0
  7  3  1  0  0  0  0
  7 13  1  0  0  0  0
  8  7  1  0  0  0  0
  9  8  2  0  0  0  0
 10 14  1  0  0  0  0
 10  8  1  0  0  0  0
 11  9  1  0  0  0  0
 15 10  1  0  0  0  0
 16 22  1  0  0  0  0
 16  5  1  0  0  0  0
 17 16  1  0  0  0  0
 18 19  1  0  0  0  0
 18 17  1  0  0  0  0
 19 21  1  0  0  0  0
 20 19  1  0  0  0  0
 21 22  1  0  0  0  0
 23 25  1  0  0  0  0
 23 24  1  0  0  0  0
 23 26  1  0  0  0  0
M  END
>  <minimizedAffinity>
-6.91483879

>  <minimizedRMSD>
0.24972795

$$$$
