
 OpenBabel03252512583D

 41 45  0  0  0  0  0  0  0  0999 V2000
   38.3860   32.7930   49.4330 C   0  0  0  0  0  0  0  0  0  0  0  0
   39.0290   33.1190   48.2170 C   0  0  0  0  0  0  0  0  0  0  0  0
   38.6810   32.3530   47.0820 C   0  0  0  0  0  0  0  0  0  0  0  0
   37.7580   31.3480   47.1830 N   0  0  0  0  0  0  0  0  0  0  0  0
   37.1840   31.0990   48.3940 C   0  0  0  0  0  0  0  0  0  0  0  0
   37.4770   31.7920   49.5010 N   0  0  0  0  0  0  0  0  0  0  0  0
   36.2320   30.0410   48.4450 N   0  0  0  0  0  0  0  0  0  0  0  0
   35.2100   29.9360   47.4150 C   0  0  0  0  0  0  0  0  0  0  0  0
   33.8860   29.8880   48.1580 C   0  0  0  0  0  0  0  0  0  0  0  0
   33.9050   29.0710   49.2620 O   0  0  0  0  0  0  0  0  0  0  0  0
   34.9990   28.1920   49.2750 C   0  0  0  0  0  0  0  0  0  0  0  0
   36.2480   29.0500   49.5050 C   0  0  0  0  0  0  0  0  0  0  0  0
   38.6750   33.4000   50.2910 H   0  0  0  0  0  0  0  0  0  0  0  0
   39.7520   33.8960   48.1090 H   0  0  0  0  0  0  0  0  0  0  0  0
   35.3890   28.9810   46.8760 H   0  0  0  0  0  0  0  0  0  0  0  0
   35.2260   30.8240   46.7560 H   0  0  0  0  0  0  0  0  0  0  0  0
   33.1540   29.4610   47.4160 H   0  0  0  0  0  0  0  0  0  0  0  0
   33.5210   30.9120   48.3750 H   0  0  0  0  0  0  0  0  0  0  0  0
   34.8800   27.5640   50.1950 H   0  0  0  0  0  0  0  0  0  0  0  0
   35.0770   27.5810   48.3740 H   0  0  0  0  0  0  0  0  0  0  0  0
   36.1710   29.5060   50.5060 H   0  0  0  0  0  0  0  0  0  0  0  0
   37.1410   28.3940   49.3970 H   0  0  0  0  0  0  0  0  0  0  0  0
   39.2870   32.6110   45.7790 C   0  0  0  0  0  0  0  0  0  0  0  0
   40.5560   32.8410   45.3900 N   0  0  0  0  0  0  0  0  0  0  0  0
   40.5970   33.0190   44.1040 O   0  0  0  0  0  0  0  0  0  0  0  0
   39.3760   32.9080   43.6380 C   0  0  0  0  0  0  0  0  0  0  0  0
   38.5250   32.6520   44.6580 N   0  0  0  0  0  0  0  0  0  0  0  0
   38.9400   33.0270   42.2830 N   0  0  0  0  0  0  0  0  0  0  0  0
   39.0100   34.1810   41.6270 N   0  0  0  0  0  0  0  0  0  0  0  0
   38.5340   33.9690   40.3720 C   0  0  0  0  0  0  0  0  0  0  0  0
   38.1630   32.6400   40.2750 C   0  0  0  0  0  0  0  0  0  0  0  0
   38.4360   32.0880   41.4970 C   0  0  0  0  0  0  0  0  0  0  0  0
   38.4420   34.6990   39.5520 H   0  0  0  0  0  0  0  0  0  0  0  0
   37.7440   32.1210   39.4190 H   0  0  0  0  0  0  0  0  0  0  0  0
   38.1980   30.7150   41.8630 N   0  0  0  0  0  0  0  0  0  0  0  0
   37.1010   30.0750   42.5580 C   0  0  0  0  0  0  0  0  0  0  0  0
   37.6040   29.4920   43.8310 C   0  0  0  0  0  0  0  0  0  0  0  0
   38.8590   28.6930   43.7360 C   0  0  0  0  0  0  0  0  0  0  0  0
   38.6460   27.6420   43.4210 H   0  0  0  0  0  0  0  0  0  0  0  0
   39.8780   29.3060   42.7990 C   0  0  0  0  0  0  0  0  0  0  0  0
   39.2330   29.7340   41.4960 C   0  0  0  0  0  0  0  0  0  0  0  0
  1  6  1  0  0  0  0
  1 13  1  0  0  0  0
  2  1  2  0  0  0  0
  3  4  2  0  0  0  0
  3  2  1  0  0  0  0
  4  5  1  0  0  0  0
  5  7  1  0  0  0  0
  5  6  2  0  0  0  0
  7 12  1  0  0  0  0
  8  9  1  0  0  0  0
  8  7  1  0  0  0  0
  9 18  1  0  0  0  0
  9 10  1  0  0  0  0
 10 11  1  0  0  0  0
 11 12  1  0  0  0  0
 11 19  1  0  0  0  0
 12 21  1  0  0  0  0
 14  2  1  0  0  0  0
 15  8  1  0  0  0  0
 16  8  1  0  0  0  0
 17  9  1  0  0  0  0
 20 11  1  0  0  0  0
 22 12  1  0  0  0  0
 23  3  1  0  0  0  0
 24 23  2  0  0  0  0
 25 24  1  0  0  0  0
 26 25  1  0  0  0  0
 26 27  2  0  0  0  0
 27 23  1  0  0  0  0
 28 26  1  0  0  0  0
 29 28  1  0  0  0  0
 30 29  2  0  0  0  0
 31 30  1  0  0  0  0
 31 32  2  0  0  0  0
 32 35  1  0  0  0  0
 32 28  1  0  0  0  0
 33 30  1  0  0  0  0
 34 31  1  0  0  0  0
 35 36  1  0  0  0  0
 36 37  1  0  0  0  0
 38 37  1  0  0  0  0
 39 38  1  0  0  0  0
 40 38  1  0  0  0  0
 41 35  1  0  0  0  0
 41 40  1  0  0  0  0
M  END
>  <minimizedAffinity>
-6.69811583

>  <minimizedRMSD>
2.36159158

$$$$
