REMARK  Name = 
REMARK  6 active torsions:
REMARK  status: ('A' for Active; 'I' for Inactive)
REMARK    1  A    between atoms: C_1  and  C_4
REMARK    2  A    between atoms: C_3  and  C_11
REMARK    3  A    between atoms: C_4  and  C_9
REMARK    4  A    between atoms: C_11  and  O_13
REMARK    5  A    between atoms: O_13  and  C_14
REMARK    6  A    between atoms: C_17  and  N_30
REMARK                            x       y       z     vdW  Elec       q    Type
REMARK                         _______ _______ _______ _____ _____    ______ ____
ROOT
ATOM      1  C   UNL     1      35.297  29.408  48.984  0.00  0.00    +0.000 C 
ATOM      2  C   UNL     1      34.191  29.360  49.933  0.00  0.00    +0.000 C 
ATOM      3  C   UNL     1      34.530  28.096  49.349  0.00  0.00    +0.000 C 
ATOM      4  H   UNL     1      35.157  29.791  47.964  0.00  0.00    +0.000 HD
ATOM      5  H   UNL     1      34.442  29.531  51.020  0.00  0.00    +0.000 HD
ATOM      6  H   UNL     1      33.219  29.880  49.683  0.00  0.00    +0.000 HD
ATOM      7  H   UNL     1      35.184  27.321  49.752  0.00  0.00    +0.000 HD
ENDROOT
BRANCH   1   8
ATOM      8  C   UNL     1      36.711  29.386  49.588  0.00  0.00    +0.000 C 
ATOM      9  H   UNL     1      36.633  29.392  50.696  0.00  0.00    +0.000 HD
ATOM     10  H   UNL     1      37.224  28.433  49.302  0.00  0.00    +0.000 HD
BRANCH   8  15
ATOM     11  C   UNL     1      38.078  32.771  49.440  0.00  0.00    +0.000 A 
ATOM     12  C   UNL     1      38.749  32.781  48.210  0.00  0.00    +0.000 A 
ATOM     13  C   UNL     1      38.720  31.599  47.437  0.00  0.00    +0.000 A 
ATOM     14  N   UNL     1      38.040  30.511  47.929  0.00  0.00    +0.000 NA
ATOM     15  C   UNL     1      37.416  30.565  49.115  0.00  0.00    +0.000 A 
ATOM     16  N   UNL     1      37.440  31.697  49.863  0.00  0.00    +0.000 NA
ATOM     17  H   UNL     1      38.076  33.657  50.061  0.00  0.00    +0.000 HD
ATOM     18  H   UNL     1      39.275  33.670  47.863  0.00  0.00    +0.000 HD
ATOM     19  H   UNL     1      39.233  31.573  46.475  0.00  0.00    +0.000 HD
ENDBRANCH   8  15
ENDBRANCH   1   8
BRANCH   3  20
ATOM     20  C   UNL     1      33.565  27.581  48.299  0.00  0.00    +0.000 C 
ATOM     21  O   UNL     1      33.912  26.438  47.804  0.00  0.00    +0.000 OA
BRANCH  20  22
ATOM     22  O   UNL     1      32.405  28.211  47.865  0.00  0.00    +0.000 OA
BRANCH  22  23
ATOM     23  C   UNL     1      31.146  27.822  48.208  0.00  0.00    +0.000 A 
ATOM     24  C   UNL     1      30.628  27.814  49.590  0.00  0.00    +0.000 A 
ATOM     25  C   UNL     1      29.356  27.412  49.830  0.00  0.00    +0.000 A 
ATOM     26  C   UNL     1      28.533  27.000  48.746  0.00  0.00    +0.000 A 
ATOM     27  S   UNL     1      29.641  27.195  47.262  0.00  0.00    +0.000 S 
ATOM     28  H   UNL     1      31.279  28.131  50.386  0.00  0.00    +0.000 HD
ATOM     29  H   UNL     1      28.876  27.366  50.788  0.00  0.00    +0.000 HD
BRANCH  26  30
ATOM     30  N   UNL     1      27.312  26.553  48.578  0.00  0.00    +0.000 N 
ATOM     31  C   UNL     1      26.481  26.728  47.400  0.00  0.00    +0.000 C 
ATOM     32  C   UNL     1      26.351  25.341  46.791  0.00  0.00    +0.000 C 
ATOM     33  C   UNL     1      25.621  24.473  47.781  0.00  0.00    +0.000 C 
ATOM     34  H   UNL     1      26.237  23.568  47.973  0.00  0.00    +0.000 HD
ATOM     35  C   UNL     1      25.345  25.163  49.084  0.00  0.00    +0.000 C 
ATOM     36  C   UNL     1      26.620  25.777  49.614  0.00  0.00    +0.000 C 
ENDBRANCH  26  30
ENDBRANCH  22  23
ENDBRANCH  20  22
ENDBRANCH   3  20
TORSDOF 6
