
 OpenBabel03252514073D

 41 44  0  0  0  0  0  0  0  0999 V2000
   34.0390   29.9630   47.4290 C   0  0  0  0  0  0  0  0  0  0  0  0
   34.9830   29.6960   48.4470 C   0  0  0  0  0  0  0  0  0  0  0  0
   34.8420   28.4960   49.1170 C   0  0  0  0  0  0  0  0  0  0  0  0
   33.8320   27.6640   48.7710 N   0  0  0  0  0  0  0  0  0  0  0  0
   32.9530   27.9340   47.8080 C   0  0  0  0  0  0  0  0  0  0  0  0
   33.0500   29.0910   47.1280 N   0  0  0  0  0  0  0  0  0  0  0  0
   34.1200   30.8810   46.8950 H   0  0  0  0  0  0  0  0  0  0  0  0
   35.5870   28.3490   49.8730 H   0  0  0  0  0  0  0  0  0  0  0  0
   35.9850   30.6680   48.6920 N   0  0  0  0  0  0  0  0  0  0  0  0
   36.1630   31.2890   49.8740 C   0  0  0  0  0  0  0  0  0  0  0  0
   37.1940   32.1590   49.7650 N   0  0  0  0  0  0  0  0  0  0  0  0
   37.6470   32.0640   48.4980 C   0  0  0  0  0  0  0  0  0  0  0  0
   38.6610   32.6860   47.7920 C   0  0  0  0  0  0  0  0  0  0  0  0
   38.9010   32.3940   46.5080 N   0  0  0  0  0  0  0  0  0  0  0  0
   38.1660   31.4780   45.8380 C   0  0  0  0  0  0  0  0  0  0  0  0
   37.1830   30.8770   46.5260 N   0  0  0  0  0  0  0  0  0  0  0  0
   36.9010   31.1300   47.8070 C   0  0  0  0  0  0  0  0  0  0  0  0
   35.6200   31.1740   50.8090 H   0  0  0  0  0  0  0  0  0  0  0  0
   38.3190   31.2050   44.8020 H   0  0  0  0  0  0  0  0  0  0  0  0
   39.4580   33.6510   48.4410 N   0  0  0  0  0  0  0  0  0  0  0  0
   39.1890   34.2840   49.2240 H   0  0  0  0  0  0  0  0  0  0  0  0
   40.4430   33.8780   48.2310 H   0  0  0  0  0  0  0  0  0  0  0  0
   31.8780   26.9820   47.4530 C   0  0  0  0  0  0  0  0  0  0  0  0
   30.9380   26.7990   48.6600 C   0  0  0  0  0  0  0  0  0  0  0  0
   31.4310   27.2940   49.5420 H   0  0  0  0  0  0  0  0  0  0  0  0
   29.9780   27.3140   48.5340 H   0  0  0  0  0  0  0  0  0  0  0  0
   30.7830   25.7470   48.8810 H   0  0  0  0  0  0  0  0  0  0  0  0
   30.9630   27.6080   46.3790 C   0  0  0  0  0  0  0  0  0  0  0  0
   30.7120   28.6190   46.7360 H   0  0  0  0  0  0  0  0  0  0  0  0
   31.5590   27.7070   45.4590 H   0  0  0  0  0  0  0  0  0  0  0  0
   30.0700   26.9900   46.2960 H   0  0  0  0  0  0  0  0  0  0  0  0
   32.3090   25.6860   46.9140 C   0  0  0  0  0  0  0  0  0  0  0  0
   32.4740   24.9810   47.7700 H   0  0  0  0  0  0  0  0  0  0  0  0
   31.4320   25.2520   46.3510 H   0  0  0  0  0  0  0  0  0  0  0  0
   33.4730   25.6930   46.0710 N   0  0  0  0  0  0  0  0  0  0  0  0
   33.0830   25.1940   44.7100 C   0  0  0  0  0  2  0  0  0  0  0  0
   34.2160   25.7190   43.8270 C   0  0  0  0  0  2  0  0  0  0  0  0
   35.4280   24.8820   44.1790 C   0  0  0  0  0  3  0  0  0  0  0  0
   36.3310   25.5160   44.2440 H   0  0  0  0  0  0  0  0  0  0  0  0
   35.2210   24.0580   45.4030 C   0  0  0  0  0  2  0  0  0  0  0  0
   34.4630   24.7030   46.5180 C   0  0  0  0  0  2  0  0  0  0  0  0
  1  2  1  0  0  0  0
  2  9  1  0  0  0  0
  2  3  2  0  0  0  0
  3  8  1  0  0  0  0
  4  3  1  0  0  0  0
  5  4  2  0  0  0  0
  6  1  2  0  0  0  0
  6  5  1  0  0  0  0
  7  1  1  0  0  0  0
  9 10  1  0  0  0  0
 10 18  1  0  0  0  0
 11 10  2  0  0  0  0
 12 11  1  0  0  0  0
 13 20  1  0  0  0  0
 13 12  2  0  0  0  0
 14 13  1  0  0  0  0
 15 14  2  0  0  0  0
 15 16  1  0  0  0  0
 16 17  2  0  0  0  0
 17 12  1  0  0  0  0
 17  9  1  0  0  0  0
 19 15  1  0  0  0  0
 20 21  1  0  0  0  0
 22 20  1  0  0  0  0
 23  5  1  0  0  0  0
 23 24  1  0  0  0  0
 24 27  1  0  0  0  0
 24 25  1  0  0  0  0
 26 24  1  0  0  0  0
 28 29  1  0  0  0  0
 28 23  1  0  0  0  0
 30 28  1  0  0  0  0
 31 28  1  0  0  0  0
 32 23  1  0  0  0  0
 32 33  1  0  0  0  0
 34 32  1  0  0  0  0
 35 41  1  0  0  0  0
 35 32  1  0  0  0  0
 36 35  1  0  0  0  0
 37 38  1  0  0  0  0
 37 36  1  0  0  0  0
 38 39  1  0  0  0  0
 38 40  1  0  0  0  0
 40 41  1  0  0  0  0
M  END
>  <minimizedAffinity>
-5.36735582

>  <minimizedRMSD>
0.776865304

$$$$
