
 OpenBabel03252511393D

 34 36  0  0  1  0  0  0  0  0999 V2000
   35.6750   29.1460   48.8780 C   0  0  0  0  0  0  0  0  0  0  0  0
   35.3700   28.2110   49.4370 H   0  0  0  0  0  0  0  0  0  0  0  0
   36.6580   28.7960   48.4210 H   0  0  0  0  0  0  0  0  0  0  0  0
   34.8230   29.4590   47.7830 C   0  0  0  0  0  0  0  0  0  0  0  0
   34.8710   30.1850   46.6160 C   0  0  0  0  0  0  0  0  0  0  0  0
   33.7050   30.1190   45.9260 N   0  0  0  0  0  0  0  0  0  0  0  0
   32.8770   29.3470   46.6350 C   0  0  0  0  0  0  0  0  0  0  0  0
   33.5560   28.9600   47.7400 N   0  0  0  0  0  0  0  0  0  0  0  0
   35.8010   30.7240   46.3620 H   0  0  0  0  0  0  0  0  0  0  0  0
   31.8660   29.1080   46.3410 H   0  0  0  0  0  0  0  0  0  0  0  0
   32.8900   28.0760   48.7170 C   0  0  0  0  0  0  0  0  0  0  0  0
   32.0070   28.5750   49.1350 H   0  0  0  0  0  0  0  0  0  0  0  0
   33.6200   27.9110   49.5270 H   0  0  0  0  0  0  0  0  0  0  0  0
   32.6490   26.8320   48.0820 N   0  0  0  0  0  0  0  0  0  0  0  0
   33.8240   26.1990   47.5280 C   0  0  0  0  0  0  0  0  0  0  0  0
   33.4540   25.0710   46.5820 C   0  0  0  0  0  0  0  0  0  0  0  0
   32.2640   24.4680   46.9540 O   0  0  0  0  0  0  0  0  0  0  0  0
   31.1790   25.3140   46.9950 C   0  0  0  0  0  0  0  0  0  0  0  0
   31.5410   26.7720   47.1850 C   0  0  0  0  0  0  0  0  0  0  0  0
   36.0310   30.1770   49.8380 C   0  0  2  0  0  0  0  0  0  0  0  0
   35.2030   30.7940   50.2240 H   0  0  0  0  0  0  0  0  0  0  0  0
   37.0740   31.1340   49.3050 C   0  0  0  0  0  0  0  0  0  0  0  0
   37.0990   32.4190   49.8340 C   0  0  0  0  0  0  0  0  0  0  0  0
   38.0720   33.2790   49.2850 C   0  0  0  0  0  0  0  0  0  0  0  0
   38.8960   32.8270   48.3130 N   0  0  0  0  0  0  0  0  0  0  0  0
   38.8380   31.5470   47.8180 C   0  0  0  0  0  0  0  0  0  0  0  0
   37.9090   30.6920   48.3270 N   0  0  0  0  0  0  0  0  0  0  0  0
   36.4100   32.6820   50.5980 H   0  0  0  0  0  0  0  0  0  0  0  0
   38.1240   34.2740   49.6650 H   0  0  0  0  0  0  0  0  0  0  0  0
   39.5220   31.2420   47.0400 H   0  0  0  0  0  0  0  0  0  0  0  0
   36.6650   29.4590   51.0920 C   0  0  0  0  0  0  0  0  0  0  0  0
   37.7020   29.1860   50.8710 H   0  0  0  0  0  0  0  0  0  0  0  0
   36.5850   30.1730   51.9360 H   0  0  0  0  0  0  0  0  0  0  0  0
   36.0060   28.6120   51.3220 H   0  0  0  0  0  0  0  0  0  0  0  0
  1  2  1  0  0  0  0
  1 20  1  0  0  0  0
  3  1  1  0  0  0  0
  4  1  1  0  0  0  0
  5  4  2  0  0  0  0
  6  5  1  0  0  0  0
  6  7  2  0  0  0  0
  7  8  1  0  0  0  0
  8  4  1  0  0  0  0
  8 11  1  0  0  0  0
  9  5  1  0  0  0  0
 10  7  1  0  0  0  0
 11 12  1  0  0  0  0
 11 13  1  0  0  0  0
 14 11  1  0  0  0  0
 15 14  1  0  0  0  0
 16 17  1  0  0  0  0
 16 15  1  0  0  0  0
 17 18  1  0  0  0  0
 18 19  1  0  0  0  0
 19 14  1  0  0  0  0
 20 21  1  1  0  0  0
 20 31  1  0  0  0  0
 22 23  1  0  0  0  0
 22 20  1  0  0  0  0
 23 28  1  0  0  0  0
 24 29  1  0  0  0  0
 24 23  2  0  0  0  0
 25 24  1  0  0  0  0
 26 25  2  0  0  0  0
 26 27  1  0  0  0  0
 27 22  2  0  0  0  0
 30 26  1  0  0  0  0
 31 34  1  0  0  0  0
 31 33  1  0  0  0  0
 32 31  1  0  0  0  0
M  END
>  <minimizedAffinity>
-4.88826561

>  <minimizedRMSD>
0.867254913

$$$$
