REMARK  Name = 
REMARK  7 active torsions:
REMARK  status: ('A' for Active; 'I' for Inactive)
REMARK    1  A    between atoms: N_1  and  C_12
REMARK    2  A    between atoms: C_5  and  N_10
REMARK    3  A    between atoms: C_15  and  C_17
REMARK    4  A    between atoms: C_17  and  C_18
REMARK    5  A    between atoms: C_17  and  C_19
REMARK    6  A    between atoms: C_17  and  C_20
REMARK    7  A    between atoms: C_20  and  N_35
REMARK                            x       y       z     vdW  Elec       q    Type
REMARK                         _______ _______ _______ _____ _____    ______ ____
ROOT
ATOM      1  C   UNL     1      34.663  29.977  47.407  0.00  0.00    +0.000 A 
ATOM      2  C   UNL     1      35.519  29.897  48.503  0.00  0.00    +0.000 A 
ATOM      3  C   UNL     1      35.417  28.738  49.264  0.00  0.00    +0.000 A 
ATOM      4  N   UNL     1      34.538  27.772  48.938  0.00  0.00    +0.000 NA
ATOM      5  C   UNL     1      33.726  27.879  47.876  0.00  0.00    +0.000 A 
ATOM      6  N   UNL     1      33.791  28.985  47.112  0.00  0.00    +0.000 NA
ATOM      7  H   UNL     1      34.713  30.875  46.782  0.00  0.00    +0.000 HD
ATOM      8  H   UNL     1      36.077  28.647  50.133  0.00  0.00    +0.000 HD
ENDROOT
BRANCH   2   9
ATOM      9  N   UNL     1      36.407  30.967  48.751  0.00  0.00    +0.000 N 
ATOM     10  C   UNL     1      36.383  31.730  49.866  0.00  0.00    +0.000 A 
ATOM     11  N   UNL     1      37.363  32.661  49.787  0.00  0.00    +0.000 NA
ATOM     12  C   UNL     1      37.995  32.463  48.608  0.00  0.00    +0.000 A 
ATOM     13  C   UNL     1      39.056  33.076  47.960  0.00  0.00    +0.000 A 
ATOM     14  N   UNL     1      39.479  32.665  46.772  0.00  0.00    +0.000 NA
ATOM     15  C   UNL     1      38.898  31.620  46.122  0.00  0.00    +0.000 A 
ATOM     16  N   UNL     1      37.863  31.026  46.759  0.00  0.00    +0.000 NA
ATOM     17  C   UNL     1      37.406  31.405  47.949  0.00  0.00    +0.000 A 
ATOM     18  H   UNL     1      35.733  31.676  50.709  0.00  0.00    +0.000 HD
ATOM     19  H   UNL     1      39.260  31.289  45.142  0.00  0.00    +0.000 HD
BRANCH  13  20
ATOM     20  N   UNL     1      39.691  34.165  48.578  0.00  0.00    +0.000 N 
ATOM     21  H   UNL     1      40.607  34.562  48.263  0.00  0.00    +0.000 HD
ATOM     22  H   UNL     1      39.410  34.746  49.399  0.00  0.00    +0.000 HD
ENDBRANCH  13  20
ENDBRANCH   2   9
BRANCH   5  23
ATOM     23  C   UNL     1      32.738  26.840  47.451  0.00  0.00    +0.000 C 
BRANCH  23  24
ATOM     24  C   UNL     1      31.548  26.899  48.443  0.00  0.00    +0.000 C 
ATOM     25  H   UNL     1      31.855  27.422  49.359  0.00  0.00    +0.000 HD
ATOM     26  H   UNL     1      31.279  25.857  48.666  0.00  0.00    +0.000 HD
ATOM     27  H   UNL     1      30.687  27.423  48.026  0.00  0.00    +0.000 HD
ENDBRANCH  23  24
BRANCH  23  28
ATOM     28  C   UNL     1      32.142  27.136  46.112  0.00  0.00    +0.000 C 
ATOM     29  H   UNL     1      32.779  26.982  45.246  0.00  0.00    +0.000 HD
ATOM     30  H   UNL     1      31.971  28.270  46.128  0.00  0.00    +0.000 HD
ATOM     31  H   UNL     1      31.111  26.729  46.055  0.00  0.00    +0.000 HD
ENDBRANCH  23  28
BRANCH  23  32
ATOM     32  C   UNL     1      33.339  25.477  47.471  0.00  0.00    +0.000 C 
ATOM     33  H   UNL     1      33.724  25.335  48.521  0.00  0.00    +0.000 HD
ATOM     34  H   UNL     1      34.301  25.568  46.876  0.00  0.00    +0.000 HD
BRANCH  32  35
ATOM     35  N   UNL     1      32.506  24.398  47.061  0.00  0.00    +0.000 NA
ATOM     36  C   UNL     1      31.351  24.384  47.998  0.00  0.00    +0.000 C 
ATOM     37  C   UNL     1      31.827  24.519  49.390  0.00  0.00    +0.000 C 
ATOM     38  O   UNL     1      32.867  23.721  49.766  0.00  0.00    +0.000 OA
ATOM     39  C   UNL     1      33.550  23.041  48.815  0.00  0.00    +0.000 C 
ATOM     40  C   UNL     1      33.089  23.083  47.415  0.00  0.00    +0.000 C 
ENDBRANCH  32  35
ENDBRANCH  23  32
ENDBRANCH   5  23
TORSDOF 7
