
     RDKit          3D

 43 46  0  0  0  0  0  0  0  0999 V2000
   35.2960   29.4109   48.9844 C   0  0  2  0  0  0  0  0  0  0  0  0
   34.1887   29.3622   49.9339 C   0  0  0  0  0  0  0  0  0  0  0  0
   34.5302   28.0970   49.3502 C   0  0  1  0  0  0  0  0  0  0  0  0
   36.7105   29.3885   49.5908 C   0  0  0  0  0  0  0  0  0  0  0  0
   38.0779   32.7719   49.4400 C   0  0  0  0  0  0  0  0  0  0  0  0
   38.7528   32.7775   48.2037 C   0  0  0  0  0  0  0  0  0  0  0  0
   38.7229   31.5925   47.4328 C   0  0  0  0  0  0  0  0  0  0  0  0
   38.0411   30.5094   47.9307 N   0  0  0  0  0  0  0  0  0  0  0  0
   37.4174   30.5659   49.1160 C   0  0  0  0  0  0  0  0  0  0  0  0
   37.4417   31.6996   49.8616 N   0  0  0  0  0  0  0  0  0  0  0  0
   33.5645   27.5864   48.2986 C   0  0  0  0  0  0  0  0  0  0  0  0
   33.9076   26.4403   47.8066 O   0  0  0  0  0  0  0  0  0  0  0  0
   32.4039   28.2187   47.8568 O   0  0  0  0  0  0  0  0  0  0  0  0
   31.1443   27.8272   48.2233 C   0  0  0  0  0  0  0  0  0  0  0  0
   30.6270   27.8079   49.6134 C   0  0  0  0  0  0  0  0  0  0  0  0
   29.3571   27.3954   49.8094 C   0  0  0  0  0  0  0  0  0  0  0  0
   28.5390   26.9948   48.7380 C   0  0  0  0  0  0  0  0  0  0  0  0
   29.6372   27.2010   47.2608 S   0  0  0  0  0  0  0  0  0  0  0  0
   35.2139   29.7073   47.9385 H   0  0  0  0  0  0  0  0  0  0  0  0
   34.4310   29.5348   51.0245 H   0  0  0  0  0  0  0  0  0  0  0  0
   33.2228   29.8729   49.6826 H   0  0  0  0  0  0  0  0  0  0  0  0
   35.1848   27.3205   49.7465 H   0  0  0  0  0  0  0  0  0  0  0  0
   37.2045   28.4668   49.2616 H   0  0  0  0  0  0  0  0  0  0  0  0
   36.6401   29.3516   50.6973 H   0  0  0  0  0  0  0  0  0  0  0  0
   38.1598   33.7238   49.9530 H   0  0  0  0  0  0  0  0  0  0  0  0
   39.3109   33.5627   47.7255 H   0  0  0  0  0  0  0  0  0  0  0  0
   39.1974   31.4703   46.4758 H   0  0  0  0  0  0  0  0  0  0  0  0
   31.3053   28.1274   50.3826 H   0  0  0  0  0  0  0  0  0  0  0  0
   28.9138   27.3542   50.7890 H   0  0  0  0  0  0  0  0  0  0  0  0
   27.2972   26.5607   48.6434 N   0  0  0  0  0  0  0  0  0  0  0  0
   26.3313   27.2975   47.8536 C   0  0  0  0  0  0  0  0  0  0  0  0
   25.9984   26.3737   46.6844 C   0  0  0  0  0  0  0  0  0  0  0  0
   26.0340   25.0557   47.0647 O   0  0  0  0  0  0  0  0  0  0  0  0
   25.7355   24.8026   48.3821 C   0  0  0  0  0  0  0  0  0  0  0  0
   26.8300   25.3565   49.3012 C   0  0  0  0  0  0  0  0  0  0  0  0
   26.6973   28.2594   47.4802 H   0  0  0  0  0  0  0  0  0  0  0  0
   25.4132   27.5333   48.4412 H   0  0  0  0  0  0  0  0  0  0  0  0
   26.8277   26.5309   45.9430 H   0  0  0  0  0  0  0  0  0  0  0  0
   25.0683   26.6715   46.1692 H   0  0  0  0  0  0  0  0  0  0  0  0
   25.7440   23.7065   48.5175 H   0  0  0  0  0  0  0  0  0  0  0  0
   24.7280   25.1617   48.6759 H   0  0  0  0  0  0  0  0  0  0  0  0
   27.6479   24.6182   49.3266 H   0  0  0  0  0  0  0  0  0  0  0  0
   26.3733   25.5553   50.2855 H   0  0  0  0  0  0  0  0  0  0  0  0
  1  3  1  0
  1  4  1  0
  1  2  1  0
  3  2  1  0
  5 10  2  0
  6  5  1  0
  7  8  1  0
  7  6  2  0
  8  9  2  0
  9  4  1  0
  9 10  1  0
 11  3  1  0
 12 11  2  0
 13 14  1  0
 13 11  1  0
 14 15  2  0
 15 16  1  0
 17 16  2  0
 18 14  1  0
 18 17  1  0
  1 19  1  6
  2 20  1  0
  2 21  1  0
  3 22  1  1
  4 23  1  0
  4 24  1  0
  5 25  1  0
  6 26  1  0
  7 27  1  0
 15 28  1  0
 16 29  1  0
 30 31  1  0
 31 32  1  0
 32 33  1  0
 33 34  1  0
 34 35  1  0
 35 30  1  0
 31 36  1  0
 31 37  1  0
 32 38  1  0
 32 39  1  0
 34 40  1  0
 34 41  1  0
 35 42  1  0
 35 43  1  0
 17 30  1  0
M  ISO  8  19  13  20  13  21  13  22  13  23   8  24   8  25  14  26  14
M  ISO  3  27  14  28  14  29  14
M  END
>  <DihAtoms>  (1) 
15,16,29,30

>  <DihDeg>  (1) 
-0.04522501210523653

$$$$
