REMARK  Name = 
REMARK  6 active torsions:
REMARK  status: ('A' for Active; 'I' for Inactive)
REMARK    1  A    between atoms: C_1  and  C_4
REMARK    2  A    between atoms: C_3  and  C_11
REMARK    3  A    between atoms: C_4  and  C_9
REMARK    4  A    between atoms: C_11  and  O_13
REMARK    5  A    between atoms: O_13  and  C_14
REMARK    6  A    between atoms: C_17  and  N_30
REMARK                            x       y       z     vdW  Elec       q    Type
REMARK                         _______ _______ _______ _____ _____    ______ ____
ROOT
ATOM      1  C   UNL     1      35.296  29.411  48.984  0.00  0.00    +0.000 C 
ATOM      2  C   UNL     1      34.189  29.362  49.934  0.00  0.00    +0.000 C 
ATOM      3  C   UNL     1      34.530  28.097  49.350  0.00  0.00    +0.000 C 
ATOM      4  H   UNL     1      35.214  29.707  47.938  0.00  0.00    +0.000 HD
ATOM      5  H   UNL     1      34.431  29.535  51.025  0.00  0.00    +0.000 HD
ATOM      6  H   UNL     1      33.223  29.873  49.683  0.00  0.00    +0.000 HD
ATOM      7  H   UNL     1      35.185  27.320  49.746  0.00  0.00    +0.000 HD
ENDROOT
BRANCH   1   8
ATOM      8  C   UNL     1      36.711  29.389  49.591  0.00  0.00    +0.000 C 
ATOM      9  H   UNL     1      37.205  28.467  49.262  0.00  0.00    +0.000 HD
ATOM     10  H   UNL     1      36.640  29.352  50.697  0.00  0.00    +0.000 HD
BRANCH   8  15
ATOM     11  C   UNL     1      38.078  32.772  49.440  0.00  0.00    +0.000 A 
ATOM     12  C   UNL     1      38.753  32.778  48.204  0.00  0.00    +0.000 A 
ATOM     13  C   UNL     1      38.723  31.593  47.433  0.00  0.00    +0.000 A 
ATOM     14  N   UNL     1      38.041  30.509  47.931  0.00  0.00    +0.000 NA
ATOM     15  C   UNL     1      37.417  30.566  49.116  0.00  0.00    +0.000 A 
ATOM     16  N   UNL     1      37.442  31.700  49.862  0.00  0.00    +0.000 NA
ATOM     17  H   UNL     1      38.160  33.724  49.953  0.00  0.00    +0.000 HD
ATOM     18  H   UNL     1      39.311  33.563  47.725  0.00  0.00    +0.000 HD
ATOM     19  H   UNL     1      39.197  31.470  46.476  0.00  0.00    +0.000 HD
ENDBRANCH   8  15
ENDBRANCH   1   8
BRANCH   3  20
ATOM     20  C   UNL     1      33.565  27.586  48.299  0.00  0.00    +0.000 C 
ATOM     21  O   UNL     1      33.908  26.440  47.807  0.00  0.00    +0.000 OA
BRANCH  20  22
ATOM     22  O   UNL     1      32.404  28.219  47.857  0.00  0.00    +0.000 OA
BRANCH  22  23
ATOM     23  C   UNL     1      31.144  27.827  48.223  0.00  0.00    +0.000 A 
ATOM     24  C   UNL     1      30.627  27.808  49.613  0.00  0.00    +0.000 A 
ATOM     25  C   UNL     1      29.357  27.395  49.809  0.00  0.00    +0.000 A 
ATOM     26  C   UNL     1      28.539  26.995  48.738  0.00  0.00    +0.000 A 
ATOM     27  S   UNL     1      29.637  27.201  47.261  0.00  0.00    +0.000 S 
ATOM     28  H   UNL     1      31.305  28.127  50.383  0.00  0.00    +0.000 HD
ATOM     29  H   UNL     1      28.914  27.354  50.789  0.00  0.00    +0.000 HD
BRANCH  26  30
ATOM     30  N   UNL     1      27.297  26.561  48.643  0.00  0.00    +0.000 N 
ATOM     31  C   UNL     1      26.331  27.297  47.854  0.00  0.00    +0.000 C 
ATOM     32  C   UNL     1      25.998  26.374  46.684  0.00  0.00    +0.000 C 
ATOM     33  O   UNL     1      26.034  25.056  47.065  0.00  0.00    +0.000 OA
ATOM     34  C   UNL     1      25.735  24.803  48.382  0.00  0.00    +0.000 C 
ATOM     35  C   UNL     1      26.830  25.357  49.301  0.00  0.00    +0.000 C 
ENDBRANCH  26  30
ENDBRANCH  22  23
ENDBRANCH  20  22
ENDBRANCH   3  20
TORSDOF 6
