
 OpenBabel03252514033D

 35 38  0  0  1  0  0  0  0  0999 V2000
   35.2530   29.0890   48.4690 C   0  0  2  0  0  0  0  0  0  0  0  0
   33.9810   29.3990   49.1130 C   0  0  0  0  0  0  0  0  0  0  0  0
   34.2740   27.9980   49.0150 C   0  0  1  0  0  0  0  0  0  0  0  0
   35.4200   29.0500   47.3920 H   0  0  0  0  0  0  0  0  0  0  0  0
   34.0190   29.8880   50.1320 H   0  0  0  0  0  0  0  0  0  0  0  0
   33.1550   29.8610   48.5110 H   0  0  0  0  0  0  0  0  0  0  0  0
   34.7360   27.3470   49.7580 H   0  0  0  0  0  0  0  0  0  0  0  0
   36.5050   29.1760   49.3620 C   0  0  0  0  0  0  0  0  0  0  0  0
   37.1510   28.3230   49.1230 H   0  0  0  0  0  0  0  0  0  0  0  0
   36.2080   29.0800   50.4270 H   0  0  0  0  0  0  0  0  0  0  0  0
   37.5310   32.6720   49.6100 C   0  0  0  0  0  0  0  0  0  0  0  0
   38.4220   32.8100   48.5280 C   0  0  0  0  0  0  0  0  0  0  0  0
   38.6560   31.6740   47.7200 C   0  0  0  0  0  0  0  0  0  0  0  0
   38.0040   30.5060   48.0340 N   0  0  0  0  0  0  0  0  0  0  0  0
   37.1660   30.4380   49.0780 C   0  0  0  0  0  0  0  0  0  0  0  0
   36.9370   31.5250   49.8590 N   0  0  0  0  0  0  0  0  0  0  0  0
   37.4200   33.5970   50.1660 H   0  0  0  0  0  0  0  0  0  0  0  0
   38.9790   33.6690   48.1960 H   0  0  0  0  0  0  0  0  0  0  0  0
   39.3110   31.6490   46.8680 H   0  0  0  0  0  0  0  0  0  0  0  0
   33.4830   27.2420   47.9670 C   0  0  0  0  0  0  0  0  0  0  0  0
   34.0120   26.1040   47.6530 O   0  0  0  0  0  0  0  0  0  0  0  0
   32.2990   27.6550   47.3590 O   0  0  0  0  0  0  0  0  0  0  0  0
   31.1430   27.9070   48.0500 C   0  0  0  0  0  0  0  0  0  0  0  0
   30.8600   27.4510   49.4320 C   0  0  0  0  0  0  0  0  0  0  0  0
   29.6700   27.7850   49.9760 C   0  0  0  0  0  0  0  0  0  0  0  0
   28.7220   28.5420   49.2660 C   0  0  0  0  0  0  0  0  0  0  0  0
   29.5490   28.8430   47.6360 S   0  0  0  0  0  0  0  0  0  0  0  0
   31.6280   26.8770   49.9170 H   0  0  0  0  0  0  0  0  0  0  0  0
   29.3940   27.4890   50.9730 H   0  0  0  0  0  0  0  0  0  0  0  0
   27.5170   28.9990   49.5440 N   0  0  0  0  0  0  0  0  0  0  0  0
   27.2150   30.4040   49.3600 C   0  0  0  0  0  2  0  0  0  0  0  0
   26.1970   30.4370   48.2220 C   0  0  0  0  0  2  0  0  0  0  0  0
   25.3790   29.3370   48.2530 O   0  0  0  0  0  0  0  0  0  0  0  0
   25.1610   28.7850   49.4920 C   0  0  0  0  0  2  0  0  0  0  0  0
   26.4470   28.1540   50.0390 C   0  0  0  0  0  2  0  0  0  0  0  0
  1  4  1  6  0  0  0
  1  3  1  0  0  0  0
  1  2  1  0  0  0  0
  1  8  1  0  0  0  0
  2  5  1  0  0  0  0
  3  2  1  0  0  0  0
  3  7  1  1  0  0  0
  6  2  1  0  0  0  0
  8 10  1  0  0  0  0
  9  8  1  0  0  0  0
 11 16  1  0  0  0  0
 11 17  1  0  0  0  0
 12 11  2  0  0  0  0
 13 14  2  0  0  0  0
 13 12  1  0  0  0  0
 14 15  1  0  0  0  0
 15  8  1  0  0  0  0
 15 16  2  0  0  0  0
 18 12  1  0  0  0  0
 19 13  1  0  0  0  0
 20  3  1  0  0  0  0
 21 20  2  0  0  0  0
 22 20  1  0  0  0  0
 22 23  1  0  0  0  0
 23 24  2  0  0  0  0
 24 28  1  0  0  0  0
 24 25  1  0  0  0  0
 25 29  1  0  0  0  0
 26 30  1  0  0  0  0
 26 25  2  0  0  0  0
 27 23  1  0  0  0  0
 27 26  1  0  0  0  0
 30 35  1  0  0  0  0
 31 30  1  0  0  0  0
 32 33  1  0  0  0  0
 32 31  1  0  0  0  0
 33 34  1  0  0  0  0
 34 35  1  0  0  0  0
M  END
>  <minimizedAffinity>
-6.18367386

>  <minimizedRMSD>
2.04399705

$$$$
