
 OpenBabel03252510513D

 33 37  0  0  1  0  0  0  0  0999 V2000
   35.2810   30.4510   47.2920 C   0  0  0  0  0  0  0  0  0  0  0  0
   36.4500   30.3490   48.0560 C   0  0  0  0  0  0  0  0  0  0  0  0
   36.4560   29.4520   49.0990 C   0  0  0  0  0  0  0  0  0  0  0  0
   35.3140   28.7150   49.3220 N   0  0  0  0  0  0  0  0  0  0  0  0
   34.2210   28.8330   48.5810 C   0  0  0  0  0  0  0  0  0  0  0  0
   34.1980   29.7050   47.5600 N   0  0  0  0  0  0  0  0  0  0  0  0
   35.1960   31.1300   46.4580 H   0  0  0  0  0  0  0  0  0  0  0  0
   37.3180   29.3240   49.7220 H   0  0  0  0  0  0  0  0  0  0  0  0
   37.5590   31.1420   47.7470 N   0  0  0  0  0  0  0  0  0  0  0  0
   38.0190   32.1710   48.4790 C   0  0  0  0  0  0  0  0  0  0  0  0
   39.0970   32.7380   47.9270 N   0  0  0  0  0  0  0  0  0  0  0  0
   39.3500   32.0480   46.7880 C   0  0  0  0  0  0  0  0  0  0  0  0
   40.2890   32.1280   45.8000 C   0  0  0  0  0  0  0  0  0  0  0  0
   40.3320   31.2960   44.7270 N   0  0  0  0  0  0  0  0  0  0  0  0
   39.3750   30.3490   44.6720 C   0  0  0  0  0  0  0  0  0  0  0  0
   38.4520   30.2720   45.6450 N   0  0  0  0  0  0  0  0  0  0  0  0
   38.3760   31.0610   46.7020 C   0  0  0  0  0  0  0  0  0  0  0  0
   37.6640   32.5940   49.4080 H   0  0  0  0  0  0  0  0  0  0  0  0
   41.0280   32.9250   45.9230 H   0  0  0  0  0  0  0  0  0  0  0  0
   39.4100   29.6860   43.8170 H   0  0  0  0  0  0  0  0  0  0  0  0
   33.0300   27.9850   48.9150 C   0  0  2  0  0  0  0  0  0  0  0  0
   32.8250   26.8250   47.8800 C   0  0  0  0  0  0  0  0  0  0  0  0
   31.8720   27.9370   48.0070 C   0  0  1  0  0  0  0  0  0  0  0  0
   33.0130   27.6050   49.9480 H   0  0  0  0  0  0  0  0  0  0  0  0
   33.4650   26.8400   46.9830 H   0  0  0  0  0  0  0  0  0  0  0  0
   32.5310   25.8470   48.2760 H   0  0  0  0  0  0  0  0  0  0  0  0
   31.8960   28.7520   47.2230 H   0  0  0  0  0  0  0  0  0  0  0  0
   30.5510   27.6540   48.4220 N   0  0  0  0  0  0  0  0  0  0  0  0
   29.4970   28.0840   47.5340 C   0  0  0  0  0  0  0  0  0  0  0  0
   28.3810   27.0520   47.7260 C   0  0  0  0  0  0  0  0  0  0  0  0
   28.2480   26.7150   49.0500 O   0  0  0  0  0  0  0  0  0  0  0  0
   28.7270   27.6520   49.9290 C   0  0  0  0  0  0  0  0  0  0  0  0
   30.2320   27.8560   49.7960 C   0  0  0  0  0  0  0  0  0  0  0  0
  1  6  2  0  0  0  0
  1  2  1  0  0  0  0
  2  3  2  0  0  0  0
  3  4  1  0  0  0  0
  3  8  1  0  0  0  0
  5 21  1  0  0  0  0
  5  4  2  0  0  0  0
  6  5  1  0  0  0  0
  7  1  1  0  0  0  0
  9  2  1  0  0  0  0
  9 10  1  0  0  0  0
 10 18  1  0  0  0  0
 11 10  2  0  0  0  0
 12 11  1  0  0  0  0
 13 19  1  0  0  0  0
 13 12  2  0  0  0  0
 14 13  1  0  0  0  0
 15 14  2  0  0  0  0
 15 16  1  0  0  0  0
 16 17  2  0  0  0  0
 17 12  1  0  0  0  0
 17  9  1  0  0  0  0
 20 15  1  0  0  0  0
 21 24  1  1  0  0  0
 22 23  1  0  0  0  0
 22 26  1  0  0  0  0
 22 21  1  0  0  0  0
 23 27  1  6  0  0  0
 23 28  1  0  0  0  0
 23 21  1  0  0  0  0
 25 22  1  0  0  0  0
 28 33  1  0  0  0  0
 29 30  1  0  0  0  0
 29 28  1  0  0  0  0
 30 31  1  0  0  0  0
 31 32  1  0  0  0  0
 33 32  1  0  0  0  0
M  END
>  <minimizedAffinity>
-6.10932827

>  <minimizedRMSD>
1.11778462

$$$$
