
 OpenBabel03252513553D

 25 27  0  0  1  0  0  0  0  0999 V2000
   36.1400   30.2070   50.1700 C   0  0  2  0  0  0  0  0  0  0  0  0
   35.3220   29.2010   50.8950 C   0  0  0  0  0  0  0  0  0  0  0  0
   35.5510   29.0260   49.4520 C   0  0  1  0  0  0  0  0  0  0  0  0
   35.6790   31.2040   49.9100 H   0  0  0  0  0  0  0  0  0  0  0  0
   34.4110   29.6130   51.3500 H   0  0  0  0  0  0  0  0  0  0  0  0
   35.8710   28.5230   51.6100 H   0  0  0  0  0  0  0  0  0  0  0  0
   36.2670   28.1960   49.1780 H   0  0  0  0  0  0  0  0  0  0  0  0
   34.4560   29.1800   48.5530 N   0  0  0  0  0  0  0  0  0  0  0  0
   33.7870   27.9020   48.3410 C   0  0  0  0  0  0  0  0  0  0  0  0
   32.6320   28.0580   47.3700 C   0  0  0  0  0  0  0  0  0  0  0  0
   32.5970   29.3320   46.8190 O   0  0  0  0  0  0  0  0  0  0  0  0
   33.7810   29.7890   46.3130 C   0  0  0  0  0  0  0  0  0  0  0  0
   34.9200   29.5950   47.2470 C   0  0  0  0  0  0  0  0  0  0  0  0
   37.6350   30.2180   50.3130 C   0  0  0  0  0  0  0  0  0  0  0  0
   37.9640   30.4300   51.3520 H   0  0  0  0  0  0  0  0  0  0  0  0
   38.0280   29.2080   50.0160 H   0  0  0  0  0  0  0  0  0  0  0  0
   38.9420   33.3070   48.8100 C   0  0  0  0  0  0  0  0  0  0  0  0
   39.1640   32.9620   47.4780 C   0  0  0  0  0  0  0  0  0  0  0  0
   38.8570   31.6530   47.1150 C   0  0  0  0  0  0  0  0  0  0  0  0
   38.3650   30.7960   48.0550 N   0  0  0  0  0  0  0  0  0  0  0  0
   38.1680   31.1890   49.3430 C   0  0  0  0  0  0  0  0  0  0  0  0
   38.4600   32.4590   49.7220 N   0  0  0  0  0  0  0  0  0  0  0  0
   39.1560   34.3040   49.1700 H   0  0  0  0  0  0  0  0  0  0  0  0
   39.5560   33.6920   46.7880 H   0  0  0  0  0  0  0  0  0  0  0  0
   39.0090   31.3340   46.1020 H   0  0  0  0  0  0  0  0  0  0  0  0
  1  4  1  6  0  0  0
  1 14  1  0  0  0  0
  1  2  1  0  0  0  0
  2  5  1  0  0  0  0
  2  6  1  0  0  0  0
  3  7  1  6  0  0  0
  3  1  1  0  0  0  0
  3  2  1  0  0  0  0
  8  3  1  0  0  0  0
  9  8  1  0  0  0  0
 10  9  1  0  0  0  0
 11 10  1  0  0  0  0
 12 11  1  0  0  0  0
 12 13  1  0  0  0  0
 13  8  1  0  0  0  0
 14 15  1  0  0  0  0
 16 14  1  0  0  0  0
 17 23  1  0  0  0  0
 17 22  1  0  0  0  0
 18 17  2  0  0  0  0
 19 18  1  0  0  0  0
 19 20  2  0  0  0  0
 20 21  1  0  0  0  0
 21 22  2  0  0  0  0
 21 14  1  0  0  0  0
 24 18  1  0  0  0  0
 25 19  1  0  0  0  0
M  END
>  <minimizedAffinity>
-4.82569933

>  <minimizedRMSD>
1.44669855

$$$$
