
     RDKit          3D

 29 30  0  0  0  0  0  0  0  0999 V2000
   36.8911   29.4357   49.6529 C   0  0  0  0  0  0  0  0  0  0  0  0
   38.4297   32.7508   49.3801 C   0  0  0  0  0  0  0  0  0  0  0  0
   38.9411   32.7510   48.0739 C   0  0  0  0  0  0  0  0  0  0  0  0
   38.7481   31.5969   47.2959 C   0  0  0  0  0  0  0  0  0  0  0  0
   38.0723   30.5384   47.8563 N   0  0  0  0  0  0  0  0  0  0  0  0
   37.6054   30.5904   49.1060 C   0  0  0  0  0  0  0  0  0  0  0  0
   37.7900   31.7009   49.8576 N   0  0  0  0  0  0  0  0  0  0  0  0
   35.4299   29.5435   49.2115 C   0  0  2  0  0  0  0  0  0  0  0  0
   34.4038   29.4682   50.2627 C   0  0  0  0  0  0  0  0  0  0  0  0
   34.6543   28.2459   49.5127 C   0  0  1  0  0  0  0  0  0  0  0  0
   33.5725   27.8537   48.5472 C   0  0  0  0  0  0  0  0  0  0  0  0
   33.8768   26.8534   47.7816 O   0  0  0  0  0  0  0  0  0  0  0  0
   32.3281   28.4491   48.4286 O   0  0  0  0  0  0  0  0  0  0  0  0
   37.2988   28.4561   49.3042 H   0  0  0  0  0  0  0  0  0  0  0  0
   36.9123   29.4517   50.7512 H   0  0  0  0  0  0  0  0  0  0  0  0
   38.5245   33.5849   50.0566 H   0  0  0  0  0  0  0  0  0  0  0  0
   39.4618   33.6351   47.7173 H   0  0  0  0  0  0  0  0  0  0  0  0
   39.1333   31.5876   46.3018 H   0  0  0  0  0  0  0  0  0  0  0  0
   35.2605   29.9584   48.2173 H   0  0  0  0  0  0  0  0  0  0  0  0
   33.4690   30.0462   50.0817 H   0  0  0  0  0  0  0  0  0  0  0  0
   34.7064   29.5124   51.3316 H   0  0  0  0  0  0  0  0  0  0  0  0
   35.3210   27.4164   49.7610 H   0  0  0  0  0  0  0  0  0  0  0  0
   31.3795   27.9898   47.4890 C   0  0  0  0  0  0  0  0  0  0  0  0
   31.7752   26.6124   46.9655 C   0  0  0  0  0  0  0  0  0  0  0  0
   31.2433   26.4741   46.0020 H   0  0  0  0  0  0  0  0  0  0  0  0
   30.3612   27.9721   47.9122 H   0  0  0  0  0  0  0  0  0  0  0  0
   31.3303   28.6484   46.5886 H   0  0  0  0  0  0  0  0  0  0  0  0
   32.8628   26.6030   46.7478 H   0  0  0  0  0  0  0  0  0  0  0  0
   31.5164   25.8156   47.7064 H   0  0  0  0  0  0  0  0  0  0  0  0
  2  7  2  0
  3  2  1  0
  4  5  1  0
  4  3  2  0
  5  6  2  0
  6  1  1  0
  6  7  1  0
  8 10  1  0
  8  1  1  0
  8  9  1  0
 10  9  1  0
 11 10  1  0
 12 11  2  0
 13 11  1  0
  1 14  1  0
  1 15  1  0
  2 16  1  0
  3 17  1  0
  4 18  1  0
  8 19  1  6
  9 20  1  0
  9 21  1  0
 10 22  1  1
 23 24  1  0
 24 25  1  0
 23 26  1  0
 23 27  1  0
 24 28  1  0
 24 29  1  0
 13 23  1  0
M  ISO  8  14   8  15   8  16  14  17  14  18  14  19  13  20  13  21  13
M  ISO  2  22  13  25   8
M  END
>  <DihAtoms>  (1) 
10,12,22,23

>  <DihDeg>  (1) 
179.99653491105425

$$$$
