
 OpenBabel03252513593D

 25 26  0  0  1  0  0  0  0  0999 V2000
   35.3430   29.4480   49.0760 C   0  0  2  0  0  0  0  0  0  0  0  0
   34.2490   29.4530   50.0580 C   0  0  0  0  0  0  0  0  0  0  0  0
   34.5630   28.1710   49.4450 C   0  0  1  0  0  0  0  0  0  0  0  0
   35.2380   29.7640   48.0370 H   0  0  0  0  0  0  0  0  0  0  0  0
   33.3220   29.9950   49.7610 H   0  0  0  0  0  0  0  0  0  0  0  0
   34.4760   29.6020   51.1360 H   0  0  0  0  0  0  0  0  0  0  0  0
   35.2210   27.3790   49.8150 H   0  0  0  0  0  0  0  0  0  0  0  0
   36.7720   29.4080   49.6220 C   0  0  0  0  0  0  0  0  0  0  0  0
   37.2500   28.4500   49.3030 H   0  0  0  0  0  0  0  0  0  0  0  0
   36.7120   29.4190   50.7190 H   0  0  0  0  0  0  0  0  0  0  0  0
   38.1090   32.8150   49.4380 C   0  0  0  0  0  0  0  0  0  0  0  0
   38.7710   32.8240   48.2020 C   0  0  0  0  0  0  0  0  0  0  0  0
   38.7500   31.6430   47.4400 C   0  0  0  0  0  0  0  0  0  0  0  0
   38.0830   30.5520   47.9460 N   0  0  0  0  0  0  0  0  0  0  0  0
   37.4680   30.5970   49.1310 C   0  0  0  0  0  0  0  0  0  0  0  0
   37.4870   31.7330   49.8670 N   0  0  0  0  0  0  0  0  0  0  0  0
   38.0670   33.6670   50.0970 H   0  0  0  0  0  0  0  0  0  0  0  0
   39.2710   33.7340   47.8830 H   0  0  0  0  0  0  0  0  0  0  0  0
   39.2510   31.6400   46.4990 H   0  0  0  0  0  0  0  0  0  0  0  0
   33.5540   27.6710   48.4500 C   0  0  0  0  0  0  0  0  0  0  0  0
   33.9990   26.7460   47.6580 O   0  0  0  0  0  0  0  0  0  0  0  0
   32.2440   28.0990   48.3310 O   0  0  0  0  0  0  0  0  0  0  0  0
   31.1610   27.2340   48.6040 C   0  0  0  0  0  2  0  0  0  0  0  0
   30.2620   27.8340   49.6820 C   0  0  0  0  0  2  0  0  0  0  0  0
   29.6800   26.9940   50.1140 H   0  0  0  0  0  0  0  0  0  0  0  0
  1  4  1  6  0  0  0
  1  3  1  0  0  0  0
  1  8  1  0  0  0  0
  1  2  1  0  0  0  0
  2  6  1  0  0  0  0
  3  7  1  1  0  0  0
  3  2  1  0  0  0  0
  5  2  1  0  0  0  0
  8 10  1  0  0  0  0
  9  8  1  0  0  0  0
 11 16  1  0  0  0  0
 11 17  1  0  0  0  0
 12 11  2  0  0  0  0
 13 14  2  0  0  0  0
 13 12  1  0  0  0  0
 14 15  1  0  0  0  0
 15  8  1  0  0  0  0
 15 16  2  0  0  0  0
 18 12  1  0  0  0  0
 19 13  1  0  0  0  0
 20  3  1  0  0  0  0
 21 20  2  0  0  0  0
 22 20  1  0  0  0  0
 22 23  1  0  0  0  0
 23 24  1  0  0  0  0
 24 25  1  0  0  0  0
M  END
>  <minimizedAffinity>
-4.68927526

>  <minimizedRMSD>
0.627322018

$$$$
