
 OpenBabel03252514033D

 35 38  0  0  1  0  0  0  0  0999 V2000
   35.4700   29.4700   48.6970 C   0  0  2  0  0  0  0  0  0  0  0  0
   34.3000   29.3320   49.5590 C   0  0  0  0  0  0  0  0  0  0  0  0
   34.7450   28.1080   48.9580 C   0  0  1  0  0  0  0  0  0  0  0  0
   35.4500   29.8020   47.6590 H   0  0  0  0  0  0  0  0  0  0  0  0
   34.4530   29.4740   50.6700 H   0  0  0  0  0  0  0  0  0  0  0  0
   33.3310   29.8070   49.2540 H   0  0  0  0  0  0  0  0  0  0  0  0
   35.4070   27.3480   49.3750 H   0  0  0  0  0  0  0  0  0  0  0  0
   36.8360   29.4910   49.4070 C   0  0  0  0  0  0  0  0  0  0  0  0
   37.3880   28.5940   49.1030 H   0  0  0  0  0  0  0  0  0  0  0  0
   36.6850   29.4330   50.5040 H   0  0  0  0  0  0  0  0  0  0  0  0
   38.0940   32.9190   49.4140 C   0  0  0  0  0  0  0  0  0  0  0  0
   38.8420   32.9770   48.2230 C   0  0  0  0  0  0  0  0  0  0  0  0
   38.8990   31.8100   47.4260 C   0  0  0  0  0  0  0  0  0  0  0  0
   38.2260   30.6930   47.8570 N   0  0  0  0  0  0  0  0  0  0  0  0
   37.5290   30.7010   49.0020 C   0  0  0  0  0  0  0  0  0  0  0  0
   37.4700   31.8170   49.7730 N   0  0  0  0  0  0  0  0  0  0  0  0
   38.1120   33.8610   49.9520 H   0  0  0  0  0  0  0  0  0  0  0  0
   39.4010   33.7910   47.7960 H   0  0  0  0  0  0  0  0  0  0  0  0
   39.4350   31.7250   46.4970 H   0  0  0  0  0  0  0  0  0  0  0  0
   33.8860   27.5940   47.8200 C   0  0  0  0  0  0  0  0  0  0  0  0
   34.2590   26.4340   47.3860 O   0  0  0  0  0  0  0  0  0  0  0  0
   32.7890   28.2370   47.2490 O   0  0  0  0  0  0  0  0  0  0  0  0
   31.5020   28.0620   47.6820 C   0  0  0  0  0  0  0  0  0  0  0  0
   31.1060   27.3100   48.8970 C   0  0  0  0  0  0  0  0  0  0  0  0
   29.7900   27.2300   49.1900 C   0  0  0  0  0  0  0  0  0  0  0  0
   28.8170   27.8370   48.3780 C   0  0  0  0  0  0  0  0  0  0  0  0
   29.8140   28.6230   47.0300 S   0  0  0  0  0  0  0  0  0  0  0  0
   31.9000   26.8710   49.4720 H   0  0  0  0  0  0  0  0  0  0  0  0
   29.4280   26.7010   50.0550 H   0  0  0  0  0  0  0  0  0  0  0  0
   27.5010   27.9180   48.4260 N   0  0  0  0  0  0  0  0  0  0  0  0
   26.7720   27.2240   49.4670 C   0  0  0  0  0  2  0  0  0  0  0  0
   26.1680   28.3330   50.3260 C   0  0  0  0  0  2  0  0  0  0  0  0
   25.8330   29.4250   49.5660 O   0  0  0  0  0  0  0  0  0  0  0  0
   25.4990   29.1680   48.2580 C   0  0  0  0  0  2  0  0  0  0  0  0
   26.7220   28.6820   47.4720 C   0  0  0  0  0  2  0  0  0  0  0  0
  1  4  1  6  0  0  0
  1  3  1  0  0  0  0
  1  8  1  0  0  0  0
  1  2  1  0  0  0  0
  2  5  1  0  0  0  0
  3  7  1  1  0  0  0
  3  2  1  0  0  0  0
  6  2  1  0  0  0  0
  8 10  1  0  0  0  0
  9  8  1  0  0  0  0
 11 16  1  0  0  0  0
 11 17  1  0  0  0  0
 12 11  2  0  0  0  0
 13 14  2  0  0  0  0
 13 12  1  0  0  0  0
 14 15  1  0  0  0  0
 15  8  1  0  0  0  0
 15 16  2  0  0  0  0
 18 12  1  0  0  0  0
 19 13  1  0  0  0  0
 20  3  1  0  0  0  0
 21 20  2  0  0  0  0
 22 23  1  0  0  0  0
 22 20  1  0  0  0  0
 23 24  2  0  0  0  0
 24 25  1  0  0  0  0
 24 28  1  0  0  0  0
 25 29  1  0  0  0  0
 26 30  1  0  0  0  0
 26 25  2  0  0  0  0
 27 23  1  0  0  0  0
 27 26  1  0  0  0  0
 30 31  1  0  0  0  0
 31 32  1  0  0  0  0
 33 32  1  0  0  0  0
 34 33  1  0  0  0  0
 35 34  1  0  0  0  0
 35 30  1  0  0  0  0
M  END
>  <minimizedAffinity>
-5.75991201

>  <minimizedRMSD>
1.18568695

$$$$
