
 OpenBabel03252514073D

 40 43  0  0  0  0  0  0  0  0999 V2000
   34.6350   29.9900   47.3960 C   0  0  0  0  0  0  0  0  0  0  0  0
   35.4990   29.8930   48.4840 C   0  0  0  0  0  0  0  0  0  0  0  0
   35.4020   28.7220   49.2290 C   0  0  0  0  0  0  0  0  0  0  0  0
   34.5190   27.7620   48.8950 N   0  0  0  0  0  0  0  0  0  0  0  0
   33.6990   27.8860   47.8410 C   0  0  0  0  0  0  0  0  0  0  0  0
   33.7600   29.0030   47.0930 N   0  0  0  0  0  0  0  0  0  0  0  0
   34.6810   30.8970   46.7850 H   0  0  0  0  0  0  0  0  0  0  0  0
   36.0690   28.6170   50.0910 H   0  0  0  0  0  0  0  0  0  0  0  0
   36.3900   30.9580   48.7420 N   0  0  0  0  0  0  0  0  0  0  0  0
   36.3690   31.7110   49.8640 C   0  0  0  0  0  0  0  0  0  0  0  0
   37.3520   32.6400   49.7930 N   0  0  0  0  0  0  0  0  0  0  0  0
   37.9820   32.4510   48.6110 C   0  0  0  0  0  0  0  0  0  0  0  0
   39.0450   33.0670   47.9680 C   0  0  0  0  0  0  0  0  0  0  0  0
   39.4660   32.6660   46.7760 N   0  0  0  0  0  0  0  0  0  0  0  0
   38.8810   31.6280   46.1170 C   0  0  0  0  0  0  0  0  0  0  0  0
   37.8450   31.0310   46.7490 N   0  0  0  0  0  0  0  0  0  0  0  0
   37.3900   31.4010   47.9430 C   0  0  0  0  0  0  0  0  0  0  0  0
   35.7200   31.6500   50.7070 H   0  0  0  0  0  0  0  0  0  0  0  0
   39.2420   31.3060   45.1340 H   0  0  0  0  0  0  0  0  0  0  0  0
   39.6830   34.1480   48.5960 N   0  0  0  0  0  0  0  0  0  0  0  0
   40.6000   34.5460   48.2840 H   0  0  0  0  0  0  0  0  0  0  0  0
   39.4040   34.7220   49.4220 H   0  0  0  0  0  0  0  0  0  0  0  0
   32.7070   26.8550   47.4080 C   0  0  0  0  0  0  0  0  0  0  0  0
   31.5620   26.8450   48.4540 C   0  0  0  0  0  0  0  0  0  0  0  0
   31.9040   27.3260   49.3810 H   0  0  0  0  0  0  0  0  0  0  0  0
   31.3180   25.7890   48.6350 H   0  0  0  0  0  0  0  0  0  0  0  0
   30.6760   27.3760   48.1030 H   0  0  0  0  0  0  0  0  0  0  0  0
   32.0470   27.2080   46.1140 C   0  0  0  0  0  0  0  0  0  0  0  0
   32.6460   27.1080   45.2140 H   0  0  0  0  0  0  0  0  0  0  0  0
   31.8620   28.3370   46.1950 H   0  0  0  0  0  0  0  0  0  0  0  0
   31.0200   26.7890   46.0820 H   0  0  0  0  0  0  0  0  0  0  0  0
   33.3260   25.5020   47.3320 C   0  0  0  0  0  0  0  0  0  0  0  0
   33.8010   25.3330   48.3400 H   0  0  0  0  0  0  0  0  0  0  0  0
   34.2330   25.6280   46.6610 H   0  0  0  0  0  0  0  0  0  0  0  0
   32.4760   24.4230   46.9580 N   0  0  0  0  0  0  0  0  0  0  0  0
   32.8060   23.2960   47.8710 C   0  0  0  0  0  2  0  0  0  0  0  0
   34.2720   23.1390   47.9700 C   0  0  0  0  0  2  0  0  0  0  0  0
   34.9740   23.1410   46.8010 O   0  0  0  0  0  0  0  0  0  0  0  0
   34.3480   23.5140   45.6600 C   0  0  0  0  0  2  0  0  0  0  0  0
   32.9020   23.8010   45.6820 C   0  0  0  0  0  2  0  0  0  0  0  0
  1  2  1  0  0  0  0
  2  9  1  0  0  0  0
  2  3  2  0  0  0  0
  3  8  1  0  0  0  0
  4  3  1  0  0  0  0
  5  4  2  0  0  0  0
  6  1  2  0  0  0  0
  6  5  1  0  0  0  0
  7  1  1  0  0  0  0
  9 10  1  0  0  0  0
 10 18  1  0  0  0  0
 11 10  2  0  0  0  0
 12 11  1  0  0  0  0
 13 20  1  0  0  0  0
 13 12  1  0  0  0  0
 14 13  2  0  0  0  0
 15 16  2  0  0  0  0
 15 14  1  0  0  0  0
 16 17  1  0  0  0  0
 17 12  2  0  0  0  0
 17  9  1  0  0  0  0
 19 15  1  0  0  0  0
 20 22  1  0  0  0  0
 21 20  1  0  0  0  0
 23  5  1  0  0  0  0
 23 24  1  0  0  0  0
 24 26  1  0  0  0  0
 24 25  1  0  0  0  0
 27 24  1  0  0  0  0
 28 30  1  0  0  0  0
 28 23  1  0  0  0  0
 29 28  1  0  0  0  0
 31 28  1  0  0  0  0
 32 23  1  0  0  0  0
 32 33  1  0  0  0  0
 34 32  1  0  0  0  0
 35 32  1  0  0  0  0
 35 36  1  0  0  0  0
 36 37  1  0  0  0  0
 38 37  1  0  0  0  0
 39 40  1  0  0  0  0
 39 38  1  0  0  0  0
 40 35  1  0  0  0  0
M  END
>  <minimizedAffinity>
-5.40380859

>  <minimizedRMSD>
0.154600337

$$$$
