
 OpenBabel03252513413D

 13 13  0  0  0  0  0  0  0  0999 V2000
   36.8960   31.3940   49.9210 C   0  0  0  0  0  0  0  0  0  0  0  0
   35.6470   30.8210   49.5470 C   0  0  0  0  0  0  0  0  0  0  0  0
   35.2060   29.6940   50.2810 C   0  0  0  0  0  0  0  0  0  0  0  0
   35.9950   29.2430   51.2810 N   0  0  0  0  0  0  0  0  0  0  0  0
   37.1670   29.8180   51.5970 C   0  0  0  0  0  0  0  0  0  0  0  0
   37.6120   30.8820   50.9250 N   0  0  0  0  0  0  0  0  0  0  0  0
   35.0250   31.1920   48.7450 H   0  0  0  0  0  0  0  0  0  0  0  0
   34.2820   29.1900   50.0790 H   0  0  0  0  0  0  0  0  0  0  0  0
   37.8260   29.4880   52.3890 H   0  0  0  0  0  0  0  0  0  0  0  0
   37.3270   32.4840   49.2140 O   0  0  0  0  0  0  0  0  0  0  0  0
   38.6700   32.5450   48.7780 C   0  0  0  0  0  0  0  0  0  0  0  0
   39.2150   33.8870   49.2200 C   0  0  0  0  0  0  0  0  0  0  0  0
   39.6530   33.7220   50.2420 H   0  0  0  0  0  0  0  0  0  0  0  0
  1  6  1  0  0  0  0
  2  1  2  0  0  0  0
  2  3  1  0  0  0  0
  3  4  2  0  0  0  0
  4  5  1  0  0  0  0
  5  9  1  0  0  0  0
  6  5  2  0  0  0  0
  7  2  1  0  0  0  0
  8  3  1  0  0  0  0
 10  1  1  0  0  0  0
 11 10  1  0  0  0  0
 11 12  1  0  0  0  0
 12 13  1  0  0  0  0
M  END
>  <minimizedAffinity>
-3.67448592

>  <minimizedRMSD>
3.9829855

$$$$
