
 OpenBabel03252514073D

 40 43  0  0  0  0  0  0  0  0999 V2000
   34.0750   29.9260   47.5410 C   0  0  0  0  0  0  0  0  0  0  0  0
   35.0750   29.6730   48.5070 C   0  0  0  0  0  0  0  0  0  0  0  0
   35.0130   28.4520   49.1870 C   0  0  0  0  0  0  0  0  0  0  0  0
   34.0110   27.5940   48.8840 N   0  0  0  0  0  0  0  0  0  0  0  0
   33.0690   27.8650   47.9540 C   0  0  0  0  0  0  0  0  0  0  0  0
   33.1020   29.0240   47.2870 N   0  0  0  0  0  0  0  0  0  0  0  0
   34.1000   30.8520   47.0090 H   0  0  0  0  0  0  0  0  0  0  0  0
   35.7860   28.2980   49.9070 H   0  0  0  0  0  0  0  0  0  0  0  0
   36.0680   30.6710   48.7110 N   0  0  0  0  0  0  0  0  0  0  0  0
   36.2650   31.3170   49.8820 C   0  0  0  0  0  0  0  0  0  0  0  0
   37.2830   32.1970   49.7230 N   0  0  0  0  0  0  0  0  0  0  0  0
   37.7000   32.0830   48.4490 C   0  0  0  0  0  0  0  0  0  0  0  0
   38.6870   32.7100   47.7230 C   0  0  0  0  0  0  0  0  0  0  0  0
   38.9070   32.4020   46.4280 N   0  0  0  0  0  0  0  0  0  0  0  0
   38.1630   31.4580   45.7850 C   0  0  0  0  0  0  0  0  0  0  0  0
   37.2040   30.8560   46.5110 N   0  0  0  0  0  0  0  0  0  0  0  0
   36.9490   31.1310   47.8050 C   0  0  0  0  0  0  0  0  0  0  0  0
   35.7650   31.2310   50.8400 H   0  0  0  0  0  0  0  0  0  0  0  0
   38.3650   31.2370   44.7460 H   0  0  0  0  0  0  0  0  0  0  0  0
   39.4930   33.6980   48.3290 N   0  0  0  0  0  0  0  0  0  0  0  0
   39.6150   33.8390   49.3440 H   0  0  0  0  0  0  0  0  0  0  0  0
   40.0580   34.3940   47.7800 H   0  0  0  0  0  0  0  0  0  0  0  0
   32.0030   26.8820   47.6610 C   0  0  0  0  0  0  0  0  0  0  0  0
   30.8610   27.0450   48.6670 C   0  0  0  0  0  0  0  0  0  0  0  0
   30.5310   26.0280   48.9640 H   0  0  0  0  0  0  0  0  0  0  0  0
   30.0000   27.5810   48.2650 H   0  0  0  0  0  0  0  0  0  0  0  0
   31.2340   27.5590   49.5950 H   0  0  0  0  0  0  0  0  0  0  0  0
   31.3530   27.2230   46.3060 C   0  0  0  0  0  0  0  0  0  0  0  0
   32.1220   27.2740   45.5180 H   0  0  0  0  0  0  0  0  0  0  0  0
   30.6290   26.3950   46.1350 H   0  0  0  0  0  0  0  0  0  0  0  0
   30.7830   28.1450   46.4690 H   0  0  0  0  0  0  0  0  0  0  0  0
   32.4400   25.4720   47.5560 C   0  0  0  0  0  0  0  0  0  0  0  0
   31.5360   24.8330   47.7000 H   0  0  0  0  0  0  0  0  0  0  0  0
   33.1600   25.2000   48.3810 H   0  0  0  0  0  0  0  0  0  0  0  0
   33.0060   25.1790   46.2810 N   0  0  0  0  0  0  0  0  0  0  0  0
   34.4140   25.0950   46.1720 C   0  0  0  0  0  2  0  0  0  0  0  0
   34.6860   24.3630   44.8390 C   0  0  0  0  0  2  0  0  0  0  0  0
   33.3360   23.8620   44.4190 C   0  0  0  0  0  2  0  0  0  0  0  0
   32.5020   23.9760   45.6820 C   0  0  0  0  0  3  0  0  0  0  0  0
   32.7060   23.0680   46.2860 H   0  0  0  0  0  0  0  0  0  0  0  0
  1  2  1  0  0  0  0
  2  9  1  0  0  0  0
  2  3  2  0  0  0  0
  3  8  1  0  0  0  0
  4  3  1  0  0  0  0
  5  4  2  0  0  0  0
  6  1  2  0  0  0  0
  6  5  1  0  0  0  0
  7  1  1  0  0  0  0
  9 10  1  0  0  0  0
 10 18  1  0  0  0  0
 11 10  2  0  0  0  0
 12 11  1  0  0  0  0
 13 20  1  0  0  0  0
 13 12  2  0  0  0  0
 14 13  1  0  0  0  0
 15 14  2  0  0  0  0
 15 16  1  0  0  0  0
 16 17  2  0  0  0  0
 17 12  1  0  0  0  0
 17  9  1  0  0  0  0
 19 15  1  0  0  0  0
 20 21  1  0  0  0  0
 22 20  1  0  0  0  0
 23  5  1  0  0  0  0
 23 24  1  0  0  0  0
 24 25  1  0  0  0  0
 24 27  1  0  0  0  0
 26 24  1  0  0  0  0
 28 31  1  0  0  0  0
 28 23  1  0  0  0  0
 29 28  1  0  0  0  0
 30 28  1  0  0  0  0
 32 23  1  0  0  0  0
 32 33  1  0  0  0  0
 32 34  1  0  0  0  0
 35 32  1  0  0  0  0
 36 35  1  0  0  0  0
 37 36  1  0  0  0  0
 38 37  1  0  0  0  0
 38 39  1  0  0  0  0
 39 35  1  0  0  0  0
 39 40  1  0  0  0  0
M  END
>  <minimizedAffinity>
-5.21220016

>  <minimizedRMSD>
1.00461161

$$$$
