
 OpenBabel03252514073D

 40 43  0  0  0  0  0  0  0  0999 V2000
   34.2080   30.0730   47.5730 C   0  0  0  0  0  0  0  0  0  0  0  0
   35.2240   29.8130   48.5200 C   0  0  0  0  0  0  0  0  0  0  0  0
   35.1810   28.5800   49.1820 C   0  0  0  0  0  0  0  0  0  0  0  0
   34.1820   27.7190   48.8790 N   0  0  0  0  0  0  0  0  0  0  0  0
   33.2250   27.9970   47.9670 C   0  0  0  0  0  0  0  0  0  0  0  0
   33.2390   29.1670   47.3180 N   0  0  0  0  0  0  0  0  0  0  0  0
   34.2180   31.0070   47.0550 H   0  0  0  0  0  0  0  0  0  0  0  0
   35.9650   28.4220   49.8880 H   0  0  0  0  0  0  0  0  0  0  0  0
   36.2110   30.8150   48.7260 N   0  0  0  0  0  0  0  0  0  0  0  0
   36.3870   31.4800   49.8910 C   0  0  0  0  0  0  0  0  0  0  0  0
   37.4060   32.3590   49.7350 N   0  0  0  0  0  0  0  0  0  0  0  0
   37.8460   32.2250   48.4700 C   0  0  0  0  0  0  0  0  0  0  0  0
   38.8440   32.8430   47.7520 C   0  0  0  0  0  0  0  0  0  0  0  0
   39.0870   32.5150   46.4660 N   0  0  0  0  0  0  0  0  0  0  0  0
   38.3560   31.5600   45.8250 C   0  0  0  0  0  0  0  0  0  0  0  0
   37.3850   30.9680   46.5430 N   0  0  0  0  0  0  0  0  0  0  0  0
   37.1080   31.2620   47.8280 C   0  0  0  0  0  0  0  0  0  0  0  0
   35.8700   31.4070   50.8410 H   0  0  0  0  0  0  0  0  0  0  0  0
   38.5760   31.3230   44.7930 H   0  0  0  0  0  0  0  0  0  0  0  0
   39.6390   33.8410   48.3560 N   0  0  0  0  0  0  0  0  0  0  0  0
   39.7420   33.9990   49.3710 H   0  0  0  0  0  0  0  0  0  0  0  0
   40.2110   34.5300   47.8070 H   0  0  0  0  0  0  0  0  0  0  0  0
   32.1620   27.0110   47.6740 C   0  0  0  0  0  0  0  0  0  0  0  0
   31.0170   27.1720   48.6770 C   0  0  0  0  0  0  0  0  0  0  0  0
   30.6890   26.1550   48.9750 H   0  0  0  0  0  0  0  0  0  0  0  0
   30.1560   27.7050   48.2710 H   0  0  0  0  0  0  0  0  0  0  0  0
   31.3860   27.6900   49.6040 H   0  0  0  0  0  0  0  0  0  0  0  0
   31.5140   27.3460   46.3160 C   0  0  0  0  0  0  0  0  0  0  0  0
   32.2850   27.3970   45.5300 H   0  0  0  0  0  0  0  0  0  0  0  0
   30.7930   26.5150   46.1460 H   0  0  0  0  0  0  0  0  0  0  0  0
   30.9420   28.2660   46.4750 H   0  0  0  0  0  0  0  0  0  0  0  0
   32.6030   25.6010   47.5740 C   0  0  0  0  0  0  0  0  0  0  0  0
   31.7170   24.9590   47.7930 H   0  0  0  0  0  0  0  0  0  0  0  0
   33.3790   25.3550   48.3560 H   0  0  0  0  0  0  0  0  0  0  0  0
   33.0860   25.2810   46.2710 N   0  0  0  0  0  0  0  0  0  0  0  0
   34.4830   25.1540   46.0830 C   0  0  0  0  0  2  0  0  0  0  0  0
   34.6560   24.4040   44.7430 C   0  0  0  0  0  2  0  0  0  0  0  0
   33.2690   23.9400   44.4060 C   0  0  0  0  0  2  0  0  0  0  0  0
   32.5120   24.0890   45.7140 C   0  0  0  0  0  3  0  0  0  0  0  0
   32.7240   23.1800   46.3130 H   0  0  0  0  0  0  0  0  0  0  0  0
  1  2  1  0  0  0  0
  2  9  1  0  0  0  0
  2  3  2  0  0  0  0
  3  8  1  0  0  0  0
  4  3  1  0  0  0  0
  5  4  2  0  0  0  0
  6  1  2  0  0  0  0
  6  5  1  0  0  0  0
  7  1  1  0  0  0  0
  9 10  1  0  0  0  0
 10 18  1  0  0  0  0
 11 10  2  0  0  0  0
 12 11  1  0  0  0  0
 13 20  1  0  0  0  0
 13 12  2  0  0  0  0
 14 13  1  0  0  0  0
 15 14  2  0  0  0  0
 15 16  1  0  0  0  0
 16 17  2  0  0  0  0
 17 12  1  0  0  0  0
 17  9  1  0  0  0  0
 19 15  1  0  0  0  0
 20 21  1  0  0  0  0
 22 20  1  0  0  0  0
 23  5  1  0  0  0  0
 23 24  1  0  0  0  0
 24 25  1  0  0  0  0
 24 27  1  0  0  0  0
 26 24  1  0  0  0  0
 28 31  1  0  0  0  0
 28 23  1  0  0  0  0
 29 28  1  0  0  0  0
 30 28  1  0  0  0  0
 32 23  1  0  0  0  0
 32 33  1  0  0  0  0
 32 34  1  0  0  0  0
 35 32  1  0  0  0  0
 36 35  1  0  0  0  0
 37 36  1  0  0  0  0
 38 37  1  0  0  0  0
 38 39  1  0  0  0  0
 39 35  1  0  0  0  0
 39 40  1  0  0  0  0
M  END
>  <minimizedAffinity>
-5.21526718

>  <minimizedRMSD>
1.02457309

$$$$
