
 OpenBabel03252513533D

 18 19  0  0  0  0  0  0  0  0999 V2000
   38.0390   30.0630   50.1810 C   0  0  0  0  0  0  0  0  0  0  0  0
   38.5510   31.3690   50.2390 C   0  0  0  0  0  0  0  0  0  0  0  0
   38.1180   32.3030   49.2660 C   0  0  0  0  0  0  0  0  0  0  0  0
   37.2250   31.8820   48.3250 N   0  0  0  0  0  0  0  0  0  0  0  0
   36.7530   30.6070   48.3030 C   0  0  0  0  0  0  0  0  0  0  0  0
   37.1590   29.7240   49.2200 N   0  0  0  0  0  0  0  0  0  0  0  0
   38.3400   29.3280   50.8970 H   0  0  0  0  0  0  0  0  0  0  0  0
   39.2450   31.6790   50.9780 H   0  0  0  0  0  0  0  0  0  0  0  0
   38.4770   33.3050   49.2660 H   0  0  0  0  0  0  0  0  0  0  0  0
   35.7880   30.2180   47.2570 C   0  0  0  0  0  0  0  0  0  0  0  0
   36.0470   29.2100   46.8520 H   0  0  0  0  0  0  0  0  0  0  0  0
   35.8650   30.9300   46.4130 H   0  0  0  0  0  0  0  0  0  0  0  0
   34.4680   30.1050   47.8020 N   0  0  0  0  0  0  0  0  0  0  0  0
   33.7920   28.8780   47.5470 C   0  0  0  0  0  0  0  0  0  0  0  0
   33.5620   28.1740   48.8620 C   0  0  0  0  0  0  0  0  0  0  0  0
   33.9400   29.1560   49.9230 C   0  0  0  0  0  0  0  0  0  0  0  0
   34.4190   30.3890   49.2080 C   0  0  0  0  0  0  0  0  0  0  0  0
   35.3920   30.7060   49.6310 H   0  0  0  0  0  0  0  0  0  0  0  0
  1  2  1  0  0  0  0
  1  7  1  0  0  0  0
  2  8  1  0  0  0  0
  3  9  1  0  0  0  0
  3  2  2  0  0  0  0
  4  3  1  0  0  0  0
  5  4  2  0  0  0  0
  5  6  1  0  0  0  0
  6  1  2  0  0  0  0
 10 13  1  0  0  0  0
 10  5  1  0  0  0  0
 11 10  1  0  0  0  0
 12 10  1  0  0  0  0
 13 17  1  0  0  0  0
 14 13  1  0  0  0  0
 14 15  1  0  0  0  0
 15 16  1  0  0  0  0
 17 18  1  0  0  0  0
 17 16  1  0  0  0  0
M  END
>  <minimizedAffinity>
-3.79278255

>  <minimizedRMSD>
2.29080272

$$$$
